20866
     RDKit          3D

 16 18  0  0  0  0  0  0  0  0999 V2000
    1.1058    0.5877    0.4610 N   0  0  0  0  0  0  0  0  0  0  0  0
    3.2943    1.3121    0.3690 N   0  0  0  0  0  0  0  0  0  0  0  0
    2.8350   -0.7498   -0.4601 N   0  0  0  0  0  0  0  0  0  0  0  0
   -0.0161   -0.2608    0.2934 C   0  0  0  0  0  0  0  0  0  0  0  0
   -1.3075    0.2568    0.1016 C   0  0  0  0  0  0  0  0  0  0  0  0
    4.5960    0.9023   -0.0621 C   0  0  0  0  0  0  0  0  0  0  0  0
    2.3764    0.3386    0.1106 C   0  0  0  0  0  0  0  0  0  0  0  0
    4.2984   -0.4944   -0.6223 C   0  0  0  0  0  0  0  0  0  0  0  0
   -2.3936   -0.6359   -0.0607 C   0  0  0  0  0  0  0  0  0  0  0  0
    0.2014   -1.6387    0.3250 C   0  0  0  0  0  0  0  0  0  0  0  0
   -1.5449    1.6405    0.0671 C   0  0  0  0  0  0  0  0  0  0  0  0
   -2.1564   -2.0197   -0.0266 C   0  0  0  0  0  0  0  0  0  0  0  0
   -3.6850   -0.1185   -0.2528 C   0  0  0  0  0  0  0  0  0  0  0  0
   -0.8667   -2.5165    0.1651 C   0  0  0  0  0  0  0  0  0  0  0  0
   -2.8345    2.1371   -0.1244 C   0  0  0  0  0  0  0  0  0  0  0  0
   -3.9026    1.2592   -0.2839 C   0  0  0  0  0  0  0  0  0  0  0  0
  1  4  1  0
  1  7  1  0
  2  6  1  0
  2  7  1  0
  3  7  2  0
  3  8  1  0
  4  5  1  0
  4 10  2  0
  5  9  2  0
  5 11  1  0
  6  8  1  0
  9 12  1  0
  9 13  1  0
 10 14  1  0
 11 15  2  0
 12 14  2  0
 13 16  2  0
 15 16  1  0
M  END
>  <PUBCHEM_COMPOUND_CID>  (1) 
20866

>  <PUBCHEM_CONFORMER_RMSD>  (1) 
0.6

>  <PUBCHEM_CONFORMER_DIVERSEORDER>  (1) 
1
6
4
7
5
2
8
3

>  <PUBCHEM_MMFF94_PARTIAL_CHARGES>  (1) 
23
1 -0.55
10 -0.15
11 -0.15
12 -0.15
13 -0.15
14 -0.15
15 -0.15
16 -0.15
2 -0.82
21 0.4
22 0.4
23 0.15
24 0.15
25 0.15
26 0.15
27 0.15
28 0.15
29 0.15
3 -0.7
4 0.1
6 0.37
7 0.55
8 0.25

>  <PUBCHEM_EFFECTIVE_ROTOR_COUNT>  (1) 
2.6

>  <PUBCHEM_PHARMACOPHORE_FEATURES>  (1) 
6
1 1 donor
1 2 donor
4 1 2 3 7 cation
5 2 3 6 7 8 rings
6 4 5 9 10 12 14 rings
6 5 9 11 13 15 16 rings

>  <PUBCHEM_HEAVY_ATOM_COUNT>  (1) 
16

>  <PUBCHEM_ATOM_DEF_STEREO_COUNT>  (1) 
0

>  <PUBCHEM_ATOM_UDEF_STEREO_COUNT>  (1) 
0

>  <PUBCHEM_BOND_DEF_STEREO_COUNT>  (1) 
0

>  <PUBCHEM_BOND_UDEF_STEREO_COUNT>  (1) 
0

>  <PUBCHEM_ISOTOPIC_ATOM_COUNT>  (1) 
0

>  <PUBCHEM_COMPONENT_COUNT>  (1) 
1

>  <PUBCHEM_CACTVS_TAUTO_COUNT>  (1) 
2

>  <PUBCHEM_CONFORMER_ID>  (1) 
0000518200000001

>  <PUBCHEM_MMFF94_ENERGY>  (1) 
63.6259

>  <PUBCHEM_FEATURE_SELFOVERLAP>  (1) 
30.522

>  <PUBCHEM_SHAPE_FINGERPRINT>  (1) 
10411042 1 17688873455074032539
10498660 4 18334569105947775749
10608611 8 18341891956673408368
10922049 32 18409172073761879499
10967382 1 18338233765275494353
11132069 177 18408318904035850052
12173636 292 18409725149443010845
12346645 44 18335700490611692521
12390115 104 18199486384741114089
12500047 106 18411416232976327742
12644460 14 17972605385726979731
13380535 76 18411698747050618655
13544592 145 18341903935516415390
14123255 52 18264203625992566861
15042514 8 18264213693654767979
15196674 1 18410855442948331623
15375358 24 18201719574482006886
15669948 3 18337662109249602650
15775835 57 18187928343841288768
16945 1 18338784685400182987
17870717 6 18129401361876115510
18186145 218 18272658904764361616
200 152 16702586021516002894
20300324 65 18202278121967407821
20510252 161 18341334478376193803
20645476 183 17894911849477391587
20645477 56 18410012165033248920
20645477 70 17275113799700519758
21501502 16 18193548970405786451
21524375 3 18261955133113561675
21637258 2 15338540739988583591
23366157 5 17753051600757537419
23402539 116 18340759407745540244
23402655 69 18273215283592029804
23557571 272 18269566094493255550
23559900 14 18344145883023087928
25 1 18268991994751778155
2748010 2 17978777241052151083
2838139 119 16372102478982568525
3004659 81 18189908518199537446
3071541 12 17907298745797036787
4028521 119 18408879625069868189
4214541 1 18410856568767924284
43471831 8 18261106344734495251
474 4 16951415510556938828
5104073 3 18410855482104217626
559249 180 18336261237796069442
573450 72 18261095401547663202
633830 44 18271523074787824277
69090 78 18343299275342526710
7364860 26 17979634541946524999
81228 2 18120364617277626899
93112 12 18411702105994346188
9709674 26 18343025518828443414

>  <PUBCHEM_SHAPE_MULTIPOLES>  (1) 
314.33
7.96
2.28
0.68
7.11
0.65
0.02
-3.01
1.25
-1.59
-0.08
0.11
0.01
0.31

>  <PUBCHEM_SHAPE_SELFOVERLAP>  (1) 
692.525

>  <PUBCHEM_SHAPE_VOLUME>  (1) 
166.4

>  <PUBCHEM_COORDINATE_TYPE>  (1) 
2
5
10

$$$$
