20868
     RDKit          3D

 15 15  0  0  0  0  0  0  0  0999 V2000
    5.4267   -1.1865    0.4028 Cl  0  0  0  0  0  0  0  0  0  0  0  0
   -1.0405    0.4917    0.2283 N   0  0  0  0  0  0  0  0  0  0  0  0
   -3.1959    0.1807    0.7983 N   0  0  0  0  0  0  0  0  0  0  0  0
   -2.7011    1.9409   -0.7073 N   0  0  0  0  0  0  0  0  0  0  0  0
   -4.6745   -1.6201    0.8995 N   0  0  0  0  0  0  0  0  0  0  0  0
   -3.4716   -1.3633   -1.0247 N   0  0  0  0  0  0  0  0  0  0  0  0
    1.3565    0.6067   -0.2754 C   0  0  0  0  0  0  0  0  0  0  0  0
   -0.0028    1.2067   -0.5028 C   0  0  0  0  0  0  0  0  0  0  0  0
    2.1412    1.0645    0.7753 C   0  0  0  0  0  0  0  0  0  0  0  0
    1.8127   -0.3980   -1.1194 C   0  0  0  0  0  0  0  0  0  0  0  0
    3.4030    0.5086    0.9856 C   0  0  0  0  0  0  0  0  0  0  0  0
    3.0745   -0.9542   -0.9091 C   0  0  0  0  0  0  0  0  0  0  0  0
    3.8697   -0.5009    0.1436 C   0  0  0  0  0  0  0  0  0  0  0  0
   -2.2622    0.8923    0.0715 C   0  0  0  0  0  0  0  0  0  0  0  0
   -3.7355   -0.8692    0.2336 C   0  0  0  0  0  0  0  0  0  0  0  0
  1 13  1  0
  2  8  1  0
  2 14  2  0
  3 14  1  0
  3 15  2  0
  4 14  1  0
  5 15  1  0
  6 15  1  0
  7  8  1  0
  7  9  2  0
  7 10  1  0
  9 11  1  0
 10 12  2  0
 11 13  2  0
 12 13  1  0
M  END
>  <PUBCHEM_COMPOUND_CID>  (1) 
20868

>  <PUBCHEM_CONFORMER_RMSD>  (1) 
0.6

>  <PUBCHEM_CONFORMER_DIVERSEORDER>  (1) 
1
3
28
17
30
23
22
5
2
8
18
20
25
7
15
26
14
16
13
12
11
27
6
21
24
19
10
29
4
9

>  <PUBCHEM_MMFF94_PARTIAL_CHARGES>  (1) 
25
1 -0.18
10 -0.15
11 -0.15
12 -0.15
13 0.18
14 0.71
15 0.55
18 0.15
19 0.15
2 -0.7
20 0.15
21 0.15
22 0.4
23 0.4
24 0.4
25 0.4
26 0.4
27 0.4
3 -0.66
4 -0.85
5 -0.85
6 -0.85
7 -0.14
8 0.39
9 -0.15

>  <PUBCHEM_EFFECTIVE_ROTOR_COUNT>  (1) 
3

>  <PUBCHEM_PHARMACOPHORE_FEATURES>  (1) 
6
1 4 donor
1 5 donor
1 6 donor
4 2 3 4 14 cation
4 3 5 6 15 cation
6 7 9 10 11 12 13 rings

>  <PUBCHEM_HEAVY_ATOM_COUNT>  (1) 
15

>  <PUBCHEM_ATOM_DEF_STEREO_COUNT>  (1) 
0

>  <PUBCHEM_ATOM_UDEF_STEREO_COUNT>  (1) 
0

>  <PUBCHEM_BOND_DEF_STEREO_COUNT>  (1) 
0

>  <PUBCHEM_BOND_UDEF_STEREO_COUNT>  (1) 
0

>  <PUBCHEM_ISOTOPIC_ATOM_COUNT>  (1) 
0

>  <PUBCHEM_COMPONENT_COUNT>  (1) 
1

>  <PUBCHEM_CACTVS_TAUTO_COUNT>  (1) 
5

>  <PUBCHEM_CONFORMER_ID>  (1) 
0000518400000001

>  <PUBCHEM_MMFF94_ENERGY>  (1) 
44.4098

>  <PUBCHEM_FEATURE_SELFOVERLAP>  (1) 
30.547

>  <PUBCHEM_SHAPE_FINGERPRINT>  (1) 
11046707 91 18260829276214323188
11796584 16 18044933468526900810
12251169 10 17418093230239080124
12346177 29 18260821558469614805
12363563 72 18187654643045540713
12500047 106 18192143798476810077
12633257 1 17417534717119062643
12670543 26 11819274400743943258
13296908 3 18412824668310926572
13675066 3 16128658514086014352
14123260 362 10015585025576234727
14178342 30 18198919023481375961
1420 369 18335706091418293467
14252887 29 17203332161627412694
14993402 34 15574717980507082864
17834072 33 18260271858827716820
18186145 218 8430320172792055116
19050596 39 17131834299989876443
193927 3 18188221969391522595
1986462 14 18260267412872004941
200 152 15285356210831980940
20279233 1 18201436930878812917
20281475 54 18339652126959801404
20671657 53 17603586369716026661
212847 35 9799420996616219878
21501925 9 18411417340671916084
21637258 2 17459178613506746242
22485316 2 18261672563294626312
22646028 28 18040436607133167627
231179 274 10087645888020893470
23402539 116 17458625562983125188
23402655 69 12324238360782794994
23500284 214 10159703503770918013
23557571 272 18337950095565837989
26918003 58 17917428696452011729
312423 11 17968392215888414013
42 15 18343868813728105891
5104073 3 18342735191950380128
76465 3 18407755949739871842

>  <PUBCHEM_SHAPE_MULTIPOLES>  (1) 
285.66
10.35
1.6
1.06
0.53
0.01
0.06
-5.45
-2.23
1.1
0.08
-0.06
-0.09
0.68

>  <PUBCHEM_SHAPE_SELFOVERLAP>  (1) 
579.092

>  <PUBCHEM_SHAPE_VOLUME>  (1) 
167.1

>  <PUBCHEM_COORDINATE_TYPE>  (1) 
2
5
10

$$$$
