20865
     RDKit          3D

 17 18  0  0  0  0  0  0  0  0999 V2000
    4.6481    1.4883    0.3585 Cl  0  0  0  0  0  0  0  0  0  0  0  0
   -1.4920   -1.7305    0.1866 S   0  0  0  0  0  0  0  0  0  0  0  0
   -2.6208   -2.3662   -0.4669 O   0  0  0  0  0  0  0  0  0  0  0  0
   -1.1481   -2.0959    1.5474 O   0  0  0  0  0  0  0  0  0  0  0  0
   -0.1068   -1.8657   -0.8287 N   0  0  0  0  0  0  0  0  0  0  0  0
   -1.7969    0.0126    0.1560 C   0  0  0  0  0  0  0  0  0  0  0  0
    1.0365   -1.0598   -0.5435 C   0  0  0  0  0  0  0  0  0  0  0  0
   -2.6311    0.5336   -0.8165 C   0  0  0  0  0  0  0  0  0  0  0  0
   -1.1944    0.8187    1.1050 C   0  0  0  0  0  0  0  0  0  0  0  0
    1.6854   -1.1797    0.6853 C   0  0  0  0  0  0  0  0  0  0  0  0
    1.5046   -0.1520   -1.4936 C   0  0  0  0  0  0  0  0  0  0  0  0
   -2.8710    1.9074   -0.8410 C   0  0  0  0  0  0  0  0  0  0  0  0
   -1.4346    2.1925    1.0805 C   0  0  0  0  0  0  0  0  0  0  0  0
   -2.2728    2.7369    0.1074 C   0  0  0  0  0  0  0  0  0  0  0  0
    2.8021   -0.3919    0.9642 C   0  0  0  0  0  0  0  0  0  0  0  0
    2.6214    0.6358   -1.2148 C   0  0  0  0  0  0  0  0  0  0  0  0
    3.2703    0.5158    0.0141 C   0  0  0  0  0  0  0  0  0  0  0  0
  1 17  1  0
  2  3  2  0
  2  4  2  0
  2  5  1  0
  2  6  1  0
  5  7  1  0
  6  8  2  0
  6  9  1  0
  7 10  2  0
  7 11  1  0
  8 12  1  0
  9 13  2  0
 10 15  1  0
 11 16  2  0
 12 14  2  0
 13 14  1  0
 15 17  2  0
 16 17  1  0
M  END
>  <PUBCHEM_COMPOUND_CID>  (1) 
20865

>  <PUBCHEM_CONFORMER_RMSD>  (1) 
0.6

>  <PUBCHEM_CONFORMER_DIVERSEORDER>  (1) 
1
8
7
2
5
3
6
4

>  <PUBCHEM_MMFF94_PARTIAL_CHARGES>  (1) 
27
1 -0.18
10 -0.15
11 -0.15
12 -0.15
13 -0.15
14 -0.15
15 -0.15
16 -0.15
17 0.18
18 0.42
19 0.15
2 1.45
20 0.15
21 0.15
22 0.15
23 0.15
24 0.15
25 0.15
26 0.15
27 0.15
3 -0.65
4 -0.65
5 -0.76
6 -0.01
7 0.2
8 -0.15
9 -0.15

>  <PUBCHEM_EFFECTIVE_ROTOR_COUNT>  (1) 
3

>  <PUBCHEM_PHARMACOPHORE_FEATURES>  (1) 
5
1 3 acceptor
1 4 acceptor
1 5 donor
6 6 8 9 12 13 14 rings
6 7 10 11 15 16 17 rings

>  <PUBCHEM_HEAVY_ATOM_COUNT>  (1) 
17

>  <PUBCHEM_ATOM_DEF_STEREO_COUNT>  (1) 
0

>  <PUBCHEM_ATOM_UDEF_STEREO_COUNT>  (1) 
0

>  <PUBCHEM_BOND_DEF_STEREO_COUNT>  (1) 
0

>  <PUBCHEM_BOND_UDEF_STEREO_COUNT>  (1) 
0

>  <PUBCHEM_ISOTOPIC_ATOM_COUNT>  (1) 
0

>  <PUBCHEM_COMPONENT_COUNT>  (1) 
1

>  <PUBCHEM_CACTVS_TAUTO_COUNT>  (1) 
1

>  <PUBCHEM_CONFORMER_ID>  (1) 
0000518100000001

>  <PUBCHEM_MMFF94_ENERGY>  (1) 
36.4193

>  <PUBCHEM_FEATURE_SELFOVERLAP>  (1) 
25.39

>  <PUBCHEM_SHAPE_FINGERPRINT>  (1) 
10498660 4 18342738533171308396
11640471 11 18113617846188517576
13296909 8 18335135444798672380
13693222 7 18263379017877651052
13764800 53 18341063955370921811
14614273 12 18342186578307693559
15276787 5 15213872484438517069
15775835 57 18261393304236431220
16945 1 18343582906735529351
18186145 218 18053103917567547701
18981168 100 18197241190154048126
192875 21 18125416649668738144
19765921 60 18194955250062227289
19868273 325 18126573542043706007
20510252 161 18340207491594971434
20671657 1 18120939395402448886
21524375 3 18120100485310239867
22802520 49 17630914636740127110
2306618 200 17988933305045371994
23402539 116 17986388008504695846
23419403 2 16914228949052309923
23557571 272 18201162168888428454
23559900 14 18129093434512696690
474 4 18050285860670595281
526903 126 18271805675146407369
81228 2 18266484129199214027
9981440 41 18342164558168668554

>  <PUBCHEM_SHAPE_MULTIPOLES>  (1) 
338.85
6.11
2.78
1.32
5.36
0.06
-0.02
3.34
-0.18
-2.29
0.36
0.1
-0.05
0.05

>  <PUBCHEM_SHAPE_SELFOVERLAP>  (1) 
702.352

>  <PUBCHEM_SHAPE_VOLUME>  (1) 
193.6

>  <PUBCHEM_COORDINATE_TYPE>  (1) 
2
5
10

$$$$
