20883
     RDKit          3D

 23 25  0  0  0  0  0  0  0  0999 V2000
    2.9001   -4.4926    0.4788 Cl  0  0  0  0  0  0  0  0  0  0  0  0
   -0.5974    2.0674   -0.4129 O   0  0  0  0  0  0  0  0  0  0  0  0
   -1.0353   -0.2503   -0.3912 N   0  0  0  0  0  0  0  0  0  0  0  0
    1.1262    0.4224   -0.1339 N   0  0  0  0  0  0  0  0  0  0  0  0
   -5.2181    0.9216   -0.1749 N   0  0  0  0  0  0  0  0  0  0  0  0
   -2.4643   -0.2746   -0.5813 C   0  0  0  0  0  0  0  0  0  0  0  0
   -0.2384   -1.3942   -0.2508 C   0  0  0  0  0  0  0  0  0  0  0  0
   -3.2313   -0.2431    0.7393 C   0  0  0  0  0  0  0  0  0  0  0  0
    1.0909   -0.9928   -0.0785 C   0  0  0  0  0  0  0  0  0  0  0  0
   -0.2162    0.9085   -0.3102 C   0  0  0  0  0  0  0  0  0  0  0  0
   -4.7550   -0.2327    0.5857 C   0  0  0  0  0  0  0  0  0  0  0  0
   -0.6236   -2.7233   -0.2407 C   0  0  0  0  0  0  0  0  0  0  0  0
    2.2878    1.2279   -0.0413 C   0  0  0  0  0  0  0  0  0  0  0  0
    2.0701   -1.9379    0.1758 C   0  0  0  0  0  0  0  0  0  0  0  0
    0.3687   -3.6785   -0.0249 C   0  0  0  0  0  0  0  0  0  0  0  0
    1.7009   -3.2887    0.1899 C   0  0  0  0  0  0  0  0  0  0  0  0
    3.5220    0.7461   -0.4952 C   0  0  0  0  0  0  0  0  0  0  0  0
    2.2156    2.5157    0.5044 C   0  0  0  0  0  0  0  0  0  0  0  0
   -4.8447    2.1666    0.4989 C   0  0  0  0  0  0  0  0  0  0  0  0
   -6.6682    0.8642   -0.3678 C   0  0  0  0  0  0  0  0  0  0  0  0
    4.6659    1.5392   -0.4045 C   0  0  0  0  0  0  0  0  0  0  0  0
    3.3596    3.3088    0.5949 C   0  0  0  0  0  0  0  0  0  0  0  0
    4.5847    2.8204    0.1404 C   0  0  0  0  0  0  0  0  0  0  0  0
  1 16  1  0
  2 10  2  0
  3  6  1  0
  3  7  1  0
  3 10  1  0
  4  9  1  0
  4 10  1  0
  4 13  1  0
  5 11  1  0
  5 19  1  0
  5 20  1  0
  6  8  1  0
  7  9  2  0
  7 12  1  0
  8 11  1  0
  9 14  1  0
 12 15  2  0
 13 17  2  0
 13 18  1  0
 14 16  2  0
 15 16  1  0
 17 21  1  0
 18 22  2  0
 21 23  2  0
 22 23  1  0
M  END
>  <PUBCHEM_COMPOUND_CID>  (1) 
20883

>  <PUBCHEM_CONFORMER_RMSD>  (1) 
0.8

>  <PUBCHEM_CONFORMER_DIVERSEORDER>  (1) 
1
21
2
13
7
15
19
11
18
12
20
16
5
3
17
8
14
9
4
10
6

>  <PUBCHEM_MMFF94_PARTIAL_CHARGES>  (1) 
30
1 -0.18
10 0.69
11 0.27
12 -0.15
13 0.12
14 -0.15
15 -0.15
16 0.18
17 -0.15
18 -0.15
19 0.27
2 -0.57
20 0.27
21 -0.15
22 -0.15
23 -0.15
3 -0.48
30 0.15
31 0.15
32 0.15
33 0.15
34 0.15
4 -0.29
41 0.15
42 0.15
43 0.15
5 -0.81
6 0.3
7 0.12
9 0.12

>  <PUBCHEM_EFFECTIVE_ROTOR_COUNT>  (1) 
5

>  <PUBCHEM_PHARMACOPHORE_FEATURES>  (1) 
5
1 2 acceptor
1 5 cation
5 3 4 7 9 10 rings
6 13 17 18 21 22 23 rings
6 7 9 12 14 15 16 rings

>  <PUBCHEM_HEAVY_ATOM_COUNT>  (1) 
23

>  <PUBCHEM_ATOM_DEF_STEREO_COUNT>  (1) 
0

>  <PUBCHEM_ATOM_UDEF_STEREO_COUNT>  (1) 
0

>  <PUBCHEM_BOND_DEF_STEREO_COUNT>  (1) 
0

>  <PUBCHEM_BOND_UDEF_STEREO_COUNT>  (1) 
0

>  <PUBCHEM_ISOTOPIC_ATOM_COUNT>  (1) 
0

>  <PUBCHEM_COMPONENT_COUNT>  (1) 
1

>  <PUBCHEM_CACTVS_TAUTO_COUNT>  (1) 
1

>  <PUBCHEM_CONFORMER_ID>  (1) 
0000519300000001

>  <PUBCHEM_MMFF94_ENERGY>  (1) 
80.5995

>  <PUBCHEM_FEATURE_SELFOVERLAP>  (1) 
25.465

>  <PUBCHEM_SHAPE_FINGERPRINT>  (1) 
10165383 225 18335144215201486668
10411042 1 17834394523411202822
10493431 412 18266459995376960013
10595046 47 18342735205578988765
1100329 8 18410853253201488594
12107183 9 18264754623827652480
12730499 353 18409456894797558731
12769317 202 18342731923274792121
12930653 34 18264495151461989907
13140716 1 18336824307686756738
13533116 47 18339641140960887985
138480 1 18122626041997159466
13878862 14 18119510073900983221
13955234 65 18337112272068882115
14790565 3 18337679727232454732
14955137 171 18265048042828955106
15475509 35 16661205828390613075
15664445 248 17841728313022978390
15927050 60 18340487876120065702
18785283 64 18334290920931396134
19591789 44 18410295852044464166
20157964 124 18410570657580704869
20510252 161 17765718309985569218
20642791 268 17770787805982439523
20739085 24 18187366510548125404
21033648 29 18197493141579061145
21049683 118 18052512629224612560
21049683 271 18116728313402805998
21452121 103 18409445860462118361
23419403 2 17823966840842330671
23558518 356 17396978437010698184
23559900 14 18193551165192045187
23845131 108 18334574693848193811
25147074 1 18129361796484897583
283562 15 17834947947137600863
3091708 16 9186779740306373050
335352 9 18411983581403612940
3411729 13 18334012778654148019
350125 39 18336547119092480796
474 4 18413107268864104243
5385378 56 18410862044835597657
58807428 26 18265043803532118882
59755656 215 18408610231915334556
633830 44 18200308943639028692
6371380 46 18341614875960204288
67856867 119 18340763737832151691
77188 2 17906169556003547038
79837 15 18119814865616586867
81228 2 17252857759950586354
8272917 22 18340207397443177711
84936 182 18272651242622048105
9981440 41 18265331892537108163

>  <PUBCHEM_SHAPE_MULTIPOLES>  (1) 
454.39
10.77
5.15
0.76
17.13
4.6
0.04
-9.5
0.33
-6.93
0.88
0.09
-0.05
-0.15

>  <PUBCHEM_SHAPE_SELFOVERLAP>  (1) 
961.144

>  <PUBCHEM_SHAPE_VOLUME>  (1) 
258.3

>  <PUBCHEM_COORDINATE_TYPE>  (1) 
2
5
10

$$$$
