20885
     RDKit          3D

 20 21  0  0  0  0  0  0  0  0999 V2000
   -4.6686    0.5670   -0.7199 O   0  0  0  0  0  0  0  0  0  0  0  0
   -1.4413   -2.4770    1.0183 O   0  0  0  0  0  0  0  0  0  0  0  0
    0.6884   -1.3162    1.9748 O   0  0  0  0  0  0  0  0  0  0  0  0
    2.3680   -1.2890   -2.5126 O   0  0  0  0  0  0  0  0  0  0  0  0
    1.5158   -2.3314   -0.6812 O   0  0  0  0  0  0  0  0  0  0  0  0
   -0.8555   -0.1841    0.6311 C   0  0  0  0  0  0  0  0  0  0  0  0
    1.6797    0.3157    0.6237 C   0  0  0  0  0  0  0  0  0  0  0  0
    0.5328   -0.4344    1.1190 C   0  0  0  0  0  0  0  0  0  0  0  0
    2.4064   -0.1196   -0.4844 C   0  0  0  0  0  0  0  0  0  0  0  0
   -1.7647   -1.2176    0.6097 C   0  0  0  0  0  0  0  0  0  0  0  0
   -1.1718    1.0917    0.2185 C   0  0  0  0  0  0  0  0  0  0  0  0
    2.0459    1.4906    1.2802 C   0  0  0  0  0  0  0  0  0  0  0  0
   -3.0575   -0.9631    0.1521 C   0  0  0  0  0  0  0  0  0  0  0  0
   -3.4075    0.3187   -0.2723 C   0  0  0  0  0  0  0  0  0  0  0  0
   -2.4645    1.3461   -0.2391 C   0  0  0  0  0  0  0  0  0  0  0  0
    3.4993    0.6202   -0.9361 C   0  0  0  0  0  0  0  0  0  0  0  0
    3.1388    2.2303    0.8286 C   0  0  0  0  0  0  0  0  0  0  0  0
    3.8655    1.7951   -0.2796 C   0  0  0  0  0  0  0  0  0  0  0  0
    2.0489   -1.3426   -1.1914 C   0  0  0  0  0  0  0  0  0  0  0  0
   -4.9581    1.8997   -1.1394 C   0  0  0  0  0  0  0  0  0  0  0  0
  1 14  1  0
  1 20  1  0
  2 10  1  0
  3  8  2  0
  4 19  1  0
  5 19  2  0
  6  8  1  0
  6 10  2  0
  6 11  1  0
  7  8  1  0
  7  9  2  0
  7 12  1  0
  9 16  1  0
  9 19  1  0
 10 13  1  0
 11 15  2  0
 12 17  2  0
 13 14  2  0
 14 15  1  0
 16 18  2  0
 17 18  1  0
M  END
>  <PUBCHEM_COMPOUND_CID>  (1) 
20885

>  <PUBCHEM_CONFORMER_RMSD>  (1) 
0.6

>  <PUBCHEM_CONFORMER_DIVERSEORDER>  (1) 
1
35
6
31
40
30
42
3
37
17
34
27
38
20
14
29
41
32
19
36
28
13
4
18
39
16
11
25
23
26
15
33
9
24
10
5
22
8
12
2
7
21

>  <PUBCHEM_MMFF94_PARTIAL_CHARGES>  (1) 
29
1 -0.36
10 0.08
11 -0.15
12 -0.15
13 -0.15
14 0.08
15 -0.15
16 -0.15
17 -0.15
18 -0.15
19 0.63
2 -0.53
20 0.28
21 0.15
22 0.15
23 0.15
24 0.15
25 0.15
26 0.15
27 0.15
28 0.45
3 -0.57
32 0.5
4 -0.65
5 -0.57
6 0.09
7 0.09
8 0.4
9 0.09

>  <PUBCHEM_EFFECTIVE_ROTOR_COUNT>  (1) 
4

>  <PUBCHEM_PHARMACOPHORE_FEATURES>  (1) 
8
1 1 acceptor
1 2 donor
1 3 acceptor
1 4 acceptor
1 5 acceptor
3 4 5 19 anion
6 6 10 11 13 14 15 rings
6 7 9 12 16 17 18 rings

>  <PUBCHEM_HEAVY_ATOM_COUNT>  (1) 
20

>  <PUBCHEM_ATOM_DEF_STEREO_COUNT>  (1) 
0

>  <PUBCHEM_ATOM_UDEF_STEREO_COUNT>  (1) 
0

>  <PUBCHEM_BOND_DEF_STEREO_COUNT>  (1) 
0

>  <PUBCHEM_BOND_UDEF_STEREO_COUNT>  (1) 
0

>  <PUBCHEM_ISOTOPIC_ATOM_COUNT>  (1) 
0

>  <PUBCHEM_COMPONENT_COUNT>  (1) 
1

>  <PUBCHEM_CACTVS_TAUTO_COUNT>  (1) 
5

>  <PUBCHEM_CONFORMER_ID>  (1) 
0000519500000001

>  <PUBCHEM_MMFF94_ENERGY>  (1) 
80.3009

>  <PUBCHEM_FEATURE_SELFOVERLAP>  (1) 
40.656

>  <PUBCHEM_SHAPE_FINGERPRINT>  (1) 
10498660 4 18187642484178164429
10646746 165 18187643639117964136
10871710 139 15818190931827719312
11640471 11 16154560929124474742
12173636 292 18187074049645958077
12670546 177 18272076232695585901
12730499 353 18342462560305881011
13464514 151 18339369569588132696
13911987 19 17559125491560754024
13965767 371 16515951606123453572
15375358 24 18410571820693928685
15885798 251 11239995689989860329
16945 1 18272101465259197642
17357990 137 16081379574047219158
1813 80 13326851136777812833
18186145 218 18337113363296263569
200 152 16845580815590581072
20361792 2 14620798188664257936
20645477 70 17846783996409558461
21756936 100 13481713016419139326
22182313 1 18337687402728811659
23114952 82 18200886088453789444
23402539 116 18261384607238847676
23557571 272 18190472729801925587
23559900 14 18410573972767689686
238 59 17846776329782184694
2748010 2 17913776295234580224
2838139 119 17534925270703535628
3060560 45 17917988417070360052
3323516 105 18131077064224203343
3472631 163 17894629309370040421
4028521 119 18408884053329057513
474 4 16588024614925613585
495365 180 17917414454356470912
4990 188 18271520914899029717
5262128 65 17844819091673702501
7364860 26 18189603961034272098
77492 1 15937245763093193464
7808743 9 17822858692051230732
960060 61 17060329704878082669
9709674 26 18342462564321383991

>  <PUBCHEM_SHAPE_MULTIPOLES>  (1) 
382.24
7.82
2.36
1.54
6.12
0.32
-0.3
-4.78
-3.06
-0.37
-0.01
-0.86
0.52
1.76

>  <PUBCHEM_SHAPE_SELFOVERLAP>  (1) 
836.586

>  <PUBCHEM_SHAPE_VOLUME>  (1) 
206.8

>  <PUBCHEM_COORDINATE_TYPE>  (1) 
2
5
10

$$$$
