20896
     RDKit          3D

 12 11  0  0  0  0  0  0  0  0999 V2000
   -0.1729    0.7476    0.3957 N   0  0  0  0  0  0  0  0  0  0  0  0
   -2.2955    0.0914    0.7193 N   0  0  0  0  0  0  0  0  0  0  0  0
   -1.9345    2.0061   -0.6274 N   0  0  0  0  0  0  0  0  0  0  0  0
   -3.4866   -1.9080    0.5675 N   0  0  0  0  0  0  0  0  0  0  0  0
   -2.1614   -1.3446   -1.2051 N   0  0  0  0  0  0  0  0  0  0  0  0
    2.6042   -0.1421   -0.1795 C   0  0  0  0  0  0  0  0  0  0  0  0
    2.2138    1.2688    0.2702 C   0  0  0  0  0  0  0  0  0  0  0  0
    4.0338   -0.4825    0.2425 C   0  0  0  0  0  0  0  0  0  0  0  0
    0.8128    1.6598   -0.1865 C   0  0  0  0  0  0  0  0  0  0  0  0
    4.4169   -1.8935   -0.1747 C   0  0  0  0  0  0  0  0  0  0  0  0
   -1.4165    0.9805    0.1333 C   0  0  0  0  0  0  0  0  0  0  0  0
   -2.6141   -0.9837    0.0447 C   0  0  0  0  0  0  0  0  0  0  0  0
  1  9  1  0
  1 11  2  0
  2 11  1  0
  2 12  2  0
  3 11  1  0
  4 12  1  0
  5 12  1  0
  6  7  1  0
  6  8  1  0
  7  9  1  0
  8 10  1  0
M  END
>  <PUBCHEM_COMPOUND_CID>  (1) 
20896

>  <PUBCHEM_CONFORMER_RMSD>  (1) 
0.6

>  <PUBCHEM_CONFORMER_DIVERSEORDER>  (1) 
1
74
56
96
48
37
108
127
75
94
87
60
122
81
82
119
92
97
64
110
115
49
35
124
113
62
128
121
88
101
83
18
45
38
98
99
77
114
50
51
78
93
90
68
80
72
52
85
12
41
103
116
69
129
130
22
135
53
33
54
89
17
91
100
14
3
34
76
126
6
25
132
11
67
47
102
136
107
27
133
55
28
20
71
111
131
5
8
105
86
95
2
13
84
26
109
137
65
23
125
7
42
30
134
57
36
104
117
31
61
4
24
29
10
46
79
70
9
58
123
19
63
21
59
112
39
66
73
32
44
40
106
16
15
43
120
118

>  <PUBCHEM_MMFF94_PARTIAL_CHARGES>  (1) 
14
1 -0.7
11 0.71
12 0.55
2 -0.66
24 0.4
25 0.4
26 0.4
27 0.4
28 0.4
29 0.4
3 -0.85
4 -0.85
5 -0.85
9 0.25

>  <PUBCHEM_EFFECTIVE_ROTOR_COUNT>  (1) 
5

>  <PUBCHEM_PHARMACOPHORE_FEATURES>  (1) 
6
1 10 hydrophobe
1 3 donor
1 4 donor
1 5 donor
4 1 2 3 11 cation
4 2 4 5 12 cation

>  <PUBCHEM_HEAVY_ATOM_COUNT>  (1) 
12

>  <PUBCHEM_ATOM_DEF_STEREO_COUNT>  (1) 
0

>  <PUBCHEM_ATOM_UDEF_STEREO_COUNT>  (1) 
0

>  <PUBCHEM_BOND_DEF_STEREO_COUNT>  (1) 
0

>  <PUBCHEM_BOND_UDEF_STEREO_COUNT>  (1) 
0

>  <PUBCHEM_ISOTOPIC_ATOM_COUNT>  (1) 
0

>  <PUBCHEM_COMPONENT_COUNT>  (1) 
1

>  <PUBCHEM_CACTVS_TAUTO_COUNT>  (1) 
5

>  <PUBCHEM_CONFORMER_ID>  (1) 
000051A000000001

>  <PUBCHEM_MMFF94_ENERGY>  (1) 
23.7126

>  <PUBCHEM_FEATURE_SELFOVERLAP>  (1) 
30.547

>  <PUBCHEM_SHAPE_FINGERPRINT>  (1) 
10149128 111 8862947182089616386
11137873 295 18334852822828310295
11769659 78 18413387661440646760
12006461 19 18412547604703212530
12932764 1 17988644163525910584
14123260 362 12252175243100615079
14251705 54 18412832361009063734
14251710 61 18410578392178605362
14965852 173 18411419479766245512
15239191 94 18413112779354773490
15375462 189 17916028051887686744
18186145 218 14274037502248333012
19107657 46 18268711611119085286
20645477 70 18263354961871561511
20653085 51 11892146749418649357
20671657 53 17385996308576787308
20871998 22 18264772236723355905
22485316 2 18336826382377038928
27216 239 10879984783260034063
4416823 128 18410577301082591994
58051976 100 18334576802365295540

>  <PUBCHEM_SHAPE_MULTIPOLES>  (1) 
222.05
7.63
2.22
0.8
5.63
0.15
0.09
5.38
-0.29
-0.51
0.2
-0.35
0.11
0.32

>  <PUBCHEM_SHAPE_SELFOVERLAP>  (1) 
414.226

>  <PUBCHEM_SHAPE_VOLUME>  (1) 
134.2

>  <PUBCHEM_COORDINATE_TYPE>  (1) 
2
5
10

$$$$
