20890
     RDKit          3D

 10  9  0  0  0  0  0  0  0  0999 V2000
    0.8559    0.1951    0.5305 N   0  0  0  0  0  0  0  0  0  0  0  0
   -1.2880    0.8362    0.2843 N   0  0  0  0  0  0  0  0  0  0  0  0
    0.1501    1.0716   -1.5831 N   0  0  0  0  0  0  0  0  0  0  0  0
   -3.3871   -0.0803    0.7229 N   0  0  0  0  0  0  0  0  0  0  0  0
   -1.8908   -1.3884   -0.4019 N   0  0  0  0  0  0  0  0  0  0  0  0
    2.2040    0.0167    0.0078 C   0  0  0  0  0  0  0  0  0  0  0  0
    3.2016    0.1987    1.1420 C   0  0  0  0  0  0  0  0  0  0  0  0
    2.3111   -1.3645   -0.6212 C   0  0  0  0  0  0  0  0  0  0  0  0
   -0.0345    0.6827   -0.2739 C   0  0  0  0  0  0  0  0  0  0  0  0
   -2.1223   -0.1677    0.1926 C   0  0  0  0  0  0  0  0  0  0  0  0
  1  6  1  0
  1  9  2  0
  2  9  1  0
  2 10  2  0
  3  9  1  0
  4 10  1  0
  5 10  1  0
  6  7  1  0
  6  8  1  0
M  END
>  <PUBCHEM_COMPOUND_CID>  (1) 
20890

>  <PUBCHEM_CONFORMER_RMSD>  (1) 
0.4

>  <PUBCHEM_CONFORMER_DIVERSEORDER>  (1) 
2
11
5
10
14
6
9
8
12
13
7
1
3
4

>  <PUBCHEM_MMFF94_PARTIAL_CHARGES>  (1) 
14
1 -0.7
10 0.55
18 0.4
19 0.4
2 -0.66
20 0.4
21 0.4
22 0.4
23 0.4
3 -0.85
4 -0.85
5 -0.85
6 0.25
9 0.71

>  <PUBCHEM_EFFECTIVE_ROTOR_COUNT>  (1) 
2

>  <PUBCHEM_PHARMACOPHORE_FEATURES>  (1) 
6
1 3 donor
1 4 donor
1 5 donor
3 6 7 8 hydrophobe
4 1 2 3 9 cation
4 2 4 5 10 cation

>  <PUBCHEM_HEAVY_ATOM_COUNT>  (1) 
10

>  <PUBCHEM_ATOM_DEF_STEREO_COUNT>  (1) 
0

>  <PUBCHEM_ATOM_UDEF_STEREO_COUNT>  (1) 
0

>  <PUBCHEM_BOND_DEF_STEREO_COUNT>  (1) 
0

>  <PUBCHEM_BOND_UDEF_STEREO_COUNT>  (1) 
0

>  <PUBCHEM_ISOTOPIC_ATOM_COUNT>  (1) 
0

>  <PUBCHEM_COMPONENT_COUNT>  (1) 
1

>  <PUBCHEM_CACTVS_TAUTO_COUNT>  (1) 
5

>  <PUBCHEM_CONFORMER_ID>  (1) 
0000519A00000002

>  <PUBCHEM_MMFF94_ENERGY>  (1) 
28.5175

>  <PUBCHEM_FEATURE_SELFOVERLAP>  (1) 
30.547

>  <PUBCHEM_SHAPE_FINGERPRINT>  (1) 
10857977 72 18271232902591782496
12897270 3 11458426842647476281
12932764 1 17489304166085324748
14390081 3 9151172034702414859
15775835 57 14620788306092137626
20653085 51 10881679053305754478
20711978 78 17630882712343323846
20711985 327 18040431126776120348
21028194 46 11959730464628147396
230 275 9799404495320376110
29004967 10 18130782348280109112
3248919 1 18343577443289306384

>  <PUBCHEM_SHAPE_MULTIPOLES>  (1) 
180.89
4.89
1.18
1.08
0.51
0.49
-0.36
0.53
1.85
-0.19
-0.12
-0.23
-0.25
0.29

>  <PUBCHEM_SHAPE_SELFOVERLAP>  (1) 
341.577

>  <PUBCHEM_SHAPE_VOLUME>  (1) 
109.2

>  <PUBCHEM_COORDINATE_TYPE>  (1) 
2
5
10

$$$$
