20909
     RDKit          3D

 12 12  0  0  0  0  0  0  0  0999 V2000
   -0.0253    0.8361   -0.6479 N   0  0  0  0  0  0  0  0  0  0  0  0
    0.7906   -1.3601   -0.1291 N   0  0  0  0  0  0  0  0  0  0  0  0
    2.1616    0.5617    0.3007 N   0  0  0  0  0  0  0  0  0  0  0  0
    1.3364    2.6955   -0.2151 N   0  0  0  0  0  0  0  0  0  0  0  0
    2.9312   -1.5967    0.7988 N   0  0  0  0  0  0  0  0  0  0  0  0
   -3.2834    1.0928    0.9285 N   0  0  0  0  0  0  0  0  0  0  0  0
   -1.4105   -1.0921   -1.0812 C   0  0  0  0  0  0  0  0  0  0  0  0
   -0.1336   -0.5012   -0.5885 C   0  0  0  0  0  0  0  0  0  0  0  0
   -2.4929   -1.2392    0.0025 C   0  0  0  0  0  0  0  0  0  0  0  0
    1.1488    1.2963   -0.1866 C   0  0  0  0  0  0  0  0  0  0  0  0
    1.9118   -0.7576    0.2986 C   0  0  0  0  0  0  0  0  0  0  0  0
   -2.9347    0.0645    0.5192 C   0  0  0  0  0  0  0  0  0  0  0  0
  1  8  2  0
  1 10  1  0
  2  8  1  0
  2 11  2  0
  3 10  2  0
  3 11  1  0
  4 10  1  0
  5 11  1  0
  6 12  3  0
  7  8  1  0
  7  9  1  0
  9 12  1  0
M  END
>  <PUBCHEM_COMPOUND_CID>  (1) 
20909

>  <PUBCHEM_CONFORMER_RMSD>  (1) 
0.6

>  <PUBCHEM_CONFORMER_DIVERSEORDER>  (1) 
1
3
2

>  <PUBCHEM_MMFF94_PARTIAL_CHARGES>  (1) 
16
1 -0.62
10 0.72
11 0.72
12 0.36
17 0.4
18 0.4
19 0.4
2 -0.62
20 0.4
3 -0.62
4 -0.9
5 -0.9
6 -0.56
7 0.14
8 0.48
9 0.2

>  <PUBCHEM_EFFECTIVE_ROTOR_COUNT>  (1) 
2

>  <PUBCHEM_PHARMACOPHORE_FEATURES>  (1) 
6
1 4 donor
1 5 donor
1 6 acceptor
4 1 3 4 10 cation
4 2 3 5 11 cation
6 1 2 3 8 10 11 rings

>  <PUBCHEM_HEAVY_ATOM_COUNT>  (1) 
12

>  <PUBCHEM_ATOM_DEF_STEREO_COUNT>  (1) 
0

>  <PUBCHEM_ATOM_UDEF_STEREO_COUNT>  (1) 
0

>  <PUBCHEM_BOND_DEF_STEREO_COUNT>  (1) 
0

>  <PUBCHEM_BOND_UDEF_STEREO_COUNT>  (1) 
0

>  <PUBCHEM_ISOTOPIC_ATOM_COUNT>  (1) 
0

>  <PUBCHEM_COMPONENT_COUNT>  (1) 
1

>  <PUBCHEM_CACTVS_TAUTO_COUNT>  (1) 
10

>  <PUBCHEM_CONFORMER_ID>  (1) 
000051AD00000001

>  <PUBCHEM_MMFF94_ENERGY>  (1) 
26.8182

>  <PUBCHEM_FEATURE_SELFOVERLAP>  (1) 
30.489

>  <PUBCHEM_SHAPE_FINGERPRINT>  (1) 
11357001 24 17613138690678337210
12251169 10 18410857668105530851
12696612 119 18410857676399871445
15279308 10 18128532850442216037
15775835 57 18057337269362939625
16945 1 18190727808004463774
17834069 15 18336827481445535497
17841504 4 18334015020780141771
201361 129 18264779928914960788
20379382 53 18187645855210176508
20653091 64 18336822112520293650
21061003 4 18114730552082563938
2748010 2 17476633183628058318
305870 269 18194398020583374360
4175511 71 18338807710266143596
63268167 104 18336255838320025597

>  <PUBCHEM_SHAPE_MULTIPOLES>  (1) 
217.07
4.54
2.06
0.9
2.19
0.98
0.04
-0.25
-1.61
-1.02
0.01
0.25
-0.09
-0.85

>  <PUBCHEM_SHAPE_SELFOVERLAP>  (1) 
442.047

>  <PUBCHEM_SHAPE_VOLUME>  (1) 
115.3

>  <PUBCHEM_COORDINATE_TYPE>  (1) 
2
5
10

$$$$
