20900
     RDKit          3D

 15 16  0  0  0  0  0  0  0  0999 V2000
    2.0182   -2.3353    0.0000 O   0  0  0  0  0  0  0  0  0  0  0  0
   -4.1773   -0.3726    0.0007 O   0  0  0  0  0  0  0  0  0  0  0  0
   -2.8670   -2.1340   -0.0003 O   0  0  0  0  0  0  0  0  0  0  0  0
    1.5554    2.2114    0.0001 N   0  0  0  0  0  0  0  0  0  0  0  0
   -3.0351   -0.8910    0.0002 N   0  0  0  0  0  0  0  0  0  0  0  0
    0.5109    0.2401   -0.0003 C   0  0  0  0  0  0  0  0  0  0  0  0
    0.3111    1.6222    0.0000 C   0  0  0  0  0  0  0  0  0  0  0  0
    1.9169    0.0213   -0.0003 C   0  0  0  0  0  0  0  0  0  0  0  0
   -0.6145   -0.6078   -0.0005 C   0  0  0  0  0  0  0  0  0  0  0  0
    2.5321    1.2520    0.0001 C   0  0  0  0  0  0  0  0  0  0  0  0
   -0.9629    2.2010   -0.0001 C   0  0  0  0  0  0  0  0  0  0  0  0
   -1.8950   -0.0429   -0.0002 C   0  0  0  0  0  0  0  0  0  0  0  0
   -2.0642    1.3402    0.0000 C   0  0  0  0  0  0  0  0  0  0  0  0
    2.6187   -1.2307   -0.0001 C   0  0  0  0  0  0  0  0  0  0  0  0
    4.1526   -1.2739    0.0006 C   0  0  0  0  0  0  0  0  0  0  0  0
  1 14  2  0
  2  5  1  0
  3  5  2  0
  4  7  1  0
  4 10  1  0
  5 12  1  0
  6  7  2  0
  6  8  1  0
  6  9  1  0
  7 11  1  0
  8 10  2  0
  8 14  1  0
  9 12  2  0
 11 13  2  0
 12 13  1  0
 14 15  1  0
M  CHG  2   2  -1   5   1
M  END
>  <PUBCHEM_COMPOUND_CID>  (1) 
20900

>  <PUBCHEM_CONFORMER_RMSD>  (1) 
0.6

>  <PUBCHEM_CONFORMER_DIVERSEORDER>  (1) 
1
3
2
4

>  <PUBCHEM_MMFF94_PARTIAL_CHARGES>  (1) 
19
1 -0.57
10 -0.3
11 -0.15
12 0.13
13 -0.15
14 0.6
15 0.06
16 0.27
17 0.15
18 0.15
19 0.15
2 -0.52
20 0.15
3 -0.52
4 0.03
5 0.91
7 -0.15
8 -0.09
9 -0.15

>  <PUBCHEM_EFFECTIVE_ROTOR_COUNT>  (1) 
2

>  <PUBCHEM_PHARMACOPHORE_FEATURES>  (1) 
8
1 1 acceptor
1 2 acceptor
1 2 anion
1 3 acceptor
1 4 cation
1 4 donor
5 4 6 7 8 10 rings
6 6 7 9 11 12 13 rings

>  <PUBCHEM_HEAVY_ATOM_COUNT>  (1) 
15

>  <PUBCHEM_ATOM_DEF_STEREO_COUNT>  (1) 
0

>  <PUBCHEM_ATOM_UDEF_STEREO_COUNT>  (1) 
0

>  <PUBCHEM_BOND_DEF_STEREO_COUNT>  (1) 
0

>  <PUBCHEM_BOND_UDEF_STEREO_COUNT>  (1) 
0

>  <PUBCHEM_ISOTOPIC_ATOM_COUNT>  (1) 
0

>  <PUBCHEM_COMPONENT_COUNT>  (1) 
1

>  <PUBCHEM_CACTVS_TAUTO_COUNT>  (1) 
5

>  <PUBCHEM_CONFORMER_ID>  (1) 
000051A400000001

>  <PUBCHEM_MMFF94_ENERGY>  (1) 
33.5197

>  <PUBCHEM_FEATURE_SELFOVERLAP>  (1) 
40.768

>  <PUBCHEM_SHAPE_FINGERPRINT>  (1) 
10618630 7 18409449193346183908
10967382 1 18266458895859869063
11471102 20 18410288155320684029
11769659 78 18410853261110245965
11806522 49 18408885153077711390
12032990 46 18410014333738220403
12251169 10 18270972232452594881
12553582 1 18410011000865210954
14178342 30 18194953046764837440
14576447 43 17840577421117801255
15001771 113 18339365166983033512
15375462 189 18115594721024666442
15442244 35 18412548673981459057
15536298 74 18343020012606243824
16945 1 18194682570719745604
18186145 218 17603576457152708895
200 152 18131058334293896797
20201158 50 18335701684375340963
20645477 70 18336538430336750207
20711985 365 18410292467589298325
20871998 184 18058443201755573358
20871998 22 18199475380923774582
21267235 1 18410865338584993867
21501502 16 18410864239131427328
21501925 9 18411128135086200232
221490 88 18263370346370718794
22213442 358 18411136892577231630
2334 1 18410855473034409548
23402539 116 18200301110072328693
23463225 33 18411984663033705685
23552423 10 18334298660372916148
23559900 14 17908415867460879722
2748010 2 18410847742177809356
3312278 4 18267304223192023688
4416823 128 18410857642034864716
5493415 88 18411976928093069688
7364860 26 18341893043305532408
8809292 202 18260552242186713883

>  <PUBCHEM_SHAPE_MULTIPOLES>  (1) 
281.12
5.98
2.47
0.59
0.37
0.18
0
-3.4
0
-0.12
0
-0.04
0.03
0

>  <PUBCHEM_SHAPE_SELFOVERLAP>  (1) 
615.935

>  <PUBCHEM_SHAPE_VOLUME>  (1) 
154.4

>  <PUBCHEM_COORDINATE_TYPE>  (1) 
2
5
10

$$$$
