20901
     RDKit          3D

 30 34  0  0  1  0  0  0  0  0999 V2000
   -1.2429   -0.1717   -0.7323 O   0  0  0  0  0  0  0  0  0  0  0  0
   -1.4405    0.4399    1.5115 O   0  0  0  0  0  0  0  0  0  0  0  0
    2.4542   -0.1949   -0.2816 N   0  0  0  0  0  0  0  0  0  0  0  0
    1.1761   -0.1060   -1.0153 C   0  0  0  0  0  0  0  0  0  0  0  0
    0.0021   -0.3839   -0.0656 C   0  0  0  0  0  0  0  0  0  0  0  0
    1.1214   -1.0124   -2.2588 C   0  0  0  0  0  0  0  0  0  0  0  0
    1.5241   -2.4526   -1.9569 C   0  0  0  0  0  0  0  0  0  0  0  0
    2.8555   -1.5811    0.0004 C   0  0  0  0  0  0  0  0  0  0  0  0
    2.8595   -2.4968   -1.2248 C   0  0  0  0  0  0  0  0  0  0  0  0
   -0.0802    0.5618    1.1002 C   0  0  0  0  0  0  0  0  0  0  0  0
   -2.1940    0.1646    0.3061 C   0  0  0  0  0  0  0  0  0  0  0  0
    3.5207    0.5470   -0.9551 C   0  0  0  0  0  0  0  0  0  0  0  0
   -3.1307   -1.0180    0.5468 C   0  0  0  0  0  0  0  0  0  0  0  0
   -2.9781    1.4100   -0.1048 C   0  0  0  0  0  0  0  0  0  0  0  0
    4.7735    0.6083   -0.1224 C   0  0  0  0  0  0  0  0  0  0  0  0
   -3.4575   -1.8787   -0.5035 C   0  0  0  0  0  0  0  0  0  0  0  0
   -3.4410    2.2994    0.8677 C   0  0  0  0  0  0  0  0  0  0  0  0
   -3.6640   -1.2424    1.8179 C   0  0  0  0  0  0  0  0  0  0  0  0
   -3.2350    1.6632   -1.4539 C   0  0  0  0  0  0  0  0  0  0  0  0
    4.9530    1.6597    0.7657 C   0  0  0  0  0  0  0  0  0  0  0  0
    5.7317   -0.3869   -0.2549 C   0  0  0  0  0  0  0  0  0  0  0  0
   -4.3131   -2.9582   -0.2839 C   0  0  0  0  0  0  0  0  0  0  0  0
   -4.1573    3.4361    0.4926 C   0  0  0  0  0  0  0  0  0  0  0  0
   -4.5196   -2.3221    2.0377 C   0  0  0  0  0  0  0  0  0  0  0  0
   -3.9512    2.7999   -1.8290 C   0  0  0  0  0  0  0  0  0  0  0  0
    6.1139    1.7169    1.5369 C   0  0  0  0  0  0  0  0  0  0  0  0
    6.8925   -0.3298    0.5163 C   0  0  0  0  0  0  0  0  0  0  0  0
   -4.8441   -3.1799    0.9867 C   0  0  0  0  0  0  0  0  0  0  0  0
   -4.4123    3.6863   -0.8556 C   0  0  0  0  0  0  0  0  0  0  0  0
    7.0836    0.7221    1.4122 C   0  0  0  0  0  0  0  0  0  0  0  0
  1  5  1  0
  1 11  1  0
  2 10  1  0
  2 11  1  0
  3  4  1  0
  3  8  1  0
  3 12  1  0
  4  5  1  0
  4  6  1  0
  5 10  1  0
  6  7  1  0
  7  9  1  0
  8  9  1  0
 11 13  1  0
 11 14  1  0
 12 15  1  0
 13 16  2  0
 13 18  1  0
 14 17  2  0
 14 19  1  0
 15 20  2  0
 15 21  1  0
 16 22  1  0
 17 23  1  0
 18 24  2  0
 19 25  2  0
 20 26  1  0
 21 27  2  0
 22 28  2  0
 23 29  2  0
 24 28  1  0
 25 29  1  0
 26 30  2  0
 27 30  1  0
M  END
>  <PUBCHEM_COMPOUND_CID>  (1) 
20901

>  <PUBCHEM_CONFORMER_RMSD>  (1) 
0.8

>  <PUBCHEM_CONFORMER_DIVERSEORDER>  (1) 
1
17
61
55
59
65
37
42
28
45
21
39
51
22
48
10
63
30
38
33
23
11
46
13
5
20
60
19
62
9
35
29
7
2
12
49
32
27
4
50
54
40
58
31
18
64
57
56
44
47
43
24
26
25
66
14
41
15
16
8
6
34
52
36
53
3

>  <PUBCHEM_MMFF94_PARTIAL_CHARGES>  (1) 
42
1 -0.56
10 0.28
11 0.85
12 0.41
13 -0.14
14 -0.14
15 -0.14
16 -0.15
17 -0.15
18 -0.15
19 -0.15
2 -0.56
20 -0.15
21 -0.15
22 -0.15
23 -0.15
24 -0.15
25 -0.15
26 -0.15
27 -0.15
28 -0.15
29 -0.15
3 -0.81
30 -0.15
4 0.27
45 0.15
46 0.15
47 0.15
48 0.15
49 0.15
5 0.28
50 0.15
51 0.15
52 0.15
53 0.15
54 0.15
55 0.15
56 0.15
57 0.15
58 0.15
59 0.15
8 0.27

>  <PUBCHEM_EFFECTIVE_ROTOR_COUNT>  (1) 
7.2

>  <PUBCHEM_PHARMACOPHORE_FEATURES>  (1) 
8
1 1 acceptor
1 2 acceptor
1 3 cation
5 1 2 5 10 11 rings
6 13 16 18 22 24 28 rings
6 14 17 19 23 25 29 rings
6 15 20 21 26 27 30 rings
6 3 4 6 7 8 9 rings

>  <PUBCHEM_HEAVY_ATOM_COUNT>  (1) 
30

>  <PUBCHEM_ATOM_DEF_STEREO_COUNT>  (1) 
0

>  <PUBCHEM_ATOM_UDEF_STEREO_COUNT>  (1) 
2

>  <PUBCHEM_BOND_DEF_STEREO_COUNT>  (1) 
0

>  <PUBCHEM_BOND_UDEF_STEREO_COUNT>  (1) 
0

>  <PUBCHEM_ISOTOPIC_ATOM_COUNT>  (1) 
0

>  <PUBCHEM_COMPONENT_COUNT>  (1) 
1

>  <PUBCHEM_CACTVS_TAUTO_COUNT>  (1) 
1

>  <PUBCHEM_CONFORMER_ID>  (1) 
000051A500000001

>  <PUBCHEM_MMFF94_ENERGY>  (1) 
79.0528

>  <PUBCHEM_FEATURE_SELFOVERLAP>  (1) 
40.642

>  <PUBCHEM_SHAPE_FINGERPRINT>  (1) 
10290309 65 18131359587579967766
10291535 26 18343018848807815473
10319688 45 18122905588702891999
10319926 262 18260834769931123450
10369192 42 16987450887228332084
10675989 125 17476921251554323329
11101153 10 17970359328090104924
11545043 162 18410289229395090536
11578080 2 18340213981485623993
12166972 35 15285922540735111142
12403259 118 18334856143355339284
12403259 415 18202291307838779460
12403260 363 17968099788823940540
12633257 1 17313104138222101100
131258 38 14282818378027897945
13540713 4 18199764564960885847
13583140 156 18343579633690855622
13782708 43 18334860528722891162
14068700 675 17750510874520330779
15183329 4 10881943018133673370
15463212 79 17968936375886994281
15876981 60 17894348895166011916
16114785 44 18336831906058494323
17349148 13 16443352017425312258
17980427 23 17313114055132354054
1813 80 18048063993143326723
18470217 77 18260820527472183333
19303781 99 17693654123838714567
21033648 144 18269271275079906964
21033648 29 17752487555909404525
21304303 282 17822838807233020719
2132832 1 17676776490753091845
21424621 283 18051131394040373945
21859007 373 17318163927018181468
23081809 10 17240485810776319268
23559900 14 17984143665123650806
27425 322 17768250116430556189
2747138 104 18191316063916256258
392239 28 17703236238149497434
4015057 19 17915451706063202757
4073 2 18335422335924568770
4258327 124 13254802343539513451
469060 322 18128811026979320759
484985 159 14779554504468804801
5104073 3 18337391543985748402
550186 72 18270960275010909224
5969126 39 18339634655396916383
7399639 24 18198060489747343441
77296 10 18335700512350741186

>  <PUBCHEM_SHAPE_MULTIPOLES>  (1) 
600.67
15.75
3.94
1.89
23.62
0.96
-0.19
3.37
5.96
-7.95
-0.45
-0.46
-0.35
3.83

>  <PUBCHEM_SHAPE_SELFOVERLAP>  (1) 
1308.562

>  <PUBCHEM_SHAPE_VOLUME>  (1) 
325

>  <PUBCHEM_COORDINATE_TYPE>  (1) 
2
5
10

$$$$
