20911
     RDKit          3D

 17 18  0  0  0  0  0  0  0  0999 V2000
   -0.3612   -1.4089    0.5069 O   0  0  0  0  0  0  0  0  0  0  0  0
    1.7932    0.4219    0.9562 O   0  0  0  0  0  0  0  0  0  0  0  0
    2.3729    0.2497   -1.2888 O   0  0  0  0  0  0  0  0  0  0  0  0
    3.9018   -0.2820    0.3730 N   0  0  0  0  0  0  0  0  0  0  0  0
   -1.6140   -1.9487   -0.0047 C   0  0  0  0  0  0  0  0  0  0  0  0
   -2.6414   -0.7985   -0.1209 C   0  0  0  0  0  0  0  0  0  0  0  0
   -1.7362    0.3679   -0.0154 C   0  0  0  0  0  0  0  0  0  0  0  0
   -0.4726   -0.0511    0.3642 C   0  0  0  0  0  0  0  0  0  0  0  0
   -1.3232   -2.5857   -1.3694 C   0  0  0  0  0  0  0  0  0  0  0  0
   -2.0908   -3.0187    0.9785 C   0  0  0  0  0  0  0  0  0  0  0  0
   -2.0142    1.7112   -0.1943 C   0  0  0  0  0  0  0  0  0  0  0  0
    0.5593    0.8420    0.5805 C   0  0  0  0  0  0  0  0  0  0  0  0
   -0.9839    2.6325    0.0103 C   0  0  0  0  0  0  0  0  0  0  0  0
    0.2953    2.2002    0.3963 C   0  0  0  0  0  0  0  0  0  0  0  0
   -3.3719    2.1780   -0.5882 C   0  0  0  0  0  0  0  0  0  0  0  0
    2.6770    0.1362   -0.1051 C   0  0  0  0  0  0  0  0  0  0  0  0
    5.0098   -0.6458   -0.4793 C   0  0  0  0  0  0  0  0  0  0  0  0
  1  5  1  0
  1  8  1  0
  2 12  1  0
  2 16  1  0
  3 16  2  0
  4 16  1  0
  4 17  1  0
  5  6  1  0
  5  9  1  0
  5 10  1  0
  6  7  1  0
  7  8  2  0
  7 11  1  0
  8 12  1  0
 11 13  2  0
 11 15  1  0
 12 14  2  0
 13 14  1  0
M  END
>  <PUBCHEM_COMPOUND_CID>  (1) 
20911

>  <PUBCHEM_CONFORMER_RMSD>  (1) 
0.6

>  <PUBCHEM_CONFORMER_DIVERSEORDER>  (1) 
1
23
18
24
19
11
4
10
25
27
20
15
17
22
26
3
12
9
28
16
2
14
13
21
7
6
8
5

>  <PUBCHEM_MMFF94_PARTIAL_CHARGES>  (1) 
18
1 -0.36
11 -0.14
12 0.08
13 -0.15
14 -0.15
15 0.14
16 0.78
17 0.3
2 -0.23
26 0.15
27 0.15
3 -0.57
31 0.37
4 -0.73
5 0.28
6 0.14
7 -0.14
8 0.08

>  <PUBCHEM_EFFECTIVE_ROTOR_COUNT>  (1) 
3.6

>  <PUBCHEM_PHARMACOPHORE_FEATURES>  (1) 
6
1 1 acceptor
1 3 acceptor
1 4 donor
3 5 9 10 hydrophobe
5 1 5 6 7 8 rings
6 7 8 11 12 13 14 rings

>  <PUBCHEM_HEAVY_ATOM_COUNT>  (1) 
17

>  <PUBCHEM_ATOM_DEF_STEREO_COUNT>  (1) 
0

>  <PUBCHEM_ATOM_UDEF_STEREO_COUNT>  (1) 
0

>  <PUBCHEM_BOND_DEF_STEREO_COUNT>  (1) 
0

>  <PUBCHEM_BOND_UDEF_STEREO_COUNT>  (1) 
0

>  <PUBCHEM_ISOTOPIC_ATOM_COUNT>  (1) 
0

>  <PUBCHEM_COMPONENT_COUNT>  (1) 
1

>  <PUBCHEM_CACTVS_TAUTO_COUNT>  (1) 
2

>  <PUBCHEM_CONFORMER_ID>  (1) 
000051AF00000001

>  <PUBCHEM_MMFF94_ENERGY>  (1) 
49.8155

>  <PUBCHEM_FEATURE_SELFOVERLAP>  (1) 
30.546

>  <PUBCHEM_SHAPE_FINGERPRINT>  (1) 
10616163 171 18411141320968647382
11578080 2 17201064053506394089
116883 192 18054492867257412823
12500047 106 18339355263215443924
12553582 1 18051697942912190414
13140716 1 18195252341502934299
14115302 16 18335988584238949780
14790565 3 18267313032002474561
15042514 8 18408328769749601227
15207287 21 17702938124442815964
15669948 3 18408879616775196210
16752209 62 18336249189890116443
16945 1 18335692893004443619
17870717 6 18127991736635459870
19591789 44 18409730617448016387
20645476 183 17895194355214292913
20645477 70 16751826863988402959
20871998 22 17977950412175776075
20871999 31 18409726274645385924
21524375 3 18194393395172284053
22802520 49 18268710682862499177
2334 1 17688584283789233691
23402539 116 18270108020381543364
23419403 2 14689996056169710215
23557571 272 18342177808417128328
23559900 14 18342452605178246504
23728640 28 18338228267765341794
257057 1 17982439705130004895
2748010 2 17905313380142463923
298252 57 18189894223593210993
3250762 1 18125426751368878897
3759504 43 17968658220666782617
4175511 318 18041559131222310500
559249 180 18263921034867879658
58051976 100 18334580109911892190
7364860 26 17404305590845279145
81228 2 18193540376165729817
8809292 202 18341611503809158888
9709674 26 18271248223194106862

>  <PUBCHEM_SHAPE_MULTIPOLES>  (1) 
327.26
5.98
3.27
0.99
9.29
0.81
0.14
0.59
1.07
-3.51
0.01
0
0.39
0.52

>  <PUBCHEM_SHAPE_SELFOVERLAP>  (1) 
694.681

>  <PUBCHEM_SHAPE_VOLUME>  (1) 
184.8

>  <PUBCHEM_COORDINATE_TYPE>  (1) 
2
5
10

$$$$
