20910
     RDKit          3D

  5  4  0  0  0  0  0  0  0  0999 V2000
   -2.0514   -0.7976    0.0001 Br  0  0  0  0  0  0  0  0  0  0  0  0
   -0.3774    0.0645   -0.0001 C   0  0  0  0  0  0  0  0  0  0  0  0
    0.7535   -0.6619   -0.0002 C   0  0  0  0  0  0  0  0  0  0  0  0
   -0.4871    1.5587    0.0000 C   0  0  0  0  0  0  0  0  0  0  0  0
    2.1624   -0.1637    0.0002 C   0  0  0  0  0  0  0  0  0  0  0  0
  1  2  1  0
  2  3  2  0
  2  4  1  0
  3  5  1  0
M  END
>  <PUBCHEM_COMPOUND_CID>  (1) 
20910

>  <PUBCHEM_CONFORMER_RMSD>  (1) 
0.4

>  <PUBCHEM_CONFORMER_DIVERSEORDER>  (1) 
1

>  <PUBCHEM_MMFF94_PARTIAL_CHARGES>  (1) 
6
1 -0.11
2 -0.03
3 -0.29
4 0.14
5 0.14
6 0.15

>  <PUBCHEM_EFFECTIVE_ROTOR_COUNT>  (1) 
0

>  <PUBCHEM_PHARMACOPHORE_FEATURES>  (1) 
3
1 1 hydrophobe
1 5 hydrophobe
3 1 2 4 hydrophobe

>  <PUBCHEM_HEAVY_ATOM_COUNT>  (1) 
5

>  <PUBCHEM_ATOM_DEF_STEREO_COUNT>  (1) 
0

>  <PUBCHEM_ATOM_UDEF_STEREO_COUNT>  (1) 
0

>  <PUBCHEM_BOND_DEF_STEREO_COUNT>  (1) 
0

>  <PUBCHEM_BOND_UDEF_STEREO_COUNT>  (1) 
1

>  <PUBCHEM_ISOTOPIC_ATOM_COUNT>  (1) 
0

>  <PUBCHEM_COMPONENT_COUNT>  (1) 
1

>  <PUBCHEM_CACTVS_TAUTO_COUNT>  (1) 
1

>  <PUBCHEM_CONFORMER_ID>  (1) 
000051AE00000001

>  <PUBCHEM_MMFF94_ENERGY>  (1) 
2.364

>  <PUBCHEM_FEATURE_SELFOVERLAP>  (1) 
16.225

>  <PUBCHEM_SHAPE_FINGERPRINT>  (1) 
139733 1 9295296036124995651
16714656 1 18342461447445231622
20096714 4 17833552297503488408
21040471 1 17834394514662233124
23552449 1 18339074883075903848
29004967 10 18337675316405815715
5460574 1 9295297135462680034
5943 1 12689811618784408661

>  <PUBCHEM_SHAPE_MULTIPOLES>  (1) 
108.84
2.73
1.34
0.64
0.23
0.63
0
-0.94
0
-0.29
0
-0.05
-0.02
0

>  <PUBCHEM_SHAPE_SELFOVERLAP>  (1) 
177.432

>  <PUBCHEM_SHAPE_VOLUME>  (1) 
77.5

>  <PUBCHEM_COORDINATE_TYPE>  (1) 
2
5
10

$$$$
