20926
     RDKit          3D

 16 17  0  0  0  0  0  0  0  0999 V2000
   -3.4253    0.2648   -0.0003 O   0  0  0  0  0  0  0  0  0  0  0  0
    4.6714    0.0583    0.0024 O   0  0  0  0  0  0  0  0  0  0  0  0
   -3.0475   -2.0059    0.0006 O   0  0  0  0  0  0  0  0  0  0  0  0
   -0.7596    0.8092   -0.0014 N   0  0  0  0  0  0  0  0  0  0  0  0
    1.0469   -0.4999   -0.0010 C   0  0  0  0  0  0  0  0  0  0  0  0
    0.6170    0.8288   -0.0009 C   0  0  0  0  0  0  0  0  0  0  0  0
   -1.2134   -0.4824   -0.0018 C   0  0  0  0  0  0  0  0  0  0  0  0
   -0.1187   -1.3160   -0.0014 C   0  0  0  0  0  0  0  0  0  0  0  0
    2.4308   -0.7648   -0.0005 C   0  0  0  0  0  0  0  0  0  0  0  0
    1.5054    1.9100   -0.0004 C   0  0  0  0  0  0  0  0  0  0  0  0
    3.3312    0.3067   -0.0004 C   0  0  0  0  0  0  0  0  0  0  0  0
    2.8734    1.6227   -0.0003 C   0  0  0  0  0  0  0  0  0  0  0  0
   -2.5974   -0.8367   -0.0008 C   0  0  0  0  0  0  0  0  0  0  0  0
   -4.8391    0.0392    0.0019 C   0  0  0  0  0  0  0  0  0  0  0  0
   -5.5515    1.3749    0.0021 C   0  0  0  0  0  0  0  0  0  0  0  0
    5.0764   -1.3089    0.0021 C   0  0  0  0  0  0  0  0  0  0  0  0
  1 13  1  0
  1 14  1  0
  2 11  1  0
  2 16  1  0
  3 13  2  0
  4  6  1  0
  4  7  1  0
  5  6  2  0
  5  8  1  0
  5  9  1  0
  6 10  1  0
  7  8  2  0
  7 13  1  0
  9 11  2  0
 10 12  2  0
 11 12  1  0
 14 15  1  0
M  END
>  <PUBCHEM_COMPOUND_CID>  (1) 
20926

>  <PUBCHEM_CONFORMER_RMSD>  (1) 
0.6

>  <PUBCHEM_CONFORMER_DIVERSEORDER>  (1) 
1
11
15
16
20
5
14
19
6
8
9
7
21
13
3
10
12
4
2
17
18

>  <PUBCHEM_MMFF94_PARTIAL_CHARGES>  (1) 
19
1 -0.43
10 -0.15
11 0.08
12 -0.15
13 0.81
14 0.28
16 0.28
17 0.15
18 0.27
19 0.15
2 -0.36
20 0.15
21 0.15
3 -0.57
4 0.03
6 -0.15
7 -0.24
8 -0.15
9 -0.15

>  <PUBCHEM_EFFECTIVE_ROTOR_COUNT>  (1) 
4

>  <PUBCHEM_PHARMACOPHORE_FEATURES>  (1) 
6
1 2 acceptor
1 3 acceptor
1 4 cation
1 4 donor
5 4 5 6 7 8 rings
6 5 6 9 10 11 12 rings

>  <PUBCHEM_HEAVY_ATOM_COUNT>  (1) 
16

>  <PUBCHEM_ATOM_DEF_STEREO_COUNT>  (1) 
0

>  <PUBCHEM_ATOM_UDEF_STEREO_COUNT>  (1) 
0

>  <PUBCHEM_BOND_DEF_STEREO_COUNT>  (1) 
0

>  <PUBCHEM_BOND_UDEF_STEREO_COUNT>  (1) 
0

>  <PUBCHEM_ISOTOPIC_ATOM_COUNT>  (1) 
0

>  <PUBCHEM_COMPONENT_COUNT>  (1) 
1

>  <PUBCHEM_CACTVS_TAUTO_COUNT>  (1) 
2

>  <PUBCHEM_CONFORMER_ID>  (1) 
000051BE00000001

>  <PUBCHEM_MMFF94_ENERGY>  (1) 
35.4278

>  <PUBCHEM_FEATURE_SELFOVERLAP>  (1) 
30.537

>  <PUBCHEM_SHAPE_FINGERPRINT>  (1) 
10062212 137 18271519892132811095
10608611 8 18266738163566514849
11089746 13 17846770802386329297
11401426 45 18273492381580126426
11405975 8 18408885174141169515
11471102 20 18411417327960951108
12032990 46 18410295830764890886
12236239 1 17917990572958812965
13675066 3 18271524303005773090
13690532 89 18411419505778382458
13922767 16 18342457062273033881
14115302 16 17749118811342783502
15099037 51 18411136922272919655
15196674 1 18338517546459725828
15531645 54 18411419475397080829
15536298 74 18342457105744913776
17834072 8 18342179955388755324
18186145 218 17894901975178513055
19141452 34 18413668023831118815
200 152 17917709119346253447
20279233 1 14764352660375297623
20645477 70 18342177773635377550
21065198 57 18337391663991345299
21267235 1 18410865351496113659
212847 35 18335424577459757972
21452121 103 18200301256069763424
22079108 93 10881696736208357982
221490 88 18119254097553881458
23218964 4 18335981986894454029
23402539 116 18060412504796721109
23402655 69 18341331179535511076
23559900 14 18342736351786572256
335352 9 18410856538207242494
3545911 37 18411984659245134011
4072396 5 18341885247939857690
4214541 1 18410856577489617219
4463277 17 18409450293591197116
5104073 3 18337953501300200977
59755656 520 17967809449852668123
602551 16 15719970140783790729
633830 44 17749105651003578930
6430166 295 18410572886120033693
77779 3 18337392750660217099
9981440 41 17402886125655824632

>  <PUBCHEM_SHAPE_MULTIPOLES>  (1) 
306.68
10.54
1.77
0.59
6.03
0.18
0
0.41
-0.01
-0.11
0
-0.02
0.01
0

>  <PUBCHEM_SHAPE_SELFOVERLAP>  (1) 
655.757

>  <PUBCHEM_SHAPE_VOLUME>  (1) 
172.6

>  <PUBCHEM_COORDINATE_TYPE>  (1) 
2
5
10

$$$$
