20924
     RDKit          3D

 17 18  0  0  0  0  0  0  0  0999 V2000
   -0.9348   -1.1464    0.4441 O   0  0  0  0  0  0  0  0  0  0  0  0
    1.4286    0.4366    0.7630 O   0  0  0  0  0  0  0  0  0  0  0  0
    1.8836    0.1618   -1.4889 O   0  0  0  0  0  0  0  0  0  0  0  0
    3.4644   -0.5366    0.0676 N   0  0  0  0  0  0  0  0  0  0  0  0
   -2.2609   -1.5504   -0.0041 C   0  0  0  0  0  0  0  0  0  0  0  0
   -3.1564   -0.2936   -0.1069 C   0  0  0  0  0  0  0  0  0  0  0  0
   -2.1221    0.7646   -0.0653 C   0  0  0  0  0  0  0  0  0  0  0  0
   -0.8988    0.2124    0.2735 C   0  0  0  0  0  0  0  0  0  0  0  0
   -2.1016   -2.2424   -1.3637 C   0  0  0  0  0  0  0  0  0  0  0  0
   -2.8131   -2.5403    1.0226 C   0  0  0  0  0  0  0  0  0  0  0  0
   -2.2545    2.1269   -0.2651 C   0  0  0  0  0  0  0  0  0  0  0  0
    0.2353    0.9867    0.4272 C   0  0  0  0  0  0  0  0  0  0  0  0
   -1.1194    2.9292   -0.1238 C   0  0  0  0  0  0  0  0  0  0  0  0
    0.1181    2.3623    0.2213 C   0  0  0  0  0  0  0  0  0  0  0  0
    2.2429    0.0254   -0.3199 C   0  0  0  0  0  0  0  0  0  0  0  0
    4.4062   -1.0054   -0.9388 C   0  0  0  0  0  0  0  0  0  0  0  0
    3.8826   -0.6908    1.4572 C   0  0  0  0  0  0  0  0  0  0  0  0
  1  5  1  0
  1  8  1  0
  2 12  1  0
  2 15  1  0
  3 15  2  0
  4 15  1  0
  4 16  1  0
  4 17  1  0
  5  6  1  0
  5  9  1  0
  5 10  1  0
  6  7  1  0
  7  8  2  0
  7 11  1  0
  8 12  1  0
 11 13  2  0
 12 14  2  0
 13 14  1  0
M  END
>  <PUBCHEM_COMPOUND_CID>  (1) 
20924

>  <PUBCHEM_CONFORMER_RMSD>  (1) 
0.6

>  <PUBCHEM_CONFORMER_DIVERSEORDER>  (1) 
1
18
19
12
20
4
21
11
15
6
3
5
14
17
16
2
13
9
10
8
7

>  <PUBCHEM_MMFF94_PARTIAL_CHARGES>  (1) 
18
1 -0.36
11 -0.15
12 0.08
13 -0.15
14 -0.15
15 0.78
16 0.3
17 0.3
2 -0.23
26 0.15
27 0.15
28 0.15
3 -0.57
4 -0.66
5 0.28
6 0.14
7 -0.14
8 0.08

>  <PUBCHEM_EFFECTIVE_ROTOR_COUNT>  (1) 
3.6

>  <PUBCHEM_PHARMACOPHORE_FEATURES>  (1) 
5
1 1 acceptor
1 3 acceptor
3 5 9 10 hydrophobe
5 1 5 6 7 8 rings
6 7 8 11 12 13 14 rings

>  <PUBCHEM_HEAVY_ATOM_COUNT>  (1) 
17

>  <PUBCHEM_ATOM_DEF_STEREO_COUNT>  (1) 
0

>  <PUBCHEM_ATOM_UDEF_STEREO_COUNT>  (1) 
0

>  <PUBCHEM_BOND_DEF_STEREO_COUNT>  (1) 
0

>  <PUBCHEM_BOND_UDEF_STEREO_COUNT>  (1) 
0

>  <PUBCHEM_ISOTOPIC_ATOM_COUNT>  (1) 
0

>  <PUBCHEM_COMPONENT_COUNT>  (1) 
1

>  <PUBCHEM_CACTVS_TAUTO_COUNT>  (1) 
1

>  <PUBCHEM_CONFORMER_ID>  (1) 
000051BC00000001

>  <PUBCHEM_MMFF94_ENERGY>  (1) 
54.6578

>  <PUBCHEM_FEATURE_SELFOVERLAP>  (1) 
25.471

>  <PUBCHEM_SHAPE_FINGERPRINT>  (1) 
10616163 171 18338521837649603958
12363563 72 18339359798231890815
12500047 106 18123747561385266532
12553582 1 18267871768418197054
13083527 12 17553452058093133994
13140716 1 18339361971748833769
13296908 3 17989204837468022138
13931106 250 18129075918765535015
14115302 16 18186802478394560973
15042514 8 18336271141583926585
15669948 3 18335983065210852648
16752209 62 18263348214636117145
16945 1 18337392647528540377
19141452 34 17989488554454916103
20361792 2 18268149940575275223
20524608 308 18268990886565949708
20645476 183 17749673970056620745
20645477 70 17616801580744391207
20871998 184 18343586222144281407
20871998 22 18122065561797399281
21061003 4 17131837568612969792
21296965 67 18338801242214174995
21452121 199 18192986251884746408
21731516 1 18268997668324662959
23114952 82 17610600287791948797
23184049 29 18337665420880280560
232386 152 18408885152740127366
2334 1 18122341543437189137
23402539 116 18270104722221121997
23419403 2 14328565689108897879
23557571 272 18342735209220068856
23559900 14 18270397167108392854
23598288 3 17969530158920321733
23728640 28 18264762164814083083
257057 1 18125425652020105693
2748010 2 18194107749930216937
559249 180 18047188541121645578
5902787 121 18337390555805276546
7364860 26 17765156459506975673
7615 1 17749108868662142364
77492 1 17531811242966120040
81228 2 18340211803816035377
84936 182 8283997079521468447
8809292 202 18341896242839669128
9709674 26 18270683039678350030

>  <PUBCHEM_SHAPE_MULTIPOLES>  (1) 
327.26
6.39
2.92
1.13
7.58
0.85
-0.08
-3.66
-0.06
-2.85
-0.04
0.57
-0.53
0.23

>  <PUBCHEM_SHAPE_SELFOVERLAP>  (1) 
691.218

>  <PUBCHEM_SHAPE_VOLUME>  (1) 
185.9

>  <PUBCHEM_COORDINATE_TYPE>  (1) 
2
5
10

$$$$
