20921
     RDKit          3D

 14 15  0  0  0  0  0  0  0  0999 V2000
    0.7992    1.7153   -0.3652 O   0  0  0  0  0  0  0  0  0  0  0  0
   -1.2713   -0.2673   -0.9293 O   0  0  0  0  0  0  0  0  0  0  0  0
   -1.9421   -0.1654    1.2947 O   0  0  0  0  0  0  0  0  0  0  0  0
   -3.4433    0.2613   -0.4219 N   0  0  0  0  0  0  0  0  0  0  0  0
    2.2476    0.0722    0.1883 C   0  0  0  0  0  0  0  0  0  0  0  0
    0.9583    0.3673   -0.2429 C   0  0  0  0  0  0  0  0  0  0  0  0
   -0.0167   -0.5930   -0.5064 C   0  0  0  0  0  0  0  0  0  0  0  0
    2.6017   -1.2756    0.3734 C   0  0  0  0  0  0  0  0  0  0  0  0
    2.9020    1.3239    0.3333 C   0  0  0  0  0  0  0  0  0  0  0  0
    0.3571   -1.9266   -0.3158 C   0  0  0  0  0  0  0  0  0  0  0  0
    1.6422   -2.2644    0.1162 C   0  0  0  0  0  0  0  0  0  0  0  0
    1.9815    2.2853   -0.0142 C   0  0  0  0  0  0  0  0  0  0  0  0
   -2.2082   -0.0625    0.1008 C   0  0  0  0  0  0  0  0  0  0  0  0
   -4.6081    0.5293    0.3890 C   0  0  0  0  0  0  0  0  0  0  0  0
  1  6  1  0
  1 12  1  0
  2  7  1  0
  2 13  1  0
  3 13  2  0
  4 13  1  0
  4 14  1  0
  5  6  2  0
  5  8  1  0
  5  9  1  0
  6  7  1  0
  7 10  2  0
  8 11  2  0
  9 12  2  0
 10 11  1  0
M  END
>  <PUBCHEM_COMPOUND_CID>  (1) 
20921

>  <PUBCHEM_CONFORMER_RMSD>  (1) 
0.6

>  <PUBCHEM_CONFORMER_DIVERSEORDER>  (1) 
1
11
18
23
21
17
9
12
22
5
13
14
6
8
24
10
7
19
2
16
4
20
15
3

>  <PUBCHEM_MMFF94_PARTIAL_CHARGES>  (1) 
19
1 -0.28
10 -0.15
11 -0.15
12 -0.01
13 0.78
14 0.3
15 0.15
16 0.15
17 0.15
18 0.15
19 0.15
2 -0.23
20 0.37
3 -0.57
4 -0.73
6 0.14
7 0.08
8 -0.15
9 -0.15

>  <PUBCHEM_EFFECTIVE_ROTOR_COUNT>  (1) 
3

>  <PUBCHEM_PHARMACOPHORE_FEATURES>  (1) 
5
1 1 acceptor
1 3 acceptor
1 4 donor
5 1 5 6 9 12 rings
6 5 6 7 8 10 11 rings

>  <PUBCHEM_HEAVY_ATOM_COUNT>  (1) 
14

>  <PUBCHEM_ATOM_DEF_STEREO_COUNT>  (1) 
0

>  <PUBCHEM_ATOM_UDEF_STEREO_COUNT>  (1) 
0

>  <PUBCHEM_BOND_DEF_STEREO_COUNT>  (1) 
0

>  <PUBCHEM_BOND_UDEF_STEREO_COUNT>  (1) 
0

>  <PUBCHEM_ISOTOPIC_ATOM_COUNT>  (1) 
0

>  <PUBCHEM_COMPONENT_COUNT>  (1) 
1

>  <PUBCHEM_CACTVS_TAUTO_COUNT>  (1) 
2

>  <PUBCHEM_CONFORMER_ID>  (1) 
000051B900000001

>  <PUBCHEM_MMFF94_ENERGY>  (1) 
27.9757

>  <PUBCHEM_FEATURE_SELFOVERLAP>  (1) 
25.474

>  <PUBCHEM_SHAPE_FINGERPRINT>  (1) 
10219947 1 18410292493021316550
10465860 228 18341617005482923417
10980938 120 18410289215950687805
11471102 20 18409725140742221781
11471102 22 18334580118053544354
12346645 6 18411980260676377076
13380536 305 18411423920941485430
14251717 144 18411410700990067215
15219456 202 18187638068798530653
15442244 35 18052822451180758585
15501101 241 18187364294360422279
15775835 57 18130787910020287553
16945 1 18410282606449816830
18186145 218 18342457032651205743
19049666 15 17751068112140556509
20510252 161 17260746773012191296
20559304 39 18271246023458415265
20645477 70 18411131399567573311
20871998 22 18053945048337164238
21524375 3 18127690641499093364
21639500 275 18339625820158539093
22854114 111 18412544318921342641
2748010 2 18193277610056043382
276578 36 18342178907464201080
3060560 45 18130510738595741342
63268167 104 18342174483684796544
7364860 26 18343585114127335902
77492 1 17775273967979128727
81228 2 17257932590064788018
8272917 22 18340775853570896735

>  <PUBCHEM_SHAPE_MULTIPOLES>  (1) 
265.52
5.79
2.17
0.82
7.9
0.07
0.07
-1.58
1
-2.17
-0.04
0.25
0.04
-0.12

>  <PUBCHEM_SHAPE_SELFOVERLAP>  (1) 
574.806

>  <PUBCHEM_SHAPE_VOLUME>  (1) 
145.8

>  <PUBCHEM_COORDINATE_TYPE>  (1) 
2
5
10

$$$$
