20925
     RDKit          3D

 17 18  0  0  0  0  0  0  0  0999 V2000
   -3.6021    2.2028   -0.6189 Cl  0  0  0  0  0  0  0  0  0  0  0  0
   -0.3263   -1.4210    0.5052 O   0  0  0  0  0  0  0  0  0  0  0  0
    1.8028    0.4393    0.9549 O   0  0  0  0  0  0  0  0  0  0  0  0
    2.3759    0.2858   -1.2931 O   0  0  0  0  0  0  0  0  0  0  0  0
    3.9192   -0.2308    0.3601 N   0  0  0  0  0  0  0  0  0  0  0  0
   -1.5730   -1.9766   -0.0045 C   0  0  0  0  0  0  0  0  0  0  0  0
   -2.6175   -0.8411   -0.1118 C   0  0  0  0  0  0  0  0  0  0  0  0
   -1.7291    0.3380   -0.0039 C   0  0  0  0  0  0  0  0  0  0  0  0
   -0.4581   -0.0642    0.3693 C   0  0  0  0  0  0  0  0  0  0  0  0
   -1.2778   -2.6029   -1.3732 C   0  0  0  0  0  0  0  0  0  0  0  0
   -2.0306   -3.0581    0.9753 C   0  0  0  0  0  0  0  0  0  0  0  0
   -2.0273    1.6778   -0.1755 C   0  0  0  0  0  0  0  0  0  0  0  0
    0.5614    0.8428    0.5862 C   0  0  0  0  0  0  0  0  0  0  0  0
   -1.0099    2.6131    0.0298 C   0  0  0  0  0  0  0  0  0  0  0  0
    0.2768    2.1979    0.4094 C   0  0  0  0  0  0  0  0  0  0  0  0
    2.6864    0.1714   -0.1111 C   0  0  0  0  0  0  0  0  0  0  0  0
    5.0290   -0.5743   -0.4983 C   0  0  0  0  0  0  0  0  0  0  0  0
  1 12  1  0
  2  6  1  0
  2  9  1  0
  3 13  1  0
  3 16  1  0
  4 16  2  0
  5 16  1  0
  5 17  1  0
  6  7  1  0
  6 10  1  0
  6 11  1  0
  7  8  1  0
  8  9  2  0
  8 12  1  0
  9 13  1  0
 12 14  2  0
 13 15  2  0
 14 15  1  0
M  END
>  <PUBCHEM_COMPOUND_CID>  (1) 
20925

>  <PUBCHEM_CONFORMER_RMSD>  (1) 
0.6

>  <PUBCHEM_CONFORMER_DIVERSEORDER>  (1) 
1
22
11
18
23
26
10
24
4
17
19
12
15
20
27
16
3
9
2
25
8
14
21
6
7
13
5

>  <PUBCHEM_MMFF94_PARTIAL_CHARGES>  (1) 
18
1 -0.18
12 0.18
13 0.08
14 -0.15
15 -0.15
16 0.78
17 0.3
2 -0.36
26 0.15
27 0.15
28 0.37
3 -0.23
4 -0.57
5 -0.73
6 0.28
7 0.14
8 -0.14
9 0.08

>  <PUBCHEM_EFFECTIVE_ROTOR_COUNT>  (1) 
3.6

>  <PUBCHEM_PHARMACOPHORE_FEATURES>  (1) 
6
1 2 acceptor
1 4 acceptor
1 5 donor
3 6 10 11 hydrophobe
5 2 6 7 8 9 rings
6 8 9 12 13 14 15 rings

>  <PUBCHEM_HEAVY_ATOM_COUNT>  (1) 
17

>  <PUBCHEM_ATOM_DEF_STEREO_COUNT>  (1) 
0

>  <PUBCHEM_ATOM_UDEF_STEREO_COUNT>  (1) 
0

>  <PUBCHEM_BOND_DEF_STEREO_COUNT>  (1) 
0

>  <PUBCHEM_BOND_UDEF_STEREO_COUNT>  (1) 
0

>  <PUBCHEM_ISOTOPIC_ATOM_COUNT>  (1) 
0

>  <PUBCHEM_COMPONENT_COUNT>  (1) 
1

>  <PUBCHEM_CACTVS_TAUTO_COUNT>  (1) 
2

>  <PUBCHEM_CONFORMER_ID>  (1) 
000051BD00000001

>  <PUBCHEM_MMFF94_ENERGY>  (1) 
48.2177

>  <PUBCHEM_FEATURE_SELFOVERLAP>  (1) 
30.546

>  <PUBCHEM_SHAPE_FINGERPRINT>  (1) 
11578080 2 17201065157302465649
116883 192 18054492867257419319
12500047 106 18339356367016770748
12553582 1 18051979422194417878
13140716 1 18195533820774612259
14115302 16 18335988588518112308
14790565 3 18267311928122019929
15042514 8 18408610249010736171
15207287 21 17702939228233599780
15669948 3 18408879621085981266
16752209 62 18336531772957878939
16945 1 18335692897294136179
17870717 6 18200049334963060870
19591789 44 18409730626037937979
20645476 183 17895194359514521961
20645477 70 16968281103872654455
20871998 22 17978231891421093267
20871999 31 18409726278935084964
21524375 3 18194393395156459777
22802520 49 18268710687141622729
2334 1 17688865763071448147
23402539 116 18270108024702864932
23419403 2 14617939561680333327
23557571 272 18342176713189937848
23559900 14 18342452609462722744
23598288 3 18042708206598296830
23728640 28 18338228272081414610
257057 1 17910663590353198903
2748010 2 17905594859408873627
298252 57 18262233296934439409
3084891 72 18197772215552417089
3250762 1 18125708230666930609
3759504 43 18040716918500743145
559249 180 18263921043452520002
58051976 100 18334298639198500300
7364860 26 17404868540767071457
81228 2 18193539280970168321
8809292 202 18341894082592464616
9709674 26 18271249327016526190

>  <PUBCHEM_SHAPE_MULTIPOLES>  (1) 
329.13
6.11
3.31
0.99
9.05
1.14
0.15
-0.24
1.26
-3.62
-0.01
0.01
0.38
0.54

>  <PUBCHEM_SHAPE_SELFOVERLAP>  (1) 
691.436

>  <PUBCHEM_SHAPE_VOLUME>  (1) 
189.1

>  <PUBCHEM_COORDINATE_TYPE>  (1) 
2
5
10

$$$$
