20920
     RDKit          3D

 25 28  0  0  0  0  0  0  0  0999 V2000
    0.3169    1.1692    0.8107 O   0  0  0  0  0  0  0  0  0  0  0  0
    0.4845   -1.5918    0.7491 O   0  0  0  0  0  0  0  0  0  0  0  0
    5.0629    1.2185   -0.3481 N   0  0  0  0  0  0  0  0  0  0  0  0
    3.8219    0.7029   -0.0487 C   0  0  0  0  0  0  0  0  0  0  0  0
    3.9351   -0.6886   -0.0862 C   0  0  0  0  0  0  0  0  0  0  0  0
    1.5022    0.5600    0.5168 C   0  0  0  0  0  0  0  0  0  0  0  0
    1.5855   -0.8307    0.4862 C   0  0  0  0  0  0  0  0  0  0  0  0
    2.6202    1.3551    0.2495 C   0  0  0  0  0  0  0  0  0  0  0  0
    2.7943   -1.4694    0.1862 C   0  0  0  0  0  0  0  0  0  0  0  0
    5.2861   -0.9889   -0.4171 C   0  0  0  0  0  0  0  0  0  0  0  0
    5.9542    0.2038   -0.5724 C   0  0  0  0  0  0  0  0  0  0  0  0
    0.0842    2.4465    0.2229 C   0  0  0  0  0  0  0  0  0  0  0  0
    0.0453   -2.4713   -0.2831 C   0  0  0  0  0  0  0  0  0  0  0  0
   -1.3926    2.6411    0.0430 C   0  0  0  0  0  0  0  0  0  0  0  0
   -1.4455   -2.6197   -0.1988 C   0  0  0  0  0  0  0  0  0  0  0  0
   -2.0013    2.2368   -1.1400 C   0  0  0  0  0  0  0  0  0  0  0  0
   -2.1394    3.2242    1.0606 C   0  0  0  0  0  0  0  0  0  0  0  0
   -1.9936   -3.6294    0.5843 C   0  0  0  0  0  0  0  0  0  0  0  0
   -2.2655   -1.7463   -0.9045 C   0  0  0  0  0  0  0  0  0  0  0  0
   -3.3742    2.4177   -1.3073 C   0  0  0  0  0  0  0  0  0  0  0  0
   -3.5124    3.4052    0.8932 C   0  0  0  0  0  0  0  0  0  0  0  0
   -3.3794   -3.7675    0.6628 C   0  0  0  0  0  0  0  0  0  0  0  0
   -3.6513   -1.8844   -0.8260 C   0  0  0  0  0  0  0  0  0  0  0  0
   -4.1298    3.0019   -0.2908 C   0  0  0  0  0  0  0  0  0  0  0  0
   -4.2083   -2.8949   -0.0424 C   0  0  0  0  0  0  0  0  0  0  0  0
  1  6  1  0
  1 12  1  0
  2  7  1  0
  2 13  1  0
  3  4  1  0
  3 11  1  0
  4  5  2  0
  4  8  1  0
  5  9  1  0
  5 10  1  0
  6  7  1  0
  6  8  2  0
  7  9  2  0
 10 11  2  0
 12 14  1  0
 13 15  1  0
 14 16  2  0
 14 17  1  0
 15 18  2  0
 15 19  1  0
 16 20  1  0
 17 21  2  0
 18 22  1  0
 19 23  2  0
 20 24  2  0
 21 24  1  0
 22 25  2  0
 23 25  1  0
M  END
>  <PUBCHEM_COMPOUND_CID>  (1) 
20920

>  <PUBCHEM_CONFORMER_RMSD>  (1) 
0.8

>  <PUBCHEM_CONFORMER_DIVERSEORDER>  (1) 
1
281
104
292
146
100
258
15
52
228
57
242
175
120
179
54
211
204
267
195
77
5
284
96
296
156
10
210
243
293
99
199
139
251
108
163
277
220
111
254
184
19
9
158
70
294
7
169
198
69
161
88
53
178
300
206
6
268
85
244
61
200
138
219
131
256
234
59
147
128
14
250
237
173
223
89
298
270
255
201
153
101
214
208
26
192
280
93
13
50
274
162
102
34
183
299
248
23
159
279
301
216
240
269
165
246
141
190
172
40
11
245
306
241
41
261
137
168
56
151
49
97
160
110
271
122
3
263
181
213
273
231
202
264
282
209
302
92
62
149
205
82
29
112
222
303
20
207
107
125
232
81
285
187
290
191
278
127
119
83
262
221
2
24
253
217
37
283
236
4
142
36
51
71
203
174
58
90
22
249
164
304
170
247
180
295
259
87
229
257
196
114
148
115
291
80
31
266
18
73
152
176
95
136
167
225
157
238
134
103
305
35
124
116
118
287
98
272
72
39
215
33
143
188
43
218
79
233
45
76
224
276
67
212
150
74
289
113
46
47
288
123
144
63
133
21
193
25
117
166
260
177
48
130
16
126
135
230
227
129
154
38
66
106
275
307
84
55
32
132
121
27
239
182
60
194
28
75
155
235
64
297
65
185
94
252
265
140
189
286
86
44
42
78
68
145
226
91
12
17
186
8
197
30
105
171
109

>  <PUBCHEM_MMFF94_PARTIAL_CHARGES>  (1) 
39
1 -0.36
10 -0.15
11 -0.3
12 0.42
13 0.42
14 -0.14
15 -0.14
16 -0.15
17 -0.15
18 -0.15
19 -0.15
2 -0.36
20 -0.15
21 -0.15
22 -0.15
23 -0.15
24 -0.15
25 -0.15
26 0.15
27 0.15
28 0.27
29 0.15
3 0.03
30 0.15
35 0.15
36 0.15
37 0.15
38 0.15
39 0.15
4 -0.15
40 0.15
41 0.15
42 0.15
43 0.15
44 0.15
6 0.08
7 0.08
8 -0.15
9 -0.15

>  <PUBCHEM_EFFECTIVE_ROTOR_COUNT>  (1) 
6

>  <PUBCHEM_PHARMACOPHORE_FEATURES>  (1) 
8
1 1 acceptor
1 2 acceptor
1 3 cation
1 3 donor
5 3 4 5 10 11 rings
6 14 16 17 20 21 24 rings
6 15 18 19 22 23 25 rings
6 4 5 6 7 8 9 rings

>  <PUBCHEM_HEAVY_ATOM_COUNT>  (1) 
25

>  <PUBCHEM_ATOM_DEF_STEREO_COUNT>  (1) 
0

>  <PUBCHEM_ATOM_UDEF_STEREO_COUNT>  (1) 
0

>  <PUBCHEM_BOND_DEF_STEREO_COUNT>  (1) 
0

>  <PUBCHEM_BOND_UDEF_STEREO_COUNT>  (1) 
0

>  <PUBCHEM_ISOTOPIC_ATOM_COUNT>  (1) 
0

>  <PUBCHEM_COMPONENT_COUNT>  (1) 
1

>  <PUBCHEM_CACTVS_TAUTO_COUNT>  (1) 
1

>  <PUBCHEM_CONFORMER_ID>  (1) 
000051B800000001

>  <PUBCHEM_MMFF94_ENERGY>  (1) 
75.5315

>  <PUBCHEM_FEATURE_SELFOVERLAP>  (1) 
40.693

>  <PUBCHEM_SHAPE_FINGERPRINT>  (1) 
10050765 1 18410857656138279754
104564 63 18411978087375640863
10688039 33 18190745425781282023
1100329 8 17905884782376123018
11014199 57 17977951516199162115
11045515 52 18122065561623774315
11135609 187 18120924024427257341
12156800 1 18123222123480952725
12160290 23 18123153944906325109
12293681 4 18116434941166537194
12788726 201 18335131046451975058
12954195 1 18412267233575353494
13052359 8 18337951195155982858
1361 2 18121217581057008305
138480 1 16537358784373730691
13941206 138 18188486861610591435
14251757 5 18409447016093365303
14363568 33 17544205234239285961
14713325 29 18411142432726808583
14790565 3 18052260587617309896
14866123 147 18411420570703789051
14931854 50 18195501780703732637
15081414 286 17835522995775875145
15276724 80 18267031720344284044
17138139 8 17840827908243101221
19427546 20 18336275621635775468
21049683 271 17614009907192305942
21133410 90 17274828012935165259
21236236 1 18411981360509758174
21285901 2 18058184967116511614
21307412 95 17626412034342333118
21641784 216 18043546095110756444
221357 26 18267577077869301823
23559900 14 17690554613101667019
244849 19 17560221605826395960
25147074 1 18040991809899374322
38695281 34 17977387139926325161
4058900 60 17906736895503462637
469060 322 16732985323338023583
5171179 24 17844232132895710737
59755656 520 18266745675538272756
7164475 11 18337397149160454588
7237137 82 18337118942469428444

>  <PUBCHEM_SHAPE_MULTIPOLES>  (1) 
497.77
10.42
5.61
1
12.62
0.86
0.08
-0.49
1.96
-10.03
-0.81
-0.65
-0.31
0.11

>  <PUBCHEM_SHAPE_SELFOVERLAP>  (1) 
1099.009

>  <PUBCHEM_SHAPE_VOLUME>  (1) 
267.5

>  <PUBCHEM_COORDINATE_TYPE>  (1) 
2
5
10

$$$$
