20922
     RDKit          3D

 14 15  0  0  0  0  0  0  0  0999 V2000
   -0.7287   -1.7129   -0.4622 O   0  0  0  0  0  0  0  0  0  0  0  0
    1.2592    0.3049   -0.9236 O   0  0  0  0  0  0  0  0  0  0  0  0
    1.9252    0.1331    1.2974 O   0  0  0  0  0  0  0  0  0  0  0  0
    3.4374   -0.2327   -0.4236 N   0  0  0  0  0  0  0  0  0  0  0  0
   -3.0196   -1.3113    0.2300 C   0  0  0  0  0  0  0  0  0  0  0  0
   -2.2234   -0.0676    0.1505 C   0  0  0  0  0  0  0  0  0  0  0  0
   -1.8812   -2.3303    0.1590 C   0  0  0  0  0  0  0  0  0  0  0  0
   -0.9386   -0.3702   -0.2752 C   0  0  0  0  0  0  0  0  0  0  0  0
    0.0079    0.6104   -0.5000 C   0  0  0  0  0  0  0  0  0  0  0  0
   -2.6079    1.2421    0.3703 C   0  0  0  0  0  0  0  0  0  0  0  0
   -0.3641    1.9366   -0.2717 C   0  0  0  0  0  0  0  0  0  0  0  0
   -1.6631    2.2504    0.1619 C   0  0  0  0  0  0  0  0  0  0  0  0
    2.1981    0.0694    0.1022 C   0  0  0  0  0  0  0  0  0  0  0  0
    4.5990   -0.5219    0.3849 C   0  0  0  0  0  0  0  0  0  0  0  0
  1  7  1  0
  1  8  1  0
  2  9  1  0
  2 13  1  0
  3 13  2  0
  4 13  1  0
  4 14  1  0
  5  6  1  0
  5  7  1  0
  6  8  2  0
  6 10  1  0
  8  9  1  0
  9 11  2  0
 10 12  2  0
 11 12  1  0
M  END
>  <PUBCHEM_COMPOUND_CID>  (1) 
20922

>  <PUBCHEM_CONFORMER_RMSD>  (1) 
0.6

>  <PUBCHEM_CONFORMER_DIVERSEORDER>  (1) 
1
10
17
6
18
9
22
5
8
19
16
21
2
15
7
20
12
23
11
13
24
14
4
3

>  <PUBCHEM_MMFF94_PARTIAL_CHARGES>  (1) 
18
1 -0.36
10 -0.15
11 -0.15
12 -0.15
13 0.78
14 0.3
19 0.15
2 -0.23
20 0.15
21 0.15
22 0.37
3 -0.57
4 -0.73
5 0.14
6 -0.14
7 0.28
8 0.08
9 0.08

>  <PUBCHEM_EFFECTIVE_ROTOR_COUNT>  (1) 
3.6

>  <PUBCHEM_PHARMACOPHORE_FEATURES>  (1) 
5
1 1 acceptor
1 3 acceptor
1 4 donor
5 1 5 6 7 8 rings
6 6 8 9 10 11 12 rings

>  <PUBCHEM_HEAVY_ATOM_COUNT>  (1) 
14

>  <PUBCHEM_ATOM_DEF_STEREO_COUNT>  (1) 
0

>  <PUBCHEM_ATOM_UDEF_STEREO_COUNT>  (1) 
0

>  <PUBCHEM_BOND_DEF_STEREO_COUNT>  (1) 
0

>  <PUBCHEM_BOND_UDEF_STEREO_COUNT>  (1) 
0

>  <PUBCHEM_ISOTOPIC_ATOM_COUNT>  (1) 
0

>  <PUBCHEM_COMPONENT_COUNT>  (1) 
1

>  <PUBCHEM_CACTVS_TAUTO_COUNT>  (1) 
2

>  <PUBCHEM_CONFORMER_ID>  (1) 
000051BA00000001

>  <PUBCHEM_MMFF94_ENERGY>  (1) 
39.1179

>  <PUBCHEM_FEATURE_SELFOVERLAP>  (1) 
25.475

>  <PUBCHEM_SHAPE_FINGERPRINT>  (1) 
124424 183 17703784770060781240
12500047 106 18338508621723731392
13024252 1 14779551153945777381
15076042 46 18411705412844812045
15219456 202 17845661335140289014
15653759 3 18131347514484043576
16945 1 18411146813962429901
17804303 29 18342463638184306206
19049666 15 17773325526026907326
19422 9 18114187436567443542
20510252 161 18272374109641067185
20645464 45 17989489589019502572
20871998 184 18272374182639414143
21650355 55 18410569600079863632
22445834 79 18041276569681911058
232386 152 18335989773596354454
23402539 116 18272080600719426415
23552423 10 17542514181277103133
23559900 14 18200033929089469062
257057 1 17910385418544111463
2748010 2 18196089065588495661
43471831 8 18262800653234532595
5706482 22 18267580213332025545
6338986 31 17768517640830814703
7364860 26 17764593509379363953
75552 356 18410293613997289773
77492 1 17749119880594273204
81228 2 18411423916572703905

>  <PUBCHEM_SHAPE_MULTIPOLES>  (1) 
265.52
5.79
2.18
0.82
7.69
0
0.07
-1.55
0.96
-2.14
0.02
0.25
0.03
-0.12

>  <PUBCHEM_SHAPE_SELFOVERLAP>  (1) 
567.915

>  <PUBCHEM_SHAPE_VOLUME>  (1) 
147.3

>  <PUBCHEM_COORDINATE_TYPE>  (1) 
2
5
10

$$$$
