20936
     RDKit          3D

 12 12  0  0  1  0  0  0  0  0999 V2000
    1.6204    2.1055   -0.8726 S   0  0  0  0  0  0  0  0  0  0  0  0
   -3.0811    1.7051   -0.7418 S   0  0  0  0  0  0  0  0  0  0  0  0
   -0.6063   -0.3249   -0.0412 C   0  0  0  0  0  0  0  0  0  0  0  0
    0.0822    0.6554    0.9229 C   0  0  0  0  0  0  0  0  0  0  0  0
    2.3453   -0.3537    0.3682 C   0  0  0  0  0  0  0  0  0  0  0  0
    0.2159   -1.6096   -0.1956 C   0  0  0  0  0  0  0  0  0  0  0  0
    1.5451    0.9556    0.5575 C   0  0  0  0  0  0  0  0  0  0  0  0
    1.6595   -1.3249   -0.6051 C   0  0  0  0  0  0  0  0  0  0  0  0
   -2.0195   -0.6489    0.4444 C   0  0  0  0  0  0  0  0  0  0  0  0
    3.8064   -0.1307   -0.0303 C   0  0  0  0  0  0  0  0  0  0  0  0
   -2.8669    0.6106    0.6963 C   0  0  0  0  0  0  0  0  0  0  0  0
   -2.7010   -1.6394   -0.5027 C   0  0  0  0  0  0  0  0  0  0  0  0
  1  7  1  0
  2 11  1  0
  3  4  1  0
  3  6  1  0
  3  9  1  0
  4  7  1  0
  5  7  1  0
  5  8  1  0
  5 10  1  0
  6  8  1  0
  9 11  1  0
  9 12  1  0
M  END
>  <PUBCHEM_COMPOUND_CID>  (1) 
20936

>  <PUBCHEM_CONFORMER_RMSD>  (1) 
0.6

>  <PUBCHEM_CONFORMER_DIVERSEORDER>  (1) 
3
80
85
14
114
48
6
86
33
112
92
100
68
97
49
78
109
61
103
44
74
94
107
56
106
21
96
51
15
89
38
110
37
34
5
60
102
45
59
101
69
4
87
22
115
98
99
70
113
7
35
84
75
108
25
27
52
46
63
90
36
16
76
66
10
11
62
65
19
12
82
28
24
26
72
111
2
47
18
20
105
54
55
29
30
58
64
91
32
93
83
77
23
81
1
88
31
50
53
13
104
8
71
73
57
41
43
67
79
17
40
42
95
39
9

>  <PUBCHEM_MMFF94_PARTIAL_CHARGES>  (1) 
6
1 -0.41
11 0.23
2 -0.41
31 0.18
32 0.18
7 0.23

>  <PUBCHEM_EFFECTIVE_ROTOR_COUNT>  (1) 
3.2

>  <PUBCHEM_PHARMACOPHORE_FEATURES>  (1) 
2
1 12 hydrophobe
6 3 4 5 6 7 8 rings

>  <PUBCHEM_HEAVY_ATOM_COUNT>  (1) 
12

>  <PUBCHEM_ATOM_DEF_STEREO_COUNT>  (1) 
0

>  <PUBCHEM_ATOM_UDEF_STEREO_COUNT>  (1) 
4

>  <PUBCHEM_BOND_DEF_STEREO_COUNT>  (1) 
0

>  <PUBCHEM_BOND_UDEF_STEREO_COUNT>  (1) 
0

>  <PUBCHEM_ISOTOPIC_ATOM_COUNT>  (1) 
0

>  <PUBCHEM_COMPONENT_COUNT>  (1) 
1

>  <PUBCHEM_CACTVS_TAUTO_COUNT>  (1) 
1

>  <PUBCHEM_CONFORMER_ID>  (1) 
000051C800000003

>  <PUBCHEM_MMFF94_ENERGY>  (1) 
25.8149

>  <PUBCHEM_FEATURE_SELFOVERLAP>  (1) 
10.148

>  <PUBCHEM_SHAPE_FINGERPRINT>  (1) 
10922523 26 18411141311813801125
11206711 2 18271522112899584271
12138202 97 18337662019503429023
124424 183 17968088664631569560
12696612 119 18334300889323714868
12932764 1 18333733507106410499
13571099 22 18130788902141733334
14325111 11 18271525389769610058
14993402 34 18409454713012162182
15219459 52 18265618865113921078
15279308 100 18266177236521448197
15775835 57 18199759192109415025
16945 1 18129661881190326426
17844478 74 18261408757939894419
18186145 218 18201726167045972096
19973954 147 18335139834160433125
20201158 50 18271243824524823915
20511035 2 18127409171323752042
20653085 51 18333452036757132345
21028194 46 18270682085667732218
21501502 16 18338240478404368973
21524375 3 17904486555909787240
22926399 65 18115306665947204380
23402539 116 18336820919184043038
23402655 69 18057592180299448277
23419403 2 16473133097306973274
23552423 10 18410576218698248331
23559900 14 17917714604900296152
25 1 18196367018660258005
2748010 2 18200872984334437410
305870 269 17968652705649511819
3071541 158 18409172099632085452
3248919 1 18115301323039237859
5084963 1 18341329002087279755
528886 8 18341608183525028690
63268167 104 18272092643122168931

>  <PUBCHEM_SHAPE_MULTIPOLES>  (1) 
254.65
5.44
2.09
0.97
0.14
0.47
0
0.64
0.35
0.46
0.67
0.13
0.19
0

>  <PUBCHEM_SHAPE_SELFOVERLAP>  (1) 
470.83

>  <PUBCHEM_SHAPE_VOLUME>  (1) 
159.2

>  <PUBCHEM_COORDINATE_TYPE>  (1) 
2
5
10

$$$$
