20931
     RDKit          3D

  8  7  0  0  0  0  0  0  0  0999 V2000
    3.0493   -0.4952   -0.0147 O   0  0  0  0  0  0  0  0  0  0  0  0
   -4.2795   -0.3094   -0.0068 O   0  0  0  0  0  0  0  0  0  0  0  0
   -0.6035    0.4690    0.0030 C   0  0  0  0  0  0  0  0  0  0  0  0
    0.6386   -0.4269   -0.0024 C   0  0  0  0  0  0  0  0  0  0  0  0
   -1.8857   -0.3610    0.0240 C   0  0  0  0  0  0  0  0  0  0  0  0
    1.9311    0.3801    0.0099 C   0  0  0  0  0  0  0  0  0  0  0  0
   -3.1261    0.5204   -0.0136 C   0  0  0  0  0  0  0  0  0  0  0  0
    4.2759    0.2230    0.0006 C   0  0  0  0  0  0  0  0  0  0  0  0
  1  6  1  0
  1  8  1  0
  2  7  1  0
  3  4  1  0
  3  5  1  0
  4  6  1  0
  5  7  1  0
M  END
>  <PUBCHEM_COMPOUND_CID>  (1) 
20931

>  <PUBCHEM_CONFORMER_RMSD>  (1) 
0.6

>  <PUBCHEM_CONFORMER_DIVERSEORDER>  (1) 
1
68
19
61
20
55
59
21
15
44
4
56
40
60
9
39
52
67
32
31
34
66
29
42
50
18
2
57
63
6
41
45
25
13
8
51
65
33
23
38
58
5
24
64
7
53
12
62
28
48
16
10
11
47
3
14
49
54
17
22
27
26
35
36
30
43
37
46

>  <PUBCHEM_MMFF94_PARTIAL_CHARGES>  (1) 
6
1 -0.56
19 0.4
2 -0.68
6 0.28
7 0.28
8 0.28

>  <PUBCHEM_EFFECTIVE_ROTOR_COUNT>  (1) 
5

>  <PUBCHEM_PHARMACOPHORE_FEATURES>  (1) 
3
1 1 acceptor
1 2 acceptor
1 2 donor

>  <PUBCHEM_HEAVY_ATOM_COUNT>  (1) 
8

>  <PUBCHEM_ATOM_DEF_STEREO_COUNT>  (1) 
0

>  <PUBCHEM_ATOM_UDEF_STEREO_COUNT>  (1) 
0

>  <PUBCHEM_BOND_DEF_STEREO_COUNT>  (1) 
0

>  <PUBCHEM_BOND_UDEF_STEREO_COUNT>  (1) 
0

>  <PUBCHEM_ISOTOPIC_ATOM_COUNT>  (1) 
0

>  <PUBCHEM_COMPONENT_COUNT>  (1) 
1

>  <PUBCHEM_CACTVS_TAUTO_COUNT>  (1) 
1

>  <PUBCHEM_CONFORMER_ID>  (1) 
000051C300000001

>  <PUBCHEM_MMFF94_ENERGY>  (1) 
6.5146

>  <PUBCHEM_FEATURE_SELFOVERLAP>  (1) 
15.223

>  <PUBCHEM_SHAPE_FINGERPRINT>  (1) 
11062470 55 18410575084673647904
14325111 11 18410856538228321570
190213 19 14345797136496983336
20719005 15 18410573993741405218
5460574 1 9223229645804031017

>  <PUBCHEM_SHAPE_MULTIPOLES>  (1) 
152.9
8.11
0.76
0.59
0.65
0.03
0
0.04
-0.03
-0.04
0
0.02
0.01
0.01

>  <PUBCHEM_SHAPE_SELFOVERLAP>  (1) 
265.1

>  <PUBCHEM_SHAPE_VOLUME>  (1) 
102.3

>  <PUBCHEM_COORDINATE_TYPE>  (1) 
2
5
10

$$$$
