20948
     RDKit          3D

 21 23  0  0  1  0  0  0  0  0999 V2000
   -0.5675    0.6383   -0.9771 N   0  0  0  0  0  0  0  0  0  0  0  0
   -0.9671   -1.9076    0.5163 N   0  0  0  0  0  0  0  0  0  0  0  0
    2.3333    2.2139    0.4790 N   0  0  0  0  0  0  0  0  0  0  0  0
   -0.1997    2.0305   -1.1925 C   0  0  0  0  0  0  0  0  0  0  0  0
    0.1085   -0.3776   -1.7710 C   0  0  0  0  0  0  0  0  0  0  0  0
   -0.0454    2.8046    0.1152 C   0  0  0  0  0  0  0  0  0  0  0  0
   -1.7807    0.2929   -0.3824 C   0  0  0  0  0  0  0  0  0  0  0  0
    0.9579   -1.2570   -0.8998 C   0  0  0  0  0  0  0  0  0  0  0  0
    1.0016    2.2274    1.0722 C   0  0  0  0  0  0  0  0  0  0  0  0
   -1.9756   -0.9410    0.2857 C   0  0  0  0  0  0  0  0  0  0  0  0
    0.3865   -2.0034    0.1413 C   0  0  0  0  0  0  0  0  0  0  0  0
   -2.8760    1.1881   -0.4341 C   0  0  0  0  0  0  0  0  0  0  0  0
    2.3313   -1.3789   -1.1762 C   0  0  0  0  0  0  0  0  0  0  0  0
   -3.2517   -1.2381    0.8221 C   0  0  0  0  0  0  0  0  0  0  0  0
    1.2208   -2.8581    0.8882 C   0  0  0  0  0  0  0  0  0  0  0  0
   -4.1224    0.8773    0.1114 C   0  0  0  0  0  0  0  0  0  0  0  0
   -4.3134   -0.3429    0.7350 C   0  0  0  0  0  0  0  0  0  0  0  0
    3.1393   -2.2288   -0.4242 C   0  0  0  0  0  0  0  0  0  0  0  0
    2.5828   -2.9714    0.6087 C   0  0  0  0  0  0  0  0  0  0  0  0
    3.3126    1.6713    1.4225 C   0  0  0  0  0  0  0  0  0  0  0  0
    2.7248    3.5608    0.0599 C   0  0  0  0  0  0  0  0  0  0  0  0
  1  4  1  0
  1  5  1  0
  1  7  1  0
  2 10  1  0
  2 11  1  0
  3  9  1  0
  3 20  1  0
  3 21  1  0
  4  6  1  0
  5  8  1  0
  6  9  1  0
  7 10  2  0
  7 12  1  0
  8 11  2  0
  8 13  1  0
 10 14  1  0
 11 15  1  0
 12 16  2  0
 13 18  2  0
 14 17  2  0
 15 19  2  0
 16 17  1  0
 18 19  1  0
M  END
>  <PUBCHEM_COMPOUND_CID>  (1) 
20948

>  <PUBCHEM_CONFORMER_RMSD>  (1) 
0.8

>  <PUBCHEM_CONFORMER_DIVERSEORDER>  (1) 
1
15
4
7
3
9
10
12
6
5
14
17
13
2
16
8
11

>  <PUBCHEM_MMFF94_PARTIAL_CHARGES>  (1) 
29
1 -0.84
10 0.1
11 0.1
12 -0.15
13 -0.15
14 -0.15
15 -0.15
16 -0.15
17 -0.15
18 -0.15
19 -0.15
2 -0.6
20 0.27
21 0.27
3 -0.81
30 0.4
31 0.15
32 0.15
33 0.15
34 0.15
35 0.15
36 0.15
37 0.15
38 0.15
4 0.37
5 0.51
7 0.1
8 -0.14
9 0.27

>  <PUBCHEM_EFFECTIVE_ROTOR_COUNT>  (1) 
4.6

>  <PUBCHEM_PHARMACOPHORE_FEATURES>  (1) 
7
1 1 cation
1 2 cation
1 2 donor
1 3 cation
6 7 10 12 14 16 17 rings
6 8 11 13 15 18 19 rings
7 1 2 5 7 8 10 11 rings

>  <PUBCHEM_HEAVY_ATOM_COUNT>  (1) 
21

>  <PUBCHEM_ATOM_DEF_STEREO_COUNT>  (1) 
0

>  <PUBCHEM_ATOM_UDEF_STEREO_COUNT>  (1) 
0

>  <PUBCHEM_BOND_DEF_STEREO_COUNT>  (1) 
0

>  <PUBCHEM_BOND_UDEF_STEREO_COUNT>  (1) 
0

>  <PUBCHEM_ISOTOPIC_ATOM_COUNT>  (1) 
0

>  <PUBCHEM_COMPONENT_COUNT>  (1) 
1

>  <PUBCHEM_CACTVS_TAUTO_COUNT>  (1) 
1

>  <PUBCHEM_CONFORMER_ID>  (1) 
000051D400000001

>  <PUBCHEM_MMFF94_ENERGY>  (1) 
84.0136

>  <PUBCHEM_FEATURE_SELFOVERLAP>  (1) 
35.536

>  <PUBCHEM_SHAPE_FINGERPRINT>  (1) 
107951 10 17978808027499503508
108231 29 18265057920525371527
11578080 2 17750505200599514925
11680986 33 18335988640305210723
12156800 1 15721951533967621992
12422481 6 18054757690883249050
12592029 89 18268715085394050873
12633257 1 18189034534428190290
12788726 201 17688886232389877599
13009979 54 17395581593302987666
13027679 85 18192432970224520349
13140716 1 18337398145387119387
133893 2 18054192588455074396
14178342 30 17905064882252076635
14787075 74 18335151881675827518
15006816 218 18338795718622709168
15230672 131 18048042054820222660
16110190 28 18119788452443689456
16945 1 18049449432948047335
20510252 161 17759242894893375991
20600515 1 17902807253386750589
20691752 17 17894630361968895075
20905425 154 18342464728810925357
21330990 113 18261110820063874908
21524375 3 17769661124285839221
21731228 192 17908704273533377705
22182313 1 18040705979688558485
23419403 2 18043228177014434765
23557571 272 17694782922161789590
23559900 14 18114186289294256790
23728640 28 17474944802088086680
2748010 2 18333734624098594415
3411729 13 18272376386147911153
392239 28 18265049142139778690
58807428 26 18121504823651850299
5895379 119 16125594089375289057
59755656 215 18194402419215253247
7364860 26 18412833507785910959
81228 2 17337322869934529273
84936 31 17775283859067323750

>  <PUBCHEM_SHAPE_MULTIPOLES>  (1) 
417.23
6.06
4.23
1.3
4.38
1.75
0.21
-0.42
-1.56
-4.63
-0.95
-0.43
0.05
1.03

>  <PUBCHEM_SHAPE_SELFOVERLAP>  (1) 
885.251

>  <PUBCHEM_SHAPE_VOLUME>  (1) 
229.3

>  <PUBCHEM_COORDINATE_TYPE>  (1) 
2
5
10

$$$$
