20943
     RDKit          3D

 24 26  0  0  1  0  0  0  0  0999 V2000
   -1.8722   -1.4626   -1.7873 S   0  0  0  0  0  0  0  0  0  0  0  0
    4.6214   -0.6167   -0.4386 S   0  0  0  0  0  0  0  0  0  0  0  0
   -1.4262   -1.5618    2.5948 O   0  0  0  0  0  0  0  0  0  0  0  0
   -4.6046    1.4674    0.7531 O   0  0  0  0  0  0  0  0  0  0  0  0
   -2.4821    1.9342    1.4410 O   0  0  0  0  0  0  0  0  0  0  0  0
    2.2017   -2.4666   -1.2134 O   0  0  0  0  0  0  0  0  0  0  0  0
   -1.5526   -0.3874    0.5515 N   0  0  0  0  0  0  0  0  0  0  0  0
    1.3141   -1.7352    0.8034 N   0  0  0  0  0  0  0  0  0  0  0  0
   -0.6860   -0.8387   -0.5413 C   0  0  0  0  0  0  0  0  0  0  0  0
   -3.1501   -0.2182   -1.2502 C   0  0  0  0  0  0  0  0  0  0  0  0
   -2.9518   -0.1289    0.2783 C   0  0  0  0  0  0  0  0  0  0  0  0
   -0.1019   -1.8697    0.4341 C   0  0  0  0  0  0  0  0  0  0  0  0
   -1.0822   -1.2820    1.4688 C   0  0  0  0  0  0  0  0  0  0  0  0
   -2.8810    1.0907   -2.0049 C   0  0  0  0  0  0  0  0  0  0  0  0
   -4.5406   -0.7498   -1.6021 C   0  0  0  0  0  0  0  0  0  0  0  0
   -3.2839    1.1948    0.8899 C   0  0  0  0  0  0  0  0  0  0  0  0
    2.3572   -2.0504   -0.0664 C   0  0  0  0  0  0  0  0  0  0  0  0
    3.7284   -1.8526    0.5338 C   0  0  0  0  0  0  0  0  0  0  0  0
    3.5572    0.8138   -0.2707 C   0  0  0  0  0  0  0  0  0  0  0  0
    3.2963    1.3344    0.9922 C   0  0  0  0  0  0  0  0  0  0  0  0
    2.9989    1.3939   -1.4045 C   0  0  0  0  0  0  0  0  0  0  0  0
    2.4670    2.4485    1.1228 C   0  0  0  0  0  0  0  0  0  0  0  0
    2.1695    2.5078   -1.2740 C   0  0  0  0  0  0  0  0  0  0  0  0
    1.9036    3.0351   -0.0103 C   0  0  0  0  0  0  0  0  0  0  0  0
  1  9  1  0
  1 10  1  0
  2 18  1  0
  2 19  1  0
  3 13  2  0
  4 16  1  0
  5 16  2  0
  6 17  2  0
  7  9  1  0
  7 11  1  0
  7 13  1  0
  8 12  1  0
  8 17  1  0
  9 12  1  0
 10 11  1  0
 10 14  1  0
 10 15  1  0
 11 16  1  0
 12 13  1  0
 17 18  1  0
 19 20  2  0
 19 21  1  0
 20 22  1  0
 21 23  2  0
 22 24  2  0
 23 24  1  0
M  END
>  <PUBCHEM_COMPOUND_CID>  (1) 
20943

>  <PUBCHEM_CONFORMER_RMSD>  (1) 
1

>  <PUBCHEM_CONFORMER_DIVERSEORDER>  (1) 
2
112
673
423
351
14
203
167
384
122
616
18
8
293
36
236
37
545
27
154
672
151
13
322
327
215
71
172
317
95
177
134
46
130
571
278
519
304
472
266
11
301
184
433
104
514
311
141
67
55
114
217
42
19
516
272
92
69
589
35
406
56
33
623
404
261
73
80
182
1
392
137
216
28
29
364
91
88
127
159
53
3
452
227
128
268
102
64
135
664
566
52
612
131
149
48
461
611
644
345
265
21
239
81
12
70
682
530
32
224
189
271
97
366
198
358
204
346
223
374
175
15
100
385
209
460
606
531
34
445
24
276
286
259
306
9
158
424
90
43
552
7
211
352
538
337
115
280
63
85
38
77
163
4
120
584
20
16
567
129
574
65
439
25
667
6
168
428
243
408
31
41
481
295
170
588
477
645
123
17
132
118
308
74
142
319
192

>  <PUBCHEM_MMFF94_PARTIAL_CHARGES>  (1) 
29
1 -0.45
10 0.23
11 0.36
12 0.28
13 0.58
16 0.66
17 0.57
18 0.29
19 0.1
2 -0.33
20 -0.15
21 -0.15
22 -0.15
23 -0.15
24 -0.15
3 -0.57
34 0.37
35 0.5
38 0.15
39 0.15
4 -0.65
40 0.15
41 0.15
42 0.15
5 -0.57
6 -0.57
7 -0.59
8 -0.65
9 0.44

>  <PUBCHEM_EFFECTIVE_ROTOR_COUNT>  (1) 
6.8

>  <PUBCHEM_PHARMACOPHORE_FEATURES>  (1) 
10
1 3 acceptor
1 4 acceptor
1 5 acceptor
1 6 acceptor
1 8 donor
3 10 14 15 hydrophobe
3 4 5 16 anion
4 7 9 12 13 rings
6 19 20 21 22 23 24 rings
7 1 7 9 10 11 12 13 rings

>  <PUBCHEM_HEAVY_ATOM_COUNT>  (1) 
24

>  <PUBCHEM_ATOM_DEF_STEREO_COUNT>  (1) 
0

>  <PUBCHEM_ATOM_UDEF_STEREO_COUNT>  (1) 
3

>  <PUBCHEM_BOND_DEF_STEREO_COUNT>  (1) 
0

>  <PUBCHEM_BOND_UDEF_STEREO_COUNT>  (1) 
0

>  <PUBCHEM_ISOTOPIC_ATOM_COUNT>  (1) 
0

>  <PUBCHEM_COMPONENT_COUNT>  (1) 
1

>  <PUBCHEM_CACTVS_TAUTO_COUNT>  (1) 
2

>  <PUBCHEM_CONFORMER_ID>  (1) 
000051CF00000002

>  <PUBCHEM_MMFF94_ENERGY>  (1) 
62.4562

>  <PUBCHEM_FEATURE_SELFOVERLAP>  (1) 
54.535

>  <PUBCHEM_SHAPE_FINGERPRINT>  (1) 
10165383 225 17470487326373015904
10366900 7 18187086169648281974
104564 63 18195254317583451004
12156800 1 11307509161215578480
12467345 10 18202559562568542941
12633257 1 17676482874051307136
128993 33 17901966453868211404
13134695 92 18412543189893641470
13583140 156 17894346678952428331
14251764 3 17313382305820305049
151778 21 17970085506881992692
18186145 218 18260266304696725971
18219364 16 17821450140261631347
18981168 100 17822295720648872114
19930381 70 17910107254918549353
20567600 299 18272649043730687024
21033648 29 17168134620430321133
21475661 188 17969502594020884245
22749437 52 18264762349692770724
23227448 37 18339366254126399185
23557571 272 15769773558997914162
23559900 14 17748823016549748342
238 59 18197781200987769734
474 4 18334293175625676703
508706 21 17822003177731428645
5895379 119 17417537899895466624
9981440 41 17836630187095424728

>  <PUBCHEM_SHAPE_MULTIPOLES>  (1) 
468.17
8.67
3.16
1.93
1.21
0.88
-0.11
1.56
1.51
-2.46
-0.23
1.41
-0.06
-0.53

>  <PUBCHEM_SHAPE_SELFOVERLAP>  (1) 
963.958

>  <PUBCHEM_SHAPE_VOLUME>  (1) 
271.4

>  <PUBCHEM_COORDINATE_TYPE>  (1) 
2
5
10

$$$$
