20949
     RDKit          3D

 11 11  0  0  0  0  0  0  0  0999 V2000
    1.1768   -0.2004   -0.6124 O   0  0  0  0  0  0  0  0  0  0  0  0
   -0.6357   -2.2860   -0.3100 O   0  0  0  0  0  0  0  0  0  0  0  0
    2.1658    0.2426    0.3149 C   0  0  0  0  0  0  0  0  0  0  0  0
    2.9384   -0.9598    0.8354 C   0  0  0  0  0  0  0  0  0  0  0  0
    3.0780    1.2498   -0.3687 C   0  0  0  0  0  0  0  0  0  0  0  0
   -0.1242    0.0529   -0.2982 C   0  0  0  0  0  0  0  0  0  0  0  0
   -1.0340   -0.9937   -0.1471 C   0  0  0  0  0  0  0  0  0  0  0  0
   -0.5443    1.3722   -0.1277 C   0  0  0  0  0  0  0  0  0  0  0  0
   -2.3636   -0.7209    0.1746 C   0  0  0  0  0  0  0  0  0  0  0  0
   -1.8738    1.6449    0.1940 C   0  0  0  0  0  0  0  0  0  0  0  0
   -2.7834    0.5983    0.3451 C   0  0  0  0  0  0  0  0  0  0  0  0
  1  3  1  0
  1  6  1  0
  2  7  1  0
  3  4  1  0
  3  5  1  0
  6  7  2  0
  6  8  1  0
  7  9  1  0
  8 10  2  0
  9 11  2  0
 10 11  1  0
M  END
>  <PUBCHEM_COMPOUND_CID>  (1) 
20949

>  <PUBCHEM_CONFORMER_RMSD>  (1) 
0.4

>  <PUBCHEM_CONFORMER_DIVERSEORDER>  (1) 
1
11
13
5
10
7
12
8
9
4
3
2
6

>  <PUBCHEM_MMFF94_PARTIAL_CHARGES>  (1) 
14
1 -0.36
10 -0.15
11 -0.15
19 0.15
2 -0.53
20 0.15
21 0.15
22 0.15
23 0.45
3 0.28
6 0.08
7 0.08
8 -0.15
9 -0.15

>  <PUBCHEM_EFFECTIVE_ROTOR_COUNT>  (1) 
2

>  <PUBCHEM_PHARMACOPHORE_FEATURES>  (1) 
4
1 1 acceptor
1 2 donor
3 3 4 5 hydrophobe
6 6 7 8 9 10 11 rings

>  <PUBCHEM_HEAVY_ATOM_COUNT>  (1) 
11

>  <PUBCHEM_ATOM_DEF_STEREO_COUNT>  (1) 
0

>  <PUBCHEM_ATOM_UDEF_STEREO_COUNT>  (1) 
0

>  <PUBCHEM_BOND_DEF_STEREO_COUNT>  (1) 
0

>  <PUBCHEM_BOND_UDEF_STEREO_COUNT>  (1) 
0

>  <PUBCHEM_ISOTOPIC_ATOM_COUNT>  (1) 
0

>  <PUBCHEM_COMPONENT_COUNT>  (1) 
1

>  <PUBCHEM_CACTVS_TAUTO_COUNT>  (1) 
3

>  <PUBCHEM_CONFORMER_ID>  (1) 
000051D500000001

>  <PUBCHEM_MMFF94_ENERGY>  (1) 
31.7234

>  <PUBCHEM_FEATURE_SELFOVERLAP>  (1) 
20.297

>  <PUBCHEM_SHAPE_FINGERPRINT>  (1) 
10857977 72 18343017821977796105
12251169 10 18408878521516350720
12932764 1 17749388135661659548
13024252 1 14923939050938327285
14144814 61 18409448081282080632
14325111 11 18410857633387135176
15076042 46 18410292471673028792
15669948 3 18269835466310083366
15775835 57 18408610249005604232
16945 1 18342455992921031669
193761 8 17547854513500731437
20645464 45 17918270944023446514
20871998 184 18129106795443765719
21040471 1 18340496564495156493
22445834 79 18041553633795962538
23463225 33 18335137531941853026
23552423 10 17902231439990764693
2748010 2 18050581638119938615
29004967 10 15502374538799148300
369184 2 18187080650435899665
5084963 1 17987802895264385176

>  <PUBCHEM_SHAPE_MULTIPOLES>  (1) 
214.64
4.66
1.82
0.75
2.36
0.34
-0.05
-0.68
-0.75
-0.33
0.09
0.2
0.04
-0.46

>  <PUBCHEM_SHAPE_SELFOVERLAP>  (1) 
436.673

>  <PUBCHEM_SHAPE_VOLUME>  (1) 
126

>  <PUBCHEM_COORDINATE_TYPE>  (1) 
2
5
10

$$$$
