20941
     RDKit          3D

 18 18  0  0  0  0  0  0  0  0999 V2000
   -1.1349   -0.7989    0.9419 N   0  0  0  0  0  0  0  0  0  0  0  0
    1.2555   -0.5892    0.9420 N   0  0  0  0  0  0  0  0  0  0  0  0
   -0.1212    1.3761    0.9428 N   0  0  0  0  0  0  0  0  0  0  0  0
    0.2434   -2.7799    0.9409 C   0  0  0  0  0  0  0  0  0  0  0  0
   -2.5259    1.1730    0.9422 C   0  0  0  0  0  0  0  0  0  0  0  0
    2.2820    1.5948    0.9425 C   0  0  0  0  0  0  0  0  0  0  0  0
    0.2929   -3.3429   -0.4812 C   0  0  0  0  0  0  0  0  0  0  0  0
   -3.0533    1.4195   -0.4797 C   0  0  0  0  0  0  0  0  0  0  0  0
    2.7587    1.9294   -0.4792 C   0  0  0  0  0  0  0  0  0  0  0  0
    0.1116   -1.2784    0.9417 C   0  0  0  0  0  0  0  0  0  0  0  0
   -1.1746    0.5433    0.9422 C   0  0  0  0  0  0  0  0  0  0  0  0
    1.0611    0.7394    0.9425 C   0  0  0  0  0  0  0  0  0  0  0  0
    0.3901   -4.8684   -0.4697 C   0  0  0  0  0  0  0  0  0  0  0  0
   -4.4212    2.1018   -0.4677 C   0  0  0  0  0  0  0  0  0  0  0  0
    4.0336    2.7728   -0.4670 C   0  0  0  0  0  0  0  0  0  0  0  0
    0.3986   -5.4370   -1.8798 C   0  0  0  0  0  0  0  0  0  0  0  0
   -4.9182    2.3791   -1.8776 C   0  0  0  0  0  0  0  0  0  0  0  0
    4.5218    3.0656   -1.8767 C   0  0  0  0  0  0  0  0  0  0  0  0
  1 10  2  0
  1 11  1  0
  2 10  1  0
  2 12  2  0
  3 11  2  0
  3 12  1  0
  4  7  1  0
  4 10  1  0
  5  8  1  0
  5 11  1  0
  6  9  1  0
  6 12  1  0
  7 13  1  0
  8 14  1  0
  9 15  1  0
 13 16  1  0
 14 17  1  0
 15 18  1  0
M  END
>  <PUBCHEM_COMPOUND_CID>  (1) 
20941

>  <PUBCHEM_CONFORMER_RMSD>  (1) 
1

>  <PUBCHEM_CONFORMER_DIVERSEORDER>  (1) 
1
35
18
11
32
9
38
20
28
40
24
3
5
26
27
41
19
25
34
36
44
2
21
29
33
10
7
23
39
4
16
43
6
13
17
37
45
31
22
42
8
12
30
14
15

>  <PUBCHEM_MMFF94_PARTIAL_CHARGES>  (1) 
9
1 -0.62
10 0.48
11 0.48
12 0.48
2 -0.62
3 -0.62
4 0.14
5 0.14
6 0.14

>  <PUBCHEM_EFFECTIVE_ROTOR_COUNT>  (1) 
9

>  <PUBCHEM_PHARMACOPHORE_FEATURES>  (1) 
7
1 16 hydrophobe
1 17 hydrophobe
1 18 hydrophobe
3 1 2 10 cation
3 1 3 11 cation
3 2 3 12 cation
6 1 2 3 10 11 12 rings

>  <PUBCHEM_HEAVY_ATOM_COUNT>  (1) 
18

>  <PUBCHEM_ATOM_DEF_STEREO_COUNT>  (1) 
0

>  <PUBCHEM_ATOM_UDEF_STEREO_COUNT>  (1) 
0

>  <PUBCHEM_BOND_DEF_STEREO_COUNT>  (1) 
0

>  <PUBCHEM_BOND_UDEF_STEREO_COUNT>  (1) 
0

>  <PUBCHEM_ISOTOPIC_ATOM_COUNT>  (1) 
0

>  <PUBCHEM_COMPONENT_COUNT>  (1) 
1

>  <PUBCHEM_CACTVS_TAUTO_COUNT>  (1) 
3

>  <PUBCHEM_CONFORMER_ID>  (1) 
000051CD00000001

>  <PUBCHEM_MMFF94_ENERGY>  (1) 
10.2801

>  <PUBCHEM_FEATURE_SELFOVERLAP>  (1) 
38.319

>  <PUBCHEM_SHAPE_FINGERPRINT>  (1) 
12788726 201 17830160660461208450
13257819 37 18263935499784424253
13899415 180 17329124894364014823
14004458 79 17690549110709431776
14178000 29 17408787836264570839
14508225 48 17186723264820807708
15475509 84 8338960665572928686
15878777 1 16964301872015868954
17134986 127 18260547818549779376
17539 30 17763462116272419428
17980427 26 17409420192462182873
1813 80 17478322038126329915
20602899 9 18200606906852607920
20645477 70 18050830145323499297
21304303 282 17765674234862171044
22620623 9 17836379511482037316
23114952 82 18118962495244902701
26353 1 16897646285979386364
3057174 1 18410573976561517102
46194498 28 17973427816525663061
57262259 84 17548422956321919486
58779409 8 18196091264231891040
59554788 191 18410004408317447146
59554788 248 18409459089035581619
60123966 16 17683216103225252645
81228 2 17546165667407863034

>  <PUBCHEM_SHAPE_MULTIPOLES>  (1) 
355.49
7.21
7.18
1.72
3.43
14.26
-0.69
-14.36
-5.17
-3.43
-5.16
0
0
0

>  <PUBCHEM_SHAPE_SELFOVERLAP>  (1) 
687.274

>  <PUBCHEM_SHAPE_VOLUME>  (1) 
213.5

>  <PUBCHEM_COORDINATE_TYPE>  (1) 
2
5
10

$$$$
