20946
     RDKit          3D

  8  7  0  0  1  0  0  0  0  0999 V2000
    0.0722    0.9400   -0.0537 C   0  0  0  0  0  0  0  0  0  0  0  0
   -1.3470    0.4599    0.3101 C   0  0  0  0  0  0  0  0  0  0  0  0
    1.1960   -0.0765    0.1897 C   0  0  0  0  0  0  0  0  0  0  0  0
    2.5732    0.4226   -0.2485 C   0  0  0  0  0  0  0  0  0  0  0  0
   -2.3622    1.5661    0.0055 C   0  0  0  0  0  0  0  0  0  0  0  0
   -1.7282   -0.7888   -0.4450 C   0  0  0  0  0  0  0  0  0  0  0  0
    3.6627   -0.5800    0.1009 C   0  0  0  0  0  0  0  0  0  0  0  0
   -2.0667   -1.9432    0.1409 C   0  0  0  0  0  0  0  0  0  0  0  0
  1  2  1  0
  1  3  1  0
  2  5  1  0
  2  6  1  0
  3  4  1  0
  4  7  1  0
  6  8  2  0
M  END
>  <PUBCHEM_COMPOUND_CID>  (1) 
20946

>  <PUBCHEM_CONFORMER_RMSD>  (1) 
0.6

>  <PUBCHEM_CONFORMER_DIVERSEORDER>  (1) 
8
23
4
28
19
30
10
27
3
18
5
17
26
29
15
22
12
6
11
2
16
21
1
25
13
7
14
9
20
24

>  <PUBCHEM_MMFF94_PARTIAL_CHARGES>  (1) 
6
19 0.15
2 0.14
23 0.15
24 0.15
6 -0.29
8 -0.3

>  <PUBCHEM_EFFECTIVE_ROTOR_COUNT>  (1) 
4

>  <PUBCHEM_PHARMACOPHORE_FEATURES>  (1) 
4
1 5 hydrophobe
1 7 hydrophobe
1 8 hydrophobe
5 1 2 3 4 6 hydrophobe

>  <PUBCHEM_HEAVY_ATOM_COUNT>  (1) 
8

>  <PUBCHEM_ATOM_DEF_STEREO_COUNT>  (1) 
0

>  <PUBCHEM_ATOM_UDEF_STEREO_COUNT>  (1) 
1

>  <PUBCHEM_BOND_DEF_STEREO_COUNT>  (1) 
0

>  <PUBCHEM_BOND_UDEF_STEREO_COUNT>  (1) 
0

>  <PUBCHEM_ISOTOPIC_ATOM_COUNT>  (1) 
0

>  <PUBCHEM_COMPONENT_COUNT>  (1) 
1

>  <PUBCHEM_CACTVS_TAUTO_COUNT>  (1) 
1

>  <PUBCHEM_CONFORMER_ID>  (1) 
000051D200000008

>  <PUBCHEM_MMFF94_ENERGY>  (1) 
1.9118

>  <PUBCHEM_FEATURE_SELFOVERLAP>  (1) 
20.302

>  <PUBCHEM_SHAPE_FINGERPRINT>  (1) 
12716758 59 18341041943552883609
12932741 1 17846770819555649016
12932764 1 17531239535569126700
14325111 11 18411138039502343680
20871998 184 18201442510125700503
23552423 10 18188771772365485716
29004967 10 16774085076653267824
3248919 1 17489312958131325456
528716 315 18335148634616916646
9939556 21 18261116266140246572

>  <PUBCHEM_SHAPE_MULTIPOLES>  (1) 
164.64
5.13
1.67
0.67
4.78
0.4
0.01
0.77
0.02
-1.65
-0.03
-0.03
0.02
-0.09

>  <PUBCHEM_SHAPE_SELFOVERLAP>  (1) 
289.842

>  <PUBCHEM_SHAPE_VOLUME>  (1) 
109.2

>  <PUBCHEM_COORDINATE_TYPE>  (1) 
2
5
10

$$$$
