20957
     RDKit          3D

 23 25  0  0  0  0  0  0  0  0999 V2000
    1.8287   -2.6921   -0.0493 O   0  0  0  0  0  0  0  0  0  0  0  0
   -0.3596   -1.0521   -0.0660 N   0  0  0  0  0  0  0  0  0  0  0  0
    0.9044   -0.5689   -0.0680 N   0  0  0  0  0  0  0  0  0  0  0  0
    5.8431    0.2367   -0.0068 N   0  0  0  0  0  0  0  0  0  0  0  0
   -1.3950   -0.2270   -0.0192 C   0  0  0  0  0  0  0  0  0  0  0  0
   -2.7469   -0.7625   -0.0177 C   0  0  0  0  0  0  0  0  0  0  0  0
   -1.1916    1.2631    0.0353 C   0  0  0  0  0  0  0  0  0  0  0  0
   -3.8398    0.1028    0.0338 C   0  0  0  0  0  0  0  0  0  0  0  0
   -1.0843    1.8566    1.2656 C   0  0  0  0  0  0  0  0  0  0  0  0
   -2.9510   -2.1416   -0.0683 C   0  0  0  0  0  0  0  0  0  0  0  0
   -1.1234    1.9502   -1.1483 C   0  0  0  0  0  0  0  0  0  0  0  0
   -5.1367   -0.4109    0.0350 C   0  0  0  0  0  0  0  0  0  0  0  0
   -0.8955    3.2378    1.3162 C   0  0  0  0  0  0  0  0  0  0  0  0
   -4.2479   -2.6551   -0.0673 C   0  0  0  0  0  0  0  0  0  0  0  0
   -0.9345    3.3314   -1.0976 C   0  0  0  0  0  0  0  0  0  0  0  0
   -5.3407   -1.7897   -0.0156 C   0  0  0  0  0  0  0  0  0  0  0  0
   -0.8205    3.9750    0.1347 C   0  0  0  0  0  0  0  0  0  0  0  0
    3.3127   -0.8733   -0.0410 C   0  0  0  0  0  0  0  0  0  0  0  0
    1.9523   -1.4700   -0.0591 C   0  0  0  0  0  0  0  0  0  0  0  0
    4.3467   -1.5889    0.5147 C   0  0  0  0  0  0  0  0  0  0  0  0
    3.4987    0.3775   -0.5801 C   0  0  0  0  0  0  0  0  0  0  0  0
    5.5956   -0.9889    0.5073 C   0  0  0  0  0  0  0  0  0  0  0  0
    4.7854    0.8898   -0.5383 C   0  0  0  0  0  0  0  0  0  0  0  0
  1 19  2  0
  2  3  1  0
  2  5  2  3
  3 19  1  0
  4 22  2  0
  4 23  1  0
  5  6  1  0
  5  7  1  0
  6  8  2  0
  6 10  1  0
  7  9  2  0
  7 11  1  0
  8 12  1  0
  9 13  1  0
 10 14  2  0
 11 15  2  0
 12 16  2  0
 13 17  2  0
 14 16  1  0
 15 17  1  0
 18 19  1  0
 18 20  2  0
 18 21  1  0
 20 22  1  0
 21 23  2  0
M  END
>  <PUBCHEM_COMPOUND_CID>  (1) 
20957

>  <PUBCHEM_CONFORMER_RMSD>  (1) 
0.8

>  <PUBCHEM_CONFORMER_DIVERSEORDER>  (1) 
1
3
2

>  <PUBCHEM_MMFF94_PARTIAL_CHARGES>  (1) 
38
1 -0.57
10 -0.15
11 -0.15
12 -0.15
13 -0.15
14 -0.15
15 -0.15
16 -0.15
17 -0.15
18 0.09
19 0.54
2 -0.51
20 -0.15
21 -0.15
22 0.16
23 0.16
24 0.15
25 0.15
26 0.15
27 0.15
28 0.15
29 0.15
3 -0.37
30 0.15
31 0.15
32 0.15
33 0.15
34 0.37
35 0.15
36 0.15
37 0.15
38 0.15
4 -0.62
5 0.28
6 0.09
7 0.09
8 -0.15
9 -0.15

>  <PUBCHEM_EFFECTIVE_ROTOR_COUNT>  (1) 
5

>  <PUBCHEM_PHARMACOPHORE_FEATURES>  (1) 
7
1 1 acceptor
1 2 acceptor
1 3 donor
1 4 acceptor
6 4 18 20 21 22 23 rings
6 6 8 10 12 14 16 rings
6 7 9 11 13 15 17 rings

>  <PUBCHEM_HEAVY_ATOM_COUNT>  (1) 
23

>  <PUBCHEM_ATOM_DEF_STEREO_COUNT>  (1) 
0

>  <PUBCHEM_ATOM_UDEF_STEREO_COUNT>  (1) 
0

>  <PUBCHEM_BOND_DEF_STEREO_COUNT>  (1) 
0

>  <PUBCHEM_BOND_UDEF_STEREO_COUNT>  (1) 
0

>  <PUBCHEM_ISOTOPIC_ATOM_COUNT>  (1) 
0

>  <PUBCHEM_COMPONENT_COUNT>  (1) 
1

>  <PUBCHEM_CACTVS_TAUTO_COUNT>  (1) 
2

>  <PUBCHEM_CONFORMER_ID>  (1) 
000051DD00000001

>  <PUBCHEM_MMFF94_ENERGY>  (1) 
83.2526

>  <PUBCHEM_FEATURE_SELFOVERLAP>  (1) 
35.528

>  <PUBCHEM_SHAPE_FINGERPRINT>  (1) 
10670039 82 18337689537976131996
1100329 8 18123472940786496375
11045515 52 18259983790601693557
11265709 11 18410579508917295697
12107183 9 17469876689561517450
12166972 35 17821730567809654348
12403260 363 18260547789038447962
12516196 113 18341612659298072003
12788726 201 18261947445317255251
13004483 165 18409442553738512755
13257819 101 13685753654172010987
13533116 47 17531519906982284458
138480 1 15095923143320903020
14347332 77 18339081471978054126
14787075 74 18261674873554820290
14910302 57 17702959049724130982
15131766 46 15193847234371337914
15439362 3 17903915905343846005
167882 2 17901111037848140261
17349148 13 17676212359826055782
17492 89 18265893554180272674
17980427 23 17632307778756247465
17980427 26 17411048857458028197
192875 21 17676776430844809604
20286276 3 17981050717297487942
20510252 161 18267583507561418107
20600515 1 18200890542725310887
21049683 271 18117565243730875309
21304253 13 18344149198500983649
2297311 6 18343592828152434702
23352939 185 18272937153946495817
23402539 116 18409726274577171311
23557571 272 18342462504165305814
23558518 356 18047199552763547971
23559900 14 18121771988510011667
283562 15 18335701598455169091
350125 39 18411418410878337088
4409770 3 18189605048256979917
469060 322 18411146813894086128
5104073 3 18197205963676552610
5283173 99 17968647229819261389
532947 4 17980481492132940672
5486654 2 18409734001545174694
7164475 11 18337673006019430454
7364860 26 18124595551333361473
7399639 24 18060137618289507718
81228 2 18193860153676506275
9962374 69 18196369454651520267

>  <PUBCHEM_SHAPE_MULTIPOLES>  (1) 
452.52
11.56
4.03
0.92
8.86
3.76
0.07
-8.38
0.16
-2.69
0.17
-0.03
0.68
-0.51

>  <PUBCHEM_SHAPE_SELFOVERLAP>  (1) 
990.586

>  <PUBCHEM_SHAPE_VOLUME>  (1) 
242.7

>  <PUBCHEM_COORDINATE_TYPE>  (1) 
2
5
10

$$$$
