20952
     RDKit          3D

 12 11  0  0  0  0  0  0  0  0999 V2000
    2.6867   -1.8414   -0.1316 O   0  0  0  0  0  0  0  0  0  0  0  0
    1.7327   -1.0510    1.6894 O   0  0  0  0  0  0  0  0  0  0  0  0
    1.8460   -1.1599    0.4641 N   0  0  0  0  0  0  0  0  0  0  0  0
   -2.6859   -0.6361   -0.7226 C   0  0  0  0  0  0  0  0  0  0  0  0
   -1.3452   -0.5900   -1.4637 C   0  0  0  0  0  0  0  0  0  0  0  0
   -2.7137    0.2577    0.5197 C   0  0  0  0  0  0  0  0  0  0  0  0
    1.3858    0.9336   -0.7324 C   0  0  0  0  0  0  0  0  0  0  0  0
    0.9166   -0.4293   -0.3399 C   0  0  0  0  0  0  0  0  0  0  0  0
   -0.2023   -1.1050   -0.6324 C   0  0  0  0  0  0  0  0  0  0  0  0
    0.9769    2.0022    0.2854 C   0  0  0  0  0  0  0  0  0  0  0  0
   -4.0819    0.2418    1.1838 C   0  0  0  0  0  0  0  0  0  0  0  0
    1.4844    3.3776   -0.1197 C   0  0  0  0  0  0  0  0  0  0  0  0
  1  3  1  0
  2  3  2  0
  3  8  1  0
  4  5  1  0
  4  6  1  0
  5  9  1  0
  6 11  1  0
  7  8  1  0
  7 10  1  0
  8  9  2  0
 10 12  1  0
M  CHG  2   1  -1   3   1
M  END
>  <PUBCHEM_COMPOUND_CID>  (1) 
20952

>  <PUBCHEM_CONFORMER_RMSD>  (1) 
0.6

>  <PUBCHEM_CONFORMER_DIVERSEORDER>  (1) 
1
139
177
159
155
163
136
141
151
97
105
182
172
143
157
19
176
114
78
154
110
133
9
135
165
70
145
116
185
117
84
167
94
152
100
80
103
81
137
27
85
178
150
134
106
10
142
96
122
162
108
148
149
73
131
41
161
180
147
111
53
171
71
22
120
129
175
121
109
86
93
113
40
125
54
38
112
126
31
46
83
90
64
25
89
119
59
61
179
158
138
43
18
35
101
124
16
140
67
58
76
156
57
65
160
36
29
146
170
168
98
88
69
102
23
44
14
24
164
79
130
87
144
66
181
62
132
2
169
115
42
127
32
74
173
55
128
77
33
48
153
184
72
37
104
34
45
183
75
174
60
92
39
13
4
123
50
21
99
51
95
7
8
166
68
5
47
82
118
107
12
56
30
63
52
3
91
6
11
26
15
28
17
20
49

>  <PUBCHEM_MMFF94_PARTIAL_CHARGES>  (1) 
8
1 -0.52
2 -0.52
21 0.15
3 0.84
5 0.14
7 0.14
8 0.07
9 -0.29

>  <PUBCHEM_EFFECTIVE_ROTOR_COUNT>  (1) 
6

>  <PUBCHEM_PHARMACOPHORE_FEATURES>  (1) 
6
1 1 acceptor
1 1 anion
1 11 hydrophobe
1 12 hydrophobe
1 2 acceptor
4 4 5 6 9 hydrophobe

>  <PUBCHEM_HEAVY_ATOM_COUNT>  (1) 
12

>  <PUBCHEM_ATOM_DEF_STEREO_COUNT>  (1) 
0

>  <PUBCHEM_ATOM_UDEF_STEREO_COUNT>  (1) 
0

>  <PUBCHEM_BOND_DEF_STEREO_COUNT>  (1) 
0

>  <PUBCHEM_BOND_UDEF_STEREO_COUNT>  (1) 
1

>  <PUBCHEM_ISOTOPIC_ATOM_COUNT>  (1) 
0

>  <PUBCHEM_COMPONENT_COUNT>  (1) 
1

>  <PUBCHEM_CACTVS_TAUTO_COUNT>  (1) 
1

>  <PUBCHEM_CONFORMER_ID>  (1) 
000051D800000001

>  <PUBCHEM_MMFF94_ENERGY>  (1) 
10.9177

>  <PUBCHEM_FEATURE_SELFOVERLAP>  (1) 
30.526

>  <PUBCHEM_SHAPE_FINGERPRINT>  (1) 
11086676 242 18339930303006139305
12932764 1 18113336427494891959
15775835 57 18057337278005861801
17357990 137 17917441933820701725
17841504 4 18261393325858661963
20339313 130 18270695163927843494
20379382 53 18335977666009772028
20539784 86 18187373159315410649
20559304 39 18343309149767518327
20653085 51 17697620018416721596
20653091 64 18338502157671285406
20671657 1 18269560605303524684
21061003 4 18115291289932674954
21524375 3 17836079344428073932
305870 269 18194676205615155796
31174 14 18260554450316556605
4175511 71 18340775827394969669
568465 68 17531514395858475666
81228 2 17543322992138203284
88987 49 16415194633076855869

>  <PUBCHEM_SHAPE_MULTIPOLES>  (1) 
230.23
4.97
2.6
1.27
5.44
2.11
-0.17
0.58
-1.52
-3.06
-0.08
0.37
-0.32
-0.95

>  <PUBCHEM_SHAPE_SELFOVERLAP>  (1) 
426.7

>  <PUBCHEM_SHAPE_VOLUME>  (1) 
146.1

>  <PUBCHEM_COORDINATE_TYPE>  (1) 
2
5
10

$$$$
