20950
     RDKit          3D

  9  8  0  0  0  0  0  0  0  0999 V2000
   -2.1694   -0.4322    0.9500 O   0  0  0  0  0  0  0  0  0  0  0  0
   -1.6411   -1.4539   -0.9282 O   0  0  0  0  0  0  0  0  0  0  0  0
   -1.4183   -0.6664   -0.0025 N   0  0  0  0  0  0  0  0  0  0  0  0
   -0.2156    1.3188   -0.8031 C   0  0  0  0  0  0  0  0  0  0  0  0
   -0.1755    0.0386   -0.0364 C   0  0  0  0  0  0  0  0  0  0  0  0
    2.2487   -0.1026    0.6567 C   0  0  0  0  0  0  0  0  0  0  0  0
    0.8291   -0.5897    0.5875 C   0  0  0  0  0  0  0  0  0  0  0  0
   -0.5293    2.5148    0.0852 C   0  0  0  0  0  0  0  0  0  0  0  0
    3.0714   -0.6274   -0.5093 C   0  0  0  0  0  0  0  0  0  0  0  0
  1  3  1  0
  2  3  2  0
  3  5  1  0
  4  5  1  0
  4  8  1  0
  5  7  2  0
  6  7  1  0
  6  9  1  0
M  CHG  2   1  -1   3   1
M  END
>  <PUBCHEM_COMPOUND_CID>  (1) 
20950

>  <PUBCHEM_CONFORMER_RMSD>  (1) 
0.6

>  <PUBCHEM_CONFORMER_DIVERSEORDER>  (1) 
1
8
9
7
2
11
12
6
3
5
4
10

>  <PUBCHEM_MMFF94_PARTIAL_CHARGES>  (1) 
8
1 -0.52
14 0.15
2 -0.52
3 0.84
4 0.14
5 0.07
6 0.14
7 -0.29

>  <PUBCHEM_EFFECTIVE_ROTOR_COUNT>  (1) 
3

>  <PUBCHEM_PHARMACOPHORE_FEATURES>  (1) 
5
1 1 acceptor
1 1 anion
1 2 acceptor
1 8 hydrophobe
1 9 hydrophobe

>  <PUBCHEM_HEAVY_ATOM_COUNT>  (1) 
9

>  <PUBCHEM_ATOM_DEF_STEREO_COUNT>  (1) 
0

>  <PUBCHEM_ATOM_UDEF_STEREO_COUNT>  (1) 
0

>  <PUBCHEM_BOND_DEF_STEREO_COUNT>  (1) 
0

>  <PUBCHEM_BOND_UDEF_STEREO_COUNT>  (1) 
1

>  <PUBCHEM_ISOTOPIC_ATOM_COUNT>  (1) 
0

>  <PUBCHEM_COMPONENT_COUNT>  (1) 
1

>  <PUBCHEM_CACTVS_TAUTO_COUNT>  (1) 
1

>  <PUBCHEM_CONFORMER_ID>  (1) 
000051D600000001

>  <PUBCHEM_MMFF94_ENERGY>  (1) 
12.2749

>  <PUBCHEM_FEATURE_SELFOVERLAP>  (1) 
25.451

>  <PUBCHEM_SHAPE_FINGERPRINT>  (1) 
100427 49 18263360450766042636
12932764 1 18272084960153773914
16714656 1 18411420583477609118
19837323 101 18054500305840368088
20653085 51 15983109480900645752
21040471 1 17760916356123032808
23552423 10 17678735635959109978
29004967 10 18113898307510709714

>  <PUBCHEM_SHAPE_MULTIPOLES>  (1) 
168.5
3.3
1.88
0.94
2.63
1.28
-0.02
-1.02
-0.02
-1.26
-0.2
-0.05
-0.11
-0.03

>  <PUBCHEM_SHAPE_SELFOVERLAP>  (1) 
312.959

>  <PUBCHEM_SHAPE_VOLUME>  (1) 
107.4

>  <PUBCHEM_COORDINATE_TYPE>  (1) 
2
5
10

$$$$
