20954
     RDKit          3D

 12 11  0  0  1  0  0  0  0  0999 V2000
    3.0205    1.2509   -1.1239 O   0  0  0  0  0  0  0  0  0  0  0  0
    3.9498   -0.4280    0.0901 O   0  0  0  0  0  0  0  0  0  0  0  0
   -2.4294   -0.4162   -0.0510 C   0  0  0  0  0  0  0  0  0  0  0  0
   -1.2369   -0.7874   -0.9600 C   0  0  0  0  0  0  0  0  0  0  0  0
    0.0809   -0.0437   -0.6955 C   0  0  0  0  0  0  0  0  0  0  0  0
    0.7235   -0.2888    0.6842 C   0  0  0  0  0  0  0  0  0  0  0  0
   -2.6855    1.1035   -0.0350 C   0  0  0  0  0  0  0  0  0  0  0  0
    1.9369    0.6284    0.9144 C   0  0  0  0  0  0  0  0  0  0  0  0
   -3.6661   -1.1956   -0.5162 C   0  0  0  0  0  0  0  0  0  0  0  0
    1.0851   -1.7606    0.9012 C   0  0  0  0  0  0  0  0  0  0  0  0
   -3.8530    1.5219    0.8489 C   0  0  0  0  0  0  0  0  0  0  0  0
    3.0744    0.4154   -0.0572 C   0  0  0  0  0  0  0  0  0  0  0  0
  1 12  1  0
  2 12  2  0
  3  4  1  0
  3  7  1  0
  3  9  1  0
  4  5  1  0
  5  6  1  0
  6  8  1  0
  6 10  1  0
  7 11  1  0
  8 12  1  0
M  END
>  <PUBCHEM_COMPOUND_CID>  (1) 
20954

>  <PUBCHEM_CONFORMER_RMSD>  (1) 
0.6

>  <PUBCHEM_CONFORMER_DIVERSEORDER>  (1) 
1
365
33
360
359
225
323
32
361
356
155
83
71
344
72
29
352
177
308
369
271
252
157
345
219
137
353
288
185
135
363
174
243
310
366
208
28
357
293
368
304
20
331
255
216
311
55
128
9
159
351
130
321
236
170
348
74
190
367
349
140
264
315
256
109
43
333
209
27
343
248
136
80
312
191
12
178
314
339
251
85
282
303
330
291
16
302
316
2
301
144
194
52
60
336
227
141
226
186
50
317
364
246
182
56
263
297
4
342
276
281
289
206
120
77
173
44
67
153
335
36
247
370
49
327
112
133
350
111
58
309
51
147
332
3
296
70
306
290
101
244
121
267
146
324
143
129
277
233
193
346
201
257
266
46
39
319
215
320
37
241
92
240
313
34
6
341
126
223
64
337
131
5
228
326
14
103
334
253
268
183
180
272
95
338
54
234
108
21
205
262
66
328
17
35
299
8
235
105
273
298
196
340
114
26
237
104
22
11
127
41
307
283
269
89
261
300
217
213
98
91
110
254
210
23
358
53
123
75
322
265
96
165
318
279
132
187
354
175
42
106
204
347
286
57
222
59
86
214
142
229
212
258
181
88
15
65
224
176
218
250
238
152
184
275
280
242
325
40
362
76
203
117
292
198
211
295
13
79
239
93
200
124
156
188
260
179
202
145
172
232
31
69
149
62
100
134
138
119
139
278
45
63
118
7
150
97
355
122
161
84
189
164
230
38
116
166
221
168
73
274
163
199
68
154
231
197
162
249
30
107
94
25
294
192
18
61
305
207
171
287
151
19
158
270
148
167
259
48
87
245
90
329
99
125
115
102
195
169
220
160
10
285
81
24
78
47
82
284
113

>  <PUBCHEM_MMFF94_PARTIAL_CHARGES>  (1) 
5
1 -0.65
12 0.66
2 -0.57
32 0.5
8 0.06

>  <PUBCHEM_EFFECTIVE_ROTOR_COUNT>  (1) 
6

>  <PUBCHEM_PHARMACOPHORE_FEATURES>  (1) 
8
1 1 acceptor
1 10 hydrophobe
1 11 hydrophobe
1 2 acceptor
1 9 hydrophobe
3 1 2 12 anion
3 3 4 7 hydrophobe
3 5 6 8 hydrophobe

>  <PUBCHEM_HEAVY_ATOM_COUNT>  (1) 
12

>  <PUBCHEM_ATOM_DEF_STEREO_COUNT>  (1) 
0

>  <PUBCHEM_ATOM_UDEF_STEREO_COUNT>  (1) 
2

>  <PUBCHEM_BOND_DEF_STEREO_COUNT>  (1) 
0

>  <PUBCHEM_BOND_UDEF_STEREO_COUNT>  (1) 
0

>  <PUBCHEM_ISOTOPIC_ATOM_COUNT>  (1) 
0

>  <PUBCHEM_COMPONENT_COUNT>  (1) 
1

>  <PUBCHEM_CACTVS_TAUTO_COUNT>  (1) 
1

>  <PUBCHEM_CONFORMER_ID>  (1) 
000051DA00000001

>  <PUBCHEM_MMFF94_ENERGY>  (1) 
12.6801

>  <PUBCHEM_FEATURE_SELFOVERLAP>  (1) 
41.116

>  <PUBCHEM_SHAPE_FINGERPRINT>  (1) 
10219947 1 17095237038279580662
10857977 72 13840263697415766413
11062470 55 8935009186837502262
11132069 177 16878501349193566924
12186901 62 17917438643954861437
12346645 44 18335698355749299794
12932764 1 17346306133447383895
13380535 21 18341616967033991499
14325111 11 18410008857839514816
15775835 57 18341051826699932073
17834072 14 12035735370277334263
17834072 8 17916873404847084078
18186145 218 18187364333384353908
190213 19 18335695070104495686
19422 9 18410011052462444582
1986462 14 17988924483266688373
201361 129 18335985263854371819
20233049 118 17774718671462477560
20645477 70 16226866892426123419
20653085 51 18059297668129436689
20711983 171 18342179968178828493
21061003 4 15647059261255909813
23598294 1 18201429282138209635
3248919 1 18187915196936041171
6430166 295 18059856112688642017
8030462 33 18270098185280715255

>  <PUBCHEM_SHAPE_MULTIPOLES>  (1) 
235.22
7.18
1.54
1.07
0.31
0.04
-0.02
-1.69
-0.1
0.9
0.21
-0.25
-0.01
-0.99

>  <PUBCHEM_SHAPE_SELFOVERLAP>  (1) 
432.648

>  <PUBCHEM_SHAPE_VOLUME>  (1) 
149.4

>  <PUBCHEM_COORDINATE_TYPE>  (1) 
2
5
10

$$$$
