20956
     RDKit          3D

 19 20  0  0  0  0  0  0  0  0999 V2000
   -2.7580   -2.1377    0.0108 O   0  0  0  0  0  0  0  0  0  0  0  0
   -1.6766   -0.0910    0.0452 N   0  0  0  0  0  0  0  0  0  0  0  0
   -6.5455    1.0776   -0.0248 N   0  0  0  0  0  0  0  0  0  0  0  0
   -0.4508   -0.6671    0.0430 N   0  0  0  0  0  0  0  0  0  0  0  0
    4.3443    0.3814   -0.0089 C   0  0  0  0  0  0  0  0  0  0  0  0
   -4.1037   -0.2148    0.0098 C   0  0  0  0  0  0  0  0  0  0  0  0
    4.7926   -0.8623    0.4053 C   0  0  0  0  0  0  0  0  0  0  0  0
    5.2266    1.3600   -0.4371 C   0  0  0  0  0  0  0  0  0  0  0  0
    2.8994    0.6696    0.0064 C   0  0  0  0  0  0  0  0  0  0  0  0
    6.1606   -1.1349    0.3909 C   0  0  0  0  0  0  0  0  0  0  0  0
    6.5945    1.0874   -0.4516 C   0  0  0  0  0  0  0  0  0  0  0  0
    7.0615   -0.1601   -0.0375 C   0  0  0  0  0  0  0  0  0  0  0  0
   -5.1852   -0.8498   -0.5528 C   0  0  0  0  0  0  0  0  0  0  0  0
   -4.1990    1.0432    0.5557 C   0  0  0  0  0  0  0  0  0  0  0  0
   -2.7903   -0.9097    0.0282 C   0  0  0  0  0  0  0  0  0  0  0  0
    1.9360   -0.2610    0.0223 C   0  0  0  0  0  0  0  0  0  0  0  0
   -6.3868   -0.1599   -0.5453 C   0  0  0  0  0  0  0  0  0  0  0  0
   -5.4447    1.6484    0.5134 C   0  0  0  0  0  0  0  0  0  0  0  0
    0.5251    0.1807    0.0269 C   0  0  0  0  0  0  0  0  0  0  0  0
  1 15  2  0
  2  4  1  0
  2 15  1  0
  3 17  2  0
  3 18  1  0
  4 19  2  0
  5  7  2  0
  5  8  1  0
  5  9  1  0
  6 13  2  0
  6 14  1  0
  6 15  1  0
  7 10  1  0
  8 11  2  0
  9 16  2  0
 10 12  2  0
 11 12  1  0
 13 17  1  0
 14 18  2  0
 16 19  1  0
M  END
>  <PUBCHEM_COMPOUND_CID>  (1) 
20956

>  <PUBCHEM_CONFORMER_RMSD>  (1) 
0.6

>  <PUBCHEM_CONFORMER_DIVERSEORDER>  (1) 
1
4
5
3
2

>  <PUBCHEM_MMFF94_PARTIAL_CHARGES>  (1) 
32
1 -0.57
10 -0.15
11 -0.15
12 -0.15
13 -0.15
14 -0.15
15 0.54
16 -0.14
17 0.16
18 0.16
19 0.38
2 -0.37
20 0.15
21 0.15
22 0.15
23 0.15
24 0.15
25 0.15
26 0.15
27 0.15
28 0.15
29 0.15
3 -0.62
30 0.15
31 0.37
32 0.06
4 -0.51
5 0.03
6 0.09
7 -0.15
8 -0.15
9 -0.18

>  <PUBCHEM_EFFECTIVE_ROTOR_COUNT>  (1) 
5

>  <PUBCHEM_PHARMACOPHORE_FEATURES>  (1) 
6
1 1 acceptor
1 2 donor
1 3 acceptor
1 4 acceptor
6 3 6 13 14 17 18 rings
6 5 7 8 10 11 12 rings

>  <PUBCHEM_HEAVY_ATOM_COUNT>  (1) 
19

>  <PUBCHEM_ATOM_DEF_STEREO_COUNT>  (1) 
0

>  <PUBCHEM_ATOM_UDEF_STEREO_COUNT>  (1) 
0

>  <PUBCHEM_BOND_DEF_STEREO_COUNT>  (1) 
0

>  <PUBCHEM_BOND_UDEF_STEREO_COUNT>  (1) 
2

>  <PUBCHEM_ISOTOPIC_ATOM_COUNT>  (1) 
0

>  <PUBCHEM_COMPONENT_COUNT>  (1) 
1

>  <PUBCHEM_CACTVS_TAUTO_COUNT>  (1) 
2

>  <PUBCHEM_CONFORMER_ID>  (1) 
000051DC00000001

>  <PUBCHEM_MMFF94_ENERGY>  (1) 
51.281

>  <PUBCHEM_FEATURE_SELFOVERLAP>  (1) 
30.453

>  <PUBCHEM_SHAPE_FINGERPRINT>  (1) 
10299344 5 18407760331044246634
10730089 173 18343584027975506553
10835480 77 18262798605210099088
11089746 13 18343862229569809745
11315181 36 18334577971276680449
11524674 6 16702300174299814599
11719270 70 17632296744743048222
12091667 2 18344147008004046923
12166972 35 18342457083927842345
12236239 1 18335420175001923114
12516196 113 17275103938086433616
12616971 3 14418139564587997762
13167372 99 18409450254625579864
13533116 47 17168416070391608858
13668630 136 14692572134667338613
1420 363 14634588268174521476
14251752 14 18343018878413117944
14251764 18 18410292518764675103
14251764 46 18410572885639823366
14933364 13 18334296474313657748
15183329 4 18413109446317688248
15348495 7 15647348488342997924
15419008 47 15985099695693810488
19489759 90 17775286058417457985
195137 175 18410020953000755132
20281389 69 18334011691980306412
20621476 8 18261110742986110878
21150785 3 15769773572188738688
21315763 28 18411698798431587423
220451 1 17167579406340974642
22224240 67 15285359535442675569
23081809 10 18408882962438818118
23198884 109 18410573994289992601
23402539 116 18273491278227257685
23536379 177 18410011035562039914
23559900 14 18200866400524483217
29717793 49 18272656740775928414
300161 21 18411698811886299018
3004659 81 18409730652055635530
397830 11 15503239918843536596
4073 2 17967819409554656978
542803 24 18187081763006366272
59755656 215 18272657809890807182
59755656 520 18186796998359656659
6327066 14 18120651332874957845
6328613 192 18335706078422725548
8209 1 18410855464423129117

>  <PUBCHEM_SHAPE_MULTIPOLES>  (1) 
370.2
22.4
1.47
0.7
5.33
0.05
0
-3.58
1.19
-0.61
-0.06
-0.08
-0.04
-1.14

>  <PUBCHEM_SHAPE_SELFOVERLAP>  (1) 
787.34

>  <PUBCHEM_SHAPE_VOLUME>  (1) 
204

>  <PUBCHEM_COORDINATE_TYPE>  (1) 
2
5
10

$$$$
