20962
     RDKit          3D

 13 13  0  0  0  0  0  0  0  0999 V2000
   -0.6412    0.2968    0.4824 N   0  0  0  0  0  0  0  0  0  0  0  0
   -1.5009   -2.6180   -1.1449 N   0  0  0  0  0  0  0  0  0  0  0  0
   -3.8862    1.4570    0.3922 N   0  0  0  0  0  0  0  0  0  0  0  0
    0.6990    0.0510   -0.0465 C   0  0  0  0  0  0  0  0  0  0  0  0
    1.3475    1.3771   -0.4587 C   0  0  0  0  0  0  0  0  0  0  0  0
    1.5474   -0.6766    1.0022 C   0  0  0  0  0  0  0  0  0  0  0  0
    2.7805    1.1682   -0.9457 C   0  0  0  0  0  0  0  0  0  0  0  0
    2.9798   -0.8834    0.5129 C   0  0  0  0  0  0  0  0  0  0  0  0
    3.6257    0.4332    0.0906 C   0  0  0  0  0  0  0  0  0  0  0  0
   -1.2732   -0.9608    0.8803 C   0  0  0  0  0  0  0  0  0  0  0  0
   -1.4635    0.9901   -0.5092 C   0  0  0  0  0  0  0  0  0  0  0  0
   -1.3994   -1.8843   -0.2516 C   0  0  0  0  0  0  0  0  0  0  0  0
   -2.8154    1.2497   -0.0041 C   0  0  0  0  0  0  0  0  0  0  0  0
  1  4  1  0
  1 10  1  0
  1 11  1  0
  2 12  3  0
  3 13  3  0
  4  5  1  0
  4  6  1  0
  5  7  1  0
  6  8  1  0
  7  9  1  0
  8  9  1  0
 10 12  1  0
 11 13  1  0
M  END
>  <PUBCHEM_COMPOUND_CID>  (1) 
20962

>  <PUBCHEM_CONFORMER_RMSD>  (1) 
0.6

>  <PUBCHEM_CONFORMER_DIVERSEORDER>  (1) 
1
11
2
10
8
12
7
13
4
6
9
3
5

>  <PUBCHEM_MMFF94_PARTIAL_CHARGES>  (1) 
8
1 -0.81
10 0.47
11 0.47
12 0.36
13 0.36
2 -0.56
3 -0.56
4 0.27

>  <PUBCHEM_EFFECTIVE_ROTOR_COUNT>  (1) 
4.2

>  <PUBCHEM_PHARMACOPHORE_FEATURES>  (1) 
4
1 1 cation
1 2 acceptor
1 3 acceptor
6 4 5 6 7 8 9 rings

>  <PUBCHEM_HEAVY_ATOM_COUNT>  (1) 
13

>  <PUBCHEM_ATOM_DEF_STEREO_COUNT>  (1) 
0

>  <PUBCHEM_ATOM_UDEF_STEREO_COUNT>  (1) 
0

>  <PUBCHEM_BOND_DEF_STEREO_COUNT>  (1) 
0

>  <PUBCHEM_BOND_UDEF_STEREO_COUNT>  (1) 
0

>  <PUBCHEM_ISOTOPIC_ATOM_COUNT>  (1) 
0

>  <PUBCHEM_COMPONENT_COUNT>  (1) 
1

>  <PUBCHEM_CACTVS_TAUTO_COUNT>  (1) 
1

>  <PUBCHEM_CONFORMER_ID>  (1) 
000051E200000001

>  <PUBCHEM_MMFF94_ENERGY>  (1) 
21.3744

>  <PUBCHEM_FEATURE_SELFOVERLAP>  (1) 
20.297

>  <PUBCHEM_SHAPE_FINGERPRINT>  (1) 
1 1 18123468280910166199
10465860 228 17766851520085271593
12138202 97 18201722855409850815
12202030 40 16844470364960671078
12500047 106 18273207604126954122
12932764 1 18197791083681183184
13380535 21 18114475516845159360
13380535 76 18408325458266557739
14325111 11 18187930538754596089
14897335 6 18334855026109817664
15279307 12 18408321081700274810
15279308 51 18334564720959973214
15669948 3 18339644545994292902
15775835 57 18260274048686193564
15852999 172 17703794682376036342
15906896 17 18336831982745809395
16945 1 17823133419591542953
18186145 218 18198627635751937509
18511873 20 18334856074292672192
20525323 117 18262234559585895000
20711985 344 18126838520256955951
20871998 184 18340214080391321023
21501502 16 18261953063187212268
21524375 3 18335701586007993385
22112679 90 18043503128073050634
22344851 262 17967818266534043596
23402539 116 18201709609741623109
23552423 10 18041277785284158626
23557571 272 17987799756102390376
23559900 14 18131628981524908408
23598291 2 18259700086468157006
3248919 1 17531803696719026416
3250762 1 17699547441131273361
53812653 217 18267313199410246503
69090 78 18409163294806443885
74978 22 18343584074813951904
7832392 63 18335421283457153684
8030462 33 18043249244018944654
81228 2 18121766490455663019
81539 233 18193274084045902077
9939556 21 18336263526443432220

>  <PUBCHEM_SHAPE_MULTIPOLES>  (1) 
252.59
5.6
2.11
0.98
0.41
0.93
0.07
-2.05
-0.29
-1.38
0.6
0.01
0.28
-0.93

>  <PUBCHEM_SHAPE_SELFOVERLAP>  (1) 
496.902

>  <PUBCHEM_SHAPE_VOLUME>  (1) 
146.1

>  <PUBCHEM_COORDINATE_TYPE>  (1) 
2
5
10

$$$$
