20960
     RDKit          3D

 14 14  0  0  1  0  0  0  0  0999 V2000
    0.6394   -0.7462    0.6891 O   0  0  0  0  0  0  0  0  0  0  0  0
    1.9481   -1.3793   -1.1063 O   0  0  0  0  0  0  0  0  0  0  0  0
    0.2934    0.4689    0.0154 C   0  0  0  0  0  0  0  0  0  0  0  0
    1.5884    1.2455   -0.2274 C   0  0  0  0  0  0  0  0  0  0  0  0
   -0.4038    0.1298   -1.3087 C   0  0  0  0  0  0  0  0  0  0  0  0
   -0.6492    1.2681    0.9325 C   0  0  0  0  0  0  0  0  0  0  0  0
   -1.7029   -0.6550   -1.0884 C   0  0  0  0  0  0  0  0  0  0  0  0
   -2.5453   -0.1239    0.0429 C   0  0  0  0  0  0  0  0  0  0  0  0
   -2.0621    0.7541    0.9384 C   0  0  0  0  0  0  0  0  0  0  0  0
    1.2937    2.5711   -0.9237 C   0  0  0  0  0  0  0  0  0  0  0  0
    2.3256    1.4796    1.0882 C   0  0  0  0  0  0  0  0  0  0  0  0
   -3.9536   -0.6358    0.1148 C   0  0  0  0  0  0  0  0  0  0  0  0
    1.4774   -1.5769    0.0057 C   0  0  0  0  0  0  0  0  0  0  0  0
    1.7509   -2.7999    0.8275 C   0  0  0  0  0  0  0  0  0  0  0  0
  1  3  1  0
  1 13  1  0
  2 13  2  0
  3  4  1  0
  3  5  1  0
  3  6  1  0
  4 10  1  0
  4 11  1  0
  5  7  1  0
  6  9  1  0
  7  8  1  0
  8  9  2  0
  8 12  1  0
 13 14  1  0
M  END
>  <PUBCHEM_COMPOUND_CID>  (1) 
20960

>  <PUBCHEM_CONFORMER_RMSD>  (1) 
0.6

>  <PUBCHEM_CONFORMER_DIVERSEORDER>  (1) 
1
2
3

>  <PUBCHEM_MMFF94_PARTIAL_CHARGES>  (1) 
11
1 -0.43
12 0.14
13 0.66
14 0.06
2 -0.57
22 0.15
3 0.28
6 0.14
7 0.14
8 -0.28
9 -0.29

>  <PUBCHEM_EFFECTIVE_ROTOR_COUNT>  (1) 
3.8

>  <PUBCHEM_PHARMACOPHORE_FEATURES>  (1) 
3
1 2 acceptor
3 4 10 11 hydrophobe
6 3 5 6 7 8 9 rings

>  <PUBCHEM_HEAVY_ATOM_COUNT>  (1) 
14

>  <PUBCHEM_ATOM_DEF_STEREO_COUNT>  (1) 
0

>  <PUBCHEM_ATOM_UDEF_STEREO_COUNT>  (1) 
1

>  <PUBCHEM_BOND_DEF_STEREO_COUNT>  (1) 
0

>  <PUBCHEM_BOND_UDEF_STEREO_COUNT>  (1) 
0

>  <PUBCHEM_ISOTOPIC_ATOM_COUNT>  (1) 
0

>  <PUBCHEM_COMPONENT_COUNT>  (1) 
1

>  <PUBCHEM_CACTVS_TAUTO_COUNT>  (1) 
1

>  <PUBCHEM_CONFORMER_ID>  (1) 
000051E000000001

>  <PUBCHEM_MMFF94_ENERGY>  (1) 
32.0749

>  <PUBCHEM_FEATURE_SELFOVERLAP>  (1) 
15.223

>  <PUBCHEM_SHAPE_FINGERPRINT>  (1) 
1 1 18264201585793183660
12202030 40 17168728361278698171
12326174 3 17894905248149431568
12423570 1 15147503913912645296
13024252 1 16160206607621182698
14817 1 15362425323113832516
15490181 8 18122350348088419436
15775835 57 17774161347863492233
16945 1 18334849571522333957
19786989 88 17896875654770022589
20361792 2 18193551168986183775
20511035 2 18129097823367918825
20559304 39 17917996070427294187
20645476 183 17760651768646838236
20645477 70 18342175575266275703
20653091 64 18341339902619233931
21061003 4 18193543481168790738
23552423 10 18411426111274540401
2748010 2 18193258720315044036
276578 36 18129670832071008673
305870 269 18341322392211959824
3250762 1 17902769896210121732
5084963 1 18271540787090742140
528862 383 18413384358521118839
598444 67 15823551407315727391
7364860 26 18060703887803813620
81228 2 17474943229945316344
81539 233 18336262465380905293

>  <PUBCHEM_SHAPE_MULTIPOLES>  (1) 
276.37
4.16
2.51
1.25
3.96
0.82
-0.12
0.48
0.48
-2.5
0.18
-0.14
-0.13
-0.34

>  <PUBCHEM_SHAPE_SELFOVERLAP>  (1) 
555.208

>  <PUBCHEM_SHAPE_VOLUME>  (1) 
161

>  <PUBCHEM_COORDINATE_TYPE>  (1) 
2
5
10

$$$$
