20966
     RDKit          3D

 27 29  0  0  1  0  0  0  0  0999 V2000
   -5.0869    0.8833   -0.3573 O   0  0  0  0  0  0  0  0  0  0  0  0
   -1.1346    0.9862   -1.7424 O   0  0  0  0  0  0  0  0  0  0  0  0
   -3.4551    2.0672   -1.3880 O   0  0  0  0  0  0  0  0  0  0  0  0
    1.0260   -0.4525   -1.9722 O   0  0  0  0  0  0  0  0  0  0  0  0
    2.8626   -3.5970    0.2138 O   0  0  0  0  0  0  0  0  0  0  0  0
    4.8801   -2.9729   -0.5931 O   0  0  0  0  0  0  0  0  0  0  0  0
    1.8121   -1.2041    0.0757 N   0  0  0  0  0  0  0  0  0  0  0  0
   -4.5477   -0.7900    1.3188 C   0  0  0  0  0  0  0  0  0  0  0  0
   -5.4928   -0.3894    0.1955 C   0  0  0  0  0  0  0  0  0  0  0  0
   -3.1575   -0.8117    0.7594 C   0  0  0  0  0  0  0  0  0  0  0  0
   -2.8054    0.1048   -0.2390 C   0  0  0  0  0  0  0  0  0  0  0  0
   -1.5067    0.1169   -0.7582 C   0  0  0  0  0  0  0  0  0  0  0  0
   -0.5594   -0.7875   -0.2774 C   0  0  0  0  0  0  0  0  0  0  0  0
   -2.1960   -1.7039    1.2462 C   0  0  0  0  0  0  0  0  0  0  0  0
    3.2102   -1.2498   -0.2879 C   0  0  0  0  0  0  0  0  0  0  0  0
   -3.7941    1.0979   -0.7219 C   0  0  0  0  0  0  0  0  0  0  0  0
   -6.9210   -0.2381    0.6994 C   0  0  0  0  0  0  0  0  0  0  0  0
   -0.9023   -1.6944    0.7246 C   0  0  0  0  0  0  0  0  0  0  0  0
    4.0494   -0.3498    0.6284 C   0  0  0  0  0  0  0  0  0  0  0  0
    0.7998   -0.8034   -0.8020 C   0  0  0  0  0  0  0  0  0  0  0  0
    3.6034    1.0924    0.6068 C   0  0  0  0  0  0  0  0  0  0  0  0
    3.7421   -2.6748   -0.2456 C   0  0  0  0  0  0  0  0  0  0  0  0
    4.1626    1.9626   -0.3156 C   0  0  0  0  0  0  0  0  0  0  0  0
    2.6433    1.5201    1.5099 C   0  0  0  0  0  0  0  0  0  0  0  0
    3.7509    3.2952   -0.3354 C   0  0  0  0  0  0  0  0  0  0  0  0
    2.2316    2.8527    1.4902 C   0  0  0  0  0  0  0  0  0  0  0  0
    2.7854    3.7401    0.5675 C   0  0  0  0  0  0  0  0  0  0  0  0
  1  9  1  0
  1 16  1  0
  2 12  1  0
  3 16  2  0
  4 20  2  0
  5 22  1  0
  6 22  2  0
  7 15  1  0
  7 20  1  0
  8  9  1  0
  8 10  1  0
  9 17  1  0
 10 11  2  0
 10 14  1  0
 11 12  1  0
 11 16  1  0
 12 13  2  0
 13 18  1  0
 13 20  1  0
 14 18  2  0
 15 19  1  0
 15 22  1  0
 19 21  1  0
 21 23  2  0
 21 24  1  0
 23 25  1  0
 24 26  2  0
 25 27  2  0
 26 27  1  0
M  END
>  <PUBCHEM_COMPOUND_CID>  (1) 
20966

>  <PUBCHEM_CONFORMER_RMSD>  (1) 
0.8

>  <PUBCHEM_CONFORMER_DIVERSEORDER>  (1) 
1
15
71
51
26
14
3
19
47
73
18
24
46
42
68
25
70
17
45
67
32
16
58
61
7
54
52
35
75
49
65
56
59
28
41
63
29
43
64
74
72
48
69
12
10
9
53
13
76
4
50
11
66
37
39
20
8
2
38
62
5
6
36
34
60
30
44
40
77
23
21
55
31
22
27
57
33

>  <PUBCHEM_MMFF94_PARTIAL_CHARGES>  (1) 
36
1 -0.43
10 -0.14
11 0.09
12 0.08
13 0.09
14 -0.15
15 0.36
16 0.63
18 -0.15
19 0.14
2 -0.53
20 0.54
21 -0.14
22 0.66
23 -0.15
24 -0.15
25 -0.15
26 -0.15
27 -0.15
3 -0.57
31 0.15
38 0.15
39 0.37
4 -0.57
40 0.15
41 0.15
42 0.45
43 0.15
44 0.15
45 0.15
46 0.5
5 -0.65
6 -0.57
7 -0.73
8 0.14
9 0.28

>  <PUBCHEM_EFFECTIVE_ROTOR_COUNT>  (1) 
6.6

>  <PUBCHEM_PHARMACOPHORE_FEATURES>  (1) 
10
1 2 donor
1 3 acceptor
1 4 acceptor
1 5 acceptor
1 6 acceptor
1 7 donor
3 5 6 22 anion
6 1 8 9 10 11 16 rings
6 10 11 12 13 14 18 rings
6 21 23 24 25 26 27 rings

>  <PUBCHEM_HEAVY_ATOM_COUNT>  (1) 
27

>  <PUBCHEM_ATOM_DEF_STEREO_COUNT>  (1) 
2

>  <PUBCHEM_ATOM_UDEF_STEREO_COUNT>  (1) 
0

>  <PUBCHEM_BOND_DEF_STEREO_COUNT>  (1) 
0

>  <PUBCHEM_BOND_UDEF_STEREO_COUNT>  (1) 
0

>  <PUBCHEM_ISOTOPIC_ATOM_COUNT>  (1) 
0

>  <PUBCHEM_COMPONENT_COUNT>  (1) 
1

>  <PUBCHEM_CACTVS_TAUTO_COUNT>  (1) 
30

>  <PUBCHEM_CONFORMER_ID>  (1) 
000051E600000001

>  <PUBCHEM_MMFF94_ENERGY>  (1) 
78.1762

>  <PUBCHEM_FEATURE_SELFOVERLAP>  (1) 
50.835

>  <PUBCHEM_SHAPE_FINGERPRINT>  (1) 
10165383 225 18262527017400968260
1100329 8 17908426844390077289
11045977 3 18334293124455191509
11578080 2 18267039421294421275
11595378 159 16660911253710927093
12166972 35 17917711258150530386
12403259 226 18190175681099531719
12403259 415 18114179697226248021
12616971 3 17560794412497743623
12633257 1 18115851044810009472
12788726 201 17689713065888826474
13533116 47 18413392042444263491
13583140 156 18411984680140273999
13878862 14 18339342124747247893
14251764 38 18412827958704658153
151778 21 18266175218124656992
17349148 13 16845289406317844823
17844677 252 18341336587373908283
1813 80 17559127475729851438
18785283 64 18336541698954269640
20465049 17 18199482107222361972
21033648 29 18262224565260683961
21133410 127 17896876754045554148
21344244 78 18129650907997610002
21365058 113 18198077897629180590
21792934 111 18113625569806020169
21792961 116 18262812744654271198
21859007 373 17023728058390754429
22122407 14 17845670217533850849
23559900 14 18040446498416626295
474 4 18272089452014098536
5104073 3 18261121755630450449
5252454 2 18056193807219019192
6086070 43 18118386364020577507
7808743 9 17471574799392831020

>  <PUBCHEM_SHAPE_MULTIPOLES>  (1) 
515.45
12.54
3.76
1.36
13.99
0.32
0.11
1.4
-1.76
-7.29
-0.24
0.3
0.36
1.88

>  <PUBCHEM_SHAPE_SELFOVERLAP>  (1) 
1117.538

>  <PUBCHEM_SHAPE_VOLUME>  (1) 
279.2

>  <PUBCHEM_COORDINATE_TYPE>  (1) 
2
5
10

$$$$
