20963
     RDKit          3D

  8  7  0  0  0  0  0  0  0  0999 V2000
    3.0996    1.2308    0.5753 Br  0  0  0  0  0  0  0  0  0  0  0  0
    0.2880    0.0897   -0.2974 O   0  0  0  0  0  0  0  0  0  0  0  0
   -1.3110   -1.3693    0.5115 O   0  0  0  0  0  0  0  0  0  0  0  0
    1.3090   -0.8902   -0.0817 C   0  0  0  0  0  0  0  0  0  0  0  0
    2.6499   -0.3297   -0.5061 C   0  0  0  0  0  0  0  0  0  0  0  0
   -0.9713   -0.2930    0.0461 C   0  0  0  0  0  0  0  0  0  0  0  0
   -1.8778    0.8364   -0.2470 C   0  0  0  0  0  0  0  0  0  0  0  0
   -3.1863    0.7253   -0.0007 C   0  0  0  0  0  0  0  0  0  0  0  0
  1  5  1  0
  2  4  1  0
  2  6  1  0
  3  6  2  0
  4  5  1  0
  6  7  1  0
  7  8  2  0
M  END
>  <PUBCHEM_COMPOUND_CID>  (1) 
20963

>  <PUBCHEM_CONFORMER_RMSD>  (1) 
0.6

>  <PUBCHEM_CONFORMER_DIVERSEORDER>  (1) 
1
37
36
4
9
5
19
35
25
30
27
28
34
13
23
26
3
31
33
8
29
32
2
14
24
7
22
17
6
21
18
15
10
12
20
16
11

>  <PUBCHEM_MMFF94_PARTIAL_CHARGES>  (1) 
11
1 -0.23
13 0.15
14 0.15
15 0.15
2 -0.43
3 -0.57
4 0.28
5 0.23
6 0.71
7 -0.14
8 -0.3

>  <PUBCHEM_EFFECTIVE_ROTOR_COUNT>  (1) 
4

>  <PUBCHEM_PHARMACOPHORE_FEATURES>  (1) 
3
1 1 hydrophobe
1 3 acceptor
1 8 hydrophobe

>  <PUBCHEM_HEAVY_ATOM_COUNT>  (1) 
8

>  <PUBCHEM_ATOM_DEF_STEREO_COUNT>  (1) 
0

>  <PUBCHEM_ATOM_UDEF_STEREO_COUNT>  (1) 
0

>  <PUBCHEM_BOND_DEF_STEREO_COUNT>  (1) 
0

>  <PUBCHEM_BOND_UDEF_STEREO_COUNT>  (1) 
0

>  <PUBCHEM_ISOTOPIC_ATOM_COUNT>  (1) 
0

>  <PUBCHEM_COMPONENT_COUNT>  (1) 
1

>  <PUBCHEM_CACTVS_TAUTO_COUNT>  (1) 
1

>  <PUBCHEM_CONFORMER_ID>  (1) 
000051E300000001

>  <PUBCHEM_MMFF94_ENERGY>  (1) 
9.3252

>  <PUBCHEM_FEATURE_SELFOVERLAP>  (1) 
15.223

>  <PUBCHEM_SHAPE_FINGERPRINT>  (1) 
10857977 72 17458637708892246673
12932741 1 18271820029005842166
12932764 1 18260828159438475774
14325111 11 18336266743437168941
14390081 3 18413669110526273256
20645464 45 18409728465168234538
20653085 51 17559969722673389177
20765181 27 18335132085823257404
21040471 1 18187370878524382543
21293036 1 15697993072049804992
3248919 1 17531248400149569046
5460574 1 10447634782441889407

>  <PUBCHEM_SHAPE_MULTIPOLES>  (1) 
158.84
5.39
1.32
0.74
0.43
0.05
0.02
2.18
0.16
0.31
0.17
0.16
0
0.51

>  <PUBCHEM_SHAPE_SELFOVERLAP>  (1) 
280.046

>  <PUBCHEM_SHAPE_VOLUME>  (1) 
105.7

>  <PUBCHEM_COORDINATE_TYPE>  (1) 
2
5
10

$$$$
