20964
     RDKit          3D

 14 14  0  0  0  0  0  0  0  0999 V2000
   -1.0865   -2.7106    0.0013 Cl  0  0  0  0  0  0  0  0  0  0  0  0
   -1.0882    2.7103    0.0004 Cl  0  0  0  0  0  0  0  0  0  0  0  0
    2.0911    2.6907    0.0009 Cl  0  0  0  0  0  0  0  0  0  0  0  0
    2.0935   -2.6898    0.0000 Cl  0  0  0  0  0  0  0  0  0  0  0  0
    3.2512    0.0012   -0.0011 O   0  0  0  0  0  0  0  0  0  0  0  0
   -2.9329   -1.0982   -0.0015 O   0  0  0  0  0  0  0  0  0  0  0  0
   -2.9331    1.0970   -0.0001 O   0  0  0  0  0  0  0  0  0  0  0  0
   -2.3341   -0.0006   -0.0004 N   0  0  0  0  0  0  0  0  0  0  0  0
   -0.9050   -0.0005    0.0007 C   0  0  0  0  0  0  0  0  0  0  0  0
   -0.2072   -1.2083    0.0006 C   0  0  0  0  0  0  0  0  0  0  0  0
   -0.2080    1.2078    0.0002 C   0  0  0  0  0  0  0  0  0  0  0  0
    1.8847    0.0006   -0.0005 C   0  0  0  0  0  0  0  0  0  0  0  0
    1.1868    1.2083   -0.0006 C   0  0  0  0  0  0  0  0  0  0  0  0
    1.1877   -1.2077    0.0001 C   0  0  0  0  0  0  0  0  0  0  0  0
  1 10  1  0
  2 11  1  0
  3 13  1  0
  4 14  1  0
  5 12  1  0
  6  8  1  0
  7  8  2  0
  8  9  1  0
  9 10  2  0
  9 11  1  0
 10 14  1  0
 11 13  2  0
 12 13  1  0
 12 14  2  0
M  CHG  2   6  -1   8   1
M  END
>  <PUBCHEM_COMPOUND_CID>  (1) 
20964

>  <PUBCHEM_CONFORMER_RMSD>  (1) 
0.4

>  <PUBCHEM_CONFORMER_DIVERSEORDER>  (1) 
1

>  <PUBCHEM_MMFF94_PARTIAL_CHARGES>  (1) 
15
1 -0.18
10 0.18
11 0.18
12 0.08
13 0.18
14 0.18
15 0.45
2 -0.18
3 -0.18
4 -0.18
5 -0.53
6 -0.52
7 -0.52
8 0.91
9 0.13

>  <PUBCHEM_EFFECTIVE_ROTOR_COUNT>  (1) 
1

>  <PUBCHEM_PHARMACOPHORE_FEATURES>  (1) 
5
1 5 donor
1 6 acceptor
1 6 anion
1 7 acceptor
6 9 10 11 12 13 14 rings

>  <PUBCHEM_HEAVY_ATOM_COUNT>  (1) 
14

>  <PUBCHEM_ATOM_DEF_STEREO_COUNT>  (1) 
0

>  <PUBCHEM_ATOM_UDEF_STEREO_COUNT>  (1) 
0

>  <PUBCHEM_BOND_DEF_STEREO_COUNT>  (1) 
0

>  <PUBCHEM_BOND_UDEF_STEREO_COUNT>  (1) 
0

>  <PUBCHEM_ISOTOPIC_ATOM_COUNT>  (1) 
0

>  <PUBCHEM_COMPONENT_COUNT>  (1) 
1

>  <PUBCHEM_CACTVS_TAUTO_COUNT>  (1) 
4

>  <PUBCHEM_CONFORMER_ID>  (1) 
000051E400000001

>  <PUBCHEM_MMFF94_ENERGY>  (1) 
63.4827

>  <PUBCHEM_FEATURE_SELFOVERLAP>  (1) 
25.453

>  <PUBCHEM_SHAPE_FINGERPRINT>  (1) 
10967382 1 18410855481608337989
11471102 20 18193552277588808581
12423570 1 16836870720825122198
13140716 1 18266458896165779144
13380535 76 18121775303375158794
16945 1 18410575089158486788
17990270 104 18409728426371305498
193761 8 18410855460318052868
20588541 1 18410858763200852406
2334 1 17978510067984122624
23463225 33 18263920123864924656
23526114 1 18122626321201376964
23552423 10 18409450301505827069
23559900 14 18342749533595195876
241688 4 17906172854390081520
2748010 2 18122627425002638814
528886 8 18411412882711900401
66348 1 18410576158436564441
7364860 26 18413107260337453440

>  <PUBCHEM_SHAPE_MULTIPOLES>  (1) 
273
3.86
3.57
0.6
0.58
0
0
0
0
-0.72
0
-0.04
0
0

>  <PUBCHEM_SHAPE_SELFOVERLAP>  (1) 
548.533

>  <PUBCHEM_SHAPE_VOLUME>  (1) 
165

>  <PUBCHEM_COORDINATE_TYPE>  (1) 
2
5
10

$$$$
