20971
     RDKit          3D

 11 12  0  0  1  0  0  0  0  0999 V2000
   -1.3495   -0.0360   -0.3808 C   0  0  0  0  0  0  0  0  0  0  0  0
   -1.4643    1.4040    0.1622 C   0  0  0  0  0  0  0  0  0  0  0  0
    0.1164   -0.2997   -0.1709 C   0  0  0  0  0  0  0  0  0  0  0  0
   -0.1120    2.0784   -0.1092 C   0  0  0  0  0  0  0  0  0  0  0  0
    0.8146    0.9067   -0.0214 C   0  0  0  0  0  0  0  0  0  0  0  0
   -2.2884   -0.9961    0.3331 C   0  0  0  0  0  0  0  0  0  0  0  0
    0.7898   -1.5112   -0.1635 C   0  0  0  0  0  0  0  0  0  0  0  0
    2.1904    0.9255    0.1390 C   0  0  0  0  0  0  0  0  0  0  0  0
   -3.7439   -0.6765    0.0399 C   0  0  0  0  0  0  0  0  0  0  0  0
    2.1759   -1.5023    0.0107 C   0  0  0  0  0  0  0  0  0  0  0  0
    2.8711   -0.2928    0.1609 C   0  0  0  0  0  0  0  0  0  0  0  0
  1  2  1  0
  1  3  1  0
  1  6  1  0
  2  4  1  0
  3  5  2  0
  3  7  1  0
  4  5  1  0
  5  8  1  0
  6  9  1  0
  7 10  2  0
  8 11  2  0
 10 11  1  0
M  END
>  <PUBCHEM_COMPOUND_CID>  (1) 
20971

>  <PUBCHEM_CONFORMER_RMSD>  (1) 
0.4

>  <PUBCHEM_CONFORMER_DIVERSEORDER>  (1) 
1
2
3

>  <PUBCHEM_MMFF94_PARTIAL_CHARGES>  (1) 
12
1 0.14
10 -0.15
11 -0.15
19 0.15
20 0.15
24 0.15
25 0.15
3 -0.14
4 0.14
5 -0.14
7 -0.15
8 -0.15

>  <PUBCHEM_EFFECTIVE_ROTOR_COUNT>  (1) 
1.6

>  <PUBCHEM_PHARMACOPHORE_FEATURES>  (1) 
3
1 9 hydrophobe
5 1 2 3 4 5 rings
6 3 5 7 8 10 11 rings

>  <PUBCHEM_HEAVY_ATOM_COUNT>  (1) 
11

>  <PUBCHEM_ATOM_DEF_STEREO_COUNT>  (1) 
0

>  <PUBCHEM_ATOM_UDEF_STEREO_COUNT>  (1) 
1

>  <PUBCHEM_BOND_DEF_STEREO_COUNT>  (1) 
0

>  <PUBCHEM_BOND_UDEF_STEREO_COUNT>  (1) 
0

>  <PUBCHEM_ISOTOPIC_ATOM_COUNT>  (1) 
0

>  <PUBCHEM_COMPONENT_COUNT>  (1) 
1

>  <PUBCHEM_CACTVS_TAUTO_COUNT>  (1) 
1

>  <PUBCHEM_CONFORMER_ID>  (1) 
000051EB00000001

>  <PUBCHEM_MMFF94_ENERGY>  (1) 
25.9302

>  <PUBCHEM_FEATURE_SELFOVERLAP>  (1) 
15.305

>  <PUBCHEM_SHAPE_FINGERPRINT>  (1) 
10219947 1 18340770437416793259
10857977 72 18410845560344602314
11471102 20 18410005576779906487
12032990 46 18410860953428594518
14251717 144 18339918341991880783
161256 15 18413672400613510500
16945 1 18340201994036579172
17990270 104 18339080384981595154
193761 8 17978509732697287119
19973954 147 18267585715164065116
20201158 50 18334011713766216963
20645477 70 18411414034270129231
20871998 184 18129657478764504087
20871998 22 18270690770118316335
21501502 16 18338520716251228320
23463225 33 18409449180471825012
23552423 10 18260834739533971614
23559900 14 17262439497493243078
241688 4 18264490594068782592
2748010 2 18339918212794383996
29004967 10 18408886260588443146
5084963 1 18273215279149122618
528886 8 18340482386686890538
8809292 202 18187088385698809123

>  <PUBCHEM_SHAPE_MULTIPOLES>  (1) 
226.37
4.46
1.9
0.65
2.23
0.46
0
-1.56
-0.35
-0.2
0
0.03
-0.01
0.08

>  <PUBCHEM_SHAPE_SELFOVERLAP>  (1) 
478.768

>  <PUBCHEM_SHAPE_VOLUME>  (1) 
121.7

>  <PUBCHEM_COORDINATE_TYPE>  (1) 
2
5
10

$$$$
