20973
     RDKit          3D

  9  8  0  0  0  0  0  0  0  0999 V2000
    2.6558    0.6425    0.6085 S   0  0  0  0  0  0  0  0  0  0  0  0
   -0.2347   -0.0186   -0.2586 O   0  0  0  0  0  0  0  0  0  0  0  0
   -2.0247   -1.3145    0.4169 O   0  0  0  0  0  0  0  0  0  0  0  0
    2.0728   -0.7239   -0.4410 C   0  0  0  0  0  0  0  0  0  0  0  0
    0.6511   -1.1296   -0.0852 C   0  0  0  0  0  0  0  0  0  0  0  0
    4.3254    0.7927   -0.0658 C   0  0  0  0  0  0  0  0  0  0  0  0
   -1.5413   -0.2619    0.0308 C   0  0  0  0  0  0  0  0  0  0  0  0
   -2.2927    0.9878   -0.2074 C   0  0  0  0  0  0  0  0  0  0  0  0
   -3.6117    1.0256    0.0018 C   0  0  0  0  0  0  0  0  0  0  0  0
  1  4  1  0
  1  6  1  0
  2  5  1  0
  2  7  1  0
  3  7  2  0
  4  5  1  0
  7  8  1  0
  8  9  2  0
M  END
>  <PUBCHEM_COMPOUND_CID>  (1) 
20973

>  <PUBCHEM_CONFORMER_RMSD>  (1) 
0.6

>  <PUBCHEM_CONFORMER_DIVERSEORDER>  (1) 
2
70
49
5
15
87
40
20
48
47
69
84
14
88
4
59
68
18
46
82
65
42
73
63
55
22
17
7
86
43
45
79
56
71
25
57
33
85
27
21
61
31
35
39
32
52
83
23
80
75
24
66
12
60
67
29
72
26
6
3
38
58
37
30
78
36
19
1
41
50
16
8
10
77
62
81
76
9
53
64
54
74
13
11
51
28
34
44

>  <PUBCHEM_MMFF94_PARTIAL_CHARGES>  (1) 
12
1 -0.46
17 0.15
18 0.15
19 0.15
2 -0.43
3 -0.57
4 0.23
5 0.28
6 0.23
7 0.71
8 -0.14
9 -0.3

>  <PUBCHEM_EFFECTIVE_ROTOR_COUNT>  (1) 
5

>  <PUBCHEM_PHARMACOPHORE_FEATURES>  (1) 
3
1 3 acceptor
1 6 hydrophobe
1 9 hydrophobe

>  <PUBCHEM_HEAVY_ATOM_COUNT>  (1) 
9

>  <PUBCHEM_ATOM_DEF_STEREO_COUNT>  (1) 
0

>  <PUBCHEM_ATOM_UDEF_STEREO_COUNT>  (1) 
0

>  <PUBCHEM_BOND_DEF_STEREO_COUNT>  (1) 
0

>  <PUBCHEM_BOND_UDEF_STEREO_COUNT>  (1) 
0

>  <PUBCHEM_ISOTOPIC_ATOM_COUNT>  (1) 
0

>  <PUBCHEM_COMPONENT_COUNT>  (1) 
1

>  <PUBCHEM_CACTVS_TAUTO_COUNT>  (1) 
1

>  <PUBCHEM_CONFORMER_ID>  (1) 
000051ED00000002

>  <PUBCHEM_MMFF94_ENERGY>  (1) 
13.5382

>  <PUBCHEM_FEATURE_SELFOVERLAP>  (1) 
15.223

>  <PUBCHEM_SHAPE_FINGERPRINT>  (1) 
12932764 1 16660637449629930150
14325111 11 18410855477767090306
14390081 3 18341611486412888325
15775835 57 18260264144612727032
170605 34 18410854330815669506
177051 138 8502655909228466112
20645464 45 18409451371084636943
21119208 17 15410894059119569256
21293036 1 16343696642706468549
22485316 2 9439407917318717700
23500284 214 18411143502463543129
3248919 1 17240490225122088618
6333449 129 18411134757962778255

>  <PUBCHEM_SHAPE_MULTIPOLES>  (1) 
177.33
7.02
1.33
0.7
2.57
0.14
-0.03
-3.27
-0.02
-0.26
-0.04
0.15
-0.01
0.33

>  <PUBCHEM_SHAPE_SELFOVERLAP>  (1) 
313.057

>  <PUBCHEM_SHAPE_VOLUME>  (1) 
117

>  <PUBCHEM_COORDINATE_TYPE>  (1) 
2
5
10

$$$$
