20975
     RDKit          3D

 11 12  0  0  1  0  0  0  0  0999 V2000
    2.1608    0.2091   -0.3427 N   0  0  0  0  0  0  0  0  0  0  0  0
    3.4555    0.7545   -0.0454 N   0  0  0  0  0  0  0  0  0  0  0  0
    0.6820   -1.7256   -0.0686 C   0  0  0  0  0  0  0  0  0  0  0  0
    2.0045   -1.0745    0.3521 C   0  0  0  0  0  0  0  0  0  0  0  0
   -0.4845   -0.7722   -0.0124 C   0  0  0  0  0  0  0  0  0  0  0  0
    1.1416    1.1673    0.1156 C   0  0  0  0  0  0  0  0  0  0  0  0
   -0.2644    0.6162    0.0299 C   0  0  0  0  0  0  0  0  0  0  0  0
   -1.7949   -1.2646   -0.0624 C   0  0  0  0  0  0  0  0  0  0  0  0
   -1.3605    1.4888    0.0592 C   0  0  0  0  0  0  0  0  0  0  0  0
   -2.8784   -0.3868   -0.0442 C   0  0  0  0  0  0  0  0  0  0  0  0
   -2.6617    0.9880    0.0189 C   0  0  0  0  0  0  0  0  0  0  0  0
  1  2  1  0
  1  4  1  0
  1  6  1  0
  3  4  1  0
  3  5  1  0
  5  7  2  0
  5  8  1  0
  6  7  1  0
  7  9  1  0
  8 10  2  0
  9 11  2  0
 10 11  1  0
M  END
>  <PUBCHEM_COMPOUND_CID>  (1) 
20975

>  <PUBCHEM_CONFORMER_RMSD>  (1) 
0.4

>  <PUBCHEM_CONFORMER_DIVERSEORDER>  (1) 
1
2
3

>  <PUBCHEM_MMFF94_PARTIAL_CHARGES>  (1) 
17
1 -0.54
10 -0.15
11 -0.15
18 0.15
19 0.15
2 -0.72
20 0.15
21 0.15
22 0.36
23 0.36
3 0.14
4 0.27
5 -0.14
6 0.41
7 -0.14
8 -0.15
9 -0.15

>  <PUBCHEM_EFFECTIVE_ROTOR_COUNT>  (1) 
0.8

>  <PUBCHEM_PHARMACOPHORE_FEATURES>  (1) 
3
1 2 donor
6 1 3 4 5 6 7 rings
6 5 7 8 9 10 11 rings

>  <PUBCHEM_HEAVY_ATOM_COUNT>  (1) 
11

>  <PUBCHEM_ATOM_DEF_STEREO_COUNT>  (1) 
0

>  <PUBCHEM_ATOM_UDEF_STEREO_COUNT>  (1) 
0

>  <PUBCHEM_BOND_DEF_STEREO_COUNT>  (1) 
0

>  <PUBCHEM_BOND_UDEF_STEREO_COUNT>  (1) 
0

>  <PUBCHEM_ISOTOPIC_ATOM_COUNT>  (1) 
0

>  <PUBCHEM_COMPONENT_COUNT>  (1) 
1

>  <PUBCHEM_CACTVS_TAUTO_COUNT>  (1) 
1

>  <PUBCHEM_CONFORMER_ID>  (1) 
000051EF00000001

>  <PUBCHEM_MMFF94_ENERGY>  (1) 
25.1383

>  <PUBCHEM_FEATURE_SELFOVERLAP>  (1) 
15.245

>  <PUBCHEM_SHAPE_FINGERPRINT>  (1) 
11206711 2 18410571820662150653
12524768 44 18267309729129328031
12897270 3 18411418423029808077
12932764 1 17346588677723024235
13380535 76 18409727352629604851
14325111 11 18410575067536152140
15775835 57 18411424994308834337
16945 1 18411416224148996779
17844478 74 18113913645329456049
193761 8 17762338020114665068
19973954 147 18267587905460236007
20201158 50 18410854365090985815
20871998 184 18129667537836770431
21040471 1 18411698751186966626
21501502 16 18338795611438242259
23235685 24 18409443695798717940
23402655 69 18268977723314335205
23463225 33 18334852771573662762
23552423 10 18262237703349280115
23559900 14 18272375291806710108
241688 4 16467558487338712731
2748010 2 18266742380944623431
369184 2 16950279590000270507
5084963 1 18130509737788791273
528886 8 18411132558665144739
53812653 166 18343578568692161504
63268167 104 18410857612022893353
7364860 26 18198340663480942422

>  <PUBCHEM_SHAPE_MULTIPOLES>  (1) 
216.41
4.31
1.73
0.62
1.02
0.19
-0.01
-0.69
0.07
-0.03
-0.02
0
0.02
-0.11

>  <PUBCHEM_SHAPE_SELFOVERLAP>  (1) 
456.474

>  <PUBCHEM_SHAPE_VOLUME>  (1) 
120.8

>  <PUBCHEM_COORDINATE_TYPE>  (1) 
2
5
10

$$$$
