20983
     RDKit          3D

 15 15  0  0  0  0  0  0  0  0999 V2000
   -4.3889    0.6006   -0.2497 O   0  0  0  0  0  0  0  0  0  0  0  0
    0.9931   -0.3437    0.7189 N   0  0  0  0  0  0  0  0  0  0  0  0
    3.0921   -0.8491    0.0522 N   0  0  0  0  0  0  0  0  0  0  0  0
    1.4083   -0.7536   -1.6121 N   0  0  0  0  0  0  0  0  0  0  0  0
    5.2239    0.0394    0.3777 N   0  0  0  0  0  0  0  0  0  0  0  0
    3.5720    1.4884   -0.2452 N   0  0  0  0  0  0  0  0  0  0  0  0
   -0.3697   -0.1049    0.4751 C   0  0  0  0  0  0  0  0  0  0  0  0
   -3.0690    0.3688   -0.0117 C   0  0  0  0  0  0  0  0  0  0  0  0
   -1.2740   -1.1620    0.5095 C   0  0  0  0  0  0  0  0  0  0  0  0
   -0.8057    1.1877    0.1991 C   0  0  0  0  0  0  0  0  0  0  0  0
   -2.6266   -0.9248    0.2653 C   0  0  0  0  0  0  0  0  0  0  0  0
   -2.1584    1.4251   -0.0450 C   0  0  0  0  0  0  0  0  0  0  0  0
    1.7717   -0.6308   -0.2873 C   0  0  0  0  0  0  0  0  0  0  0  0
   -5.2649   -0.5245   -0.1999 C   0  0  0  0  0  0  0  0  0  0  0  0
    3.8961    0.1833    0.0531 C   0  0  0  0  0  0  0  0  0  0  0  0
  1  8  1  0
  1 14  1  0
  2  7  1  0
  2 13  2  0
  3 13  1  0
  3 15  2  0
  4 13  1  0
  5 15  1  0
  6 15  1  0
  7  9  2  0
  7 10  1  0
  8 11  2  0
  8 12  1  0
  9 11  1  0
 10 12  2  0
M  END
>  <PUBCHEM_COMPOUND_CID>  (1) 
20983

>  <PUBCHEM_CONFORMER_RMSD>  (1) 
0.6

>  <PUBCHEM_CONFORMER_DIVERSEORDER>  (1) 
1
2
4
3

>  <PUBCHEM_MMFF94_PARTIAL_CHARGES>  (1) 
25
1 -0.36
10 -0.15
11 -0.15
12 -0.15
13 0.71
14 0.28
15 0.55
16 0.15
17 0.15
18 0.15
19 0.15
2 -0.63
23 0.4
24 0.4
25 0.4
26 0.4
27 0.4
28 0.4
3 -0.66
4 -0.85
5 -0.85
6 -0.85
7 0.18
8 0.08
9 -0.15

>  <PUBCHEM_EFFECTIVE_ROTOR_COUNT>  (1) 
3

>  <PUBCHEM_PHARMACOPHORE_FEATURES>  (1) 
7
1 1 acceptor
1 4 donor
1 5 donor
1 6 donor
4 2 3 4 13 cation
4 3 5 6 15 cation
6 7 8 9 10 11 12 rings

>  <PUBCHEM_HEAVY_ATOM_COUNT>  (1) 
15

>  <PUBCHEM_ATOM_DEF_STEREO_COUNT>  (1) 
0

>  <PUBCHEM_ATOM_UDEF_STEREO_COUNT>  (1) 
0

>  <PUBCHEM_BOND_DEF_STEREO_COUNT>  (1) 
0

>  <PUBCHEM_BOND_UDEF_STEREO_COUNT>  (1) 
0

>  <PUBCHEM_ISOTOPIC_ATOM_COUNT>  (1) 
0

>  <PUBCHEM_COMPONENT_COUNT>  (1) 
1

>  <PUBCHEM_CACTVS_TAUTO_COUNT>  (1) 
5

>  <PUBCHEM_CONFORMER_ID>  (1) 
000051F700000001

>  <PUBCHEM_MMFF94_ENERGY>  (1) 
58.857

>  <PUBCHEM_FEATURE_SELFOVERLAP>  (1) 
35.621

>  <PUBCHEM_SHAPE_FINGERPRINT>  (1) 
11401426 45 18113897161176298135
12236239 1 17312819372725090626
13533116 47 17531516595250977122
14123238 8 18343582945416634663
14911166 2 18335413578728618015
15375358 24 18413674608205783439
17802600 8 18334572439026922540
17834072 33 17988639748631449973
17834076 25 17967814955335641998
200 152 17561362868082176019
20201158 50 18202286883299862291
20279233 1 18341903986470700367
20344682 1 17989204837024930261
20528008 55 18409166623210887032
20645477 70 18059579023311787046
23402539 116 18409722967720911151
23557571 272 18343025449708033356
23559900 14 18410292485091128890
351380 180 18408882936679485784
3545911 37 18409167710402037394
4463277 17 18410293606409662105
474 4 17313674866213530668
57426455 114 12179849419775588525
58051976 378 18202003213689835182
69090 78 18409165510904229475
7364860 26 18190458256042161490
9709674 26 18338805519764893894

>  <PUBCHEM_SHAPE_MULTIPOLES>  (1) 
277.92
9.67
1.28
0.82
1.8
0.28
-0.19
0.41
-0.35
-0.19
-0.01
0.21
-0.14
0.12

>  <PUBCHEM_SHAPE_SELFOVERLAP>  (1) 
575.1

>  <PUBCHEM_SHAPE_VOLUME>  (1) 
156

>  <PUBCHEM_COORDINATE_TYPE>  (1) 
2
5
10

$$$$
