20986
     RDKit          3D

 10 11  0  0  1  0  0  0  0  0999 V2000
   -0.5761   -2.3197   -0.1584 O   0  0  0  0  0  0  0  0  0  0  0  0
   -0.1783   -0.3953    1.2443 C   0  0  0  0  0  0  0  0  0  0  0  0
    0.0545   -0.2714   -1.2781 C   0  0  0  0  0  0  0  0  0  0  0  0
    1.2706    0.0994    1.3915 C   0  0  0  0  0  0  0  0  0  0  0  0
    1.5140    0.1760   -1.1471 C   0  0  0  0  0  0  0  0  0  0  0  0
    1.7965    0.8875    0.1852 C   0  0  0  0  0  0  0  0  0  0  0  0
   -0.2674   -1.1355   -0.0733 C   0  0  0  0  0  0  0  0  0  0  0  0
   -1.2341    0.7264    1.2229 C   0  0  0  0  0  0  0  0  0  0  0  0
   -0.9014    0.8909   -1.2563 C   0  0  0  0  0  0  0  0  0  0  0  0
   -1.4783    1.3417   -0.1308 C   0  0  0  0  0  0  0  0  0  0  0  0
  1  7  2  0
  2  4  1  0
  2  7  1  0
  2  8  1  0
  3  5  1  0
  3  7  1  0
  3  9  1  0
  4  6  1  0
  5  6  1  0
  8 10  1  0
  9 10  2  0
M  END
>  <PUBCHEM_COMPOUND_CID>  (1) 
20986

>  <PUBCHEM_CONFORMER_RMSD>  (1) 
0.4

>  <PUBCHEM_CONFORMER_DIVERSEORDER>  (1) 
1
2

>  <PUBCHEM_MMFF94_PARTIAL_CHARGES>  (1) 
9
1 -0.57
10 -0.29
2 0.06
21 0.15
22 0.15
3 0.2
7 0.45
8 0.14
9 -0.29

>  <PUBCHEM_EFFECTIVE_ROTOR_COUNT>  (1) 
0.8

>  <PUBCHEM_PHARMACOPHORE_FEATURES>  (1) 
3
1 1 acceptor
6 2 3 4 5 6 7 rings
6 2 3 7 8 9 10 rings

>  <PUBCHEM_HEAVY_ATOM_COUNT>  (1) 
10

>  <PUBCHEM_ATOM_DEF_STEREO_COUNT>  (1) 
0

>  <PUBCHEM_ATOM_UDEF_STEREO_COUNT>  (1) 
2

>  <PUBCHEM_BOND_DEF_STEREO_COUNT>  (1) 
0

>  <PUBCHEM_BOND_UDEF_STEREO_COUNT>  (1) 
0

>  <PUBCHEM_ISOTOPIC_ATOM_COUNT>  (1) 
0

>  <PUBCHEM_COMPONENT_COUNT>  (1) 
1

>  <PUBCHEM_CACTVS_TAUTO_COUNT>  (1) 
1

>  <PUBCHEM_CONFORMER_ID>  (1) 
000051FA00000001

>  <PUBCHEM_MMFF94_ENERGY>  (1) 
13.5161

>  <PUBCHEM_FEATURE_SELFOVERLAP>  (1) 
16.647

>  <PUBCHEM_SHAPE_FINGERPRINT>  (1) 
10702982 57 13288860325546545487
12423570 1 16746006826423398091
13024252 1 13216585913164883549
137420 1 9048279526100776703
16945 1 12345793280959141741
18185500 45 15722526565115673336
29004967 10 9411540240655785041
68250623 7 12987923765348978021

>  <PUBCHEM_SHAPE_MULTIPOLES>  (1) 
199.93
1.85
1.6
1.55
0.16
0.05
-0.87
0.17
0.85
0.02
0.12
-0.14
-0.24
-0.12

>  <PUBCHEM_SHAPE_SELFOVERLAP>  (1) 
419.724

>  <PUBCHEM_SHAPE_VOLUME>  (1) 
111.3

>  <PUBCHEM_COORDINATE_TYPE>  (1) 
2
5
10

$$$$
