20984
     RDKit          3D

 11 10  0  0  0  0  0  0  0  0999 V2000
    2.3159   -1.3503    1.0110 O   0  0  0  0  0  0  0  0  0  0  0  0
   -2.9542   -0.2578    0.9362 O   0  0  0  0  0  0  0  0  0  0  0  0
    3.1819   -0.1057   -0.6721 O   0  0  0  0  0  0  0  0  0  0  0  0
   -2.3741   -1.3804   -0.9498 O   0  0  0  0  0  0  0  0  0  0  0  0
   -0.0060    0.8003    0.0168 C   0  0  0  0  0  0  0  0  0  0  0  0
    0.7580   -0.4346   -0.5305 C   0  0  0  0  0  0  0  0  0  0  0  0
   -1.4438    0.8216   -0.5734 C   0  0  0  0  0  0  0  0  0  0  0  0
    0.6792    2.1069   -0.4374 C   0  0  0  0  0  0  0  0  0  0  0  0
   -0.0747    0.7795    1.5547 C   0  0  0  0  0  0  0  0  0  0  0  0
    2.2100   -0.5936   -0.1154 C   0  0  0  0  0  0  0  0  0  0  0  0
   -2.2922   -0.3859   -0.2401 C   0  0  0  0  0  0  0  0  0  0  0  0
  1 10  1  0
  2 11  1  0
  3 10  2  0
  4 11  2  0
  5  6  1  0
  5  7  1  0
  5  8  1  0
  5  9  1  0
  6 10  1  0
  7 11  1  0
M  END
>  <PUBCHEM_COMPOUND_CID>  (1) 
20984

>  <PUBCHEM_CONFORMER_RMSD>  (1) 
0.6

>  <PUBCHEM_CONFORMER_DIVERSEORDER>  (1) 
2
11
14
12
5
9
15
6
10
7
3
16
13
4
8
1

>  <PUBCHEM_MMFF94_PARTIAL_CHARGES>  (1) 
10
1 -0.65
10 0.66
11 0.66
2 -0.65
22 0.5
23 0.5
3 -0.57
4 -0.57
6 0.06
7 0.06

>  <PUBCHEM_EFFECTIVE_ROTOR_COUNT>  (1) 
4

>  <PUBCHEM_PHARMACOPHORE_FEATURES>  (1) 
7
1 1 acceptor
1 2 acceptor
1 3 acceptor
1 4 acceptor
3 1 3 10 anion
3 2 4 11 anion
3 5 8 9 hydrophobe

>  <PUBCHEM_HEAVY_ATOM_COUNT>  (1) 
11

>  <PUBCHEM_ATOM_DEF_STEREO_COUNT>  (1) 
0

>  <PUBCHEM_ATOM_UDEF_STEREO_COUNT>  (1) 
0

>  <PUBCHEM_BOND_DEF_STEREO_COUNT>  (1) 
0

>  <PUBCHEM_BOND_UDEF_STEREO_COUNT>  (1) 
0

>  <PUBCHEM_ISOTOPIC_ATOM_COUNT>  (1) 
0

>  <PUBCHEM_COMPONENT_COUNT>  (1) 
1

>  <PUBCHEM_CACTVS_TAUTO_COUNT>  (1) 
1

>  <PUBCHEM_CONFORMER_ID>  (1) 
000051F800000002

>  <PUBCHEM_MMFF94_ENERGY>  (1) 
20.8558

>  <PUBCHEM_FEATURE_SELFOVERLAP>  (1) 
35.641

>  <PUBCHEM_SHAPE_FINGERPRINT>  (1) 
10857977 72 17489294283281089690
12897270 3 17748828509796582638
12932764 1 18409446972932559404
14128692 85 18271247226117849564
14390081 3 11314305048943710663
15310529 11 17822014181252835967
16945 1 18187361094604615548
20653085 51 13046233723107172198
20653091 64 18127687338690211667
20711983 138 17131276753037014662
21061003 4 17345453930526424218
23552423 10 18264766743454708301
29004967 10 18334577936226040520
369184 2 17750240201132889132
5084963 1 18199738305910126151
528862 383 18197766915710492780

>  <PUBCHEM_SHAPE_MULTIPOLES>  (1) 
202.9
4.09
1.56
1.15
0.12
0.52
0.39
-1.87
-0.19
0.19
-0.16
-0.09
0.03
-0.38

>  <PUBCHEM_SHAPE_SELFOVERLAP>  (1) 
388.287

>  <PUBCHEM_SHAPE_VOLUME>  (1) 
124.3

>  <PUBCHEM_COORDINATE_TYPE>  (1) 
2
5
10

$$$$
