20989
     RDKit          3D

 22 23  0  0  0  0  0  0  0  0999 V2000
   -0.1971   -2.9979    0.8768 Cl  0  0  0  0  0  0  0  0  0  0  0  0
   -1.9313    0.4559   -0.2259 O   0  0  0  0  0  0  0  0  0  0  0  0
   -1.8686   -1.5308   -1.3871 O   0  0  0  0  0  0  0  0  0  0  0  0
   -5.9919    0.7668    0.7411 N   0  0  0  0  0  0  0  0  0  0  0  0
    4.2272   -0.4883    0.3368 N   0  0  0  0  0  0  0  0  0  0  0  0
   -3.3314    0.5608   -0.4503 C   0  0  0  0  0  0  0  0  0  0  0  0
   -4.0485   -0.6437    0.1531 C   0  0  0  0  0  0  0  0  0  0  0  0
   -3.8409    1.8508    0.1845 C   0  0  0  0  0  0  0  0  0  0  0  0
   -5.5661   -0.4778    0.0850 C   0  0  0  0  0  0  0  0  0  0  0  0
   -5.3649    1.9403    0.1159 C   0  0  0  0  0  0  0  0  0  0  0  0
   -7.4492    0.8884    0.7110 C   0  0  0  0  0  0  0  0  0  0  0  0
   -1.3223   -0.6430   -0.7508 C   0  0  0  0  0  0  0  0  0  0  0  0
    0.1309   -0.6348   -0.4470 C   0  0  0  0  0  0  0  0  0  0  0  0
    6.4981    0.3863    0.3792 C   0  0  0  0  0  0  0  0  0  0  0  0
    5.0664    0.5788   -0.1136 C   0  0  0  0  0  0  0  0  0  0  0  0
    2.8429   -0.5381    0.0717 C   0  0  0  0  0  0  0  0  0  0  0  0
    0.7113   -1.6566    0.2784 C   0  0  0  0  0  0  0  0  0  0  0  0
    0.8671    0.4348   -0.9214 C   0  0  0  0  0  0  0  0  0  0  0  0
    7.4251    1.5301   -0.0397 C   0  0  0  0  0  0  0  0  0  0  0  0
    2.0806   -1.6080    0.5407 C   0  0  0  0  0  0  0  0  0  0  0  0
    2.2360    0.4833   -0.6593 C   0  0  0  0  0  0  0  0  0  0  0  0
    8.8264    1.3428    0.5210 C   0  0  0  0  0  0  0  0  0  0  0  0
  1 17  1  0
  2  6  1  0
  2 12  1  0
  3 12  2  0
  4  9  1  0
  4 10  1  0
  4 11  1  0
  5 15  1  0
  5 16  1  0
  6  7  1  0
  6  8  1  0
  7  9  1  0
  8 10  1  0
 12 13  1  0
 13 17  2  0
 13 18  1  0
 14 15  1  0
 14 19  1  0
 16 20  2  0
 16 21  1  0
 17 20  1  0
 18 21  2  0
 19 22  1  0
M  END
>  <PUBCHEM_COMPOUND_CID>  (1) 
20989

>  <PUBCHEM_CONFORMER_RMSD>  (1) 
0.8

>  <PUBCHEM_CONFORMER_DIVERSEORDER>  (1) 
1
349
188
31
97
269
335
128
364
323
400
56
243
29
186
228
245
280
14
183
253
167
177
327
101
336
242
9
155
196
391
166
51
105
395
331
121
381
123
279
53
398
350
82
246
281
77
226
324
375
192
275
129
198
328
109
8
161
202
352
295
389
83
217
140
124
153
74
210
255
133
387
98
6
354
40
219
182
260
168
117
358
258
216
134
401
135
247
11
372
80
272
236
137
264
208
93
172
376
244
146
152
164
237
191
273
44
103
72
70
30
313
187
224
378
28
132
32
68
293
143
55
157
257
403
297
254
79
63
218
346
91
341
344
294
377
206
88
361
69
81
99
139
348
241
67
315
24
205
407
90
306
89
4
298
267
181
52
170
16
111
317
286
106
308
33
66
363
290
141
62
359
21
314
142
345
289
355
190
85
108
73
61
374
104
351
225
319
265
110
262
370
207
15
12
270
360
200
266
250
238
353
169
222
43
366
17
288
263
321
277
211
300
230
58
189
35
223
239
385
284
232
34
214
57
148
405
179
159
71
64
309
18
371
54
339
149
367
151
120
330
397
316
301
305
252
404
369
36
41
136
46
158
368
325
307
2
209
283
144
337
7
384
180
173
94
312
126
100
212
326
402
116
386
27
379
292
406
39
334
276
156
78
382
229
127
184
213
162
50
47
310
234
154
195
399
299
59
131
259
329
332
160
261
365
235
163
194
347
95
125
112
268
20
75
390
19
42
393
171
342
113
197
76
311
357
150
26
114
215
38
130
338
285
107
174
45
231
282
25
5
49
278
303
340
13
296
84
48
147
383
356
304
322
388
320
176
333
199
233
92
343
193
274
221
204
220
287
119
37
185
96
227
248
291
10
22
87
145
394
122
201
3
392
23
118
302
271
178
256
249
203
86
251
65
318
115
362
102
60
240
138
380
396
373
175
165

>  <PUBCHEM_MMFF94_PARTIAL_CHARGES>  (1) 
21
1 -0.18
10 0.27
11 0.27
12 0.63
13 0.09
15 0.37
16 0.1
17 0.18
18 -0.15
2 -0.43
20 -0.15
21 -0.15
3 -0.57
39 0.15
4 -0.81
42 0.4
43 0.15
44 0.15
5 -0.87
6 0.28
9 0.27

>  <PUBCHEM_EFFECTIVE_ROTOR_COUNT>  (1) 
8.2

>  <PUBCHEM_PHARMACOPHORE_FEATURES>  (1) 
7
1 22 hydrophobe
1 3 acceptor
1 4 cation
1 5 cation
1 5 donor
6 13 16 17 18 20 21 rings
6 4 6 7 8 9 10 rings

>  <PUBCHEM_HEAVY_ATOM_COUNT>  (1) 
22

>  <PUBCHEM_ATOM_DEF_STEREO_COUNT>  (1) 
0

>  <PUBCHEM_ATOM_UDEF_STEREO_COUNT>  (1) 
0

>  <PUBCHEM_BOND_DEF_STEREO_COUNT>  (1) 
0

>  <PUBCHEM_BOND_UDEF_STEREO_COUNT>  (1) 
0

>  <PUBCHEM_ISOTOPIC_ATOM_COUNT>  (1) 
0

>  <PUBCHEM_COMPONENT_COUNT>  (1) 
1

>  <PUBCHEM_CACTVS_TAUTO_COUNT>  (1) 
2

>  <PUBCHEM_CONFORMER_ID>  (1) 
000051FD00000001

>  <PUBCHEM_MMFF94_ENERGY>  (1) 
52.7897

>  <PUBCHEM_FEATURE_SELFOVERLAP>  (1) 
35.521

>  <PUBCHEM_SHAPE_FINGERPRINT>  (1) 
10 15 18186519899553323792
10493431 412 18333730217156485646
106641 1 17894633672950979929
10670039 82 16128662920321592784
11524674 6 14562530695458917984
11724838 91 18335422378937344063
12236239 1 18342174445098903031
12596602 18 18041277664888340681
12741549 16 15864067681050102389
13540713 5 17098353179367271478
13631057 29 18341045333327098015
13668630 136 9583516516777870808
13726171 33 17773044055583282473
13964095 4 10952054438040759361
14251752 14 12391519650244415771
14251764 18 18187362147462414276
14341114 176 18262806159962373915
14849402 71 18262802990155937412
14933364 13 18343866615258913572
15048467 5 18343581850527099744
15183329 4 11887675061123851757
15188451 53 11602537624556358788
15690457 1 12107787428118677528
15706992 2 18201451293175734216
15716309 27 14345796063187799456
15778101 99 18342455976226589174
16992610 120 18188505644409308630
18006028 8 12107505940061606710
19784866 240 9223227464166535435
20281389 69 18411416203191430296
20621476 66 18411138065462097060
20735858 18 17749111088426848969
21033648 29 17916007136415080256
21637258 2 11963392955266861826
21756936 100 18412539946312683478
21792961 116 14189581853175257006
221357 26 11743834725855276819
22224240 67 18040154023949529635
23559900 14 9078529496658537239
25147074 1 17314799709811639302
2838139 119 17917703630616036636
2916195 48 18343298184747822616
293599 30 18413386536486139422
3009799 131 13973963208269575362
5104073 3 17823412687192648481
5385378 56 18187641380804203242
54039377 194 9655567535716844757
559249 180 8430598315354048961
5758199 1 18407761434692521426
59682541 35 18333737944350914137
59682541 52 17203340966589828020
59755656 520 18261387875603861122
636775 72 18269829973897102064

>  <PUBCHEM_SHAPE_MULTIPOLES>  (1) 
432.92
20.79
2.16
0.9
20.97
1.02
0.1
-15.67
-5.79
-0.44
-0.46
-0.24
0.14
-0.42

>  <PUBCHEM_SHAPE_SELFOVERLAP>  (1) 
876.847

>  <PUBCHEM_SHAPE_VOLUME>  (1) 
252

>  <PUBCHEM_COORDINATE_TYPE>  (1) 
2
5
10

$$$$
