20981
     RDKit          3D

 24 24  0  0  0  0  0  0  0  0999 V2000
   -2.7506    1.7867    1.5957 O   0  0  0  0  0  0  0  0  0  0  0  0
   -3.0031   -0.0631    0.1863 N   0  0  0  0  0  0  0  0  0  0  0  0
    3.3921    0.6569    0.7582 N   0  0  0  0  0  0  0  0  0  0  0  0
    3.3480   -1.2766   -0.6682 N   0  0  0  0  0  0  0  0  0  0  0  0
    5.3512   -0.2576    0.0822 N   0  0  0  0  0  0  0  0  0  0  0  0
    5.3779    1.1914   -1.8368 N   0  0  0  0  0  0  0  0  0  0  0  0
    7.3342    0.5168   -0.8706 N   0  0  0  0  0  0  0  0  0  0  0  0
   -2.3918   -1.1213   -0.6302 C   0  0  0  0  0  0  0  0  0  0  0  0
   -4.4392   -0.0358    0.2235 C   0  0  0  0  0  0  0  0  0  0  0  0
   -2.1357   -2.3963    0.1665 C   0  0  0  0  0  0  0  0  0  0  0  0
   -5.0335    0.8306   -0.8818 C   0  0  0  0  0  0  0  0  0  0  0  0
   -1.4740   -3.4913   -0.6731 C   0  0  0  0  0  0  0  0  0  0  0  0
   -6.5620    0.8846   -0.8290 C   0  0  0  0  0  0  0  0  0  0  0  0
   -2.2607    0.8922    0.9072 C   0  0  0  0  0  0  0  0  0  0  0  0
   -0.7910    0.8313    0.8685 C   0  0  0  0  0  0  0  0  0  0  0  0
   -1.1763   -4.7273    0.1616 C   0  0  0  0  0  0  0  0  0  0  0  0
   -7.1226    1.8024   -1.9041 C   0  0  0  0  0  0  0  0  0  0  0  0
   -0.0896    1.5278   -0.1158 C   0  0  0  0  0  0  0  0  0  0  0  0
   -0.0990    0.0769    1.8160 C   0  0  0  0  0  0  0  0  0  0  0  0
    1.3034    1.4698   -0.1526 C   0  0  0  0  0  0  0  0  0  0  0  0
    1.2940    0.0189    1.7793 C   0  0  0  0  0  0  0  0  0  0  0  0
    1.9953    0.7153    0.7949 C   0  0  0  0  0  0  0  0  0  0  0  0
    3.9710   -0.2819    0.0562 C   0  0  0  0  0  0  0  0  0  0  0  0
    5.9620    0.4497   -0.8337 C   0  0  0  0  0  0  0  0  0  0  0  0
  1 14  2  0
  2  8  1  0
  2  9  1  0
  2 14  1  0
  3 22  1  0
  3 23  2  0
  4 23  1  0
  5 23  1  0
  5 24  2  0
  6 24  1  0
  7 24  1  0
  8 10  1  0
  9 11  1  0
 10 12  1  0
 11 13  1  0
 12 16  1  0
 13 17  1  0
 14 15  1  0
 15 18  2  0
 15 19  1  0
 18 20  1  0
 19 21  2  0
 20 22  2  0
 21 22  1  0
M  END
>  <PUBCHEM_COMPOUND_CID>  (1) 
20981

>  <PUBCHEM_CONFORMER_RMSD>  (1) 
1

>  <PUBCHEM_CONFORMER_DIVERSEORDER>  (1) 
1
37
25
41
35
7
47
31
44
45
53
63
10
54
51
22
42
49
38
30
39
52
17
61
46
11
5
55
36
50
60
13
15
33
40
43
27
59
34
62
58
29
16
32
8
12
48
3
26
57
23
28
19
20
2
14
24
18
56
21
4
9
6

>  <PUBCHEM_MMFF94_PARTIAL_CHARGES>  (1) 
28
1 -0.57
14 0.54
15 0.09
18 -0.15
19 -0.15
2 -0.66
20 -0.15
21 -0.15
22 0.18
23 0.71
24 0.55
3 -0.63
4 -0.85
43 0.15
44 0.15
45 0.15
46 0.15
47 0.4
48 0.4
49 0.4
5 -0.66
50 0.4
51 0.4
52 0.4
6 -0.85
7 -0.85
8 0.3
9 0.3

>  <PUBCHEM_EFFECTIVE_ROTOR_COUNT>  (1) 
10

>  <PUBCHEM_PHARMACOPHORE_FEATURES>  (1) 
9
1 1 acceptor
1 16 hydrophobe
1 17 hydrophobe
1 4 donor
1 6 donor
1 7 donor
4 3 4 5 23 cation
4 5 6 7 24 cation
6 15 18 19 20 21 22 rings

>  <PUBCHEM_HEAVY_ATOM_COUNT>  (1) 
24

>  <PUBCHEM_ATOM_DEF_STEREO_COUNT>  (1) 
0

>  <PUBCHEM_ATOM_UDEF_STEREO_COUNT>  (1) 
0

>  <PUBCHEM_BOND_DEF_STEREO_COUNT>  (1) 
0

>  <PUBCHEM_BOND_UDEF_STEREO_COUNT>  (1) 
0

>  <PUBCHEM_ISOTOPIC_ATOM_COUNT>  (1) 
0

>  <PUBCHEM_COMPONENT_COUNT>  (1) 
1

>  <PUBCHEM_CACTVS_TAUTO_COUNT>  (1) 
8

>  <PUBCHEM_CONFORMER_ID>  (1) 
000051F500000001

>  <PUBCHEM_MMFF94_ENERGY>  (1) 
60.4873

>  <PUBCHEM_FEATURE_SELFOVERLAP>  (1) 
45.771

>  <PUBCHEM_SHAPE_FINGERPRINT>  (1) 
10 15 8286192864323654276
10366900 7 17418096511847340930
106641 1 12757440428095958469
107951 10 18409447003330503991
11135609 187 18339358561750424785
11595378 159 9439136303544532612
12011746 2 17989485216795451909
12788726 201 18059576836829938104
12892183 10 9294747379986545400
12895836 83 18187641427425850887
12916748 109 8646775512583527864
13257819 101 17241313669991360287
13540713 4 17913760888875627523
13668630 136 16128649756653330301
14251757 5 18338519754078548054
14617045 38 18130517387289530334
14931854 50 18059858320249013479
15048467 5 15719390603893713101
15183329 4 18341608184026558661
15880784 105 14907897206417189058
19958102 18 18342466893975440182
20511986 3 18260544567744384692
20721686 146 17241316959915256077
21150785 3 18260267447759348461
21307412 95 18059585693200552830
2215653 11 17846777403513543477
22849339 104 18270414900174478878
23559900 14 17987793145915925568
249057 3 18411418440495046596
266924 87 18125715691763419889
340366 18 18261113023492679429
3633792 109 18272364248918654593
4015057 19 16845285103050551009
4058900 60 18189896427459871507
465052 167 14908174282978545664
58260988 521 18264225745971245963
59755656 215 17632290143267070069

>  <PUBCHEM_SHAPE_MULTIPOLES>  (1) 
458.15
15.42
3.21
1.54
5.65
6.24
-0.13
-8.98
10.54
-3.21
0.5
-0.14
-0.64
0.36

>  <PUBCHEM_SHAPE_SELFOVERLAP>  (1) 
919.911

>  <PUBCHEM_SHAPE_VOLUME>  (1) 
266.7

>  <PUBCHEM_COORDINATE_TYPE>  (1) 
2
5
10

$$$$
