20992
     RDKit          3D

 20 21  0  0  0  0  0  0  0  0999 V2000
   -4.7676    1.7057   -1.0630 O   0  0  0  0  0  0  0  0  0  0  0  0
   -3.5946   -1.9941    1.4128 O   0  0  0  0  0  0  0  0  0  0  0  0
    3.0197   -0.4965   -2.2597 O   0  0  0  0  0  0  0  0  0  0  0  0
    5.1480    0.1734    1.7672 O   0  0  0  0  0  0  0  0  0  0  0  0
   -3.8274    0.0866    0.3506 N   0  0  0  0  0  0  0  0  0  0  0  0
    3.9573    0.2784   -0.2535 N   0  0  0  0  0  0  0  0  0  0  0  0
   -0.2458    1.3677    0.7402 C   0  0  0  0  0  0  0  0  0  0  0  0
    1.0301    1.1535   -0.0779 C   0  0  0  0  0  0  0  0  0  0  0  0
   -1.4290    0.6114    0.1266 C   0  0  0  0  0  0  0  0  0  0  0  0
    2.2480    1.8942    0.4866 C   0  0  0  0  0  0  0  0  0  0  0  0
   -2.7217    0.8137    0.9110 C   0  0  0  0  0  0  0  0  0  0  0  0
    3.5518    1.6566   -0.2699 C   0  0  0  0  0  0  0  0  0  0  0  0
   -4.7215    0.5942   -0.5638 C   0  0  0  0  0  0  0  0  0  0  0  0
   -4.1449   -1.2178    0.6505 C   0  0  0  0  0  0  0  0  0  0  0  0
    3.6585   -0.6427   -1.2315 C   0  0  0  0  0  0  0  0  0  0  0  0
    4.7007   -0.3122    0.7421 C   0  0  0  0  0  0  0  0  0  0  0  0
   -5.6771   -0.4836   -0.8627 C   0  0  0  0  0  0  0  0  0  0  0  0
   -5.3363   -1.5545   -0.1448 C   0  0  0  0  0  0  0  0  0  0  0  0
    4.2679   -1.9148   -0.8138 C   0  0  0  0  0  0  0  0  0  0  0  0
    4.8839   -1.7194    0.3528 C   0  0  0  0  0  0  0  0  0  0  0  0
  1 13  2  0
  2 14  2  0
  3 15  2  0
  4 16  2  0
  5 11  1  0
  5 13  1  0
  5 14  1  0
  6 12  1  0
  6 15  1  0
  6 16  1  0
  7  8  1  0
  7  9  1  0
  8 10  1  0
  9 11  1  0
 10 12  1  0
 13 17  1  0
 14 18  1  0
 15 19  1  0
 16 20  1  0
 17 18  2  0
 19 20  2  0
M  END
>  <PUBCHEM_COMPOUND_CID>  (1) 
20992

>  <PUBCHEM_CONFORMER_RMSD>  (1) 
0.8

>  <PUBCHEM_CONFORMER_DIVERSEORDER>  (1) 
1
41
4
37
47
44
54
10
21
40
62
52
9
53
30
8
23
43
32
57
2
17
59
31
46
3
64
18
61
55
6
60
15
42
49
63
29
25
16
68
24
58
7
39
36
56
38
51
33
50
22
13
19
48
45
35
11
66
27
14
65
28
26
20
67
5
34
12

>  <PUBCHEM_MMFF94_PARTIAL_CHARGES>  (1) 
20
1 -0.57
11 0.3
12 0.3
13 0.62
14 0.62
15 0.62
16 0.62
17 -0.14
18 -0.14
19 -0.14
2 -0.57
20 -0.14
3 -0.57
33 0.15
34 0.15
35 0.15
36 0.15
4 -0.57
5 -0.42
6 -0.42

>  <PUBCHEM_EFFECTIVE_ROTOR_COUNT>  (1) 
7.4

>  <PUBCHEM_PHARMACOPHORE_FEATURES>  (1) 
7
1 1 acceptor
1 2 acceptor
1 3 acceptor
1 4 acceptor
4 7 8 9 10 hydrophobe
5 5 13 14 17 18 rings
5 6 15 16 19 20 rings

>  <PUBCHEM_HEAVY_ATOM_COUNT>  (1) 
20

>  <PUBCHEM_ATOM_DEF_STEREO_COUNT>  (1) 
0

>  <PUBCHEM_ATOM_UDEF_STEREO_COUNT>  (1) 
0

>  <PUBCHEM_BOND_DEF_STEREO_COUNT>  (1) 
0

>  <PUBCHEM_BOND_UDEF_STEREO_COUNT>  (1) 
0

>  <PUBCHEM_ISOTOPIC_ATOM_COUNT>  (1) 
0

>  <PUBCHEM_COMPONENT_COUNT>  (1) 
1

>  <PUBCHEM_CACTVS_TAUTO_COUNT>  (1) 
1

>  <PUBCHEM_CONFORMER_ID>  (1) 
0000520000000001

>  <PUBCHEM_MMFF94_ENERGY>  (1) 
11.509

>  <PUBCHEM_FEATURE_SELFOVERLAP>  (1) 
35.523

>  <PUBCHEM_SHAPE_FINGERPRINT>  (1) 
10378564 45 13334726913151124834
10447042 23 18412542102992381820
10670039 82 13046212841271740870
11595378 159 13973695991909203867
11796584 16 18187362116875306746
12596602 18 14908181971128007663
1420 369 17988931062850721508
14251740 57 17203621354433449422
14251751 18 18334010583973208942
14251764 75 11310612936549358090
14341114 328 14405178474200728922
14528608 73 11819278879503289193
146900 427 15625932197062850680
14848160 23 18272084980905696358
14848178 5 18343303647582180770
14910302 57 18114172056215814301
15183329 4 17967529052205425193
15210252 30 8862648106791361334
15239154 128 10737284670933484977
17349148 13 17417821655299162725
17844677 252 18187087273603056989
17857418 61 17917989503506688135
17870717 6 18186241745266626387
19377110 9 14764344972663535749
20403669 9 18342463638094706927
20645477 70 18343587364848551908
21315764 119 17458901540185607463
21623969 137 17917709115077699158
22061861 79 18407755941524295493
22224240 67 17988350560515948968
22289505 5 12396293747555543048
23559900 14 18335701675812228488
23572383 38 18341892987112261335
3004659 81 18113901559317806712
32948 21 17749106669006143989
5104073 3 17560526096979003472
633830 44 14996288049579880649
7808743 9 9582930464553625226
8988823 20 17131823283573108824
960060 61 17458351835974396652

>  <PUBCHEM_SHAPE_MULTIPOLES>  (1) 
378.15
15.82
2.08
1.36
6.56
0.2
-0.19
5.9
-0.6
-0.56
0.1
-0.69
0.26
1.19

>  <PUBCHEM_SHAPE_SELFOVERLAP>  (1) 
790.621

>  <PUBCHEM_SHAPE_VOLUME>  (1) 
214.8

>  <PUBCHEM_COORDINATE_TYPE>  (1) 
2
5
10

$$$$
