20991
     RDKit          3D

 22 25  0  0  1  0  0  0  0  0999 V2000
   -1.4364    0.1092   -0.3307 N   0  0  0  0  0  0  0  0  0  0  0  0
   -4.1834    0.8294    0.2114 N   0  0  0  0  0  0  0  0  0  0  0  0
   -0.3810   -0.4622   -1.1648 C   0  0  0  0  0  0  0  0  0  0  0  0
   -2.0724    1.2491   -1.0025 C   0  0  0  0  0  0  0  0  0  0  0  0
   -2.4380   -0.9077    0.0125 C   0  0  0  0  0  0  0  0  0  0  0  0
    0.6271    0.5982   -1.6375 C   0  0  0  0  0  0  0  0  0  0  0  0
    0.3161   -1.6441   -0.5278 C   0  0  0  0  0  0  0  0  0  0  0  0
   -3.1823    1.8471   -0.1311 C   0  0  0  0  0  0  0  0  0  0  0  0
   -3.5469   -0.3091    0.8848 C   0  0  0  0  0  0  0  0  0  0  0  0
    1.5426    1.3150   -0.6641 C   0  0  0  0  0  0  0  0  0  0  0  0
    1.0668   -1.5103    0.6541 C   0  0  0  0  0  0  0  0  0  0  0  0
    1.1361   -0.1993    1.3948 C   0  0  0  0  0  0  0  0  0  0  0  0
    1.8087    0.9422    0.6679 C   0  0  0  0  0  0  0  0  0  0  0  0
    0.2453   -2.9008   -1.1554 C   0  0  0  0  0  0  0  0  0  0  0  0
   -5.2403    1.4004    1.0439 C   0  0  0  0  0  0  0  0  0  0  0  0
    1.7337   -2.6324    1.1754 C   0  0  0  0  0  0  0  0  0  0  0  0
    2.2252    2.4321   -1.1993 C   0  0  0  0  0  0  0  0  0  0  0  0
    2.7166    1.7196    1.4214 C   0  0  0  0  0  0  0  0  0  0  0  0
    0.9099   -4.0056   -0.6248 C   0  0  0  0  0  0  0  0  0  0  0  0
    1.6565   -3.8707    0.5395 C   0  0  0  0  0  0  0  0  0  0  0  0
    3.1256    3.1782   -0.4419 C   0  0  0  0  0  0  0  0  0  0  0  0
    3.3705    2.8219    0.8741 C   0  0  0  0  0  0  0  0  0  0  0  0
  1  3  1  0
  1  4  1  0
  1  5  1  0
  2  8  1  0
  2  9  1  0
  2 15  1  0
  3  6  1  0
  3  7  1  0
  4  8  1  0
  5  9  1  0
  6 10  1  0
  7 11  2  0
  7 14  1  0
 10 13  2  0
 10 17  1  0
 11 12  1  0
 11 16  1  0
 12 13  1  0
 13 18  1  0
 14 19  2  0
 16 20  2  0
 17 21  2  0
 18 22  2  0
 19 20  1  0
 21 22  1  0
M  END
>  <PUBCHEM_COMPOUND_CID>  (1) 
20991

>  <PUBCHEM_CONFORMER_RMSD>  (1) 
0.6

>  <PUBCHEM_CONFORMER_DIVERSEORDER>  (1) 
1
3
4
5
2

>  <PUBCHEM_MMFF94_PARTIAL_CHARGES>  (1) 
30
1 -0.81
10 -0.14
11 -0.14
12 0.29
13 -0.14
14 -0.15
15 0.27
16 -0.15
17 -0.15
18 -0.15
19 -0.15
2 -0.81
20 -0.15
21 -0.15
22 -0.15
3 0.41
36 0.15
4 0.27
40 0.15
41 0.15
42 0.15
43 0.15
44 0.15
45 0.15
46 0.15
5 0.27
6 0.14
7 -0.14
8 0.27
9 0.27

>  <PUBCHEM_EFFECTIVE_ROTOR_COUNT>  (1) 
2.8

>  <PUBCHEM_PHARMACOPHORE_FEATURES>  (1) 
6
1 1 cation
1 2 cation
6 1 2 4 5 8 9 rings
6 10 13 17 18 21 22 rings
6 7 11 14 16 19 20 rings
7 3 6 7 10 11 12 13 rings

>  <PUBCHEM_HEAVY_ATOM_COUNT>  (1) 
22

>  <PUBCHEM_ATOM_DEF_STEREO_COUNT>  (1) 
0

>  <PUBCHEM_ATOM_UDEF_STEREO_COUNT>  (1) 
1

>  <PUBCHEM_BOND_DEF_STEREO_COUNT>  (1) 
0

>  <PUBCHEM_BOND_UDEF_STEREO_COUNT>  (1) 
0

>  <PUBCHEM_ISOTOPIC_ATOM_COUNT>  (1) 
0

>  <PUBCHEM_COMPONENT_COUNT>  (1) 
1

>  <PUBCHEM_CACTVS_TAUTO_COUNT>  (1) 
1

>  <PUBCHEM_CONFORMER_ID>  (1) 
000051FF00000001

>  <PUBCHEM_MMFF94_ENERGY>  (1) 
69.9737

>  <PUBCHEM_FEATURE_SELFOVERLAP>  (1) 
30.465

>  <PUBCHEM_SHAPE_FINGERPRINT>  (1) 
11578080 2 12554024088674623327
11582403 64 15838412849037162912
12173636 292 18052247689930006244
12422481 6 17905291110927062770
12633257 1 17967801739541937961
12788726 201 17327182550948738918
13134695 92 17907005189003242647
13140716 1 18410855485903246826
133893 2 18195215906805050934
13533116 47 18265341621334235369
13681431 1 18052832346579699670
13878862 14 18193551169946831757
13955234 65 18339092484294709147
14178342 30 18189347921360030139
14223421 5 18261393317469388765
14363568 33 18267297634865159538
14955137 171 18269559343042387106
15906896 17 17832430074120436086
1601671 61 18267581308791597602
16945 1 17968363615521399934
17868525 174 17834685894382596769
1813 80 17697043534937130055
18785283 64 18409168770705130242
20600515 1 17251459782075571742
21049683 271 18119264878016740238
21120745 212 16967183790835136908
21285901 2 11034327525587344944
21524375 3 18270959184093828268
21731228 192 18264203780379183504
21756936 100 18124030397772378944
23419403 2 15728188827066387862
23557571 272 16971662097906386376
23558518 356 18196084675968733374
23559900 14 18263649455452984255
2748010 2 17115175372232951362
31174 14 18263646152343597743
3380486 145 17547534147120954398
35225 105 17908152318732924146
3610482 184 17028551839251624772
3729539 64 18194710128100167374
394222 165 18131360682753533401
427121 178 18197798784388733379
5104073 3 18265914467061404745
5895379 119 16411559419928835385
59755656 520 18268991075613329828
633830 44 18272654592396047005
6442390 28 18196385924926888555
6786 2 18121530043636476014
7364860 26 18338521828716284367
7808743 9 17907301309819374032
81228 2 17475508851305241670
9999458 23 18411144618970319964

>  <PUBCHEM_SHAPE_MULTIPOLES>  (1) 
442.79
6.37
4.79
1.46
8.83
4.2
-0.03
-6.79
2.47
-4.51
-0.22
-0.43
-0.12
-0.43

>  <PUBCHEM_SHAPE_SELFOVERLAP>  (1) 
957.87

>  <PUBCHEM_SHAPE_VOLUME>  (1) 
238.3

>  <PUBCHEM_COORDINATE_TYPE>  (1) 
2
5
10

$$$$
