21007
     RDKit          3D

 16 15  0  0  0  0  0  0  0  0999 V2000
   -2.8876    0.2567   -0.0761 S   0  0  0  0  0  0  0  0  0  0  0  0
    1.7763    0.0061   -2.4737 S   0  0  0  0  0  0  0  0  0  0  0  0
    1.6576    0.0268   -0.5292 P   0  0  0  0  0  0  0  0  0  0  0  0
    0.1784    0.2528    0.1095 O   0  0  0  0  0  0  0  0  0  0  0  0
   -3.1801    0.6454   -1.4450 O   0  0  0  0  0  0  0  0  0  0  0  0
   -2.3280   -1.0511    0.2186 O   0  0  0  0  0  0  0  0  0  0  0  0
    2.5197    1.1704    0.2428 O   0  0  0  0  0  0  0  0  0  0  0  0
    2.1408   -1.3194    0.2464 O   0  0  0  0  0  0  0  0  0  0  0  0
   -1.8290    1.4815    0.6306 C   0  0  0  0  0  0  0  0  0  0  0  0
   -4.3889    0.4224    0.8619 C   0  0  0  0  0  0  0  0  0  0  0  0
   -0.4703    1.5041   -0.0422 C   0  0  0  0  0  0  0  0  0  0  0  0
   -5.4425   -0.5594    0.4003 C   0  0  0  0  0  0  0  0  0  0  0  0
    3.9362    1.1117    0.2314 C   0  0  0  0  0  0  0  0  0  0  0  0
    1.6107   -2.5785   -0.1323 C   0  0  0  0  0  0  0  0  0  0  0  0
    4.4846    2.2841    1.0164 C   0  0  0  0  0  0  0  0  0  0  0  0
    2.2221   -3.6535    0.7407 C   0  0  0  0  0  0  0  0  0  0  0  0
  1  5  2  0
  1  6  2  0
  1  9  1  0
  1 10  1  0
  2  3  2  0
  3  4  1  0
  3  7  1  0
  3  8  1  0
  4 11  1  0
  7 13  1  0
  8 14  1  0
  9 11  1  0
 10 12  1  0
 13 15  1  0
 14 16  1  0
M  END
>  <PUBCHEM_COMPOUND_CID>  (1) 
21007

>  <PUBCHEM_CONFORMER_RMSD>  (1) 
0.8

>  <PUBCHEM_CONFORMER_DIVERSEORDER>  (1) 
1
66
124
77
139
10
132
83
129
44
94
155
126
131
163
105
63
24
107
141
114
130
78
23
134
137
52
144
101
26
55
102
36
110
46
151
37
21
81
103
156
136
30
153
18
115
113
95
150
20
54
145
58
119
93
146
109
147
80
7
88
91
159
35
90
157
61
47
53
116
158
57
72
99
106
122
160
73
48
108
162
15
84
17
96
74
11
38
45
14
120
123
149
138
79
3
85
100
152
16
127
142
121
68
89
135
2
148
12
133
111
98
42
60
39
118
33
40
34
67
13
51
4
164
19
76
82
125
50
62
29
75
59
43
97
128
154
140
8
6
64
167
71
28
5
41
32
65
166
104
9
69
49
143
86
25
56
31
92
112
22
165
70
27
87
117
161

>  <PUBCHEM_MMFF94_PARTIAL_CHARGES>  (1) 
13
1 1.09
10 0.11
11 0.28
13 0.28
14 0.28
2 -0.68
3 1.49
4 -0.55
5 -0.65
6 -0.65
7 -0.55
8 -0.55
9 0.11

>  <PUBCHEM_EFFECTIVE_ROTOR_COUNT>  (1) 
9

>  <PUBCHEM_PHARMACOPHORE_FEATURES>  (1) 
2
1 5 acceptor
1 6 acceptor

>  <PUBCHEM_HEAVY_ATOM_COUNT>  (1) 
16

>  <PUBCHEM_ATOM_DEF_STEREO_COUNT>  (1) 
0

>  <PUBCHEM_ATOM_UDEF_STEREO_COUNT>  (1) 
0

>  <PUBCHEM_BOND_DEF_STEREO_COUNT>  (1) 
0

>  <PUBCHEM_BOND_UDEF_STEREO_COUNT>  (1) 
0

>  <PUBCHEM_ISOTOPIC_ATOM_COUNT>  (1) 
0

>  <PUBCHEM_COMPONENT_COUNT>  (1) 
1

>  <PUBCHEM_CACTVS_TAUTO_COUNT>  (1) 
1

>  <PUBCHEM_CONFORMER_ID>  (1) 
0000520F00000001

>  <PUBCHEM_MMFF94_ENERGY>  (1) 
2.4126

>  <PUBCHEM_FEATURE_SELFOVERLAP>  (1) 
10.166

>  <PUBCHEM_SHAPE_FINGERPRINT>  (1) 
10090160 65 18339072799948265004
12596602 18 17559976427655642963
12616999 72 17677354782229278967
14178342 30 18335431204688890577
14252887 29 17845952791589444173
14863182 85 18187094961446466486
15375462 189 18060133232927080777
204376 136 18338232790592536560
20645477 70 18201158754526500559
21524375 3 18059569235387085792
22224240 67 18270112555983000504
22485316 2 18411984655082113481
23419403 2 17608343789410719958
23557571 272 17530963549439548349
23559900 14 18122612864942277234
33824 294 18410576188559578858
5104073 3 18338244756745684697
621550 34 18334571347820386421
633830 44 18130226051368608212
7364860 26 18340770326043224618
81539 233 18412822504190611548
9999458 23 18410576193619261860

>  <PUBCHEM_SHAPE_MULTIPOLES>  (1) 
311.47
9.29
2.91
1.41
8.31
3.08
-1.12
-2.5
2.53
-4.15
1.27
-0.77
-0.11
0.43

>  <PUBCHEM_SHAPE_SELFOVERLAP>  (1) 
541.913

>  <PUBCHEM_SHAPE_VOLUME>  (1) 
206.8

>  <PUBCHEM_COORDINATE_TYPE>  (1) 
2
5
10

$$$$
