21008
     RDKit          3D

 13 13  0  0  0  0  0  0  0  0999 V2000
   -2.8910    2.5977    0.8540 S   0  0  0  0  0  0  0  0  0  0  0  0
    3.8094    1.6709    1.0596 S   0  0  0  0  0  0  0  0  0  0  0  0
   -2.1335    0.6225   -0.9396 N   0  0  0  0  0  0  0  0  0  0  0  0
    2.6503   -0.0370   -0.7942 N   0  0  0  0  0  0  0  0  0  0  0  0
   -1.2099   -1.2920    0.2384 C   0  0  0  0  0  0  0  0  0  0  0  0
   -1.0323   -0.1332   -0.5176 C   0  0  0  0  0  0  0  0  0  0  0  0
   -0.1021   -2.0325    0.6506 C   0  0  0  0  0  0  0  0  0  0  0  0
    0.2533    0.2850   -0.8615 C   0  0  0  0  0  0  0  0  0  0  0  0
    1.3612   -0.4557   -0.4493 C   0  0  0  0  0  0  0  0  0  0  0  0
    1.1834   -1.6144    0.3067 C   0  0  0  0  0  0  0  0  0  0  0  0
   -2.5766   -1.7589    0.6201 C   0  0  0  0  0  0  0  0  0  0  0  0
   -2.4456    1.4590   -0.1689 C   0  0  0  0  0  0  0  0  0  0  0  0
    3.1334    0.6886    0.0016 C   0  0  0  0  0  0  0  0  0  0  0  0
  1 12  2  0
  2 13  2  0
  3  6  1  0
  3 12  2  0
  4  9  1  0
  4 13  2  0
  5  6  2  0
  5  7  1  0
  5 11  1  0
  6  8  1  0
  7 10  2  0
  8  9  2  0
  9 10  1  0
M  END
>  <PUBCHEM_COMPOUND_CID>  (1) 
21008

>  <PUBCHEM_CONFORMER_RMSD>  (1) 
0.6

>  <PUBCHEM_CONFORMER_DIVERSEORDER>  (1) 
3
12
5
4
2
9
8
6
11
7
10
1

>  <PUBCHEM_MMFF94_PARTIAL_CHARGES>  (1) 
16
1 -0.27
10 -0.15
11 0.14
12 0.57
13 0.57
14 0.15
15 0.15
16 0.15
2 -0.27
3 -0.48
4 -0.48
5 -0.14
6 0.18
7 -0.15
8 -0.15
9 0.18

>  <PUBCHEM_EFFECTIVE_ROTOR_COUNT>  (1) 
2

>  <PUBCHEM_PHARMACOPHORE_FEATURES>  (1) 
5
1 1 acceptor
1 2 acceptor
1 3 acceptor
1 4 acceptor
6 5 6 7 8 9 10 rings

>  <PUBCHEM_HEAVY_ATOM_COUNT>  (1) 
13

>  <PUBCHEM_ATOM_DEF_STEREO_COUNT>  (1) 
0

>  <PUBCHEM_ATOM_UDEF_STEREO_COUNT>  (1) 
0

>  <PUBCHEM_BOND_DEF_STEREO_COUNT>  (1) 
0

>  <PUBCHEM_BOND_UDEF_STEREO_COUNT>  (1) 
0

>  <PUBCHEM_ISOTOPIC_ATOM_COUNT>  (1) 
0

>  <PUBCHEM_COMPONENT_COUNT>  (1) 
1

>  <PUBCHEM_CACTVS_TAUTO_COUNT>  (1) 
1

>  <PUBCHEM_CONFORMER_ID>  (1) 
0000521000000003

>  <PUBCHEM_MMFF94_ENERGY>  (1) 
32.8675

>  <PUBCHEM_FEATURE_SELFOVERLAP>  (1) 
25.381

>  <PUBCHEM_SHAPE_FINGERPRINT>  (1) 
122479 349 18271807895401821728
13140716 1 18189052001754539434
13380535 21 18189351077433330398
13764800 53 18410298016465479449
13839132 238 18412547604513224086
14614273 12 17967800661558030247
15279308 16 18202281441966694932
15775835 57 18197503913462196057
16945 1 18117006678427671870
17357990 137 17268633093071461145
1741750 31 18341048527785195009
18186145 218 18267023855911018676
19049666 15 18341901796543547770
20304884 271 18271808977743980552
20510252 161 18265334082690515904
20653085 51 17774728541260244285
20671657 1 18121496860519122418
21501502 16 18261956254047681010
21524375 3 18267020557523561869
21665062 11 16180747563846125801
22182937 141 18272658934739969049
23402539 116 18193262225003446687
23419403 2 16335800195173025647
23500284 214 18412829070768527568
23557571 272 18267317605983583927
2748010 2 18187369787534481598
57003041 12 18409454686836332641
7364860 26 18124027932281484822
81228 2 18115321101458964539
90316 7 17313647326867482700

>  <PUBCHEM_SHAPE_MULTIPOLES>  (1) 
265.27
5.6
2.64
1.04
3.44
0.67
0.03
4.09
1.23
-1.69
1.08
0.07
0.16
0.43

>  <PUBCHEM_SHAPE_SELFOVERLAP>  (1) 
538.618

>  <PUBCHEM_SHAPE_VOLUME>  (1) 
156.8

>  <PUBCHEM_COORDINATE_TYPE>  (1) 
2
5
10

$$$$
