21005
     RDKit          3D

  9  9  0  0  0  0  0  0  0  0999 V2000
   -2.5543    0.1067   -0.5891 S   0  0  0  0  0  0  0  0  0  0  0  0
    1.3940   -0.6524   -0.0328 C   0  0  0  0  0  0  0  0  0  0  0  0
    0.0307   -0.8074   -0.2837 C   0  0  0  0  0  0  0  0  0  0  0  0
   -0.8120    0.3040   -0.2687 C   0  0  0  0  0  0  0  0  0  0  0  0
    1.9147    0.6140    0.2330 C   0  0  0  0  0  0  0  0  0  0  0  0
   -0.2914    1.5704   -0.0032 C   0  0  0  0  0  0  0  0  0  0  0  0
    1.0720    1.7254    0.2478 C   0  0  0  0  0  0  0  0  0  0  0  0
    2.2957   -1.8405   -0.0480 C   0  0  0  0  0  0  0  0  0  0  0  0
   -3.0494   -1.0202    0.7447 C   0  0  0  0  0  0  0  0  0  0  0  0
  1  4  1  0
  1  9  1  0
  2  3  2  0
  2  5  1  0
  2  8  1  0
  3  4  1  0
  4  6  2  0
  5  7  2  0
  6  7  1  0
M  END
>  <PUBCHEM_COMPOUND_CID>  (1) 
21005

>  <PUBCHEM_CONFORMER_RMSD>  (1) 
0.4

>  <PUBCHEM_CONFORMER_DIVERSEORDER>  (1) 
3
5
1
2
6
4

>  <PUBCHEM_MMFF94_PARTIAL_CHARGES>  (1) 
13
1 -0.33
10 0.15
11 0.15
12 0.15
13 0.15
2 -0.14
3 -0.15
4 0.1
5 -0.15
6 -0.15
7 -0.15
8 0.14
9 0.23

>  <PUBCHEM_EFFECTIVE_ROTOR_COUNT>  (1) 
1

>  <PUBCHEM_PHARMACOPHORE_FEATURES>  (1) 
2
1 9 hydrophobe
6 2 3 4 5 6 7 rings

>  <PUBCHEM_HEAVY_ATOM_COUNT>  (1) 
9

>  <PUBCHEM_ATOM_DEF_STEREO_COUNT>  (1) 
0

>  <PUBCHEM_ATOM_UDEF_STEREO_COUNT>  (1) 
0

>  <PUBCHEM_BOND_DEF_STEREO_COUNT>  (1) 
0

>  <PUBCHEM_BOND_UDEF_STEREO_COUNT>  (1) 
0

>  <PUBCHEM_ISOTOPIC_ATOM_COUNT>  (1) 
0

>  <PUBCHEM_COMPONENT_COUNT>  (1) 
1

>  <PUBCHEM_CACTVS_TAUTO_COUNT>  (1) 
1

>  <PUBCHEM_CONFORMER_ID>  (1) 
0000520D00000003

>  <PUBCHEM_MMFF94_ENERGY>  (1) 
21.7199

>  <PUBCHEM_FEATURE_SELFOVERLAP>  (1) 
10.148

>  <PUBCHEM_SHAPE_FINGERPRINT>  (1) 
16945 1 18341042033784165348
17990270 104 18335979848100986947
20201158 50 18334571369521816315
20645477 70 18411691111200296447
20653091 64 18410299107281547640
20871998 22 18200320892238162718
21040471 1 17763455523508474884
23552423 10 18189619349928077174
241688 4 18194961833946398792
2748010 2 18269261375190481644
29004967 10 18409444808327116489

>  <PUBCHEM_SHAPE_MULTIPOLES>  (1) 
189.07
3.87
1.87
0.76
2.33
0.13
-0.01
-1.65
-0.38
-0.94
-0.13
0.31
-0.05
0.4

>  <PUBCHEM_SHAPE_SELFOVERLAP>  (1) 
368.924

>  <PUBCHEM_SHAPE_VOLUME>  (1) 
115.3

>  <PUBCHEM_COORDINATE_TYPE>  (1) 
2
5
10

$$$$
