21012
     RDKit          3D

 27 30  0  0  0  0  0  0  0  0999 V2000
    5.9726   -1.0639    0.0643 O   0  0  0  0  0  0  0  0  0  0  0  0
   -3.7436   -3.2811    0.1111 N   0  0  0  0  0  0  0  0  0  0  0  0
    1.3155    2.8513   -0.1520 C   0  0  0  0  0  0  0  0  0  0  0  0
    2.5755    2.4275    0.5986 C   0  0  0  0  0  0  0  0  0  0  0  0
    0.2313    1.7979   -0.0906 C   0  0  0  0  0  0  0  0  0  0  0  0
    0.5114    0.4700   -0.0299 C   0  0  0  0  0  0  0  0  0  0  0  0
    2.9557    1.0110    0.2650 C   0  0  0  0  0  0  0  0  0  0  0  0
    1.9515    0.0659   -0.0252 C   0  0  0  0  0  0  0  0  0  0  0  0
   -0.6019   -0.5119    0.0072 C   0  0  0  0  0  0  0  0  0  0  0  0
   -1.1406    2.3491   -0.1122 C   0  0  0  0  0  0  0  0  0  0  0  0
    4.3025    0.6225    0.3035 C   0  0  0  0  0  0  0  0  0  0  0  0
    2.3361   -1.2583   -0.2943 C   0  0  0  0  0  0  0  0  0  0  0  0
    4.6633   -0.6947    0.0320 C   0  0  0  0  0  0  0  0  0  0  0  0
    3.6814   -1.6331   -0.2687 C   0  0  0  0  0  0  0  0  0  0  0  0
   -1.1099   -0.9279    1.2316 C   0  0  0  0  0  0  0  0  0  0  0  0
   -1.1233   -1.0035   -1.1832 C   0  0  0  0  0  0  0  0  0  0  0  0
   -1.7788    2.6627    1.0844 C   0  0  0  0  0  0  0  0  0  0  0  0
   -1.7857    2.5514   -1.3290 C   0  0  0  0  0  0  0  0  0  0  0  0
   -2.6856   -2.3490    0.0761 C   0  0  0  0  0  0  0  0  0  0  0  0
   -2.1559   -1.8501    1.2662 C   0  0  0  0  0  0  0  0  0  0  0  0
   -2.1693   -1.9256   -1.1485 C   0  0  0  0  0  0  0  0  0  0  0  0
   -3.0728    3.1832    1.0642 C   0  0  0  0  0  0  0  0  0  0  0  0
   -3.0796    3.0720   -1.3492 C   0  0  0  0  0  0  0  0  0  0  0  0
   -3.7231    3.3878   -0.1526 C   0  0  0  0  0  0  0  0  0  0  0  0
   -3.8947   -4.2597   -0.9473 C   0  0  0  0  0  0  0  0  0  0  0  0
   -4.7015   -3.2634    1.1987 C   0  0  0  0  0  0  0  0  0  0  0  0
    6.2695   -2.4303   -0.2202 C   0  0  0  0  0  0  0  0  0  0  0  0
  1 13  1  0
  1 27  1  0
  2 19  1  0
  2 25  1  0
  2 26  1  0
  3  4  1  0
  3  5  1  0
  4  7  1  0
  5  6  2  0
  5 10  1  0
  6  8  1  0
  6  9  1  0
  7  8  2  0
  7 11  1  0
  8 12  1  0
  9 15  2  0
  9 16  1  0
 10 17  2  0
 10 18  1  0
 11 13  2  0
 12 14  2  0
 13 14  1  0
 15 20  1  0
 16 21  2  0
 17 22  1  0
 18 23  2  0
 19 20  2  0
 19 21  1  0
 22 24  2  0
 23 24  1  0
M  END
>  <PUBCHEM_COMPOUND_CID>  (1) 
21012

>  <PUBCHEM_CONFORMER_RMSD>  (1) 
0.8

>  <PUBCHEM_CONFORMER_DIVERSEORDER>  (1) 
1

>  <PUBCHEM_MMFF94_PARTIAL_CHARGES>  (1) 
39
1 -0.36
10 0.03
11 -0.15
12 -0.15
13 0.08
14 -0.15
15 -0.15
16 -0.15
17 -0.15
18 -0.15
19 0.1
2 -0.84
20 -0.15
21 -0.15
22 -0.15
23 -0.15
24 -0.15
25 0.37
26 0.37
27 0.28
3 0.14
32 0.15
33 0.15
34 0.15
35 0.15
36 0.15
37 0.15
38 0.15
39 0.15
4 0.14
40 0.15
41 0.15
42 0.15
43 0.15
5 -0.17
6 -0.06
7 -0.14
8 0.03
9 0.03

>  <PUBCHEM_EFFECTIVE_ROTOR_COUNT>  (1) 
4.4

>  <PUBCHEM_PHARMACOPHORE_FEATURES>  (1) 
6
1 1 acceptor
1 2 cation
6 10 17 18 22 23 24 rings
6 3 4 5 6 7 8 rings
6 7 8 11 12 13 14 rings
6 9 15 16 19 20 21 rings

>  <PUBCHEM_HEAVY_ATOM_COUNT>  (1) 
27

>  <PUBCHEM_ATOM_DEF_STEREO_COUNT>  (1) 
0

>  <PUBCHEM_ATOM_UDEF_STEREO_COUNT>  (1) 
0

>  <PUBCHEM_BOND_DEF_STEREO_COUNT>  (1) 
0

>  <PUBCHEM_BOND_UDEF_STEREO_COUNT>  (1) 
0

>  <PUBCHEM_ISOTOPIC_ATOM_COUNT>  (1) 
0

>  <PUBCHEM_COMPONENT_COUNT>  (1) 
1

>  <PUBCHEM_CACTVS_TAUTO_COUNT>  (1) 
1

>  <PUBCHEM_CONFORMER_ID>  (1) 
0000521400000001

>  <PUBCHEM_MMFF94_ENERGY>  (1) 
113.6074

>  <PUBCHEM_FEATURE_SELFOVERLAP>  (1) 
30.472

>  <PUBCHEM_SHAPE_FINGERPRINT>  (1) 
10050765 1 18410856569179757696
10119406 146 17837779928814548870
10254770 206 17037528879040790946
10688039 33 18189334748457813573
1100329 8 17831289502447451370
11045515 52 18193272116835167099
11578080 2 17201615947955766385
11991303 11 18115028485589971461
12035758 1 18196669401042160329
12107183 9 18270695246165705907
12422481 6 18198084576361335185
12549972 3 17773854481361634904
12643181 29 18124318204174455990
12788726 201 18262510519545179131
13004483 165 18268708484071761451
13052359 8 18337391518031074453
13134695 92 17762619886587430093
13140716 1 18412542081729074664
13540713 4 18270950324378598224
13540713 5 18260844717255249100
13690498 29 18340223954811350606
13692114 37 18271795780174552193
140371 6 17827082015229809440
14790565 3 17835806296668334376
14866123 147 18337391530800289395
15042514 8 18410578344575255984
15629462 23 18271790351494172479
15927050 60 18121216472301363667
16728300 4 16451778365408464210
17138139 8 17767640020657712709
17492 89 18339357569681674458
1813 80 18126300867576525535
19591789 44 17833831568913971937
21033648 144 18338785725115260428
21041028 32 18267024040963617383
21478907 32 18338517555408363145
21641784 216 17970359323758201716
21703447 108 18266444577092948184
22033318 11 17763227826740737451
22182313 1 17702960127771419766
23419403 2 17559659815082004721
23558518 356 18261675960424301784
23559900 14 18269267973151590416
244849 19 17559368375738586232
2747138 104 18193556899426897552
283562 15 18262793094233925474
3383291 50 17546444475622488682
350125 39 18411425037501555160
38695281 34 17905605506586061661
4409770 3 18409727323382199519
5104073 3 18340758262060112306
513202 73 18334587832026337595
5309563 4 18194963165323470030
59025328 239 17411022421696392919
59755656 520 18194960738729991629
6669772 16 17908422450727912191
6677587 24 14956791621205819415
70251023 43 18265332987595571202
7164475 11 18336265768300770956
81228 2 18187644760199666377
9981440 41 16981473950409801816

>  <PUBCHEM_SHAPE_MULTIPOLES>  (1) 
544.8
10.17
5.6
1.17
13.42
0.66
0.02
7.96
-0.33
-8.62
0.3
-1.2
-0.01
0.77

>  <PUBCHEM_SHAPE_SELFOVERLAP>  (1) 
1195.169

>  <PUBCHEM_SHAPE_VOLUME>  (1) 
295.6

>  <PUBCHEM_COORDINATE_TYPE>  (1) 
2
5
10

$$$$
