21015
     RDKit          3D

 20 19  0  0  0  0  0  0  0  0999 V2000
    2.6364    3.1401    0.4541 O   0  0  0  0  0  0  0  0  0  0  0  0
    0.9326    2.1133    1.5473 O   0  0  0  0  0  0  0  0  0  0  0  0
   -2.1038    1.8387   -0.6482 C   0  0  0  0  0  0  0  0  0  0  0  0
   -1.2102    3.0740   -0.7910 C   0  0  0  0  0  0  0  0  0  0  0  0
   -3.4393    2.1284    0.0440 C   0  0  0  0  0  0  0  0  0  0  0  0
    0.1186    2.8565   -1.5253 C   0  0  0  0  0  0  0  0  0  0  0  0
   -4.3539    0.8987    0.1081 C   0  0  0  0  0  0  0  0  0  0  0  0
    1.0780    1.8792   -0.8510 C   0  0  0  0  0  0  0  0  0  0  0  0
   -3.7204   -0.2483    0.8429 C   0  0  0  0  0  0  0  0  0  0  0  0
   -3.4580   -1.4778    0.3732 C   0  0  0  0  0  0  0  0  0  0  0  0
    1.5215    2.3706    0.5047 C   0  0  0  0  0  0  0  0  0  0  0  0
   -2.8250   -2.6227    1.1082 C   0  0  0  0  0  0  0  0  0  0  0  0
   -1.5475   -3.1546    0.5170 C   0  0  0  0  0  0  0  0  0  0  0  0
    3.7363   -1.4552   -0.3991 C   0  0  0  0  0  0  0  0  0  0  0  0
    3.9823   -0.7708    0.9473 C   0  0  0  0  0  0  0  0  0  0  0  0
    0.3763   -3.3393   -1.0762 C   0  0  0  0  0  0  0  0  0  0  0  0
   -0.9047   -2.7296   -0.5829 C   0  0  0  0  0  0  0  0  0  0  0  0
    2.6154   -2.4549   -0.3704 C   0  0  0  0  0  0  0  0  0  0  0  0
    1.4974   -2.3414   -1.1036 C   0  0  0  0  0  0  0  0  0  0  0  0
    5.0678    0.2952    0.9010 C   0  0  0  0  0  0  0  0  0  0  0  0
  1 11  1  0
  2 11  2  0
  3  4  1  0
  3  5  1  0
  4  6  1  0
  5  7  1  0
  6  8  1  0
  7  9  1  0
  8 11  1  0
  9 10  2  0
 10 12  1  0
 12 13  1  0
 13 17  2  0
 14 15  1  0
 14 18  1  0
 15 20  1  0
 16 17  1  0
 16 19  1  0
 18 19  2  0
M  END
>  <PUBCHEM_COMPOUND_CID>  (1) 
21015

>  <PUBCHEM_CONFORMER_RMSD>  (1) 
1.2

>  <PUBCHEM_CONFORMER_DIVERSEORDER>  (1) 
1
132
129
77
22
146
51
93
136
122
108
2
104
130
88
63
6
46
17
27
43
80
140
124
55
144
134
4
28
64
89
111
83
42
98
70
128
18
25
133
39
99
14
131
142
41
66
106
95
118
90
112
143
57
120
91
74
21
113
137
126
119
110
85
3
115
127
62
117
94
147
79
13
114
7
86
61
141
145
52
78
135
96
53
9
30
75
97
48
100
84
72
37
47
67
35
123
54
40
16
103
5
56
71
125
109
138
69
10
45
87
15
50
81
102
148
49
11
32
33
101
73
107
24
68
82
31
121
12
65
20
36
23
29
58
105
139
76
34
8
92
116
26
38
44
59
60
19

>  <PUBCHEM_MMFF94_PARTIAL_CHARGES>  (1) 
21
1 -0.65
10 -0.29
11 0.66
12 0.28
13 -0.29
14 0.14
16 0.28
17 -0.29
18 -0.29
19 -0.29
2 -0.57
33 0.15
34 0.15
39 0.15
44 0.15
45 0.15
46 0.15
50 0.5
7 0.14
8 0.06
9 -0.29

>  <PUBCHEM_EFFECTIVE_ROTOR_COUNT>  (1) 
13

>  <PUBCHEM_PHARMACOPHORE_FEATURES>  (1) 
4
1 1 acceptor
1 2 acceptor
1 20 hydrophobe
3 1 2 11 anion

>  <PUBCHEM_HEAVY_ATOM_COUNT>  (1) 
20

>  <PUBCHEM_ATOM_DEF_STEREO_COUNT>  (1) 
0

>  <PUBCHEM_ATOM_UDEF_STEREO_COUNT>  (1) 
0

>  <PUBCHEM_BOND_DEF_STEREO_COUNT>  (1) 
0

>  <PUBCHEM_BOND_UDEF_STEREO_COUNT>  (1) 
3

>  <PUBCHEM_ISOTOPIC_ATOM_COUNT>  (1) 
0

>  <PUBCHEM_COMPONENT_COUNT>  (1) 
1

>  <PUBCHEM_CACTVS_TAUTO_COUNT>  (1) 
1

>  <PUBCHEM_CONFORMER_ID>  (1) 
0000521700000001

>  <PUBCHEM_MMFF94_ENERGY>  (1) 
3.5254

>  <PUBCHEM_FEATURE_SELFOVERLAP>  (1) 
20.356

>  <PUBCHEM_SHAPE_FINGERPRINT>  (1) 
10838868 49 17608616493832026298
11112241 14 17487306344762460737
12100795 323 18268420403250388848
12422481 6 18124573518309636376
13122387 1 18337961064922478095
13402501 40 18339359643628522091
17093844 170 18194120707445388490
20621476 82 18337103462869340067
21141583 151 17763751992321543567
238918 7 18198894825899809566
5047190 48 18339077215670439500
5282274 181 18412823616318011696
57091435 65 17757563223298667103
6433294 58 18409733937252105180
9543594 6 18122908891706387188

>  <PUBCHEM_SHAPE_MULTIPOLES>  (1) 
399.85
8.2
5.62
1.29
2.76
0.16
0.02
0.32
-2.86
-0.55
0.98
0.37
-0.14
1.72

>  <PUBCHEM_SHAPE_SELFOVERLAP>  (1) 
745.205

>  <PUBCHEM_SHAPE_VOLUME>  (1) 
248.2

>  <PUBCHEM_COORDINATE_TYPE>  (1) 
2
5
10

$$$$
