21011
     RDKit          3D

 10 10  0  0  0  0  0  0  0  0999 V2000
    1.2559    2.4470    0.0006 Cl  0  0  0  0  0  0  0  0  0  0  0  0
   -1.7232    1.7156    0.0002 O   0  0  0  0  0  0  0  0  0  0  0  0
   -2.3869   -0.3769   -0.0007 O   0  0  0  0  0  0  0  0  0  0  0  0
    0.2455   -1.2599   -0.0002 N   0  0  0  0  0  0  0  0  0  0  0  0
    2.1393   -0.0997   -0.0006 N   0  0  0  0  0  0  0  0  0  0  0  0
   -1.4568    0.4796   -0.0001 N   0  0  0  0  0  0  0  0  0  0  0  0
   -0.1219    0.0563   -0.0001 C   0  0  0  0  0  0  0  0  0  0  0  0
    1.6120   -1.3039   -0.0003 C   0  0  0  0  0  0  0  0  0  0  0  0
   -0.6275   -2.4108    0.0012 C   0  0  0  0  0  0  0  0  0  0  0  0
    1.0637    0.7528    0.0002 C   0  0  0  0  0  0  0  0  0  0  0  0
  1 10  1  0
  2  6  1  0
  3  6  2  0
  4  7  1  0
  4  8  1  0
  4  9  1  0
  5  8  2  0
  5 10  1  0
  6  7  1  0
  7 10  2  0
M  CHG  2   2  -1   6   1
M  END
>  <PUBCHEM_COMPOUND_CID>  (1) 
21011

>  <PUBCHEM_CONFORMER_RMSD>  (1) 
0.4

>  <PUBCHEM_CONFORMER_DIVERSEORDER>  (1) 
1

>  <PUBCHEM_MMFF94_PARTIAL_CHARGES>  (1) 
11
1 -0.12
10 0.35
11 0.15
2 -0.52
3 -0.52
4 0.05
5 -0.57
6 0.96
7 -0.07
8 0.04
9 0.26

>  <PUBCHEM_EFFECTIVE_ROTOR_COUNT>  (1) 
1

>  <PUBCHEM_PHARMACOPHORE_FEATURES>  (1) 
5
1 2 acceptor
1 2 anion
1 3 acceptor
3 4 5 8 cation
5 4 5 7 8 10 rings

>  <PUBCHEM_HEAVY_ATOM_COUNT>  (1) 
10

>  <PUBCHEM_ATOM_DEF_STEREO_COUNT>  (1) 
0

>  <PUBCHEM_ATOM_UDEF_STEREO_COUNT>  (1) 
0

>  <PUBCHEM_BOND_DEF_STEREO_COUNT>  (1) 
0

>  <PUBCHEM_BOND_UDEF_STEREO_COUNT>  (1) 
0

>  <PUBCHEM_ISOTOPIC_ATOM_COUNT>  (1) 
0

>  <PUBCHEM_COMPONENT_COUNT>  (1) 
1

>  <PUBCHEM_CACTVS_TAUTO_COUNT>  (1) 
1

>  <PUBCHEM_CONFORMER_ID>  (1) 
0000521300000001

>  <PUBCHEM_MMFF94_ENERGY>  (1) 
17.7217

>  <PUBCHEM_FEATURE_SELFOVERLAP>  (1) 
25.453

>  <PUBCHEM_SHAPE_FINGERPRINT>  (1) 
16945 1 18338517542323163494
18185500 45 18052255094369046521
193761 8 18194683893775069798
21040471 1 18410573972525148514
23552423 10 17901664092333450670
241688 4 18123471566306738922
2748010 2 18267021652692781942
29004967 10 18120662322608564938
5084963 1 18131069333367447179
66348 1 18409731789367523997

>  <PUBCHEM_SHAPE_MULTIPOLES>  (1) 
180.98
2.73
2.43
0.57
0.57
0.65
0
0.02
0
-0.31
0
0.03
-0.03
0

>  <PUBCHEM_SHAPE_SELFOVERLAP>  (1) 
366.997

>  <PUBCHEM_SHAPE_VOLUME>  (1) 
107.7

>  <PUBCHEM_COORDINATE_TYPE>  (1) 
2
5
10

$$$$
