21018
     RDKit          3D

 14 14  0  0  0  0  0  0  0  0999 V2000
   -0.8003    3.6410   -0.0105 Br  0  0  0  0  0  0  0  0  0  0  0  0
    1.7407    1.8542   -0.0052 O   0  0  0  0  0  0  0  0  0  0  0  0
   -3.9138   -1.8231    0.0001 N   0  0  0  0  0  0  0  0  0  0  0  0
    1.9893   -0.9653   -0.0012 C   0  0  0  0  0  0  0  0  0  0  0  0
    0.6275   -0.2511   -0.0014 C   0  0  0  0  0  0  0  0  0  0  0  0
    1.7741   -2.4942    0.0001 C   0  0  0  0  0  0  0  0  0  0  0  0
    2.7865   -0.5637    1.2588 C   0  0  0  0  0  0  0  0  0  0  0  0
    2.8713   -0.6297   -1.2251 C   0  0  0  0  0  0  0  0  0  0  0  0
    0.5897    1.1211   -0.0037 C   0  0  0  0  0  0  0  0  0  0  0  0
   -0.5008   -1.0349   -0.0004 C   0  0  0  0  0  0  0  0  0  0  0  0
   -1.7454   -0.4051   -0.0017 C   0  0  0  0  0  0  0  0  0  0  0  0
   -0.6549    1.7507   -0.0051 C   0  0  0  0  0  0  0  0  0  0  0  0
   -1.8225    0.9875   -0.0040 C   0  0  0  0  0  0  0  0  0  0  0  0
   -2.9414   -1.1873   -0.0008 C   0  0  0  0  0  0  0  0  0  0  0  0
  1 12  1  0
  2  9  1  0
  3 14  3  0
  4  5  1  0
  4  6  1  0
  4  7  1  0
  4  8  1  0
  5  9  2  0
  5 10  1  0
  9 12  1  0
 10 11  2  0
 11 13  1  0
 11 14  1  0
 12 13  2  0
M  END
>  <PUBCHEM_COMPOUND_CID>  (1) 
21018

>  <PUBCHEM_CONFORMER_RMSD>  (1) 
0.4

>  <PUBCHEM_CONFORMER_DIVERSEORDER>  (1) 
1
2

>  <PUBCHEM_MMFF94_PARTIAL_CHARGES>  (1) 
14
1 -0.11
10 -0.15
11 0.07
12 0.11
13 -0.15
14 0.48
2 -0.53
24 0.15
25 0.15
26 0.45
3 -0.56
4 0.14
5 -0.14
9 0.08

>  <PUBCHEM_EFFECTIVE_ROTOR_COUNT>  (1) 
1

>  <PUBCHEM_PHARMACOPHORE_FEATURES>  (1) 
5
1 1 hydrophobe
1 2 donor
1 3 acceptor
4 4 6 7 8 hydrophobe
6 5 9 10 11 12 13 rings

>  <PUBCHEM_HEAVY_ATOM_COUNT>  (1) 
14

>  <PUBCHEM_ATOM_DEF_STEREO_COUNT>  (1) 
0

>  <PUBCHEM_ATOM_UDEF_STEREO_COUNT>  (1) 
0

>  <PUBCHEM_BOND_DEF_STEREO_COUNT>  (1) 
0

>  <PUBCHEM_BOND_UDEF_STEREO_COUNT>  (1) 
0

>  <PUBCHEM_ISOTOPIC_ATOM_COUNT>  (1) 
0

>  <PUBCHEM_COMPONENT_COUNT>  (1) 
1

>  <PUBCHEM_CACTVS_TAUTO_COUNT>  (1) 
3

>  <PUBCHEM_CONFORMER_ID>  (1) 
0000521A00000001

>  <PUBCHEM_MMFF94_ENERGY>  (1) 
46.2952

>  <PUBCHEM_FEATURE_SELFOVERLAP>  (1) 
25.371

>  <PUBCHEM_SHAPE_FINGERPRINT>  (1) 
1 1 17688869057148106757
10967382 1 18194682802626451845
12423570 1 12398881997610979088
12500047 106 17762049944147695386
12553582 1 18410017645569988475
12716758 59 17907573623408256944
13140716 1 18410852144740860073
13538477 17 18116999871004227774
14178342 30 18193828258948738210
14817 1 12669129693275603557
15279308 132 17332516878939774616
15490181 8 17188121834820846735
15906896 17 17910663272926623893
161256 15 18341053007520578148
16945 1 18266458702607667113
193761 8 18338517443396854661
20511035 2 17767108818527276326
20645476 183 17469348944789954166
20645477 70 18049435135545874391
20871998 184 18129656400806989935
20871998 22 18341897393759191567
21501502 16 18408608045502790848
21501925 9 18339349868457146819
21524375 3 17042318913887810941
22802520 49 17842280259507121902
2334 1 18338233877034652549
23419403 2 17610857465579762724
23552423 10 18334864921598273797
23557571 272 17984979298376390774
23559900 14 17479453444704239326
241688 4 18410295791762175385
2748010 2 18411972589965331493
3071541 236 17902215729200823481
3071541 250 18266754634649927245
54173680 148 18122343484540763315
7364860 26 18052823838402460509
81228 2 18265328409265882937

>  <PUBCHEM_SHAPE_MULTIPOLES>  (1) 
283.21
4.6
3.31
0.84
0.25
2.05
0.01
-2.73
-0.04
-2.72
-0.01
0.64
0.02
0.02

>  <PUBCHEM_SHAPE_SELFOVERLAP>  (1) 
578.332

>  <PUBCHEM_SHAPE_VOLUME>  (1) 
169.3

>  <PUBCHEM_COORDINATE_TYPE>  (1) 
2
5
10

$$$$
