21027
     RDKit          3D

 12 12  0  0  0  0  0  0  0  0999 V2000
   -1.9202    2.3297    0.1231 Cl  0  0  0  0  0  0  0  0  0  0  0  0
   -2.8661   -0.5150    0.3583 O   0  0  0  0  0  0  0  0  0  0  0  0
    3.3702   -1.0004   -0.0966 O   0  0  0  0  0  0  0  0  0  0  0  0
    3.1568    1.1816   -0.2085 O   0  0  0  0  0  0  0  0  0  0  0  0
    2.6601    0.0341   -0.1023 N   0  0  0  0  0  0  0  0  0  0  0  0
   -1.5167   -0.3578    0.2451 C   0  0  0  0  0  0  0  0  0  0  0  0
    1.2512   -0.0977    0.0144 C   0  0  0  0  0  0  0  0  0  0  0  0
   -0.9427    0.9080    0.1265 C   0  0  0  0  0  0  0  0  0  0  0  0
   -0.7069   -1.4935    0.2484 C   0  0  0  0  0  0  0  0  0  0  0  0
    0.4414    1.0381    0.0111 C   0  0  0  0  0  0  0  0  0  0  0  0
    0.6770   -1.3634    0.1330 C   0  0  0  0  0  0  0  0  0  0  0  0
   -3.6042   -0.6638   -0.8525 C   0  0  0  0  0  0  0  0  0  0  0  0
  1  8  1  0
  2  6  1  0
  2 12  1  0
  3  5  1  0
  4  5  2  0
  5  7  1  0
  6  8  2  0
  6  9  1  0
  7 10  2  0
  7 11  1  0
  8 10  1  0
  9 11  2  0
M  CHG  2   3  -1   5   1
M  END
>  <PUBCHEM_COMPOUND_CID>  (1) 
21027

>  <PUBCHEM_CONFORMER_RMSD>  (1) 
0.6

>  <PUBCHEM_CONFORMER_DIVERSEORDER>  (1) 
2
1

>  <PUBCHEM_MMFF94_PARTIAL_CHARGES>  (1) 
15
1 -0.18
10 -0.15
11 -0.15
12 0.28
13 0.15
14 0.15
15 0.15
2 -0.36
3 -0.52
4 -0.52
5 0.91
6 0.08
7 0.13
8 0.18
9 -0.15

>  <PUBCHEM_EFFECTIVE_ROTOR_COUNT>  (1) 
2

>  <PUBCHEM_PHARMACOPHORE_FEATURES>  (1) 
5
1 2 acceptor
1 3 acceptor
1 3 anion
1 4 acceptor
6 6 7 8 9 10 11 rings

>  <PUBCHEM_HEAVY_ATOM_COUNT>  (1) 
12

>  <PUBCHEM_ATOM_DEF_STEREO_COUNT>  (1) 
0

>  <PUBCHEM_ATOM_UDEF_STEREO_COUNT>  (1) 
0

>  <PUBCHEM_BOND_DEF_STEREO_COUNT>  (1) 
0

>  <PUBCHEM_BOND_UDEF_STEREO_COUNT>  (1) 
0

>  <PUBCHEM_ISOTOPIC_ATOM_COUNT>  (1) 
0

>  <PUBCHEM_COMPONENT_COUNT>  (1) 
1

>  <PUBCHEM_CACTVS_TAUTO_COUNT>  (1) 
1

>  <PUBCHEM_CONFORMER_ID>  (1) 
0000522300000002

>  <PUBCHEM_MMFF94_ENERGY>  (1) 
43.2075

>  <PUBCHEM_FEATURE_SELFOVERLAP>  (1) 
25.453

>  <PUBCHEM_SHAPE_FINGERPRINT>  (1) 
11206711 2 18409730634227147469
12032990 46 18337115669519829683
12897270 3 18409728460915510695
12932764 1 17489862743772373842
13380535 76 18122060905957839697
14325111 11 18410577253917157408
14993402 34 18131067194716580487
16945 1 18409454716674217594
193761 8 17905890279886165395
21293036 1 18335696199960638303
21501502 16 18192991521820135635
23402539 116 18341320154370234631
23402655 69 18266159679465399349
23552423 10 18191027806911663682
2748010 2 18266182720888606557
353137 74 18334288764952765505
369184 2 18342179972674047858
5084963 1 18201720643454090594
528886 8 18339076107093967723
6333449 129 18340205172523667053

>  <PUBCHEM_SHAPE_MULTIPOLES>  (1) 
226.24
5.06
1.9
0.68
1.22
0.77
-0.04
-0.37
-0.94
-0.67
0.08
-0.28
-0.05
-0.24

>  <PUBCHEM_SHAPE_SELFOVERLAP>  (1) 
462.531

>  <PUBCHEM_SHAPE_VOLUME>  (1) 
132.3

>  <PUBCHEM_COORDINATE_TYPE>  (1) 
2
5
10

$$$$
