2102
     RDKit          3D

 14 14  0  0  0  0  0  0  0  0999 V2000
    4.6479   -0.3167   -0.0008 O   0  0  0  0  0  0  0  0  0  0  0  0
   -4.1059   -0.5112   -0.0004 O   0  0  0  0  0  0  0  0  0  0  0  0
   -3.5367    1.6880    0.0014 O   0  0  0  0  0  0  0  0  0  0  0  0
   -1.3412   -2.5524   -0.0024 N   0  0  0  0  0  0  0  0  0  0  0  0
    0.5970    0.5871    0.0012 C   0  0  0  0  0  0  0  0  0  0  0  0
    1.2776    0.4320    1.2088 C   0  0  0  0  0  0  0  0  0  0  0  0
    1.2777    0.4382   -1.2072 C   0  0  0  0  0  0  0  0  0  0  0  0
   -0.8224    0.9045    0.0017 C   0  0  0  0  0  0  0  0  0  0  0  0
    2.6390    0.1283    1.2080 C   0  0  0  0  0  0  0  0  0  0  0  0
    2.6391    0.1344   -1.2079 C   0  0  0  0  0  0  0  0  0  0  0  0
    3.3197   -0.0206   -0.0003 C   0  0  0  0  0  0  0  0  0  0  0  0
   -1.8204   -0.0095   -0.0003 C   0  0  0  0  0  0  0  0  0  0  0  0
   -3.2152    0.5097    0.0001 C   0  0  0  0  0  0  0  0  0  0  0  0
   -1.5562   -1.4119   -0.0019 C   0  0  0  0  0  0  0  0  0  0  0  0
  1 11  1  0
  2 13  1  0
  3 13  2  0
  4 14  3  0
  5  6  2  0
  5  7  1  0
  5  8  1  0
  6  9  1  0
  7 10  2  0
  8 12  2  0
  9 11  2  0
 10 11  1  0
 12 13  1  0
 12 14  1  0
M  END
>  <PUBCHEM_COMPOUND_CID>  (1) 
2102

>  <PUBCHEM_CONFORMER_RMSD>  (1) 
0.6

>  <PUBCHEM_CONFORMER_DIVERSEORDER>  (1) 
1
2
3

>  <PUBCHEM_MMFF94_PARTIAL_CHARGES>  (1) 
21
1 -0.53
10 -0.15
11 0.08
12 0.08
13 0.71
14 0.49
15 0.15
16 0.15
17 0.15
18 0.15
19 0.15
2 -0.65
20 0.45
21 0.5
3 -0.57
4 -0.56
5 0.03
6 -0.15
7 -0.15
8 -0.18
9 -0.15

>  <PUBCHEM_EFFECTIVE_ROTOR_COUNT>  (1) 
2

>  <PUBCHEM_PHARMACOPHORE_FEATURES>  (1) 
6
1 1 donor
1 2 acceptor
1 3 acceptor
1 4 acceptor
3 2 3 13 anion
6 5 6 7 9 10 11 rings

>  <PUBCHEM_HEAVY_ATOM_COUNT>  (1) 
14

>  <PUBCHEM_ATOM_DEF_STEREO_COUNT>  (1) 
0

>  <PUBCHEM_ATOM_UDEF_STEREO_COUNT>  (1) 
0

>  <PUBCHEM_BOND_DEF_STEREO_COUNT>  (1) 
0

>  <PUBCHEM_BOND_UDEF_STEREO_COUNT>  (1) 
1

>  <PUBCHEM_ISOTOPIC_ATOM_COUNT>  (1) 
0

>  <PUBCHEM_COMPONENT_COUNT>  (1) 
1

>  <PUBCHEM_CACTVS_TAUTO_COUNT>  (1) 
2

>  <PUBCHEM_CONFORMER_ID>  (1) 
0000083600000001

>  <PUBCHEM_MMFF94_ENERGY>  (1) 
34.2236

>  <PUBCHEM_FEATURE_SELFOVERLAP>  (1) 
30.504

>  <PUBCHEM_SHAPE_FINGERPRINT>  (1) 
10465860 250 18131628963754357936
11471102 22 16415487064472888218
12236239 1 17676488345454585013
124424 183 17703789210930325768
12500047 106 18413665807780760254
12932764 1 17530951514814369724
13538477 17 17968658345041609523
13581323 91 18409726274750724769
14115302 16 18409737278557131620
14144814 61 18187363229361695137
14993402 34 18113614590851123317
15207287 21 17775284945599130254
15279307 12 18040149630229907386
15279308 132 18343582945131941139
15375358 24 17847057783663847240
16945 1 18410573989457091361
18175812 5 17846212302198348500
18186145 218 17846221020976678361
19422 9 17603594048974737027
20201158 50 17489592251048235638
20279233 1 17775290477764836110
20645476 183 17894351094305058075
20645477 70 14924208405316856305
21119208 17 17749108889714816750
23402539 116 18271799099546033717
23402655 69 15719384023512841671
23559900 14 18343864408104438546
23598291 2 17749958876390344230
465052 167 17824282590512599123
57426455 114 18201715171597326539
69090 78 17418368125858741039
74978 22 18335701710219062629
77492 1 17676205783872234469
81228 2 17415867733027142912
8272917 22 16588856859839905041
9939556 21 18114751550082533956

>  <PUBCHEM_SHAPE_MULTIPOLES>  (1) 
265.52
7.02
1.45
1.04
0.12
0.84
0
-0.27
0
-1.47
0
0.88
-0.12
0

>  <PUBCHEM_SHAPE_SELFOVERLAP>  (1) 
560.021

>  <PUBCHEM_SHAPE_VOLUME>  (1) 
146.9

>  <PUBCHEM_COORDINATE_TYPE>  (1) 
2
5
10

$$$$
