21028
     RDKit          3D

 13 13  0  0  0  0  0  0  0  0999 V2000
   -0.3192    0.0113    0.7300 O   0  0  0  0  0  0  0  0  0  0  0  0
   -0.7831   -0.0165   -1.5557 O   0  0  0  0  0  0  0  0  0  0  0  0
   -2.6188    0.0067    0.0621 C   0  0  0  0  0  0  0  0  0  0  0  0
   -2.8948    1.2693    0.8891 C   0  0  0  0  0  0  0  0  0  0  0  0
   -3.5332   -0.0395   -1.1692 C   0  0  0  0  0  0  0  0  0  0  0  0
   -2.8918   -1.2303    0.9329 C   0  0  0  0  0  0  0  0  0  0  0  0
   -1.1530   -0.0005   -0.3875 C   0  0  0  0  0  0  0  0  0  0  0  0
    1.0387    0.0056    0.4031 C   0  0  0  0  0  0  0  0  0  0  0  0
    1.6838    1.2108    0.2343 C   0  0  0  0  0  0  0  0  0  0  0  0
    1.6799   -1.2051    0.2619 C   0  0  0  0  0  0  0  0  0  0  0  0
    3.0397    1.2049   -0.0930 C   0  0  0  0  0  0  0  0  0  0  0  0
    3.0359   -1.2109   -0.0652 C   0  0  0  0  0  0  0  0  0  0  0  0
    3.7158   -0.0058   -0.2426 C   0  0  0  0  0  0  0  0  0  0  0  0
  1  7  1  0
  1  8  1  0
  2  7  2  0
  3  4  1  0
  3  5  1  0
  3  6  1  0
  3  7  1  0
  8  9  2  0
  8 10  1  0
  9 11  1  0
 10 12  2  0
 11 13  2  0
 12 13  1  0
M  END
>  <PUBCHEM_COMPOUND_CID>  (1) 
21028

>  <PUBCHEM_CONFORMER_RMSD>  (1) 
0.6

>  <PUBCHEM_CONFORMER_DIVERSEORDER>  (1) 
1
8
4
9
5
3
2
6
7

>  <PUBCHEM_MMFF94_PARTIAL_CHARGES>  (1) 
15
1 -0.23
10 -0.15
11 -0.15
12 -0.15
13 -0.15
2 -0.57
23 0.15
24 0.15
25 0.15
26 0.15
27 0.15
3 0.06
7 0.66
8 0.08
9 -0.15

>  <PUBCHEM_EFFECTIVE_ROTOR_COUNT>  (1) 
3

>  <PUBCHEM_PHARMACOPHORE_FEATURES>  (1) 
3
1 2 acceptor
4 3 4 5 6 hydrophobe
6 8 9 10 11 12 13 rings

>  <PUBCHEM_HEAVY_ATOM_COUNT>  (1) 
13

>  <PUBCHEM_ATOM_DEF_STEREO_COUNT>  (1) 
0

>  <PUBCHEM_ATOM_UDEF_STEREO_COUNT>  (1) 
0

>  <PUBCHEM_BOND_DEF_STEREO_COUNT>  (1) 
0

>  <PUBCHEM_BOND_UDEF_STEREO_COUNT>  (1) 
0

>  <PUBCHEM_ISOTOPIC_ATOM_COUNT>  (1) 
0

>  <PUBCHEM_COMPONENT_COUNT>  (1) 
1

>  <PUBCHEM_CACTVS_TAUTO_COUNT>  (1) 
1

>  <PUBCHEM_CONFORMER_ID>  (1) 
0000522400000001

>  <PUBCHEM_MMFF94_ENERGY>  (1) 
38.5681

>  <PUBCHEM_FEATURE_SELFOVERLAP>  (1) 
15.223

>  <PUBCHEM_SHAPE_FINGERPRINT>  (1) 
10608611 8 18187642530884630444
11031198 65 18335990847807683188
11132069 177 17385721434674497900
11471102 20 18408599258474164652
12500047 106 17821721720018950327
12932764 1 17346314924991991065
13296908 3 17022904544907299411
13581323 91 15554441907595192126
14144814 61 18272652337553501352
14325111 11 18409732876078522640
14993402 34 17561079219799428541
15219456 202 18186801404599924242
15775835 57 17561366179660314177
16945 1 18201998880057088976
17844478 74 17748830691545198772
18175812 5 17894910745501816102
18186145 218 18187088325711184818
190213 19 18343863320623170280
19422 9 18130790048813624846
200 152 18272359902300396695
20201158 50 18260546701800032834
20279233 1 17603861204446197187
20645477 70 18410849923984480486
20711983 171 17988928833995024353
21730867 7 18187080659358078686
23402655 69 18412822460660800284
3248919 1 18410285908905004299
74978 22 16343412998792288089
77492 1 17775569736395886762
8030462 33 18201994439134842409

>  <PUBCHEM_SHAPE_MULTIPOLES>  (1) 
255.8
6.79
1.32
1.06
0.01
0.01
-0.22
-0.01
-0.35
0.37
0.26
-0.86
-0.01
-0.02

>  <PUBCHEM_SHAPE_SELFOVERLAP>  (1) 
525.219

>  <PUBCHEM_SHAPE_VOLUME>  (1) 
147.7

>  <PUBCHEM_COORDINATE_TYPE>  (1) 
2
5
10

$$$$
