21031
     RDKit          3D

 15 16  0  0  0  0  0  0  0  0999 V2000
    4.0987   -0.7798    0.0014 Cl  0  0  0  0  0  0  0  0  0  0  0  0
   -0.3888    2.6643   -0.0014 O   0  0  0  0  0  0  0  0  0  0  0  0
   -3.2487   -1.0547   -0.0005 O   0  0  0  0  0  0  0  0  0  0  0  0
   -0.9534   -1.4364    0.0000 N   0  0  0  0  0  0  0  0  0  0  0  0
    1.8437    0.6720   -0.0003 N   0  0  0  0  0  0  0  0  0  0  0  0
   -1.8408    0.8172    0.0005 N   0  0  0  0  0  0  0  0  0  0  0  0
    1.5059   -1.5316   -0.0003 N   0  0  0  0  0  0  0  0  0  0  0  0
    0.4900    0.4931   -0.0007 C   0  0  0  0  0  0  0  0  0  0  0  0
    0.3110   -0.8633   -0.0005 C   0  0  0  0  0  0  0  0  0  0  0  0
   -0.5690    1.4495    0.0000 C   0  0  0  0  0  0  0  0  0  0  0  0
   -2.0985   -0.6013   -0.0001 C   0  0  0  0  0  0  0  0  0  0  0  0
    2.4120   -0.5756   -0.0002 C   0  0  0  0  0  0  0  0  0  0  0  0
   -1.0931   -2.8874    0.0000 C   0  0  0  0  0  0  0  0  0  0  0  0
    2.5383    1.9401    0.0001 C   0  0  0  0  0  0  0  0  0  0  0  0
   -3.0072    1.6940    0.0018 C   0  0  0  0  0  0  0  0  0  0  0  0
  1 12  1  0
  2 10  2  0
  3 11  2  0
  4  9  1  0
  4 11  1  0
  4 13  1  0
  5  8  1  0
  5 12  1  0
  5 14  1  0
  6 10  1  0
  6 11  1  0
  6 15  1  0
  7  9  1  0
  7 12  2  0
  8  9  2  0
  8 10  1  0
M  END
>  <PUBCHEM_COMPOUND_CID>  (1) 
21031

>  <PUBCHEM_CONFORMER_RMSD>  (1) 
0.4

>  <PUBCHEM_CONFORMER_DIVERSEORDER>  (1) 
1

>  <PUBCHEM_MMFF94_PARTIAL_CHARGES>  (1) 
15
1 -0.12
10 0.71
11 0.69
12 0.31
13 0.3
14 0.26
15 0.3
2 -0.57
3 -0.57
4 -0.42
5 0.05
6 -0.42
7 -0.57
8 -0.24
9 0.29

>  <PUBCHEM_EFFECTIVE_ROTOR_COUNT>  (1) 
0

>  <PUBCHEM_PHARMACOPHORE_FEATURES>  (1) 
5
1 2 acceptor
1 3 acceptor
3 5 7 12 cation
5 5 7 8 9 12 rings
6 4 6 8 9 10 11 rings

>  <PUBCHEM_HEAVY_ATOM_COUNT>  (1) 
15

>  <PUBCHEM_ATOM_DEF_STEREO_COUNT>  (1) 
0

>  <PUBCHEM_ATOM_UDEF_STEREO_COUNT>  (1) 
0

>  <PUBCHEM_BOND_DEF_STEREO_COUNT>  (1) 
0

>  <PUBCHEM_BOND_UDEF_STEREO_COUNT>  (1) 
0

>  <PUBCHEM_ISOTOPIC_ATOM_COUNT>  (1) 
0

>  <PUBCHEM_COMPONENT_COUNT>  (1) 
1

>  <PUBCHEM_CACTVS_TAUTO_COUNT>  (1) 
1

>  <PUBCHEM_CONFORMER_ID>  (1) 
0000522700000001

>  <PUBCHEM_MMFF94_ENERGY>  (1) 
26.5195

>  <PUBCHEM_FEATURE_SELFOVERLAP>  (1) 
25.486

>  <PUBCHEM_SHAPE_FINGERPRINT>  (1) 
10608611 8 18411978087549844064
10967382 1 18338797947805596654
11132069 177 18341327795428257920
12032990 46 18410016562847670858
13140716 1 18410858715987958553
13380535 76 18268708320620190110
15775835 57 18188777115209758944
16945 1 18338797819093662854
17804303 29 18341049632261625042
193761 8 18122343755192216237
20510252 161 18272088266708724008
20711985 365 18410292523128233710
20871998 184 18272932700102293839
21267235 1 18410302418701657363
21501502 16 18411139173120612708
2334 1 18410855481893285025
23402539 116 18271514351809531319
23463225 33 18408885165698908100
23552423 10 18261393407515775068
23559900 14 18343021048458259726
2748010 2 18410293597091714269
528886 8 18339073770700148577
53812653 166 18269550551096087216
54173680 148 18337674225542501994
6333449 129 18411697651680574622
7364860 26 18270400624293620888
8809292 202 18262241122280573410

>  <PUBCHEM_SHAPE_MULTIPOLES>  (1) 
278.9
5.08
2.76
0.58
2.17
0.13
0
0.07
0
-0.91
0
0.04
0
0

>  <PUBCHEM_SHAPE_SELFOVERLAP>  (1) 
589.761

>  <PUBCHEM_SHAPE_VOLUME>  (1) 
158.2

>  <PUBCHEM_COORDINATE_TYPE>  (1) 
2
5
10

$$$$
