21035
     RDKit          3D

 14 15  0  0  0  0  0  0  0  0999 V2000
    0.3869    2.8309    0.0006 O   0  0  0  0  0  0  0  0  0  0  0  0
    2.7001    1.5654   -0.0006 O   0  0  0  0  0  0  0  0  0  0  0  0
   -2.1133   -2.0438    0.0000 O   0  0  0  0  0  0  0  0  0  0  0  0
   -3.5162    0.2259   -0.0006 O   0  0  0  0  0  0  0  0  0  0  0  0
    0.5879    0.3551    0.0002 C   0  0  0  0  0  0  0  0  0  0  0  0
   -0.0311   -0.9048    0.0002 C   0  0  0  0  0  0  0  0  0  0  0  0
   -0.2232    1.5860   -0.0001 C   0  0  0  0  0  0  0  0  0  0  0  0
    1.9912    0.3988    0.0001 C   0  0  0  0  0  0  0  0  0  0  0  0
   -1.5029   -0.9865    0.0002 C   0  0  0  0  0  0  0  0  0  0  0  0
    0.7213   -2.0853    0.0001 C   0  0  0  0  0  0  0  0  0  0  0  0
   -1.5626    1.5651   -0.0001 C   0  0  0  0  0  0  0  0  0  0  0  0
   -2.2964    0.2878    0.0002 C   0  0  0  0  0  0  0  0  0  0  0  0
    2.7461   -0.7777   -0.0001 C   0  0  0  0  0  0  0  0  0  0  0  0
    2.1121   -2.0171   -0.0001 C   0  0  0  0  0  0  0  0  0  0  0  0
  1  7  1  0
  2  8  1  0
  3  9  2  0
  4 12  2  0
  5  6  2  0
  5  7  1  0
  5  8  1  0
  6  9  1  0
  6 10  1  0
  7 11  2  0
  8 13  2  0
  9 12  1  0
 10 14  2  0
 11 12  1  0
 13 14  1  0
M  END
>  <PUBCHEM_COMPOUND_CID>  (1) 
21035

>  <PUBCHEM_CONFORMER_RMSD>  (1) 
0.4

>  <PUBCHEM_CONFORMER_DIVERSEORDER>  (1) 
1

>  <PUBCHEM_MMFF94_PARTIAL_CHARGES>  (1) 
20
1 -0.53
10 -0.15
11 -0.14
12 0.56
13 -0.15
14 -0.15
15 0.15
16 0.15
17 0.15
18 0.15
19 0.45
2 -0.53
20 0.45
3 -0.57
4 -0.57
5 0.03
6 0.09
7 0.05
8 0.08
9 0.48

>  <PUBCHEM_EFFECTIVE_ROTOR_COUNT>  (1) 
0

>  <PUBCHEM_PHARMACOPHORE_FEATURES>  (1) 
6
1 1 donor
1 2 donor
1 3 acceptor
1 4 acceptor
6 5 6 7 9 11 12 rings
6 5 6 8 10 13 14 rings

>  <PUBCHEM_HEAVY_ATOM_COUNT>  (1) 
14

>  <PUBCHEM_ATOM_DEF_STEREO_COUNT>  (1) 
0

>  <PUBCHEM_ATOM_UDEF_STEREO_COUNT>  (1) 
0

>  <PUBCHEM_BOND_DEF_STEREO_COUNT>  (1) 
0

>  <PUBCHEM_BOND_UDEF_STEREO_COUNT>  (1) 
0

>  <PUBCHEM_ISOTOPIC_ATOM_COUNT>  (1) 
0

>  <PUBCHEM_COMPONENT_COUNT>  (1) 
1

>  <PUBCHEM_CACTVS_TAUTO_COUNT>  (1) 
14

>  <PUBCHEM_CONFORMER_ID>  (1) 
0000522B00000001

>  <PUBCHEM_MMFF94_ENERGY>  (1) 
37.0038

>  <PUBCHEM_FEATURE_SELFOVERLAP>  (1) 
30.485

>  <PUBCHEM_SHAPE_FINGERPRINT>  (1) 
10967382 1 18410855464438985830
11132069 177 18411130368390137880
11206711 2 18048883991681381998
11471102 20 18410288108397777653
12382932 28 18411415128789989746
12423570 1 14166819059029582572
12524768 44 18340492166396164135
13140716 1 18410573985352197490
13897977 150 18338794619263932069
16945 1 18266740177737313094
193761 8 16681474625089462630
20201158 50 18337388244997079891
20588541 1 18408887343125929933
21501502 16 18194968435258170560
2334 1 18338517563824451682
23402539 116 18198607848921897159
23463225 33 18408602539528563354
23552423 10 18334297569456426262
23559900 14 18054793884984796926
241688 4 18265896865050645896
2748010 2 18411138073456023694
2897 32 18121500416772843692
5084963 1 17914045404636559122
528886 8 18411695512823862594
53812653 166 18270960270826315680
63268167 104 18411704300421882857
66348 1 18411700963121478306
7364860 26 18343301436254291446
8809292 202 18261118443414683922

>  <PUBCHEM_SHAPE_MULTIPOLES>  (1) 
264.64
4.05
2.63
0.59
0.67
0.58
0
-0.58
0
-0.32
0
-0.02
-0.02
0

>  <PUBCHEM_SHAPE_SELFOVERLAP>  (1) 
586.386

>  <PUBCHEM_SHAPE_VOLUME>  (1) 
139.8

>  <PUBCHEM_COORDINATE_TYPE>  (1) 
2
5
10

$$$$
