21042
     RDKit          3D

 18 20  0  0  1  0  0  0  0  0999 V2000
   -1.4440   -3.0416   -0.2714 O   0  0  0  0  0  0  0  0  0  0  0  0
   -1.2826    1.1052    0.0132 N   0  0  0  0  0  0  0  0  0  0  0  0
   -0.0847   -1.4770    0.1704 N   0  0  0  0  0  0  0  0  0  0  0  0
   -0.3413   -2.5756   -0.5750 N   0  0  0  0  0  0  0  0  0  0  0  0
   -1.9415    0.0628    0.8231 C   0  0  0  0  0  0  0  0  0  0  0  0
   -3.1443   -0.5043    0.0470 C   0  0  0  0  0  0  0  0  0  0  0  0
   -2.2024    2.2234   -0.2405 C   0  0  0  0  0  0  0  0  0  0  0  0
   -4.1373    0.6008   -0.3038 C   0  0  0  0  0  0  0  0  0  0  0  0
   -3.4335    1.7496   -1.0151 C   0  0  0  0  0  0  0  0  0  0  0  0
   -0.9775   -1.0539    1.2575 C   0  0  0  0  0  0  0  0  0  0  0  0
   -0.0287    1.5590    0.6257 C   0  0  0  0  0  0  0  0  0  0  0  0
    1.1727    0.6858    0.2873 C   0  0  0  0  0  0  0  0  0  0  0  0
    1.1154   -0.7131    0.0516 C   0  0  0  0  0  0  0  0  0  0  0  0
    2.4173    1.3495    0.2091 C   0  0  0  0  0  0  0  0  0  0  0  0
    2.3179   -1.3661   -0.3138 C   0  0  0  0  0  0  0  0  0  0  0  0
    3.5836    0.6733   -0.1370 C   0  0  0  0  0  0  0  0  0  0  0  0
    3.5323   -0.6847   -0.4069 C   0  0  0  0  0  0  0  0  0  0  0  0
    4.8787    1.4067   -0.2214 C   0  0  0  0  0  0  0  0  0  0  0  0
  1  4  2  0
  2  5  1  0
  2  7  1  0
  2 11  1  0
  3  4  1  0
  3 10  1  0
  3 13  1  0
  5  6  1  0
  5 10  1  0
  6  8  1  0
  7  9  1  0
  8  9  1  0
 11 12  1  0
 12 13  2  0
 12 14  1  0
 13 15  1  0
 14 16  2  0
 15 17  2  0
 16 17  1  0
 16 18  1  0
M  END
>  <PUBCHEM_COMPOUND_CID>  (1) 
21042

>  <PUBCHEM_CONFORMER_RMSD>  (1) 
0.6

>  <PUBCHEM_CONFORMER_DIVERSEORDER>  (1) 
2
12
6
8
11
4
9
3
13
10
14
5
7
1

>  <PUBCHEM_MMFF94_PARTIAL_CHARGES>  (1) 
17
1 -0.16
10 0.37
11 0.41
12 -0.14
13 0.1
14 -0.15
15 -0.15
16 -0.14
17 -0.15
18 0.14
2 -0.81
3 -0.3
32 0.15
33 0.15
34 0.15
5 0.27
7 0.27

>  <PUBCHEM_EFFECTIVE_ROTOR_COUNT>  (1) 
2.4

>  <PUBCHEM_PHARMACOPHORE_FEATURES>  (1) 
4
1 2 cation
6 12 13 14 15 16 17 rings
6 2 5 6 7 8 9 rings
7 2 3 5 10 11 12 13 rings

>  <PUBCHEM_HEAVY_ATOM_COUNT>  (1) 
18

>  <PUBCHEM_ATOM_DEF_STEREO_COUNT>  (1) 
0

>  <PUBCHEM_ATOM_UDEF_STEREO_COUNT>  (1) 
1

>  <PUBCHEM_BOND_DEF_STEREO_COUNT>  (1) 
0

>  <PUBCHEM_BOND_UDEF_STEREO_COUNT>  (1) 
0

>  <PUBCHEM_ISOTOPIC_ATOM_COUNT>  (1) 
0

>  <PUBCHEM_COMPONENT_COUNT>  (1) 
1

>  <PUBCHEM_CACTVS_TAUTO_COUNT>  (1) 
1

>  <PUBCHEM_CONFORMER_ID>  (1) 
0000523200000002

>  <PUBCHEM_MMFF94_ENERGY>  (1) 
53.3429

>  <PUBCHEM_FEATURE_SELFOVERLAP>  (1) 
20.315

>  <PUBCHEM_SHAPE_FINGERPRINT>  (1) 
10498660 4 18040991783380945549
10608611 8 18408605868286791616
10759866 29 18186242823118768874
10967382 1 18412265004144363890
11132069 177 18269838773661689672
11578080 2 16770971405499412291
12077114 3 18334295392087166922
12138202 97 18410011052652212158
12500047 106 18411133671362510504
12730499 353 18191307079440491985
13140716 1 17978801429791153784
13464514 151 17831019031334773085
13583140 156 17313106367009440768
15196674 1 18410575067488510465
15309172 13 18340779164748030627
15375358 24 18411698798911947176
16945 1 18411980307873577144
17357779 13 17840010068807226575
18186145 218 18269845224338714044
19868273 293 18336552698017413542
200 152 17704070672695379280
20510252 161 18343306941806688696
20645476 183 17313107470514900738
20645477 56 18410294756791101376
20645477 70 18272092639307249566
20871999 31 18271235123380038007
21160774 45 18339640143927127599
21524375 3 18188770543862323426
22182313 1 18338254703130571814
23227448 37 18266459995778133916
2334 1 18339083691979825736
23402539 116 18340759412193657124
23402655 69 18343580707332849021
23419403 2 16699476765588475547
23493267 7 17894915135000565072
23557571 272 18198355141767932406
23559900 14 18272653463821584288
238 59 17249732518212779893
25 1 18192430775417156105
2748010 2 18337966596687166672
34934 24 18336543906509379168
4028521 119 18335138691424838860
4175511 318 18260832630510019484
4371632 12 13754109471837911784
5104073 3 18335985281118858568
57005193 9 18411415120690502960
58051976 378 18412259519439939804
633830 44 17986681376250850853
69090 78 18411418418687420002
81228 2 17906162207282504739
9709674 26 18411143541128733078

>  <PUBCHEM_SHAPE_MULTIPOLES>  (1) 
349.62
7.32
2.59
0.87
3.08
1.23
-0.09
-3.44
1.55
-0.83
0.41
-0.32
0.01
0.51

>  <PUBCHEM_SHAPE_SELFOVERLAP>  (1) 
740.664

>  <PUBCHEM_SHAPE_VOLUME>  (1) 
192.4

>  <PUBCHEM_COORDINATE_TYPE>  (1) 
2
5
10

$$$$
