21056
     RDKit          3D

 15 14  0  0  0  0  0  0  0  0999 V2000
    1.3199   -0.3029    1.2891 S   0  0  0  0  0  0  0  0  0  0  0  0
    3.0263   -1.4222   -1.4957 S   0  0  0  0  0  0  0  0  0  0  0  0
    3.0543    1.9144   -0.7098 S   0  0  0  0  0  0  0  0  0  0  0  0
    3.0218   -0.0340    0.0869 P   0  0  0  0  0  0  0  0  0  0  0  0
    4.2528   -0.2436    0.9328 O   0  0  0  0  0  0  0  0  0  0  0  0
   -2.5993    0.0249   -0.0117 N   0  0  0  0  0  0  0  0  0  0  0  0
   -1.4310   -0.1972    0.9380 C   0  0  0  0  0  0  0  0  0  0  0  0
   -2.5705    1.4572   -0.5254 C   0  0  0  0  0  0  0  0  0  0  0  0
   -3.9069   -0.2233    0.7264 C   0  0  0  0  0  0  0  0  0  0  0  0
   -2.4888   -0.9373   -1.1856 C   0  0  0  0  0  0  0  0  0  0  0  0
   -0.1118   -0.0347    0.2008 C   0  0  0  0  0  0  0  0  0  0  0  0
   -3.7340    1.6717   -1.4686 C   0  0  0  0  0  0  0  0  0  0  0  0
   -3.9297   -1.6482    1.2345 C   0  0  0  0  0  0  0  0  0  0  0  0
    3.0229   -3.0513   -0.7216 C   0  0  0  0  0  0  0  0  0  0  0  0
    3.0740    3.0265    0.7100 C   0  0  0  0  0  0  0  0  0  0  0  0
  1  4  1  0
  1 11  1  0
  2  4  1  0
  2 14  1  0
  3  4  1  0
  3 15  1  0
  4  5  2  0
  6  7  1  0
  6  8  1  0
  6  9  1  0
  6 10  1  0
  7 11  1  0
  8 12  1  0
  9 13  1  0
M  CHG  1   6   1
M  END
>  <PUBCHEM_COMPOUND_CID>  (1) 
21056

>  <PUBCHEM_CONFORMER_RMSD>  (1) 
0.8

>  <PUBCHEM_CONFORMER_DIVERSEORDER>  (1) 
1
113
92
170
51
143
58
172
28
50
109
95
15
117
7
101
32
38
75
30
25
8
116
66
44
41
2
81
126
132
156
77
135
4
146
175
57
33
10
29
103
120
14
23
148
35
55
91
54
42
87
122
56
93
13
78
21
106
153
162
6
133
90
127
104
69
27
61
114
12
88
131
136
154
16
125
128
94
107
59
45
141
124
64
43
167
151
52
105
115
3
165
134
40
110
47
39
108
121
74
138
18
123
60
84
119
31
20
72
130
26
137
62
152
145
100
155
80
68
24
79
34
9
5
147
129
48
140
49
160
158
102
46
96
142
166
139
144
163
22
149
53
67
36
19
159
112
82
89
118
111
37
150
157
168
17
65
97
86
11
63
98
99
83
173
85
161
71
73
76
70
171
174
164
169

>  <PUBCHEM_MMFF94_PARTIAL_CHARGES>  (1) 
13
1 -0.48
10 0.5
11 0.23
14 0.23
15 0.23
2 -0.48
3 -0.48
4 1.44
5 -0.7
6 -1.01
7 0.5
8 0.5
9 0.5

>  <PUBCHEM_EFFECTIVE_ROTOR_COUNT>  (1) 
8

>  <PUBCHEM_PHARMACOPHORE_FEATURES>  (1) 
2
1 5 acceptor
1 6 cation

>  <PUBCHEM_HEAVY_ATOM_COUNT>  (1) 
15

>  <PUBCHEM_ATOM_DEF_STEREO_COUNT>  (1) 
0

>  <PUBCHEM_ATOM_UDEF_STEREO_COUNT>  (1) 
0

>  <PUBCHEM_BOND_DEF_STEREO_COUNT>  (1) 
0

>  <PUBCHEM_BOND_UDEF_STEREO_COUNT>  (1) 
0

>  <PUBCHEM_ISOTOPIC_ATOM_COUNT>  (1) 
0

>  <PUBCHEM_COMPONENT_COUNT>  (1) 
1

>  <PUBCHEM_CACTVS_TAUTO_COUNT>  (1) 
1

>  <PUBCHEM_CONFORMER_ID>  (1) 
0000524000000001

>  <PUBCHEM_MMFF94_ENERGY>  (1) 
30.8472

>  <PUBCHEM_FEATURE_SELFOVERLAP>  (1) 
10.148

>  <PUBCHEM_SHAPE_FINGERPRINT>  (1) 
11715629 250 18337105786552155180
12173636 292 17676478420449756871
12932764 1 16415480441290498257
13296908 3 18340491075474438375
15806764 133 18335714788463232701
17041 50 18265052427562633532
18186145 218 18260554402502217376
20645477 56 18114180796653628877
20645477 70 17845931814790121614
20671657 53 18056774121962569310
22943178 12 18334296461391611725
23557571 272 17894634777010587597
23559900 14 18338796702412936378
3286 77 17603581945999645986
5281201 14 18410299081611899036
58051976 100 18342745125945978087
58051976 378 18334007332593808514
6049 1 18261965076052431621
621550 34 18265903642682995161

>  <PUBCHEM_SHAPE_MULTIPOLES>  (1) 
313.24
9.23
2.86
1.53
2.63
0.34
0.17
-0.06
0.26
-3.05
0.55
0.29
-0.16
2.08

>  <PUBCHEM_SHAPE_SELFOVERLAP>  (1) 
517.323

>  <PUBCHEM_SHAPE_VOLUME>  (1) 
220.8

>  <PUBCHEM_COORDINATE_TYPE>  (1) 
2
5
10

$$$$
