21068
     RDKit          3D

 33 37  0  0  1  0  0  0  0  0999 V2000
   -8.4423   -1.5105    0.0029 Br  0  0  0  0  0  0  0  0  0  0  0  0
    2.9189    1.4249   -0.2979 O   0  0  0  0  0  0  0  0  0  0  0  0
   -3.4245    1.8592   -1.2866 O   0  0  0  0  0  0  0  0  0  0  0  0
   -5.1090    0.6976    0.6976 O   0  0  0  0  0  0  0  0  0  0  0  0
   -2.3349   -0.8187   -3.0771 O   0  0  0  0  0  0  0  0  0  0  0  0
    7.1214   -0.6878   -0.3970 O   0  0  0  0  0  0  0  0  0  0  0  0
    7.5814    1.5242    0.0410 O   0  0  0  0  0  0  0  0  0  0  0  0
   -6.2844   -0.8174    1.9743 O   0  0  0  0  0  0  0  0  0  0  0  0
    1.9838    0.4427    0.1735 C   0  0  0  0  0  0  0  0  0  0  0  0
    0.5950    0.7621   -0.4450 C   0  0  0  0  0  0  0  0  0  0  0  0
    2.5033   -0.9856   -0.1426 C   0  0  0  0  0  0  0  0  0  0  0  0
   -0.4771   -0.3292   -0.1720 C   0  0  0  0  0  0  0  0  0  0  0  0
   -1.8549    0.0117   -0.8540 C   0  0  0  0  0  0  0  0  0  0  0  0
   -2.3343    1.4454   -0.4463 C   0  0  0  0  0  0  0  0  0  0  0  0
    3.6555   -1.1772    0.8941 C   0  0  0  0  0  0  0  0  0  0  0  0
    1.3938   -2.0321    0.1454 C   0  0  0  0  0  0  0  0  0  0  0  0
    0.0678   -1.7229   -0.5464 C   0  0  0  0  0  0  0  0  0  0  0  0
    2.0355    0.5095    1.7111 C   0  0  0  0  0  0  0  0  0  0  0  0
    0.0932    2.1503   -0.0075 C   0  0  0  0  0  0  0  0  0  0  0  0
   -1.2384    2.5073   -0.6526 C   0  0  0  0  0  0  0  0  0  0  0  0
    3.1677   -0.4305    2.1500 C   0  0  0  0  0  0  0  0  0  0  0  0
   -2.9625   -1.0242   -0.5127 C   0  0  0  0  0  0  0  0  0  0  0  0
    2.9824   -1.1600   -1.5979 C   0  0  0  0  0  0  0  0  0  0  0  0
   -2.8349    1.4865    1.0231 C   0  0  0  0  0  0  0  0  0  0  0  0
   -3.4112   -0.9782    0.9470 C   0  0  0  0  0  0  0  0  0  0  0  0
   -3.8771    0.4140    1.3568 C   0  0  0  0  0  0  0  0  0  0  0  0
   -1.6855   -0.0640   -2.3609 C   0  0  0  0  0  0  0  0  0  0  0  0
    5.0069   -0.6696    0.4802 C   0  0  0  0  0  0  0  0  0  0  0  0
    5.9975   -1.5465   -0.1767 C   0  0  0  0  0  0  0  0  0  0  0  0
    5.4827    0.5632    0.6337 C   0  0  0  0  0  0  0  0  0  0  0  0
    6.8358    0.5604    0.0753 C   0  0  0  0  0  0  0  0  0  0  0  0
   -6.1328   -0.1824    0.9403 C   0  0  0  0  0  0  0  0  0  0  0  0
   -7.0189   -0.2226   -0.2732 C   0  0  0  0  0  0  0  0  0  0  0  0
  1 33  1  0
  2  9  1  0
  3 14  1  0
  4 26  1  0
  4 32  1  0
  5 27  2  0
  6 29  1  0
  6 31  1  0
  7 31  2  0
  8 32  2  0
  9 10  1  0
  9 11  1  0
  9 18  1  0
 10 12  1  0
 10 19  1  0
 11 15  1  0
 11 16  1  0
 11 23  1  0
 12 13  1  0
 12 17  1  0
 13 14  1  0
 13 22  1  0
 13 27  1  0
 14 20  1  0
 14 24  1  0
 15 21  1  0
 15 28  1  0
 16 17  1  0
 18 21  1  0
 19 20  1  0
 22 25  1  0
 24 26  1  0
 25 26  1  0
 28 29  1  0
 28 30  2  0
 30 31  1  0
 32 33  1  0
M  END
>  <PUBCHEM_COMPOUND_CID>  (1) 
21068

>  <PUBCHEM_CONFORMER_RMSD>  (1) 
1

>  <PUBCHEM_CONFORMER_DIVERSEORDER>  (1) 
1
64
10
31
5
3
37
9
54
47
56
26
15
55
61
8
49
52
14
34
51
30
43
35
63
12
13
33
53
41
60
4
46
11
48
45
18
38
25
21
32
62
40
39
2
16
57
7
17
58
20
23
36
29
50
22
6
27
28
59
42
44
24
19

>  <PUBCHEM_MMFF94_PARTIAL_CHARGES>  (1) 
24
1 -0.23
13 0.06
14 0.28
15 0.14
2 -0.68
26 0.28
27 0.45
28 -0.28
29 0.42
3 -0.68
30 -0.14
31 0.71
32 0.66
33 0.29
4 -0.43
5 -0.57
59 0.4
6 -0.43
60 0.06
61 0.4
64 0.15
7 -0.57
8 -0.57
9 0.28

>  <PUBCHEM_EFFECTIVE_ROTOR_COUNT>  (1) 
7.6

>  <PUBCHEM_PHARMACOPHORE_FEATURES>  (1) 
13
1 1 hydrophobe
1 2 acceptor
1 2 donor
1 3 acceptor
1 3 donor
1 5 acceptor
1 7 acceptor
1 8 acceptor
5 6 28 29 30 31 rings
5 9 11 15 18 21 rings
6 10 12 13 14 19 20 rings
6 13 14 22 24 25 26 rings
6 9 10 11 12 16 17 rings

>  <PUBCHEM_HEAVY_ATOM_COUNT>  (1) 
33

>  <PUBCHEM_ATOM_DEF_STEREO_COUNT>  (1) 
6

>  <PUBCHEM_ATOM_UDEF_STEREO_COUNT>  (1) 
2

>  <PUBCHEM_BOND_DEF_STEREO_COUNT>  (1) 
0

>  <PUBCHEM_BOND_UDEF_STEREO_COUNT>  (1) 
0

>  <PUBCHEM_ISOTOPIC_ATOM_COUNT>  (1) 
0

>  <PUBCHEM_COMPONENT_COUNT>  (1) 
1

>  <PUBCHEM_CACTVS_TAUTO_COUNT>  (1) 
1

>  <PUBCHEM_CONFORMER_ID>  (1) 
0000524C00000001

>  <PUBCHEM_MMFF94_ENERGY>  (1) 
110.3302

>  <PUBCHEM_FEATURE_SELFOVERLAP>  (1) 
66.207

>  <PUBCHEM_SHAPE_FINGERPRINT>  (1) 
10 15 18259983795365873472
10165383 225 16917072161076933342
106641 1 18412265064231617411
11135609 99 18267025141230353255
12107698 1 17894632551912008268
12236239 1 17775566433608422443
12596602 18 17603582985524260712
13224815 77 18341038641065768180
13782708 43 18126576621419732879
13914758 101 12540690418639115471
14068700 675 14057007143397723039
14251764 18 17846500344016407547
1454969 45 18408325496768198091
14849402 71 17845936337512186024
14856354 85 18336275599554673558
14955137 171 18342181080886925936
15183329 4 13542469756979235362
15840311 113 18335987553963770068
15849732 13 18202565085901727813
17980427 23 12757438194158953406
18608769 82 18201999949731234271
200 152 13695594338431556403
21033648 29 17130975469929527033
21223535 225 11242237572782919427
21267235 1 18410577275096406389
22224240 67 18407760352113284874
23559900 14 11170494468427853559
23622692 88 16917065564197083665
2838139 119 12319449970659127851
3009799 131 11891336456371955691
34797466 226 18343588443602683764
350125 39 18342457053883507440
3633792 109 15140956241155749795
4093350 32 15554446340956724408
4098825 35 13183015237519221085
4325135 7 17603871104825771424
4340502 62 15698287711866058879
504579 68 8718537364275273258
5104073 3 18192994811786021608
5283156 175 13551183385980656792
5385378 56 11671793645228311989
563151 248 17418089936405807703
59755656 215 18040435468867062490
59755656 520 16056873629049209533
6081469 158 17967812756744968191

>  <PUBCHEM_SHAPE_MULTIPOLES>  (1) 
643.98
18.65
1.98
1.73
4.61
0.52
0.46
-4.3
-3.99
0.08
0.31
1.12
-0.22
0.28

>  <PUBCHEM_SHAPE_SELFOVERLAP>  (1) 
1380.465

>  <PUBCHEM_SHAPE_VOLUME>  (1) 
363.2

>  <PUBCHEM_COORDINATE_TYPE>  (1) 
2
5
10

$$$$
