21063
     RDKit          3D

 11 11  0  0  1  0  0  0  0  0999 V2000
    2.5958   -1.2826   -0.5371 O   0  0  0  0  0  0  0  0  0  0  0  0
   -0.3277    0.6225    0.0808 C   0  0  0  0  0  0  0  0  0  0  0  0
   -1.3064   -0.4526    0.5971 C   0  0  0  0  0  0  0  0  0  0  0  0
    0.8005   -0.1967    0.7417 C   0  0  0  0  0  0  0  0  0  0  0  0
   -0.1134   -1.4310    0.5933 C   0  0  0  0  0  0  0  0  0  0  0  0
   -2.4316   -0.8624   -0.3503 C   0  0  0  0  0  0  0  0  0  0  0  0
   -0.5006    2.0060    0.6663 C   0  0  0  0  0  0  0  0  0  0  0  0
   -0.2744    0.7003   -1.4336 C   0  0  0  0  0  0  0  0  0  0  0  0
    2.1673   -0.2513   -0.0067 C   0  0  0  0  0  0  0  0  0  0  0  0
   -3.5838    0.1270   -0.2779 C   0  0  0  0  0  0  0  0  0  0  0  0
    2.9742    1.0208   -0.0737 C   0  0  0  0  0  0  0  0  0  0  0  0
  1  9  2  0
  2  3  1  0
  2  4  1  0
  2  7  1  0
  2  8  1  0
  3  5  1  0
  3  6  1  0
  4  5  1  0
  4  9  1  0
  6 10  1  0
  9 11  1  0
M  END
>  <PUBCHEM_COMPOUND_CID>  (1) 
21063

>  <PUBCHEM_CONFORMER_RMSD>  (1) 
0.6

>  <PUBCHEM_CONFORMER_DIVERSEORDER>  (1) 
5
3
2
4
6
1
7
8

>  <PUBCHEM_MMFF94_PARTIAL_CHARGES>  (1) 
4
1 -0.57
11 0.06
4 0.05
9 0.46

>  <PUBCHEM_EFFECTIVE_ROTOR_COUNT>  (1) 
2.8

>  <PUBCHEM_PHARMACOPHORE_FEATURES>  (1) 
4
1 1 acceptor
1 10 hydrophobe
3 2 7 8 hydrophobe
4 2 3 4 5 rings

>  <PUBCHEM_HEAVY_ATOM_COUNT>  (1) 
11

>  <PUBCHEM_ATOM_DEF_STEREO_COUNT>  (1) 
2

>  <PUBCHEM_ATOM_UDEF_STEREO_COUNT>  (1) 
0

>  <PUBCHEM_BOND_DEF_STEREO_COUNT>  (1) 
0

>  <PUBCHEM_BOND_UDEF_STEREO_COUNT>  (1) 
0

>  <PUBCHEM_ISOTOPIC_ATOM_COUNT>  (1) 
0

>  <PUBCHEM_COMPONENT_COUNT>  (1) 
1

>  <PUBCHEM_CACTVS_TAUTO_COUNT>  (1) 
3

>  <PUBCHEM_CONFORMER_ID>  (1) 
0000524700000005

>  <PUBCHEM_MMFF94_ENERGY>  (1) 
20.8849

>  <PUBCHEM_FEATURE_SELFOVERLAP>  (1) 
20.297

>  <PUBCHEM_SHAPE_FINGERPRINT>  (1) 
10219947 1 17917713517577393959
11062470 55 18409166644685684541
12423570 1 17028837702744933201
12897270 3 18408888425442124118
13024252 1 12612759025004650296
14128692 85 18188213220669624167
14993402 34 17274821406373727173
15310529 11 17703788094228305260
16945 1 18261964036570119312
18186145 218 18113897143685238231
20201158 50 18410011069953485066
20653085 51 16660374674634728471
21293036 1 18261108616750627727
21501502 16 18128829555388892904
23402539 116 18338502115164503310
23402655 69 18263906814425737749
23552423 10 18337112241945906490
2748010 2 17618509117521550240
29004967 10 18201999975247486178
369184 2 18272654532461157066
5084963 1 17749673970067105282
528886 8 18411975901231941123
68250623 7 17772200716719887457

>  <PUBCHEM_SHAPE_MULTIPOLES>  (1) 
220.51
4.33
1.56
1
0.59
0.31
0.17
-0.24
0.73
-0.22
-0.21
0.06
0.13
0.08

>  <PUBCHEM_SHAPE_SELFOVERLAP>  (1) 
432.849

>  <PUBCHEM_SHAPE_VOLUME>  (1) 
135.6

>  <PUBCHEM_COORDINATE_TYPE>  (1) 
2
5
10

$$$$
