21079
     RDKit          3D

 21 23  0  0  0  0  0  0  0  0999 V2000
    2.0481    3.7468    0.3762 O   0  0  0  0  0  0  0  0  0  0  0  0
   -1.4709    0.3332   -0.4252 N   0  0  0  0  0  0  0  0  0  0  0  0
    0.4117    1.5323   -0.1373 N   0  0  0  0  0  0  0  0  0  0  0  0
    0.5862   -0.7981   -0.5436 N   0  0  0  0  0  0  0  0  0  0  0  0
   -2.3132   -0.8235   -0.6645 C   0  0  0  0  0  0  0  0  0  0  0  0
   -3.5848   -0.4034   -1.4085 C   0  0  0  0  0  0  0  0  0  0  0  0
   -2.6408   -1.5187    0.6608 C   0  0  0  0  0  0  0  0  0  0  0  0
    2.0508   -0.7055   -0.4682 C   0  0  0  0  0  0  0  0  0  0  0  0
   -4.5453    0.4002   -0.5317 C   0  0  0  0  0  0  0  0  0  0  0  0
   -3.6047   -0.7111    1.5302 C   0  0  0  0  0  0  0  0  0  0  0  0
   -4.8695   -0.3318    0.7666 C   0  0  0  0  0  0  0  0  0  0  0  0
    2.6657   -1.7532   -1.3966 C   0  0  0  0  0  0  0  0  0  0  0  0
    2.4932   -0.8911    0.9839 C   0  0  0  0  0  0  0  0  0  0  0  0
    2.4742   -3.1809   -0.8858 C   0  0  0  0  0  0  0  0  0  0  0  0
    2.3021   -2.3238    1.4810 C   0  0  0  0  0  0  0  0  0  0  0  0
    2.9627   -3.3361    0.5508 C   0  0  0  0  0  0  0  0  0  0  0  0
   -0.0905    0.2998   -0.3760 C   0  0  0  0  0  0  0  0  0  0  0  0
    0.4698    2.1029    1.2062 C   0  0  0  0  0  0  0  0  0  0  0  0
    0.7497    2.4578   -1.2158 C   0  0  0  0  0  0  0  0  0  0  0  0
    1.8189    2.7825    1.4069 C   0  0  0  0  0  0  0  0  0  0  0  0
    2.0865    3.1216   -0.9093 C   0  0  0  0  0  0  0  0  0  0  0  0
  1 20  1  0
  1 21  1  0
  2  5  1  0
  2 17  1  0
  3 17  1  0
  3 18  1  0
  3 19  1  0
  4  8  1  0
  4 17  2  0
  5  6  1  0
  5  7  1  0
  6  9  1  0
  7 10  1  0
  8 12  1  0
  8 13  1  0
  9 11  1  0
 10 11  1  0
 12 14  1  0
 13 15  1  0
 14 16  1  0
 15 16  1  0
 18 20  1  0
 19 21  1  0
M  END
>  <PUBCHEM_COMPOUND_CID>  (1) 
21079

>  <PUBCHEM_CONFORMER_RMSD>  (1) 
0.8

>  <PUBCHEM_CONFORMER_DIVERSEORDER>  (1) 
1
43
35
33
36
46
3
5
41
23
31
44
22
34
32
38
40
9
42
10
7
12
19
13
6
14
37
2
29
45
28
20
8
11
25
27
15
21
39
17
26
30
16
24
18
4

>  <PUBCHEM_MMFF94_PARTIAL_CHARGES>  (1) 
12
1 -0.56
17 0.55
18 0.37
19 0.37
2 -0.82
20 0.28
21 0.28
3 -0.79
4 -0.7
44 0.4
5 0.37
8 0.25

>  <PUBCHEM_EFFECTIVE_ROTOR_COUNT>  (1) 
7.6

>  <PUBCHEM_PHARMACOPHORE_FEATURES>  (1) 
6
1 1 acceptor
1 2 donor
4 2 3 4 17 cation
6 1 3 18 19 20 21 rings
6 5 6 7 9 10 11 rings
6 8 12 13 14 15 16 rings

>  <PUBCHEM_HEAVY_ATOM_COUNT>  (1) 
21

>  <PUBCHEM_ATOM_DEF_STEREO_COUNT>  (1) 
0

>  <PUBCHEM_ATOM_UDEF_STEREO_COUNT>  (1) 
0

>  <PUBCHEM_BOND_DEF_STEREO_COUNT>  (1) 
0

>  <PUBCHEM_BOND_UDEF_STEREO_COUNT>  (1) 
0

>  <PUBCHEM_ISOTOPIC_ATOM_COUNT>  (1) 
0

>  <PUBCHEM_COMPONENT_COUNT>  (1) 
1

>  <PUBCHEM_CACTVS_TAUTO_COUNT>  (1) 
1

>  <PUBCHEM_CONFORMER_ID>  (1) 
0000525700000001

>  <PUBCHEM_MMFF94_ENERGY>  (1) 
38.593

>  <PUBCHEM_FEATURE_SELFOVERLAP>  (1) 
30.446

>  <PUBCHEM_SHAPE_FINGERPRINT>  (1) 
11578080 2 17604134927133825956
12160290 23 17475512772694590676
12363563 72 18266175028708337127
12549972 3 18113060424528056345
12553582 1 18269559351152417087
12707595 3 18335424526025807807
12788726 201 17902794055100553074
13134695 92 18343012260095381157
13140716 1 18122904489021647290
133893 2 18122032515981563455
13533116 47 18340212994434742259
13681431 1 18411700976159387020
14022347 108 18196670496375150959
14178342 30 17977104892350749707
14866123 147 16823898141670609011
15042514 8 17618510882700055911
17818456 19 17702952409905183609
1813 80 18271250391472076751
20369508 70 18334852797364870919
20600515 1 18270117894511298162
20645477 70 18337946891841560047
21120745 212 17909290000426123212
21421861 104 18341058457728822529
21524375 3 17690840481253856028
2255824 54 18338517555097204918
22849341 161 17984728656716632355
23175994 123 18263364686067929415
23419403 2 17683479002198953524
23526113 38 18114170896379536679
23557571 272 18050558548555525406
23559900 14 17749112218741895247
3091708 16 9215158139729679812
314173 41 18336272245111602615
314173 85 18198623220425577238
5895379 119 16699800890102385497
6049 1 17967531281599400813
633830 44 17699301163274877221
7364860 26 18341897436687590300
7615 1 17632576089431134549
81228 2 17836085572146002872
9841814 1 18409730629805644355

>  <PUBCHEM_SHAPE_MULTIPOLES>  (1) 
411.36
7.29
4.36
1.54
10
2.56
-0.17
-4.17
-0.47
-6.35
-0.34
-0.09
-0.03
0.38

>  <PUBCHEM_SHAPE_SELFOVERLAP>  (1) 
832.143

>  <PUBCHEM_SHAPE_VOLUME>  (1) 
236.6

>  <PUBCHEM_COORDINATE_TYPE>  (1) 
2
5
10

$$$$
