2107
     RDKit          3D

 14 15  0  0  1  0  0  0  0  0999 V2000
   -3.0553   -2.4224   -0.0608 O   0  0  0  0  0  0  0  0  0  0  0  0
   -0.3273    2.3325    0.0255 N   0  0  0  0  0  0  0  0  0  0  0  0
    3.9617   -1.6955    0.1164 N   0  0  0  0  0  0  0  0  0  0  0  0
    2.0530   -0.3045    0.8695 C   0  0  0  0  0  0  0  0  0  0  0  0
    0.9033    0.5498    0.5099 C   0  0  0  0  0  0  0  0  0  0  0  0
    2.8678   -0.8329   -0.3400 C   0  0  0  0  0  0  0  0  0  0  0  0
   -0.4274    0.1155    0.2537 C   0  0  0  0  0  0  0  0  0  0  0  0
   -1.1789    1.2533   -0.0475 C   0  0  0  0  0  0  0  0  0  0  0  0
    0.9332    1.9173    0.3616 C   0  0  0  0  0  0  0  0  0  0  0  0
   -1.0664   -1.1403    0.2491 C   0  0  0  0  0  0  0  0  0  0  0  0
    3.4658    0.2988   -1.1758 C   0  0  0  0  0  0  0  0  0  0  0  0
   -2.5432    1.1978   -0.3540 C   0  0  0  0  0  0  0  0  0  0  0  0
   -2.4305   -1.2110   -0.0557 C   0  0  0  0  0  0  0  0  0  0  0  0
   -3.1557   -0.0586   -0.3520 C   0  0  0  0  0  0  0  0  0  0  0  0
  1 13  1  0
  2  8  1  0
  2  9  1  0
  3  6  1  0
  4  5  1  0
  4  6  1  0
  5  7  1  0
  5  9  2  0
  6 11  1  0
  7  8  2  0
  7 10  1  0
  8 12  1  0
 10 13  2  0
 12 14  2  0
 13 14  1  0
M  END
>  <PUBCHEM_COMPOUND_CID>  (1) 
2107

>  <PUBCHEM_CONFORMER_RMSD>  (1) 
0.6

>  <PUBCHEM_CONFORMER_DIVERSEORDER>  (1) 
1
10
11
9
4
5
8
7
3
6
2

>  <PUBCHEM_MMFF94_PARTIAL_CHARGES>  (1) 
20
1 -0.53
10 -0.15
12 -0.15
13 0.08
14 -0.15
18 0.15
19 0.27
2 0.03
23 0.15
24 0.15
25 0.36
26 0.36
27 0.15
28 0.45
3 -0.99
4 0.18
5 -0.18
6 0.27
8 -0.15
9 -0.3

>  <PUBCHEM_EFFECTIVE_ROTOR_COUNT>  (1) 
2

>  <PUBCHEM_PHARMACOPHORE_FEATURES>  (1) 
7
1 1 donor
1 2 cation
1 2 donor
1 3 cation
1 3 donor
5 2 5 7 8 9 rings
6 7 8 10 12 13 14 rings

>  <PUBCHEM_HEAVY_ATOM_COUNT>  (1) 
14

>  <PUBCHEM_ATOM_DEF_STEREO_COUNT>  (1) 
0

>  <PUBCHEM_ATOM_UDEF_STEREO_COUNT>  (1) 
1

>  <PUBCHEM_BOND_DEF_STEREO_COUNT>  (1) 
0

>  <PUBCHEM_BOND_UDEF_STEREO_COUNT>  (1) 
0

>  <PUBCHEM_ISOTOPIC_ATOM_COUNT>  (1) 
0

>  <PUBCHEM_COMPONENT_COUNT>  (1) 
1

>  <PUBCHEM_CACTVS_TAUTO_COUNT>  (1) 
8

>  <PUBCHEM_CONFORMER_ID>  (1) 
0000083B00000001

>  <PUBCHEM_MMFF94_ENERGY>  (1) 
15.0786

>  <PUBCHEM_FEATURE_SELFOVERLAP>  (1) 
35.614

>  <PUBCHEM_SHAPE_FINGERPRINT>  (1) 
10465860 71 18339656593620346460
11127187 94 18409167679904730463
11206711 2 18261663840131561469
11769659 78 18272085045483232095
12032990 46 18410855482004061451
13296908 3 18342171202250667618
14115302 16 18261957340848006308
14128692 85 18336830878480083373
14911166 2 18337379449394590461
161256 15 18194399120036869441
16945 1 18337379449152023153
17990270 104 18266733778214819801
18186145 218 16008753506859614010
20201158 50 18201436922320526726
20281407 28 18343303669310257402
20281475 54 18412549820526535578
20645476 183 17677893431331566203
20645477 70 17905594855309851831
20711983 138 18131628959026815489
20871998 22 18339920544840196003
20871999 31 18334858329060818967
21501502 16 18339366369573824285
22213442 358 18340486767711761892
22721475 48 18273217477945602710
23382010 3 17168711963067018818
23552423 10 18188487016139353377
23557571 272 18059011662795834272
23559900 14 18269264674405788514
2748010 2 18265600156199592809
7364860 26 18054788656822583312
81228 2 17629490691936504240
8809292 202 18408886226334589635

>  <PUBCHEM_SHAPE_MULTIPOLES>  (1) 
272.28
5.88
2.19
0.83
2.87
0.04
-0.06
-3.05
-1.31
-0.78
0.07
0.46
0.05
0

>  <PUBCHEM_SHAPE_SELFOVERLAP>  (1) 
583.463

>  <PUBCHEM_SHAPE_VOLUME>  (1) 
152.7

>  <PUBCHEM_COORDINATE_TYPE>  (1) 
2
5
10

$$$$
