21088
     RDKit          3D

 11 10  0  0  0  0  0  0  0  0999 V2000
    3.5786   -1.7562   -0.2963 O   0  0  0  0  0  0  0  0  0  0  0  0
    0.2688    3.6560   -0.0427 O   0  0  0  0  0  0  0  0  0  0  0  0
    0.3171   -0.0431    0.0510 N   0  0  0  0  0  0  0  0  0  0  0  0
   -3.9302   -0.8401   -0.5978 N   0  0  0  0  0  0  0  0  0  0  0  0
   -0.3894   -1.0092    0.8832 C   0  0  0  0  0  0  0  0  0  0  0  0
   -1.9078   -0.8223    0.8136 C   0  0  0  0  0  0  0  0  0  0  0  0
    1.7641   -0.2473    0.1388 C   0  0  0  0  0  0  0  0  0  0  0  0
   -0.0269    1.3249    0.4437 C   0  0  0  0  0  0  0  0  0  0  0  0
   -2.5010   -0.9912   -0.5838 C   0  0  0  0  0  0  0  0  0  0  0  0
    2.1653   -1.6201   -0.3693 C   0  0  0  0  0  0  0  0  0  0  0  0
    0.6612    2.3487   -0.4405 C   0  0  0  0  0  0  0  0  0  0  0  0
  1 10  1  0
  2 11  1  0
  3  5  1  0
  3  7  1  0
  3  8  1  0
  4  9  1  0
  5  6  1  0
  6  9  1  0
  7 10  1  0
  8 11  1  0
M  END
>  <PUBCHEM_COMPOUND_CID>  (1) 
21088

>  <PUBCHEM_CONFORMER_RMSD>  (1) 
0.6

>  <PUBCHEM_CONFORMER_DIVERSEORDER>  (1) 
1
49
68
77
21
74
50
69
76
63
54
10
31
38
80
79
34
59
67
73
66
72
30
70
40
42
14
51
12
75
32
71
3
44
65
60
64
5
37
62
52
53
20
55
57
35
23
24
58
11
22
28
78
61
7
39
36
46
47
33
56
48
9
25
43
27
17
16
15
29
8
2
6
18
45
41
4
19
13
26

>  <PUBCHEM_MMFF94_PARTIAL_CHARGES>  (1) 
14
1 -0.68
10 0.28
11 0.28
2 -0.68
26 0.36
27 0.36
28 0.4
29 0.4
3 -0.81
4 -0.99
5 0.27
7 0.27
8 0.27
9 0.27

>  <PUBCHEM_EFFECTIVE_ROTOR_COUNT>  (1) 
7

>  <PUBCHEM_PHARMACOPHORE_FEATURES>  (1) 
7
1 1 acceptor
1 1 donor
1 2 acceptor
1 2 donor
1 3 cation
1 4 cation
1 4 donor

>  <PUBCHEM_HEAVY_ATOM_COUNT>  (1) 
11

>  <PUBCHEM_ATOM_DEF_STEREO_COUNT>  (1) 
0

>  <PUBCHEM_ATOM_UDEF_STEREO_COUNT>  (1) 
0

>  <PUBCHEM_BOND_DEF_STEREO_COUNT>  (1) 
0

>  <PUBCHEM_BOND_UDEF_STEREO_COUNT>  (1) 
0

>  <PUBCHEM_ISOTOPIC_ATOM_COUNT>  (1) 
0

>  <PUBCHEM_COMPONENT_COUNT>  (1) 
1

>  <PUBCHEM_CACTVS_TAUTO_COUNT>  (1) 
1

>  <PUBCHEM_CONFORMER_ID>  (1) 
0000526000000001

>  <PUBCHEM_MMFF94_ENERGY>  (1) 
9.9777

>  <PUBCHEM_FEATURE_SELFOVERLAP>  (1) 
35.522

>  <PUBCHEM_SHAPE_FINGERPRINT>  (1) 
1 1 17833838544030635492
14648413 74 18118964930374996803
15477762 27 18269549597624384111
17041 50 18336531764647454487
18410436 195 18342454846085694376
20653085 51 14418717855858658478
20671657 53 18341897389506487351
20711985 344 18119527639704735162
20871998 184 17907597829923071480
21524375 3 17180511002744281225
23211744 41 17248079252061194987
23532345 88 18126835221874872023
3250762 1 17828492701290600627
58734987 140 18410859888287020780
58734987 36 18409444799637130463
76951 1 17385988598783158104
81228 2 18191594038488884408
9939556 21 18128815421031628823

>  <PUBCHEM_SHAPE_MULTIPOLES>  (1) 
204.67
4.53
3.09
0.85
2.32
3.9
-0.08
-3.86
1.31
-2.02
0.32
0.31
-0.14
0.09

>  <PUBCHEM_SHAPE_SELFOVERLAP>  (1) 
369.759

>  <PUBCHEM_SHAPE_VOLUME>  (1) 
132.4

>  <PUBCHEM_COORDINATE_TYPE>  (1) 
2
5
10

$$$$
