21080
     RDKit          3D

 23 26  0  0  0  0  0  0  0  0999 V2000
    0.8029   -0.3755   -2.2049 S   0  0  0  0  0  0  0  0  0  0  0  0
   -1.9457   -1.3879   -1.4201 S   0  0  0  0  0  0  0  0  0  0  0  0
    1.8259   -0.2492   -0.8853 N   0  0  0  0  0  0  0  0  0  0  0  0
   -1.0083    0.9075   -0.7098 N   0  0  0  0  0  0  0  0  0  0  0  0
    1.7948    0.9876   -0.1072 C   0  0  0  0  0  0  0  0  0  0  0  0
    1.9285   -1.3937    0.0179 C   0  0  0  0  0  0  0  0  0  0  0  0
    3.0773    1.1131    0.7227 C   0  0  0  0  0  0  0  0  0  0  0  0
    1.6228    2.1883   -1.0439 C   0  0  0  0  0  0  0  0  0  0  0  0
    0.7216   -1.4219    0.9621 C   0  0  0  0  0  0  0  0  0  0  0  0
    2.0261   -2.6905   -0.7933 C   0  0  0  0  0  0  0  0  0  0  0  0
    3.1155    2.4326    1.4920 C   0  0  0  0  0  0  0  0  0  0  0  0
    1.6623    3.5062   -0.2721 C   0  0  0  0  0  0  0  0  0  0  0  0
    0.7548   -2.6491    1.8713 C   0  0  0  0  0  0  0  0  0  0  0  0
    2.0584   -3.9159    0.1184 C   0  0  0  0  0  0  0  0  0  0  0  0
    2.9325    3.6305    0.5645 C   0  0  0  0  0  0  0  0  0  0  0  0
    0.8641   -3.9422    1.0681 C   0  0  0  0  0  0  0  0  0  0  0  0
   -0.7492   -0.1808   -1.3773 C   0  0  0  0  0  0  0  0  0  0  0  0
   -2.9536   -0.3862   -0.4436 C   0  0  0  0  0  0  0  0  0  0  0  0
   -2.2792    0.8059   -0.1630 C   0  0  0  0  0  0  0  0  0  0  0  0
   -4.2479   -0.6373    0.0395 C   0  0  0  0  0  0  0  0  0  0  0  0
   -2.9253    1.7796    0.6292 C   0  0  0  0  0  0  0  0  0  0  0  0
   -4.8647    0.3427    0.8212 C   0  0  0  0  0  0  0  0  0  0  0  0
   -4.2138    1.5362    1.1134 C   0  0  0  0  0  0  0  0  0  0  0  0
  1  3  1  0
  1 17  1  0
  2 17  1  0
  2 18  1  0
  3  5  1  0
  3  6  1  0
  4 17  2  0
  4 19  1  0
  5  7  1  0
  5  8  1  0
  6  9  1  0
  6 10  1  0
  7 11  1  0
  8 12  1  0
  9 13  1  0
 10 14  1  0
 11 15  1  0
 12 15  1  0
 13 16  1  0
 14 16  1  0
 18 19  2  0
 18 20  1  0
 19 21  1  0
 20 22  2  0
 21 23  2  0
 22 23  1  0
M  END
>  <PUBCHEM_COMPOUND_CID>  (1) 
21080

>  <PUBCHEM_CONFORMER_RMSD>  (1) 
0.8

>  <PUBCHEM_CONFORMER_DIVERSEORDER>  (1) 
1
2
5
3
4

>  <PUBCHEM_MMFF94_PARTIAL_CHARGES>  (1) 
17
1 -0.04
17 0.43
18 0.04
19 0.23
2 -0.08
20 -0.15
21 -0.15
22 -0.15
23 -0.15
3 -0.56
4 -0.57
46 0.15
47 0.15
48 0.15
49 0.15
5 0.27
6 0.27

>  <PUBCHEM_EFFECTIVE_ROTOR_COUNT>  (1) 
6.4

>  <PUBCHEM_PHARMACOPHORE_FEATURES>  (1) 
5
1 4 acceptor
5 2 4 17 18 19 rings
6 18 19 20 21 22 23 rings
6 5 7 8 11 12 15 rings
6 6 9 10 13 14 16 rings

>  <PUBCHEM_HEAVY_ATOM_COUNT>  (1) 
23

>  <PUBCHEM_ATOM_DEF_STEREO_COUNT>  (1) 
0

>  <PUBCHEM_ATOM_UDEF_STEREO_COUNT>  (1) 
0

>  <PUBCHEM_BOND_DEF_STEREO_COUNT>  (1) 
0

>  <PUBCHEM_BOND_UDEF_STEREO_COUNT>  (1) 
0

>  <PUBCHEM_ISOTOPIC_ATOM_COUNT>  (1) 
0

>  <PUBCHEM_COMPONENT_COUNT>  (1) 
1

>  <PUBCHEM_CACTVS_TAUTO_COUNT>  (1) 
1

>  <PUBCHEM_CONFORMER_ID>  (1) 
0000525800000001

>  <PUBCHEM_MMFF94_ENERGY>  (1) 
49.9964

>  <PUBCHEM_FEATURE_SELFOVERLAP>  (1) 
25.446

>  <PUBCHEM_SHAPE_FINGERPRINT>  (1) 
10090160 65 18195514016780552685
10366900 7 18187378605492106479
11578080 2 17751353976178660364
12035758 1 18335411401270026314
12160290 23 17467350462374552238
12422481 6 17913459400121691298
12553582 1 17977097955588819807
12633257 1 18042388296360538656
12788726 201 16824724982750708886
13140716 1 18338233885355230524
13533116 47 18335430015769069475
13583140 156 18335422318981940373
13965767 371 17914070706669338457
14178342 30 18262523727097199511
14223421 5 18408322177254285645
14251757 17 15409493409970140440
14787075 74 18116728326403894982
14955137 171 18197789795033349638
15209289 33 18409442614031396828
17868525 174 18049166566608271633
20600515 1 17483963674779036385
20739085 24 18333728027150757420
21041028 32 17832141624080075850
21524375 3 18057883734920882868
21731228 192 18192985143988944760
21756936 100 17909546504294961956
2255824 54 18335711528371720806
23419403 2 12911203752557101598
23558518 356 18052819436097698078
23559900 14 17895771620836933341
31174 14 18337108952158888685
345986 75 17249213497137207075
352729 6 17545312438216870956
392239 28 18050006898460645843
394222 165 18130790087394445298
4340502 62 18188771790299826403
474 4 18339077219432676317
5104073 3 18199487506354813193
58807428 26 18339911736094705208
6287921 2 18341321245329292859
7097593 13 18267022761068702871
7364860 26 18340205198087710110
81228 2 17103674914181826726
8509985 295 17833556687298032313

>  <PUBCHEM_SHAPE_MULTIPOLES>  (1) 
471.07
6.79
4.88
1.67
8.6
1.77
-0.26
-3.97
2.29
-5.71
1.66
-0.25
0.45
-0.33

>  <PUBCHEM_SHAPE_SELFOVERLAP>  (1) 
977.687

>  <PUBCHEM_SHAPE_VOLUME>  (1) 
268.8

>  <PUBCHEM_COORDINATE_TYPE>  (1) 
2
5
10

$$$$
