2108
     RDKit          3D

 13 13  0  0  1  0  0  0  0  0999 V2000
    0.1142   -1.1030    0.2740 O   0  0  0  0  0  0  0  0  0  0  0  0
    2.2330    1.8166   -0.3588 O   0  0  0  0  0  0  0  0  0  0  0  0
   -0.2849    2.9805    0.4547 O   0  0  0  0  0  0  0  0  0  0  0  0
   -2.5349    1.3070   -0.4496 O   0  0  0  0  0  0  0  0  0  0  0  0
   -2.1995   -1.4037    0.2905 O   0  0  0  0  0  0  0  0  0  0  0  0
    2.4948   -2.4027   -0.1727 O   0  0  0  0  0  0  0  0  0  0  0  0
    1.1572    1.0844    0.2225 C   0  0  0  0  0  0  0  0  0  0  0  0
   -0.1699    1.7156   -0.1990 C   0  0  0  0  0  0  0  0  0  0  0  0
    1.2337   -0.3746   -0.2332 C   0  0  0  0  0  0  0  0  0  0  0  0
   -1.3529    0.8305    0.1933 C   0  0  0  0  0  0  0  0  0  0  0  0
   -1.1276   -0.6201   -0.2332 C   0  0  0  0  0  0  0  0  0  0  0  0
    2.4975   -1.0600    0.2765 C   0  0  0  0  0  0  0  0  0  0  0  0
   -2.0607   -2.7705   -0.0649 C   0  0  0  0  0  0  0  0  0  0  0  0
  1  9  1  0
  1 11  1  0
  2  7  1  0
  3  8  1  0
  4 10  1  0
  5 11  1  0
  5 13  1  0
  6 12  1  0
  7  8  1  0
  7  9  1  0
  8 10  1  0
  9 12  1  0
 10 11  1  0
M  END
>  <PUBCHEM_COMPOUND_CID>  (1) 
2108

>  <PUBCHEM_CONFORMER_RMSD>  (1) 
0.6

>  <PUBCHEM_CONFORMER_DIVERSEORDER>  (1) 
7
113
127
109
39
1
101
16
46
105
55
85
123
19
134
36
64
89
34
111
124
28
132
90
112
57
48
130
27
99
96
108
79
52
133
25
98
82
47
103
44
73
75
37
114
116
32
86
70
41
94
93
121
60
88
120
51
13
110
131
77
119
76
38
95
87
68
8
122
100
43
92
104
12
71
40
62
14
35
63
20
21
74
126
45
97
106
15
29
102
69
24
33
42
65
84
83
30
125
31
58
78
80
53
18
50
49
117
56
72
67
2
129
54
107
81
9
26
128
10
3
5
17
59
11
91
118
61
22
6
23
115
4
66

>  <PUBCHEM_MMFF94_PARTIAL_CHARGES>  (1) 
17
1 -0.56
10 0.28
11 0.56
12 0.28
13 0.28
2 -0.68
21 0.4
22 0.4
23 0.4
24 0.4
3 -0.68
4 -0.68
5 -0.56
6 -0.68
7 0.28
8 0.28
9 0.28

>  <PUBCHEM_EFFECTIVE_ROTOR_COUNT>  (1) 
3.2

>  <PUBCHEM_PHARMACOPHORE_FEATURES>  (1) 
11
1 1 acceptor
1 2 acceptor
1 2 donor
1 3 acceptor
1 3 donor
1 4 acceptor
1 4 donor
1 5 acceptor
1 6 acceptor
1 6 donor
6 1 7 8 9 10 11 rings

>  <PUBCHEM_HEAVY_ATOM_COUNT>  (1) 
13

>  <PUBCHEM_ATOM_DEF_STEREO_COUNT>  (1) 
0

>  <PUBCHEM_ATOM_UDEF_STEREO_COUNT>  (1) 
5

>  <PUBCHEM_BOND_DEF_STEREO_COUNT>  (1) 
0

>  <PUBCHEM_BOND_UDEF_STEREO_COUNT>  (1) 
0

>  <PUBCHEM_ISOTOPIC_ATOM_COUNT>  (1) 
0

>  <PUBCHEM_COMPONENT_COUNT>  (1) 
1

>  <PUBCHEM_CACTVS_TAUTO_COUNT>  (1) 
1

>  <PUBCHEM_CONFORMER_ID>  (1) 
0000083C00000007

>  <PUBCHEM_MMFF94_ENERGY>  (1) 
34.8646

>  <PUBCHEM_FEATURE_SELFOVERLAP>  (1) 
55.884

>  <PUBCHEM_SHAPE_FINGERPRINT>  (1) 
13380535 21 18337402620342257933
14251717 144 17331393689258159127
161256 15 17907016532022485341
16945 1 18266745670889558988
193761 8 18410011065262820404
20511035 2 18200863024426746708
20645477 70 17551235498940638055
20871998 184 18200309896974152966
21501502 16 18336828688057052055
2334 1 18338234976282269914
23402539 116 17909247105807152702
23526114 1 18339364192267946526
23552423 10 18261396675817153750
23559900 14 18125156023418545174
241688 4 18409448080949719584
2748010 2 18411416241144204254
5084963 1 17770770221948369049
66348 1 17905042547583094314

>  <PUBCHEM_SHAPE_MULTIPOLES>  (1) 
232.32
3.49
3.24
0.64
1.25
0.21
0
1.47
-0.1
-0.64
0.05
-0.01
-0.04
0.09

>  <PUBCHEM_SHAPE_SELFOVERLAP>  (1) 
459.966

>  <PUBCHEM_SHAPE_VOLUME>  (1) 
136.8

>  <PUBCHEM_COORDINATE_TYPE>  (1) 
2
5
10

$$$$
