21093
     RDKit          3D

 20 23  0  0  1  0  0  0  0  0999 V2000
    4.7316    1.2873   -0.6354 O   0  0  0  0  0  0  0  0  0  0  0  0
   -4.5562    0.9041   -1.3202 O   0  0  0  0  0  0  0  0  0  0  0  0
    2.0280   -0.9398    0.4613 C   0  0  0  0  0  0  0  0  0  0  0  0
    2.6214    0.0131   -0.6016 C   0  0  0  0  0  0  0  0  0  0  0  0
    0.4883   -1.0093    0.5526 C   0  0  0  0  0  0  0  0  0  0  0  0
   -0.1991    0.3746    0.4470 C   0  0  0  0  0  0  0  0  0  0  0  0
    1.8758    1.3648   -0.6339 C   0  0  0  0  0  0  0  0  0  0  0  0
    4.0738    0.1578   -0.0905 C   0  0  0  0  0  0  0  0  0  0  0  0
    2.6541   -0.4523    1.7877 C   0  0  0  0  0  0  0  0  0  0  0  0
    0.3581    1.2100   -0.7182 C   0  0  0  0  0  0  0  0  0  0  0  0
    3.9572    0.2559    1.4260 C   0  0  0  0  0  0  0  0  0  0  0  0
   -0.1128   -1.9821   -0.4702 C   0  0  0  0  0  0  0  0  0  0  0  0
   -1.7179    0.2696    0.3559 C   0  0  0  0  0  0  0  0  0  0  0  0
    2.6558   -0.5953   -2.0134 C   0  0  0  0  0  0  0  0  0  0  0  0
   -1.6104   -2.1671   -0.2320 C   0  0  0  0  0  0  0  0  0  0  0  0
   -2.3513   -0.8833    0.0503 C   0  0  0  0  0  0  0  0  0  0  0  0
   -2.4810    1.5368    0.6767 C   0  0  0  0  0  0  0  0  0  0  0  0
   -3.8596   -0.9963   -0.0223 C   0  0  0  0  0  0  0  0  0  0  0  0
   -3.9610    1.3064    0.9884 C   0  0  0  0  0  0  0  0  0  0  0  0
   -4.5947    0.3451   -0.0082 C   0  0  0  0  0  0  0  0  0  0  0  0
  1  8  1  0
  2 20  1  0
  3  4  1  0
  3  5  1  0
  3  9  1  0
  4  7  1  0
  4  8  1  0
  4 14  1  0
  5  6  1  0
  5 12  1  0
  6 10  1  0
  6 13  1  0
  7 10  1  0
  8 11  1  0
  9 11  1  0
 12 15  1  0
 13 16  2  0
 13 17  1  0
 15 16  1  0
 16 18  1  0
 17 19  1  0
 18 20  1  0
 19 20  1  0
M  END
>  <PUBCHEM_COMPOUND_CID>  (1) 
21093

>  <PUBCHEM_CONFORMER_RMSD>  (1) 
0.6

>  <PUBCHEM_CONFORMER_DIVERSEORDER>  (1) 
1
24
25
13
38
29
39
6
8
4
34
17
11
23
19
7
22
26
16
33
28
32
9
10
18
35
14
40
30
21
2
3
5
20
37
15
27
12
36
31

>  <PUBCHEM_MMFF94_PARTIAL_CHARGES>  (1) 
12
1 -0.68
13 -0.28
15 0.14
16 -0.28
17 0.14
18 0.14
2 -0.68
20 0.28
44 0.4
48 0.4
6 0.14
8 0.28

>  <PUBCHEM_EFFECTIVE_ROTOR_COUNT>  (1) 
2.2

>  <PUBCHEM_PHARMACOPHORE_FEATURES>  (1) 
8
1 1 acceptor
1 1 donor
1 2 acceptor
1 2 donor
5 3 4 8 9 11 rings
6 13 16 17 18 19 20 rings
6 3 4 5 6 7 10 rings
6 5 6 12 13 15 16 rings

>  <PUBCHEM_HEAVY_ATOM_COUNT>  (1) 
20

>  <PUBCHEM_ATOM_DEF_STEREO_COUNT>  (1) 
1

>  <PUBCHEM_ATOM_UDEF_STEREO_COUNT>  (1) 
5

>  <PUBCHEM_BOND_DEF_STEREO_COUNT>  (1) 
0

>  <PUBCHEM_BOND_UDEF_STEREO_COUNT>  (1) 
0

>  <PUBCHEM_ISOTOPIC_ATOM_COUNT>  (1) 
0

>  <PUBCHEM_COMPONENT_COUNT>  (1) 
1

>  <PUBCHEM_CACTVS_TAUTO_COUNT>  (1) 
1

>  <PUBCHEM_CONFORMER_ID>  (1) 
0000526500000001

>  <PUBCHEM_MMFF94_ENERGY>  (1) 
47.2101

>  <PUBCHEM_FEATURE_SELFOVERLAP>  (1) 
40.818

>  <PUBCHEM_SHAPE_FINGERPRINT>  (1) 
10062212 137 18261386788997877147
10366900 7 17203895175583220224
10498660 4 18341614793664475801
10646746 165 18131913741033431048
11132069 177 18410855443291164561
11370993 70 17917713504444812910
11543360 7 15697989739413496707
11578080 2 17752731840553185340
12236239 1 18040713688801400698
12403814 3 17675918794647983581
12500047 106 17846499257374058974
12507557 5 18040434408452978673
12670545 47 17346594231247567976
12670546 56 16950271902077460381
12788726 201 17902231448681653898
128620 24 17846498132229562897
12916748 109 18341903982718681899
13134695 92 16950275213581771972
13140716 1 18338239396304784353
13221675 6 18187369834789177395
13224815 77 18408610257737716833
13538477 17 18260546770408856786
13583140 156 17313391157906417761
13675066 3 17022901241935023936
14289901 80 16272205271671793809
14573314 32 17703795807820789844
14739800 52 18198606917557962616
15196674 1 18410859853990754751
15309172 13 18335145267447004539
15375358 24 17918273172995577974
15536298 74 18201163143730096591
15775835 57 18113902679887546174
15788980 27 17458343022321651625
1601671 61 18335140873405401300
16945 1 18409455777647275195
17349148 13 18342450456966591615
17980427 23 18127673032566092636
1813 80 17168983362705204666
18186145 218 18200883872350845725
18785283 64 14201980002536233958
20279233 1 17418376908623827186
20510252 161 18060145314585760217
20645476 183 18187084005006233675
20645477 70 16370999676940494218
20715895 44 17753876230821673501
21267235 1 18336838579720474539
22892500 29 16702300157330590352
231179 274 17894911798137906391
23402539 116 18273207620953376156
23419403 2 16902089279376055309
23557571 272 17916870252056797583
23559900 14 18131641080041657782
26918003 58 12247679366383403869
2748010 2 18055627576226763763
296302 2 17821447971324232936
34934 24 18113335336319912908
474 4 17460321185986196788
495365 180 16702012059467252090
4990 188 17275107193302294038
5104073 3 18333731346679741640
6034566 193 15724484881767791676
633830 44 17917716738834566453
69090 78 17489584571572993983
77492 1 18113334245414031138
8272917 22 17023180470612333635
9709674 26 18060147564885054495
9981440 41 17109038366072738720

>  <PUBCHEM_SHAPE_MULTIPOLES>  (1) 
399.85
8.9
1.76
1.36
2.34
0.45
-0.06
-2.66
-0.2
0.84
-0.13
-1.09
-0.05
-0.27

>  <PUBCHEM_SHAPE_SELFOVERLAP>  (1) 
854.511

>  <PUBCHEM_SHAPE_VOLUME>  (1) 
219.1

>  <PUBCHEM_COORDINATE_TYPE>  (1) 
2
5
10

$$$$
