21092
     RDKit          3D

 13 13  0  0  0  0  0  0  0  0999 V2000
    1.4512   -1.9974    1.2292 O   0  0  0  0  0  0  0  0  0  0  0  0
   -1.7500    0.1439   -0.0985 N   0  0  0  0  0  0  0  0  0  0  0  0
   -0.7224   -0.8849   -0.2541 C   0  0  0  0  0  0  0  0  0  0  0  0
   -1.5634    0.8667    1.1591 C   0  0  0  0  0  0  0  0  0  0  0  0
   -3.0837   -0.4536   -0.1517 C   0  0  0  0  0  0  0  0  0  0  0  0
    0.6634   -0.2966   -0.2646 C   0  0  0  0  0  0  0  0  0  0  0  0
   -2.6323    1.9315    1.3131 C   0  0  0  0  0  0  0  0  0  0  0  0
   -3.2919   -1.1487   -1.4834 C   0  0  0  0  0  0  0  0  0  0  0  0
    1.6791   -0.8838    0.4779 C   0  0  0  0  0  0  0  0  0  0  0  0
    0.9029    0.8385   -1.0281 C   0  0  0  0  0  0  0  0  0  0  0  0
    2.9574   -0.3260    0.4569 C   0  0  0  0  0  0  0  0  0  0  0  0
    2.1813    1.3963   -1.0491 C   0  0  0  0  0  0  0  0  0  0  0  0
    3.2085    0.8141   -0.3066 C   0  0  0  0  0  0  0  0  0  0  0  0
  1  9  1  0
  2  3  1  0
  2  4  1  0
  2  5  1  0
  3  6  1  0
  4  7  1  0
  5  8  1  0
  6  9  2  0
  6 10  1  0
  9 11  1  0
 10 12  2  0
 11 13  2  0
 12 13  1  0
M  END
>  <PUBCHEM_COMPOUND_CID>  (1) 
21092

>  <PUBCHEM_CONFORMER_RMSD>  (1) 
0.6

>  <PUBCHEM_CONFORMER_DIVERSEORDER>  (1) 
2
11
8
15
9
10
5
13
6
3
1
4
14
12
7

>  <PUBCHEM_MMFF94_PARTIAL_CHARGES>  (1) 
16
1 -0.53
10 -0.15
11 -0.15
12 -0.15
13 -0.15
2 -0.81
26 0.15
27 0.15
28 0.15
29 0.15
3 0.41
30 0.45
4 0.27
5 0.27
6 -0.14
9 0.08

>  <PUBCHEM_EFFECTIVE_ROTOR_COUNT>  (1) 
4

>  <PUBCHEM_PHARMACOPHORE_FEATURES>  (1) 
3
1 1 donor
1 2 cation
6 6 9 10 11 12 13 rings

>  <PUBCHEM_HEAVY_ATOM_COUNT>  (1) 
13

>  <PUBCHEM_ATOM_DEF_STEREO_COUNT>  (1) 
0

>  <PUBCHEM_ATOM_UDEF_STEREO_COUNT>  (1) 
0

>  <PUBCHEM_BOND_DEF_STEREO_COUNT>  (1) 
0

>  <PUBCHEM_BOND_UDEF_STEREO_COUNT>  (1) 
0

>  <PUBCHEM_ISOTOPIC_ATOM_COUNT>  (1) 
0

>  <PUBCHEM_COMPONENT_COUNT>  (1) 
1

>  <PUBCHEM_CACTVS_TAUTO_COUNT>  (1) 
3

>  <PUBCHEM_CONFORMER_ID>  (1) 
0000526400000002

>  <PUBCHEM_MMFF94_ENERGY>  (1) 
30.0758

>  <PUBCHEM_FEATURE_SELFOVERLAP>  (1) 
15.223

>  <PUBCHEM_SHAPE_FINGERPRINT>  (1) 
10219947 1 17748825233058237124
11471102 22 17240206538474428512
12932764 1 18188780430929883813
13294875 104 14713618840090660653
13380536 127 18059858350609020827
13764800 53 17202782396975696601
14144814 61 18259703397676763580
15775835 57 18341907254956780136
16945 1 18129112284422077566
19049666 15 15792564146013844617
200 152 18337099159686422159
20201158 50 17095232614363019334
20279233 1 15936408961429422224
20645477 70 17458894977111842098
20715346 28 15936417757464376545
22802520 49 15553345617282825320
228727 97 18270403909542331429
23236772 104 18412270553242123505
23402539 116 17774998028835487084
23419403 2 15746625811761158454
23557571 272 16917352545200542233
23598291 2 18194684765505978267
23598294 1 17989211430216448083
2748010 2 16609132712606079175
3248919 1 18408326592042991306
63268167 104 18114179769760702356
77492 1 18411982459562469487
8030462 33 18412828005494889943
81228 2 17489875938486887803
88987 49 17632011940749444433

>  <PUBCHEM_SHAPE_MULTIPOLES>  (1) 
256.68
5.57
1.73
1.33
1.12
0.35
0.03
0.23
0.61
0.85
-0.42
0.1
-0.02
-1.76

>  <PUBCHEM_SHAPE_SELFOVERLAP>  (1) 
517.391

>  <PUBCHEM_SHAPE_VOLUME>  (1) 
152.4

>  <PUBCHEM_COORDINATE_TYPE>  (1) 
2
5
10

$$$$
