21106
     RDKit          3D

 18 19  0  0  1  0  0  0  0  0999 V2000
   -2.1847    2.1563    0.3007 F   0  0  0  0  0  0  0  0  0  0  0  0
    5.5008    0.6535    0.0129 O   0  0  0  0  0  0  0  0  0  0  0  0
    3.5697    1.7285   -0.4886 O   0  0  0  0  0  0  0  0  0  0  0  0
    3.4412   -0.5616    0.3510 C   0  0  0  0  0  0  0  0  0  0  0  0
    1.9558   -0.4676    0.2553 C   0  0  0  0  0  0  0  0  0  0  0  0
   -0.8227   -0.2906    0.0766 C   0  0  0  0  0  0  0  0  0  0  0  0
    1.3481   -0.2657   -0.9839 C   0  0  0  0  0  0  0  0  0  0  0  0
    1.1743   -0.5810    1.4051 C   0  0  0  0  0  0  0  0  0  0  0  0
   -0.0410   -0.1770   -1.0733 C   0  0  0  0  0  0  0  0  0  0  0  0
   -0.2149   -0.4926    1.3158 C   0  0  0  0  0  0  0  0  0  0  0  0
    4.0465   -1.7347   -0.4465 C   0  0  0  0  0  0  0  0  0  0  0  0
   -2.2638   -0.1994   -0.0164 C   0  0  0  0  0  0  0  0  0  0  0  0
    4.1469    0.7275   -0.0842 C   0  0  0  0  0  0  0  0  0  0  0  0
   -2.8973    1.0380    0.1003 C   0  0  0  0  0  0  0  0  0  0  0  0
   -3.0201   -1.3532   -0.2237 C   0  0  0  0  0  0  0  0  0  0  0  0
   -4.2867    1.1216    0.0100 C   0  0  0  0  0  0  0  0  0  0  0  0
   -4.4095   -1.2696   -0.3140 C   0  0  0  0  0  0  0  0  0  0  0  0
   -5.0428   -0.0322   -0.1970 C   0  0  0  0  0  0  0  0  0  0  0  0
  1 14  1  0
  2 13  1  0
  3 13  2  0
  4  5  1  0
  4 11  1  0
  4 13  1  0
  5  7  2  0
  5  8  1  0
  6  9  2  0
  6 10  1  0
  6 12  1  0
  7  9  1  0
  8 10  2  0
 12 14  2  0
 12 15  1  0
 14 16  1  0
 15 17  2  0
 16 18  2  0
 17 18  1  0
M  END
>  <PUBCHEM_COMPOUND_CID>  (1) 
21106

>  <PUBCHEM_CONFORMER_RMSD>  (1) 
0.6

>  <PUBCHEM_CONFORMER_DIVERSEORDER>  (1) 
2
15
3
11
1
5
16
14
7
4
9
13
6
8
12
10

>  <PUBCHEM_MMFF94_PARTIAL_CHARGES>  (1) 
24
1 -0.19
10 -0.15
13 0.66
14 0.19
15 -0.15
16 -0.15
17 -0.15
18 -0.15
2 -0.65
20 0.15
21 0.15
22 0.15
23 0.15
27 0.15
28 0.15
29 0.15
3 -0.57
30 0.15
31 0.5
4 0.2
5 -0.14
7 -0.15
8 -0.15
9 -0.15

>  <PUBCHEM_EFFECTIVE_ROTOR_COUNT>  (1) 
3

>  <PUBCHEM_PHARMACOPHORE_FEATURES>  (1) 
6
1 11 hydrophobe
1 2 acceptor
1 3 acceptor
3 2 3 13 anion
6 12 14 15 16 17 18 rings
6 5 6 7 8 9 10 rings

>  <PUBCHEM_HEAVY_ATOM_COUNT>  (1) 
18

>  <PUBCHEM_ATOM_DEF_STEREO_COUNT>  (1) 
0

>  <PUBCHEM_ATOM_UDEF_STEREO_COUNT>  (1) 
1

>  <PUBCHEM_BOND_DEF_STEREO_COUNT>  (1) 
0

>  <PUBCHEM_BOND_UDEF_STEREO_COUNT>  (1) 
0

>  <PUBCHEM_ISOTOPIC_ATOM_COUNT>  (1) 
0

>  <PUBCHEM_COMPONENT_COUNT>  (1) 
1

>  <PUBCHEM_CACTVS_TAUTO_COUNT>  (1) 
1

>  <PUBCHEM_CONFORMER_ID>  (1) 
0000527200000002

>  <PUBCHEM_MMFF94_ENERGY>  (1) 
50.0159

>  <PUBCHEM_FEATURE_SELFOVERLAP>  (1) 
30.505

>  <PUBCHEM_SHAPE_FINGERPRINT>  (1) 
10366900 7 17346309402286650739
11132069 177 16370727040938003874
11287383 113 18411139155650710178
11401426 45 16732978743348002743
11543360 7 18413389856042399498
12107183 9 17689715255730790970
12236239 1 18040431080101094731
12670546 56 18335978683980291874
12916748 109 18333736805588500771
13140716 1 15864931961239301084
13167823 11 18411697660318592663
13675066 3 17603592898044846983
13760787 19 18202280316442891326
13760787 5 15626224615389546330
13897977 58 18412263939303860173
14251764 18 17968088738817138704
14289901 80 18411980256328909314
14341114 176 18412269415001839398
14911166 2 15626503908480562158
15375358 24 14056719024238025723
15848702 151 18335421236164943502
16945 1 16008752398578885442
17834072 33 18409728482274361222
18186145 218 17821445746774020038
19026448 5 18410853244094108594
200 152 17894345597189777267
20300324 65 18412544319095383617
204376 136 16081374067672292706
20645477 70 18130510730438531006
22094290 60 18272087188919715787
22854114 59 17167860859241201868
23175994 123 16128656371008071483
23402539 116 18410287034376424383
23536379 177 18341331115517254866
23557571 272 18131357396903448857
23559900 14 18200875050467421070
26918003 58 11602818004068554052
34797466 226 17988371471683266276
351380 180 18408040727873597572
3545911 37 18411139143050462988
4214541 1 18411982420976329141
474 4 17749394827184030476
5104073 3 18411419488181841243
5281201 14 18341618079483015604
542803 24 18409729556279838231
633830 44 18040436581316066342
69090 78 18186518830117185378
7495541 125 17846774152191704003
77779 3 18412263921643897639
9709674 26 18411707568813620742
9971528 1 17821732715330361894

>  <PUBCHEM_SHAPE_MULTIPOLES>  (1) 
351.42
10.71
1.54
0.99
1.78
0.33
0.16
0.89
-1.11
-0.07
-0.09
0.27
-0.14
-0.28

>  <PUBCHEM_SHAPE_SELFOVERLAP>  (1) 
759.488

>  <PUBCHEM_SHAPE_VOLUME>  (1) 
193

>  <PUBCHEM_COORDINATE_TYPE>  (1) 
2
5
10

$$$$
