2110
     RDKit          3D

 14 14  0  0  1  0  0  0  0  0999 V2000
   -1.3071    1.1182    1.5682 O   0  0  0  0  0  0  0  0  0  0  0  0
   -2.4392    1.9544   -0.2001 O   0  0  0  0  0  0  0  0  0  0  0  0
    3.0966    1.9637   -0.2510 O   0  0  0  0  0  0  0  0  0  0  0  0
   -3.2983   -0.6101   -0.8409 N   0  0  0  0  0  0  0  0  0  0  0  0
   -2.0160   -0.4489   -0.1391 C   0  0  0  0  0  0  0  0  0  0  0  0
   -0.8676   -0.7558   -1.1306 C   0  0  0  0  0  0  0  0  0  0  0  0
    0.5309   -0.6016   -0.5755 C   0  0  0  0  0  0  0  0  0  0  0  0
   -2.0382   -1.4375    1.0372 C   0  0  0  0  0  0  0  0  0  0  0  0
   -1.9597    0.9891    0.3841 C   0  0  0  0  0  0  0  0  0  0  0  0
    1.1667    0.6242   -0.6737 C   0  0  0  0  0  0  0  0  0  0  0  0
    1.1463   -1.6906    0.0178 C   0  0  0  0  0  0  0  0  0  0  0  0
    2.4569    0.7656   -0.1628 C   0  0  0  0  0  0  0  0  0  0  0  0
    2.4366   -1.5494    0.5283 C   0  0  0  0  0  0  0  0  0  0  0  0
    3.0920   -0.3213    0.4382 C   0  0  0  0  0  0  0  0  0  0  0  0
  1  9  1  0
  2  9  2  0
  3 12  1  0
  4  5  1  0
  5  6  1  0
  5  8  1  0
  5  9  1  0
  6  7  1  0
  7 10  2  0
  7 11  1  0
 10 12  1  0
 11 13  2  0
 12 14  2  0
 13 14  1  0
M  END
>  <PUBCHEM_COMPOUND_CID>  (1) 
2110

>  <PUBCHEM_CONFORMER_RMSD>  (1) 
0.6

>  <PUBCHEM_CONFORMER_DIVERSEORDER>  (1) 
3
12
13
10
18
15
7
19
11
1
6
9
16
14
2
17
5
8
4
20

>  <PUBCHEM_MMFF94_PARTIAL_CHARGES>  (1) 
21
1 -0.65
10 -0.15
11 -0.15
12 0.08
13 -0.15
14 -0.15
2 -0.57
20 0.36
21 0.36
22 0.15
23 0.15
24 0.15
25 0.15
26 0.5
27 0.45
3 -0.53
4 -0.99
5 0.33
6 0.14
7 -0.14
9 0.66

>  <PUBCHEM_EFFECTIVE_ROTOR_COUNT>  (1) 
3

>  <PUBCHEM_PHARMACOPHORE_FEATURES>  (1) 
7
1 1 acceptor
1 2 acceptor
1 3 donor
1 4 cation
1 4 donor
3 1 2 9 anion
6 7 10 11 12 13 14 rings

>  <PUBCHEM_HEAVY_ATOM_COUNT>  (1) 
14

>  <PUBCHEM_ATOM_DEF_STEREO_COUNT>  (1) 
0

>  <PUBCHEM_ATOM_UDEF_STEREO_COUNT>  (1) 
1

>  <PUBCHEM_BOND_DEF_STEREO_COUNT>  (1) 
0

>  <PUBCHEM_BOND_UDEF_STEREO_COUNT>  (1) 
0

>  <PUBCHEM_ISOTOPIC_ATOM_COUNT>  (1) 
0

>  <PUBCHEM_COMPONENT_COUNT>  (1) 
1

>  <PUBCHEM_CACTVS_TAUTO_COUNT>  (1) 
9

>  <PUBCHEM_CONFORMER_ID>  (1) 
0000083E00000003

>  <PUBCHEM_MMFF94_ENERGY>  (1) 
29.9368

>  <PUBCHEM_FEATURE_SELFOVERLAP>  (1) 
35.581

>  <PUBCHEM_SHAPE_FINGERPRINT>  (1) 
12162725 195 18410851040622755394
12251169 10 18334575690079425082
12696612 119 18336268955355876030
12932764 1 18263377922581882308
13693222 7 18130515136562864328
13764800 53 17345771693602613169
14144814 61 18335701615771954094
15775835 57 18272096014756015520
16945 1 18338240469535048014
19973954 147 18410579457008481442
200 152 18341878715215511975
20525323 117 18202571678655408539
20559304 39 18343861117516047922
21130352 189 17835524817063476630
21501502 16 18409728426402785101
22802520 49 14619975706943528504
23557571 272 16845281744175128119
369184 2 18261112959020540787
63268167 104 18337390444289101000
74978 22 18336268933686159414
8030462 33 18408891745351474566

>  <PUBCHEM_SHAPE_MULTIPOLES>  (1) 
265.52
5.07
1.91
1.07
0.53
0.35
0.13
0.75
0.23
0.29
0.21
-0.47
-0.06
-0.36

>  <PUBCHEM_SHAPE_SELFOVERLAP>  (1) 
550.615

>  <PUBCHEM_SHAPE_VOLUME>  (1) 
151.5

>  <PUBCHEM_COORDINATE_TYPE>  (1) 
2
5
10

$$$$
