21102
     RDKit          3D

 23 24  0  0  0  0  0  0  0  0999 V2000
   -0.3197   -0.9597    0.6235 O   0  0  0  0  0  0  0  0  0  0  0  0
   -3.3618    1.2904   -0.9843 O   0  0  0  0  0  0  0  0  0  0  0  0
   -0.7551    0.4691   -1.1671 O   0  0  0  0  0  0  0  0  0  0  0  0
    5.9570   -0.9732   -1.1434 O   0  0  0  0  0  0  0  0  0  0  0  0
   -3.4201    2.0611    1.2253 O   0  0  0  0  0  0  0  0  0  0  0  0
    4.9994    0.5850    0.3444 N   0  0  0  0  0  0  0  0  0  0  0  0
   -2.5148   -0.8089   -0.1904 C   0  0  0  0  0  0  0  0  0  0  0  0
    1.0203   -0.5696    0.5522 C   0  0  0  0  0  0  0  0  0  0  0  0
    3.6612    0.1968    0.4142 C   0  0  0  0  0  0  0  0  0  0  0  0
   -3.5808    0.0267   -0.5233 C   0  0  0  0  0  0  0  0  0  0  0  0
    3.2147   -0.9022   -0.3195 C   0  0  0  0  0  0  0  0  0  0  0  0
    2.7697    0.9075    1.2179 C   0  0  0  0  0  0  0  0  0  0  0  0
    1.8768   -1.2905   -0.2497 C   0  0  0  0  0  0  0  0  0  0  0  0
    1.4318    0.5190    1.2879 C   0  0  0  0  0  0  0  0  0  0  0  0
   -2.7604   -2.0988    0.2804 C   0  0  0  0  0  0  0  0  0  0  0  0
   -1.1379   -0.3548   -0.3265 C   0  0  0  0  0  0  0  0  0  0  0  0
   -4.8925   -0.4275   -0.3855 C   0  0  0  0  0  0  0  0  0  0  0  0
   -4.0721   -2.5529    0.4183 C   0  0  0  0  0  0  0  0  0  0  0  0
   -5.1381   -1.7173    0.0854 C   0  0  0  0  0  0  0  0  0  0  0  0
    6.0323    0.0000   -0.4004 C   0  0  0  0  0  0  0  0  0  0  0  0
    7.3420    0.7210   -0.2024 C   0  0  0  0  0  0  0  0  0  0  0  0
   -3.2971    2.2643    0.0247 C   0  0  0  0  0  0  0  0  0  0  0  0
   -3.0545    3.6146   -0.5817 C   0  0  0  0  0  0  0  0  0  0  0  0
  1  8  1  0
  1 16  1  0
  2 10  1  0
  2 22  1  0
  3 16  2  0
  4 20  2  0
  5 22  2  0
  6  9  1  0
  6 20  1  0
  7 10  2  0
  7 15  1  0
  7 16  1  0
  8 13  2  0
  8 14  1  0
  9 11  2  0
  9 12  1  0
 10 17  1  0
 11 13  1  0
 12 14  2  0
 15 18  2  0
 17 19  2  0
 18 19  1  0
 20 21  1  0
 22 23  1  0
M  END
>  <PUBCHEM_COMPOUND_CID>  (1) 
21102

>  <PUBCHEM_CONFORMER_RMSD>  (1) 
0.8

>  <PUBCHEM_CONFORMER_DIVERSEORDER>  (1) 
1
60
88
66
169
90
149
82
63
64
59
160
181
101
178
110
174
208
196
215
5
218
106
98
221
37
111
201
191
140
96
53
155
104
177
223
158
117
109
200
163
78
38
199
173
152
193
79
131
222
154
147
51
49
100
184
28
54
186
209
16
39
89
143
187
27
202
35
213
146
107
112
102
127
197
214
161
128
175
212
124
119
86
121
41
24
36
216
150
179
62
210
42
68
23
145
45
30
50
176
195
171
73
75
95
93
83
32
80
72
130
6
46
120
182
164
141
204
4
126
2
194
14
183
116
114
134
113
172
47
190
34
7
211
103
135
91
206
17
84
129
55
21
69
61
57
11
18
166
148
118
77
203
40
22
220
99
43
115
133
205
162
33
156
44
29
97
142
157
94
136
12
151
188
13
56
65
165
219
19
108
192
52
139
9
85
92
3
185
159
189
125
123
8
25
138
168
217
71
122
137
207
132
153
26
198
74
144
76
10
167
81
31
15
67
70
87
58
105
20
170
48
180

>  <PUBCHEM_MMFF94_PARTIAL_CHARGES>  (1) 
32
1 -0.23
10 0.08
11 -0.15
12 -0.15
13 -0.15
14 -0.15
15 -0.15
16 0.63
17 -0.15
18 -0.15
19 -0.15
2 -0.23
20 0.57
21 0.06
22 0.66
23 0.06
24 0.15
25 0.15
26 0.15
27 0.15
28 0.15
29 0.15
3 -0.57
30 0.15
31 0.15
32 0.37
4 -0.57
5 -0.57
6 -0.55
7 0.09
8 0.08
9 0.12

>  <PUBCHEM_EFFECTIVE_ROTOR_COUNT>  (1) 
7

>  <PUBCHEM_PHARMACOPHORE_FEATURES>  (1) 
6
1 3 acceptor
1 4 acceptor
1 5 acceptor
1 6 donor
6 7 10 15 17 18 19 rings
6 8 9 11 12 13 14 rings

>  <PUBCHEM_HEAVY_ATOM_COUNT>  (1) 
23

>  <PUBCHEM_ATOM_DEF_STEREO_COUNT>  (1) 
0

>  <PUBCHEM_ATOM_UDEF_STEREO_COUNT>  (1) 
0

>  <PUBCHEM_BOND_DEF_STEREO_COUNT>  (1) 
0

>  <PUBCHEM_BOND_UDEF_STEREO_COUNT>  (1) 
0

>  <PUBCHEM_ISOTOPIC_ATOM_COUNT>  (1) 
0

>  <PUBCHEM_COMPONENT_COUNT>  (1) 
1

>  <PUBCHEM_CACTVS_TAUTO_COUNT>  (1) 
2

>  <PUBCHEM_CONFORMER_ID>  (1) 
0000526E00000001

>  <PUBCHEM_MMFF94_ENERGY>  (1) 
79.1474

>  <PUBCHEM_FEATURE_SELFOVERLAP>  (1) 
30.447

>  <PUBCHEM_SHAPE_FINGERPRINT>  (1) 
10366900 7 18270667753910777499
10411042 1 18047755086253103795
10595046 47 18260547836119739730
10670039 82 18334852805960099748
10912923 1 17676761012033484330
11315181 36 18113337543658601679
12107183 9 17684635537817355418
12236239 1 16443055114963088602
12390115 104 18269278967735481921
12403259 415 17988636433016879272
12788726 201 18187637012632182571
13073987 5 18335414661060675794
13631057 29 18114461279398436243
14341114 176 18339643446440525617
14573314 32 18341896277521141598
15183329 4 18334012766650168562
15778101 99 18338801108796252357
15788980 27 17346316007766919518
15961568 22 18117831333887636588
17844677 252 18410579517691996008
18927931 339 18411418453680616087
20510252 161 18411411801018477867
21033648 29 17775270669159363536
21033650 10 18118147817400168214
21236236 1 18410857650561489264
21267235 1 18189055455726020099
21279426 13 18200317598625838374
21315759 40 17313096467621201378
21792961 116 18059860532916780262
22122407 14 15140965032495045343
221357 26 18202277017849693337
2297311 6 18409449228270613075
23081809 10 17748545936173446274
23198884 109 18114181943314821642
23402539 116 17822285816834342654
23536379 177 18187080655559165538
23557571 272 18413394228282008316
23559900 14 18339635732958719857
283562 15 18335698326634373923
3545911 37 18410290320079205043
4214541 1 18411980247754525881
445580 37 18334583442785577572
497634 4 18113050541196144607
5104073 3 18341043026317321874
5281201 14 18202846565099708428
5283173 99 18339927022225891168
531348 171 18201997681698540398
6327066 14 18044649798827599317
7808743 9 18262233300892153461

>  <PUBCHEM_SHAPE_MULTIPOLES>  (1) 
439
14.88
2.63
1.02
22.36
1.92
0.11
-0.57
-2.35
-5.08
-0.04
0.26
0.21
0.86

>  <PUBCHEM_SHAPE_SELFOVERLAP>  (1) 
939.361

>  <PUBCHEM_SHAPE_VOLUME>  (1) 
237.9

>  <PUBCHEM_COORDINATE_TYPE>  (1) 
2
5
10

$$$$
