21107
     RDKit          3D

 15 16  0  0  0  0  0  0  0  0999 V2000
    4.8056   -0.0647    0.0002 Cl  0  0  0  0  0  0  0  0  0  0  0  0
   -0.9658    1.0733    0.0000 O   0  0  0  0  0  0  0  0  0  0  0  0
    0.2008   -2.8342   -0.0002 O   0  0  0  0  0  0  0  0  0  0  0  0
   -3.4217    1.7332    0.0001 O   0  0  0  0  0  0  0  0  0  0  0  0
   -4.2056   -0.4152    0.0002 O   0  0  0  0  0  0  0  0  0  0  0  0
    0.8374   -0.5562    0.0003 C   0  0  0  0  0  0  0  0  0  0  0  0
    0.3706    0.7590    0.0001 C   0  0  0  0  0  0  0  0  0  0  0  0
   -0.1390   -1.6592   -0.0002 C   0  0  0  0  0  0  0  0  0  0  0  0
    2.2093   -0.8181    0.0005 C   0  0  0  0  0  0  0  0  0  0  0  0
    1.2759    1.8204   -0.0002 C   0  0  0  0  0  0  0  0  0  0  0  0
   -1.8713    0.0334   -0.0001 C   0  0  0  0  0  0  0  0  0  0  0  0
   -1.5638   -1.2694   -0.0003 C   0  0  0  0  0  0  0  0  0  0  0  0
    3.1122    0.2460    0.0000 C   0  0  0  0  0  0  0  0  0  0  0  0
    2.6469    1.5619   -0.0004 C   0  0  0  0  0  0  0  0  0  0  0  0
   -3.2913    0.3898    0.0002 C   0  0  0  0  0  0  0  0  0  0  0  0
  1 13  1  0
  2  7  1  0
  2 11  1  0
  3  8  2  0
  4 15  1  0
  5 15  2  0
  6  7  2  0
  6  8  1  0
  6  9  1  0
  7 10  1  0
  8 12  1  0
  9 13  2  0
 10 14  2  0
 11 12  2  0
 11 15  1  0
 13 14  1  0
M  END
>  <PUBCHEM_COMPOUND_CID>  (1) 
21107

>  <PUBCHEM_CONFORMER_RMSD>  (1) 
0.4

>  <PUBCHEM_CONFORMER_DIVERSEORDER>  (1) 
1
2

>  <PUBCHEM_MMFF94_PARTIAL_CHARGES>  (1) 
20
1 -0.18
10 -0.15
11 0.09
12 -0.14
13 0.18
14 -0.15
15 0.71
16 0.15
17 0.15
18 0.15
19 0.15
2 -0.16
20 0.5
3 -0.57
4 -0.65
5 -0.57
6 0.09
7 0.08
8 0.47
9 -0.15

>  <PUBCHEM_EFFECTIVE_ROTOR_COUNT>  (1) 
1

>  <PUBCHEM_PHARMACOPHORE_FEATURES>  (1) 
7
1 2 acceptor
1 3 acceptor
1 4 acceptor
1 5 acceptor
3 4 5 15 anion
6 2 6 7 8 11 12 rings
6 6 7 9 10 13 14 rings

>  <PUBCHEM_HEAVY_ATOM_COUNT>  (1) 
15

>  <PUBCHEM_ATOM_DEF_STEREO_COUNT>  (1) 
0

>  <PUBCHEM_ATOM_UDEF_STEREO_COUNT>  (1) 
0

>  <PUBCHEM_BOND_DEF_STEREO_COUNT>  (1) 
0

>  <PUBCHEM_BOND_UDEF_STEREO_COUNT>  (1) 
0

>  <PUBCHEM_ISOTOPIC_ATOM_COUNT>  (1) 
0

>  <PUBCHEM_COMPONENT_COUNT>  (1) 
1

>  <PUBCHEM_CACTVS_TAUTO_COUNT>  (1) 
1

>  <PUBCHEM_CONFORMER_ID>  (1) 
0000527300000001

>  <PUBCHEM_MMFF94_ENERGY>  (1) 
37.1118

>  <PUBCHEM_FEATURE_SELFOVERLAP>  (1) 
35.619

>  <PUBCHEM_SHAPE_FINGERPRINT>  (1) 
10608611 8 18340204223188292616
10967382 1 18410856555434596998
10980938 120 18337673022824623331
11132069 177 18341889706083924576
11471102 20 18338230466830366381
13380535 76 18411138051823152454
13690532 89 18410011027082829458
13862211 1 18410568475157225514
14115302 16 18261966231926155348
14251717 144 18411415098994217871
14325111 11 18410575106312281025
14911166 2 18411989070118518484
14993402 34 18409449193673290044
15099037 51 18411141329436782102
15196674 1 18410573946713010310
15279308 132 18412261765791679474
15309172 13 18410582789945249475
15536298 74 18200594687939818638
15775835 57 18260830401606466058
16945 1 18410573968003288934
18186145 218 18272095980412068817
18511873 20 18335700576711472448
193761 8 17762055840678941317
20510252 161 18127133189251413321
20511035 2 17984138429600071772
20645476 183 17896619451417915366
20671657 1 18189623924121748764
21267235 1 18410864277712111082
21501502 16 18122624118036096012
21524375 3 18408603677658233335
2334 1 18194402422840027907
23402539 116 18272643545898066228
23402655 69 18341884148749983613
23463225 33 18334854983323467162
23559900 14 18343585175301402236
25 1 18336825295169999381
2748010 2 18338239391545573527
366044 4 18409729569017287498
5104073 3 18338236071683684096
528886 8 18410569595826789082
53812653 166 18412823590553365936
54173680 148 18120938570631727418
69090 78 18342735264495233974
7364860 26 18197498415735206751
81228 2 17688014727854656603
8809292 202 18261678180874661322

>  <PUBCHEM_SHAPE_MULTIPOLES>  (1) 
287.09
6.84
2.08
0.59
0.43
0.64
0
-1.43
0
-0.18
0
0.07
0
0

>  <PUBCHEM_SHAPE_SELFOVERLAP>  (1) 
622.084

>  <PUBCHEM_SHAPE_VOLUME>  (1) 
157.3

>  <PUBCHEM_COORDINATE_TYPE>  (1) 
2
5
10

$$$$
