21101
     RDKit          3D

 17 18  0  0  0  0  0  0  0  0999 V2000
   -1.8149    2.1619    0.0116 F   0  0  0  0  0  0  0  0  0  0  0  0
    5.7530    0.2390    0.0473 O   0  0  0  0  0  0  0  0  0  0  0  0
    3.8994    1.5473   -0.0360 O   0  0  0  0  0  0  0  0  0  0  0  0
   -0.6054   -0.3741   -0.0024 C   0  0  0  0  0  0  0  0  0  0  0  0
    2.1652   -0.7006   -0.0065 C   0  0  0  0  0  0  0  0  0  0  0  0
   -2.0425   -0.2053    0.0000 C   0  0  0  0  0  0  0  0  0  0  0  0
    0.0862   -0.4487   -1.2114 C   0  0  0  0  0  0  0  0  0  0  0  0
    0.0882   -0.4627    1.2046 C   0  0  0  0  0  0  0  0  0  0  0  0
    1.4714   -0.6120   -1.2134 C   0  0  0  0  0  0  0  0  0  0  0  0
    1.4735   -0.6259    1.2027 C   0  0  0  0  0  0  0  0  0  0  0  0
    3.6463   -0.8747   -0.0083 C   0  0  0  0  0  0  0  0  0  0  0  0
   -2.5989    1.0739    0.0076 C   0  0  0  0  0  0  0  0  0  0  0  0
   -2.8724   -1.3266   -0.0053 C   0  0  0  0  0  0  0  0  0  0  0  0
   -3.9849    1.2316    0.0095 C   0  0  0  0  0  0  0  0  0  0  0  0
   -4.2584   -1.1687   -0.0031 C   0  0  0  0  0  0  0  0  0  0  0  0
   -4.8146    0.1103    0.0044 C   0  0  0  0  0  0  0  0  0  0  0  0
    4.4089    0.4356   -0.0014 C   0  0  0  0  0  0  0  0  0  0  0  0
  1 12  1  0
  2 17  1  0
  3 17  2  0
  4  6  1  0
  4  7  2  0
  4  8  1  0
  5  9  2  0
  5 10  1  0
  5 11  1  0
  6 12  2  0
  6 13  1  0
  7  9  1  0
  8 10  2  0
 11 17  1  0
 12 14  1  0
 13 15  2  0
 14 16  2  0
 15 16  1  0
M  END
>  <PUBCHEM_COMPOUND_CID>  (1) 
21101

>  <PUBCHEM_CONFORMER_RMSD>  (1) 
0.6

>  <PUBCHEM_CONFORMER_DIVERSEORDER>  (1) 
1
9
12
3
5
13
8
11
4
6
14
7
2
10

>  <PUBCHEM_MMFF94_PARTIAL_CHARGES>  (1) 
24
1 -0.19
10 -0.15
11 0.2
12 0.19
13 -0.15
14 -0.15
15 -0.15
16 -0.15
17 0.66
18 0.15
19 0.15
2 -0.65
20 0.15
21 0.15
24 0.15
25 0.15
26 0.15
27 0.15
28 0.5
3 -0.57
5 -0.14
7 -0.15
8 -0.15
9 -0.15

>  <PUBCHEM_EFFECTIVE_ROTOR_COUNT>  (1) 
3

>  <PUBCHEM_PHARMACOPHORE_FEATURES>  (1) 
5
1 2 acceptor
1 3 acceptor
3 2 3 17 anion
6 4 5 7 8 9 10 rings
6 6 12 13 14 15 16 rings

>  <PUBCHEM_HEAVY_ATOM_COUNT>  (1) 
17

>  <PUBCHEM_ATOM_DEF_STEREO_COUNT>  (1) 
0

>  <PUBCHEM_ATOM_UDEF_STEREO_COUNT>  (1) 
0

>  <PUBCHEM_BOND_DEF_STEREO_COUNT>  (1) 
0

>  <PUBCHEM_BOND_UDEF_STEREO_COUNT>  (1) 
0

>  <PUBCHEM_ISOTOPIC_ATOM_COUNT>  (1) 
0

>  <PUBCHEM_COMPONENT_COUNT>  (1) 
1

>  <PUBCHEM_CACTVS_TAUTO_COUNT>  (1) 
1

>  <PUBCHEM_CONFORMER_ID>  (1) 
0000526D00000001

>  <PUBCHEM_MMFF94_ENERGY>  (1) 
44.0469

>  <PUBCHEM_FEATURE_SELFOVERLAP>  (1) 
25.43

>  <PUBCHEM_SHAPE_FINGERPRINT>  (1) 
10366900 7 17489860527996712035
106641 1 15647347384947716532
11128504 68 14764344972827059952
11132069 177 16515406269815179698
11287383 113 18342460365313933002
11401426 45 16515400781021009615
12107183 9 17543061291159119658
12236239 1 17821444643315617083
12670546 56 18261105240737593082
13140716 1 15647635469704717090
13214271 11 18272368676976461941
13533116 47 17749098951018459546
13675066 3 17385730149331920415
13760787 19 18272366473268504838
13760787 5 15913332368757863470
13897977 58 18411139130176227465
14251764 18 17894624860817285690
14289901 80 18410571777717960250
14911166 2 15626221325529006614
14993402 34 14045737110484018199
15209294 21 17822007571319435284
17349148 13 16298387976223477314
17834072 33 18408882957874890350
18186145 218 18040151790946311166
200 152 16298384669626205943
20645477 70 17131559323557641950
21652331 79 18411135853005716156
22854114 59 17240201023672935030
23227448 37 17915453020439311508
23402539 116 18408880758862210503
23557571 272 18272095988980852461
23559900 14 18127974109546773470
26918003 58 11458422440617234116
296302 2 18273217482541347799
34797466 226 18059023881376379036
351380 180 18408322198724055088
3545911 37 18409731750823445278
474 4 17677056857775945764
5104073 3 18336547131502447883
7495541 125 17845931939285858490
77492 1 17676491610241685639
77779 3 18411419492482147370

>  <PUBCHEM_SHAPE_MULTIPOLES>  (1) 
330.84
10.23
1.43
0.96
5.08
0.53
0
1.65
0.05
-0.73
0
0.29
-0.19
-0.01

>  <PUBCHEM_SHAPE_SELFOVERLAP>  (1) 
716.95

>  <PUBCHEM_SHAPE_VOLUME>  (1) 
181.2

>  <PUBCHEM_COORDINATE_TYPE>  (1) 
2
5
10

$$$$
