21105
     RDKit          3D

 14 15  0  0  0  0  0  0  0  0999 V2000
   -0.9640    0.5575   -0.0185 N   0  0  0  0  0  0  0  0  0  0  0  0
    1.4800    0.3925   -0.3228 C   0  0  0  0  0  0  0  0  0  0  0  0
    0.2831    1.3183   -0.1134 C   0  0  0  0  0  0  0  0  0  0  0  0
    2.7833    1.1996   -0.3952 C   0  0  0  0  0  0  0  0  0  0  0  0
    1.5512   -0.6616    0.7902 C   0  0  0  0  0  0  0  0  0  0  0  0
    4.0008    0.2913   -0.5512 C   0  0  0  0  0  0  0  0  0  0  0  0
    2.7708   -1.5667    0.6324 C   0  0  0  0  0  0  0  0  0  0  0  0
    4.0635   -0.7605    0.5519 C   0  0  0  0  0  0  0  0  0  0  0  0
   -1.1950   -0.1777   -1.2666 C   0  0  0  0  0  0  0  0  0  0  0  0
   -2.0794    1.4111    0.3933 C   0  0  0  0  0  0  0  0  0  0  0  0
   -2.5733   -0.8172   -1.4606 C   0  0  0  0  0  0  0  0  0  0  0  0
   -3.0311    0.6458    1.3171 C   0  0  0  0  0  0  0  0  0  0  0  0
   -3.1745   -1.4326   -0.2011 C   0  0  0  0  0  0  0  0  0  0  0  0
   -3.9153   -0.3999    0.6446 C   0  0  0  0  0  0  0  0  0  0  0  0
  1  3  1  0
  1  9  1  0
  1 10  1  0
  2  3  1  0
  2  4  1  0
  2  5  1  0
  4  6  1  0
  5  7  1  0
  6  8  1  0
  7  8  1  0
  9 11  1  0
 10 12  1  0
 11 13  1  0
 12 14  1  0
 13 14  1  0
M  END
>  <PUBCHEM_COMPOUND_CID>  (1) 
21105

>  <PUBCHEM_CONFORMER_RMSD>  (1) 
0.6

>  <PUBCHEM_CONFORMER_DIVERSEORDER>  (1) 
1
3
17
9
16
10
13
4
2
11
5
14
7
8
6
15
12

>  <PUBCHEM_MMFF94_PARTIAL_CHARGES>  (1) 
4
1 -0.81
10 0.27
3 0.27
9 0.27

>  <PUBCHEM_EFFECTIVE_ROTOR_COUNT>  (1) 
4.6

>  <PUBCHEM_PHARMACOPHORE_FEATURES>  (1) 
3
1 1 cation
6 2 4 5 6 7 8 rings
7 1 9 10 11 12 13 14 rings

>  <PUBCHEM_HEAVY_ATOM_COUNT>  (1) 
14

>  <PUBCHEM_ATOM_DEF_STEREO_COUNT>  (1) 
0

>  <PUBCHEM_ATOM_UDEF_STEREO_COUNT>  (1) 
0

>  <PUBCHEM_BOND_DEF_STEREO_COUNT>  (1) 
0

>  <PUBCHEM_BOND_UDEF_STEREO_COUNT>  (1) 
0

>  <PUBCHEM_ISOTOPIC_ATOM_COUNT>  (1) 
0

>  <PUBCHEM_COMPONENT_COUNT>  (1) 
1

>  <PUBCHEM_CACTVS_TAUTO_COUNT>  (1) 
1

>  <PUBCHEM_CONFORMER_ID>  (1) 
0000527100000001

>  <PUBCHEM_MMFF94_ENERGY>  (1) 
16.3412

>  <PUBCHEM_FEATURE_SELFOVERLAP>  (1) 
15.223

>  <PUBCHEM_SHAPE_FINGERPRINT>  (1) 
11578080 2 18198313282706325553
11615757 297 18260266365015775910
12251169 10 17988927764558496361
124424 183 14261356838375572742
12500047 106 16343986888159313815
12670545 47 15697996362073849137
12932764 1 18343015588631926664
13296908 3 17167857547853026268
13581323 91 17775567532924780420
13705890 14 17095238116732934358
13764800 53 16559038164276015387
14004511 7 9871752394634566938
14144814 61 18342736316851710332
15239191 94 18408602552445217714
15375462 189 18412545414011409368
15653759 3 15985104128094842322
18186145 218 16081370722167062336
19050596 39 18411982455504963728
19422 9 18413111666768183868
200 152 18259697917530589455
20279233 1 16008746913768316720
20281475 54 18410289216167218862
20361792 2 18336254708654190061
20442098 301 18201718431604163238
20645464 45 15195567909649022709
20645477 70 18041265595840470790
20871999 31 13479132428316086603
22445834 79 18412265029961607979
22485316 2 18333731316599275305
2255824 54 18264212572731321404
22646028 28 18410007741000571674
232386 152 18131353041758956205
23402539 116 14273445986040138646
23402655 69 18187365394072730732
23598291 2 18341623645555539740
474 4 18049721016805758560
57812782 119 15574714707515201732
581208 293 18040435520859889016
77492 1 18342460356586828924
83771 10 18260548922129176729

>  <PUBCHEM_SHAPE_MULTIPOLES>  (1) 
283.13
7.9
1.51
1.19
2.01
0.04
0.14
1.76
-0.97
0.02
-0.1
-0.7
0.13
-1.05

>  <PUBCHEM_SHAPE_SELFOVERLAP>  (1) 
555.378

>  <PUBCHEM_SHAPE_VOLUME>  (1) 
165.5

>  <PUBCHEM_COORDINATE_TYPE>  (1) 
2
5
10

$$$$
