21109
     RDKit          3D

 19 20  0  0  0  0  0  0  0  0999 V2000
   -0.2441   -1.4521    0.7055 O   0  0  0  0  0  0  0  0  0  0  0  0
    2.3389   -1.9317   -0.1296 O   0  0  0  0  0  0  0  0  0  0  0  0
    4.0624    0.1898   -0.5689 O   0  0  0  0  0  0  0  0  0  0  0  0
   -2.2062    0.3894    0.4010 N   0  0  0  0  0  0  0  0  0  0  0  0
   -4.4869    0.0834   -1.3613 N   0  0  0  0  0  0  0  0  0  0  0  0
   -3.5691    0.6836    0.8621 C   0  0  0  0  0  0  0  0  0  0  0  0
   -2.0881    0.6235   -1.0440 C   0  0  0  0  0  0  0  0  0  0  0  0
   -4.5952   -0.1417    0.0819 C   0  0  0  0  0  0  0  0  0  0  0  0
   -3.1231   -0.2014   -1.8131 C   0  0  0  0  0  0  0  0  0  0  0  0
   -1.2255    1.1839    1.1379 C   0  0  0  0  0  0  0  0  0  0  0  0
    0.1815    0.9005    0.6833 C   0  0  0  0  0  0  0  0  0  0  0  0
    0.6047   -0.4072    0.4867 C   0  0  0  0  0  0  0  0  0  0  0  0
    1.0417    1.9688    0.4651 C   0  0  0  0  0  0  0  0  0  0  0  0
    1.9115   -0.6513    0.0643 C   0  0  0  0  0  0  0  0  0  0  0  0
    2.3483    1.7249    0.0427 C   0  0  0  0  0  0  0  0  0  0  0  0
    2.7832    0.4148   -0.1578 C   0  0  0  0  0  0  0  0  0  0  0  0
   -0.2632   -2.0053    2.0192 C   0  0  0  0  0  0  0  0  0  0  0  0
    1.6410   -2.7062   -1.1019 C   0  0  0  0  0  0  0  0  0  0  0  0
    4.8884    1.3345   -0.7730 C   0  0  0  0  0  0  0  0  0  0  0  0
  1 12  1  0
  1 17  1  0
  2 14  1  0
  2 18  1  0
  3 16  1  0
  3 19  1  0
  4  6  1  0
  4  7  1  0
  4 10  1  0
  5  8  1  0
  5  9  1  0
  6  8  1  0
  7  9  1  0
 10 11  1  0
 11 12  2  0
 11 13  1  0
 12 14  1  0
 13 15  2  0
 14 16  2  0
 15 16  1  0
M  END
>  <PUBCHEM_COMPOUND_CID>  (1) 
21109

>  <PUBCHEM_CONFORMER_RMSD>  (1) 
0.8

>  <PUBCHEM_CONFORMER_DIVERSEORDER>  (1) 
9
8
14
3
6
5
7
12
2
18
10
1
17
15
13
11
4
16

>  <PUBCHEM_MMFF94_PARTIAL_CHARGES>  (1) 
22
1 -0.36
10 0.41
11 -0.14
12 0.08
13 -0.15
14 0.08
15 -0.15
16 0.08
17 0.28
18 0.28
19 0.28
2 -0.36
3 -0.36
30 0.36
31 0.15
32 0.15
4 -0.81
5 -0.9
6 0.27
7 0.27
8 0.27
9 0.27

>  <PUBCHEM_EFFECTIVE_ROTOR_COUNT>  (1) 
6.2

>  <PUBCHEM_PHARMACOPHORE_FEATURES>  (1) 
8
1 1 acceptor
1 2 acceptor
1 3 acceptor
1 4 cation
1 5 cation
1 5 donor
6 11 12 13 14 15 16 rings
6 4 5 6 7 8 9 rings

>  <PUBCHEM_HEAVY_ATOM_COUNT>  (1) 
19

>  <PUBCHEM_ATOM_DEF_STEREO_COUNT>  (1) 
0

>  <PUBCHEM_ATOM_UDEF_STEREO_COUNT>  (1) 
0

>  <PUBCHEM_BOND_DEF_STEREO_COUNT>  (1) 
0

>  <PUBCHEM_BOND_UDEF_STEREO_COUNT>  (1) 
0

>  <PUBCHEM_ISOTOPIC_ATOM_COUNT>  (1) 
0

>  <PUBCHEM_COMPONENT_COUNT>  (1) 
1

>  <PUBCHEM_CACTVS_TAUTO_COUNT>  (1) 
1

>  <PUBCHEM_CONFORMER_ID>  (1) 
0000527500000009

>  <PUBCHEM_MMFF94_ENERGY>  (1) 
77.2388

>  <PUBCHEM_FEATURE_SELFOVERLAP>  (1) 
40.606

>  <PUBCHEM_SHAPE_FINGERPRINT>  (1) 
10646746 165 15068336800359228573
11471102 20 18411420613642704440
12138202 97 17968101970688367498
12236239 1 17918280844187171865
12507557 5 10737285762203325045
12553582 1 17774993588324579829
13257819 101 17240757419828023324
13380535 76 18336555979593999962
13583140 156 16588314937904563880
14576447 43 18059567014324101807
14739800 52 13913475830820094478
14911166 2 18409735088356302312
15375462 189 17846778499051976825
15852999 172 18260550052090704210
16752209 62 17345734306492933069
16945 1 18343294873085444400
17349148 13 18338514145542044498
18186145 218 18337383941640426417
19422 9 18059295362290998857
200 152 18060424624577212928
20645477 70 18339067208512372895
21634736 98 17916290817981652805
22182313 1 18123501447011772118
2255824 54 18201150061323178864
231179 274 17530682126002223900
23227448 37 17315085591050093364
23402539 116 18412547595960725800
23402655 69 18343021056209774953
23557571 272 16950569895915298233
23559900 14 18336837493890424476
23598291 2 17773605909844612807
238 59 18117247381622194253
25 1 18408322198349372360
2748010 2 18051143776330186064
3060560 45 18412541046325211492
3323516 105 18409448115773733283
3472631 163 15140950735044587415
4072396 5 18335689543235999064
4409770 3 15247313478031937809
58051976 378 18187366536259698805
633830 44 18189905223046251035
69474 34 8502375495050636078
81228 2 16315802818989578619
9981440 41 16692144217048559761

>  <PUBCHEM_SHAPE_MULTIPOLES>  (1) 
363.44
7.91
2.19
1.46
1.94
1.21
0.01
-2.1
-3.28
-1.83
0.19
1.05
0.48
-0.07

>  <PUBCHEM_SHAPE_SELFOVERLAP>  (1) 
752.097

>  <PUBCHEM_SHAPE_VOLUME>  (1) 
209.1

>  <PUBCHEM_COORDINATE_TYPE>  (1) 
2
5
10

$$$$
