2111
     RDKit          3D

 10  9  0  0  1  0  0  0  0  0999 V2000
   -3.0714   -0.4719    0.5524 S   0  0  0  0  0  0  0  0  0  0  0  0
    1.5030    1.2166    1.3682 O   0  0  0  0  0  0  0  0  0  0  0  0
    1.7084    1.6421   -0.8505 O   0  0  0  0  0  0  0  0  0  0  0  0
    1.1269   -0.9279   -1.5387 N   0  0  0  0  0  0  0  0  0  0  0  0
    1.0684   -0.6065   -0.1076 C   0  0  0  0  0  0  0  0  0  0  0  0
   -0.3465   -0.8867    0.4523 C   0  0  0  0  0  0  0  0  0  0  0  0
    2.1036   -1.4874    0.6059 C   0  0  0  0  0  0  0  0  0  0  0  0
   -1.4615   -0.0450   -0.1777 C   0  0  0  0  0  0  0  0  0  0  0  0
    1.4605    0.8603    0.0577 C   0  0  0  0  0  0  0  0  0  0  0  0
   -4.0915    0.7064   -0.3619 C   0  0  0  0  0  0  0  0  0  0  0  0
  1  8  1  0
  1 10  1  0
  2  9  1  0
  3  9  2  0
  4  5  1  0
  5  6  1  0
  5  7  1  0
  5  9  1  0
  6  8  1  0
M  END
>  <PUBCHEM_COMPOUND_CID>  (1) 
2111

>  <PUBCHEM_CONFORMER_RMSD>  (1) 
0.6

>  <PUBCHEM_CONFORMER_DIVERSEORDER>  (1) 
1
32
41
19
39
24
33
14
26
42
27
4
20
36
37
21
34
25
23
35
9
29
28
13
10
6
38
30
22
3
40
12
31
18
16
11
15
17
7
5
8
2

>  <PUBCHEM_MMFF94_PARTIAL_CHARGES>  (1) 
11
1 -0.46
10 0.23
18 0.36
19 0.36
2 -0.65
20 0.5
3 -0.57
4 -0.99
5 0.33
8 0.23
9 0.66

>  <PUBCHEM_EFFECTIVE_ROTOR_COUNT>  (1) 
4

>  <PUBCHEM_PHARMACOPHORE_FEATURES>  (1) 
6
1 10 hydrophobe
1 2 acceptor
1 3 acceptor
1 4 cation
1 4 donor
3 2 3 9 anion

>  <PUBCHEM_HEAVY_ATOM_COUNT>  (1) 
10

>  <PUBCHEM_ATOM_DEF_STEREO_COUNT>  (1) 
0

>  <PUBCHEM_ATOM_UDEF_STEREO_COUNT>  (1) 
1

>  <PUBCHEM_BOND_DEF_STEREO_COUNT>  (1) 
0

>  <PUBCHEM_BOND_UDEF_STEREO_COUNT>  (1) 
0

>  <PUBCHEM_ISOTOPIC_ATOM_COUNT>  (1) 
0

>  <PUBCHEM_COMPONENT_COUNT>  (1) 
1

>  <PUBCHEM_CACTVS_TAUTO_COUNT>  (1) 
1

>  <PUBCHEM_CONFORMER_ID>  (1) 
0000083F00000001

>  <PUBCHEM_MMFF94_ENERGY>  (1) 
13.1238

>  <PUBCHEM_FEATURE_SELFOVERLAP>  (1) 
30.505

>  <PUBCHEM_SHAPE_FINGERPRINT>  (1) 
10219947 1 17846493682517181458
12725867 57 18261671459250570150
12932764 1 18262250975325758531
13922767 16 18339070493777245315
14390081 3 18333732421044004913
15775835 57 18130500946112243953
18186145 218 18337394851410810867
20653091 64 18337117778163759682
21040471 1 18124596650354450362
230 275 18409449210784652449
3248919 1 17704077274645662691
8030462 33 16128666227958145123

>  <PUBCHEM_SHAPE_MULTIPOLES>  (1) 
192.93
5.11
1.5
1.1
6.83
0.24
0.09
0.6
-0.07
-0.99
-0.06
-0.49
0.05
0.24

>  <PUBCHEM_SHAPE_SELFOVERLAP>  (1) 
347.092

>  <PUBCHEM_SHAPE_VOLUME>  (1) 
127.1

>  <PUBCHEM_COORDINATE_TYPE>  (1) 
2
5
10

$$$$
