21112
     RDKit          3D

 24 24  0  0  0  0  0  0  0  0999 V2000
   -0.6790    0.3874   -0.9893 O   0  0  0  0  0  0  0  0  0  0  0  0
    1.9600    3.1597    0.4187 O   0  0  0  0  0  0  0  0  0  0  0  0
    0.4188    2.8588   -1.2645 O   0  0  0  0  0  0  0  0  0  0  0  0
   -0.8268   -2.7378    0.2282 O   0  0  0  0  0  0  0  0  0  0  0  0
   -0.1653   -2.8128   -1.8638 O   0  0  0  0  0  0  0  0  0  0  0  0
    5.2739   -0.2448    0.9210 O   0  0  0  0  0  0  0  0  0  0  0  0
    4.6830   -2.3561    0.8086 O   0  0  0  0  0  0  0  0  0  0  0  0
   -4.0561    0.4953    0.4837 N   0  0  0  0  0  0  0  0  0  0  0  0
   -0.0833   -2.3472   -0.7026 N   0  0  0  0  0  0  0  0  0  0  0  0
    4.4225   -1.1351    0.6824 N   0  0  0  0  0  0  0  0  0  0  0  0
   -3.0260    0.2998   -0.5360 C   0  0  0  0  0  0  0  0  0  0  0  0
   -5.3644    0.6856   -0.1414 C   0  0  0  0  0  0  0  0  0  0  0  0
   -4.0889   -0.6426    1.4016 C   0  0  0  0  0  0  0  0  0  0  0  0
   -1.6478    0.6066    0.0278 C   0  0  0  0  0  0  0  0  0  0  0  0
   -5.7804   -0.5447   -0.9298 C   0  0  0  0  0  0  0  0  0  0  0  0
   -5.1119   -0.4291    2.5043 C   0  0  0  0  0  0  0  0  0  0  0  0
    0.5729    0.0099   -0.5791 C   0  0  0  0  0  0  0  0  0  0  0  0
    1.5360    0.9820   -0.3081 C   0  0  0  0  0  0  0  0  0  0  0  0
    0.8854   -1.3416   -0.4322 C   0  0  0  0  0  0  0  0  0  0  0  0
    2.8114    0.6025    0.1097 C   0  0  0  0  0  0  0  0  0  0  0  0
    2.1609   -1.7210   -0.0144 C   0  0  0  0  0  0  0  0  0  0  0  0
    3.1240   -0.7489    0.2568 C   0  0  0  0  0  0  0  0  0  0  0  0
    1.2325    2.3992   -0.4542 C   0  0  0  0  0  0  0  0  0  0  0  0
    1.7484    4.5749    0.3724 C   0  0  0  0  0  0  0  0  0  0  0  0
  1 14  1  0
  1 17  1  0
  2 23  1  0
  2 24  1  0
  3 23  2  0
  4  9  1  0
  5  9  2  0
  6 10  1  0
  7 10  2  0
  8 11  1  0
  8 12  1  0
  8 13  1  0
  9 19  1  0
 10 22  1  0
 11 14  1  0
 12 15  1  0
 13 16  1  0
 17 18  2  0
 17 19  1  0
 18 20  1  0
 18 23  1  0
 19 21  2  0
 20 22  2  0
 21 22  1  0
M  CHG  4   4  -1   6  -1   9   1  10   1
M  END
>  <PUBCHEM_COMPOUND_CID>  (1) 
21112

>  <PUBCHEM_CONFORMER_RMSD>  (1) 
1

>  <PUBCHEM_CONFORMER_DIVERSEORDER>  (1) 
1
19
11
32
34
18
35
8
21
9
5
7
36
26
29
33
16
3
28
27
24
20
17
14
13
23
6
4
2
30
31
22
38
10
25
15
12
37

>  <PUBCHEM_MMFF94_PARTIAL_CHARGES>  (1) 
24
1 -0.36
10 0.91
11 0.27
12 0.27
13 0.27
14 0.28
17 0.08
18 0.09
19 0.13
2 -0.43
20 -0.15
21 -0.15
22 0.13
23 0.63
24 0.28
3 -0.57
39 0.15
4 -0.52
40 0.15
5 -0.52
6 -0.52
7 -0.52
8 -0.81
9 0.91

>  <PUBCHEM_EFFECTIVE_ROTOR_COUNT>  (1) 
10

>  <PUBCHEM_PHARMACOPHORE_FEATURES>  (1) 
10
1 1 acceptor
1 3 acceptor
1 4 acceptor
1 4 anion
1 5 acceptor
1 6 acceptor
1 6 anion
1 7 acceptor
1 8 cation
6 17 18 19 20 21 22 rings

>  <PUBCHEM_HEAVY_ATOM_COUNT>  (1) 
24

>  <PUBCHEM_ATOM_DEF_STEREO_COUNT>  (1) 
0

>  <PUBCHEM_ATOM_UDEF_STEREO_COUNT>  (1) 
0

>  <PUBCHEM_BOND_DEF_STEREO_COUNT>  (1) 
0

>  <PUBCHEM_BOND_UDEF_STEREO_COUNT>  (1) 
0

>  <PUBCHEM_ISOTOPIC_ATOM_COUNT>  (1) 
0

>  <PUBCHEM_COMPONENT_COUNT>  (1) 
1

>  <PUBCHEM_CACTVS_TAUTO_COUNT>  (1) 
1

>  <PUBCHEM_CONFORMER_ID>  (1) 
0000527800000001

>  <PUBCHEM_MMFF94_ENERGY>  (1) 
78.743

>  <PUBCHEM_FEATURE_SELFOVERLAP>  (1) 
50.918

>  <PUBCHEM_SHAPE_FINGERPRINT>  (1) 
1100329 8 18339072795774363630
11045977 3 17967817154385479507
11545043 162 17095249129219089737
11578080 2 17271989150504720914
11796584 16 16588304956136421299
12166972 35 18201431493734858057
12236239 1 17632287956991546487
12390115 104 17475527543040746508
12403260 363 18342172285147019429
12507560 14 18413103944464640420
12616971 3 18202289126238018589
12633257 1 18336561472936494403
13134695 92 18334574633364820949
13140716 1 18194112139323450920
13583140 156 17968093136262763283
14178342 30 18054803783876715585
14466204 15 18267581308654785313
14787075 74 17894354380329384530
14790565 3 17684940493776477036
14955137 171 18411426089952762870
15475509 8 17844555282630996132
17980427 23 17702929461551880116
18222031 100 18341334396766553286
18785283 64 18189621716550626276
20028762 73 18201993352756914071
20261772 1 18341041948169915918
20739085 24 18127713546659851162
21033648 29 17845067620035667417
21065201 7 16588023550443676393
21709351 56 18340757179422443901
23184049 59 18411698777051703062
23558518 356 17545886383313203636
23559900 14 17530683234351823149
2748010 2 17764011486140670358
465052 167 18260272927525733955
5104073 3 18337403742151486929
59554788 170 18056479444409384926
67856867 119 18271237326883162589
69474 34 18409440397659493120
7495541 125 18040443208529446121

>  <PUBCHEM_SHAPE_MULTIPOLES>  (1) 
437.88
10.61
3.8
1.37
10.63
3.58
-0.43
-2.66
-4.33
-4.39
0.33
1.64
-0.42
-0.16

>  <PUBCHEM_SHAPE_SELFOVERLAP>  (1) 
898.834

>  <PUBCHEM_SHAPE_VOLUME>  (1) 
255.2

>  <PUBCHEM_COORDINATE_TYPE>  (1) 
2
5
10

$$$$
