21111
     RDKit          3D

 19 19  0  0  0  0  0  0  0  0999 V2000
   -5.1127   -1.8969    0.9499 Cl  0  0  0  0  0  0  0  0  0  0  0  0
    0.1941   -0.3458   -1.0333 O   0  0  0  0  0  0  0  0  0  0  0  0
   -2.3192    2.4481    0.5940 O   0  0  0  0  0  0  0  0  0  0  0  0
   -0.8689    2.1742   -1.1725 O   0  0  0  0  0  0  0  0  0  0  0  0
    3.6202   -0.2316    0.3213 N   0  0  0  0  0  0  0  0  0  0  0  0
    2.4524    0.1878   -0.4528 C   0  0  0  0  0  0  0  0  0  0  0  0
    4.0692   -1.5556   -0.1076 C   0  0  0  0  0  0  0  0  0  0  0  0
    4.7011    0.7439    0.1847 C   0  0  0  0  0  0  0  0  0  0  0  0
    1.3103   -0.8007   -0.2795 C   0  0  0  0  0  0  0  0  0  0  0  0
    5.2447   -2.0340    0.7276 C   0  0  0  0  0  0  0  0  0  0  0  0
    4.2520    2.1264    0.6264 C   0  0  0  0  0  0  0  0  0  0  0  0
   -1.0478   -0.6917   -0.5685 C   0  0  0  0  0  0  0  0  0  0  0  0
   -1.9721    0.2876   -0.2195 C   0  0  0  0  0  0  0  0  0  0  0  0
   -1.3691   -2.0405   -0.4518 C   0  0  0  0  0  0  0  0  0  0  0  0
   -3.2314   -0.0854    0.2506 C   0  0  0  0  0  0  0  0  0  0  0  0
   -2.6283   -2.4135    0.0186 C   0  0  0  0  0  0  0  0  0  0  0  0
   -3.5594   -1.4359    0.3695 C   0  0  0  0  0  0  0  0  0  0  0  0
   -1.6494    1.7029   -0.3365 C   0  0  0  0  0  0  0  0  0  0  0  0
   -2.0854    3.8605    0.5793 C   0  0  0  0  0  0  0  0  0  0  0  0
  1 17  1  0
  2  9  1  0
  2 12  1  0
  3 18  1  0
  3 19  1  0
  4 18  2  0
  5  6  1  0
  5  7  1  0
  5  8  1  0
  6  9  1  0
  7 10  1  0
  8 11  1  0
 12 13  2  0
 12 14  1  0
 13 15  1  0
 13 18  1  0
 14 16  2  0
 15 17  2  0
 16 17  1  0
M  END
>  <PUBCHEM_COMPOUND_CID>  (1) 
21111

>  <PUBCHEM_CONFORMER_RMSD>  (1) 
0.8

>  <PUBCHEM_CONFORMER_DIVERSEORDER>  (1) 
1
142
129
58
172
76
170
165
34
175
61
82
149
73
190
130
179
146
24
135
71
79
96
116
126
154
192
101
160
143
99
133
195
124
55
105
103
110
161
162
28
177
185
111
178
198
147
118
66
100
186
122
167
121
77
6
98
22
184
117
127
70
23
136
86
120
107
95
157
20
26
139
191
97
140
4
48
141
54
144
44
93
94
115
90
12
92
112
2
155
13
109
131
78
125
137
151
36
156
45
64
9
153
173
14
84
114
60
171
32
132
148
30
123
87
75
52
7
27
74
166
83
158
19
8
164
106
169
51
18
56
49
134
128
3
183
46
59
88
81
159
5
42
189
72
17
21
57
193
68
43
31
37
80
91
102
188
150
62
152
182
29
65
187
119
163
63
180
47
11
69
41
50
89
181
16
39
33
145
67
113
25
38
138
176
35
15
174
108
104
85
197
168
10
53
40
194
196

>  <PUBCHEM_MMFF94_PARTIAL_CHARGES>  (1) 
20
1 -0.18
12 0.08
13 0.09
14 -0.15
15 -0.15
16 -0.15
17 0.18
18 0.63
19 0.28
2 -0.36
3 -0.43
34 0.15
35 0.15
36 0.15
4 -0.57
5 -0.81
6 0.27
7 0.27
8 0.27
9 0.28

>  <PUBCHEM_EFFECTIVE_ROTOR_COUNT>  (1) 
8

>  <PUBCHEM_PHARMACOPHORE_FEATURES>  (1) 
4
1 2 acceptor
1 4 acceptor
1 5 cation
6 12 13 14 15 16 17 rings

>  <PUBCHEM_HEAVY_ATOM_COUNT>  (1) 
19

>  <PUBCHEM_ATOM_DEF_STEREO_COUNT>  (1) 
0

>  <PUBCHEM_ATOM_UDEF_STEREO_COUNT>  (1) 
0

>  <PUBCHEM_BOND_DEF_STEREO_COUNT>  (1) 
0

>  <PUBCHEM_BOND_UDEF_STEREO_COUNT>  (1) 
0

>  <PUBCHEM_ISOTOPIC_ATOM_COUNT>  (1) 
0

>  <PUBCHEM_COMPONENT_COUNT>  (1) 
1

>  <PUBCHEM_CACTVS_TAUTO_COUNT>  (1) 
1

>  <PUBCHEM_CONFORMER_ID>  (1) 
0000527700000001

>  <PUBCHEM_MMFF94_ENERGY>  (1) 
51.3154

>  <PUBCHEM_FEATURE_SELFOVERLAP>  (1) 
20.303

>  <PUBCHEM_SHAPE_FINGERPRINT>  (1) 
11357001 24 18410857638072278239
11405975 8 18338230454362131058
12107183 9 17832419801022829906
12403814 3 18201434813581248647
12633257 1 18200884980310042160
12892183 10 18410851058440934630
13004483 165 18410287047335328419
13533116 47 18334294284091840354
14251751 93 18336824170041951666
14341114 176 18409732880895813646
14420673 8 17905045859705519394
15042514 8 18336271158937855763
17492 89 18409729543627675202
17844677 252 18411987940784907354
17980427 23 17416698045364321463
1813 80 17385722547128965846
20510252 161 18342178856003656483
20645477 70 11746927664911793008
21065198 57 18340484466041989822
21065199 12 18412821374714380890
21637258 2 15792574235504394971
21650355 55 18339081600705467711
21652331 79 18341893060458852360
22182937 141 18200035010424721800
2297311 6 18340503234753668198
23366157 5 17471018442192187965
23402539 116 18343014506801412855
23557571 272 18339654415934595524
23559900 14 18409721859946363670
23845131 108 17690292512875110969
3009799 131 18262507204780180719
312423 11 18186810166823805662
4214541 1 18337951195520070486
5104073 3 18339353077335482394
5374978 207 18409729607788050666
621550 34 18060148655885895038
69474 34 18199190770800143033
7097593 13 17900249819864756858
81228 2 18262821591642536615
90316 7 18339371837394083829
9709674 26 18271807852847820614

>  <PUBCHEM_SHAPE_MULTIPOLES>  (1) 
370.29
10.54
3.62
0.91
9.73
3.23
-0.02
-4.68
3.64
-2
0.69
-0.15
0.06
0.2

>  <PUBCHEM_SHAPE_SELFOVERLAP>  (1) 
738.507

>  <PUBCHEM_SHAPE_VOLUME>  (1) 
221.8

>  <PUBCHEM_COORDINATE_TYPE>  (1) 
2
5
10

$$$$
