21120
     RDKit          3D

 13 14  0  0  0  0  0  0  0  0999 V2000
   -1.0160    2.3159    0.1981 O   0  0  0  0  0  0  0  0  0  0  0  0
   -1.0113   -2.3173    0.1980 O   0  0  0  0  0  0  0  0  0  0  0  0
   -1.4405   -0.0002    0.2460 N   0  0  0  0  0  0  0  0  0  0  0  0
    0.7056    0.6938    0.0410 C   0  0  0  0  0  0  0  0  0  0  0  0
    0.7058   -0.6932    0.0411 C   0  0  0  0  0  0  0  0  0  0  0  0
   -2.8827   -0.0005    0.3910 C   0  0  0  0  0  0  0  0  0  0  0  0
   -0.6789    1.1469    0.1694 C   0  0  0  0  0  0  0  0  0  0  0  0
   -0.6787   -1.1470    0.1696 C   0  0  0  0  0  0  0  0  0  0  0  0
    1.8710    1.4241   -0.0687 C   0  0  0  0  0  0  0  0  0  0  0  0
    1.8715   -1.4232   -0.0687 C   0  0  0  0  0  0  0  0  0  0  0  0
   -3.5757   -0.0007   -0.9559 C   0  0  0  0  0  0  0  0  0  0  0  0
    3.0648    0.7056   -0.1803 C   0  0  0  0  0  0  0  0  0  0  0  0
    3.0650   -0.7043   -0.1805 C   0  0  0  0  0  0  0  0  0  0  0  0
  1  7  2  0
  2  8  2  0
  3  6  1  0
  3  7  1  0
  3  8  1  0
  4  5  2  0
  4  7  1  0
  4  9  1  0
  5  8  1  0
  5 10  1  0
  6 11  1  0
  9 12  2  0
 10 13  2  0
 12 13  1  0
M  END
>  <PUBCHEM_COMPOUND_CID>  (1) 
21120

>  <PUBCHEM_CONFORMER_RMSD>  (1) 
0.4

>  <PUBCHEM_CONFORMER_DIVERSEORDER>  (1) 
1

>  <PUBCHEM_MMFF94_PARTIAL_CHARGES>  (1) 
16
1 -0.57
10 -0.15
12 -0.15
13 -0.15
16 0.15
17 0.15
2 -0.57
21 0.15
22 0.15
3 -0.42
4 0.09
5 0.09
6 0.3
7 0.54
8 0.54
9 -0.15

>  <PUBCHEM_EFFECTIVE_ROTOR_COUNT>  (1) 
1.2

>  <PUBCHEM_PHARMACOPHORE_FEATURES>  (1) 
4
1 1 acceptor
1 2 acceptor
5 3 4 5 7 8 rings
6 4 5 9 10 12 13 rings

>  <PUBCHEM_HEAVY_ATOM_COUNT>  (1) 
13

>  <PUBCHEM_ATOM_DEF_STEREO_COUNT>  (1) 
0

>  <PUBCHEM_ATOM_UDEF_STEREO_COUNT>  (1) 
0

>  <PUBCHEM_BOND_DEF_STEREO_COUNT>  (1) 
0

>  <PUBCHEM_BOND_UDEF_STEREO_COUNT>  (1) 
0

>  <PUBCHEM_ISOTOPIC_ATOM_COUNT>  (1) 
0

>  <PUBCHEM_COMPONENT_COUNT>  (1) 
1

>  <PUBCHEM_CACTVS_TAUTO_COUNT>  (1) 
1

>  <PUBCHEM_CONFORMER_ID>  (1) 
0000528000000001

>  <PUBCHEM_MMFF94_ENERGY>  (1) 
25.3688

>  <PUBCHEM_FEATURE_SELFOVERLAP>  (1) 
20.39

>  <PUBCHEM_SHAPE_FINGERPRINT>  (1) 
10967382 1 18410858780301437938
11206711 2 18264776462680934165
11471102 20 18410007732589822901
12032990 46 18409739486191706523
12423570 1 11660712642652434107
12524768 44 18340778103843817342
12897270 3 18411422838456661396
13380535 76 18411417332372235702
13897977 150 18268147745825965904
14325111 11 18410576171437692777
14617773 55 17845663542653388849
14911166 2 18410014329670158710
16945 1 18410581682028231752
17844478 74 17895203216058852609
18186145 218 18336263462066324277
193761 8 17617660955879881513
20201158 50 18411419514109919174
20588541 1 18412549842064597560
21501502 16 18267589000745656704
2334 1 17978514466004279522
23402539 116 18341883074332627444
23402655 69 18341323431989489773
23552423 10 18117001185469994070
23559900 14 18198354034410603876
25 1 18188761735533232941
2748010 2 18051700133207783056
353137 74 18336261258495069065
5084963 1 18130786694449363602
528886 8 18339640143795278298
53812654 25 18201422688725015582
63268167 104 18413107281775425305

>  <PUBCHEM_SHAPE_MULTIPOLES>  (1) 
250.81
4.84
1.93
0.7
1.12
0
-0.07
0
-0.93
-0.07
0.14
0.27
0
0

>  <PUBCHEM_SHAPE_SELFOVERLAP>  (1) 
548.056

>  <PUBCHEM_SHAPE_VOLUME>  (1) 
139.1

>  <PUBCHEM_COORDINATE_TYPE>  (1) 
2
5
10

$$$$
