21125
     RDKit          3D

 18 20  0  0  1  0  0  0  0  0999 V2000
    5.4635    1.9435   -0.1341 Cl  0  0  0  0  0  0  0  0  0  0  0  0
    0.7242   -2.5594    0.9810 O   0  0  0  0  0  0  0  0  0  0  0  0
   -1.6121   -1.0300   -0.9814 N   0  0  0  0  0  0  0  0  0  0  0  0
   -1.0336   -0.0791    0.9425 N   0  0  0  0  0  0  0  0  0  0  0  0
    0.6300   -1.6148   -0.1041 C   0  0  0  0  0  0  0  0  0  0  0  0
   -0.6544   -0.8956   -0.0151 C   0  0  0  0  0  0  0  0  0  0  0  0
   -2.6804   -0.2480   -0.6239 C   0  0  0  0  0  0  0  0  0  0  0  0
    1.8622   -0.7059   -0.1118 C   0  0  0  0  0  0  0  0  0  0  0  0
   -2.2949    0.3349    0.5801 C   0  0  0  0  0  0  0  0  0  0  0  0
   -3.9131   -0.0078   -1.2318 C   0  0  0  0  0  0  0  0  0  0  0  0
   -3.1792    1.2121    1.2303 C   0  0  0  0  0  0  0  0  0  0  0  0
    2.3001   -0.2015   -1.3141 C   0  0  0  0  0  0  0  0  0  0  0  0
    2.4836   -0.4306    1.0840 C   0  0  0  0  0  0  0  0  0  0  0  0
   -4.7808    0.8679   -0.5709 C   0  0  0  0  0  0  0  0  0  0  0  0
   -4.4224    1.4680    0.6384 C   0  0  0  0  0  0  0  0  0  0  0  0
    3.4234    0.6255   -1.3209 C   0  0  0  0  0  0  0  0  0  0  0  0
    3.6068    0.3964    1.0771 C   0  0  0  0  0  0  0  0  0  0  0  0
    4.0769    0.9244   -0.1253 C   0  0  0  0  0  0  0  0  0  0  0  0
  1 18  1  0
  2  5  1  0
  3  6  1  0
  3  7  1  0
  4  6  2  0
  4  9  1  0
  5  6  1  0
  5  8  1  0
  7  9  2  0
  7 10  1  0
  8 12  2  0
  8 13  1  0
  9 11  1  0
 10 14  2  0
 11 15  2  0
 12 16  1  0
 13 17  2  0
 14 15  1  0
 16 18  2  0
 17 18  1  0
M  END
>  <PUBCHEM_COMPOUND_CID>  (1) 
21125

>  <PUBCHEM_CONFORMER_RMSD>  (1) 
0.6

>  <PUBCHEM_CONFORMER_DIVERSEORDER>  (1) 
4
3
2
1

>  <PUBCHEM_MMFF94_PARTIAL_CHARGES>  (1) 
28
1 -0.18
10 -0.15
11 -0.15
12 -0.15
13 -0.15
14 -0.15
15 -0.15
16 -0.15
17 -0.15
18 0.18
2 -0.68
20 0.27
21 0.15
22 0.15
23 0.15
24 0.15
25 0.15
26 0.15
27 0.4
28 0.15
29 0.15
3 0.03
4 -0.57
5 0.6
6 0.01
7 -0.15
8 -0.14
9 0.23

>  <PUBCHEM_EFFECTIVE_ROTOR_COUNT>  (1) 
2

>  <PUBCHEM_PHARMACOPHORE_FEATURES>  (1) 
7
1 2 acceptor
1 2 donor
1 3 donor
3 3 4 6 cation
5 3 4 6 7 9 rings
6 7 9 10 11 14 15 rings
6 8 12 13 16 17 18 rings

>  <PUBCHEM_HEAVY_ATOM_COUNT>  (1) 
18

>  <PUBCHEM_ATOM_DEF_STEREO_COUNT>  (1) 
0

>  <PUBCHEM_ATOM_UDEF_STEREO_COUNT>  (1) 
1

>  <PUBCHEM_BOND_DEF_STEREO_COUNT>  (1) 
0

>  <PUBCHEM_BOND_UDEF_STEREO_COUNT>  (1) 
0

>  <PUBCHEM_ISOTOPIC_ATOM_COUNT>  (1) 
0

>  <PUBCHEM_COMPONENT_COUNT>  (1) 
1

>  <PUBCHEM_CACTVS_TAUTO_COUNT>  (1) 
1

>  <PUBCHEM_CONFORMER_ID>  (1) 
0000528500000004

>  <PUBCHEM_MMFF94_ENERGY>  (1) 
38.1336

>  <PUBCHEM_FEATURE_SELFOVERLAP>  (1) 
35.627

>  <PUBCHEM_SHAPE_FINGERPRINT>  (1) 
10498660 4 17846495890162026985
11046707 91 8718557098942641664
11543360 7 16559029398021008149
11640471 11 18335417993374963998
12173636 292 17702940323798452165
12251169 10 15646776699409886142
12346177 29 11530475662489523443
12363563 72 10735880573225964614
12507557 5 17676208008818560685
12507560 40 15719386214025374606
12633257 1 15140965097046219080
12670546 177 16702301252141452117
12707595 3 11959723858968550158
12788726 201 17977653535610930914
12892183 10 15719662191533656132
13583140 156 16950844811986337769
13675066 3 14707206595873081707
14178342 30 11963932759462293838
1420 369 9079124353786966988
14341114 176 14923943436342679212
14576447 43 12895083916278631900
14739800 52 18057865005375490960
15188451 53 13190629386081523809
15239191 94 9655569717005920845
15342168 16 18187651314145212757
17780758 139 12613019618008974556
1798214 20 12391516360500037492
1813 80 17834394515116745262
18186145 218 18334864874427746502
18222031 100 9511458896779877768
193927 3 9079114492146299652
19784866 240 9727631704959052921
19784866 34 18409730651327641827
19862831 5 17489310754406803843
200 152 12895080621648059070
20281475 54 8286192851306727730
204376 136 18187083961834800427
20645477 70 11671765066610252465
20871999 31 16630527340946288205
21065199 12 14851604379659022052
21713013 43 14764340574274270093
22079108 93 18335151894861039459
2255824 54 18194965132339526139
22646028 1 8430313537125442541
22950370 63 9511465545663578008
23402539 116 18131911568455257668
23402655 69 17203616969050468840
235170 7 15769784545619664292
23557571 272 17774159153145753703
23559900 14 16700897072687297718
26918003 58 14201391694452272773
270888 7 18409449210890797052
2838139 119 18059572542475220848
328317 168 18341893004212807821
3472631 163 18272089417712921677
351380 3 9727638310481850988
4028521 119 17846500330873159737
42 15 12973605525552634109
4259306 186 11887682775128039852
465052 167 10015570757943057181
474 4 18335420170691125048
4990 188 16486971773897145027
5281201 14 16271930415044786736
5924683 9 15719684263687134633
633830 44 18340774745089786199
90316 7 12035728683198417055
960060 61 13326845617787269233

>  <PUBCHEM_SHAPE_MULTIPOLES>  (1) 
356.47
10.6
1.74
1.32
1.13
0.3
0.06
-7.44
1.38
0.58
-0.36
0.08
0.03
-0.79

>  <PUBCHEM_SHAPE_SELFOVERLAP>  (1) 
780.405

>  <PUBCHEM_SHAPE_VOLUME>  (1) 
195.3

>  <PUBCHEM_COORDINATE_TYPE>  (1) 
2
5
10

$$$$
