2112
     RDKit          3D

 15 15  0  0  1  0  0  0  0  0999 V2000
   -1.3869    1.3472    0.8958 O   0  0  0  0  0  0  0  0  0  0  0  0
   -2.6713    1.2270   -1.0064 O   0  0  0  0  0  0  0  0  0  0  0  0
    4.3313    0.7050    0.3096 O   0  0  0  0  0  0  0  0  0  0  0  0
   -3.2050   -1.3923   -0.4414 N   0  0  0  0  0  0  0  0  0  0  0  0
   -1.9489   -0.8324    0.0907 C   0  0  0  0  0  0  0  0  0  0  0  0
   -0.7957   -1.3800   -0.7843 C   0  0  0  0  0  0  0  0  0  0  0  0
    0.5784   -0.8211   -0.4909 C   0  0  0  0  0  0  0  0  0  0  0  0
   -1.8449   -1.2626    1.5607 C   0  0  0  0  0  0  0  0  0  0  0  0
   -2.0750    0.6863   -0.0809 C   0  0  0  0  0  0  0  0  0  0  0  0
    1.0047    0.3127   -1.1612 C   0  0  0  0  0  0  0  0  0  0  0  0
    1.3814   -1.4552    0.4419 C   0  0  0  0  0  0  0  0  0  0  0  0
    2.2723    0.8280   -0.8907 C   0  0  0  0  0  0  0  0  0  0  0  0
    2.6490   -0.9398    0.7126 C   0  0  0  0  0  0  0  0  0  0  0  0
    3.0945    0.2019    0.0463 C   0  0  0  0  0  0  0  0  0  0  0  0
   -1.3841    2.7751    0.7983 C   0  0  0  0  0  0  0  0  0  0  0  0
  1  9  1  0
  1 15  1  0
  2  9  2  0
  3 14  1  0
  4  5  1  0
  5  6  1  0
  5  8  1  0
  5  9  1  0
  6  7  1  0
  7 10  2  0
  7 11  1  0
 10 12  1  0
 11 13  2  0
 12 14  2  0
 13 14  1  0
M  END
>  <PUBCHEM_COMPOUND_CID>  (1) 
2112

>  <PUBCHEM_CONFORMER_RMSD>  (1) 
0.6

>  <PUBCHEM_CONFORMER_DIVERSEORDER>  (1) 
1
21
23
10
17
13
6
19
22
15
25
8
14
20
7
5
24
16
9
11
18
12
2
4
3

>  <PUBCHEM_MMFF94_PARTIAL_CHARGES>  (1) 
21
1 -0.43
10 -0.15
11 -0.15
12 -0.15
13 -0.15
14 0.08
15 0.28
2 -0.57
21 0.36
22 0.36
23 0.15
24 0.15
25 0.15
26 0.15
3 -0.53
30 0.45
4 -0.99
5 0.33
6 0.14
7 -0.14
9 0.66

>  <PUBCHEM_EFFECTIVE_ROTOR_COUNT>  (1) 
4

>  <PUBCHEM_PHARMACOPHORE_FEATURES>  (1) 
5
1 2 acceptor
1 3 donor
1 4 cation
1 4 donor
6 7 10 11 12 13 14 rings

>  <PUBCHEM_HEAVY_ATOM_COUNT>  (1) 
15

>  <PUBCHEM_ATOM_DEF_STEREO_COUNT>  (1) 
0

>  <PUBCHEM_ATOM_UDEF_STEREO_COUNT>  (1) 
1

>  <PUBCHEM_BOND_DEF_STEREO_COUNT>  (1) 
0

>  <PUBCHEM_BOND_UDEF_STEREO_COUNT>  (1) 
0

>  <PUBCHEM_ISOTOPIC_ATOM_COUNT>  (1) 
0

>  <PUBCHEM_COMPONENT_COUNT>  (1) 
1

>  <PUBCHEM_CACTVS_TAUTO_COUNT>  (1) 
2

>  <PUBCHEM_CONFORMER_ID>  (1) 
0000084000000001

>  <PUBCHEM_MMFF94_ENERGY>  (1) 
32.3838

>  <PUBCHEM_FEATURE_SELFOVERLAP>  (1) 
25.371

>  <PUBCHEM_SHAPE_FINGERPRINT>  (1) 
12251169 10 17603587439009668382
12382932 28 17967811626677854906
12491281 212 18338522919817254184
13024252 1 18040714792502656527
13693222 7 18264785280312076556
13764800 53 18271260321652535153
13839132 238 17986962851306468364
15375462 478 18336826489113171374
15775835 57 18272093781414933944
16945 1 18265911304952435846
17844478 74 14261361300852374735
19868273 325 18272372026671163853
200 152 18262789787204481735
20510252 161 18343022198359423731
20525323 117 18412270531867539635
21524375 3 17834125143219997297
22802520 49 17344371972145130876
23236772 104 18261109673043544483
23402539 116 17917422176739220383
23419403 2 17977632597876679541
23557571 272 17988928902524454239
2748010 2 18268165170476546711
63268167 104 18114177484864377164

>  <PUBCHEM_SHAPE_MULTIPOLES>  (1) 
286.1
5.39
2.1
1.19
3.3
1.09
0.1
0.52
0.33
-1.35
0.5
-0.29
-0.03
-0.31

>  <PUBCHEM_SHAPE_SELFOVERLAP>  (1) 
588.745

>  <PUBCHEM_SHAPE_VOLUME>  (1) 
165.2

>  <PUBCHEM_COORDINATE_TYPE>  (1) 
2
5
10

$$$$
