21134
     RDKit          3D

 11 11  0  0  0  0  0  0  0  0999 V2000
    2.7997    1.0976   -0.0005 O   0  0  0  0  0  0  0  0  0  0  0  0
    2.7997   -1.0977    0.0002 O   0  0  0  0  0  0  0  0  0  0  0  0
    2.1918   -0.0001   -0.0001 N   0  0  0  0  0  0  0  0  0  0  0  0
   -2.0261   -2.4293   -0.0003 N   0  0  0  0  0  0  0  0  0  0  0  0
   -2.0257    2.4296   -0.0002 N   0  0  0  0  0  0  0  0  0  0  0  0
    0.7716   -0.0001    0.0003 C   0  0  0  0  0  0  0  0  0  0  0  0
   -1.3207   -1.2079    0.0000 C   0  0  0  0  0  0  0  0  0  0  0  0
   -1.3206    1.2080    0.0002 C   0  0  0  0  0  0  0  0  0  0  0  0
    0.0743    1.2079    0.0004 C   0  0  0  0  0  0  0  0  0  0  0  0
    0.0742   -1.2080    0.0002 C   0  0  0  0  0  0  0  0  0  0  0  0
   -2.0182    0.0000   -0.0001 C   0  0  0  0  0  0  0  0  0  0  0  0
  1  3  1  0
  2  3  2  0
  3  6  1  0
  4  7  1  0
  5  8  1  0
  6  9  2  0
  6 10  1  0
  7 10  2  0
  7 11  1  0
  8  9  1  0
  8 11  2  0
M  CHG  2   1  -1   3   1
M  END
>  <PUBCHEM_COMPOUND_CID>  (1) 
21134

>  <PUBCHEM_CONFORMER_RMSD>  (1) 
0.4

>  <PUBCHEM_CONFORMER_DIVERSEORDER>  (1) 
1

>  <PUBCHEM_MMFF94_PARTIAL_CHARGES>  (1) 
18
1 -0.52
10 -0.15
11 -0.15
12 0.15
13 0.15
14 0.15
15 0.4
16 0.4
17 0.4
18 0.4
2 -0.52
3 0.91
4 -0.9
5 -0.9
6 0.13
7 0.1
8 0.1
9 -0.15

>  <PUBCHEM_EFFECTIVE_ROTOR_COUNT>  (1) 
1

>  <PUBCHEM_PHARMACOPHORE_FEATURES>  (1) 
8
1 1 acceptor
1 1 anion
1 2 acceptor
1 4 cation
1 4 donor
1 5 cation
1 5 donor
6 6 7 8 9 10 11 rings

>  <PUBCHEM_HEAVY_ATOM_COUNT>  (1) 
11

>  <PUBCHEM_ATOM_DEF_STEREO_COUNT>  (1) 
0

>  <PUBCHEM_ATOM_UDEF_STEREO_COUNT>  (1) 
0

>  <PUBCHEM_BOND_DEF_STEREO_COUNT>  (1) 
0

>  <PUBCHEM_BOND_UDEF_STEREO_COUNT>  (1) 
0

>  <PUBCHEM_ISOTOPIC_ATOM_COUNT>  (1) 
0

>  <PUBCHEM_COMPONENT_COUNT>  (1) 
1

>  <PUBCHEM_CACTVS_TAUTO_COUNT>  (1) 
1

>  <PUBCHEM_CONFORMER_ID>  (1) 
0000528E00000001

>  <PUBCHEM_MMFF94_ENERGY>  (1) 
51.2875

>  <PUBCHEM_FEATURE_SELFOVERLAP>  (1) 
40.676

>  <PUBCHEM_SHAPE_FINGERPRINT>  (1) 
1 1 17761209912784614549
12716758 59 18340763741472997762
13380535 76 18196928868822502791
14325111 11 18338517417758737792
16945 1 18410855464502250375
19973954 147 18410857676690164588
20645477 70 16824447399390006079
20871998 184 18201162147466417711
21040471 1 18266740177615902849
23552423 10 18260268577045460494
23559900 14 18127136265445555654
241688 4 18194400215538048553
2748010 2 18051688038616794381
369184 2 18412261739916380450
5084963 1 18129937875720247448

>  <PUBCHEM_SHAPE_MULTIPOLES>  (1) 
199.69
3.57
2.27
0.57
2.42
0
0
0
0
-1.59
0
-0.04
0
0

>  <PUBCHEM_SHAPE_SELFOVERLAP>  (1) 
419.473

>  <PUBCHEM_SHAPE_VOLUME>  (1) 
114

>  <PUBCHEM_COORDINATE_TYPE>  (1) 
2
5
10

$$$$
