2113
     RDKit          3D

 10  9  0  0  1  0  0  0  0  0999 V2000
   -1.4576   -1.2972   -1.2834 O   0  0  0  0  0  0  0  0  0  0  0  0
   -1.7003   -1.5506    0.9573 O   0  0  0  0  0  0  0  0  0  0  0  0
   -1.0737    1.0390    1.4626 N   0  0  0  0  0  0  0  0  0  0  0  0
    3.8923   -0.5431    0.2520 N   0  0  0  0  0  0  0  0  0  0  0  0
   -1.0120    0.6251    0.0557 C   0  0  0  0  0  0  0  0  0  0  0  0
    0.4164    0.8342   -0.4961 C   0  0  0  0  0  0  0  0  0  0  0  0
    1.5067    0.0245    0.2237 C   0  0  0  0  0  0  0  0  0  0  0  0
   -2.0197    1.4654   -0.7414 C   0  0  0  0  0  0  0  0  0  0  0  0
    2.8723    0.2466   -0.4278 C   0  0  0  0  0  0  0  0  0  0  0  0
   -1.4245   -0.8438   -0.0027 C   0  0  0  0  0  0  0  0  0  0  0  0
  1 10  1  0
  2 10  2  0
  3  5  1  0
  4  9  1  0
  5  6  1  0
  5  8  1  0
  5 10  1  0
  6  7  1  0
  7  9  1  0
M  END
>  <PUBCHEM_COMPOUND_CID>  (1) 
2113

>  <PUBCHEM_CONFORMER_RMSD>  (1) 
0.6

>  <PUBCHEM_CONFORMER_DIVERSEORDER>  (1) 
1
25
26
12
29
3
16
30
19
22
23
14
13
21
31
11
18
9
28
27
6
20
17
15
4
7
8
5
24
10
2

>  <PUBCHEM_MMFF94_PARTIAL_CHARGES>  (1) 
12
1 -0.65
10 0.66
2 -0.57
20 0.36
21 0.36
22 0.36
23 0.36
24 0.5
3 -0.99
4 -0.99
5 0.33
9 0.27

>  <PUBCHEM_EFFECTIVE_ROTOR_COUNT>  (1) 
4

>  <PUBCHEM_PHARMACOPHORE_FEATURES>  (1) 
7
1 1 acceptor
1 2 acceptor
1 3 cation
1 3 donor
1 4 cation
1 4 donor
3 1 2 10 anion

>  <PUBCHEM_HEAVY_ATOM_COUNT>  (1) 
10

>  <PUBCHEM_ATOM_DEF_STEREO_COUNT>  (1) 
0

>  <PUBCHEM_ATOM_UDEF_STEREO_COUNT>  (1) 
1

>  <PUBCHEM_BOND_DEF_STEREO_COUNT>  (1) 
0

>  <PUBCHEM_BOND_UDEF_STEREO_COUNT>  (1) 
0

>  <PUBCHEM_ISOTOPIC_ATOM_COUNT>  (1) 
0

>  <PUBCHEM_COMPONENT_COUNT>  (1) 
1

>  <PUBCHEM_CACTVS_TAUTO_COUNT>  (1) 
1

>  <PUBCHEM_CONFORMER_ID>  (1) 
0000084100000001

>  <PUBCHEM_MMFF94_ENERGY>  (1) 
4.7283

>  <PUBCHEM_FEATURE_SELFOVERLAP>  (1) 
35.579

>  <PUBCHEM_SHAPE_FINGERPRINT>  (1) 
12716758 59 18335408054683582048
12932764 1 18271530887786814612
13024252 1 16081092567105099845
20871998 184 18413113869970557303
23552423 10 17895196670360005476
29004967 10 17539130962339061385
3248919 1 17917997140243643380
369184 2 18259988175631186752

>  <PUBCHEM_SHAPE_MULTIPOLES>  (1) 
184.09
4.35
1.47
1.08
5.71
0.19
-0.12
0.46
0.16
-1.13
0.05
-0.54
0.03
-0.05

>  <PUBCHEM_SHAPE_SELFOVERLAP>  (1) 
344.054

>  <PUBCHEM_SHAPE_VOLUME>  (1) 
115.6

>  <PUBCHEM_COORDINATE_TYPE>  (1) 
2
5
10

$$$$
