21132
     RDKit          3D

 19 20  0  0  0  0  0  0  0  0999 V2000
    7.4649    0.1007    0.8346 Cl  0  0  0  0  0  0  0  0  0  0  0  0
    2.8999    1.8467   -0.3197 O   0  0  0  0  0  0  0  0  0  0  0  0
   -3.0816   -0.5393    0.0328 O   0  0  0  0  0  0  0  0  0  0  0  0
   -6.5272    0.0198    0.2440 O   0  0  0  0  0  0  0  0  0  0  0  0
   -5.3520   -1.8327    0.1638 O   0  0  0  0  0  0  0  0  0  0  0  0
    3.6688   -0.3820   -0.3726 N   0  0  0  0  0  0  0  0  0  0  0  0
    1.4624   -0.0115   -0.2394 N   0  0  0  0  0  0  0  0  0  0  0  0
    0.2934    0.6393   -0.1658 N   0  0  0  0  0  0  0  0  0  0  0  0
   -5.4073   -0.5675    0.1732 N   0  0  0  0  0  0  0  0  0  0  0  0
    3.0672   -1.7030   -0.3476 C   0  0  0  0  0  0  0  0  0  0  0  0
    1.5674   -1.4441   -0.2440 C   0  0  0  0  0  0  0  0  0  0  0  0
    2.7016    0.6389   -0.3116 C   0  0  0  0  0  0  0  0  0  0  0  0
    5.0997   -0.1921   -0.4607 C   0  0  0  0  0  0  0  0  0  0  0  0
    5.7059   -0.1523    0.9335 C   0  0  0  0  0  0  0  0  0  0  0  0
   -0.7342   -0.1451   -0.1070 C   0  0  0  0  0  0  0  0  0  0  0  0
   -2.0912    0.3690   -0.0230 C   0  0  0  0  0  0  0  0  0  0  0  0
   -2.5492    1.6443    0.0101 C   0  0  0  0  0  0  0  0  0  0  0  0
   -4.2311    0.1815    0.1049 C   0  0  0  0  0  0  0  0  0  0  0  0
   -3.9574    1.5295    0.0943 C   0  0  0  0  0  0  0  0  0  0  0  0
  1 14  1  0
  2 12  2  0
  3 16  1  0
  3 18  1  0
  4  9  1  0
  5  9  2  0
  6 10  1  0
  6 12  1  0
  6 13  1  0
  7  8  1  0
  7 11  1  0
  7 12  1  0
  8 15  2  0
  9 18  1  0
 10 11  1  0
 13 14  1  0
 15 16  1  0
 16 17  2  0
 17 19  1  0
 18 19  2  0
M  CHG  2   4  -1   9   1
M  END
>  <PUBCHEM_COMPOUND_CID>  (1) 
21132

>  <PUBCHEM_CONFORMER_RMSD>  (1) 
0.8

>  <PUBCHEM_CONFORMER_DIVERSEORDER>  (1) 
1
18
9
12
2
13
5
16
15
7
11
10
4
6
17
3
8
14
19

>  <PUBCHEM_MMFF94_PARTIAL_CHARGES>  (1) 
22
1 -0.29
10 0.3
11 0.3
12 0.69
13 0.3
14 0.29
15 0.47
16 0.05
17 -0.15
18 0.22
19 -0.15
2 -0.57
28 0.06
29 0.15
3 -0.28
30 0.15
4 -0.52
5 -0.52
6 -0.66
7 -0.3
8 -0.51
9 0.96

>  <PUBCHEM_EFFECTIVE_ROTOR_COUNT>  (1) 
5.8

>  <PUBCHEM_PHARMACOPHORE_FEATURES>  (1) 
8
1 2 acceptor
1 3 acceptor
1 4 acceptor
1 4 anion
1 5 acceptor
1 8 acceptor
5 3 16 17 18 19 rings
5 6 7 10 11 12 rings

>  <PUBCHEM_HEAVY_ATOM_COUNT>  (1) 
19

>  <PUBCHEM_ATOM_DEF_STEREO_COUNT>  (1) 
0

>  <PUBCHEM_ATOM_UDEF_STEREO_COUNT>  (1) 
0

>  <PUBCHEM_BOND_DEF_STEREO_COUNT>  (1) 
0

>  <PUBCHEM_BOND_UDEF_STEREO_COUNT>  (1) 
1

>  <PUBCHEM_ISOTOPIC_ATOM_COUNT>  (1) 
0

>  <PUBCHEM_COMPONENT_COUNT>  (1) 
1

>  <PUBCHEM_CACTVS_TAUTO_COUNT>  (1) 
1

>  <PUBCHEM_CONFORMER_ID>  (1) 
0000528C00000001

>  <PUBCHEM_MMFF94_ENERGY>  (1) 
39.4378

>  <PUBCHEM_FEATURE_SELFOVERLAP>  (1) 
40.693

>  <PUBCHEM_SHAPE_FINGERPRINT>  (1) 
10 15 18341887524752202544
106641 1 16630521873621946287
11315181 36 18259706705134196217
11646440 116 17775568654554921080
12091667 2 16805323275703447197
12107183 9 17617944630080327857
12236239 1 17632579318613596742
12670543 26 8935004793713537128
12916748 109 17417816123829626336
13073987 5 18270401577174688250
13167823 11 18411983546701171263
13668630 136 15140681367169181906
13964095 4 9223234061478875882
1420 363 18343305863801201263
14251732 16 18412261757439134664
14251764 18 18040997363096759340
14849402 71 18270679904695693704
15048467 5 12895351105961682602
15196674 1 18339364045912049783
15242439 84 10881405335129475684
17834072 33 18408326600812111805
17834076 25 12175620681080858680
19489759 90 15791729690003532797
200 152 18272652329306548897
20645477 70 18339929194978774414
20735858 18 18412257334023908818
21054139 6 18040150746979595451
21267235 1 18411710875906036647
21315763 129 18334856112974303780
22224240 67 18412819205956480042
23402539 116 17821443543313314205
23559900 14 18409726296626715449
26918003 58 18333453153427315891
300161 21 18339921507197875645
3545911 37 18202002118805418934
4214541 1 18410296870141818805
4325135 7 18411699889490567247
4463277 17 9439399134390289138
5104073 3 18270122283983530610
59682541 35 18200871880675854122
59755656 520 16660361515256425843
67856867 119 18335421321806157788
7495541 125 17989205996829637049
77779 3 18411423878023460877
9709674 26 18337965506161696975

>  <PUBCHEM_SHAPE_MULTIPOLES>  (1) 
349.48
17.09
1.54
0.72
4.28
0.05
-0.06
1.35
-4.18
-0.78
0.1
0.71
-0.01
0.26

>  <PUBCHEM_SHAPE_SELFOVERLAP>  (1) 
722.252

>  <PUBCHEM_SHAPE_VOLUME>  (1) 
203.6

>  <PUBCHEM_COORDINATE_TYPE>  (1) 
2
5
10

$$$$
