21145
     RDKit          3D

 20 20  0  0  1  0  0  0  0  0999 V2000
   -3.6024    0.4449    0.3918 N   0  0  0  0  0  0  0  0  0  0  0  0
    3.5916   -0.4168    0.4096 N   0  0  0  0  0  0  0  0  0  0  0  0
   -2.8805   -0.6036    1.2259 C   0  0  0  0  0  0  0  0  0  0  0  0
    2.8999    0.6251    1.2113 C   0  0  0  0  0  0  0  0  0  0  0  0
   -2.0107   -1.4915    0.3253 C   0  0  0  0  0  0  0  0  0  0  0  0
    2.0053    1.4867    0.2903 C   0  0  0  0  0  0  0  0  0  0  0  0
   -0.9565   -0.7119   -0.4435 C   0  0  0  0  0  0  0  0  0  0  0  0
    0.9645    0.7127   -0.4460 C   0  0  0  0  0  0  0  0  0  0  0  0
   -0.0035   -0.0020    0.2598 C   0  0  0  0  0  0  0  0  0  0  0  0
   -4.4250   -0.2438   -0.6876 C   0  0  0  0  0  0  0  0  0  0  0  0
   -4.5230    1.2602    1.2884 C   0  0  0  0  0  0  0  0  0  0  0  0
   -2.5813    1.3666   -0.2592 C   0  0  0  0  0  0  0  0  0  0  0  0
    4.4245    0.2220   -0.7096 C   0  0  0  0  0  0  0  0  0  0  0  0
    4.5332   -1.2461    1.2928 C   0  0  0  0  0  0  0  0  0  0  0  0
    2.5766   -1.3703   -0.2346 C   0  0  0  0  0  0  0  0  0  0  0  0
   -1.3569   -2.6018    1.1562 C   0  0  0  0  0  0  0  0  0  0  0  0
    1.3789    2.6246    1.1238 C   0  0  0  0  0  0  0  0  0  0  0  0
   -0.9809   -0.7362   -1.8241 C   0  0  0  0  0  0  0  0  0  0  0  0
    0.9596    0.7027   -1.8409 C   0  0  0  0  0  0  0  0  0  0  0  0
   -0.0131   -0.0216   -2.5299 C   0  0  0  0  0  0  0  0  0  0  0  0
  1  3  1  0
  1 10  1  0
  1 11  1  0
  1 12  1  0
  2  4  1  0
  2 13  1  0
  2 14  1  0
  2 15  1  0
  3  5  1  0
  4  6  1  0
  5  7  1  0
  5 16  1  0
  6  8  1  0
  6 17  1  0
  7  9  2  0
  7 18  1  0
  8  9  1  0
  8 19  2  0
 18 20  2  0
 19 20  1  0
M  CHG  2   1   1   2   1
M  END
>  <PUBCHEM_COMPOUND_CID>  (1) 
21145

>  <PUBCHEM_CONFORMER_RMSD>  (1) 
0.8

>  <PUBCHEM_CONFORMER_DIVERSEORDER>  (1) 
1
2
11
12
5
6
8
7
4
10
9
3

>  <PUBCHEM_MMFF94_PARTIAL_CHARGES>  (1) 
22
1 -1.01
10 0.5
11 0.5
12 0.5
13 0.5
14 0.5
15 0.5
18 -0.15
19 -0.15
2 -1.01
20 -0.15
27 0.15
3 0.5
4 0.5
5 0.14
52 0.15
53 0.15
54 0.15
6 0.14
7 -0.14
8 -0.14
9 -0.15

>  <PUBCHEM_EFFECTIVE_ROTOR_COUNT>  (1) 
6

>  <PUBCHEM_PHARMACOPHORE_FEATURES>  (1) 
5
1 1 cation
1 16 hydrophobe
1 17 hydrophobe
1 2 cation
6 7 8 9 18 19 20 rings

>  <PUBCHEM_HEAVY_ATOM_COUNT>  (1) 
20

>  <PUBCHEM_ATOM_DEF_STEREO_COUNT>  (1) 
0

>  <PUBCHEM_ATOM_UDEF_STEREO_COUNT>  (1) 
2

>  <PUBCHEM_BOND_DEF_STEREO_COUNT>  (1) 
0

>  <PUBCHEM_BOND_UDEF_STEREO_COUNT>  (1) 
0

>  <PUBCHEM_ISOTOPIC_ATOM_COUNT>  (1) 
0

>  <PUBCHEM_COMPONENT_COUNT>  (1) 
1

>  <PUBCHEM_CACTVS_TAUTO_COUNT>  (1) 
1

>  <PUBCHEM_CONFORMER_ID>  (1) 
0000529900000001

>  <PUBCHEM_MMFF94_ENERGY>  (1) 
113.8782

>  <PUBCHEM_FEATURE_SELFOVERLAP>  (1) 
25.371

>  <PUBCHEM_SHAPE_FINGERPRINT>  (1) 
10064457 181 18114474464599557162
10366900 7 18411419535368289431
11640471 11 15769776861780025806
12011746 2 18410575063188242766
12077114 3 17703795829264003781
12119455 92 17346595244812532925
121448 382 14620505744715580831
12202030 40 17896860223121319690
12403259 327 18411422829629441091
12403259 415 15769779065071868536
12403260 363 18059849597756023257
124424 183 18271811241159856552
12500047 106 18335142037262443163
12507560 18 18410856525285346096
12553582 1 15647043906373189168
12592029 89 17489870423121606799
12596599 1 16226613029941572529
12633257 1 18410575080368118569
12670546 56 18341603841339518009
12714826 92 15791997961707528134
12788726 201 18270404867710864320
128620 24 12324238373667586514
13533116 47 18264764544584888259
13583140 156 18127128803989590137
14178342 30 17826224379006226922
14181834 199 15409795586741796500
14223421 5 17978792637897938736
14251732 17 17845658027830952033
14251739 40 17989202612258608711
14251764 3 15625647315623238306
14251764 30 15647342904816474617
14252887 29 16443070521116105508
15048467 5 18114190752340536940
15061688 2 15697712640581179840
15238133 3 18341055138199078832
15276787 5 18410855477308030988
15295992 7 18340212972453140257
15375462 189 13840260424851458777
15852999 172 15698005149386974676
16752209 62 15720489037204863447
16945 1 18130788944964805948
17349148 13 15841556283686924751
17804303 29 18333454256790935722
1813 80 16226053283901930406
18186145 218 15267080141508737309
19141452 34 17894345600862616339
192875 21 14261633936812511186
19765921 60 15195281998039771351
19784866 135 17024013887831280248
20281475 54 17895188943951372666
20361792 2 15864342609889945759
21033648 29 18041263423183273837
21330990 113 17606119472401593446
21731516 1 15575261216006740365
21756936 100 17407953758059102072
22950370 63 15647060334617834528
23184049 59 17346596348735191964
23402539 116 16988553581379278049
23419403 2 16526656185423134669
23557571 272 16917075464497458667
23559900 14 18263923409256488617
328317 168 13254788049365975794
3286 77 18264479753729693290
3323516 105 12613046006008115270
34934 24 17917426588267004936
351380 180 18273209803345635393
474 4 14333407865377012754
58051976 378 9295296010218191489
5845 1 16807270635001975191
6992083 37 17603872242849875103
7164475 11 16556759026789945244
83771 10 16949999236141938462
8509985 295 18339649953580022193

>  <PUBCHEM_SHAPE_MULTIPOLES>  (1) 
401.63
8.05
2.05
1.84
0.03
0.02
-0.91
0.02
2.78
0
0.97
0
-0.02
-0.22

>  <PUBCHEM_SHAPE_SELFOVERLAP>  (1) 
802.428

>  <PUBCHEM_SHAPE_VOLUME>  (1) 
242

>  <PUBCHEM_COORDINATE_TYPE>  (1) 
2
5
10

$$$$
