21147
     RDKit          3D

 32 34  0  0  1  0  0  0  0  0999 V2000
    3.4648   -1.3720    0.8162 N   0  0  0  0  0  0  0  0  0  0  0  0
   -1.9256    0.8373   -1.0124 N   0  0  0  0  0  0  0  0  0  0  0  0
    4.4500   -0.2179    0.6980 C   0  0  0  0  0  0  0  0  0  0  0  0
   -1.5203    1.4707    0.2689 C   0  0  0  0  0  0  0  0  0  0  0  0
    3.8207    1.0743    1.2368 C   0  0  0  0  0  0  0  0  0  0  0  0
   -0.7385    2.7742   -0.0155 C   0  0  0  0  0  0  0  0  0  0  0  0
    2.1797   -1.0195    0.0812 C   0  0  0  0  0  0  0  0  0  0  0  0
   -2.6503   -0.4907   -0.7571 C   0  0  0  0  0  0  0  0  0  0  0  0
    2.8937    1.7514    0.2407 C   0  0  0  0  0  0  0  0  0  0  0  0
    0.6990    2.5672   -0.3551 C   0  0  0  0  0  0  0  0  0  0  0  0
    4.0738   -2.6239    0.2012 C   0  0  0  0  0  0  0  0  0  0  0  0
    3.1560   -1.6266    2.2846 C   0  0  0  0  0  0  0  0  0  0  0  0
   -0.6993    0.5522   -1.8894 C   0  0  0  0  0  0  0  0  0  0  0  0
   -2.8719    1.7555   -1.7972 C   0  0  0  0  0  0  0  0  0  0  0  0
    1.5495    1.9456    0.5592 C   0  0  0  0  0  0  0  0  0  0  0  0
    4.9255    2.0382    1.6851 C   0  0  0  0  0  0  0  0  0  0  0  0
   -0.9068    3.7104    1.1999 C   0  0  0  0  0  0  0  0  0  0  0  0
    1.3543   -2.2222   -0.2699 C   0  0  0  0  0  0  0  0  0  0  0  0
   -3.9147   -0.3278    0.0340 C   0  0  0  0  0  0  0  0  0  0  0  0
    3.3873    2.1790   -0.9918 C   0  0  0  0  0  0  0  0  0  0  0  0
    1.1927    2.9946   -1.5878 C   0  0  0  0  0  0  0  0  0  0  0  0
    2.5368    2.8005   -1.9060 C   0  0  0  0  0  0  0  0  0  0  0  0
    1.5506   -2.8709   -1.4890 C   0  0  0  0  0  0  0  0  0  0  0  0
    0.3911   -2.6921    0.6231 C   0  0  0  0  0  0  0  0  0  0  0  0
   -3.8795   -0.3946    1.4269 C   0  0  0  0  0  0  0  0  0  0  0  0
   -5.1255   -0.1091   -0.6232 C   0  0  0  0  0  0  0  0  0  0  0  0
    0.7836   -3.9892   -1.8155 C   0  0  0  0  0  0  0  0  0  0  0  0
   -0.3758   -3.8106    0.2965 C   0  0  0  0  0  0  0  0  0  0  0  0
   -5.0549   -0.2430    2.1625 C   0  0  0  0  0  0  0  0  0  0  0  0
   -6.3009    0.0426    0.1125 C   0  0  0  0  0  0  0  0  0  0  0  0
   -0.1795   -4.4591   -0.9227 C   0  0  0  0  0  0  0  0  0  0  0  0
   -6.2655   -0.0244    1.5054 C   0  0  0  0  0  0  0  0  0  0  0  0
  1  3  1  0
  1  7  1  0
  1 11  1  0
  1 12  1  0
  2  4  1  0
  2  8  1  0
  2 13  1  0
  2 14  1  0
  3  5  1  0
  4  6  1  0
  5  9  1  0
  5 16  1  0
  6 10  1  0
  6 17  1  0
  7 18  1  0
  8 19  1  0
  9 15  2  0
  9 20  1  0
 10 15  1  0
 10 21  2  0
 18 23  2  0
 18 24  1  0
 19 25  2  0
 19 26  1  0
 20 22  2  0
 21 22  1  0
 23 27  1  0
 24 28  2  0
 25 29  1  0
 26 30  2  0
 27 31  2  0
 28 31  1  0
 29 32  2  0
 30 32  1  0
M  CHG  2   1   1   2   1
M  END
>  <PUBCHEM_COMPOUND_CID>  (1) 
21147

>  <PUBCHEM_CONFORMER_RMSD>  (1) 
1.4

>  <PUBCHEM_CONFORMER_DIVERSEORDER>  (1) 
4
55
81
53
41
27
102
71
57
2
70
11
76
100
84
21
30
13
94
45
104
91
68
74
3
34
42
58
83
14
103
99
10
93
19
88
33
72
65
50
47
82
64
56
63
5
24
66
87
52
90
43
86
22
35
16
79
28
75
96
60
37
26
18
92
77
59
29
46
12
44
25
61
36
73
38
17
6
85
97
51
7
54
98
62
78
20
1
8
69
40
23
48
95
31
80
67
15
32
39
101
9
89
49

>  <PUBCHEM_MMFF94_PARTIAL_CHARGES>  (1) 
44
1 -1.01
10 -0.14
11 0.5
12 0.5
13 0.5
14 0.5
15 -0.15
18 -0.14
19 -0.14
2 -1.01
20 -0.15
21 -0.15
22 -0.15
23 -0.15
24 -0.15
25 -0.15
26 -0.15
27 -0.15
28 -0.15
29 -0.15
3 0.5
30 -0.15
31 -0.15
32 -0.15
4 0.5
5 0.14
55 0.15
6 0.14
62 0.15
63 0.15
64 0.15
65 0.15
66 0.15
67 0.15
68 0.15
69 0.15
7 0.65
70 0.15
71 0.15
72 0.15
73 0.15
74 0.15
8 0.65
9 -0.14

>  <PUBCHEM_EFFECTIVE_ROTOR_COUNT>  (1) 
10

>  <PUBCHEM_PHARMACOPHORE_FEATURES>  (1) 
7
1 1 cation
1 16 hydrophobe
1 17 hydrophobe
1 2 cation
6 18 23 24 27 28 31 rings
6 19 25 26 29 30 32 rings
6 9 10 15 20 21 22 rings

>  <PUBCHEM_HEAVY_ATOM_COUNT>  (1) 
32

>  <PUBCHEM_ATOM_DEF_STEREO_COUNT>  (1) 
0

>  <PUBCHEM_ATOM_UDEF_STEREO_COUNT>  (1) 
2

>  <PUBCHEM_BOND_DEF_STEREO_COUNT>  (1) 
0

>  <PUBCHEM_BOND_UDEF_STEREO_COUNT>  (1) 
0

>  <PUBCHEM_ISOTOPIC_ATOM_COUNT>  (1) 
0

>  <PUBCHEM_COMPONENT_COUNT>  (1) 
1

>  <PUBCHEM_CACTVS_TAUTO_COUNT>  (1) 
1

>  <PUBCHEM_CONFORMER_ID>  (1) 
0000529B00000004

>  <PUBCHEM_MMFF94_ENERGY>  (1) 
136.8441

>  <PUBCHEM_FEATURE_SELFOVERLAP>  (1) 
35.522

>  <PUBCHEM_SHAPE_FINGERPRINT>  (1) 
10076449 9 18270968922014569342
10674148 151 17346332518217914988
10816530 23 16914811703242292540
1100329 8 18193549198049725944
11513181 2 18130507539040674662
12422481 6 18187366575347005547
12596602 18 17274820307162760393
12633257 1 18265050408885929605
13402501 40 18261111855266829995
13583140 156 16879041162010848394
1361 2 18412259558405881827
13636023 51 17604150423834420749
13692114 37 17983854773065577839
13947930 73 17168134663760166738
14725015 67 18189607246462720402
14840074 17 18412542136787929409
14863182 85 18412269449646823844
15297060 5 17988648561825577858
15324884 4 17972287683039068580
15968369 153 17409367716958597711
16067690 210 16486714531479470963
161222 619 18264226819196059587
19301679 30 18113913671743279977
19315092 285 16010426839072143114
19319366 153 17968094278882020706
1979834 28 18413394228419210355
20737093 15 17911194505475266287
20739085 24 18337682935551302113
20764821 26 18338516451370250911
21304303 94 18194146159949405132
21421861 104 18267606653383275929
35225 105 17333402454004407955
392239 28 18340757174410467082
394071 54 18339933598132279003
460360 51 18266753385448057373
463206 1 18266450091198004777
484985 159 14499139211942790264
513532 50 17917162679405387102
5309563 4 18337388215032308309
563151 248 17561080315511961638
6287921 2 18271815557612869935
653340 110 17333360706811852608

>  <PUBCHEM_SHAPE_MULTIPOLES>  (1) 
648.58
10.71
5.41
2.01
13.49
3.59
0.05
-1.44
5.67
-4.03
-1.81
-0.02
-0.19
-0.01

>  <PUBCHEM_SHAPE_SELFOVERLAP>  (1) 
1356.401

>  <PUBCHEM_SHAPE_VOLUME>  (1) 
368.4

>  <PUBCHEM_COORDINATE_TYPE>  (1) 
2
5
10

$$$$
