21143
     RDKit          3D

 20 22  0  0  0  0  0  0  0  0999 V2000
   -0.3618   -2.0402    0.1807 O   0  0  0  0  0  0  0  0  0  0  0  0
    5.5908   -0.5535    0.1686 O   0  0  0  0  0  0  0  0  0  0  0  0
    0.0740    0.2748    0.1833 N   0  0  0  0  0  0  0  0  0  0  0  0
   -1.7584    1.7882    0.0720 N   0  0  0  0  0  0  0  0  0  0  0  0
    1.4951    0.0613    0.1634 C   0  0  0  0  0  0  0  0  0  0  0  0
   -0.4851    1.5548    0.1607 C   0  0  0  0  0  0  0  0  0  0  0  0
   -2.2003   -0.6153    0.1111 C   0  0  0  0  0  0  0  0  0  0  0  0
   -0.7466   -0.8732    0.1818 C   0  0  0  0  0  0  0  0  0  0  0  0
    2.1784   -0.0313   -1.0435 C   0  0  0  0  0  0  0  0  0  0  0  0
   -2.6425    0.7054    0.0343 C   0  0  0  0  0  0  0  0  0  0  0  0
    2.1727   -0.0505    1.3723 C   0  0  0  0  0  0  0  0  0  0  0  0
    3.5578   -0.2386   -1.0419 C   0  0  0  0  0  0  0  0  0  0  0  0
   -3.1131   -1.6765    0.0956 C   0  0  0  0  0  0  0  0  0  0  0  0
    0.4005    2.7758    0.3031 C   0  0  0  0  0  0  0  0  0  0  0  0
    1.4689    0.0853   -2.3534 C   0  0  0  0  0  0  0  0  0  0  0  0
   -4.0166    0.9555   -0.0582 C   0  0  0  0  0  0  0  0  0  0  0  0
    3.5521   -0.2578    1.3739 C   0  0  0  0  0  0  0  0  0  0  0  0
    4.2446   -0.3517    0.1668 C   0  0  0  0  0  0  0  0  0  0  0  0
   -4.4791   -1.4137    0.0037 C   0  0  0  0  0  0  0  0  0  0  0  0
   -4.9312   -0.0986   -0.0744 C   0  0  0  0  0  0  0  0  0  0  0  0
  1  8  2  0
  2 18  1  0
  3  5  1  0
  3  6  1  0
  3  8  1  0
  4  6  2  0
  4 10  1  0
  5  9  2  0
  5 11  1  0
  6 14  1  0
  7  8  1  0
  7 10  2  0
  7 13  1  0
  9 12  1  0
  9 15  1  0
 10 16  1  0
 11 17  2  0
 12 18  2  0
 13 19  2  0
 16 20  2  0
 17 18  1  0
 19 20  1  0
M  END
>  <PUBCHEM_COMPOUND_CID>  (1) 
21143

>  <PUBCHEM_CONFORMER_RMSD>  (1) 
0.6

>  <PUBCHEM_CONFORMER_DIVERSEORDER>  (1) 
1
2

>  <PUBCHEM_MMFF94_PARTIAL_CHARGES>  (1) 
28
1 -0.57
10 0.18
11 -0.15
12 -0.15
13 -0.15
14 0.06
15 0.14
16 -0.15
17 -0.15
18 0.08
19 -0.15
2 -0.53
20 -0.15
21 0.15
22 0.15
23 0.15
3 -0.24
30 0.15
31 0.15
32 0.15
33 0.15
34 0.45
4 -0.63
5 0.12
6 0.45
7 0.09
8 0.54
9 -0.14

>  <PUBCHEM_EFFECTIVE_ROTOR_COUNT>  (1) 
1

>  <PUBCHEM_PHARMACOPHORE_FEATURES>  (1) 
5
1 1 acceptor
1 2 donor
6 3 4 6 7 8 10 rings
6 5 9 11 12 17 18 rings
6 7 10 13 16 19 20 rings

>  <PUBCHEM_HEAVY_ATOM_COUNT>  (1) 
20

>  <PUBCHEM_ATOM_DEF_STEREO_COUNT>  (1) 
0

>  <PUBCHEM_ATOM_UDEF_STEREO_COUNT>  (1) 
0

>  <PUBCHEM_BOND_DEF_STEREO_COUNT>  (1) 
0

>  <PUBCHEM_BOND_UDEF_STEREO_COUNT>  (1) 
0

>  <PUBCHEM_ISOTOPIC_ATOM_COUNT>  (1) 
0

>  <PUBCHEM_COMPONENT_COUNT>  (1) 
1

>  <PUBCHEM_CACTVS_TAUTO_COUNT>  (1) 
6

>  <PUBCHEM_CONFORMER_ID>  (1) 
0000529700000001

>  <PUBCHEM_MMFF94_ENERGY>  (1) 
82.7321

>  <PUBCHEM_FEATURE_SELFOVERLAP>  (1) 
25.4

>  <PUBCHEM_SHAPE_FINGERPRINT>  (1) 
10062212 137 18187364346385585987
11132069 177 18412546492296016297
11543360 7 15864353605528404427
12119455 92 16917061161966290734
12236239 1 17749108872656286370
13140716 1 18339365296501718873
13288520 33 18410293601144036378
13862211 1 18410851084121405395
14115302 16 17822296828655521427
14289901 80 15626223498756065251
14386348 63 17917714590902519102
15196674 1 18338515343500472065
15375358 24 17918274238379413781
15536298 74 18269834379673113329
15848700 24 18272083924554725173
16752209 62 18334290959601958635
16945 1 18411422787355020729
17349148 13 18186803569216208935
17804303 29 18410572920606320817
18186145 218 13334736847146931221
19141452 34 17632295713876822911
19862831 5 17822016414588421950
200 152 16877661249163750132
20028762 73 18057887051337898775
20233049 118 18261111884941100293
20279233 1 17775571935398264239
20344682 1 17704354351364813908
20600515 1 18342746229620898900
20645476 183 17530973526611659883
21033648 29 17059762356629730619
21267235 1 18409453613606367243
22854114 59 16271927112230519902
2297311 6 18342747291031260836
23366157 5 17898849316507072109
23402539 116 18343014488945920550
23557571 272 18202006473665146492
23559900 14 18270686364146288182
26918003 58 16487256581842726747
2748010 2 18193553596312423953
296302 2 15267344032883874871
335352 9 18411134737026077149
4340502 62 15051734222441143903
5104073 3 18268436900952951137
59755656 215 18338237050815446782
69090 78 17346874568052975983
7364860 26 18055635263627886641
7495541 125 18131067160673320704
77492 1 17676492718058294528
81228 2 18056502576523024665
8272917 22 14476695078226322813
8863177 126 17752781400945588387
9709674 26 18122341552280227499

>  <PUBCHEM_SHAPE_MULTIPOLES>  (1) 
389.89
9.3
1.83
1.22
0.29
0.85
-0.52
-2.78
0.46
-1.22
0.21
1.36
-0.04
0

>  <PUBCHEM_SHAPE_SELFOVERLAP>  (1) 
860.901

>  <PUBCHEM_SHAPE_VOLUME>  (1) 
210

>  <PUBCHEM_COORDINATE_TYPE>  (1) 
2
5
10

$$$$
