21140
     RDKit          3D

 15 16  0  0  0  0  0  0  0  0999 V2000
   -1.2539   -1.9597   -0.1137 O   0  0  0  0  0  0  0  0  0  0  0  0
   -3.1721   -0.0420   -1.4186 O   0  0  0  0  0  0  0  0  0  0  0  0
    1.0445    2.0122   -0.1306 N   0  0  0  0  0  0  0  0  0  0  0  0
   -3.3018    0.0338    0.9253 N   0  0  0  0  0  0  0  0  0  0  0  0
   -4.5935    0.5143    0.9641 N   0  0  0  0  0  0  0  0  0  0  0  0
    1.2099   -0.2092   -0.0089 C   0  0  0  0  0  0  0  0  0  0  0  0
    1.9455    0.9778   -0.0141 C   0  0  0  0  0  0  0  0  0  0  0  0
   -0.1622    0.1492   -0.1262 C   0  0  0  0  0  0  0  0  0  0  0  0
   -0.2317    1.5214   -0.1992 C   0  0  0  0  0  0  0  0  0  0  0  0
    1.8988   -1.4334    0.1017 C   0  0  0  0  0  0  0  0  0  0  0  0
    3.3412    1.0020    0.0860 C   0  0  0  0  0  0  0  0  0  0  0  0
   -1.3043   -0.7196   -0.1668 C   0  0  0  0  0  0  0  0  0  0  0  0
    3.2948   -1.4246    0.2024 C   0  0  0  0  0  0  0  0  0  0  0  0
    4.0028   -0.2245    0.1946 C   0  0  0  0  0  0  0  0  0  0  0  0
   -2.7180   -0.1976   -0.2962 C   0  0  0  0  0  0  0  0  0  0  0  0
  1 12  2  0
  2 15  2  0
  3  7  1  0
  3  9  1  0
  4  5  1  0
  4 15  1  0
  6  7  2  0
  6  8  1  0
  6 10  1  0
  7 11  1  0
  8  9  2  0
  8 12  1  0
 10 13  2  0
 11 14  2  0
 12 15  1  0
 13 14  1  0
M  END
>  <PUBCHEM_COMPOUND_CID>  (1) 
21140

>  <PUBCHEM_CONFORMER_RMSD>  (1) 
0.6

>  <PUBCHEM_CONFORMER_DIVERSEORDER>  (1) 
1
16
14
4
13
2
15
9
3
10
17
11
7
5
8
6
12

>  <PUBCHEM_MMFF94_PARTIAL_CHARGES>  (1) 
23
1 -0.57
10 -0.15
11 -0.15
12 0.66
13 -0.15
14 -0.15
15 0.63
16 0.27
17 0.15
18 0.15
19 0.15
2 -0.57
20 0.15
21 0.15
22 0.37
23 0.36
24 0.36
3 0.03
4 -0.42
5 -0.73
7 -0.15
8 -0.09
9 -0.3

>  <PUBCHEM_EFFECTIVE_ROTOR_COUNT>  (1) 
3

>  <PUBCHEM_PHARMACOPHORE_FEATURES>  (1) 
8
1 1 acceptor
1 2 acceptor
1 3 cation
1 3 donor
1 4 donor
1 5 donor
5 3 6 7 8 9 rings
6 6 7 10 11 13 14 rings

>  <PUBCHEM_HEAVY_ATOM_COUNT>  (1) 
15

>  <PUBCHEM_ATOM_DEF_STEREO_COUNT>  (1) 
0

>  <PUBCHEM_ATOM_UDEF_STEREO_COUNT>  (1) 
0

>  <PUBCHEM_BOND_DEF_STEREO_COUNT>  (1) 
0

>  <PUBCHEM_BOND_UDEF_STEREO_COUNT>  (1) 
0

>  <PUBCHEM_ISOTOPIC_ATOM_COUNT>  (1) 
0

>  <PUBCHEM_COMPONENT_COUNT>  (1) 
1

>  <PUBCHEM_CACTVS_TAUTO_COUNT>  (1) 
11

>  <PUBCHEM_CONFORMER_ID>  (1) 
0000529400000001

>  <PUBCHEM_MMFF94_ENERGY>  (1) 
22.6759

>  <PUBCHEM_FEATURE_SELFOVERLAP>  (1) 
42.205

>  <PUBCHEM_SHAPE_FINGERPRINT>  (1) 
10130415 120 18410852166125635760
10219947 1 18412823590527031086
10967382 1 18410007741422480398
10980938 120 18409162229696843470
11132069 177 18337658811284067730
11471102 20 18408879646454910372
12032990 46 18334016060225394258
12251169 10 18341897397964156873
12500047 106 15410891855727208101
13140716 1 18265612268017683544
13296908 3 17967247594018193554
13380535 21 18190187960416513366
13675066 3 18273219677311678417
13760787 5 18408321090406007300
14144814 61 18412824698343730827
14178342 30 18124582330938903514
14252887 29 18341338807803772978
15375462 189 18186514389236974762
15653759 3 17312822675918846893
16945 1 18409724093034120940
17844478 74 17676205762597845373
18186145 218 18408885135402203982
19026448 4 16515680039746817534
20201158 50 18335695044656711526
20281475 54 18410291423827758470
20645477 70 18336251349995305775
20871998 22 18197503930863403630
21267235 1 18410019801664423210
21501502 16 18192151722522406167
23184049 59 18412268315569475787
2334 1 17905041813465505028
23402539 116 18130498665357950901
23463225 33 18410009931797668710
23559900 14 14836133152045752516
2748010 2 18121490259470529484
5104073 3 18339639039957204378
528886 8 18338790217212513170
53655031 270 18342742892525937360
74978 22 18269552900258601119
77492 1 17846494854868777327
8809292 202 18186522137442437610

>  <PUBCHEM_SHAPE_MULTIPOLES>  (1) 
282.01
7.07
1.68
0.81
3.41
0.04
0.05
-0.35
-1.21
-0.83
0.04
0.72
0.02
-0.24

>  <PUBCHEM_SHAPE_SELFOVERLAP>  (1) 
616.601

>  <PUBCHEM_SHAPE_VOLUME>  (1) 
153.7

>  <PUBCHEM_COORDINATE_TYPE>  (1) 
2
5
10

$$$$
