21141
     RDKit          3D

 17 18  0  0  0  0  0  0  0  0999 V2000
    0.5340   -2.0983    0.1540 O   0  0  0  0  0  0  0  0  0  0  0  0
    2.3890   -0.4295    1.8391 O   0  0  0  0  0  0  0  0  0  0  0  0
   -1.5761    1.9720    0.3607 N   0  0  0  0  0  0  0  0  0  0  0  0
    4.0810    0.2950   -0.3161 N   0  0  0  0  0  0  0  0  0  0  0  0
    2.7626   -0.1216   -0.4595 N   0  0  0  0  0  0  0  0  0  0  0  0
   -1.8260   -0.2135   -0.0109 C   0  0  0  0  0  0  0  0  0  0  0  0
   -2.5046    1.0058    0.0451 C   0  0  0  0  0  0  0  0  0  0  0  0
   -0.4597    0.0551    0.2819 C   0  0  0  0  0  0  0  0  0  0  0  0
   -0.3375    1.4071    0.5060 C   0  0  0  0  0  0  0  0  0  0  0  0
   -2.5529   -1.3806   -0.3191 C   0  0  0  0  0  0  0  0  0  0  0  0
   -3.8791    1.1166   -0.1928 C   0  0  0  0  0  0  0  0  0  0  0  0
    0.6323   -0.8746    0.3440 C   0  0  0  0  0  0  0  0  0  0  0  0
   -3.9284   -1.2849   -0.5591 C   0  0  0  0  0  0  0  0  0  0  0  0
   -4.5793   -0.0545   -0.4964 C   0  0  0  0  0  0  0  0  0  0  0  0
    2.0459   -0.4459    0.6678 C   0  0  0  0  0  0  0  0  0  0  0  0
    4.9717   -0.6118   -1.0374 C   0  0  0  0  0  0  0  0  0  0  0  0
    4.2269    1.6637   -0.8073 C   0  0  0  0  0  0  0  0  0  0  0  0
  1 12  2  0
  2 15  2  0
  3  7  1  0
  3  9  1  0
  4  5  1  0
  4 16  1  0
  4 17  1  0
  5 15  1  0
  6  7  2  0
  6  8  1  0
  6 10  1  0
  7 11  1  0
  8  9  2  0
  8 12  1  0
 10 13  2  0
 11 14  2  0
 12 15  1  0
 13 14  1  0
M  END
>  <PUBCHEM_COMPOUND_CID>  (1) 
21141

>  <PUBCHEM_CONFORMER_RMSD>  (1) 
0.6

>  <PUBCHEM_CONFORMER_DIVERSEORDER>  (1) 
1
30
25
27
32
14
29
11
22
28
8
21
10
31
9
4
26
7
3
18
24
16
15
13
23
17
19
12
5
20
33
6
2

>  <PUBCHEM_MMFF94_PARTIAL_CHARGES>  (1) 
23
1 -0.57
10 -0.15
11 -0.15
12 0.66
13 -0.15
14 -0.15
15 0.63
16 0.27
17 0.27
18 0.15
19 0.27
2 -0.57
20 0.15
21 0.15
22 0.15
23 0.15
24 0.37
3 0.03
4 -0.55
5 -0.42
7 -0.15
8 -0.09
9 -0.3

>  <PUBCHEM_EFFECTIVE_ROTOR_COUNT>  (1) 
4

>  <PUBCHEM_PHARMACOPHORE_FEATURES>  (1) 
7
1 1 acceptor
1 2 acceptor
1 3 cation
1 3 donor
1 5 donor
5 3 6 7 8 9 rings
6 6 7 10 11 13 14 rings

>  <PUBCHEM_HEAVY_ATOM_COUNT>  (1) 
17

>  <PUBCHEM_ATOM_DEF_STEREO_COUNT>  (1) 
0

>  <PUBCHEM_ATOM_UDEF_STEREO_COUNT>  (1) 
0

>  <PUBCHEM_BOND_DEF_STEREO_COUNT>  (1) 
0

>  <PUBCHEM_BOND_UDEF_STEREO_COUNT>  (1) 
0

>  <PUBCHEM_ISOTOPIC_ATOM_COUNT>  (1) 
0

>  <PUBCHEM_COMPONENT_COUNT>  (1) 
1

>  <PUBCHEM_CACTVS_TAUTO_COUNT>  (1) 
6

>  <PUBCHEM_CONFORMER_ID>  (1) 
0000529500000001

>  <PUBCHEM_MMFF94_ENERGY>  (1) 
26.7041

>  <PUBCHEM_FEATURE_SELFOVERLAP>  (1) 
35.613

>  <PUBCHEM_SHAPE_FINGERPRINT>  (1) 
10498660 4 18410289194565924844
11128504 68 18410013268881860396
12119455 92 14707202240760432610
12186901 62 18201720622116456165
12236239 1 18113053826687934902
12403814 3 17676481718963671373
124424 183 11455890256864692875
12670546 177 18412547621624697164
12892183 10 8646771075697512988
13675066 3 10952053350965659974
13760787 19 17894906330739789451
14790565 3 17982460287284220409
15048467 5 17821725023186327061
15415430 112 18411696608536544575
15536298 74 18201151177993609432
16945 1 18341881962453192289
17959699 21 18040714761979196781
1813 80 13614533960834909488
18186145 218 18260541242785738924
20300324 65 18343588442616155412
204376 136 15864077584975524194
20645476 183 17968094261164399379
20871999 31 18411695496208346471
21267235 1 18341336669273965415
21637258 2 15554437505707472799
22094290 60 17703793600096972897
23366157 5 17972883557558172562
23402539 116 18413105065809677614
23557571 272 17988370281829670989
23559900 14 18199745847809745174
2748010 2 18124577937503708161
296302 2 16443063889649534267
3312278 4 18411698777595125955
42 15 10087644797078049412
4409770 3 15808039510456704010
474 4 17386574690595707724
4990 188 18059860545474491806
57096353 35 18408877443231802079
67856867 119 18334848425404181152

>  <PUBCHEM_SHAPE_MULTIPOLES>  (1) 
323.17
9.47
1.75
0.98
5.28
0.18
0.2
0.42
-3.53
-0.39
-0.05
0.79
-0.07
-0.54

>  <PUBCHEM_SHAPE_SELFOVERLAP>  (1) 
692.697

>  <PUBCHEM_SHAPE_VOLUME>  (1) 
181

>  <PUBCHEM_COORDINATE_TYPE>  (1) 
2
5
10

$$$$
