21159
     RDKit          3D

  7  7  0  0  0  0  0  0  0  0999 V2000
   -0.0025    0.0036    1.1750 O   0  0  0  0  0  0  0  0  0  0  0  0
   -0.7385   -0.0169   -0.0424 C   0  0  0  0  0  0  0  0  0  0  0  0
    0.7486    0.0000   -0.0459 C   0  0  0  0  0  0  0  0  0  0  0  0
   -1.4984    1.2699   -0.2726 C   0  0  0  0  0  0  0  0  0  0  0  0
   -1.5099   -1.2494   -0.2721 C   0  0  0  0  0  0  0  0  0  0  0  0
    1.4946   -1.2632   -0.2707 C   0  0  0  0  0  0  0  0  0  0  0  0
    1.5061    1.2561   -0.2713 C   0  0  0  0  0  0  0  0  0  0  0  0
  1  2  1  0
  1  3  1  0
  2  3  1  0
  2  4  1  0
  2  5  1  0
  3  6  1  0
  3  7  1  0
M  END
>  <PUBCHEM_COMPOUND_CID>  (1) 
21159

>  <PUBCHEM_CONFORMER_RMSD>  (1) 
0.4

>  <PUBCHEM_CONFORMER_DIVERSEORDER>  (1) 
1

>  <PUBCHEM_MMFF94_PARTIAL_CHARGES>  (1) 
7
1 -0.3
2 -0.04
3 -0.04
4 0.09
5 0.09
6 0.09
7 0.09

>  <PUBCHEM_EFFECTIVE_ROTOR_COUNT>  (1) 
0.6

>  <PUBCHEM_PHARMACOPHORE_FEATURES>  (1) 
3
1 1 acceptor
3 2 4 5 hydrophobe
3 3 6 7 hydrophobe

>  <PUBCHEM_HEAVY_ATOM_COUNT>  (1) 
7

>  <PUBCHEM_ATOM_DEF_STEREO_COUNT>  (1) 
0

>  <PUBCHEM_ATOM_UDEF_STEREO_COUNT>  (1) 
0

>  <PUBCHEM_BOND_DEF_STEREO_COUNT>  (1) 
0

>  <PUBCHEM_BOND_UDEF_STEREO_COUNT>  (1) 
0

>  <PUBCHEM_ISOTOPIC_ATOM_COUNT>  (1) 
0

>  <PUBCHEM_COMPONENT_COUNT>  (1) 
1

>  <PUBCHEM_CACTVS_TAUTO_COUNT>  (1) 
1

>  <PUBCHEM_CONFORMER_ID>  (1) 
000052A700000001

>  <PUBCHEM_MMFF94_ENERGY>  (1) 
16.014

>  <PUBCHEM_FEATURE_SELFOVERLAP>  (1) 
15.242

>  <PUBCHEM_SHAPE_FINGERPRINT>  (1) 
137420 1 9259637078555131386
16714656 1 17835523004465841508
20096714 4 18188771634879234909
21040471 1 18267016155103124397
23552423 10 18335139799626744966
24536 1 18338496600020300405
29004967 10 18047198736861946211
5943 1 15078171635674969546

>  <PUBCHEM_SHAPE_MULTIPOLES>  (1) 
138.19
2.11
1.55
0.79
0.01
0.01
-0.14
0
0.31
0
0.23
0
0
0

>  <PUBCHEM_SHAPE_SELFOVERLAP>  (1) 
265.861

>  <PUBCHEM_SHAPE_VOLUME>  (1) 
88.1

>  <PUBCHEM_COORDINATE_TYPE>  (1) 
2
5
10

$$$$
