2116
     RDKit          3D

 31 32  0  0  1  0  0  0  0  0999 V2000
    3.1682    0.0819    0.4053 O   0  0  0  0  0  0  0  0  0  0  0  0
   -0.5012   -4.0320    0.7569 O   0  0  0  0  0  0  0  0  0  0  0  0
    3.6322    0.5351   -0.8804 C   0  0  0  0  0  0  0  0  0  0  0  0
    2.6373    1.5667   -1.4336 C   0  0  0  0  0  0  0  0  0  0  0  0
    3.8705   -0.6372   -1.8458 C   0  0  0  0  0  0  0  0  0  0  0  0
    2.0726    2.4549   -0.3233 C   0  0  0  0  0  0  0  0  0  0  0  0
    0.4372    4.3865    0.1828 C   0  0  0  0  0  0  0  0  0  0  0  0
    1.1073    3.5008   -0.8916 C   0  0  0  0  0  0  0  0  0  0  0  0
    2.6097   -1.4696   -2.0309 C   0  0  0  0  0  0  0  0  0  0  0  0
   -0.2421    3.5375    1.2786 C   0  0  0  0  0  0  0  0  0  0  0  0
    4.9710    1.2405   -0.6183 C   0  0  0  0  0  0  0  0  0  0  0  0
    1.9679   -1.7380   -0.7020 C   0  0  0  0  0  0  0  0  0  0  0  0
   -1.3931    2.6673    0.7617 C   0  0  0  0  0  0  0  0  0  0  0  0
    2.2729   -0.9550    0.4175 C   0  0  0  0  0  0  0  0  0  0  0  0
   -2.0775    1.8409    1.8597 C   0  0  0  0  0  0  0  0  0  0  0  0
   -3.2059    0.8870    1.4028 C   0  0  0  0  0  0  0  0  0  0  0  0
   -0.5537    5.3340   -0.5036 C   0  0  0  0  0  0  0  0  0  0  0  0
   -2.6444   -0.3569    0.6824 C   0  0  0  0  0  0  0  0  0  0  0  0
    1.0241   -2.7670   -0.5798 C   0  0  0  0  0  0  0  0  0  0  0  0
    1.6669   -1.2229    1.6484 C   0  0  0  0  0  0  0  0  0  0  0  0
   -3.6851   -1.3692    0.1862 C   0  0  0  0  0  0  0  0  0  0  0  0
    0.7382   -2.2563    1.7623 C   0  0  0  0  0  0  0  0  0  0  0  0
   -4.0474    0.5002    2.6260 C   0  0  0  0  0  0  0  0  0  0  0  0
    0.4139   -3.0258    0.6477 C   0  0  0  0  0  0  0  0  0  0  0  0
   -4.6692   -0.8452   -0.8670 C   0  0  0  0  0  0  0  0  0  0  0  0
   -4.0340   -0.2650   -2.1449 C   0  0  0  0  0  0  0  0  0  0  0  0
    0.6477   -3.6030   -1.7642 C   0  0  0  0  0  0  0  0  0  0  0  0
    2.0084   -0.3948    2.8482 C   0  0  0  0  0  0  0  0  0  0  0  0
    0.0841   -2.5415    3.0769 C   0  0  0  0  0  0  0  0  0  0  0  0
   -5.0772    0.2882   -3.1160 C   0  0  0  0  0  0  0  0  0  0  0  0
   -3.1992   -1.3422   -2.8421 C   0  0  0  0  0  0  0  0  0  0  0  0
  1  3  1  0
  1 14  1  0
  2 24  1  0
  3  4  1  0
  3  5  1  0
  3 11  1  0
  4  6  1  0
  5  9  1  0
  6  8  1  0
  7  8  1  0
  7 10  1  0
  7 17  1  0
  9 12  1  0
 10 13  1  0
 12 14  2  0
 12 19  1  0
 13 15  1  0
 14 20  1  0
 15 16  1  0
 16 18  1  0
 16 23  1  0
 18 21  1  0
 19 24  2  0
 19 27  1  0
 20 22  2  0
 20 28  1  0
 21 25  1  0
 22 24  1  0
 22 29  1  0
 25 26  1  0
 26 30  1  0
 26 31  1  0
M  END
>  <PUBCHEM_COMPOUND_CID>  (1) 
2116

>  <PUBCHEM_CONFORMER_RMSD>  (1) 
1.8

>  <PUBCHEM_CONFORMER_DIVERSEORDER>  (1) 
1
73
31
3
43
60
11
49
76
13
37
75
33
30
25
63
36
66
62
9
29
46
59
68
69
42
53
28
8
15
21
51
74
39
44
17
27
10
6
57
2
32
23
61
5
22
34
48
24
14
70
72
40
19
50
4
67
45
26
64
20
7
16
18
47
54
41
38
52
58
71
65
56
12
35
55

>  <PUBCHEM_MMFF94_PARTIAL_CHARGES>  (1) 
14
1 -0.36
12 -0.14
14 0.08
19 -0.14
2 -0.53
20 -0.14
22 -0.14
24 0.08
27 0.14
28 0.14
29 0.14
3 0.28
81 0.45
9 0.14

>  <PUBCHEM_EFFECTIVE_ROTOR_COUNT>  (1) 
12.8

>  <PUBCHEM_PHARMACOPHORE_FEATURES>  (1) 
7
1 1 acceptor
1 17 hydrophobe
1 2 donor
1 23 hydrophobe
3 26 30 31 hydrophobe
6 1 3 5 9 12 14 rings
6 12 14 19 20 22 24 rings

>  <PUBCHEM_HEAVY_ATOM_COUNT>  (1) 
31

>  <PUBCHEM_ATOM_DEF_STEREO_COUNT>  (1) 
0

>  <PUBCHEM_ATOM_UDEF_STEREO_COUNT>  (1) 
3

>  <PUBCHEM_BOND_DEF_STEREO_COUNT>  (1) 
0

>  <PUBCHEM_BOND_UDEF_STEREO_COUNT>  (1) 
0

>  <PUBCHEM_ISOTOPIC_ATOM_COUNT>  (1) 
0

>  <PUBCHEM_COMPONENT_COUNT>  (1) 
1

>  <PUBCHEM_CACTVS_TAUTO_COUNT>  (1) 
9

>  <PUBCHEM_CONFORMER_ID>  (1) 
0000084400000001

>  <PUBCHEM_MMFF94_ENERGY>  (1) 
75.4991

>  <PUBCHEM_FEATURE_SELFOVERLAP>  (1) 
35.55

>  <PUBCHEM_SHAPE_FINGERPRINT>  (1) 
12553582 1 18410019805875085873
12788726 201 17977933606322759349
13122387 1 17109616176359244424
14068700 675 17464499076214839562
14114206 34 18190199934817431981
14114207 22 17111216296468879777
14747281 78 17895739769560537245
161222 10 16698325530207715279
19026451 147 18341034303201884695
19319366 153 15659484567236117898
19930381 70 15965134046566490354
20600515 1 17695016289003738474
20764821 26 18118398445595048917
21857420 4 16625423558352550295
238 59 18191575548755050965
3493558 16 17195128932699751458
463206 1 18338532901379902625
66674814 147 18269271433750986373

>  <PUBCHEM_SHAPE_MULTIPOLES>  (1) 
626.23
8.03
5.87
3.19
5.32
5.49
-0.24
-0.25
4.88
-1.02
-0.19
2.49
-1.58
-1.27

>  <PUBCHEM_SHAPE_SELFOVERLAP>  (1) 
1257.069

>  <PUBCHEM_SHAPE_VOLUME>  (1) 
371.9

>  <PUBCHEM_COORDINATE_TYPE>  (1) 
2
5
10

$$$$
