21163
     RDKit          3D

 14 15  0  0  0  0  0  0  0  0999 V2000
   -2.4666   -2.4076   -0.1940 O   0  0  0  0  0  0  0  0  0  0  0  0
   -3.9599   -0.1392    0.3353 O   0  0  0  0  0  0  0  0  0  0  0  0
    0.2332    2.3563    0.0909 N   0  0  0  0  0  0  0  0  0  0  0  0
    4.5343   -1.5948    0.3645 N   0  0  0  0  0  0  0  0  0  0  0  0
    1.5060    0.5888   -0.3370 C   0  0  0  0  0  0  0  0  0  0  0  0
    0.1596    0.1467   -0.2083 C   0  0  0  0  0  0  0  0  0  0  0  0
   -0.6184    1.2750    0.0600 C   0  0  0  0  0  0  0  0  0  0  0  0
    2.6846   -0.2543   -0.6222 C   0  0  0  0  0  0  0  0  0  0  0  0
    1.5191    1.9516   -0.1477 C   0  0  0  0  0  0  0  0  0  0  0  0
   -0.4739   -1.1089   -0.2946 C   0  0  0  0  0  0  0  0  0  0  0  0
    3.3547   -0.7881    0.6586 C   0  0  0  0  0  0  0  0  0  0  0  0
   -2.0037    1.2100    0.2469 C   0  0  0  0  0  0  0  0  0  0  0  0
   -1.8589   -1.1892   -0.1094 C   0  0  0  0  0  0  0  0  0  0  0  0
   -2.6100   -0.0462    0.1570 C   0  0  0  0  0  0  0  0  0  0  0  0
  1 13  1  0
  2 14  1  0
  3  7  1  0
  3  9  1  0
  4 11  1  0
  5  6  1  0
  5  8  1  0
  5  9  2  0
  6  7  2  0
  6 10  1  0
  7 12  1  0
  8 11  1  0
 10 13  2  0
 12 14  2  0
 13 14  1  0
M  END
>  <PUBCHEM_COMPOUND_CID>  (1) 
21163

>  <PUBCHEM_CONFORMER_RMSD>  (1) 
0.6

>  <PUBCHEM_CONFORMER_DIVERSEORDER>  (1) 
1
4
2
3

>  <PUBCHEM_MMFF94_PARTIAL_CHARGES>  (1) 
21
1 -0.53
10 -0.15
11 0.27
12 -0.15
13 0.08
14 0.08
17 0.15
18 0.27
19 0.15
2 -0.53
22 0.15
23 0.36
24 0.36
25 0.45
26 0.45
3 0.03
4 -0.99
5 -0.18
7 -0.15
8 0.18
9 -0.3

>  <PUBCHEM_EFFECTIVE_ROTOR_COUNT>  (1) 
2

>  <PUBCHEM_PHARMACOPHORE_FEATURES>  (1) 
8
1 1 donor
1 2 donor
1 3 cation
1 3 donor
1 4 cation
1 4 donor
5 3 5 6 7 9 rings
6 6 7 10 12 13 14 rings

>  <PUBCHEM_HEAVY_ATOM_COUNT>  (1) 
14

>  <PUBCHEM_ATOM_DEF_STEREO_COUNT>  (1) 
0

>  <PUBCHEM_ATOM_UDEF_STEREO_COUNT>  (1) 
0

>  <PUBCHEM_BOND_DEF_STEREO_COUNT>  (1) 
0

>  <PUBCHEM_BOND_UDEF_STEREO_COUNT>  (1) 
0

>  <PUBCHEM_ISOTOPIC_ATOM_COUNT>  (1) 
0

>  <PUBCHEM_COMPONENT_COUNT>  (1) 
1

>  <PUBCHEM_CACTVS_TAUTO_COUNT>  (1) 
23

>  <PUBCHEM_CONFORMER_ID>  (1) 
000052AB00000001

>  <PUBCHEM_MMFF94_ENERGY>  (1) 
16.6247

>  <PUBCHEM_FEATURE_SELFOVERLAP>  (1) 
40.693

>  <PUBCHEM_SHAPE_FINGERPRINT>  (1) 
10130415 120 18410014346623148328
11769659 78 18338232777253772175
12251169 10 18342177764881503160
124424 183 18261108552378716535
13140716 1 18341336698942974435
13690532 89 18410291406763842799
15279308 51 18270395113248966407
15375462 189 18114178618873212058
15442244 35 18411703213811110897
16945 1 18342188743044901477
17804303 29 18271246015369504104
18511873 20 18408606959113104043
20871998 184 18200588073869232278
21501502 16 18196657504288321813
21501925 9 18269546307425792426
21650355 55 18267292158771515632
22959321 94 18335413518335611362
2297311 6 18200039426674092110
232386 152 18410015433677220342
2334 1 18052823829849143975
23402539 116 18201709614463540141
23463225 33 18410296921296051188
23552423 10 18047476904629436429
23559900 14 18199473173885324798
2748010 2 18196938996545238933
53812654 25 18272369776013543716
5902787 121 18410292549183062450
7364860 26 18198625621670887864

>  <PUBCHEM_SHAPE_MULTIPOLES>  (1) 
266.41
5.93
2.2
0.7
2.89
0.21
0
-3.36
1
-0.04
0
0.21
-0.04
-0.45

>  <PUBCHEM_SHAPE_SELFOVERLAP>  (1) 
576.665

>  <PUBCHEM_SHAPE_VOLUME>  (1) 
148.1

>  <PUBCHEM_COORDINATE_TYPE>  (1) 
2
5
10

$$$$
