21165
     RDKit          3D

 28 31  0  0  1  0  0  0  0  0999 V2000
    4.3544   -1.3116    0.3054 S   0  0  0  0  0  0  0  0  0  0  0  0
    0.8670   -0.1300   -2.0665 O   0  0  0  0  0  0  0  0  0  0  0  0
    4.2962   -0.9416    1.7031 O   0  0  0  0  0  0  0  0  0  0  0  0
    5.1253   -0.5472   -0.6511 O   0  0  0  0  0  0  0  0  0  0  0  0
    1.2913    2.3429    0.8759 O   0  0  0  0  0  0  0  0  0  0  0  0
   -2.5656   -3.0814   -0.0031 O   0  0  0  0  0  0  0  0  0  0  0  0
   -3.0906    2.2421   -0.0861 O   0  0  0  0  0  0  0  0  0  0  0  0
    0.3010    4.2777    0.1172 O   0  0  0  0  0  0  0  0  0  0  0  0
    2.7590   -1.4872   -0.2860 N   0  0  0  0  0  0  0  0  0  0  0  0
   -0.2561   -1.3474   -0.3456 N   0  0  0  0  0  0  0  0  0  0  0  0
   -5.3632    0.8163    0.3042 N   0  0  0  0  0  0  0  0  0  0  0  0
    2.5860    4.1096    0.3106 N   0  0  0  0  0  0  0  0  0  0  0  0
    1.8505   -0.4070    0.1006 C   0  0  0  0  0  0  0  0  0  0  0  0
    1.7689   -1.7550    0.7417 C   0  0  0  0  0  0  0  0  0  0  0  0
    0.5861   -0.1691   -0.6683 C   0  0  0  0  0  0  0  0  0  0  0  0
    0.4533   -2.3868    0.3940 C   0  0  0  0  0  0  0  0  0  0  0  0
   -0.3368    1.0389   -0.2886 C   0  0  0  0  0  0  0  0  0  0  0  0
   -1.5650   -0.9603   -0.1755 C   0  0  0  0  0  0  0  0  0  0  0  0
   -1.6902    0.3652   -0.1759 C   0  0  0  0  0  0  0  0  0  0  0  0
    0.0197    1.7386    1.0212 C   0  0  0  0  0  0  0  0  0  0  0  0
   -2.7034   -1.8631    0.0037 C   0  0  0  0  0  0  0  0  0  0  0  0
    4.8826   -3.0028    0.2081 C   0  0  0  0  0  0  0  0  0  0  0  0
   -2.9917    1.0199   -0.0398 C   0  0  0  0  0  0  0  0  0  0  0  0
    1.5269    1.0736   -2.4273 C   0  0  0  0  0  0  0  0  0  0  0  0
   -4.0444   -1.2120    0.1824 C   0  0  0  0  0  0  0  0  0  0  0  0
   -4.1877    0.1315    0.1596 C   0  0  0  0  0  0  0  0  0  0  0  0
   -5.1757   -2.1864    0.3767 C   0  0  0  0  0  0  0  0  0  0  0  0
    1.3024    3.6326    0.4091 C   0  0  0  0  0  0  0  0  0  0  0  0
  1  3  2  0
  1  4  2  0
  1  9  1  0
  1 22  1  0
  2 15  1  0
  2 24  1  0
  5 20  1  0
  5 28  1  0
  6 21  2  0
  7 23  2  0
  8 28  2  0
  9 13  1  0
  9 14  1  0
 10 15  1  0
 10 16  1  0
 10 18  1  0
 11 26  1  0
 12 28  1  0
 13 14  1  0
 13 15  1  0
 14 16  1  0
 15 17  1  0
 17 19  1  0
 17 20  1  0
 18 19  2  0
 18 21  1  0
 19 23  1  0
 21 25  1  0
 23 26  1  0
 25 26  2  0
 25 27  1  0
M  END
>  <PUBCHEM_COMPOUND_CID>  (1) 
21165

>  <PUBCHEM_CONFORMER_RMSD>  (1) 
0.8

>  <PUBCHEM_CONFORMER_DIVERSEORDER>  (1) 
1
9
25
31
6
27
4
10
23
17
30
20
15
3
29
28
26
5
7
11
2
21
18
12
16
8
32
13
24
19
22
14

>  <PUBCHEM_MMFF94_PARTIAL_CHARGES>  (1) 
34
1 1.33
10 -0.84
11 -0.9
12 -0.8
13 0.04
14 0.04
15 0.74
16 0.46
17 0.14
18 0.11
19 -0.12
2 -0.56
20 0.28
21 0.54
22 0.11
23 0.54
24 0.28
25 -0.12
26 0.11
27 0.14
28 0.78
29 0.1
3 -0.65
30 0.1
4 -0.65
45 0.4
46 0.4
47 0.37
48 0.37
5 -0.43
6 -0.57
7 -0.57
8 -0.57
9 -0.6

>  <PUBCHEM_EFFECTIVE_ROTOR_COUNT>  (1) 
5.6

>  <PUBCHEM_PHARMACOPHORE_FEATURES>  (1) 
13
1 10 cation
1 11 cation
1 11 donor
1 12 donor
1 2 acceptor
1 3 acceptor
1 4 acceptor
1 6 acceptor
1 7 acceptor
1 8 acceptor
5 10 15 17 18 19 rings
6 18 19 21 23 25 26 rings
6 9 10 13 14 15 16 rings

>  <PUBCHEM_HEAVY_ATOM_COUNT>  (1) 
28

>  <PUBCHEM_ATOM_DEF_STEREO_COUNT>  (1) 
2

>  <PUBCHEM_ATOM_UDEF_STEREO_COUNT>  (1) 
2

>  <PUBCHEM_BOND_DEF_STEREO_COUNT>  (1) 
0

>  <PUBCHEM_BOND_UDEF_STEREO_COUNT>  (1) 
0

>  <PUBCHEM_ISOTOPIC_ATOM_COUNT>  (1) 
0

>  <PUBCHEM_COMPONENT_COUNT>  (1) 
1

>  <PUBCHEM_CACTVS_TAUTO_COUNT>  (1) 
42

>  <PUBCHEM_CONFORMER_ID>  (1) 
000052AD00000001

>  <PUBCHEM_MMFF94_ENERGY>  (1) 
97.8498

>  <PUBCHEM_FEATURE_SELFOVERLAP>  (1) 
66.158

>  <PUBCHEM_SHAPE_FINGERPRINT>  (1) 
10675989 125 16677802724848199597
107951 10 17474682027731954964
1100329 8 18410857650867464137
11578080 2 17750490997053061205
12156800 1 15552794818150750472
12236239 1 18040440966667852606
12403259 226 18408600379439757349
12403260 363 18272366512550685007
12553582 1 18266162964128956179
12592029 89 18123753329036280744
12633257 1 18271821107480405625
12788726 201 18263936432224856978
13009979 54 18114759156743902199
13132413 78 18341046324461736341
13140716 1 18338242673634005787
138480 1 18411416241487459504
14223421 5 18194116541601450419
14787075 74 18260271845541979138
14955137 171 18410018701736271963
15238133 3 18268162972023093861
15927050 60 17836930371308157902
16945 1 18191008024313234959
17804303 29 18410012139405850343
18336668 15 18114184125052752132
18785283 64 18192144013399241720
20600515 1 17987247624712937577
20905425 154 17983863564261589965
21267235 1 18335430040917037011
21524375 3 17409656883841517961
23366157 5 18116709814683171440
23402539 116 18058157346007380567
23419403 2 17971724865675362358
23557571 272 17986963950928755596
23559900 14 18411408536658729513
3178227 256 18266192656229696233
335352 9 18411418376518430087
350125 39 18407762543216096341
4409770 3 17901095322557392997
5104073 3 18266191698415189579
59755656 215 18049724315129021973
7364860 26 18267868456913476533
81228 2 17627816126889351609
9981440 41 17473257055675786977

>  <PUBCHEM_SHAPE_MULTIPOLES>  (1) 
519.07
9.22
4.34
1.18
1.59
4.32
0.6
-6.21
-1.47
-2.09
-0.94
-0.96
0.29
-0.13

>  <PUBCHEM_SHAPE_SELFOVERLAP>  (1) 
1116.543

>  <PUBCHEM_SHAPE_VOLUME>  (1) 
290.8

>  <PUBCHEM_COORDINATE_TYPE>  (1) 
2
5
10

$$$$
