21177
     RDKit          3D

 14 14  0  0  1  0  0  0  0  0999 V2000
    1.4174    0.6535    0.1118 N   0  0  0  0  0  0  0  0  0  0  0  0
    1.2960   -2.6858   -0.6627 N   0  0  0  0  0  0  0  0  0  0  0  0
    0.5616   -0.4553    0.5326 C   0  0  0  0  0  0  0  0  0  0  0  0
    1.3240    0.8508   -1.3342 C   0  0  0  0  0  0  0  0  0  0  0  0
    2.8040    0.4070    0.5056 C   0  0  0  0  0  0  0  0  0  0  0  0
   -0.9103   -0.1554    0.3205 C   0  0  0  0  0  0  0  0  0  0  0  0
    2.1547    2.0334   -1.7877 C   0  0  0  0  0  0  0  0  0  0  0  0
    2.9277    0.1991    2.0009 C   0  0  0  0  0  0  0  0  0  0  0  0
   -1.6025    0.5359    1.2972 C   0  0  0  0  0  0  0  0  0  0  0  0
   -1.5219   -0.5805   -0.8439 C   0  0  0  0  0  0  0  0  0  0  0  0
    0.9722   -1.7024   -0.1380 C   0  0  0  0  0  0  0  0  0  0  0  0
   -2.9558    0.8120    1.1023 C   0  0  0  0  0  0  0  0  0  0  0  0
   -2.8751   -0.3043   -1.0388 C   0  0  0  0  0  0  0  0  0  0  0  0
   -3.5921    0.3920   -0.0656 C   0  0  0  0  0  0  0  0  0  0  0  0
  1  3  1  0
  1  4  1  0
  1  5  1  0
  2 11  3  0
  3  6  1  0
  3 11  1  0
  4  7  1  0
  5  8  1  0
  6  9  2  0
  6 10  1  0
  9 12  1  0
 10 13  2  0
 12 14  2  0
 13 14  1  0
M  END
>  <PUBCHEM_COMPOUND_CID>  (1) 
21177

>  <PUBCHEM_CONFORMER_RMSD>  (1) 
0.6

>  <PUBCHEM_CONFORMER_DIVERSEORDER>  (1) 
2
3
5
6
1
4

>  <PUBCHEM_MMFF94_PARTIAL_CHARGES>  (1) 
17
1 -0.81
10 -0.15
11 0.36
12 -0.15
13 -0.15
14 -0.15
2 -0.56
26 0.15
27 0.15
28 0.15
29 0.15
3 0.61
30 0.15
4 0.27
5 0.27
6 -0.14
9 -0.15

>  <PUBCHEM_EFFECTIVE_ROTOR_COUNT>  (1) 
4

>  <PUBCHEM_PHARMACOPHORE_FEATURES>  (1) 
3
1 1 cation
1 2 acceptor
6 6 9 10 12 13 14 rings

>  <PUBCHEM_HEAVY_ATOM_COUNT>  (1) 
14

>  <PUBCHEM_ATOM_DEF_STEREO_COUNT>  (1) 
0

>  <PUBCHEM_ATOM_UDEF_STEREO_COUNT>  (1) 
1

>  <PUBCHEM_BOND_DEF_STEREO_COUNT>  (1) 
0

>  <PUBCHEM_BOND_UDEF_STEREO_COUNT>  (1) 
0

>  <PUBCHEM_ISOTOPIC_ATOM_COUNT>  (1) 
0

>  <PUBCHEM_COMPONENT_COUNT>  (1) 
1

>  <PUBCHEM_CACTVS_TAUTO_COUNT>  (1) 
1

>  <PUBCHEM_CONFORMER_ID>  (1) 
000052B900000002

>  <PUBCHEM_MMFF94_ENERGY>  (1) 
35.4255

>  <PUBCHEM_FEATURE_SELFOVERLAP>  (1) 
15.223

>  <PUBCHEM_SHAPE_FINGERPRINT>  (1) 
10219947 1 18114169827016855258
11031198 65 18339659887817927697
12326174 3 17967538939046138802
124424 183 16443889601138106185
12932764 1 17703520900086529825
15490181 8 18336836393244601578
15775835 57 17917714569659791329
15852999 172 18337656581785182259
16945 1 18333730208450090701
17357990 137 18336556000731498964
17841504 4 16660354892121195736
18186145 218 16486708969581425745
19049666 15 15575531605710082204
19786989 88 18041289854115886749
20511035 2 17765457351862026761
21524375 3 17391376347657107596
22802520 49 15482132508394209553
230 275 18343028778259883576
23402539 116 16916203581298214349
23419403 2 15965606269672832283
23552423 10 18058447604398121567
23557571 272 16629680798534047245
305870 269 18201715124426578290
31174 14 16805615805841737577
3248919 1 18334581235193336771
3250762 1 17325178768743776810
3286 77 16443059491819268513
68419 9 17612304560884773806
7364860 26 17417529090701400822
8030462 33 18059864939204897427

>  <PUBCHEM_SHAPE_MULTIPOLES>  (1) 
278.15
5.23
1.77
1.68
2.26
0.46
-0.29
1.01
-1.35
-1.82
1.05
-0.34
-0.39
-0.43

>  <PUBCHEM_SHAPE_SELFOVERLAP>  (1) 
564.861

>  <PUBCHEM_SHAPE_VOLUME>  (1) 
161.7

>  <PUBCHEM_COORDINATE_TYPE>  (1) 
2
5
10

$$$$
