21179
     RDKit          3D

 22 24  0  0  1  0  0  0  0  0999 V2000
   -2.0228    1.1270    1.0345 S   0  0  0  0  0  0  0  0  0  0  0  0
    3.5828    2.1436   -0.5152 N   0  0  0  0  0  0  0  0  0  0  0  0
    4.6153   -3.4837    0.1415 N   0  0  0  0  0  0  0  0  0  0  0  0
    3.1486   -1.4733   -0.2634 C   0  0  0  0  0  0  0  0  0  0  0  0
    3.0505    0.0003   -0.2928 C   0  0  0  0  0  0  0  0  0  0  0  0
    4.5642   -2.0170    0.1568 C   0  0  0  0  0  0  0  0  0  0  0  0
    1.8928    0.7778   -0.0097 C   0  0  0  0  0  0  0  0  0  0  0  0
    2.7019   -2.1073   -1.6114 C   0  0  0  0  0  0  0  0  0  0  0  0
    2.2539    2.1189   -0.1565 C   0  0  0  0  0  0  0  0  0  0  0  0
    4.0729    0.8682   -0.6003 C   0  0  0  0  0  0  0  0  0  0  0  0
    4.9622   -1.5366    1.5571 C   0  0  0  0  0  0  0  0  0  0  0  0
    0.5684    0.4685    0.3585 C   0  0  0  0  0  0  0  0  0  0  0  0
    1.3532    3.1703    0.0475 C   0  0  0  0  0  0  0  0  0  0  0  0
   -0.3436    1.5099    0.5657 C   0  0  0  0  0  0  0  0  0  0  0  0
    0.0450    2.8392    0.4121 C   0  0  0  0  0  0  0  0  0  0  0  0
   -2.5774    0.1270   -0.3744 C   0  0  0  0  0  0  0  0  0  0  0  0
   -4.0009   -0.3325   -0.2187 C   0  0  0  0  0  0  0  0  0  0  0  0
   -5.0332    0.4580   -0.7063 C   0  0  0  0  0  0  0  0  0  0  0  0
   -4.2653   -1.5415    0.4112 C   0  0  0  0  0  0  0  0  0  0  0  0
   -6.3534    0.0318   -0.5616 C   0  0  0  0  0  0  0  0  0  0  0  0
   -5.5855   -1.9677    0.5559 C   0  0  0  0  0  0  0  0  0  0  0  0
   -6.6296   -1.1811    0.0694 C   0  0  0  0  0  0  0  0  0  0  0  0
  1 14  1  0
  1 16  1  0
  2  9  1  0
  2 10  1  0
  3  6  1  0
  4  5  1  0
  4  6  1  0
  4  8  1  0
  5  7  1  0
  5 10  2  0
  6 11  1  0
  7  9  2  0
  7 12  1  0
  9 13  1  0
 12 14  2  0
 13 15  2  0
 14 15  1  0
 16 17  1  0
 17 18  2  0
 17 19  1  0
 18 20  1  0
 19 21  2  0
 20 22  2  0
 21 22  1  0
M  END
>  <PUBCHEM_COMPOUND_CID>  (1) 
21179

>  <PUBCHEM_CONFORMER_RMSD>  (1) 
0.8

>  <PUBCHEM_CONFORMER_DIVERSEORDER>  (1) 
1
72
102
96
50
38
118
106
31
70
41
122
63
15
14
73
103
114
110
92
20
113
75
71
21
47
76
100
49
5
98
69
115
26
2
108
35
25
39
57
22
105
55
79
97
77
120
68
18
85
116
91
117
12
94
33
60
101
65
8
123
83
107
46
53
88
82
121
29
80
45
89
42
93
90
61
9
119
16
67
6
52
48
40
109
59
84
19
56
44
17
95
30
4
86
81
99
27
32
51
112
23
13
62
104
78
64
58
28
111
66
36
43
87
74
3
10
37
11
54
7
34
24

>  <PUBCHEM_MMFF94_PARTIAL_CHARGES>  (1) 
31
1 -0.33
10 -0.3
12 -0.15
13 -0.15
14 0.1
15 -0.15
16 0.37
17 -0.14
18 -0.15
19 -0.15
2 0.03
20 -0.15
21 -0.15
22 -0.15
28 0.15
3 -0.99
32 0.27
33 0.15
34 0.36
35 0.36
36 0.15
37 0.15
4 0.18
40 0.15
41 0.15
42 0.15
43 0.15
44 0.15
5 -0.18
6 0.27
9 -0.15

>  <PUBCHEM_EFFECTIVE_ROTOR_COUNT>  (1) 
5

>  <PUBCHEM_PHARMACOPHORE_FEATURES>  (1) 
8
1 2 cation
1 2 donor
1 3 cation
1 3 donor
1 8 hydrophobe
5 2 5 7 9 10 rings
6 17 18 19 20 21 22 rings
6 7 9 12 13 14 15 rings

>  <PUBCHEM_HEAVY_ATOM_COUNT>  (1) 
22

>  <PUBCHEM_ATOM_DEF_STEREO_COUNT>  (1) 
0

>  <PUBCHEM_ATOM_UDEF_STEREO_COUNT>  (1) 
2

>  <PUBCHEM_BOND_DEF_STEREO_COUNT>  (1) 
0

>  <PUBCHEM_BOND_UDEF_STEREO_COUNT>  (1) 
0

>  <PUBCHEM_ISOTOPIC_ATOM_COUNT>  (1) 
0

>  <PUBCHEM_COMPONENT_COUNT>  (1) 
1

>  <PUBCHEM_CACTVS_TAUTO_COUNT>  (1) 
1

>  <PUBCHEM_CONFORMER_ID>  (1) 
000052BB00000001

>  <PUBCHEM_MMFF94_ENERGY>  (1) 
41.8898

>  <PUBCHEM_FEATURE_SELFOVERLAP>  (1) 
40.688

>  <PUBCHEM_SHAPE_FINGERPRINT>  (1) 
10447042 23 18342173379830800332
10673678 19 17608385845393496372
11719270 70 18337951324543604600
12107183 9 18198072374412559777
12166972 35 17894917282774707502
12596602 18 14549013286943936143
12730499 353 18192438682241094449
13073987 5 18342179990413586721
13083527 12 18337667526073774872
13533116 47 18412545439976313937
13540713 5 18267322945182236304
13782708 43 18113615707991526371
13955234 65 18127410279146363809
13968360 50 18189058762903644300
14251740 57 17775013336494861406
14251751 18 18187641367048648727
1454969 45 18411983564450395204
14576447 43 18412271648796705748
14848178 5 18341609270093901235
14866123 147 18124318203847161569
14910302 57 17895184528803860543
15183329 4 18413393120940367273
15352361 1 18411982420965974451
15537594 2 18059860626931119325
17492 89 18267585711206974286
17844677 252 18334581244105362461
17857418 61 18343865515652171561
1979834 28 17561086886353404367
20028762 73 18342174423761963630
20567600 70 18407754846392414434
20645477 70 18410013264433950893
21033650 10 16588301619126570037
21279426 13 18334290930032877895
21285901 2 18040712584525853397
21315764 119 17095801019589973783
21478907 32 18339644434462936369
221357 26 18336542802982761557
22393880 68 17895464852697654601
2303208 19 17676497181135990059
23559900 14 18335976576074749433
23622692 118 18338519612998573096
239999 70 18261391212487124905
3004659 81 18260548913750342654
314194 84 18201156650250910095
3421961 26 18413105082467618968
345986 75 17704079490611417769
34797466 226 16660932187808341197
3680242 22 18412551981185716627
4073 2 17970351623329517771
4098825 35 17822007597042091604
46194498 28 17749108949765790613
465052 167 18343305872359533142
5104073 3 18202568363025501113
5281201 14 18114462357577470397
59682541 35 18271511049923777386
59682541 52 18337663213936906237
6327066 14 10414138719454195990
6695519 79 17474976679319988929
7970288 3 18266176128352171434
960060 61 17894919541594792933
9841814 1 16630245913024697785

>  <PUBCHEM_SHAPE_MULTIPOLES>  (1) 
446.64
14.97
3.45
1.04
19.78
0.14
-0.03
-11.14
0.17
-4.38
-0.18
-0.55
-0.32
-0.15

>  <PUBCHEM_SHAPE_SELFOVERLAP>  (1) 
943.744

>  <PUBCHEM_SHAPE_VOLUME>  (1) 
253.9

>  <PUBCHEM_COORDINATE_TYPE>  (1) 
2
5
10

$$$$
