21170
     RDKit          3D

 13 13  0  0  0  0  0  0  0  0999 V2000
    2.5342    0.0026   -1.5358 O   0  0  0  0  0  0  0  0  0  0  0  0
    1.5658   -0.0007    0.6128 N   0  0  0  0  0  0  0  0  0  0  0  0
    0.1907   -0.0007    0.3547 C   0  0  0  0  0  0  0  0  0  0  0  0
   -0.4944    1.2076    0.2262 C   0  0  0  0  0  0  0  0  0  0  0  0
   -0.4953   -1.2085    0.2257 C   0  0  0  0  0  0  0  0  0  0  0  0
   -2.5512    0.0007   -0.1601 C   0  0  0  0  0  0  0  0  0  0  0  0
   -1.8653    1.2083   -0.0311 C   0  0  0  0  0  0  0  0  0  0  0  0
   -1.8663   -1.2077   -0.0317 C   0  0  0  0  0  0  0  0  0  0  0  0
    0.2128    2.5176    0.3583 C   0  0  0  0  0  0  0  0  0  0  0  0
    0.2107   -2.5194    0.3563 C   0  0  0  0  0  0  0  0  0  0  0  0
   -4.0166    0.0015   -0.4362 C   0  0  0  0  0  0  0  0  0  0  0  0
    2.6156   -0.0007   -0.3118 C   0  0  0  0  0  0  0  0  0  0  0  0
    3.9594   -0.0006    0.3726 C   0  0  0  0  0  0  0  0  0  0  0  0
  1 12  2  0
  2  3  1  0
  2 12  1  0
  3  4  2  0
  3  5  1  0
  4  7  1  0
  4  9  1  0
  5  8  2  0
  5 10  1  0
  6  7  2  0
  6  8  1  0
  6 11  1  0
 12 13  1  0
M  END
>  <PUBCHEM_COMPOUND_CID>  (1) 
21170

>  <PUBCHEM_CONFORMER_RMSD>  (1) 
0.6

>  <PUBCHEM_CONFORMER_DIVERSEORDER>  (1) 
1

>  <PUBCHEM_MMFF94_PARTIAL_CHARGES>  (1) 
16
1 -0.57
10 0.14
11 0.14
12 0.57
13 0.06
14 0.15
15 0.15
2 -0.55
22 0.37
3 0.12
4 -0.14
5 -0.14
6 -0.14
7 -0.15
8 -0.15
9 0.14

>  <PUBCHEM_EFFECTIVE_ROTOR_COUNT>  (1) 
2

>  <PUBCHEM_PHARMACOPHORE_FEATURES>  (1) 
3
1 1 acceptor
1 2 donor
6 3 4 5 6 7 8 rings

>  <PUBCHEM_HEAVY_ATOM_COUNT>  (1) 
13

>  <PUBCHEM_ATOM_DEF_STEREO_COUNT>  (1) 
0

>  <PUBCHEM_ATOM_UDEF_STEREO_COUNT>  (1) 
0

>  <PUBCHEM_BOND_DEF_STEREO_COUNT>  (1) 
0

>  <PUBCHEM_BOND_UDEF_STEREO_COUNT>  (1) 
0

>  <PUBCHEM_ISOTOPIC_ATOM_COUNT>  (1) 
0

>  <PUBCHEM_COMPONENT_COUNT>  (1) 
1

>  <PUBCHEM_CACTVS_TAUTO_COUNT>  (1) 
2

>  <PUBCHEM_CONFORMER_ID>  (1) 
000052B200000001

>  <PUBCHEM_MMFF94_ENERGY>  (1) 
54.7246

>  <PUBCHEM_FEATURE_SELFOVERLAP>  (1) 
15.223

>  <PUBCHEM_SHAPE_FINGERPRINT>  (1) 
10353120 184 18413109459313444245
11206711 2 18337100194931926093
12032990 46 18412549833670023707
12423570 1 11877068240033386937
13380536 305 18337669831985766689
14115302 16 18186524336465342238
14614273 12 18116708526161360389
14911166 2 18410566306309069357
14993402 34 18334857229396242693
15775835 57 17603874428908912860
16945 1 18410851062566928033
17846911 113 18411694383410909586
193761 8 17762616188098381281
20201158 50 18060140950941094102
20233049 118 18187916275031004157
20588541 1 18335138683325495147
20645476 183 17749400316067935990
21501502 16 18051691045162538419
22802520 49 17985849058975892630
2334 1 17977943819738456691
23402539 116 18271231777442135286
23402655 69 18195224648203065661
23463225 33 18261386685749850554
23552423 10 17974286517478537475
23559900 14 18413388761753939416
2748010 2 18048590714630361715
3250762 1 17762054745483282659
353137 74 18337953363935171081
43471831 8 18263358097187469722
528886 8 18410567392619459531
537710 114 18334296452843966125
7364860 26 18053097329014219698
81228 2 18199486393083018488

>  <PUBCHEM_SHAPE_MULTIPOLES>  (1) 
256.68
5.34
2.09
0.83
1.12
0
0.2
0
0.93
-0.23
-0.39
0.39
0
0

>  <PUBCHEM_SHAPE_SELFOVERLAP>  (1) 
526.285

>  <PUBCHEM_SHAPE_VOLUME>  (1) 
150.6

>  <PUBCHEM_COORDINATE_TYPE>  (1) 
2
5
10

$$$$
