21196
     RDKit          3D

 22 24  0  0  1  0  0  0  0  0999 V2000
   -0.9666   -3.1526   -2.3529 Cl  0  0  0  0  0  0  0  0  0  0  0  0
   -0.7563   -0.0207   -1.5192 S   0  0  0  0  0  0  0  0  0  0  0  0
    1.0993    1.2109    0.5486 O   0  0  0  0  0  0  0  0  0  0  0  0
    4.5655    1.0630   -0.6613 N   0  0  0  0  0  0  0  0  0  0  0  0
    0.3019    0.4119    1.4185 C   0  0  0  0  0  0  0  0  0  0  0  0
   -1.0516    1.0723    1.7063 C   0  0  0  0  0  0  0  0  0  0  0  0
    0.1764   -1.0063    0.9154 C   0  0  0  0  0  0  0  0  0  0  0  0
   -2.1492    1.1896    0.6631 C   0  0  0  0  0  0  0  0  0  0  0  0
   -0.3075   -1.3034   -0.3688 C   0  0  0  0  0  0  0  0  0  0  0  0
   -2.1242    0.7639   -0.6781 C   0  0  0  0  0  0  0  0  0  0  0  0
    2.4081    0.6830    0.4310 C   0  0  0  0  0  0  0  0  0  0  0  0
    3.2045    1.5590   -0.5230 C   0  0  0  0  0  0  0  0  0  0  0  0
    0.5283   -2.0670    1.7678 C   0  0  0  0  0  0  0  0  0  0  0  0
   -3.3307    1.8102    1.1371 C   0  0  0  0  0  0  0  0  0  0  0  0
   -0.4132   -2.6383   -0.7856 C   0  0  0  0  0  0  0  0  0  0  0  0
   -3.2569    0.9791   -1.4921 C   0  0  0  0  0  0  0  0  0  0  0  0
    0.4137   -3.3925    1.3490 C   0  0  0  0  0  0  0  0  0  0  0  0
   -0.0559   -3.6778    0.0717 C   0  0  0  0  0  0  0  0  0  0  0  0
   -4.4440    2.0091    0.3227 C   0  0  0  0  0  0  0  0  0  0  0  0
   -4.4060    1.5925   -0.9972 C   0  0  0  0  0  0  0  0  0  0  0  0
    5.2356    1.0179    0.6407 C   0  0  0  0  0  0  0  0  0  0  0  0
    5.3288    1.8963   -1.5936 C   0  0  0  0  0  0  0  0  0  0  0  0
  1 15  1  0
  2  9  1  0
  2 10  1  0
  3  5  1  0
  3 11  1  0
  4 12  1  0
  4 21  1  0
  4 22  1  0
  5  6  1  0
  5  7  1  0
  6  8  1  0
  7  9  2  0
  7 13  1  0
  8 10  2  0
  8 14  1  0
  9 15  1  0
 10 16  1  0
 11 12  1  0
 13 17  2  0
 14 19  2  0
 15 18  2  0
 16 20  2  0
 17 18  1  0
 19 20  1  0
M  END
>  <PUBCHEM_COMPOUND_CID>  (1) 
21196

>  <PUBCHEM_CONFORMER_RMSD>  (1) 
0.8

>  <PUBCHEM_CONFORMER_DIVERSEORDER>  (1) 
1
20
12
18
8
7
3
15
22
6
5
13
21
19
23
16
14
11
2
9
4
17
10

>  <PUBCHEM_MMFF94_PARTIAL_CHARGES>  (1) 
29
1 -0.18
10 0.1
11 0.28
12 0.27
13 -0.15
14 -0.15
15 0.18
16 -0.15
17 -0.15
18 -0.15
19 -0.15
2 -0.2
20 -0.15
21 0.27
22 0.27
3 -0.56
30 0.15
31 0.15
32 0.15
33 0.15
34 0.15
35 0.15
36 0.15
4 -0.81
5 0.42
6 0.14
7 -0.14
8 -0.14
9 0.1

>  <PUBCHEM_EFFECTIVE_ROTOR_COUNT>  (1) 
4.6

>  <PUBCHEM_PHARMACOPHORE_FEATURES>  (1) 
5
1 3 acceptor
1 4 cation
6 7 9 13 15 17 18 rings
6 8 10 14 16 19 20 rings
7 2 5 6 7 8 9 10 rings

>  <PUBCHEM_HEAVY_ATOM_COUNT>  (1) 
22

>  <PUBCHEM_ATOM_DEF_STEREO_COUNT>  (1) 
0

>  <PUBCHEM_ATOM_UDEF_STEREO_COUNT>  (1) 
1

>  <PUBCHEM_BOND_DEF_STEREO_COUNT>  (1) 
0

>  <PUBCHEM_BOND_UDEF_STEREO_COUNT>  (1) 
0

>  <PUBCHEM_ISOTOPIC_ATOM_COUNT>  (1) 
0

>  <PUBCHEM_COMPONENT_COUNT>  (1) 
1

>  <PUBCHEM_CACTVS_TAUTO_COUNT>  (1) 
1

>  <PUBCHEM_CONFORMER_ID>  (1) 
000052CC00000001

>  <PUBCHEM_MMFF94_ENERGY>  (1) 
74.0061

>  <PUBCHEM_FEATURE_SELFOVERLAP>  (1) 
25.384

>  <PUBCHEM_SHAPE_FINGERPRINT>  (1) 
10369192 42 18188511119596662725
105312 117 18335435585824850372
107951 10 18335715961311233598
11578080 2 17102041769952674057
11823591 26 18336537261668003661
12592029 89 18188767232616579250
12788726 201 18049152564814302978
12954195 1 18200305649446650359
13149001 5 18058164114786616824
133893 2 17977115560627546456
13681431 1 17689994540158129019
13931106 250 17773880998637633598
14251751 93 18339078293221745735
14251757 17 15626216914413198168
15163728 17 17970370151201845412
15463212 79 18263067955145889208
18785283 64 17969216733871826554
200 152 12607409879814715520
20197701 30 18410575071910058856
20645476 183 18411133675277682740
20739085 24 17551213087426584899
21120745 212 17177464213042054932
21524375 3 18410571777570182416
22907989 373 17904210569948241012
23175994 123 11167938065502429305
23419403 2 17764075386026257723
23557571 272 17766258157389169664
23558518 356 18050556645273187588
23559900 14 17270029503351634447
298252 57 18272932717361134794
3027735 51 16821101580815915493
3729539 64 18046645408237090366
3759504 43 18334862752740009648
394222 165 18265329512845644515
404807 14 15117352819105815342
474 4 18337107848041148032
484985 159 16700082506860262334
53917941 68 18265321975621183912
559249 180 18409731777432103562
57262259 84 17843124976273393015
59755656 520 18412544314468172204
6669772 16 18338806624167451806
6786 2 18335715930724333122
81228 2 17762603389143344681
81539 233 18262236603821646377

>  <PUBCHEM_SHAPE_MULTIPOLES>  (1) 
447.62
8.07
3.99
1.98
7.88
5.03
0.32
-10.74
2.66
-0.23
0.33
-0.19
0.71
-1.47

>  <PUBCHEM_SHAPE_SELFOVERLAP>  (1) 
928.341

>  <PUBCHEM_SHAPE_VOLUME>  (1) 
256.4

>  <PUBCHEM_COORDINATE_TYPE>  (1) 
2
5
10

$$$$
