21200
     RDKit          3D

 16 17  0  0  0  0  0  0  0  0999 V2000
    3.8230    2.6571    0.0015 Cl  0  0  0  0  0  0  0  0  0  0  0  0
   -0.0755   -0.3904   -0.0437 N   0  0  0  0  0  0  0  0  0  0  0  0
    2.0585   -1.3623   -0.0026 N   0  0  0  0  0  0  0  0  0  0  0  0
    1.7955    1.0228   -0.0210 N   0  0  0  0  0  0  0  0  0  0  0  0
    3.9923    0.0582    0.0212 N   0  0  0  0  0  0  0  0  0  0  0  0
   -1.0010    0.7689   -0.0660 C   0  0  0  0  0  0  0  0  0  0  0  0
   -2.4350    0.3607   -0.0255 C   0  0  0  0  0  0  0  0  0  0  0  0
   -3.1277    0.1282   -1.2137 C   0  0  0  0  0  0  0  0  0  0  0  0
   -3.0832    0.2110    1.2005 C   0  0  0  0  0  0  0  0  0  0  0  0
    1.2802   -0.2411   -0.0223 C   0  0  0  0  0  0  0  0  0  0  0  0
   -4.4688   -0.2537   -1.1758 C   0  0  0  0  0  0  0  0  0  0  0  0
   -4.4243   -0.1711    1.2383 C   0  0  0  0  0  0  0  0  0  0  0  0
   -5.1170   -0.4034    0.0500 C   0  0  0  0  0  0  0  0  0  0  0  0
    3.3823   -1.1380    0.0181 C   0  0  0  0  0  0  0  0  0  0  0  0
    4.2646   -2.3394    0.0402 C   0  0  0  0  0  0  0  0  0  0  0  0
    3.1363    1.0926    0.0008 C   0  0  0  0  0  0  0  0  0  0  0  0
  1 16  1  0
  2  6  1  0
  2 10  1  0
  3 10  2  0
  3 14  1  0
  4 10  1  0
  4 16  2  0
  5 14  2  0
  5 16  1  0
  6  7  1  0
  7  8  2  0
  7  9  1  0
  8 11  1  0
  9 12  2  0
 11 13  2  0
 12 13  1  0
 14 15  1  0
M  END
>  <PUBCHEM_COMPOUND_CID>  (1) 
21200

>  <PUBCHEM_CONFORMER_RMSD>  (1) 
0.6

>  <PUBCHEM_CONFORMER_DIVERSEORDER>  (1) 
1
24
8
16
25
20
13
10
7
2
23
11
14
26
3
19
15
9
5
22
18
6
12
21
17
4

>  <PUBCHEM_MMFF94_PARTIAL_CHARGES>  (1) 
22
1 -0.18
10 0.72
11 -0.15
12 -0.15
13 -0.15
14 0.48
15 0.14
16 0.8
19 0.4
2 -0.87
20 0.15
21 0.15
22 0.15
23 0.15
24 0.15
3 -0.62
4 -0.62
5 -0.62
6 0.51
7 -0.14
8 -0.15
9 -0.15

>  <PUBCHEM_EFFECTIVE_ROTOR_COUNT>  (1) 
3

>  <PUBCHEM_PHARMACOPHORE_FEATURES>  (1) 
4
1 2 donor
4 2 3 4 10 cation
6 3 4 5 10 14 16 rings
6 7 8 9 11 12 13 rings

>  <PUBCHEM_HEAVY_ATOM_COUNT>  (1) 
16

>  <PUBCHEM_ATOM_DEF_STEREO_COUNT>  (1) 
0

>  <PUBCHEM_ATOM_UDEF_STEREO_COUNT>  (1) 
0

>  <PUBCHEM_BOND_DEF_STEREO_COUNT>  (1) 
0

>  <PUBCHEM_BOND_UDEF_STEREO_COUNT>  (1) 
0

>  <PUBCHEM_ISOTOPIC_ATOM_COUNT>  (1) 
0

>  <PUBCHEM_COMPONENT_COUNT>  (1) 
1

>  <PUBCHEM_CACTVS_TAUTO_COUNT>  (1) 
4

>  <PUBCHEM_CONFORMER_ID>  (1) 
000052D000000001

>  <PUBCHEM_MMFF94_ENERGY>  (1) 
40.3952

>  <PUBCHEM_FEATURE_SELFOVERLAP>  (1) 
20.297

>  <PUBCHEM_SHAPE_FINGERPRINT>  (1) 
10912923 1 17846500352790867619
11471102 20 18409448090098758028
11615757 297 18272652346280741825
12236239 1 17703792521980969272
12616971 3 18130788945360386175
12916754 54 18411698764504398261
13167823 11 18272650143089288455
13631057 29 17768240572416755215
13760787 5 18344144795869010333
13955234 65 18411416237582466920
14386348 63 17749111097370211473
15242439 84 17676204633090076575
15375358 24 17676483982052707497
15961568 22 16153995763137085820
17834072 33 18272931665394736575
17844677 252 18409452457901520453
17870717 6 16733273357041323531
18186145 218 17603305921130816113
19026448 4 17821727234651359413
19026448 5 17918276454492952017
19050596 39 17632577132665277139
200 152 18342171151148799419
20279233 1 17603304860373893433
20281475 54 18131344228733984591
20369508 70 18114455670350216354
20645477 70 18335698325869398334
21065201 7 16443061681967726977
22646028 1 18060134323711656199
23532345 1 18336827593173071288
23557571 272 17095518483302439965
23559900 14 17095520660713584898
312423 11 18270412602392991504
3268164 11 15936400157416684055
474 4 18196932395144192288
5104073 3 18336265656673696569
5281201 14 18186802452529902796
573450 72 17203325585779294163
602551 16 15266765715342329383
77779 3 18411419505688705165
90127 26 18113617867932457445

>  <PUBCHEM_SHAPE_MULTIPOLES>  (1) 
311.22
11.61
1.86
0.98
4.43
0.28
-0.01
-1.28
-0.16
-4.28
-0.01
1.45
0
-0.07

>  <PUBCHEM_SHAPE_SELFOVERLAP>  (1) 
646.464

>  <PUBCHEM_SHAPE_VOLUME>  (1) 
174.2

>  <PUBCHEM_COORDINATE_TYPE>  (1) 
2
5
10

$$$$
