21205
     RDKit          3D

 19 18  0  0  0  0  0  0  0  0999 V2000
    8.8008    0.7144    0.0180 O   0  0  0  0  0  0  0  0  0  0  0  0
    7.8134   -1.3513    0.2992 O   0  0  0  0  0  0  0  0  0  0  0  0
   -2.4335   -0.4670   -0.0191 C   0  0  0  0  0  0  0  0  0  0  0  0
   -3.7547    0.2623   -0.2845 C   0  0  0  0  0  0  0  0  0  0  0  0
   -1.1611    0.3506   -0.2616 C   0  0  0  0  0  0  0  0  0  0  0  0
   -5.0269   -0.5375    0.0114 C   0  0  0  0  0  0  0  0  0  0  0  0
    0.1258   -0.4529   -0.0578 C   0  0  0  0  0  0  0  0  0  0  0  0
   -6.3126    0.2694   -0.1893 C   0  0  0  0  0  0  0  0  0  0  0  0
    1.3626    0.4342   -0.2240 C   0  0  0  0  0  0  0  0  0  0  0  0
   -7.5512   -0.5900    0.0853 C   0  0  0  0  0  0  0  0  0  0  0  0
   -8.8785    0.1482   -0.1696 C   0  0  0  0  0  0  0  0  0  0  0  0
    2.6815   -0.3124   -0.0038 C   0  0  0  0  0  0  0  0  0  0  0  0
    3.9190    0.5683   -0.1947 C   0  0  0  0  0  0  0  0  0  0  0  0
    5.2068   -0.2330    0.0254 C   0  0  0  0  0  0  0  0  0  0  0  0
   -9.0327    1.3920    0.7068 C   0  0  0  0  0  0  0  0  0  0  0  0
  -10.0546   -0.8015    0.0706 C   0  0  0  0  0  0  0  0  0  0  0  0
    6.4620    0.6275   -0.1204 C   0  0  0  0  0  0  0  0  0  0  0  0
    7.7442   -0.1490    0.0836 C   0  0  0  0  0  0  0  0  0  0  0  0
   10.0898    0.1277    0.2244 C   0  0  0  0  0  0  0  0  0  0  0  0
  1 18  1  0
  1 19  1  0
  2 18  2  0
  3  4  1  0
  3  5  1  0
  4  6  1  0
  5  7  1  0
  6  8  1  0
  7  9  1  0
  8 10  1  0
  9 12  1  0
 10 11  1  0
 11 15  1  0
 11 16  1  0
 12 13  1  0
 13 14  1  0
 14 17  1  0
 17 18  1  0
M  END
>  <PUBCHEM_COMPOUND_CID>  (1) 
21205

>  <PUBCHEM_CONFORMER_RMSD>  (1) 
1.4

>  <PUBCHEM_CONFORMER_DIVERSEORDER>  (1) 
1
73
74
46
83
12
5
80
77
15
22
25
53
70
45
18
69
76
72
65
36
10
4
75
26
28
44
67
8
42
30
43
21
41
82
31
58
17
57
47
38
33
54
60
27
49
40
52
3
79
35
63
56
71
19
2
11
23
9
14
24
6
48
29
20
84
7
66
51
32
13
62
16
64
37
39
81
55
68
50
34
59
78
61

>  <PUBCHEM_MMFF94_PARTIAL_CHARGES>  (1) 
5
1 -0.43
17 0.06
18 0.66
19 0.28
2 -0.57

>  <PUBCHEM_EFFECTIVE_ROTOR_COUNT>  (1) 
14

>  <PUBCHEM_PHARMACOPHORE_FEATURES>  (1) 
2
1 2 acceptor
3 11 15 16 hydrophobe

>  <PUBCHEM_HEAVY_ATOM_COUNT>  (1) 
19

>  <PUBCHEM_ATOM_DEF_STEREO_COUNT>  (1) 
0

>  <PUBCHEM_ATOM_UDEF_STEREO_COUNT>  (1) 
0

>  <PUBCHEM_BOND_DEF_STEREO_COUNT>  (1) 
0

>  <PUBCHEM_BOND_UDEF_STEREO_COUNT>  (1) 
0

>  <PUBCHEM_ISOTOPIC_ATOM_COUNT>  (1) 
0

>  <PUBCHEM_COMPONENT_COUNT>  (1) 
1

>  <PUBCHEM_CACTVS_TAUTO_COUNT>  (1) 
1

>  <PUBCHEM_CONFORMER_ID>  (1) 
000052D500000001

>  <PUBCHEM_MMFF94_ENERGY>  (1) 
7.887

>  <PUBCHEM_FEATURE_SELFOVERLAP>  (1) 
10.148

>  <PUBCHEM_SHAPE_FINGERPRINT>  (1) 
14123256 10 18410573985156725901
14251764 46 18202565081274438006
14251920 1 18410573985151457639
15061470 23 18411698781352575153
15510794 2 18408889537654459770
21362267 2 16701721818499650336
21362267 20 17676488380327119323
21362267 313 18058170531488407682
232437 2 18411418423594498823
23521765 1 18341894095361114055
23581129 1 18409448093834543118
246663 6 15864070970704652629
33684 2 18410573989446424943
67123 10 18409729568816535038
8209 1 18410573989446418444

>  <PUBCHEM_SHAPE_MULTIPOLES>  (1) 
379.27
41.73
0.97
0.66
3.34
0.04
0.01
0.85
4.44
-0.62
0.09
-0.26
0.04
-0.54

>  <PUBCHEM_SHAPE_SELFOVERLAP>  (1) 
691.408

>  <PUBCHEM_SHAPE_VOLUME>  (1) 
242.5

>  <PUBCHEM_COORDINATE_TYPE>  (1) 
2
5
10

$$$$
