21210
     RDKit          3D

  9  8  0  0  1  0  0  0  0  0999 V2000
   -0.2807   -0.0956    0.1896 O   0  0  0  0  0  0  0  0  0  0  0  0
   -2.6862   -1.3765   -0.3214 O   0  0  0  0  0  0  0  0  0  0  0  0
    2.1070   -0.2703    0.1481 C   0  0  0  0  0  0  0  0  0  0  0  0
    0.9008    0.5889   -0.2034 C   0  0  0  0  0  0  0  0  0  0  0  0
    3.4166    0.4139   -0.2336 C   0  0  0  0  0  0  0  0  0  0  0  0
   -1.4465    0.6587   -0.1134 C   0  0  0  0  0  0  0  0  0  0  0  0
   -2.6724   -0.1177    0.3501 C   0  0  0  0  0  0  0  0  0  0  0  0
   -3.9585    0.6270    0.0255 C   0  0  0  0  0  0  0  0  0  0  0  0
    4.6201   -0.4284    0.1584 C   0  0  0  0  0  0  0  0  0  0  0  0
  1  4  1  0
  1  6  1  0
  2  7  1  0
  3  4  1  0
  3  5  1  0
  5  9  1  0
  6  7  1  0
  7  8  1  0
M  END
>  <PUBCHEM_COMPOUND_CID>  (1) 
21210

>  <PUBCHEM_CONFORMER_RMSD>  (1) 
0.6

>  <PUBCHEM_CONFORMER_DIVERSEORDER>  (1) 
1
92
112
22
39
80
43
3
103
96
94
11
108
105
110
87
30
20
113
9
106
82
24
91
28
76
100
21
37
98
4
63
40
97
79
2
44
12
84
90
7
102
88
35
69
41
68
104
36
114
109
16
31
95
19
29
57
64
101
78
42
99
6
85
45
58
59
55
75
89
111
10
17
77
27
62
13
86
107
73
53
25
50
72
66
81
48
14
61
71
67
56
32
26
52
54
60
38
18
46
83
70
51
34
65
15
74
47
23
33
93
8
49
5

>  <PUBCHEM_MMFF94_PARTIAL_CHARGES>  (1) 
6
1 -0.56
2 -0.68
25 0.4
4 0.28
6 0.28
7 0.28

>  <PUBCHEM_EFFECTIVE_ROTOR_COUNT>  (1) 
5

>  <PUBCHEM_PHARMACOPHORE_FEATURES>  (1) 
4
1 1 acceptor
1 2 acceptor
1 2 donor
1 9 hydrophobe

>  <PUBCHEM_HEAVY_ATOM_COUNT>  (1) 
9

>  <PUBCHEM_ATOM_DEF_STEREO_COUNT>  (1) 
0

>  <PUBCHEM_ATOM_UDEF_STEREO_COUNT>  (1) 
1

>  <PUBCHEM_BOND_DEF_STEREO_COUNT>  (1) 
0

>  <PUBCHEM_BOND_UDEF_STEREO_COUNT>  (1) 
0

>  <PUBCHEM_ISOTOPIC_ATOM_COUNT>  (1) 
0

>  <PUBCHEM_COMPONENT_COUNT>  (1) 
1

>  <PUBCHEM_CACTVS_TAUTO_COUNT>  (1) 
1

>  <PUBCHEM_CONFORMER_ID>  (1) 
000052DA00000001

>  <PUBCHEM_MMFF94_ENERGY>  (1) 
6.8575

>  <PUBCHEM_FEATURE_SELFOVERLAP>  (1) 
20.302

>  <PUBCHEM_SHAPE_FINGERPRINT>  (1) 
11062470 55 18259987067413521392
12932764 1 17749374984097337161
14123238 8 10881406434688654096
14325111 11 18410575110654461260
17834076 25 17775286041227195041
190213 19 17346602975880110224
20279233 1 17489875933442925375
20719005 15 18407761434534200729
20828058 44 18272650151726533266
21119208 17 18259703389071063204
21293036 1 13479135696274437204
22485316 2 18412259536904210122
23402539 116 18409440375831189956

>  <PUBCHEM_SHAPE_MULTIPOLES>  (1) 
173.48
8.7
0.94
0.64
3.68
0.15
0
0.5
-0.22
-0.46
0.08
-0.01
0
-0.2

>  <PUBCHEM_SHAPE_SELFOVERLAP>  (1) 
306.132

>  <PUBCHEM_SHAPE_VOLUME>  (1) 
114.6

>  <PUBCHEM_COORDINATE_TYPE>  (1) 
2
5
10

$$$$
