21211
     RDKit          3D

 18 20  0  0  0  0  0  0  0  0999 V2000
   -0.0048   -2.6694   -0.8946 O   0  0  0  0  0  0  0  0  0  0  0  0
   -0.0021   -2.6143    1.4067 O   0  0  0  0  0  0  0  0  0  0  0  0
    0.0027    2.1693   -0.1449 N   0  0  0  0  0  0  0  0  0  0  0  0
   -1.2142    0.1060    0.0807 C   0  0  0  0  0  0  0  0  0  0  0  0
    1.2151    0.1034    0.0805 C   0  0  0  0  0  0  0  0  0  0  0  0
   -0.0003   -0.5844    0.1558 C   0  0  0  0  0  0  0  0  0  0  0  0
   -1.1652    1.5019   -0.0718 C   0  0  0  0  0  0  0  0  0  0  0  0
    1.1691    1.4995   -0.0719 C   0  0  0  0  0  0  0  0  0  0  0  0
   -2.4502   -0.5597    0.1538 C   0  0  0  0  0  0  0  0  0  0  0  0
    2.4498   -0.5649    0.1535 C   0  0  0  0  0  0  0  0  0  0  0  0
   -2.3705    2.1950   -0.1473 C   0  0  0  0  0  0  0  0  0  0  0  0
    2.3758    2.1900   -0.1476 C   0  0  0  0  0  0  0  0  0  0  0  0
   -0.0020   -2.0424    0.3164 C   0  0  0  0  0  0  0  0  0  0  0  0
   -3.6409    0.1565    0.0759 C   0  0  0  0  0  0  0  0  0  0  0  0
    3.6421    0.1488    0.0753 C   0  0  0  0  0  0  0  0  0  0  0  0
   -3.6006    1.5366   -0.0750 C   0  0  0  0  0  0  0  0  0  0  0  0
    3.6045    1.5290   -0.0756 C   0  0  0  0  0  0  0  0  0  0  0  0
   -0.0081   -4.1008   -0.8698 C   0  0  0  0  0  0  0  0  0  0  0  0
  1 13  1  0
  1 18  1  0
  2 13  2  0
  3  7  2  0
  3  8  1  0
  4  6  2  0
  4  7  1  0
  4  9  1  0
  5  6  1  0
  5  8  2  0
  5 10  1  0
  6 13  1  0
  7 11  1  0
  8 12  1  0
  9 14  2  0
 10 15  2  0
 11 16  2  0
 12 17  2  0
 14 16  1  0
 15 17  1  0
M  END
>  <PUBCHEM_COMPOUND_CID>  (1) 
21211

>  <PUBCHEM_CONFORMER_RMSD>  (1) 
0.6

>  <PUBCHEM_CONFORMER_DIVERSEORDER>  (1) 
1

>  <PUBCHEM_MMFF94_PARTIAL_CHARGES>  (1) 
24
1 -0.43
10 -0.15
11 -0.15
12 -0.15
13 0.63
14 -0.15
15 -0.15
16 -0.15
17 -0.15
18 0.28
19 0.15
2 -0.57
20 0.15
21 0.15
22 0.15
23 0.15
24 0.15
25 0.15
26 0.15
3 -0.62
6 0.09
7 0.31
8 0.31
9 -0.15

>  <PUBCHEM_EFFECTIVE_ROTOR_COUNT>  (1) 
2

>  <PUBCHEM_PHARMACOPHORE_FEATURES>  (1) 
5
1 2 acceptor
1 3 acceptor
6 3 4 5 6 7 8 rings
6 4 7 9 11 14 16 rings
6 5 8 10 12 15 17 rings

>  <PUBCHEM_HEAVY_ATOM_COUNT>  (1) 
18

>  <PUBCHEM_ATOM_DEF_STEREO_COUNT>  (1) 
0

>  <PUBCHEM_ATOM_UDEF_STEREO_COUNT>  (1) 
0

>  <PUBCHEM_BOND_DEF_STEREO_COUNT>  (1) 
0

>  <PUBCHEM_BOND_UDEF_STEREO_COUNT>  (1) 
0

>  <PUBCHEM_ISOTOPIC_ATOM_COUNT>  (1) 
0

>  <PUBCHEM_COMPONENT_COUNT>  (1) 
1

>  <PUBCHEM_CACTVS_TAUTO_COUNT>  (1) 
1

>  <PUBCHEM_CONFORMER_ID>  (1) 
000052DB00000001

>  <PUBCHEM_MMFF94_ENERGY>  (1) 
64.8964

>  <PUBCHEM_FEATURE_SELFOVERLAP>  (1) 
25.433

>  <PUBCHEM_SHAPE_FINGERPRINT>  (1) 
10411042 1 17186159765560342143
10967382 1 18409448046605980496
116883 192 17765433536126036542
12035759 4 18127380480900147471
12553582 1 16968023818108822778
12592029 89 18261675874392626361
12715332 25 18342738546166707178
13140716 1 18337390448268129216
13380535 76 18335701603050504689
15042514 8 18193277618224186202
15196674 1 18408886234803295720
15309172 13 18411427219239154353
15906896 17 18191870239003539026
16087824 20 18050850215880448487
16945 1 18122624121972782776
18186145 218 18271816695953211608
193761 8 17617376186595163696
19591789 44 18411420622011144927
20028762 73 17986678284471146615
20510252 161 18343304785743895945
20645476 183 17532109343634509620
20645477 70 18265606577460602181
20905425 154 17691407412874128086
21501502 16 17976536436296935540
21524375 3 18408038519954147138
2334 1 18409449219121749617
23402539 116 18342166804320500068
23463225 33 18261952942807023104
23559900 14 18051685551603935080
238 59 17683763715391056325
257057 1 17260461994778368414
2748010 2 18408609162183770837
298252 57 18408322207044821914
3060560 45 18338792321340248156
3091708 16 9049699227651213483
335352 9 18048877385948223893
352729 6 18409737291246867625
43471831 8 18335699390836405243
54173680 148 17977666738096733762
6138700 20 18050855421148676758
69090 78 18339076098493412032
7364860 26 18124313796550851823
81228 2 17759791942090076617
8272917 22 18267868272852641437
9709674 26 18198065974678841940

>  <PUBCHEM_SHAPE_MULTIPOLES>  (1) 
353.71
5.34
3.76
0.78
0.01
4.09
-0.06
-3.6
-0.01
-0.01
0.74
0
0.47
0

>  <PUBCHEM_SHAPE_SELFOVERLAP>  (1) 
795.518

>  <PUBCHEM_SHAPE_VOLUME>  (1) 
187.4

>  <PUBCHEM_COORDINATE_TYPE>  (1) 
2
5
10

$$$$
