21217
     RDKit          3D

 17 18  0  0  1  0  0  0  0  0999 V2000
   -1.9864    0.0414    2.5847 O   0  0  0  0  0  0  0  0  0  0  0  0
    1.3435   -1.3348    0.3381 N   0  0  0  0  0  0  0  0  0  0  0  0
   -2.7878   -0.0702   -1.0567 N   0  0  0  0  0  0  0  0  0  0  0  0
   -0.4300   -0.0766    0.7837 C   0  0  0  0  0  0  0  0  0  0  0  0
   -1.7869    0.3406    1.1917 C   0  0  0  0  0  0  0  0  0  0  0  0
    0.6153    0.7739    0.3268 C   0  0  0  0  0  0  0  0  0  0  0  0
    1.7166   -0.0404    0.0540 C   0  0  0  0  0  0  0  0  0  0  0  0
    0.0480   -1.3668    0.7796 C   0  0  0  0  0  0  0  0  0  0  0  0
   -2.8993   -0.3554    0.3720 C   0  0  0  0  0  0  0  0  0  0  0  0
    2.1855   -2.5032    0.1946 C   0  0  0  0  0  0  0  0  0  0  0  0
    0.7306    2.1628    0.1185 C   0  0  0  0  0  0  0  0  0  0  0  0
    2.9323    0.4667   -0.4184 C   0  0  0  0  0  0  0  0  0  0  0  0
    1.9406    2.6841   -0.3539 C   0  0  0  0  0  0  0  0  0  0  0  0
    3.0232    1.8473   -0.6175 C   0  0  0  0  0  0  0  0  0  0  0  0
    2.0729   -3.1270   -1.1859 C   0  0  0  0  0  0  0  0  0  0  0  0
   -2.9144    1.3660   -1.3040 C   0  0  0  0  0  0  0  0  0  0  0  0
   -3.8034   -0.8085   -1.8074 C   0  0  0  0  0  0  0  0  0  0  0  0
  1  5  1  0
  2  7  1  0
  2  8  1  0
  2 10  1  0
  3  9  1  0
  3 16  1  0
  3 17  1  0
  4  5  1  0
  4  6  1  0
  4  8  2  0
  5  9  1  0
  6  7  2  0
  6 11  1  0
  7 12  1  0
 10 15  1  0
 11 13  2  0
 12 14  2  0
 13 14  1  0
M  END
>  <PUBCHEM_COMPOUND_CID>  (1) 
21217

>  <PUBCHEM_CONFORMER_RMSD>  (1) 
0.6

>  <PUBCHEM_CONFORMER_DIVERSEORDER>  (1) 
5
8
18
14
4
12
2
23
15
16
17
3
7
6
13
11
22
9
19
20
21
1
25
24
10

>  <PUBCHEM_MMFF94_PARTIAL_CHARGES>  (1) 
21
1 -0.68
10 0.26
11 -0.15
12 -0.15
13 -0.15
14 -0.15
16 0.27
17 0.27
19 0.15
2 0.05
24 0.15
25 0.15
26 0.15
27 0.15
3 -0.81
31 0.4
4 -0.18
5 0.46
7 -0.15
8 -0.3
9 0.27

>  <PUBCHEM_EFFECTIVE_ROTOR_COUNT>  (1) 
4

>  <PUBCHEM_PHARMACOPHORE_FEATURES>  (1) 
6
1 1 acceptor
1 1 donor
1 2 cation
1 3 cation
5 2 4 6 7 8 rings
6 6 7 11 12 13 14 rings

>  <PUBCHEM_HEAVY_ATOM_COUNT>  (1) 
17

>  <PUBCHEM_ATOM_DEF_STEREO_COUNT>  (1) 
0

>  <PUBCHEM_ATOM_UDEF_STEREO_COUNT>  (1) 
1

>  <PUBCHEM_BOND_DEF_STEREO_COUNT>  (1) 
0

>  <PUBCHEM_BOND_UDEF_STEREO_COUNT>  (1) 
0

>  <PUBCHEM_ISOTOPIC_ATOM_COUNT>  (1) 
0

>  <PUBCHEM_COMPONENT_COUNT>  (1) 
1

>  <PUBCHEM_CACTVS_TAUTO_COUNT>  (1) 
1

>  <PUBCHEM_CONFORMER_ID>  (1) 
000052E100000005

>  <PUBCHEM_MMFF94_ENERGY>  (1) 
30.5905

>  <PUBCHEM_FEATURE_SELFOVERLAP>  (1) 
30.537

>  <PUBCHEM_SHAPE_FINGERPRINT>  (1) 
10764073 3 16823547568880291256
116883 192 17836637531352155516
12553582 1 17906187160921766042
12730499 353 18187080698324066171
13294875 104 16735483323519981649
13464514 151 17895747387998920740
14115302 16 17559662955019160155
14181834 199 18260823774672583510
14614273 12 17040925828276133488
14817 1 15536227638498231801
16752209 62 16558752304675797941
16945 1 18337968847598286976
18186145 218 18267880547605455212
18219364 16 18117574026411650336
19049666 15 17603872160981616273
20671657 53 18122615063944907767
21421566 26 17193787137751560038
21524375 3 18046352104550505344
21639500 275 18337674221168017192
21947302 44 17895176818947329737
22112679 90 17560531598589470744
22802520 49 18040999497104960717
23114952 82 18187369779081158172
232386 152 16558458678625014859
2334 1 17834413576143668544
23493267 7 16950286238794806904
23526113 38 18041274357583927483
23557571 272 17096099098788561251
23598291 2 17915197718861317043
238 59 18262786488558367607
25 1 18333733554240436620
2748010 2 18047202856030826272
3060560 45 18265600168815424428
5262128 65 18265038155402035981
58734987 140 18266176132556506478
6049 1 17459211628123499027
621550 5 16812699860343323923
6338986 31 17978218370933000218
6992083 37 17556028986973448195
77492 1 17846508023370421321
81228 2 17471574322260201026

>  <PUBCHEM_SHAPE_MULTIPOLES>  (1) 
334.02
5.48
2.95
1.57
3.62
0.98
0.37
-0.17
-2.49
-3.32
-0.94
1.66
0.24
-0.03

>  <PUBCHEM_SHAPE_SELFOVERLAP>  (1) 
699.755

>  <PUBCHEM_SHAPE_VOLUME>  (1) 
191.9

>  <PUBCHEM_COORDINATE_TYPE>  (1) 
2
5
10

$$$$
