21234
     RDKit          3D

 19 21  0  0  0  0  0  0  0  0999 V2000
    0.1689    1.1173   -0.0017 N   0  0  0  0  0  0  0  0  0  0  0  0
   -4.6065    0.5963   -0.0028 N   0  0  0  0  0  0  0  0  0  0  0  0
    4.9080    1.8531   -0.0022 N   0  0  0  0  0  0  0  0  0  0  0  0
    1.6417   -0.7852    0.0008 C   0  0  0  0  0  0  0  0  0  0  0  0
   -0.7672   -1.0991    0.0001 C   0  0  0  0  0  0  0  0  0  0  0  0
   -0.9015    0.2997   -0.0013 C   0  0  0  0  0  0  0  0  0  0  0  0
    1.4132    0.6012   -0.0008 C   0  0  0  0  0  0  0  0  0  0  0  0
    0.5268   -1.6295    0.0012 C   0  0  0  0  0  0  0  0  0  0  0  0
   -3.3207    0.0170   -0.0018 C   0  0  0  0  0  0  0  0  0  0  0  0
   -2.1873    0.8338   -0.0022 C   0  0  0  0  0  0  0  0  0  0  0  0
    2.9534   -1.2909    0.0017 C   0  0  0  0  0  0  0  0  0  0  0  0
    4.0420   -0.4240    0.0011 C   0  0  0  0  0  0  0  0  0  0  0  0
   -1.9055   -1.9239    0.0005 C   0  0  0  0  0  0  0  0  0  0  0  0
    2.5191    1.4470   -0.0013 C   0  0  0  0  0  0  0  0  0  0  0  0
    3.8239    0.9478   -0.0004 C   0  0  0  0  0  0  0  0  0  0  0  0
   -3.1799   -1.3648   -0.0004 C   0  0  0  0  0  0  0  0  0  0  0  0
    5.4233   -0.9915    0.0024 C   0  0  0  0  0  0  0  0  0  0  0  0
   -5.7892   -0.2416   -0.0025 C   0  0  0  0  0  0  0  0  0  0  0  0
   -4.7622    2.0374    0.0098 C   0  0  0  0  0  0  0  0  0  0  0  0
  1  6  2  0
  1  7  1  0
  2  9  1  0
  2 18  1  0
  2 19  1  0
  3 15  1  0
  4  7  2  0
  4  8  1  0
  4 11  1  0
  5  6  1  0
  5  8  2  0
  5 13  1  0
  6 10  1  0
  7 14  1  0
  9 10  2  0
  9 16  1  0
 11 12  2  0
 12 15  1  0
 12 17  1  0
 13 16  2  0
 14 15  2  0
M  END
>  <PUBCHEM_COMPOUND_CID>  (1) 
21234

>  <PUBCHEM_CONFORMER_RMSD>  (1) 
0.6

>  <PUBCHEM_CONFORMER_DIVERSEORDER>  (1) 
1

>  <PUBCHEM_MMFF94_PARTIAL_CHARGES>  (1) 
25
1 -0.62
10 -0.15
11 -0.15
12 -0.14
13 -0.15
14 -0.15
15 0.1
16 -0.15
17 0.14
18 0.37
19 0.37
2 -0.84
20 0.15
21 0.15
22 0.15
23 0.15
24 0.15
25 0.15
3 -0.9
35 0.4
36 0.4
6 0.31
7 0.31
8 -0.15
9 0.1

>  <PUBCHEM_EFFECTIVE_ROTOR_COUNT>  (1) 
1

>  <PUBCHEM_PHARMACOPHORE_FEATURES>  (1) 
7
1 1 acceptor
1 2 cation
1 3 cation
1 3 donor
6 1 4 5 6 7 8 rings
6 4 7 11 12 14 15 rings
6 5 6 9 10 13 16 rings

>  <PUBCHEM_HEAVY_ATOM_COUNT>  (1) 
19

>  <PUBCHEM_ATOM_DEF_STEREO_COUNT>  (1) 
0

>  <PUBCHEM_ATOM_UDEF_STEREO_COUNT>  (1) 
0

>  <PUBCHEM_BOND_DEF_STEREO_COUNT>  (1) 
0

>  <PUBCHEM_BOND_UDEF_STEREO_COUNT>  (1) 
0

>  <PUBCHEM_ISOTOPIC_ATOM_COUNT>  (1) 
0

>  <PUBCHEM_COMPONENT_COUNT>  (1) 
1

>  <PUBCHEM_CACTVS_TAUTO_COUNT>  (1) 
3

>  <PUBCHEM_CONFORMER_ID>  (1) 
000052F200000001

>  <PUBCHEM_MMFF94_ENERGY>  (1) 
84.1503

>  <PUBCHEM_FEATURE_SELFOVERLAP>  (1) 
35.581

>  <PUBCHEM_SHAPE_FINGERPRINT>  (1) 
10411042 1 17185595711795590119
10608611 8 18411134770536502200
11471102 20 18412262844018368126
11578080 2 16986577913170490851
12107183 9 17762619482201141353
12236239 1 18060419114608737237
12403259 415 18187920660081895844
12644460 14 17968938578493223458
13675066 3 18114187453425546379
13862211 1 18410569570036223915
14251764 18 18334008411321189394
14790565 3 18410860932085906121
15042514 8 18264775548824077859
15099037 51 18411982438093115743
15196674 1 18410575119281462022
15375358 24 18342460335112102943
15536298 74 18341332271116463558
17834072 33 18273493494272048887
1813 80 16732984227984187228
18186145 218 17894622678145983790
200 152 17917990577169494635
20645477 70 18343586209486635750
21065198 57 18337954592443614802
21267235 1 18410864243357757906
21279426 13 18195810665291164183
21304253 335 18334582338530888532
21421861 104 17751067029972686186
21452121 103 18272077353888018888
23402539 116 18201431463601567005
23402655 69 18343018904209178532
23559900 14 18342737434234316824
3004659 81 18335704923603491438
335352 9 18410573955603892014
34797466 226 17274548731663855564
34934 24 18411695526004260842
350125 39 18336828602796314988
3545911 37 18411421721501381335
4073 2 18041002903483486322
4214541 1 18410855447734039201
4340502 62 16877947122751449075
474 4 17822295742313781676
495365 180 17346024667339851744
4990 188 18060143123841098758
5104073 3 18409166644912616682
542803 24 17346884446693742041
59755656 215 18339647724755980070
633830 44 17967249836418578418
69090 78 18413105065535617599
77779 3 18410013264476096930
9709674 26 18339930406259817470
9981440 41 17325771881862979144

>  <PUBCHEM_SHAPE_MULTIPOLES>  (1) 
376.07
11.65
1.97
0.6
2.24
0.15
0
2.61
0
0.03
0
0
-0.02
-0.01

>  <PUBCHEM_SHAPE_SELFOVERLAP>  (1) 
833.681

>  <PUBCHEM_SHAPE_VOLUME>  (1) 
202.9

>  <PUBCHEM_COORDINATE_TYPE>  (1) 
2
5
10

$$$$
