21233
     RDKit          3D

 48 54  0  0  1  0  0  0  0  0999 V2000
   -2.1663   -0.6318   -1.1234 O   0  0  0  0  0  0  0  0  0  0  0  0
    2.4971    2.4655   -0.9128 O   0  0  0  0  0  0  0  0  0  0  0  0
   -4.0029   -2.5944   -1.5423 O   0  0  0  0  0  0  0  0  0  0  0  0
   -6.4263   -2.5311   -0.2436 O   0  0  0  0  0  0  0  0  0  0  0  0
    3.3333    3.1922    1.5908 O   0  0  0  0  0  0  0  0  0  0  0  0
    2.1175    1.9081   -3.6127 O   0  0  0  0  0  0  0  0  0  0  0  0
   -2.7403    2.1157    2.3451 N   0  0  0  0  0  0  0  0  0  0  0  0
    5.2910   -2.8379    0.4558 N   0  0  0  0  0  0  0  0  0  0  0  0
   -2.4927    1.4521    0.9371 C   0  0  0  0  0  0  0  0  0  0  0  0
    3.9576   -2.2107   -0.1024 C   0  0  0  0  0  0  0  0  0  0  0  0
   -4.1863    2.5949    2.4165 C   0  0  0  0  0  0  0  0  0  0  0  0
    5.3364   -2.6844    1.9792 C   0  0  0  0  0  0  0  0  0  0  0  0
   -3.5432    0.3895    0.5979 C   0  0  0  0  0  0  0  0  0  0  0  0
   -5.1610    1.4337    2.2810 C   0  0  0  0  0  0  0  0  0  0  0  0
    3.7860   -0.7697    0.3559 C   0  0  0  0  0  0  0  0  0  0  0  0
   -2.4057    2.5044   -0.2067 C   0  0  0  0  0  0  0  0  0  0  0  0
   -4.8057    0.4158    1.2272 C   0  0  0  0  0  0  0  0  0  0  0  0
    5.1854   -1.2332    2.4294 C   0  0  0  0  0  0  0  0  0  0  0  0
   -2.4334    1.0883    3.4572 C   0  0  0  0  0  0  0  0  0  0  0  0
   -1.8102    3.3014    2.6338 C   0  0  0  0  0  0  0  0  0  0  0  0
    2.7386   -3.1112    0.2709 C   0  0  0  0  0  0  0  0  0  0  0  0
    4.2951   -0.3491    1.5947 C   0  0  0  0  0  0  0  0  0  0  0  0
    5.4090   -4.3271    0.1076 C   0  0  0  0  0  0  0  0  0  0  0  0
    6.5048   -2.1518   -0.1961 C   0  0  0  0  0  0  0  0  0  0  0  0
   -3.2967   -0.6304   -0.3445 C   0  0  0  0  0  0  0  0  0  0  0  0
   -1.1865    2.3288   -1.0951 C   0  0  0  0  0  0  0  0  0  0  0  0
    3.1550    0.1697   -0.4821 C   0  0  0  0  0  0  0  0  0  0  0  0
   -5.7609   -0.5731    0.9295 C   0  0  0  0  0  0  0  0  0  0  0  0
    1.3788   -2.5650   -0.0942 C   0  0  0  0  0  0  0  0  0  0  0  0
    4.1013    0.9812    2.0044 C   0  0  0  0  0  0  0  0  0  0  0  0
   -4.2617   -1.5984   -0.6443 C   0  0  0  0  0  0  0  0  0  0  0  0
    2.9850    1.4929   -0.0682 C   0  0  0  0  0  0  0  0  0  0  0  0
   -5.4899   -1.5745    0.0022 C   0  0  0  0  0  0  0  0  0  0  0  0
    3.4516    1.8984    1.1787 C   0  0  0  0  0  0  0  0  0  0  0  0
    0.1118    2.4168   -0.5672 C   0  0  0  0  0  0  0  0  0  0  0  0
   -1.3394    2.1178   -2.4732 C   0  0  0  0  0  0  0  0  0  0  0  0
    1.0411   -2.3038   -1.4257 C   0  0  0  0  0  0  0  0  0  0  0  0
    0.4427   -2.2897    0.9128 C   0  0  0  0  0  0  0  0  0  0  0  0
   -1.0761   -1.3655   -0.7159 C   0  0  0  0  0  0  0  0  0  0  0  0
    1.2249    2.2728   -1.4000 C   0  0  0  0  0  0  0  0  0  0  0  0
   -0.1705   -1.6871   -1.7315 C   0  0  0  0  0  0  0  0  0  0  0  0
   -0.7848   -1.7034    0.6051 C   0  0  0  0  0  0  0  0  0  0  0  0
   -0.2226    1.9837   -3.3021 C   0  0  0  0  0  0  0  0  0  0  0  0
    1.0618    2.0705   -2.7690 C   0  0  0  0  0  0  0  0  0  0  0  0
   -4.3226   -2.3345   -2.9070 C   0  0  0  0  0  0  0  0  0  0  0  0
   -6.3926   -3.6972    0.5770 C   0  0  0  0  0  0  0  0  0  0  0  0
    4.4095    4.0744    1.2767 C   0  0  0  0  0  0  0  0  0  0  0  0
    2.6630    3.0863   -4.2063 C   0  0  0  0  0  0  0  0  0  0  0  0
  1 25  1  0
  1 39  1  0
  2 32  1  0
  2 40  1  0
  3 31  1  0
  3 45  1  0
  4 33  1  0
  4 46  1  0
  5 34  1  0
  5 47  1  0
  6 44  1  0
  6 48  1  0
  7  9  1  0
  7 11  1  0
  7 19  1  0
  7 20  1  0
  8 10  1  0
  8 12  1  0
  8 23  1  0
  8 24  1  0
  9 13  1  0
  9 16  1  0
 10 15  1  0
 10 21  1  0
 11 14  1  0
 12 18  1  0
 13 17  1  0
 13 25  2  0
 14 17  1  0
 15 22  2  0
 15 27  1  0
 16 26  1  0
 17 28  2  0
 18 22  1  0
 21 29  1  0
 22 30  1  0
 25 31  1  0
 26 35  1  0
 26 36  2  0
 27 32  2  0
 28 33  1  0
 29 37  2  0
 29 38  1  0
 30 34  2  0
 31 33  2  0
 32 34  1  0
 35 40  2  0
 36 43  1  0
 37 41  1  0
 38 42  2  0
 39 41  2  0
 39 42  1  0
 40 44  1  0
 43 44  2  0
M  CHG  2   7   1   8   1
M  END
>  <PUBCHEM_COMPOUND_CID>  (1) 
21233

>  <PUBCHEM_CONFORMER_RMSD>  (1) 
1

>  <PUBCHEM_CONFORMER_DIVERSEORDER>  (1) 
5
8
1
4
9
10
3
6
7
2

>  <PUBCHEM_MMFF94_PARTIAL_CHARGES>  (1) 
58
1 -0.17
10 0.65
11 0.5
12 0.5
13 -0.14
14 0.14
15 -0.14
16 0.14
17 -0.14
18 0.14
19 0.5
2 -0.17
20 0.5
21 0.14
22 -0.14
23 0.5
24 0.5
25 0.08
26 -0.14
27 -0.15
28 -0.15
29 -0.14
3 -0.36
30 -0.15
31 0.08
32 0.08
33 0.08
34 0.08
35 -0.15
36 -0.15
37 -0.15
38 -0.15
39 0.08
4 -0.36
40 0.08
41 -0.15
42 -0.15
43 -0.15
44 0.08
45 0.28
46 0.28
47 0.28
48 0.28
5 -0.36
6 -0.36
7 -1.01
75 0.15
76 0.15
77 0.15
78 0.15
79 0.15
8 -1.01
80 0.15
81 0.15
82 0.15
83 0.15
84 0.15
9 0.65

>  <PUBCHEM_EFFECTIVE_ROTOR_COUNT>  (1) 
6

>  <PUBCHEM_PHARMACOPHORE_FEATURES>  (1) 
14
1 1 acceptor
1 2 acceptor
1 3 acceptor
1 4 acceptor
1 5 acceptor
1 6 acceptor
1 7 cation
1 8 cation
6 13 17 25 28 31 33 rings
6 15 22 27 30 32 34 rings
6 26 35 36 40 43 44 rings
6 29 37 38 39 41 42 rings
6 7 9 11 13 14 17 rings
6 8 10 12 15 18 22 rings

>  <PUBCHEM_HEAVY_ATOM_COUNT>  (1) 
48

>  <PUBCHEM_ATOM_DEF_STEREO_COUNT>  (1) 
2

>  <PUBCHEM_ATOM_UDEF_STEREO_COUNT>  (1) 
0

>  <PUBCHEM_BOND_DEF_STEREO_COUNT>  (1) 
0

>  <PUBCHEM_BOND_UDEF_STEREO_COUNT>  (1) 
0

>  <PUBCHEM_ISOTOPIC_ATOM_COUNT>  (1) 
0

>  <PUBCHEM_COMPONENT_COUNT>  (1) 
1

>  <PUBCHEM_CACTVS_TAUTO_COUNT>  (1) 
1

>  <PUBCHEM_CONFORMER_ID>  (1) 
000052F100000005

>  <PUBCHEM_MMFF94_ENERGY>  (1) 
236.5574

>  <PUBCHEM_FEATURE_SELFOVERLAP>  (1) 
71.112

>  <PUBCHEM_SHAPE_FINGERPRINT>  (1) 
10010297 198 17969242146787687781
10928967 22 18041554716270302106
11135926 11 17315378039705558756
11991303 11 16591383451134181757
12156800 1 17415029896697960228
12422481 6 18339643334918971497
131258 38 18122333837970772874
13383668 362 18126028000373483875
14114206 34 15575559025077011180
144659 39 15913035478848037442
14747282 125 16486395724536519322
14950920 106 17988635272811512008
15297060 5 17902523910996909028
15324884 4 17751897195875652652
15361156 5 17677060022993094484
15406563 42 17552066716540432152
15406563 5 17917427588904233103
16112460 7 18342174462927612832
19315092 285 18343299292543495249
20764821 26 17895485708679101517
23559900 14 13767930148014949711
3493558 16 18341894142379531683
392239 28 18131071532775766635
4144715 1 17985277269838104907
469060 322 17968939669446642418

>  <PUBCHEM_SHAPE_MULTIPOLES>  (1) 
942.64
13.87
5.45
3.53
2.36
0.22
-1.79
11.44
6.8
-2.81
-0.5
0.25
-3.54
-3.43

>  <PUBCHEM_SHAPE_SELFOVERLAP>  (1) 
2050.002

>  <PUBCHEM_SHAPE_VOLUME>  (1) 
515.3

>  <PUBCHEM_COORDINATE_TYPE>  (1) 
2
5
10

$$$$
