21239
     RDKit          3D

 25 27  0  0  0  0  0  0  0  0999 V2000
    5.9921   -0.4202    0.9851 Cl  0  0  0  0  0  0  0  0  0  0  0  0
    1.8185    2.2266   -1.1631 S   0  0  0  0  0  0  0  0  0  0  0  0
   -1.3665   -2.8923   -1.4930 O   0  0  0  0  0  0  0  0  0  0  0  0
    0.8421    2.9042   -0.0419 O   0  0  0  0  0  0  0  0  0  0  0  0
    2.9313    3.1401   -1.3682 O   0  0  0  0  0  0  0  0  0  0  0  0
    0.9953    1.7926   -2.2794 O   0  0  0  0  0  0  0  0  0  0  0  0
    0.2677   -0.3011   -0.5038 N   0  0  0  0  0  0  0  0  0  0  0  0
   -0.3810   -1.0217    0.2872 N   0  0  0  0  0  0  0  0  0  0  0  0
   -2.6138   -0.0444    0.4805 C   0  0  0  0  0  0  0  0  0  0  0  0
   -3.9778   -0.0578    0.1034 C   0  0  0  0  0  0  0  0  0  0  0  0
    2.4462    0.7791   -0.4050 C   0  0  0  0  0  0  0  0  0  0  0  0
    1.6289   -0.3201   -0.1545 C   0  0  0  0  0  0  0  0  0  0  0  0
   -1.7420   -1.0023   -0.0623 C   0  0  0  0  0  0  0  0  0  0  0  0
    3.4979   -1.5032    0.8063 C   0  0  0  0  0  0  0  0  0  0  0  0
    2.1500   -1.4612    0.4499 C   0  0  0  0  0  0  0  0  0  0  0  0
    3.7941    0.7370   -0.0487 C   0  0  0  0  0  0  0  0  0  0  0  0
    4.3201   -0.4043    0.5569 C   0  0  0  0  0  0  0  0  0  0  0  0
   -2.2082   -1.9600   -0.9636 C   0  0  0  0  0  0  0  0  0  0  0  0
   -4.4298   -1.0287   -0.8054 C   0  0  0  0  0  0  0  0  0  0  0  0
   -2.1620    0.9267    1.3890 C   0  0  0  0  0  0  0  0  0  0  0  0
   -4.8499    0.9000    0.6459 C   0  0  0  0  0  0  0  0  0  0  0  0
   -3.5495   -1.9729   -1.3347 C   0  0  0  0  0  0  0  0  0  0  0  0
    4.0227   -2.7441    1.4534 C   0  0  0  0  0  0  0  0  0  0  0  0
   -3.0425    1.8706    1.9183 C   0  0  0  0  0  0  0  0  0  0  0  0
   -4.3840    1.8573    1.5475 C   0  0  0  0  0  0  0  0  0  0  0  0
  1 17  1  0
  2  4  1  0
  2  5  2  0
  2  6  2  0
  2 11  1  0
  3 18  1  0
  7  8  2  0
  7 12  1  0
  8 13  1  0
  9 10  2  0
  9 13  1  0
  9 20  1  0
 10 19  1  0
 10 21  1  0
 11 12  2  0
 11 16  1  0
 12 15  1  0
 13 18  2  0
 14 15  2  0
 14 17  1  0
 14 23  1  0
 16 17  2  0
 18 22  1  0
 19 22  2  0
 20 24  2  0
 21 25  2  0
 24 25  1  0
M  END
>  <PUBCHEM_COMPOUND_CID>  (1) 
21239

>  <PUBCHEM_CONFORMER_RMSD>  (1) 
0.6

>  <PUBCHEM_CONFORMER_DIVERSEORDER>  (1) 
1
2
13
8
14
15
10
6
16
12
11
3
4
5
7
9

>  <PUBCHEM_MMFF94_PARTIAL_CHARGES>  (1) 
33
1 -0.18
11 -0.01
12 0.18
13 0.18
14 -0.14
15 -0.15
16 -0.15
17 0.18
18 0.08
19 -0.15
2 1.49
20 -0.15
21 -0.15
22 -0.15
23 0.14
24 -0.15
25 -0.15
26 0.15
27 0.15
28 0.15
29 0.15
3 -0.53
30 0.15
31 0.15
35 0.15
36 0.15
37 0.45
38 0.5
4 -0.68
5 -0.65
6 -0.65
7 -0.18
8 -0.18

>  <PUBCHEM_EFFECTIVE_ROTOR_COUNT>  (1) 
3

>  <PUBCHEM_PHARMACOPHORE_FEATURES>  (1) 
8
1 3 donor
1 4 acceptor
1 5 acceptor
1 6 acceptor
4 2 4 5 6 anion
6 11 12 14 15 16 17 rings
6 9 10 13 18 19 22 rings
6 9 10 20 21 24 25 rings

>  <PUBCHEM_HEAVY_ATOM_COUNT>  (1) 
25

>  <PUBCHEM_ATOM_DEF_STEREO_COUNT>  (1) 
0

>  <PUBCHEM_ATOM_UDEF_STEREO_COUNT>  (1) 
0

>  <PUBCHEM_BOND_DEF_STEREO_COUNT>  (1) 
0

>  <PUBCHEM_BOND_UDEF_STEREO_COUNT>  (1) 
0

>  <PUBCHEM_ISOTOPIC_ATOM_COUNT>  (1) 
0

>  <PUBCHEM_COMPONENT_COUNT>  (1) 
1

>  <PUBCHEM_CACTVS_TAUTO_COUNT>  (1) 
3

>  <PUBCHEM_CONFORMER_ID>  (1) 
000052F700000001

>  <PUBCHEM_MMFF94_ENERGY>  (1) 
66.5952

>  <PUBCHEM_FEATURE_SELFOVERLAP>  (1) 
40.678

>  <PUBCHEM_SHAPE_FINGERPRINT>  (1) 
10062212 137 18342739633009607075
10366900 7 15357683215499899119
10906281 52 18187093888490379146
11049842 53 17772781340500889798
11578080 2 18123998382653631608
11640471 11 18266756825130831357
12107183 9 17768249007743230202
12166972 35 18337940286318865901
12236239 1 18413103957518548882
12422481 6 17905329528744893129
12553582 1 18041838407692944530
12633257 1 18260268559712461238
12788726 201 17985553492507240311
13009979 54 18343024380319010818
13583140 156 18040159513561273251
13965767 371 17694237577152467681
14117953 113 18125726673757536269
14251764 3 15339114632764384790
14294032 229 17774448179703716353
14739800 52 17843675815015723584
14790565 3 17825684506466806756
15475509 8 18267887025048777150
16992727 255 17986933208603118341
17349148 13 18130783473482497423
17492 89 18342462577217582511
17818456 19 18202285753728601978
17980427 23 18131063835735760644
1813 80 18042133063765797310
192875 21 18342172323427185269
20511986 3 18340756109337595144
20642791 268 18412541020835177104
20715895 44 18124316004908509641
20739085 24 18262523581121240754
21033650 10 16988024733255080329
21133410 90 18129639960448628221
2132832 1 18127675218487694445
23175994 123 16733270062384338359
23402539 116 17917983975936675127
23557571 272 16773806900116566609
23559900 14 17274551918861840334
23598288 3 18128261284145624159
24771293 8 18338510967884027744
25147074 1 18339647840197415613
312423 11 18338244867866454143
341906 21 17632856412802813218
345986 75 17971177154566711296
38570 142 17900576585255857980
474 4 18115306820792587808
513202 73 17682958795818480378
57724786 102 17168155558628478701
5895379 119 17845392019037145032
67856867 119 18340762762136363568
6992083 37 18339642235254564139
7064713 232 17986956254257989433
7097593 13 18408604751384252602
7471813 234 17985811855779010908
7615 1 18340488962455777029
9849439 229 17199691575422700833
9981440 41 17399790991743828320

>  <PUBCHEM_SHAPE_MULTIPOLES>  (1) 
486.77
11.01
3.13
1.65
3.03
0.6
-0.14
-1.01
3.85
0.53
-0.87
-0.4
0.5
-3.88

>  <PUBCHEM_SHAPE_SELFOVERLAP>  (1) 
1052.028

>  <PUBCHEM_SHAPE_VOLUME>  (1) 
269.1

>  <PUBCHEM_COORDINATE_TYPE>  (1) 
2
5
10

$$$$
