21240
     RDKit          3D

 11 11  0  0  0  0  0  0  0  0999 V2000
    2.7725   -0.0458   -0.0280 C   0  0  0  0  0  0  0  0  0  0  0  0
    1.7446   -0.0104    1.1198 C   0  0  0  0  0  0  0  0  0  0  0  0
    0.3092   -0.0029    0.6535 C   0  0  0  0  0  0  0  0  0  0  0  0
    2.5544   -1.2426   -0.9572 C   0  0  0  0  0  0  0  0  0  0  0  0
    2.6941    1.2532   -0.8341 C   0  0  0  0  0  0  0  0  0  0  0  0
   -0.3519   -1.2069    0.4679 C   0  0  0  0  0  0  0  0  0  0  0  0
   -0.3226    1.2084    0.4192 C   0  0  0  0  0  0  0  0  0  0  0  0
   -2.3271    0.0116   -0.2031 C   0  0  0  0  0  0  0  0  0  0  0  0
   -1.6785   -1.1996    0.0367 C   0  0  0  0  0  0  0  0  0  0  0  0
   -1.6491    1.2157   -0.0119 C   0  0  0  0  0  0  0  0  0  0  0  0
   -3.7456    0.0194   -0.6630 C   0  0  0  0  0  0  0  0  0  0  0  0
  1  2  1  0
  1  4  1  0
  1  5  1  0
  2  3  1  0
  3  6  2  0
  3  7  1  0
  6  9  1  0
  7 10  2  0
  8  9  2  0
  8 10  1  0
  8 11  1  0
M  END
>  <PUBCHEM_COMPOUND_CID>  (1) 
21240

>  <PUBCHEM_CONFORMER_RMSD>  (1) 
0.4

>  <PUBCHEM_CONFORMER_DIVERSEORDER>  (1) 
1

>  <PUBCHEM_MMFF94_PARTIAL_CHARGES>  (1) 
12
10 -0.15
11 0.14
2 0.14
21 0.15
22 0.15
23 0.15
24 0.15
3 -0.14
6 -0.15
7 -0.15
8 -0.14
9 -0.15

>  <PUBCHEM_EFFECTIVE_ROTOR_COUNT>  (1) 
2

>  <PUBCHEM_PHARMACOPHORE_FEATURES>  (1) 
2
3 1 4 5 hydrophobe
6 3 6 7 8 9 10 rings

>  <PUBCHEM_HEAVY_ATOM_COUNT>  (1) 
11

>  <PUBCHEM_ATOM_DEF_STEREO_COUNT>  (1) 
0

>  <PUBCHEM_ATOM_UDEF_STEREO_COUNT>  (1) 
0

>  <PUBCHEM_BOND_DEF_STEREO_COUNT>  (1) 
0

>  <PUBCHEM_BOND_UDEF_STEREO_COUNT>  (1) 
0

>  <PUBCHEM_ISOTOPIC_ATOM_COUNT>  (1) 
0

>  <PUBCHEM_COMPONENT_COUNT>  (1) 
1

>  <PUBCHEM_CACTVS_TAUTO_COUNT>  (1) 
1

>  <PUBCHEM_CONFORMER_ID>  (1) 
000052F800000001

>  <PUBCHEM_MMFF94_ENERGY>  (1) 
24.3984

>  <PUBCHEM_FEATURE_SELFOVERLAP>  (1) 
10.148

>  <PUBCHEM_SHAPE_FINGERPRINT>  (1) 
11206711 2 18337095779689734445
11769659 78 15913030050341561511
12032990 46 18413108385846037203
12716758 59 18412544279960701539
12897270 3 18341058509658391020
12932764 1 17094959935505581289
15775835 57 17095522911450365644
16945 1 18260828163891588315
18186145 218 18113336388497047925
20201158 50 18202284697435867310
20279233 1 17917986209061251658
20645476 183 17822008722334078715
20653085 51 18114192894969905217
21028194 46 16950281793165629554
21293036 1 18335416893984428149
22802520 49 18340502087844431890
23402539 116 18338502102131875988
23552423 10 18336828580725373138
23559900 14 18341327864849211872
2748010 2 17978215381877913761
3248919 1 18412826884619189178
369184 2 8862941645586530609
5084963 1 18341894026562561552
8030462 33 17846509127250836760

>  <PUBCHEM_SHAPE_MULTIPOLES>  (1) 
226.37
5.15
1.43
1
1.05
0.01
-0.01
0.08
1.75
-0.21
0.13
-0.42
-0.03
0.04

>  <PUBCHEM_SHAPE_SELFOVERLAP>  (1) 
456.284

>  <PUBCHEM_SHAPE_VOLUME>  (1) 
129.3

>  <PUBCHEM_COORDINATE_TYPE>  (1) 
2
5
10

$$$$
