21241
     RDKit          3D

  5  4  0  0  0  0  0  0  0  0999 V2000
   -2.7866   -0.2395   -0.1458 Br  0  0  0  0  0  0  0  0  0  0  0  0
    0.0229   -0.4351    0.2629 C   0  0  0  0  0  0  0  0  0  0  0  0
   -1.0326    0.6045   -0.0734 C   0  0  0  0  0  0  0  0  0  0  0  0
    1.3796    0.1955    0.3689 C   0  0  0  0  0  0  0  0  0  0  0  0
    2.4168   -0.1253   -0.4126 C   0  0  0  0  0  0  0  0  0  0  0  0
  1  3  1  0
  2  3  1  0
  2  4  1  0
  4  5  2  0
M  END
>  <PUBCHEM_COMPOUND_CID>  (1) 
21241

>  <PUBCHEM_CONFORMER_RMSD>  (1) 
0.4

>  <PUBCHEM_CONFORMER_DIVERSEORDER>  (1) 
1
8
6
9
2
5
4
7
3

>  <PUBCHEM_MMFF94_PARTIAL_CHARGES>  (1) 
8
1 -0.23
10 0.15
11 0.15
12 0.15
2 0.14
3 0.23
4 -0.29
5 -0.3

>  <PUBCHEM_EFFECTIVE_ROTOR_COUNT>  (1) 
2

>  <PUBCHEM_PHARMACOPHORE_FEATURES>  (1) 
2
1 1 hydrophobe
1 5 hydrophobe

>  <PUBCHEM_HEAVY_ATOM_COUNT>  (1) 
5

>  <PUBCHEM_ATOM_DEF_STEREO_COUNT>  (1) 
0

>  <PUBCHEM_ATOM_UDEF_STEREO_COUNT>  (1) 
0

>  <PUBCHEM_BOND_DEF_STEREO_COUNT>  (1) 
0

>  <PUBCHEM_BOND_UDEF_STEREO_COUNT>  (1) 
0

>  <PUBCHEM_ISOTOPIC_ATOM_COUNT>  (1) 
0

>  <PUBCHEM_COMPONENT_COUNT>  (1) 
1

>  <PUBCHEM_CACTVS_TAUTO_COUNT>  (1) 
1

>  <PUBCHEM_CONFORMER_ID>  (1) 
000052F900000001

>  <PUBCHEM_MMFF94_ENERGY>  (1) 
0.7606

>  <PUBCHEM_FEATURE_SELFOVERLAP>  (1) 
10.149

>  <PUBCHEM_SHAPE_FINGERPRINT>  (1) 
139733 1 12612751302637699289
14390081 3 14345793855263321335
16714656 1 18411136948285258023
20096714 4 16950290623940143468
29004967 10 16056880234302793218
5460574 1 9295289447481522873

>  <PUBCHEM_SHAPE_MULTIPOLES>  (1) 
108.84
4.18
0.77
0.72
0.94
0.01
0.01
-0.36
0.57
0.14
0
-0.04
-0.01
0.04

>  <PUBCHEM_SHAPE_SELFOVERLAP>  (1) 
173.721

>  <PUBCHEM_SHAPE_VOLUME>  (1) 
77.1

>  <PUBCHEM_COORDINATE_TYPE>  (1) 
2
5
10

$$$$
