21242
     RDKit          3D

  8  7  0  0  0  0  0  0  0  0999 V2000
   -0.0007    0.2257    0.3258 N   0  0  0  0  0  0  0  0  0  0  0  0
    0.0124   -1.1871    0.0696 N   0  0  0  0  0  0  0  0  0  0  0  0
   -1.2060    0.8036   -0.2673 C   0  0  0  0  0  0  0  0  0  0  0  0
    1.2019    0.8058   -0.2674 C   0  0  0  0  0  0  0  0  0  0  0  0
   -2.4052    0.1795    0.3710 C   0  0  0  0  0  0  0  0  0  0  0  0
    2.4027    0.1843    0.3703 C   0  0  0  0  0  0  0  0  0  0  0  0
   -3.3371   -0.5062   -0.3010 C   0  0  0  0  0  0  0  0  0  0  0  0
    3.3319   -0.5056   -0.3011 C   0  0  0  0  0  0  0  0  0  0  0  0
  1  2  1  0
  1  3  1  0
  1  4  1  0
  3  5  1  0
  4  6  1  0
  5  7  2  0
  6  8  2  0
M  END
>  <PUBCHEM_COMPOUND_CID>  (1) 
21242

>  <PUBCHEM_CONFORMER_RMSD>  (1) 
0.6

>  <PUBCHEM_CONFORMER_DIVERSEORDER>  (1) 
1
11
14
18
4
8
13
15
19
16
7
17
12
9
10
5
6
2
3

>  <PUBCHEM_MMFF94_PARTIAL_CHARGES>  (1) 
16
1 -0.54
13 0.15
14 0.15
15 0.36
16 0.36
17 0.15
18 0.15
19 0.15
2 -0.72
20 0.15
3 0.41
4 0.41
5 -0.29
6 -0.29
7 -0.3
8 -0.3

>  <PUBCHEM_EFFECTIVE_ROTOR_COUNT>  (1) 
4

>  <PUBCHEM_PHARMACOPHORE_FEATURES>  (1) 
3
1 2 donor
1 7 hydrophobe
1 8 hydrophobe

>  <PUBCHEM_HEAVY_ATOM_COUNT>  (1) 
8

>  <PUBCHEM_ATOM_DEF_STEREO_COUNT>  (1) 
0

>  <PUBCHEM_ATOM_UDEF_STEREO_COUNT>  (1) 
0

>  <PUBCHEM_BOND_DEF_STEREO_COUNT>  (1) 
0

>  <PUBCHEM_BOND_UDEF_STEREO_COUNT>  (1) 
0

>  <PUBCHEM_ISOTOPIC_ATOM_COUNT>  (1) 
0

>  <PUBCHEM_COMPONENT_COUNT>  (1) 
1

>  <PUBCHEM_CACTVS_TAUTO_COUNT>  (1) 
1

>  <PUBCHEM_CONFORMER_ID>  (1) 
000052FA00000001

>  <PUBCHEM_MMFF94_ENERGY>  (1) 
13.6151

>  <PUBCHEM_FEATURE_SELFOVERLAP>  (1) 
15.223

>  <PUBCHEM_SHAPE_FINGERPRINT>  (1) 
11062470 55 11746935386672218575
12932741 1 16298677186420626161
12932764 1 15791726438439054297
14325111 11 18411981364361782656
21293036 1 18113341920567873508
29004967 10 15410900673110456433
3248919 1 15574714668755183032
5084963 1 18411419513888418648
5460574 1 10159697992985122072

>  <PUBCHEM_SHAPE_MULTIPOLES>  (1) 
154.67
5.48
0.99
0.69
0.03
0.07
-0.01
1.05
-0.36
0
-0.05
0
-0.02
0

>  <PUBCHEM_SHAPE_SELFOVERLAP>  (1) 
278.951

>  <PUBCHEM_SHAPE_VOLUME>  (1) 
99.9

>  <PUBCHEM_COORDINATE_TYPE>  (1) 
2
5
10

$$$$
