21244
     RDKit          3D

  8  7  0  0  0  0  0  0  0  0999 V2000
   -2.0997    0.1652   -1.2871 O   0  0  0  0  0  0  0  0  0  0  0  0
    1.9112   -0.0410    0.3540 C   0  0  0  0  0  0  0  0  0  0  0  0
    2.6609    1.2580    0.0605 C   0  0  0  0  0  0  0  0  0  0  0  0
    2.6625   -1.2381   -0.2279 C   0  0  0  0  0  0  0  0  0  0  0  0
    0.5146    0.0233   -0.2135 C   0  0  0  0  0  0  0  0  0  0  0  0
   -0.5893   -0.0651    0.5410 C   0  0  0  0  0  0  0  0  0  0  0  0
   -1.9409    0.0040   -0.0792 C   0  0  0  0  0  0  0  0  0  0  0  0
   -3.1194   -0.1063    0.8523 C   0  0  0  0  0  0  0  0  0  0  0  0
  1  7  2  0
  2  3  1  0
  2  4  1  0
  2  5  1  0
  5  6  2  0
  6  7  1  0
  7  8  1  0
M  END
>  <PUBCHEM_COMPOUND_CID>  (1) 
21244

>  <PUBCHEM_CONFORMER_RMSD>  (1) 
0.4

>  <PUBCHEM_CONFORMER_DIVERSEORDER>  (1) 
1
5
2
4
3
6

>  <PUBCHEM_MMFF94_PARTIAL_CHARGES>  (1) 
8
1 -0.57
16 0.15
17 0.15
2 0.14
5 -0.29
6 -0.14
7 0.49
8 0.06

>  <PUBCHEM_EFFECTIVE_ROTOR_COUNT>  (1) 
2

>  <PUBCHEM_PHARMACOPHORE_FEATURES>  (1) 
2
1 1 acceptor
3 2 3 4 hydrophobe

>  <PUBCHEM_HEAVY_ATOM_COUNT>  (1) 
8

>  <PUBCHEM_ATOM_DEF_STEREO_COUNT>  (1) 
0

>  <PUBCHEM_ATOM_UDEF_STEREO_COUNT>  (1) 
0

>  <PUBCHEM_BOND_DEF_STEREO_COUNT>  (1) 
0

>  <PUBCHEM_BOND_UDEF_STEREO_COUNT>  (1) 
1

>  <PUBCHEM_ISOTOPIC_ATOM_COUNT>  (1) 
0

>  <PUBCHEM_COMPONENT_COUNT>  (1) 
1

>  <PUBCHEM_CACTVS_TAUTO_COUNT>  (1) 
5

>  <PUBCHEM_CONFORMER_ID>  (1) 
000052FC00000001

>  <PUBCHEM_MMFF94_ENERGY>  (1) 
6.9782

>  <PUBCHEM_FEATURE_SELFOVERLAP>  (1) 
10.148

>  <PUBCHEM_SHAPE_FINGERPRINT>  (1) 
10857977 72 16732984266702254169
12932741 1 17894908516455818462
12932764 1 17749387057266217659
14325111 11 18411984671665890315
14390081 3 17385713690843220909
15310529 11 18201721760251147377
19973954 147 18114179713799936428
20645464 45 17822004341466975600
23552423 10 17489595510759738510
29004967 10 18334576845372834752
3248919 1 18272925037859441090
5084963 1 17385451989811401986
5460574 1 15267345115036252987

>  <PUBCHEM_SHAPE_MULTIPOLES>  (1) 
158.77
5.15
1.01
0.92
0.97
0
0.14
-0.01
-0.36
-1.08
0.01
0.58
0.01
0.05

>  <PUBCHEM_SHAPE_SELFOVERLAP>  (1) 
290.223

>  <PUBCHEM_SHAPE_VOLUME>  (1) 
101.9

>  <PUBCHEM_COORDINATE_TYPE>  (1) 
2
5
10

$$$$
