21246
     RDKit          3D

 18 18  0  0  0  0  0  0  0  0999 V2000
   -1.2816   -3.7057   -0.0002 O   0  0  0  0  0  0  0  0  0  0  0  0
    0.9113   -3.8089    0.0004 O   0  0  0  0  0  0  0  0  0  0  0  0
    0.1078    2.4679    0.0002 N   0  0  0  0  0  0  0  0  0  0  0  0
   -0.1566   -3.1501    0.0002 N   0  0  0  0  0  0  0  0  0  0  0  0
   -2.4722    1.1966   -0.0019 C   0  0  0  0  0  0  0  0  0  0  0  0
    2.5567    0.9598    0.0018 C   0  0  0  0  0  0  0  0  0  0  0  0
   -1.1613    0.3928   -0.0011 C   0  0  0  0  0  0  0  0  0  0  0  0
    1.2151    0.3018    0.0002 C   0  0  0  0  0  0  0  0  0  0  0  0
    0.0412    1.0552   -0.0006 C   0  0  0  0  0  0  0  0  0  0  0  0
   -3.6751    0.2285   -0.0020 C   0  0  0  0  0  0  0  0  0  0  0  0
   -2.5360    2.0857   -1.2626 C   0  0  0  0  0  0  0  0  0  0  0  0
   -2.6357    2.1272    1.2213 C   0  0  0  0  0  0  0  0  0  0  0  0
    2.8469    1.8893   -1.2215 C   0  0  0  0  0  0  0  0  0  0  0  0
    2.7414    1.8588    1.2623 C   0  0  0  0  0  0  0  0  0  0  0  0
    3.7023   -0.0979    0.0037 C   0  0  0  0  0  0  0  0  0  0  0  0
   -1.2638   -0.9778   -0.0008 C   0  0  0  0  0  0  0  0  0  0  0  0
    1.1496   -1.0916    0.0005 C   0  0  0  0  0  0  0  0  0  0  0  0
   -0.0900   -1.7315    0.0000 C   0  0  0  0  0  0  0  0  0  0  0  0
  1  4  1  0
  2  4  2  0
  3  9  1  0
  4 18  1  0
  5  7  1  0
  5 10  1  0
  5 11  1  0
  5 12  1  0
  6  8  1  0
  6 13  1  0
  6 14  1  0
  6 15  1  0
  7  9  2  0
  7 16  1  0
  8  9  1  0
  8 17  2  0
 16 18  2  0
 17 18  1  0
M  CHG  2   1  -1   4   1
M  END
>  <PUBCHEM_COMPOUND_CID>  (1) 
21246

>  <PUBCHEM_CONFORMER_RMSD>  (1) 
0.6

>  <PUBCHEM_CONFORMER_DIVERSEORDER>  (1) 
1
2

>  <PUBCHEM_MMFF94_PARTIAL_CHARGES>  (1) 
16
1 -0.52
16 -0.15
17 -0.15
18 0.13
2 -0.52
3 -0.9
37 0.15
38 0.15
39 0.4
4 0.91
40 0.4
5 0.14
6 0.14
7 -0.14
8 -0.14
9 0.1

>  <PUBCHEM_EFFECTIVE_ROTOR_COUNT>  (1) 
3

>  <PUBCHEM_PHARMACOPHORE_FEATURES>  (1) 
8
1 1 acceptor
1 1 anion
1 2 acceptor
1 3 cation
1 3 donor
4 5 10 11 12 hydrophobe
4 6 13 14 15 hydrophobe
6 7 8 9 16 17 18 rings

>  <PUBCHEM_HEAVY_ATOM_COUNT>  (1) 
18

>  <PUBCHEM_ATOM_DEF_STEREO_COUNT>  (1) 
0

>  <PUBCHEM_ATOM_UDEF_STEREO_COUNT>  (1) 
0

>  <PUBCHEM_BOND_DEF_STEREO_COUNT>  (1) 
0

>  <PUBCHEM_BOND_UDEF_STEREO_COUNT>  (1) 
0

>  <PUBCHEM_ISOTOPIC_ATOM_COUNT>  (1) 
0

>  <PUBCHEM_COMPONENT_COUNT>  (1) 
1

>  <PUBCHEM_CACTVS_TAUTO_COUNT>  (1) 
1

>  <PUBCHEM_CONFORMER_ID>  (1) 
000052FE00000001

>  <PUBCHEM_MMFF94_ENERGY>  (1) 
107.6214

>  <PUBCHEM_FEATURE_SELFOVERLAP>  (1) 
40.676

>  <PUBCHEM_SHAPE_FINGERPRINT>  (1) 
1 1 18338794490282862676
10967382 1 18338797810303378638
11680986 33 17544471955645210280
116883 192 17692534824314306575
12173636 292 18410292553198812605
12500047 106 18339072796217663712
12553582 1 17400646420538336498
12730499 353 18264764373234563453
12788726 201 17757831504489545642
13140716 1 18339079285242952098
13538477 17 18117273872980754804
13583140 156 16661189447216552837
14022347 108 17541107892889024034
14178342 30 18340485548152475617
14817 1 11437308986542806608
15042514 8 18192150614410586763
15309172 13 18410020931140725369
16945 1 18050567649026508808
18186145 218 18341897350931084852
193761 8 17689998259689679429
19591789 44 18410862048629547587
20510252 161 18199186376542177697
20645476 183 18187657954460174956
20645477 70 18045774594953531509
21041028 32 17189264790090697609
21160774 45 18263638640456333837
21524375 3 18407760322016585739
23184049 29 17762330714570609888
2334 1 18410292531660139470
23419403 2 13278547305852177188
23493267 7 17458912517842824504
23557571 272 17766568224089873956
257057 1 17259050226222542010
2748010 2 18409456868468592151
3071541 236 18193541475186545714
3091708 16 9051105502912388731
350125 39 18410018731779443794
352729 6 18338517546470671599
43471831 8 18338234851807359267
458136 41 18194144961168179969
54173680 148 18122344841766409026
58807428 26 18339355258672596330
633830 44 18060140899075108052
7364860 26 17979633442244642315
81228 2 17977100493792646386
84936 182 18057032519684502937

>  <PUBCHEM_SHAPE_MULTIPOLES>  (1) 
348.73
5.11
3.95
0.96
0.26
4.8
0
-3.25
0
-0.2
0
0.02
-0.72
-0.02

>  <PUBCHEM_SHAPE_SELFOVERLAP>  (1) 
725.201

>  <PUBCHEM_SHAPE_VOLUME>  (1) 
202.7

>  <PUBCHEM_COORDINATE_TYPE>  (1) 
2
5
10

$$$$
