21258
     RDKit          3D

 10  9  0  0  0  0  0  0  0  0999 V2000
   -1.8130    0.4753   -0.0050 O   0  0  0  0  0  0  0  0  0  0  0  0
    3.1991    1.3201    0.0091 O   0  0  0  0  0  0  0  0  0  0  0  0
   -3.3239   -1.2723    0.0127 O   0  0  0  0  0  0  0  0  0  0  0  0
    0.5909    0.3107   -0.0222 C   0  0  0  0  0  0  0  0  0  0  0  0
    1.7830   -0.6395   -0.0324 C   0  0  0  0  0  0  0  0  0  0  0  0
   -0.7304   -0.4455   -0.0097 C   0  0  0  0  0  0  0  0  0  0  0  0
    3.1127    0.0932    0.0022 C   0  0  0  0  0  0  0  0  0  0  0  0
    4.3459   -0.7721    0.0285 C   0  0  0  0  0  0  0  0  0  0  0  0
   -3.0645   -0.0766    0.0063 C   0  0  0  0  0  0  0  0  0  0  0  0
   -4.0999    1.0069    0.0106 C   0  0  0  0  0  0  0  0  0  0  0  0
  1  6  1  0
  1  9  1  0
  2  7  2  0
  3  9  2  0
  4  5  1  0
  4  6  1  0
  5  7  1  0
  7  8  1  0
  9 10  1  0
M  END
>  <PUBCHEM_COMPOUND_CID>  (1) 
21258

>  <PUBCHEM_CONFORMER_RMSD>  (1) 
0.6

>  <PUBCHEM_CONFORMER_DIVERSEORDER>  (1) 
1
122
44
49
64
52
135
60
86
3
114
67
24
51
46
21
132
88
91
93
58
81
54
119
62
38
42
125
69
112
96
14
16
45
107
34
118
11
95
123
120
6
37
90
97
71
19
56
23
31
65
124
28
105
72
12
20
33
83
57
134
36
68
61
99
35
50
63
84
25
53
106
5
17
15
136
108
110
111
29
127
40
103
100
101
41
104
82
70
116
66
9
128
109
92
121
27
87
89
48
47
59
113
85
126
102
133
10
22
77
7
39
13
115
8
32
73
75
55
79
131
98
129
80
130
78
94
18
76
30
26
74
2
43
117
4

>  <PUBCHEM_MMFF94_PARTIAL_CHARGES>  (1) 
9
1 -0.43
10 0.06
2 -0.57
3 -0.57
5 0.06
6 0.28
7 0.45
8 0.06
9 0.66

>  <PUBCHEM_EFFECTIVE_ROTOR_COUNT>  (1) 
5

>  <PUBCHEM_PHARMACOPHORE_FEATURES>  (1) 
2
1 2 acceptor
1 3 acceptor

>  <PUBCHEM_HEAVY_ATOM_COUNT>  (1) 
10

>  <PUBCHEM_ATOM_DEF_STEREO_COUNT>  (1) 
0

>  <PUBCHEM_ATOM_UDEF_STEREO_COUNT>  (1) 
0

>  <PUBCHEM_BOND_DEF_STEREO_COUNT>  (1) 
0

>  <PUBCHEM_BOND_UDEF_STEREO_COUNT>  (1) 
0

>  <PUBCHEM_ISOTOPIC_ATOM_COUNT>  (1) 
0

>  <PUBCHEM_COMPONENT_COUNT>  (1) 
1

>  <PUBCHEM_CACTVS_TAUTO_COUNT>  (1) 
3

>  <PUBCHEM_CONFORMER_ID>  (1) 
0000530A00000001

>  <PUBCHEM_MMFF94_ENERGY>  (1) 
7.0777

>  <PUBCHEM_FEATURE_SELFOVERLAP>  (1) 
10.149

>  <PUBCHEM_SHAPE_FINGERPRINT>  (1) 
11062470 55 18408323276380843337
12932764 1 17313090952075967558
14325111 11 18410855481608292519
18186145 218 17967809448902601988
190213 19 17561084700314731130
20279233 1 17989212529569930743
20645477 56 18260830337688703389
20645477 70 17987519216964710255
20719005 15 18410575084974373731
22485316 2 18411415103167982666
23402539 116 18201992214273146468
23402655 69 18341895182077699204

>  <PUBCHEM_SHAPE_MULTIPOLES>  (1) 
188.19
8.95
1.12
0.59
0.07
0.05
0
0.28
-0.1
0.12
0
-0.02
-0.01
0

>  <PUBCHEM_SHAPE_SELFOVERLAP>  (1) 
347.719

>  <PUBCHEM_SHAPE_VOLUME>  (1) 
118.6

>  <PUBCHEM_COORDINATE_TYPE>  (1) 
2
5
10

$$$$
