21262
     RDKit          3D

 13 13  0  0  0  0  0  0  0  0999 V2000
    0.4777   -1.0841   -0.4491 O   0  0  0  0  0  0  0  0  0  0  0  0
   -4.6482    0.9310    0.3188 N   0  0  0  0  0  0  0  0  0  0  0  0
    4.0238   -0.0037    0.3243 C   0  0  0  0  0  0  0  0  0  0  0  0
    2.7905   -0.9038    0.1455 C   0  0  0  0  0  0  0  0  0  0  0  0
    1.5527   -0.1593   -0.3402 C   0  0  0  0  0  0  0  0  0  0  0  0
    4.3654    0.6792   -1.0021 C   0  0  0  0  0  0  0  0  0  0  0  0
    3.8216    1.0521    1.4119 C   0  0  0  0  0  0  0  0  0  0  0  0
   -0.7853   -0.5878   -0.2599 C   0  0  0  0  0  0  0  0  0  0  0  0
   -1.0627    0.7331   -0.5931 C   0  0  0  0  0  0  0  0  0  0  0  0
   -1.7765   -1.4101    0.2636 C   0  0  0  0  0  0  0  0  0  0  0  0
   -3.3482    0.4196    0.1244 C   0  0  0  0  0  0  0  0  0  0  0  0
   -2.3485    1.2386   -0.4002 C   0  0  0  0  0  0  0  0  0  0  0  0
   -3.0623   -0.9047    0.4563 C   0  0  0  0  0  0  0  0  0  0  0  0
  1  5  1  0
  1  8  1  0
  2 11  1  0
  3  4  1  0
  3  6  1  0
  3  7  1  0
  4  5  1  0
  8  9  2  0
  8 10  1  0
  9 12  1  0
 10 13  2  0
 11 12  2  0
 11 13  1  0
M  END
>  <PUBCHEM_COMPOUND_CID>  (1) 
21262

>  <PUBCHEM_CONFORMER_RMSD>  (1) 
0.6

>  <PUBCHEM_CONFORMER_DIVERSEORDER>  (1) 
1
13
8
6
14
7
3
9
5
11
4
12
10
2

>  <PUBCHEM_MMFF94_PARTIAL_CHARGES>  (1) 
15
1 -0.36
10 -0.15
11 0.1
12 -0.15
13 -0.15
2 -0.9
25 0.15
26 0.15
27 0.15
28 0.15
29 0.4
30 0.4
5 0.28
8 0.08
9 -0.15

>  <PUBCHEM_EFFECTIVE_ROTOR_COUNT>  (1) 
4

>  <PUBCHEM_PHARMACOPHORE_FEATURES>  (1) 
5
1 1 acceptor
1 2 cation
1 2 donor
3 3 6 7 hydrophobe
6 8 9 10 11 12 13 rings

>  <PUBCHEM_HEAVY_ATOM_COUNT>  (1) 
13

>  <PUBCHEM_ATOM_DEF_STEREO_COUNT>  (1) 
0

>  <PUBCHEM_ATOM_UDEF_STEREO_COUNT>  (1) 
0

>  <PUBCHEM_BOND_DEF_STEREO_COUNT>  (1) 
0

>  <PUBCHEM_BOND_UDEF_STEREO_COUNT>  (1) 
0

>  <PUBCHEM_ISOTOPIC_ATOM_COUNT>  (1) 
0

>  <PUBCHEM_COMPONENT_COUNT>  (1) 
1

>  <PUBCHEM_CACTVS_TAUTO_COUNT>  (1) 
1

>  <PUBCHEM_CONFORMER_ID>  (1) 
0000530E00000001

>  <PUBCHEM_MMFF94_ENERGY>  (1) 
44.5106

>  <PUBCHEM_FEATURE_SELFOVERLAP>  (1) 
25.371

>  <PUBCHEM_SHAPE_FINGERPRINT>  (1) 
11132069 177 18334295361943281079
11543360 7 15841259428411292837
12251169 10 18113339708285176204
12932764 1 18130782387077460422
13214271 11 18412544327659081007
13690532 89 10663817464423635463
13897977 58 18187091679969931860
14252887 29 13045940197106285012
14445660 50 18186805785382215502
14993402 34 14189570823862686355
17846911 113 18410572864423573165
18186145 218 17275106150173925698
19050596 39 17894909650770244330
20432913 95 13406793315819089896
20528008 55 18411134723391965319
20645477 56 18341898476412489207
20645477 70 16988288573475921190
20671657 53 10735875071341684290
21119208 17 13830130581169298008
212847 35 18341613694569456024
22485316 2 13623530168761729640
22854114 59 18272649060551476706
22926399 37 16845289453736168995
22959321 60 18342454884972437418
23402539 116 18335695053684450871
23557571 272 18271821166945569335
23559900 14 18336552625261776886
449060 50 18187649093784296630
474 4 16227469579954862380
5374978 207 17603585222843538372
7364860 26 18196370317074465142
90316 7 17458337498973130157
93112 12 11527940179869503538

>  <PUBCHEM_SHAPE_MULTIPOLES>  (1) 
256.68
9.22
1.35
0.95
3.52
0.07
-0.14
-2.63
-1.34
-0.54
-0.05
0.88
-0.21
0.3

>  <PUBCHEM_SHAPE_SELFOVERLAP>  (1) 
514.283

>  <PUBCHEM_SHAPE_VOLUME>  (1) 
153

>  <PUBCHEM_COORDINATE_TYPE>  (1) 
2
5
10

$$$$
