21267
     RDKit          3D

 25 28  0  0  1  0  0  0  0  0999 V2000
    0.3478   -0.4156   -1.7460 O   0  0  0  0  0  0  0  0  0  0  0  0
   -5.5760   -0.6084    0.1657 O   0  0  0  0  0  0  0  0  0  0  0  0
    1.4290    3.9500    0.4302 N   0  0  0  0  0  0  0  0  0  0  0  0
    0.8980   -1.0778    0.5373 C   0  0  0  0  0  0  0  0  0  0  0  0
    0.0914   -0.0805   -0.3711 C   0  0  0  0  0  0  0  0  0  0  0  0
    0.2689   -2.4805    0.4992 C   0  0  0  0  0  0  0  0  0  0  0  0
   -1.4283   -0.2383   -0.1977 C   0  0  0  0  0  0  0  0  0  0  0  0
   -1.1384   -2.4269    1.0839 C   0  0  0  0  0  0  0  0  0  0  0  0
   -1.9891   -1.3480    0.4664 C   0  0  0  0  0  0  0  0  0  0  0  0
    2.3938   -1.1197    0.2359 C   0  0  0  0  0  0  0  0  0  0  0  0
    0.5678    1.3545   -0.0856 C   0  0  0  0  0  0  0  0  0  0  0  0
   -2.2998    0.7070   -0.7770 C   0  0  0  0  0  0  0  0  0  0  0  0
   -3.3851   -1.4500    0.5945 C   0  0  0  0  0  0  0  0  0  0  0  0
    3.2373   -0.1681    0.7994 C   0  0  0  0  0  0  0  0  0  0  0  0
    2.9014   -2.1094   -0.5993 C   0  0  0  0  0  0  0  0  0  0  0  0
    0.3541    1.9123    1.1631 C   0  0  0  0  0  0  0  0  0  0  0  0
    1.2058    2.0755   -1.0802 C   0  0  0  0  0  0  0  0  0  0  0  0
   -3.6839    0.5859   -0.6541 C   0  0  0  0  0  0  0  0  0  0  0  0
   -4.2265   -0.4891    0.0385 C   0  0  0  0  0  0  0  0  0  0  0  0
    4.6043   -0.2064    0.5243 C   0  0  0  0  0  0  0  0  0  0  0  0
    4.2684   -2.1476   -0.8743 C   0  0  0  0  0  0  0  0  0  0  0  0
    0.8016    3.2073    1.3696 C   0  0  0  0  0  0  0  0  0  0  0  0
    1.6153    3.3632   -0.7734 C   0  0  0  0  0  0  0  0  0  0  0  0
    5.1198   -1.1960   -0.3125 C   0  0  0  0  0  0  0  0  0  0  0  0
   -6.3776    0.4067   -0.4369 C   0  0  0  0  0  0  0  0  0  0  0  0
  1  5  1  0
  2 19  1  0
  2 25  1  0
  3 22  2  0
  3 23  1  0
  4  5  1  0
  4  6  1  0
  4 10  1  0
  5  7  1  0
  5 11  1  0
  6  8  1  0
  7  9  2  0
  7 12  1  0
  8  9  1  0
  9 13  1  0
 10 14  2  0
 10 15  1  0
 11 16  2  0
 11 17  1  0
 12 18  2  0
 13 19  2  0
 14 20  1  0
 15 21  2  0
 16 22  1  0
 17 23  2  0
 18 19  1  0
 20 24  2  0
 21 24  1  0
M  END
>  <PUBCHEM_COMPOUND_CID>  (1) 
21267

>  <PUBCHEM_CONFORMER_RMSD>  (1) 
0.8

>  <PUBCHEM_CONFORMER_DIVERSEORDER>  (1) 
1
5
2
7
4
6
3

>  <PUBCHEM_MMFF94_PARTIAL_CHARGES>  (1) 
37
1 -0.68
10 -0.14
11 -0.14
12 -0.15
13 -0.15
14 -0.15
15 -0.15
16 -0.15
17 -0.15
18 -0.15
19 0.08
2 -0.36
20 -0.15
21 -0.15
22 0.16
23 0.16
24 -0.15
25 0.28
3 -0.62
31 0.15
32 0.15
33 0.4
34 0.15
35 0.15
36 0.15
37 0.15
38 0.15
39 0.15
4 0.14
40 0.15
41 0.15
42 0.15
43 0.15
5 0.57
7 -0.14
8 0.14
9 -0.14

>  <PUBCHEM_EFFECTIVE_ROTOR_COUNT>  (1) 
3.8

>  <PUBCHEM_PHARMACOPHORE_FEATURES>  (1) 
8
1 1 acceptor
1 1 donor
1 2 acceptor
1 3 acceptor
6 10 14 15 20 21 24 rings
6 3 11 16 17 22 23 rings
6 4 5 6 7 8 9 rings
6 7 9 12 13 18 19 rings

>  <PUBCHEM_HEAVY_ATOM_COUNT>  (1) 
25

>  <PUBCHEM_ATOM_DEF_STEREO_COUNT>  (1) 
0

>  <PUBCHEM_ATOM_UDEF_STEREO_COUNT>  (1) 
2

>  <PUBCHEM_BOND_DEF_STEREO_COUNT>  (1) 
0

>  <PUBCHEM_BOND_UDEF_STEREO_COUNT>  (1) 
0

>  <PUBCHEM_ISOTOPIC_ATOM_COUNT>  (1) 
0

>  <PUBCHEM_COMPONENT_COUNT>  (1) 
1

>  <PUBCHEM_CACTVS_TAUTO_COUNT>  (1) 
1

>  <PUBCHEM_CONFORMER_ID>  (1) 
0000531300000001

>  <PUBCHEM_MMFF94_ENERGY>  (1) 
91.9438

>  <PUBCHEM_FEATURE_SELFOVERLAP>  (1) 
40.618

>  <PUBCHEM_SHAPE_FINGERPRINT>  (1) 
1100329 8 18337107968274202963
11112241 14 16984888003276517080
11421498 54 13767917980071465405
11582403 64 15764978803923066704
11646440 116 18411708655671812547
12011746 2 18408322168184705751
12035758 1 18335408106333732576
12166972 35 17822016367887354478
12236239 1 15985100799701331955
12403259 415 17895182317275621917
12422481 6 17975667766582893408
12516196 113 18341611499292814302
12788726 201 18265614278320860402
13004483 165 18268422439255291314
13132413 78 18267303140570569485
13134695 92 18060132158837337521
13140716 1 18189335843711871835
13149001 5 18261393398704736162
13402501 40 18334852818406781290
13590594 115 18339653222324785505
13899415 154 18411429409872655852
14022347 108 18335138661935275930
140371 6 18341063946939372690
14170010 4 18413385449827778041
14347332 77 18050852109602414390
14787075 74 18335138700204807422
14849402 71 18338245959131493625
14866123 147 17403181395903718730
14955137 171 18273217495088633255
15131766 46 15839263850301054474
15230672 131 17616812572141396600
15238133 3 18271259222573820097
15849732 13 17775280560674871975
15927050 60 17765998681566992108
1601671 61 18261388901984565179
16945 1 17895473622588479846
17357779 13 18270108025003252652
17804303 29 18186523228353561515
17980427 23 17560814199206491113
1813 80 17987812821107854076
18393751 57 17986648507831784890
18785283 64 18190462859782729345
20510252 161 18264487274422948954
20600515 1 18338529555583950620
20642791 13 18200037214095924144
20642791 178 17754740752019691196
20642791 239 17533811370770988252
20832881 197 18335701607256002763
20905425 154 17687761840470509310
21029758 11 18411420587646027939
21033648 29 17631432511064589651
21041028 32 18343022168506188241
21285901 2 18129385895604242286
221357 26 18410851028317985509
23175994 123 18412830166016498587
23419403 2 18057861616050493424
23557571 272 18268154167456130038
23558518 356 17829880289265108875
23559900 14 18334573590220121461
283562 15 18121221983128993754
3004659 81 17822573786065797226
3178227 256 18334588915017160907
3298306 158 17978804724674972796
335352 9 18334294271227693223
3411729 13 18117834615490219920
350125 39 18333450941778017637
5104073 3 18262244451602577147
5895379 119 17130452128465566417
6443956 14 18412263952025199400
70251023 43 18270378578263440463
7364860 26 18267304411954579672
7399639 24 17987788602505320022
7471813 234 18060413617103670761
81228 2 18122922931906517898
9709674 26 18191025805673435051
9971528 1 18272366468788427531
9981440 41 17478034421014213897

>  <PUBCHEM_SHAPE_MULTIPOLES>  (1) 
497.77
9.55
3.66
1.15
8.51
3.55
0.03
-4.14
1.28
-2.7
-0.61
-0.28
0.27
0.91

>  <PUBCHEM_SHAPE_SELFOVERLAP>  (1) 
1098.885

>  <PUBCHEM_SHAPE_VOLUME>  (1) 
264

>  <PUBCHEM_COORDINATE_TYPE>  (1) 
2
5
10

$$$$
