21268
     RDKit          3D

 13 14  0  0  1  0  0  0  0  0999 V2000
    2.3669    1.4764    0.4111 O   0  0  0  0  0  0  0  0  0  0  0  0
    3.1705   -0.7756    0.1108 O   0  0  0  0  0  0  0  0  0  0  0  0
   -2.4982    1.4852   -1.0655 O   0  0  0  0  0  0  0  0  0  0  0  0
   -0.8549   -0.1101   -0.3415 C   0  0  0  0  0  0  0  0  0  0  0  0
    1.3652    0.6061    0.1086 C   0  0  0  0  0  0  0  0  0  0  0  0
    1.8242   -0.6798   -0.0630 C   0  0  0  0  0  0  0  0  0  0  0  0
   -2.3103    0.1808   -0.4962 C   0  0  0  0  0  0  0  0  0  0  0  0
    0.0290    0.9239   -0.0239 C   0  0  0  0  0  0  0  0  0  0  0  0
   -0.3859   -1.4240   -0.5168 C   0  0  0  0  0  0  0  0  0  0  0  0
    0.9724   -1.7189   -0.3767 C   0  0  0  0  0  0  0  0  0  0  0  0
    3.5076    0.5939    0.4114 C   0  0  0  0  0  0  0  0  0  0  0  0
   -3.0659    0.1177    0.8112 C   0  0  0  0  0  0  0  0  0  0  0  0
   -4.1209   -0.6755    1.0304 C   0  0  0  0  0  0  0  0  0  0  0  0
  1  5  1  0
  1 11  1  0
  2  6  1  0
  2 11  1  0
  3  7  1  0
  4  7  1  0
  4  8  2  0
  4  9  1  0
  5  6  2  0
  5  8  1  0
  6 10  1  0
  7 12  1  0
  9 10  2  0
 12 13  2  0
M  END
>  <PUBCHEM_COMPOUND_CID>  (1) 
21268

>  <PUBCHEM_CONFORMER_RMSD>  (1) 
0.6

>  <PUBCHEM_CONFORMER_DIVERSEORDER>  (1) 
1
4
5
2
3

>  <PUBCHEM_MMFF94_PARTIAL_CHARGES>  (1) 
20
1 -0.36
10 -0.15
11 0.56
12 -0.29
13 -0.3
15 0.15
16 0.15
17 0.15
2 -0.36
20 0.15
21 0.4
22 0.15
23 0.15
3 -0.68
4 -0.14
5 0.08
6 0.08
7 0.56
8 -0.15
9 -0.15

>  <PUBCHEM_EFFECTIVE_ROTOR_COUNT>  (1) 
2.6

>  <PUBCHEM_PHARMACOPHORE_FEATURES>  (1) 
7
1 1 acceptor
1 13 hydrophobe
1 2 acceptor
1 3 acceptor
1 3 donor
5 1 2 5 6 11 rings
6 4 5 6 8 9 10 rings

>  <PUBCHEM_HEAVY_ATOM_COUNT>  (1) 
13

>  <PUBCHEM_ATOM_DEF_STEREO_COUNT>  (1) 
0

>  <PUBCHEM_ATOM_UDEF_STEREO_COUNT>  (1) 
1

>  <PUBCHEM_BOND_DEF_STEREO_COUNT>  (1) 
0

>  <PUBCHEM_BOND_UDEF_STEREO_COUNT>  (1) 
0

>  <PUBCHEM_ISOTOPIC_ATOM_COUNT>  (1) 
0

>  <PUBCHEM_COMPONENT_COUNT>  (1) 
1

>  <PUBCHEM_CACTVS_TAUTO_COUNT>  (1) 
1

>  <PUBCHEM_CONFORMER_ID>  (1) 
0000531400000001

>  <PUBCHEM_MMFF94_ENERGY>  (1) 
28.3954

>  <PUBCHEM_FEATURE_SELFOVERLAP>  (1) 
35.675

>  <PUBCHEM_SHAPE_FINGERPRINT>  (1) 
10219947 1 18411139142855251625
10465860 228 17559414469274884707
10608611 8 18335977567510652925
10857977 72 17894353276327363639
11132069 177 18339643446762506299
11471102 20 18343299236740425589
11471102 22 18337402577471622107
12032990 46 18338241457704645126
12251169 10 18339369659903719699
12932764 1 18411695487017168079
13380535 21 18269843167260375998
13581323 91 17821729454891053530
14325111 11 18412539916263372700
14943859 89 15267349521978757659
15219456 202 18335983065163347445
15309172 13 18272089405017559815
15653759 3 17894912906118181737
15775835 57 18130790100358448665
16945 1 18272645706324579798
17844478 74 18261114067069407677
18175812 5 18186517687750499117
18186145 218 17918272073695018224
18380122 1 18334581222276851287
19026448 5 15339109135443609814
200 152 18131339826888216175
20279233 1 18187083932323631279
20645477 70 18199175205627854511
20715346 28 18334009467355623613
21501502 16 18126841831634211926
23402539 116 17822283613832396999
23402655 69 18126543649688790917
2748010 2 17838892638480497750
57812782 119 18113615690278270545
77492 1 16988837259563084557
81228 2 17693357246164079518

>  <PUBCHEM_SHAPE_MULTIPOLES>  (1) 
249.93
6.08
1.51
0.89
2.11
0.2
0
-0.52
1.92
-0.4
-0.21
0.65
-0.07
0.57

>  <PUBCHEM_SHAPE_SELFOVERLAP>  (1) 
536.842

>  <PUBCHEM_SHAPE_VOLUME>  (1) 
138.5

>  <PUBCHEM_COORDINATE_TYPE>  (1) 
2
5
10

$$$$
