21263
     RDKit          3D

  7  6  0  0  0  0  0  0  0  0999 V2000
    2.7090   -0.5001    0.2371 O   0  0  0  0  0  0  0  0  0  0  0  0
    1.4238    1.3575   -0.0312 O   0  0  0  0  0  0  0  0  0  0  0  0
    0.4279   -0.8706   -0.1831 C   0  0  0  0  0  0  0  0  0  0  0  0
   -0.8751   -0.1788   -0.4411 C   0  0  0  0  0  0  0  0  0  0  0  0
   -1.9593   -0.3173    0.3361 C   0  0  0  0  0  0  0  0  0  0  0  0
    1.5338    0.1411    0.0044 C   0  0  0  0  0  0  0  0  0  0  0  0
   -3.2601    0.3681    0.0778 C   0  0  0  0  0  0  0  0  0  0  0  0
  1  6  1  0
  2  6  2  0
  3  4  1  0
  3  6  1  0
  4  5  2  0
  5  7  1  0
M  END
>  <PUBCHEM_COMPOUND_CID>  (1) 
21263

>  <PUBCHEM_CONFORMER_RMSD>  (1) 
0.4

>  <PUBCHEM_CONFORMER_DIVERSEORDER>  (1) 
1
3
2

>  <PUBCHEM_MMFF94_PARTIAL_CHARGES>  (1) 
10
1 -0.65
10 0.15
11 0.15
15 0.5
2 -0.57
3 0.2
4 -0.29
5 -0.29
6 0.66
7 0.14

>  <PUBCHEM_EFFECTIVE_ROTOR_COUNT>  (1) 
2

>  <PUBCHEM_PHARMACOPHORE_FEATURES>  (1) 
4
1 1 acceptor
1 2 acceptor
1 7 hydrophobe
3 1 2 6 anion

>  <PUBCHEM_HEAVY_ATOM_COUNT>  (1) 
7

>  <PUBCHEM_ATOM_DEF_STEREO_COUNT>  (1) 
0

>  <PUBCHEM_ATOM_UDEF_STEREO_COUNT>  (1) 
0

>  <PUBCHEM_BOND_DEF_STEREO_COUNT>  (1) 
0

>  <PUBCHEM_BOND_UDEF_STEREO_COUNT>  (1) 
1

>  <PUBCHEM_ISOTOPIC_ATOM_COUNT>  (1) 
0

>  <PUBCHEM_COMPONENT_COUNT>  (1) 
1

>  <PUBCHEM_CACTVS_TAUTO_COUNT>  (1) 
1

>  <PUBCHEM_CONFORMER_ID>  (1) 
0000530F00000001

>  <PUBCHEM_MMFF94_ENERGY>  (1) 
0.9427

>  <PUBCHEM_FEATURE_SELFOVERLAP>  (1) 
20.354

>  <PUBCHEM_SHAPE_FINGERPRINT>  (1) 
12897270 3 10087639303677734267
14325111 11 18411982494217684887
14390081 3 18131350813024344457
20096714 4 18270400610754266502
21040471 1 18198341947364498862
29004967 10 18334576819766645730
5460574 1 10737285749139087791

>  <PUBCHEM_SHAPE_MULTIPOLES>  (1) 
132.32
4.36
0.98
0.65
1.69
0.18
0.01
0.43
-0.46
-0.33
0.02
0.09
-0.03
-0.02

>  <PUBCHEM_SHAPE_SELFOVERLAP>  (1) 
241.537

>  <PUBCHEM_SHAPE_VOLUME>  (1) 
84.3

>  <PUBCHEM_COORDINATE_TYPE>  (1) 
2
5
10

$$$$
