21278
     RDKit          3D

 16 17  0  0  0  0  0  0  0  0999 V2000
    6.3448   -0.0222    0.3479 Cl  0  0  0  0  0  0  0  0  0  0  0  0
   -6.3349   -0.0224   -0.3926 Cl  0  0  0  0  0  0  0  0  0  0  0  0
    0.4216    0.0209   -0.6222 C   0  0  0  0  0  0  0  0  0  0  0  0
   -0.4267    0.0213    0.6651 C   0  0  0  0  0  0  0  0  0  0  0  0
    1.8933    0.0103   -0.3801 C   0  0  0  0  0  0  0  0  0  0  0  0
   -1.9121    0.0103    0.3982 C   0  0  0  0  0  0  0  0  0  0  0  0
    2.5896    1.2131   -0.2630 C   0  0  0  0  0  0  0  0  0  0  0  0
   -2.5891    1.2132    0.2735 C   0  0  0  0  0  0  0  0  0  0  0  0
    2.5734   -1.2027   -0.2719 C   0  0  0  0  0  0  0  0  0  0  0  0
   -2.5732   -1.2026    0.2835 C   0  0  0  0  0  0  0  0  0  0  0  0
    3.9661    1.2031   -0.0379 C   0  0  0  0  0  0  0  0  0  0  0  0
   -3.9622    1.2032    0.0279 C   0  0  0  0  0  0  0  0  0  0  0  0
    3.9500   -1.2129   -0.0466 C   0  0  0  0  0  0  0  0  0  0  0  0
   -3.9463   -1.2128    0.0378 C   0  0  0  0  0  0  0  0  0  0  0  0
    4.6464   -0.0098    0.0704 C   0  0  0  0  0  0  0  0  0  0  0  0
   -4.6408   -0.0099   -0.0900 C   0  0  0  0  0  0  0  0  0  0  0  0
  1 15  1  0
  2 16  1  0
  3  4  1  0
  3  5  1  0
  4  6  1  0
  5  7  2  0
  5  9  1  0
  6  8  2  0
  6 10  1  0
  7 11  1  0
  8 12  1  0
  9 13  2  0
 10 14  2  0
 11 15  2  0
 12 16  2  0
 13 15  1  0
 14 16  1  0
M  END
>  <PUBCHEM_COMPOUND_CID>  (1) 
21278

>  <PUBCHEM_CONFORMER_RMSD>  (1) 
0.6

>  <PUBCHEM_CONFORMER_DIVERSEORDER>  (1) 
1
4
6
7
5
3
2

>  <PUBCHEM_MMFF94_PARTIAL_CHARGES>  (1) 
24
1 -0.18
10 -0.15
11 -0.15
12 -0.15
13 -0.15
14 -0.15
15 0.18
16 0.18
2 -0.18
21 0.15
22 0.15
23 0.15
24 0.15
25 0.15
26 0.15
27 0.15
28 0.15
3 0.14
4 0.14
5 -0.14
6 -0.14
7 -0.15
8 -0.15
9 -0.15

>  <PUBCHEM_EFFECTIVE_ROTOR_COUNT>  (1) 
3

>  <PUBCHEM_PHARMACOPHORE_FEATURES>  (1) 
2
6 5 7 9 11 13 15 rings
6 6 8 10 12 14 16 rings

>  <PUBCHEM_HEAVY_ATOM_COUNT>  (1) 
16

>  <PUBCHEM_ATOM_DEF_STEREO_COUNT>  (1) 
0

>  <PUBCHEM_ATOM_UDEF_STEREO_COUNT>  (1) 
0

>  <PUBCHEM_BOND_DEF_STEREO_COUNT>  (1) 
0

>  <PUBCHEM_BOND_UDEF_STEREO_COUNT>  (1) 
0

>  <PUBCHEM_ISOTOPIC_ATOM_COUNT>  (1) 
0

>  <PUBCHEM_COMPONENT_COUNT>  (1) 
1

>  <PUBCHEM_CACTVS_TAUTO_COUNT>  (1) 
1

>  <PUBCHEM_CONFORMER_ID>  (1) 
0000531E00000001

>  <PUBCHEM_MMFF94_ENERGY>  (1) 
37.1899

>  <PUBCHEM_FEATURE_SELFOVERLAP>  (1) 
10.149

>  <PUBCHEM_SHAPE_FINGERPRINT>  (1) 
10 15 18200863072678936624
10968037 39 18341894104352014295
11315181 36 18408889554812788345
11401426 45 18113618988618059387
12107183 9 17690280404686232458
12236239 1 17846779594421533526
12507557 5 18201720669398312128
12815109 37 18410573989446437926
128620 24 15841555162669012957
13167823 11 18410855460133819814
13533116 47 18341328894713578090
14123238 8 18411138030326814189
1420 363 12607404416504967357
14251764 18 18260266348120879744
17834072 33 18410857685311624396
17834076 25 18410573989451699694
19489759 90 18411135831525215329
200 152 18060136535661881737
20279233 1 18410020930839843458
20645477 56 18261111872652310261
20645477 70 18271247118875951830
21267235 1 18410865360027921987
22224240 67 18341323466845171610
23035841 295 12391513083192064420
23402539 116 18410569609160084031
23557571 272 18201162065772627785
23559900 14 18339639039783130441
26918003 58 18409449202031181114
29717793 49 18060144223732521724
300161 21 18409443691498404435
34797466 226 17703800253207315708
351380 180 18410573993746679977
3545911 37 18410576184180007452
4073 2 17968101966615147922
42 15 18334297565287871118
4214541 1 18410013221595086697
42788 4 18410575084663085413
5104073 3 18411422786663827667
542803 24 17240486913696684556
59755656 520 16515400790001380539
67856867 119 18264489653597844044
69090 78 18409449189257243715
7495541 125 17560516312985467467
77779 3 18410577283686347457
9709674 26 18411429409541028575
9971528 1 17676489458352327108

>  <PUBCHEM_SHAPE_MULTIPOLES>  (1) 
333.01
14.69
1.34
0.73
0.11
0
0
-0.12
-0.14
0
0
-0.02
0
0

>  <PUBCHEM_SHAPE_SELFOVERLAP>  (1) 
688.704

>  <PUBCHEM_SHAPE_VOLUME>  (1) 
183

>  <PUBCHEM_COORDINATE_TYPE>  (1) 
2
5
10

$$$$
