2128
     RDKit          3D

 28 29  0  0  1  0  0  0  0  0999 V2000
    0.0953   -2.5022    1.9150 Cl  0  0  0  0  0  0  0  0  0  0  0  0
    1.3584   -2.5622   -1.0640 Cl  0  0  0  0  0  0  0  0  0  0  0  0
    5.3550   -0.3645    0.7496 S   0  0  0  0  0  0  0  0  0  0  0  0
   -3.0647    3.5612   -0.6482 O   0  0  0  0  0  0  0  0  0  0  0  0
   -0.6354    1.8089   -0.8865 O   0  0  0  0  0  0  0  0  0  0  0  0
    6.7523   -0.2209    1.1135 O   0  0  0  0  0  0  0  0  0  0  0  0
    4.3835   -0.8241    1.7223 O   0  0  0  0  0  0  0  0  0  0  0  0
   -4.1487    0.4867    1.0646 N   0  0  0  0  0  0  0  0  0  0  0  0
    4.8340    1.0974    0.0027 N   0  0  0  0  0  0  0  0  0  0  0  0
   -3.9249    1.9447    0.8999 C   0  0  0  0  0  0  0  0  0  0  0  0
   -4.8960   -0.1200   -0.0975 C   0  0  0  0  0  0  0  0  0  0  0  0
   -2.8923    2.2200   -0.1879 C   0  0  0  0  0  0  0  0  0  0  0  0
   -4.5333   -1.5935   -0.2473 C   0  0  0  0  0  0  0  0  0  0  0  0
   -4.8108    0.1460    2.3769 C   0  0  0  0  0  0  0  0  0  0  0  0
   -1.4477    2.0265    0.2635 C   0  0  0  0  0  0  0  0  0  0  0  0
   -3.0561   -1.8364   -0.4352 C   0  0  0  0  0  0  0  0  0  0  0  0
   -2.2353   -2.0366    0.6747 C   0  0  0  0  0  0  0  0  0  0  0  0
   -2.5114   -1.8614   -1.7190 C   0  0  0  0  0  0  0  0  0  0  0  0
    0.7048    1.6335   -0.6684 C   0  0  0  0  0  0  0  0  0  0  0  0
   -0.8697   -2.2621    0.5008 C   0  0  0  0  0  0  0  0  0  0  0  0
   -1.1458   -2.0866   -1.8929 C   0  0  0  0  0  0  0  0  0  0  0  0
   -0.3250   -2.2871   -0.7830 C   0  0  0  0  0  0  0  0  0  0  0  0
    1.5640    1.4154   -1.7454 C   0  0  0  0  0  0  0  0  0  0  0  0
    1.2113    1.6738    0.6308 C   0  0  0  0  0  0  0  0  0  0  0  0
    3.4360    1.2780   -0.2243 C   0  0  0  0  0  0  0  0  0  0  0  0
    2.9297    1.2378   -1.5234 C   0  0  0  0  0  0  0  0  0  0  0  0
    2.5769    1.4958    0.8528 C   0  0  0  0  0  0  0  0  0  0  0  0
    5.2957   -1.4680   -0.6444 C   0  0  0  0  0  0  0  0  0  0  0  0
  1 20  1  0
  2 22  1  0
  3  6  2  0
  3  7  2  0
  3  9  1  0
  3 28  1  0
  4 12  1  0
  5 15  1  0
  5 19  1  0
  8 10  1  0
  8 11  1  0
  8 14  1  0
  9 25  1  0
 10 12  1  0
 11 13  1  0
 12 15  1  0
 13 16  1  0
 16 17  2  0
 16 18  1  0
 17 20  1  0
 18 21  2  0
 19 23  2  0
 19 24  1  0
 20 22  2  0
 21 22  1  0
 23 26  1  0
 24 27  2  0
 25 26  2  0
 25 27  1  0
M  CHG  1   8   1
M  END
>  <PUBCHEM_COMPOUND_CID>  (1) 
2128

>  <PUBCHEM_CONFORMER_RMSD>  (1) 
1.2

>  <PUBCHEM_CONFORMER_DIVERSEORDER>  (1) 
2
219
76
198
86
59
239
235
261
5
11
175
314
105
193
290
232
192
152
51
95
188
40
111
81
259
218
273
141
224
117
94
327
58
20
268
156
12
103
302
87
25
29
22
334
114
326
197
253
200
69
184
154
207
136
249
191
128
189
223
194
324
16
217
236
246
329
215
148
14
134
43
245
71
77
276
187
297
101
146
195
18
23
147
108
64
190
49
13
307
203
42
328
167
7
52
131
284
27
270
222
92
303
306
140
90
1
163
68
291
318
338
166
130
8
333
169
170
31
332
113
321
171
129
39
157
335
283
264
293
50
254
80
317
33
295
231
83
225
216
294
66
17
315
65
174
323
248
286
158
281
48
161
36
135
54
127
10
19
298
234
242
72
74
28
325
38
98
75
199
267
285
212
70
262
41
47
168
104
279
183
15
115
112
120
258
45
24
252
56
3
180
206
220
313
138
21
288
165
85
73
228
26
311
240
282
139
53
137
9
179
257
88
149
32
6
143
35
173
185
226
121
336
296
132
230
292
123
153
30
89
305
118
142
227
263
221
309
250
201
99
160
57
278
300
260
125
133
67
312
109
62
61
159
93
82
102
144
205
155
100
63
34
211
55
151
238
233
178
280
237
116
122
265
331
272
319
186
301
229
37
210
304
274
244
182
330
310
176
60
110
44
124
96
271
251
243
79
106
46
275
269
204
172
337
322
299
181
196
209
107
119
241
213
316
308
4
277
97
208
84
91
287
247
126
177
150
255
214
266
320
164
256
145
289
78
202
162

>  <PUBCHEM_MMFF94_PARTIAL_CHARGES>  (1) 
38
1 -0.18
10 0.5
11 0.5
12 0.28
13 0.14
14 0.5
15 0.28
16 -0.14
17 -0.15
18 -0.15
19 0.08
2 -0.18
20 0.18
21 -0.15
22 0.18
23 -0.15
24 -0.15
25 0.2
26 -0.15
27 -0.15
28 0.11
29 0.45
3 1.33
4 -0.68
42 0.4
43 0.15
44 0.15
45 0.15
46 0.15
47 0.15
48 0.15
49 0.15
5 -0.36
50 0.42
6 -0.65
7 -0.65
8 -0.96
9 -0.76

>  <PUBCHEM_EFFECTIVE_ROTOR_COUNT>  (1) 
10

>  <PUBCHEM_PHARMACOPHORE_FEATURES>  (1) 
10
1 4 acceptor
1 4 donor
1 5 acceptor
1 6 acceptor
1 7 acceptor
1 8 cation
1 8 donor
1 9 donor
6 16 17 18 20 21 22 rings
6 19 23 24 25 26 27 rings

>  <PUBCHEM_HEAVY_ATOM_COUNT>  (1) 
28

>  <PUBCHEM_ATOM_DEF_STEREO_COUNT>  (1) 
0

>  <PUBCHEM_ATOM_UDEF_STEREO_COUNT>  (1) 
1

>  <PUBCHEM_BOND_DEF_STEREO_COUNT>  (1) 
0

>  <PUBCHEM_BOND_UDEF_STEREO_COUNT>  (1) 
0

>  <PUBCHEM_ISOTOPIC_ATOM_COUNT>  (1) 
0

>  <PUBCHEM_COMPONENT_COUNT>  (1) 
1

>  <PUBCHEM_CACTVS_TAUTO_COUNT>  (1) 
1

>  <PUBCHEM_CONFORMER_ID>  (1) 
0000085000000002

>  <PUBCHEM_MMFF94_ENERGY>  (1) 
79.8938

>  <PUBCHEM_FEATURE_SELFOVERLAP>  (1) 
50.765

>  <PUBCHEM_SHAPE_FINGERPRINT>  (1) 
11828532 37 17415550185337667319
12156800 1 16839889743795421167
12422481 6 18339925900865185734
12522641 33 17973147449983526029
12633257 1 17988652933780557753
12788726 201 18339091504662805676
14251751 93 18410006607155527345
14251764 30 15357694214805669234
14466204 15 18202002148685560760
19319366 153 16674457516137800821
20905425 154 18341343210472032935
21796203 349 17974327392324163233
23559900 14 17345215401086332340
3052486 1 18188493467454506446
338550 245 18335708225958705644
508706 21 18410300172565416359
5265222 85 18339935895908257284
59755656 215 18339359665462094069
9862522 239 18341890771267592501

>  <PUBCHEM_SHAPE_MULTIPOLES>  (1) 
550.38
11.67
3.71
1.82
10.47
0.21
0.27
0.47
4.28
-2.24
-0.67
-0.26
-0.56
-0.87

>  <PUBCHEM_SHAPE_SELFOVERLAP>  (1) 
1102.676

>  <PUBCHEM_SHAPE_VOLUME>  (1) 
328.1

>  <PUBCHEM_COORDINATE_TYPE>  (1) 
2
5
10

$$$$
