21289
     RDKit          3D

 19 19  0  0  0  0  0  0  0  0999 V2000
    1.8551    0.8385    2.2970 S   0  0  0  0  0  0  0  0  0  0  0  0
    1.9709    0.1631    0.4710 P   0  0  0  0  0  0  0  0  0  0  0  0
    0.9739   -1.0517    0.0722 O   0  0  0  0  0  0  0  0  0  0  0  0
    1.6402    1.2378   -0.7071 O   0  0  0  0  0  0  0  0  0  0  0  0
    3.4128   -0.4045   -0.0248 O   0  0  0  0  0  0  0  0  0  0  0  0
   -2.9533    1.4425    0.4235 N   0  0  0  0  0  0  0  0  0  0  0  0
   -0.9701    0.2004    0.2504 N   0  0  0  0  0  0  0  0  0  0  0  0
   -3.1102   -0.8178   -0.1865 N   0  0  0  0  0  0  0  0  0  0  0  0
   -0.3905   -0.9884   -0.0182 C   0  0  0  0  0  0  0  0  0  0  0  0
   -2.3130    0.2145    0.1490 C   0  0  0  0  0  0  0  0  0  0  0  0
   -2.4658   -1.9754   -0.4417 C   0  0  0  0  0  0  0  0  0  0  0  0
   -1.0955   -2.1212   -0.3725 C   0  0  0  0  0  0  0  0  0  0  0  0
    2.3161    2.4838   -0.7356 C   0  0  0  0  0  0  0  0  0  0  0  0
    3.9218   -1.6088    0.5228 C   0  0  0  0  0  0  0  0  0  0  0  0
   -4.3953    1.5515    0.3393 C   0  0  0  0  0  0  0  0  0  0  0  0
   -2.1766    2.6040    0.8060 C   0  0  0  0  0  0  0  0  0  0  0  0
   -3.3116   -3.1458   -0.8163 C   0  0  0  0  0  0  0  0  0  0  0  0
    1.8245    3.2843   -1.9227 C   0  0  0  0  0  0  0  0  0  0  0  0
    5.2663   -1.9068   -0.1059 C   0  0  0  0  0  0  0  0  0  0  0  0
  1  2  2  0
  2  3  1  0
  2  4  1  0
  2  5  1  0
  3  9  1  0
  4 13  1  0
  5 14  1  0
  6 10  1  0
  6 15  1  0
  6 16  1  0
  7  9  2  0
  7 10  1  0
  8 10  2  0
  8 11  1  0
  9 12  1  0
 11 12  2  0
 11 17  1  0
 13 18  1  0
 14 19  1  0
M  END
>  <PUBCHEM_COMPOUND_CID>  (1) 
21289

>  <PUBCHEM_CONFORMER_RMSD>  (1) 
0.8

>  <PUBCHEM_CONFORMER_DIVERSEORDER>  (1) 
1
14
20
35
15
38
12
45
11
63
42
64
27
25
13
67
17
24
46
44
53
2
34
68
43
28
19
7
74
31
57
48
22
37
16
51
52
55
70
10
36
32
23
6
30
39
61
49
5
72
8
60
73
9
47
58
40
66
18
69
56
62
33
59
26
3
71
65
29
4
41
50
54
21

>  <PUBCHEM_MMFF94_PARTIAL_CHARGES>  (1) 
18
1 -0.68
10 0.72
11 0.17
12 -0.15
13 0.28
14 0.28
15 0.37
16 0.37
17 0.14
2 1.49
20 0.15
3 -0.35
4 -0.55
5 -0.55
6 -0.84
7 -0.62
8 -0.62
9 0.39

>  <PUBCHEM_EFFECTIVE_ROTOR_COUNT>  (1) 
7

>  <PUBCHEM_PHARMACOPHORE_FEATURES>  (1) 
2
4 6 7 8 10 cation
6 7 8 9 10 11 12 rings

>  <PUBCHEM_HEAVY_ATOM_COUNT>  (1) 
19

>  <PUBCHEM_ATOM_DEF_STEREO_COUNT>  (1) 
0

>  <PUBCHEM_ATOM_UDEF_STEREO_COUNT>  (1) 
0

>  <PUBCHEM_BOND_DEF_STEREO_COUNT>  (1) 
0

>  <PUBCHEM_BOND_UDEF_STEREO_COUNT>  (1) 
0

>  <PUBCHEM_ISOTOPIC_ATOM_COUNT>  (1) 
0

>  <PUBCHEM_COMPONENT_COUNT>  (1) 
1

>  <PUBCHEM_CACTVS_TAUTO_COUNT>  (1) 
1

>  <PUBCHEM_CONFORMER_ID>  (1) 
0000532900000001

>  <PUBCHEM_MMFF94_ENERGY>  (1) 
37.8867

>  <PUBCHEM_FEATURE_SELFOVERLAP>  (1) 
10.148

>  <PUBCHEM_SHAPE_FINGERPRINT>  (1) 
10382601 240 17399534324329044049
12553582 1 17968929791501844874
13009979 54 18341058466682428944
13140716 1 18341335560776543595
14115302 16 18272938193370837593
14178342 30 18338778075192735954
14965852 173 18341608217885059218
15042514 8 18413390943323558443
15099037 8 18338513157019298455
15295992 7 17703783717656657355
15442244 35 18409730664481549516
17492 89 18337953514381131750
17804303 29 18273210872518198594
1813 80 18041265605194815888
20600515 1 18200599073528481516
20671657 1 18335431183256778236
21033648 29 18055616344376069665
21285901 2 17980205184481578302
21501502 16 18339366378073828391
21524375 3 18129380406751828691
23402539 116 18058719213892670413
23419403 2 16894764307258487273
23557571 272 17916304011999814801
23558518 356 18335984280428576499
23559900 14 18340756152208153074
23598288 3 18201998880379245607
23598291 2 18334859441599805846
312423 11 18263370342086268359
350125 39 18413392046665676507
352729 6 18343590625008180967
394222 165 16668221026071746240
4409770 3 17610605428888835860
474 4 17389099246365304156
53777708 50 18338242690038232894
6992083 37 18336834074151945016
7164475 11 18267860760590675119
7364860 26 18193273216467802396
7615 1 18337107989907002629
7832392 63 18335425685819750732
9981440 41 17613722939454207376

>  <PUBCHEM_SHAPE_MULTIPOLES>  (1) 
366.16
8.12
3.78
1.35
3.03
0.79
0.29
-3.1
0.04
-0.73
-1.58
0.97
1.08
-1.91

>  <PUBCHEM_SHAPE_SELFOVERLAP>  (1) 
698.499

>  <PUBCHEM_SHAPE_VOLUME>  (1) 
229

>  <PUBCHEM_COORDINATE_TYPE>  (1) 
2
5
10

$$$$
