21288
     RDKit          3D

 10 10  0  0  0  0  0  0  0  0999 V2000
   -2.2853   -1.3336    0.0018 O   0  0  0  0  0  0  0  0  0  0  0  0
   -1.1477    0.7316   -0.0001 N   0  0  0  0  0  0  0  0  0  0  0  0
    2.8974   -0.3609   -0.0002 N   0  0  0  0  0  0  0  0  0  0  0  0
    0.1989    0.3679    0.0001 C   0  0  0  0  0  0  0  0  0  0  0  0
    0.5593   -0.9752   -0.0006 C   0  0  0  0  0  0  0  0  0  0  0  0
    1.1862    1.3468    0.0005 C   0  0  0  0  0  0  0  0  0  0  0  0
   -2.2707   -0.1069   -0.0007 C   0  0  0  0  0  0  0  0  0  0  0  0
    1.9099   -1.2842   -0.0007 C   0  0  0  0  0  0  0  0  0  0  0  0
    2.5088    0.9339    0.0006 C   0  0  0  0  0  0  0  0  0  0  0  0
   -3.5568    0.6806   -0.0007 C   0  0  0  0  0  0  0  0  0  0  0  0
  1  7  2  0
  2  4  1  0
  2  7  1  0
  3  8  2  0
  3  9  1  0
  4  5  2  0
  4  6  1  0
  5  8  1  0
  6  9  2  0
  7 10  1  0
M  END
>  <PUBCHEM_COMPOUND_CID>  (1) 
21288

>  <PUBCHEM_CONFORMER_RMSD>  (1) 
0.4

>  <PUBCHEM_CONFORMER_DIVERSEORDER>  (1) 
1
2

>  <PUBCHEM_MMFF94_PARTIAL_CHARGES>  (1) 
15
1 -0.57
10 0.06
11 0.37
12 0.15
13 0.15
17 0.15
18 0.15
2 -0.55
3 -0.62
4 0.12
5 -0.15
6 -0.15
7 0.57
8 0.16
9 0.16

>  <PUBCHEM_EFFECTIVE_ROTOR_COUNT>  (1) 
2

>  <PUBCHEM_PHARMACOPHORE_FEATURES>  (1) 
4
1 1 acceptor
1 2 donor
1 3 acceptor
6 3 4 5 6 8 9 rings

>  <PUBCHEM_HEAVY_ATOM_COUNT>  (1) 
10

>  <PUBCHEM_ATOM_DEF_STEREO_COUNT>  (1) 
0

>  <PUBCHEM_ATOM_UDEF_STEREO_COUNT>  (1) 
0

>  <PUBCHEM_BOND_DEF_STEREO_COUNT>  (1) 
0

>  <PUBCHEM_BOND_UDEF_STEREO_COUNT>  (1) 
0

>  <PUBCHEM_ISOTOPIC_ATOM_COUNT>  (1) 
0

>  <PUBCHEM_COMPONENT_COUNT>  (1) 
1

>  <PUBCHEM_CACTVS_TAUTO_COUNT>  (1) 
3

>  <PUBCHEM_CONFORMER_ID>  (1) 
0000532800000001

>  <PUBCHEM_MMFF94_ENERGY>  (1) 
27.2581

>  <PUBCHEM_FEATURE_SELFOVERLAP>  (1) 
20.297

>  <PUBCHEM_SHAPE_FINGERPRINT>  (1) 
11062470 55 18060416889689148865
12897270 3 18410293622613539693
12932764 1 17385714790465455907
14144814 61 18340770355975971129
14325111 11 18410855507383461985
20201158 50 18410292480231555075
20645477 70 18338793412858436439
20871998 22 17983015540465790838
21040471 1 18194682794453333092
23402655 69 18341601587114911605
23552423 10 18261675960218125127
29004967 10 18410013221584322960
3248919 1 18336818775483522961

>  <PUBCHEM_SHAPE_MULTIPOLES>  (1) 
189.96
4.99
1.42
0.59
2.84
0.13
0
-0.3
0
-0.36
0
-0.01
-0.01
0

>  <PUBCHEM_SHAPE_SELFOVERLAP>  (1) 
388.908

>  <PUBCHEM_SHAPE_VOLUME>  (1) 
108.2

>  <PUBCHEM_COORDINATE_TYPE>  (1) 
2
5
10

$$$$
