21297
     RDKit          3D

 23 25  0  0  0  0  0  0  0  0999 V2000
   -0.6342   -0.3774   -1.0357 O   0  0  0  0  0  0  0  0  0  0  0  0
    3.3065   -0.2280    0.2137 N   0  0  0  0  0  0  0  0  0  0  0  0
   -4.0581   -0.0958    0.2775 N   0  0  0  0  0  0  0  0  0  0  0  0
    0.5331    3.2169   -0.0476 C   0  0  0  0  0  0  0  0  0  0  0  0
    0.6556    2.1435   -1.1294 C   0  0  0  0  0  0  0  0  0  0  0  0
    1.8134    4.0202    0.1776 C   0  0  0  0  0  0  0  0  0  0  0  0
    1.3508    0.8997   -0.6485 C   0  0  0  0  0  0  0  0  0  0  0  0
    2.9874    3.2159    0.7345 C   0  0  0  0  0  0  0  0  0  0  0  0
    3.5114    2.1477   -0.2238 C   0  0  0  0  0  0  0  0  0  0  0  0
    2.6767    0.8947   -0.2242 C   0  0  0  0  0  0  0  0  0  0  0  0
    0.6677   -0.3189   -0.6171 C   0  0  0  0  0  0  0  0  0  0  0  0
    1.2977   -1.4870   -0.1704 C   0  0  0  0  0  0  0  0  0  0  0  0
    2.6376   -1.3942    0.2424 C   0  0  0  0  0  0  0  0  0  0  0  0
   -1.6361   -0.1632   -0.0478 C   0  0  0  0  0  0  0  0  0  0  0  0
   -3.0076   -0.2705   -0.6891 C   0  0  0  0  0  0  0  0  0  0  0  0
    0.6255   -2.7210   -0.1294 C   0  0  0  0  0  0  0  0  0  0  0  0
    3.2693   -2.5521    0.6882 C   0  0  0  0  0  0  0  0  0  0  0  0
   -5.3846   -0.2460   -0.3405 C   0  0  0  0  0  0  0  0  0  0  0  0
   -3.9685    1.2174    0.9344 C   0  0  0  0  0  0  0  0  0  0  0  0
    1.2791   -3.8645    0.3201 C   0  0  0  0  0  0  0  0  0  0  0  0
    2.6038   -3.7795    0.7298 C   0  0  0  0  0  0  0  0  0  0  0  0
   -5.4932   -1.5961   -1.0227 C   0  0  0  0  0  0  0  0  0  0  0  0
   -5.0332    1.3382    2.0077 C   0  0  0  0  0  0  0  0  0  0  0  0
  1 11  1  0
  1 14  1  0
  2 10  2  0
  2 13  1  0
  3 15  1  0
  3 18  1  0
  3 19  1  0
  4  5  1  0
  4  6  1  0
  5  7  1  0
  6  8  1  0
  7 10  1  0
  7 11  2  0
  8  9  1  0
  9 10  1  0
 11 12  1  0
 12 13  2  0
 12 16  1  0
 13 17  1  0
 14 15  1  0
 16 20  2  0
 17 21  2  0
 18 22  1  0
 19 23  1  0
 20 21  1  0
M  END
>  <PUBCHEM_COMPOUND_CID>  (1) 
21297

>  <PUBCHEM_CONFORMER_RMSD>  (1) 
0.8

>  <PUBCHEM_CONFORMER_DIVERSEORDER>  (1) 
1
43
58
50
5
26
33
20
34
46
56
42
30
16
39
55
12
21
11
29
48
25
49
27
22
14
35
24
60
44
47
37
32
51
53
28
2
31
36
23
38
57
54
59
9
15
10
18
4
52
7
17
40
3
19
45
41
8
13
6

>  <PUBCHEM_MMFF94_PARTIAL_CHARGES>  (1) 
21
1 -0.36
10 0.17
11 0.08
13 0.31
14 0.28
15 0.27
16 -0.15
17 -0.15
18 0.27
19 0.27
2 -0.62
20 -0.15
21 -0.15
3 -0.81
38 0.15
43 0.15
44 0.15
45 0.15
5 0.14
7 -0.14
9 0.14

>  <PUBCHEM_EFFECTIVE_ROTOR_COUNT>  (1) 
7

>  <PUBCHEM_PHARMACOPHORE_FEATURES>  (1) 
6
1 1 acceptor
1 2 acceptor
1 3 cation
6 12 13 16 17 20 21 rings
6 2 7 10 11 12 13 rings
7 4 5 6 7 8 9 10 rings

>  <PUBCHEM_HEAVY_ATOM_COUNT>  (1) 
23

>  <PUBCHEM_ATOM_DEF_STEREO_COUNT>  (1) 
0

>  <PUBCHEM_ATOM_UDEF_STEREO_COUNT>  (1) 
0

>  <PUBCHEM_BOND_DEF_STEREO_COUNT>  (1) 
0

>  <PUBCHEM_BOND_UDEF_STEREO_COUNT>  (1) 
0

>  <PUBCHEM_ISOTOPIC_ATOM_COUNT>  (1) 
0

>  <PUBCHEM_COMPONENT_COUNT>  (1) 
1

>  <PUBCHEM_CACTVS_TAUTO_COUNT>  (1) 
1

>  <PUBCHEM_CONFORMER_ID>  (1) 
0000533100000001

>  <PUBCHEM_MMFF94_ENERGY>  (1) 
63.1386

>  <PUBCHEM_FEATURE_SELFOVERLAP>  (1) 
30.486

>  <PUBCHEM_SHAPE_FINGERPRINT>  (1) 
10411042 1 18121773937829578262
1100329 8 18338229488052725834
12107183 9 17981048510142584553
12553582 1 18193838132989315910
12788726 201 17615141991984469082
13140716 1 18263632039429489226
13533116 47 18408325493412396547
138480 1 18337950078448635500
13878862 14 18263066744419085261
14790565 3 18264215867013935780
14844126 61 17180800758222987787
15142526 21 18053942037301358841
15420108 30 18131343103220314766
15475509 8 17986976084738920262
15475509 84 17979925912385831585
15927050 60 18194680608758383678
19377110 9 18202009871759666675
19591789 44 18336543906709878228
20642791 268 18129659695046723963
20645477 70 18113889451641833047
20739085 24 18260830414639671956
21041028 32 18049158869873324606
21344244 78 18198888258825560825
23558518 356 17763178446667738854
23559900 14 18409440384985867091
23845131 108 18046336698197405067
3091708 16 9576566508073289236
474 4 18267019634190313833
5104073 3 18410580578807251763
5312544 6 18339918346165359887
54173680 148 17400634927379549070
6443956 14 18191303780066754438
67856867 119 18341606032416313131
7097593 13 18339085874318973735
79837 15 17905605858509051704
84936 182 18200030771339220152
9777508 108 17617375520975238970
9981440 41 18049437338615515393

>  <PUBCHEM_SHAPE_MULTIPOLES>  (1) 
457.5
9.42
5.16
1.12
18.1
0.19
0.26
0.18
1.65
-6.64
1.05
1.14
-0.25
-1.76

>  <PUBCHEM_SHAPE_SELFOVERLAP>  (1) 
962.406

>  <PUBCHEM_SHAPE_VOLUME>  (1) 
257.3

>  <PUBCHEM_COORDINATE_TYPE>  (1) 
2
5
10

$$$$
