21299
     RDKit          3D

 22 24  0  0  1  0  0  0  0  0999 V2000
   -0.7821    1.0385    0.5282 O   0  0  0  0  0  0  0  0  0  0  0  0
    2.2381   -1.6086   -0.4635 N   0  0  0  0  0  0  0  0  0  0  0  0
   -4.3956    1.3639   -0.2064 N   0  0  0  0  0  0  0  0  0  0  0  0
    1.7421    2.1459   -0.1275 C   0  0  0  0  0  0  0  0  0  0  0  0
    2.7920    2.5702    0.8996 C   0  0  0  0  0  0  0  0  0  0  0  0
    1.4866    0.6639   -0.1304 C   0  0  0  0  0  0  0  0  0  0  0  0
    4.2325    2.3234    0.4531 C   0  0  0  0  0  0  0  0  0  0  0  0
    4.6092    0.8524    0.2816 C   0  0  0  0  0  0  0  0  0  0  0  0
    3.8587    0.1527   -0.8502 C   0  0  0  0  0  0  0  0  0  0  0  0
    2.4659   -0.2681   -0.4630 C   0  0  0  0  0  0  0  0  0  0  0  0
    0.2241    0.1683    0.2059 C   0  0  0  0  0  0  0  0  0  0  0  0
   -0.0319   -1.2084    0.2109 C   0  0  0  0  0  0  0  0  0  0  0  0
   -1.9443    1.0081   -0.2928 C   0  0  0  0  0  0  0  0  0  0  0  0
    1.0200   -2.0735   -0.1348 C   0  0  0  0  0  0  0  0  0  0  0  0
   -3.1563    1.3954    0.5581 C   0  0  0  0  0  0  0  0  0  0  0  0
   -1.2947   -1.7251    0.5491 C   0  0  0  0  0  0  0  0  0  0  0  0
   -1.7073    1.9552   -1.4622 C   0  0  0  0  0  0  0  0  0  0  0  0
    0.7718   -3.4436   -0.1311 C   0  0  0  0  0  0  0  0  0  0  0  0
   -1.5179   -3.0988    0.5452 C   0  0  0  0  0  0  0  0  0  0  0  0
   -0.4822   -3.9596    0.2044 C   0  0  0  0  0  0  0  0  0  0  0  0
   -5.5379    1.6985    0.6468 C   0  0  0  0  0  0  0  0  0  0  0  0
   -4.5908    0.0491   -0.8210 C   0  0  0  0  0  0  0  0  0  0  0  0
  1 11  1  0
  1 13  1  0
  2 10  2  0
  2 14  1  0
  3 15  1  0
  3 21  1  0
  3 22  1  0
  4  5  1  0
  4  6  1  0
  5  7  1  0
  6 10  1  0
  6 11  2  0
  7  8  1  0
  8  9  1  0
  9 10  1  0
 11 12  1  0
 12 14  2  0
 12 16  1  0
 13 15  1  0
 13 17  1  0
 14 18  1  0
 16 19  2  0
 18 20  2  0
 19 20  1  0
M  END
>  <PUBCHEM_COMPOUND_CID>  (1) 
21299

>  <PUBCHEM_CONFORMER_RMSD>  (1) 
0.8

>  <PUBCHEM_CONFORMER_DIVERSEORDER>  (1) 
1
16
12
20
11
22
10
3
23
28
19
15
18
14
30
31
27
2
26
13
17
4
25
5
8
29
6
32
9
7
24
21

>  <PUBCHEM_MMFF94_PARTIAL_CHARGES>  (1) 
21
1 -0.36
10 0.17
11 0.08
13 0.28
14 0.31
15 0.27
16 -0.15
18 -0.15
19 -0.15
2 -0.62
20 -0.15
21 0.27
22 0.27
3 -0.81
36 0.15
4 0.14
40 0.15
41 0.15
42 0.15
6 -0.14
9 0.14

>  <PUBCHEM_EFFECTIVE_ROTOR_COUNT>  (1) 
5

>  <PUBCHEM_PHARMACOPHORE_FEATURES>  (1) 
6
1 1 acceptor
1 2 acceptor
1 3 cation
6 12 14 16 18 19 20 rings
6 2 6 10 11 12 14 rings
7 4 5 6 7 8 9 10 rings

>  <PUBCHEM_HEAVY_ATOM_COUNT>  (1) 
22

>  <PUBCHEM_ATOM_DEF_STEREO_COUNT>  (1) 
0

>  <PUBCHEM_ATOM_UDEF_STEREO_COUNT>  (1) 
1

>  <PUBCHEM_BOND_DEF_STEREO_COUNT>  (1) 
0

>  <PUBCHEM_BOND_UDEF_STEREO_COUNT>  (1) 
0

>  <PUBCHEM_ISOTOPIC_ATOM_COUNT>  (1) 
0

>  <PUBCHEM_COMPONENT_COUNT>  (1) 
1

>  <PUBCHEM_CACTVS_TAUTO_COUNT>  (1) 
1

>  <PUBCHEM_CONFORMER_ID>  (1) 
0000533300000001

>  <PUBCHEM_MMFF94_ENERGY>  (1) 
75.2289

>  <PUBCHEM_FEATURE_SELFOVERLAP>  (1) 
30.486

>  <PUBCHEM_SHAPE_FINGERPRINT>  (1) 
10165383 225 18262814990220151012
10319926 262 18125424549179245760
10411042 1 17402334767924733387
10693767 8 17842839927884431982
10967382 1 18337957762087398054
1100329 8 18337951173935107618
11370993 70 18411417336519321681
11578080 2 16484428783891051066
12035758 1 18337381652823343048
12553582 1 16897648987846546675
12730499 353 18337119969034975937
12769317 202 18267855104066446713
12788726 201 17541371784295388408
13140716 1 18408885139723590738
13540713 4 18057053621707712012
13583140 156 16371548401946776629
138480 1 17762056540917288411
14787075 74 18130500920595862121
14790565 3 18410581686339880709
16728300 4 17244958473538135714
16945 1 18194692694527355110
19591789 44 18409449158986471542
21197605 99 18339371872271384763
21524375 3 18260547801285156906
22182313 1 18265636405507598587
2255824 54 18269272353216495835
23558518 356 17829044656507272784
23559900 14 18343025515081705836
23845131 108 18334577924148669763
2748010 2 18265351657702296934
335352 9 18411421692270099422
33824 294 18263929847765737403
350125 39 18335704893053618550
352729 6 18339090392060014744
4340502 62 18413112758027779593
474 4 18341894073902582705
621550 34 18189334576680766709
633830 44 18273492351916626669
6442390 28 18409451401239039903
7364860 26 18194401087210934259
81228 2 17828764280693653578
8272917 22 18196659488895768685
84936 182 18198903608722678472
9709674 26 18199190766389033766
9777508 108 18268145546797117595

>  <PUBCHEM_SHAPE_MULTIPOLES>  (1) 
436.92
8.44
4.26
0.93
4.55
4.25
-0.13
-7.94
0.31
0.32
0.52
0.18
-0.31
0.71

>  <PUBCHEM_SHAPE_SELFOVERLAP>  (1) 
927.198

>  <PUBCHEM_SHAPE_VOLUME>  (1) 
244.6

>  <PUBCHEM_COORDINATE_TYPE>  (1) 
2
5
10

$$$$
