21301
     RDKit          3D

 22 24  0  0  0  0  0  0  0  0999 V2000
   -2.1741   -4.4646    0.8214 Cl  0  0  0  0  0  0  0  0  0  0  0  0
   -1.0082    0.7072    0.7252 O   0  0  0  0  0  0  0  0  0  0  0  0
    2.4273   -1.1181   -0.6815 N   0  0  0  0  0  0  0  0  0  0  0  0
   -4.1880    2.0943   -0.5046 N   0  0  0  0  0  0  0  0  0  0  0  0
    2.1702    2.9544    1.0436 C   0  0  0  0  0  0  0  0  0  0  0  0
    1.1622    2.3940    0.0401 C   0  0  0  0  0  0  0  0  0  0  0  0
    3.5925    3.0690    0.4967 C   0  0  0  0  0  0  0  0  0  0  0  0
    4.2628    1.7366    0.1643 C   0  0  0  0  0  0  0  0  0  0  0  0
    1.2319    0.8974   -0.0909 C   0  0  0  0  0  0  0  0  0  0  0  0
    3.5977    0.9831   -0.9862 C   0  0  0  0  0  0  0  0  0  0  0  0
    2.3609    0.2350   -0.5649 C   0  0  0  0  0  0  0  0  0  0  0  0
    0.1342    0.1095    0.2655 C   0  0  0  0  0  0  0  0  0  0  0  0
    0.1813   -1.2855    0.1525 C   0  0  0  0  0  0  0  0  0  0  0  0
    1.3656   -1.8658   -0.3322 C   0  0  0  0  0  0  0  0  0  0  0  0
   -1.9800    1.0690   -0.2497 C   0  0  0  0  0  0  0  0  0  0  0  0
   -0.9121   -2.0940    0.5087 C   0  0  0  0  0  0  0  0  0  0  0  0
    1.4188   -3.2524   -0.4462 C   0  0  0  0  0  0  0  0  0  0  0  0
   -3.1731    1.6918    0.4575 C   0  0  0  0  0  0  0  0  0  0  0  0
   -0.8343   -3.4781    0.3853 C   0  0  0  0  0  0  0  0  0  0  0  0
    0.3337   -4.0582   -0.0931 C   0  0  0  0  0  0  0  0  0  0  0  0
   -5.3197    2.7325    0.1723 C   0  0  0  0  0  0  0  0  0  0  0  0
   -4.6495    0.9428   -1.2838 C   0  0  0  0  0  0  0  0  0  0  0  0
  1 19  1  0
  2 12  1  0
  2 15  1  0
  3 11  2  0
  3 14  1  0
  4 18  1  0
  4 21  1  0
  4 22  1  0
  5  6  1  0
  5  7  1  0
  6  9  1  0
  7  8  1  0
  8 10  1  0
  9 11  1  0
  9 12  2  0
 10 11  1  0
 12 13  1  0
 13 14  2  0
 13 16  1  0
 14 17  1  0
 15 18  1  0
 16 19  2  0
 17 20  2  0
 19 20  1  0
M  END
>  <PUBCHEM_COMPOUND_CID>  (1) 
21301

>  <PUBCHEM_CONFORMER_RMSD>  (1) 
0.8

>  <PUBCHEM_CONFORMER_DIVERSEORDER>  (1) 
4
16
12
10
18
9
14
11
7
3
1
13
17
5
15
2
6
8

>  <PUBCHEM_MMFF94_PARTIAL_CHARGES>  (1) 
21
1 -0.18
10 0.14
11 0.17
12 0.08
14 0.31
15 0.28
16 -0.15
17 -0.15
18 0.27
19 0.18
2 -0.36
20 -0.15
21 0.27
22 0.27
3 -0.62
35 0.15
36 0.15
39 0.15
4 -0.81
6 0.14
9 -0.14

>  <PUBCHEM_EFFECTIVE_ROTOR_COUNT>  (1) 
5

>  <PUBCHEM_PHARMACOPHORE_FEATURES>  (1) 
6
1 2 acceptor
1 3 acceptor
1 4 cation
6 13 14 16 17 19 20 rings
6 3 9 11 12 13 14 rings
7 5 6 7 8 9 10 11 rings

>  <PUBCHEM_HEAVY_ATOM_COUNT>  (1) 
22

>  <PUBCHEM_ATOM_DEF_STEREO_COUNT>  (1) 
0

>  <PUBCHEM_ATOM_UDEF_STEREO_COUNT>  (1) 
0

>  <PUBCHEM_BOND_DEF_STEREO_COUNT>  (1) 
0

>  <PUBCHEM_BOND_UDEF_STEREO_COUNT>  (1) 
0

>  <PUBCHEM_ISOTOPIC_ATOM_COUNT>  (1) 
0

>  <PUBCHEM_COMPONENT_COUNT>  (1) 
1

>  <PUBCHEM_CACTVS_TAUTO_COUNT>  (1) 
1

>  <PUBCHEM_CONFORMER_ID>  (1) 
0000533500000004

>  <PUBCHEM_MMFF94_ENERGY>  (1) 
65.4637

>  <PUBCHEM_FEATURE_SELFOVERLAP>  (1) 
30.486

>  <PUBCHEM_SHAPE_FINGERPRINT>  (1) 
10411042 1 17402332568779840199
10688039 33 17541660951374279675
10693767 8 17842839919394535838
1100329 8 18338232653217166042
11582403 64 17677312979460448969
12553582 1 17329438242361750363
12730499 353 18337119969114454457
12769317 202 18267573633300476365
12788726 201 17540806630913312232
13140716 1 18410577275856432106
13540713 4 18057053617339197028
13692114 37 18269536386531730867
138480 1 17834394514735852297
13955234 65 18193841432019642945
15664445 248 17624985928314707983
16728300 4 17101688779950233218
16945 1 17980211008568026870
17876694 64 17319291308798939124
19427546 62 18409169905056998789
20645477 70 18044943364094302545
21285901 2 17623595423899383870
22182313 1 17913786165391491636
2255824 54 18196648493594653743
22907989 373 17759242190534603420
23558518 356 18044656644609076216
238 59 18338237055536954323
23845131 108 18335420154339508987
2748010 2 18267891491393050694
3091708 16 9335397432655470673
350125 39 17764320822322784272
4409770 3 17833533970830466271
6025842 7 18266455404774417069
6443956 14 17761212111549348725
7164475 11 17758960715747796252
7471813 234 17766548063101696013
79837 15 18337949103560008329
81228 2 17757278449860932882
84936 182 18270960133282211465
90316 7 17115214322885008200
9777508 108 18267868470009427281

>  <PUBCHEM_SHAPE_MULTIPOLES>  (1) 
438.79
7.68
6.03
0.94
3.96
5.48
-0.06
-10.03
-0.94
4.28
1.02
0.11
-0.12
1.61

>  <PUBCHEM_SHAPE_SELFOVERLAP>  (1) 
922.993

>  <PUBCHEM_SHAPE_VOLUME>  (1) 
248.6

>  <PUBCHEM_COORDINATE_TYPE>  (1) 
2
5
10

$$$$
