21306
     RDKit          3D

 13 13  0  0  0  0  0  0  0  0999 V2000
   -0.5655   -2.4082   -0.5708 O   0  0  0  0  0  0  0  0  0  0  0  0
    3.0670    1.0112    0.0846 O   0  0  0  0  0  0  0  0  0  0  0  0
    1.2532   -0.4926    0.0234 N   0  0  0  0  0  0  0  0  0  0  0  0
    0.1325    0.3426   -0.0032 C   0  0  0  0  0  0  0  0  0  0  0  0
   -1.1575   -0.1868   -0.0432 C   0  0  0  0  0  0  0  0  0  0  0  0
    0.3190    1.7250    0.0092 C   0  0  0  0  0  0  0  0  0  0  0  0
   -2.2608    0.6663   -0.0707 C   0  0  0  0  0  0  0  0  0  0  0  0
   -1.3878   -1.6260   -0.0579 C   0  0  0  0  0  0  0  0  0  0  0  0
   -0.7843    2.5780   -0.0182 C   0  0  0  0  0  0  0  0  0  0  0  0
   -2.0742    2.0486   -0.0582 C   0  0  0  0  0  0  0  0  0  0  0  0
    2.6028   -0.1240    0.0627 C   0  0  0  0  0  0  0  0  0  0  0  0
   -2.6536   -2.2048    0.5607 C   0  0  0  0  0  0  0  0  0  0  0  0
    3.5091   -1.3293    0.0814 C   0  0  0  0  0  0  0  0  0  0  0  0
  1  8  2  0
  2 11  2  0
  3  4  1  0
  3 11  1  0
  4  5  2  0
  4  6  1  0
  5  7  1  0
  5  8  1  0
  6  9  2  0
  7 10  2  0
  8 12  1  0
  9 10  1  0
 11 13  1  0
M  END
>  <PUBCHEM_COMPOUND_CID>  (1) 
21306

>  <PUBCHEM_CONFORMER_RMSD>  (1) 
0.6

>  <PUBCHEM_CONFORMER_DIVERSEORDER>  (1) 
1
5
4
6
2
3

>  <PUBCHEM_MMFF94_PARTIAL_CHARGES>  (1) 
18
1 -0.57
10 -0.15
11 0.57
12 0.06
13 0.06
14 0.15
15 0.15
16 0.37
17 0.15
18 0.15
2 -0.57
3 -0.55
4 0.12
5 0.09
6 -0.15
7 -0.15
8 0.42
9 -0.15

>  <PUBCHEM_EFFECTIVE_ROTOR_COUNT>  (1) 
3

>  <PUBCHEM_PHARMACOPHORE_FEATURES>  (1) 
4
1 1 acceptor
1 2 acceptor
1 3 donor
6 4 5 6 7 9 10 rings

>  <PUBCHEM_HEAVY_ATOM_COUNT>  (1) 
13

>  <PUBCHEM_ATOM_DEF_STEREO_COUNT>  (1) 
0

>  <PUBCHEM_ATOM_UDEF_STEREO_COUNT>  (1) 
0

>  <PUBCHEM_BOND_DEF_STEREO_COUNT>  (1) 
0

>  <PUBCHEM_BOND_UDEF_STEREO_COUNT>  (1) 
0

>  <PUBCHEM_ISOTOPIC_ATOM_COUNT>  (1) 
0

>  <PUBCHEM_COMPONENT_COUNT>  (1) 
1

>  <PUBCHEM_CACTVS_TAUTO_COUNT>  (1) 
9

>  <PUBCHEM_CONFORMER_ID>  (1) 
0000533A00000001

>  <PUBCHEM_MMFF94_ENERGY>  (1) 
40.729

>  <PUBCHEM_FEATURE_SELFOVERLAP>  (1) 
20.297

>  <PUBCHEM_SHAPE_FINGERPRINT>  (1) 
10967382 1 17978791203447452820
12553582 1 18122906700962037758
12716758 59 18339917113314404712
13380535 76 18124027923464385063
15669948 3 18409727344540557350
16945 1 18265336114099374281
193761 8 18194401327993178245
20510252 161 18200590272523768504
20645476 183 17897468110985263126
20711985 365 18410009927407859790
20871998 184 18343867735754806671
20871998 22 18194691585908750107
21524375 3 18051687746501184317
22802520 49 18201170844938663958
2334 1 18338797930562222598
23402539 116 18270102518781404453
23526114 1 17257651651700351230
23552423 10 18189055472214604444
23559900 14 18127407853375784902
2748010 2 18340200885882249853
54173680 148 18409450275736218187
5706482 22 18122894335555422803
6333449 129 18411978035872969488
7364860 26 17548137087714737369
81228 2 18337380617193119769

>  <PUBCHEM_SHAPE_MULTIPOLES>  (1) 
250.81
4.51
2.95
0.64
4.31
0.21
-0.01
1.07
-0.34
-1.96
-0.01
-0.09
0.09
0.21

>  <PUBCHEM_SHAPE_SELFOVERLAP>  (1) 
519.427

>  <PUBCHEM_SHAPE_VOLUME>  (1) 
143.2

>  <PUBCHEM_COORDINATE_TYPE>  (1) 
2
5
10

$$$$
