21311
     RDKit          3D

 13 13  0  0  0  0  0  0  0  0999 V2000
    2.3261    0.5483   -0.0052 O   0  0  0  0  0  0  0  0  0  0  0  0
   -2.3251    0.2942    0.0067 N   0  0  0  0  0  0  0  0  0  0  0  0
    0.0139    0.4628    0.0006 N   0  0  0  0  0  0  0  0  0  0  0  0
   -1.0623   -1.6818    0.0036 N   0  0  0  0  0  0  0  0  0  0  0  0
    1.3331   -1.5416   -0.0029 N   0  0  0  0  0  0  0  0  0  0  0  0
   -2.5035    1.7256    0.0070 C   0  0  0  0  0  0  0  0  0  0  0  0
   -1.0859   -0.3277    0.0035 C   0  0  0  0  0  0  0  0  0  0  0  0
   -3.9809    2.0677   -0.0114 C   0  0  0  0  0  0  0  0  0  0  0  0
    1.1771   -0.2079   -0.0027 C   0  0  0  0  0  0  0  0  0  0  0  0
    0.1707   -2.2137    0.0002 C   0  0  0  0  0  0  0  0  0  0  0  0
    2.1580    1.9586   -0.0049 C   0  0  0  0  0  0  0  0  0  0  0  0
    0.2578   -3.7020   -0.0014 C   0  0  0  0  0  0  0  0  0  0  0  0
    3.5209    2.6176    0.0072 C   0  0  0  0  0  0  0  0  0  0  0  0
  1  9  1  0
  1 11  1  0
  2  6  1  0
  2  7  1  0
  3  7  2  0
  3  9  1  0
  4  7  1  0
  4 10  2  0
  5  9  2  0
  5 10  1  0
  6  8  1  0
 10 12  1  0
 11 13  1  0
M  END
>  <PUBCHEM_COMPOUND_CID>  (1) 
21311

>  <PUBCHEM_CONFORMER_RMSD>  (1) 
0.6

>  <PUBCHEM_CONFORMER_DIVERSEORDER>  (1) 
1
16
24
20
13
9
4
18
5
21
3
2
10
22
25
8
11
19
12
15
14
7
6
23
17

>  <PUBCHEM_MMFF94_PARTIAL_CHARGES>  (1) 
12
1 -0.36
10 0.48
11 0.28
12 0.14
16 0.4
2 -0.87
3 -0.62
4 -0.62
5 -0.62
6 0.37
7 0.72
9 0.7

>  <PUBCHEM_EFFECTIVE_ROTOR_COUNT>  (1) 
4

>  <PUBCHEM_PHARMACOPHORE_FEATURES>  (1) 
3
1 2 donor
4 2 3 4 7 cation
6 3 4 5 7 9 10 rings

>  <PUBCHEM_HEAVY_ATOM_COUNT>  (1) 
13

>  <PUBCHEM_ATOM_DEF_STEREO_COUNT>  (1) 
0

>  <PUBCHEM_ATOM_UDEF_STEREO_COUNT>  (1) 
0

>  <PUBCHEM_BOND_DEF_STEREO_COUNT>  (1) 
0

>  <PUBCHEM_BOND_UDEF_STEREO_COUNT>  (1) 
0

>  <PUBCHEM_ISOTOPIC_ATOM_COUNT>  (1) 
0

>  <PUBCHEM_COMPONENT_COUNT>  (1) 
1

>  <PUBCHEM_CACTVS_TAUTO_COUNT>  (1) 
4

>  <PUBCHEM_CONFORMER_ID>  (1) 
0000533F00000001

>  <PUBCHEM_MMFF94_ENERGY>  (1) 
27.9722

>  <PUBCHEM_FEATURE_SELFOVERLAP>  (1) 
15.223

>  <PUBCHEM_SHAPE_FINGERPRINT>  (1) 
1 1 18338235951271410389
13380536 305 18267591208195141214
14648413 74 18192435173574222907
16945 1 18194402182512023243
17134986 127 18409732841719148180
1741750 31 18340768259942662696
19021347 4 18337954605117338162
20510252 161 18126009505352639929
20671657 1 18268153045989494237
20871998 184 17479749655090613774
21426921 1 17906174310769623140
21499 59 18409720764587700925
21524375 3 18334006224518333832
21639500 275 18192980527141883493
2306618 200 17767982178757466408
23402539 116 17767684227975361455
2748010 2 18336559286196493791
305870 269 18408319986520518072
3071541 12 18267870475532203430
3091708 16 9263621300688168042
7364860 26 18195526982812039261
81228 2 17763193835271906874
84936 182 18201432528516709985

>  <PUBCHEM_SHAPE_MULTIPOLES>  (1) 
241.74
5.01
4.08
0.58
2.14
2.72
0
-6.94
-0.01
-1.33
0
0
-0.01
0.01

>  <PUBCHEM_SHAPE_SELFOVERLAP>  (1) 
478.376

>  <PUBCHEM_SHAPE_VOLUME>  (1) 
141.5

>  <PUBCHEM_COORDINATE_TYPE>  (1) 
2
5
10

$$$$
