21320
     RDKit          3D

 27 30  0  0  1  0  0  0  0  0999 V2000
   -3.5600    3.3531    0.0690 Cl  0  0  0  0  0  0  0  0  0  0  0  0
    3.0945    0.1919    1.9853 O   0  0  0  0  0  0  0  0  0  0  0  0
    0.1273   -1.9178   -1.7745 O   0  0  0  0  0  0  0  0  0  0  0  0
    5.2793    0.3662   -0.6409 O   0  0  0  0  0  0  0  0  0  0  0  0
    6.2068   -1.8542    0.5545 O   0  0  0  0  0  0  0  0  0  0  0  0
   -5.9939   -1.0809    1.5353 O   0  0  0  0  0  0  0  0  0  0  0  0
    2.0348   -0.0081   -0.2225 C   0  0  0  0  0  0  0  0  0  0  0  0
    1.0097    1.0995    0.1373 C   0  0  0  0  0  0  0  0  0  0  0  0
   -0.3331    0.9200   -0.5864 C   0  0  0  0  0  0  0  0  0  0  0  0
   -0.9499   -0.4390   -0.1133 C   0  0  0  0  0  0  0  0  0  0  0  0
    3.2515    0.4970    0.6027 C   0  0  0  0  0  0  0  0  0  0  0  0
    1.4318   -1.3687    0.1900 C   0  0  0  0  0  0  0  0  0  0  0  0
    1.8040    2.3877   -0.0639 C   0  0  0  0  0  0  0  0  0  0  0  0
    0.0191   -1.6227   -0.3911 C   0  0  0  0  0  0  0  0  0  0  0  0
    3.2287    2.0312    0.4081 C   0  0  0  0  0  0  0  0  0  0  0  0
   -2.4376   -0.5769   -0.6040 C   0  0  0  0  0  0  0  0  0  0  0  0
    2.4164   -0.0293   -1.7315 C   0  0  0  0  0  0  0  0  0  0  0  0
   -1.2856    2.0698   -0.3686 C   0  0  0  0  0  0  0  0  0  0  0  0
    4.5642   -0.1244    0.2315 C   0  0  0  0  0  0  0  0  0  0  0  0
   -3.2145    0.5962    0.0380 C   0  0  0  0  0  0  0  0  0  0  0  0
   -2.5904    1.9178   -0.0850 C   0  0  0  0  0  0  0  0  0  0  0  0
   -2.6139   -0.4842   -2.1395 C   0  0  0  0  0  0  0  0  0  0  0  0
   -3.0191   -1.9221   -0.2011 C   0  0  0  0  0  0  0  0  0  0  0  0
    4.9500   -1.3781    0.9872 C   0  0  0  0  0  0  0  0  0  0  0  0
   -4.3531    0.4102    0.7304 C   0  0  0  0  0  0  0  0  0  0  0  0
   -4.1453   -2.0983    0.4950 C   0  0  0  0  0  0  0  0  0  0  0  0
   -4.9216   -0.9361    0.9579 C   0  0  0  0  0  0  0  0  0  0  0  0
  1 21  1  0
  2 11  1  0
  3 14  1  0
  4 19  2  0
  5 24  1  0
  6 27  2  0
  7  8  1  0
  7 11  1  0
  7 12  1  0
  7 17  1  0
  8  9  1  0
  8 13  1  0
  9 10  1  0
  9 18  1  0
 10 14  1  0
 10 16  1  0
 11 15  1  0
 11 19  1  0
 12 14  1  0
 13 15  1  0
 16 20  1  0
 16 22  1  0
 16 23  1  0
 18 21  2  0
 19 24  1  0
 20 21  1  0
 20 25  2  0
 23 26  2  0
 25 27  1  0
 26 27  1  0
M  END
>  <PUBCHEM_COMPOUND_CID>  (1) 
21320

>  <PUBCHEM_CONFORMER_RMSD>  (1) 
0.6

>  <PUBCHEM_CONFORMER_DIVERSEORDER>  (1) 
1
28
7
19
33
30
13
31
27
34
18
37
25
3
32
29
22
4
12
15
35
14
9
26
23
24
2
8
5
16
17
6
36
10
21
20
11

>  <PUBCHEM_MMFF94_PARTIAL_CHARGES>  (1) 
26
1 -0.14
11 0.34
14 0.28
16 0.28
18 -0.29
19 0.45
2 -0.68
20 -0.14
21 0.14
23 -0.29
24 0.34
25 -0.14
26 -0.14
27 0.54
3 -0.68
4 -0.57
41 0.15
45 0.4
46 0.15
47 0.4
5 -0.68
50 0.15
51 0.15
52 0.4
6 -0.57
9 0.14

>  <PUBCHEM_EFFECTIVE_ROTOR_COUNT>  (1) 
3

>  <PUBCHEM_PHARMACOPHORE_FEATURES>  (1) 
12
1 2 acceptor
1 2 donor
1 3 acceptor
1 3 donor
1 4 acceptor
1 5 acceptor
1 5 donor
1 6 acceptor
5 7 8 11 13 15 rings
6 16 20 23 25 26 27 rings
6 7 8 9 10 12 14 rings
6 9 10 16 18 20 21 rings

>  <PUBCHEM_HEAVY_ATOM_COUNT>  (1) 
27

>  <PUBCHEM_ATOM_DEF_STEREO_COUNT>  (1) 
4

>  <PUBCHEM_ATOM_UDEF_STEREO_COUNT>  (1) 
3

>  <PUBCHEM_BOND_DEF_STEREO_COUNT>  (1) 
0

>  <PUBCHEM_BOND_UDEF_STEREO_COUNT>  (1) 
0

>  <PUBCHEM_ISOTOPIC_ATOM_COUNT>  (1) 
0

>  <PUBCHEM_COMPONENT_COUNT>  (1) 
1

>  <PUBCHEM_CACTVS_TAUTO_COUNT>  (1) 
3

>  <PUBCHEM_CONFORMER_ID>  (1) 
0000534800000001

>  <PUBCHEM_MMFF94_ENERGY>  (1) 
91.0467

>  <PUBCHEM_FEATURE_SELFOVERLAP>  (1) 
61.002

>  <PUBCHEM_SHAPE_FINGERPRINT>  (1) 
10319926 262 18339911633173479896
11961588 58 11600008717695052723
12035758 1 17917422113090118666
12107183 9 17757262687541960080
12236239 1 17749112179675752292
12403259 226 18339634641726407392
12403259 415 18060697303946406088
12403814 3 18201718488071519845
12422481 6 18272658926212902267
12553582 1 18337664308388818133
12596602 18 17748829630788451576
12633257 1 17274543234242639369
12788726 201 18263383502282983097
13009979 54 18114188510098674148
13073987 5 18335136484539577640
13140716 1 18195531617498606467
13224815 77 18341047505794007637
13583140 156 17750772484924722293
13675066 3 18060416928095941208
14178342 30 18337395920388649893
14223421 5 18340214003345459029
14341114 176 18334297590836141970
14420673 8 18194119616941024498
14955137 171 18341897359826610816
15042514 8 18336827481266642128
15196674 1 18410290345564302136
15209289 33 18260265261019458954
15463212 79 12175621755018232133
15685185 35 17029678851597305676
15788980 27 18333445443533777590
16945 1 18410003351607065125
17349148 13 18201153338509423526
17492 89 18336261353031945882
1813 80 17386004013415703437
19591789 44 18410290320189890390
200 152 13623524688889907487
20028762 73 18200871897851189143
20261772 1 18271526493581525147
20739085 24 18264497341515431357
20775438 99 11895306991267569953
21033648 29 17702926077054250336
21267235 1 18408609141515938954
22182313 1 17988092071069979031
22950370 63 18261111864009491776
23522609 53 18046943508320371628
23559900 14 18339638936661470160
23845131 108 17619927063064204089
312423 11 18040722484372553764
335352 9 18410851019237811053
350125 39 18411423929120346424
392239 28 18263379104431521635
4340502 62 15051744113640050375
465052 167 18334584576198098498
5104073 3 18411409588899616760
5265222 85 18272093833972757398
57724786 102 16128083572837176152
7097593 13 17825938235342290211

>  <PUBCHEM_SHAPE_MULTIPOLES>  (1) 
528.17
11.44
2.74
1.35
4.45
1.39
-0.32
-3.8
4.45
-1.65
0.09
-0.18
-0.42
0.1

>  <PUBCHEM_SHAPE_SELFOVERLAP>  (1) 
1140.474

>  <PUBCHEM_SHAPE_VOLUME>  (1) 
290.3

>  <PUBCHEM_COORDINATE_TYPE>  (1) 
2
5
10

$$$$
