21326
     RDKit          3D

 10 10  0  0  0  0  0  0  0  0999 V2000
    0.9884    1.7626   -0.2798 S   0  0  0  0  0  0  0  0  0  0  0  0
   -3.3690    0.0161   -0.2274 O   0  0  0  0  0  0  0  0  0  0  0  0
   -1.7425    0.1097    1.3549 O   0  0  0  0  0  0  0  0  0  0  0  0
    2.4210   -0.2973    0.3421 N   0  0  0  0  0  0  0  0  0  0  0  0
    0.2867    0.2096   -0.4715 C   0  0  0  0  0  0  0  0  0  0  0  0
   -1.0939    0.0734   -0.9774 C   0  0  0  0  0  0  0  0  0  0  0  0
    1.1934   -0.7579   -0.0919 C   0  0  0  0  0  0  0  0  0  0  0  0
    0.9653   -2.2174   -0.1109 C   0  0  0  0  0  0  0  0  0  0  0  0
    2.4264    1.0159    0.2854 C   0  0  0  0  0  0  0  0  0  0  0  0
   -2.0759    0.0852    0.1766 C   0  0  0  0  0  0  0  0  0  0  0  0
  1  5  1  0
  1  9  1  0
  2 10  1  0
  3 10  2  0
  4  7  1  0
  4  9  2  0
  5  6  1  0
  5  7  2  0
  6 10  1  0
  7  8  1  0
M  END
>  <PUBCHEM_COMPOUND_CID>  (1) 
21326

>  <PUBCHEM_CONFORMER_RMSD>  (1) 
0.4

>  <PUBCHEM_CONFORMER_DIVERSEORDER>  (1) 
2
18
11
20
12
14
19
13
10
9
17
3
16
15
6
4
1
5
8
7

>  <PUBCHEM_MMFF94_PARTIAL_CHARGES>  (1) 
12
1 -0.08
10 0.66
16 0.15
17 0.5
2 -0.65
3 -0.57
4 -0.57
5 -0.14
6 0.24
7 0.05
8 0.18
9 0.23

>  <PUBCHEM_EFFECTIVE_ROTOR_COUNT>  (1) 
2

>  <PUBCHEM_PHARMACOPHORE_FEATURES>  (1) 
5
1 2 acceptor
1 3 acceptor
1 4 acceptor
3 2 3 10 anion
5 1 4 5 7 9 rings

>  <PUBCHEM_HEAVY_ATOM_COUNT>  (1) 
10

>  <PUBCHEM_ATOM_DEF_STEREO_COUNT>  (1) 
0

>  <PUBCHEM_ATOM_UDEF_STEREO_COUNT>  (1) 
0

>  <PUBCHEM_BOND_DEF_STEREO_COUNT>  (1) 
0

>  <PUBCHEM_BOND_UDEF_STEREO_COUNT>  (1) 
0

>  <PUBCHEM_ISOTOPIC_ATOM_COUNT>  (1) 
0

>  <PUBCHEM_COMPONENT_COUNT>  (1) 
1

>  <PUBCHEM_CACTVS_TAUTO_COUNT>  (1) 
1

>  <PUBCHEM_CONFORMER_ID>  (1) 
0000534E00000002

>  <PUBCHEM_MMFF94_ENERGY>  (1) 
7.6847

>  <PUBCHEM_FEATURE_SELFOVERLAP>  (1) 
25.43

>  <PUBCHEM_SHAPE_FINGERPRINT>  (1) 
10219947 1 18408321094679946772
12423570 1 11029119143306642860
15775835 57 17988925621164366745
161256 15 18198345048663209222
16945 1 18410018723210621196
20201158 50 18114178605787641875
20653085 51 16198767893678510816
20871998 22 17911521991392222990
21040471 1 18194963178476773660
23235685 24 18339356469816534352
29004967 10 18261394416595797216
5084963 1 18131631213868912292

>  <PUBCHEM_SHAPE_MULTIPOLES>  (1) 
192.93
3.76
1.7
0.9
2.24
0.57
0.09
-0.47
0.5
-1.12
-0.12
0.31
-0.06
0.01

>  <PUBCHEM_SHAPE_SELFOVERLAP>  (1) 
381.636

>  <PUBCHEM_SHAPE_VOLUME>  (1) 
117

>  <PUBCHEM_COORDINATE_TYPE>  (1) 
2
5
10

$$$$
