21328
     RDKit          3D

  9 10  0  0  1  0  0  0  0  0999 V2000
    0.3146   -0.4999    1.3816 O   0  0  0  0  0  0  0  0  0  0  0  0
   -0.6354   -1.1639   -0.5730 O   0  0  0  0  0  0  0  0  0  0  0  0
   -2.3336    0.3895   -0.5589 O   0  0  0  0  0  0  0  0  0  0  0  0
   -0.3899    0.6438    0.8872 C   0  0  0  0  0  0  0  0  0  0  0  0
    0.6171    1.5882    0.2359 C   0  0  0  0  0  0  0  0  0  0  0  0
    0.5598   -1.2432    0.1927 C   0  0  0  0  0  0  0  0  0  0  0  0
    1.4097    0.8895   -0.8812 C   0  0  0  0  0  0  0  0  0  0  0  0
    1.7250   -0.5768   -0.5465 C   0  0  0  0  0  0  0  0  0  0  0  0
   -1.2672   -0.0273   -0.1378 C   0  0  0  0  0  0  0  0  0  0  0  0
  1  4  1  0
  1  6  1  0
  2  6  1  0
  2  9  1  0
  3  9  2  0
  4  5  1  0
  4  9  1  0
  5  7  1  0
  6  8  1  0
  7  8  1  0
M  END
>  <PUBCHEM_COMPOUND_CID>  (1) 
21328

>  <PUBCHEM_CONFORMER_RMSD>  (1) 
0.4

>  <PUBCHEM_CONFORMER_DIVERSEORDER>  (1) 
1
2

>  <PUBCHEM_MMFF94_PARTIAL_CHARGES>  (1) 
6
1 -0.56
2 -0.43
3 -0.57
4 0.34
6 0.56
9 0.66

>  <PUBCHEM_EFFECTIVE_ROTOR_COUNT>  (1) 
1

>  <PUBCHEM_PHARMACOPHORE_FEATURES>  (1) 
3
1 1 acceptor
1 3 acceptor
8 1 2 4 5 6 7 8 9 rings

>  <PUBCHEM_HEAVY_ATOM_COUNT>  (1) 
9

>  <PUBCHEM_ATOM_DEF_STEREO_COUNT>  (1) 
0

>  <PUBCHEM_ATOM_UDEF_STEREO_COUNT>  (1) 
2

>  <PUBCHEM_BOND_DEF_STEREO_COUNT>  (1) 
0

>  <PUBCHEM_BOND_UDEF_STEREO_COUNT>  (1) 
0

>  <PUBCHEM_ISOTOPIC_ATOM_COUNT>  (1) 
0

>  <PUBCHEM_COMPONENT_COUNT>  (1) 
1

>  <PUBCHEM_CACTVS_TAUTO_COUNT>  (1) 
1

>  <PUBCHEM_CONFORMER_ID>  (1) 
0000535000000001

>  <PUBCHEM_MMFF94_ENERGY>  (1) 
11.6818

>  <PUBCHEM_FEATURE_SELFOVERLAP>  (1) 
15.223

>  <PUBCHEM_SHAPE_FINGERPRINT>  (1) 
12423570 1 12678308519481325898
13024252 1 17246417851490075748
137420 1 12066747666584493114
16945 1 18187936018926741228
18185500 45 18270404867029998598
21040471 1 18264765643700435229
29004967 10 18337963289536072499
5084963 1 17822865276240830797
5943 1 14789101223854569034

>  <PUBCHEM_SHAPE_MULTIPOLES>  (1) 
167.61
2.01
1.42
1.04
0.51
0.13
-0.2
0.14
0.72
-0.33
-0.03
-0.01
0.01
-0.08

>  <PUBCHEM_SHAPE_SELFOVERLAP>  (1) 
356.151

>  <PUBCHEM_SHAPE_VOLUME>  (1) 
93.6

>  <PUBCHEM_COORDINATE_TYPE>  (1) 
2
5
10

$$$$
