21336
     RDKit          3D

 15 17  0  0  0  0  0  0  0  0999 V2000
    2.7246   -0.4949    0.1845 O   0  0  0  0  0  0  0  0  0  0  0  0
    2.4763    1.8867   -0.0801 O   0  0  0  0  0  0  0  0  0  0  0  0
    0.5115   -2.2950    0.3343 O   0  0  0  0  0  0  0  0  0  0  0  0
   -3.3703   -0.6492    0.0742 N   0  0  0  0  0  0  0  0  0  0  0  0
    1.4195   -0.1151    0.1163 C   0  0  0  0  0  0  0  0  0  0  0  0
   -0.9534   -0.3838    0.0956 C   0  0  0  0  0  0  0  0  0  0  0  0
    1.2776    1.2433   -0.0347 C   0  0  0  0  0  0  0  0  0  0  0  0
   -1.1042    1.0206   -0.0604 C   0  0  0  0  0  0  0  0  0  0  0  0
    0.3281   -0.9562    0.1849 C   0  0  0  0  0  0  0  0  0  0  0  0
    0.0361    1.8406   -0.1258 C   0  0  0  0  0  0  0  0  0  0  0  0
    3.3888    0.7788    0.0595 C   0  0  0  0  0  0  0  0  0  0  0  0
   -2.3939    1.5547   -0.1455 C   0  0  0  0  0  0  0  0  0  0  0  0
   -2.1173   -1.1511    0.1548 C   0  0  0  0  0  0  0  0  0  0  0  0
   -3.4748    0.6890   -0.0737 C   0  0  0  0  0  0  0  0  0  0  0  0
    1.2516   -2.9683   -0.6839 C   0  0  0  0  0  0  0  0  0  0  0  0
  1  5  1  0
  1 11  1  0
  2  7  1  0
  2 11  1  0
  3  9  1  0
  3 15  1  0
  4 13  2  0
  4 14  1  0
  5  7  2  0
  5  9  1  0
  6  8  1  0
  6  9  2  0
  6 13  1  0
  7 10  1  0
  8 10  2  0
  8 12  1  0
 12 14  2  0
M  END
>  <PUBCHEM_COMPOUND_CID>  (1) 
21336

>  <PUBCHEM_CONFORMER_RMSD>  (1) 
0.6

>  <PUBCHEM_CONFORMER_DIVERSEORDER>  (1) 
1

>  <PUBCHEM_MMFF94_PARTIAL_CHARGES>  (1) 
17
1 -0.36
10 -0.15
11 0.56
12 -0.15
13 0.16
14 0.16
15 0.28
16 0.15
19 0.15
2 -0.36
20 0.15
21 0.15
3 -0.36
4 -0.62
5 0.08
7 0.08
9 0.08

>  <PUBCHEM_EFFECTIVE_ROTOR_COUNT>  (1) 
1.6

>  <PUBCHEM_PHARMACOPHORE_FEATURES>  (1) 
7
1 1 acceptor
1 2 acceptor
1 3 acceptor
1 4 acceptor
5 1 2 5 7 11 rings
6 4 6 8 12 13 14 rings
6 5 6 7 8 9 10 rings

>  <PUBCHEM_HEAVY_ATOM_COUNT>  (1) 
15

>  <PUBCHEM_ATOM_DEF_STEREO_COUNT>  (1) 
0

>  <PUBCHEM_ATOM_UDEF_STEREO_COUNT>  (1) 
0

>  <PUBCHEM_BOND_DEF_STEREO_COUNT>  (1) 
0

>  <PUBCHEM_BOND_UDEF_STEREO_COUNT>  (1) 
0

>  <PUBCHEM_ISOTOPIC_ATOM_COUNT>  (1) 
0

>  <PUBCHEM_COMPONENT_COUNT>  (1) 
1

>  <PUBCHEM_CACTVS_TAUTO_COUNT>  (1) 
1

>  <PUBCHEM_CONFORMER_ID>  (1) 
0000535800000001

>  <PUBCHEM_MMFF94_ENERGY>  (1) 
52.9544

>  <PUBCHEM_FEATURE_SELFOVERLAP>  (1) 
35.708

>  <PUBCHEM_SHAPE_FINGERPRINT>  (1) 
1 1 18412261731384656646
10608611 8 18335979770849987661
10967382 1 18410292510195839523
11132069 177 18409441505365507600
11471102 20 18410005516597837637
12524768 44 18263646160764759691
13140716 1 18410008853407722752
13380535 21 18338528421670399185
13380535 76 18408037416353468787
13897977 150 18409444761209154693
14325111 11 18409166644659700505
14614273 12 18260821584139133341
15001771 113 17910117901883798720
15219456 202 18337393734249932407
15309172 13 18339652255386736321
15442244 35 17908706133544237201
15536298 74 18271243798739241342
15775835 57 18412267276103111041
16945 1 18338799992183694785
17990270 104 18266737974387493755
18186145 218 18272660068621624376
193761 8 17978228262089513688
20201158 50 18408882906535489467
20510252 161 18272092763423854145
20588541 1 18335986389304582145
20645476 183 17606134007019140926
20645477 70 18338509730357862159
20871998 184 18050859002370218347
21501502 16 18266456516759191035
2334 1 18265614466661422896
23402539 116 18270952561676426508
23402655 69 18339908339445578453
23419403 2 7908826497868650316
23463225 33 18334008376528901840
23552423 10 18264490594253262191
23559900 14 18199194052762403188
2748010 2 18337111279735978124
43471831 8 18408318886998444874
528886 8 18410287038412961241
53812653 166 18413385440710621777
54173680 148 17903920307257822570
7364860 26 18270117890237306342
81228 2 17404290193245332114
84936 31 16987424301375599350
8809292 202 18186807997490930883

>  <PUBCHEM_SHAPE_MULTIPOLES>  (1) 
286.1
4.89
2.57
0.64
1.23
1.42
-0.03
-1.1
0.02
-1.07
-0.34
-0.03
0.09
0.23

>  <PUBCHEM_SHAPE_SELFOVERLAP>  (1) 
643.885

>  <PUBCHEM_SHAPE_VOLUME>  (1) 
151.3

>  <PUBCHEM_COORDINATE_TYPE>  (1) 
2
5
10

$$$$
