21334
     RDKit          3D

 34 38  0  0  0  0  0  0  0  0999 V2000
    3.1107   -1.7620   -1.1470 O   0  0  0  0  0  0  0  0  0  0  0  0
   -3.0913    1.7639   -1.1417 O   0  0  0  0  0  0  0  0  0  0  0  0
    9.9621    1.0234    1.0060 N   0  0  0  0  0  0  0  0  0  0  0  0
   -9.9642   -1.0281    1.0026 N   0  0  0  0  0  0  0  0  0  0  0  0
    9.9368   -0.9914   -0.0294 N   0  0  0  0  0  0  0  0  0  0  0  0
   -9.9390    0.9889   -0.0282 N   0  0  0  0  0  0  0  0  0  0  0  0
    3.6243    0.2535   -0.0610 N   0  0  0  0  0  0  0  0  0  0  0  0
   -3.6260   -0.2533   -0.0588 N   0  0  0  0  0  0  0  0  0  0  0  0
   11.3584    0.7054    0.9992 C   0  0  0  0  0  0  0  0  0  0  0  0
  -11.3606   -0.7108    0.9956 C   0  0  0  0  0  0  0  0  0  0  0  0
    9.2383    0.0253    0.4176 C   0  0  0  0  0  0  0  0  0  0  0  0
   -9.2405   -0.0284    0.4170 C   0  0  0  0  0  0  0  0  0  0  0  0
   11.3535   -0.6516    0.2900 C   0  0  0  0  0  0  0  0  0  0  0  0
  -11.3558    0.6478    0.2897 C   0  0  0  0  0  0  0  0  0  0  0  0
    7.7906    0.0833    0.2946 C   0  0  0  0  0  0  0  0  0  0  0  0
   -7.7926   -0.0857    0.2947 C   0  0  0  0  0  0  0  0  0  0  0  0
    7.0931    1.1871    0.7854 C   0  0  0  0  0  0  0  0  0  0  0  0
   -7.0948   -1.1902    0.7834 C   0  0  0  0  0  0  0  0  0  0  0  0
    7.0995   -0.9639   -0.3149 C   0  0  0  0  0  0  0  0  0  0  0  0
   -7.1016    0.9632   -0.3120 C   0  0  0  0  0  0  0  0  0  0  0  0
    5.0345    0.1956    0.0591 C   0  0  0  0  0  0  0  0  0  0  0  0
   -5.0151   -0.1972    0.0587 C   0  0  0  0  0  0  0  0  0  0  0  0
    5.7043    1.2436    0.6668 C   0  0  0  0  0  0  0  0  0  0  0  0
   -5.7062   -1.2459    0.6654 C   0  0  0  0  0  0  0  0  0  0  0  0
    5.7108   -0.9072   -0.4336 C   0  0  0  0  0  0  0  0  0  0  0  0
   -5.7128    0.9074   -0.4300 C   0  0  0  0  0  0  0  0  0  0  0  0
    1.3471   -0.3343   -0.6348 C   0  0  0  0  0  0  0  0  0  0  0  0
   -1.3276    0.3352   -0.6327 C   0  0  0  0  0  0  0  0  0  0  0  0
    2.7577   -0.6875   -0.6346 C   0  0  0  0  0  0  0  0  0  0  0  0
   -2.7696    0.6960   -0.6320 C   0  0  0  0  0  0  0  0  0  0  0  0
    0.9638    1.0069   -0.6327 C   0  0  0  0  0  0  0  0  0  0  0  0
   -0.3894    1.3457   -0.6316 C   0  0  0  0  0  0  0  0  0  0  0  0
    0.3773   -1.3367   -0.6359 C   0  0  0  0  0  0  0  0  0  0  0  0
   -0.9759   -0.9981   -0.6349 C   0  0  0  0  0  0  0  0  0  0  0  0
  1 29  2  0
  2 30  2  0
  3  9  1  0
  3 11  1  0
  4 10  1  0
  4 12  1  0
  5 11  2  0
  5 13  1  0
  6 12  2  0
  6 14  1  0
  7 21  1  0
  7 29  1  0
  8 22  1  0
  8 30  1  0
  9 13  1  0
 10 14  1  0
 11 15  1  0
 12 16  1  0
 15 17  2  0
 15 19  1  0
 16 18  2  0
 16 20  1  0
 17 23  1  0
 18 24  1  0
 19 25  2  0
 20 26  2  0
 21 23  2  0
 21 25  1  0
 22 24  2  0
 22 26  1  0
 27 29  1  0
 27 31  2  0
 27 33  1  0
 28 30  1  0
 28 32  2  0
 28 34  1  0
 31 32  1  0
 33 34  2  0
M  END
>  <PUBCHEM_COMPOUND_CID>  (1) 
21334

>  <PUBCHEM_CONFORMER_RMSD>  (1) 
1

>  <PUBCHEM_CONFORMER_DIVERSEORDER>  (1) 
2
1
3

>  <PUBCHEM_MMFF94_PARTIAL_CHARGES>  (1) 
50
1 -0.57
10 0.37
11 0.41
12 0.41
13 0.25
14 0.25
15 0.09
16 0.09
17 -0.15
18 -0.15
19 -0.15
2 -0.57
20 -0.15
21 0.12
22 0.12
23 -0.15
24 -0.15
25 -0.15
26 -0.15
27 0.09
28 0.09
29 0.54
3 -0.82
30 0.54
31 -0.15
32 -0.15
33 -0.15
34 -0.15
4 -0.82
43 0.4
44 0.4
45 0.15
46 0.15
47 0.15
48 0.15
49 0.15
5 -0.7
50 0.15
51 0.15
52 0.15
53 0.37
54 0.37
55 0.15
56 0.15
57 0.15
58 0.15
6 -0.7
7 -0.55
8 -0.55
9 0.37

>  <PUBCHEM_EFFECTIVE_ROTOR_COUNT>  (1) 
9.2

>  <PUBCHEM_PHARMACOPHORE_FEATURES>  (1) 
13
1 1 acceptor
1 2 acceptor
1 3 donor
1 4 donor
1 7 donor
1 8 donor
3 3 5 11 cation
3 4 6 12 cation
5 3 5 9 11 13 rings
5 4 6 10 12 14 rings
6 15 17 19 21 23 25 rings
6 16 18 20 22 24 26 rings
6 27 28 31 32 33 34 rings

>  <PUBCHEM_HEAVY_ATOM_COUNT>  (1) 
34

>  <PUBCHEM_ATOM_DEF_STEREO_COUNT>  (1) 
0

>  <PUBCHEM_ATOM_UDEF_STEREO_COUNT>  (1) 
0

>  <PUBCHEM_BOND_DEF_STEREO_COUNT>  (1) 
0

>  <PUBCHEM_BOND_UDEF_STEREO_COUNT>  (1) 
0

>  <PUBCHEM_ISOTOPIC_ATOM_COUNT>  (1) 
0

>  <PUBCHEM_COMPONENT_COUNT>  (1) 
1

>  <PUBCHEM_CACTVS_TAUTO_COUNT>  (1) 
6

>  <PUBCHEM_CONFORMER_ID>  (1) 
0000535600000002

>  <PUBCHEM_MMFF94_ENERGY>  (1) 
125.8266

>  <PUBCHEM_FEATURE_SELFOVERLAP>  (1) 
65.974

>  <PUBCHEM_SHAPE_FINGERPRINT>  (1) 
10 15 18413106160451571839
10165383 225 17275384304930017814
10580692 12 18343865493723725690
106641 1 18410573985151451253
10674148 151 17676207983776607977
10883706 142 16702584922268171428
11408170 108 14924217188989193952
12013929 2 18410856546754887898
12498461 61 18261677069660345523
12664476 115 15769774649950990360
12741549 16 17894631457022922717
13383668 1 11819539417712360032
13740195 50 18411981372956998800
14150022 121 18342177713707016297
14251764 46 18411138034621781490
14344974 52 11312048851131045339
15061470 23 16845577492214276809
15065858 18 18187079529375465799
15247644 1 15719392832343060794
15274700 256 17748825219767770677
15343295 20 18410011048093643788
15510794 2 18409169891633877366
155225 1 15410897361764485546
16728433 110 18335419089056251076
16992610 120 13110962033270491397
19315958 150 17775010072615330159
19841028 212 17313660447718421883
20501277 279 18273214200943649658
21057603 130 15140962885312291186
21102433 48 16008744715024650050
21362267 2 17774425162262600721
21792934 111 18410009948666912276
21895431 317 15647323114535641472
232437 2 17385723594963790065
23399689 5 14764350448477683794
23528940 14 18041849524171172363
23581129 1 18409449184756236299
3092352 35 15574433219389845568
3991529 128 15051736404611590515
4874694 18 18410294710005968567
5028188 123 12247671678840687465
57828716 8 15864067689207214347
58083652 198 11963682088761424470
59521099 67 12468646032549809710
59521270 166 15213011645493813775
6126387 218 18413673501037657449
6673363 416 10159704582457413499
6691757 9 16081378422891028577
67123 10 18410575084663078925
9663363 56 18187081750939174565

>  <PUBCHEM_SHAPE_MULTIPOLES>  (1) 
658.08
48.92
1.4
0.97
0.07
0
-0.03
-0.08
-19.12
0.01
0.12
-0.01
0
2.19

>  <PUBCHEM_SHAPE_SELFOVERLAP>  (1) 
1452.458

>  <PUBCHEM_SHAPE_VOLUME>  (1) 
354.2

>  <PUBCHEM_COORDINATE_TYPE>  (1) 
2
5
10

$$$$
