21345
     RDKit          3D

 16 18  0  0  0  0  0  0  0  0999 V2000
   -1.9426    1.9797   -0.5559 N   0  0  0  0  0  0  0  0  0  0  0  0
    3.9240    0.6185   -0.7098 N   0  0  0  0  0  0  0  0  0  0  0  0
   -0.4121    0.9088    0.6431 C   0  0  0  0  0  0  0  0  0  0  0  0
   -1.4691    0.0001    0.3573 C   0  0  0  0  0  0  0  0  0  0  0  0
    0.8125    0.6189    1.4164 C   0  0  0  0  0  0  0  0  0  0  0  0
   -2.4163    0.6970   -0.3960 C   0  0  0  0  0  0  0  0  0  0  0  0
   -0.7321    2.1174    0.0687 C   0  0  0  0  0  0  0  0  0  0  0  0
    1.9789    0.1125    0.5810 C   0  0  0  0  0  0  0  0  0  0  0  0
   -1.7117   -1.3527    0.6679 C   0  0  0  0  0  0  0  0  0  0  0  0
   -3.5985    0.1063   -0.8559 C   0  0  0  0  0  0  0  0  0  0  0  0
   -2.8902   -1.9566    0.2149 C   0  0  0  0  0  0  0  0  0  0  0  0
   -3.8177   -1.2364   -0.5352 C   0  0  0  0  0  0  0  0  0  0  0  0
    2.1329   -1.2357    0.3706 C   0  0  0  0  0  0  0  0  0  0  0  0
    2.8682    1.0021    0.0423 C   0  0  0  0  0  0  0  0  0  0  0  0
    3.2074   -1.6692   -0.3982 C   0  0  0  0  0  0  0  0  0  0  0  0
    4.0665   -0.7108   -0.9111 C   0  0  0  0  0  0  0  0  0  0  0  0
  1  6  1  0
  1  7  1  0
  2 14  2  0
  2 16  1  0
  3  4  1  0
  3  5  1  0
  3  7  2  0
  4  6  2  0
  4  9  1  0
  5  8  1  0
  6 10  1  0
  8 13  2  0
  8 14  1  0
  9 11  2  0
 10 12  2  0
 11 12  1  0
 13 15  1  0
 15 16  2  0
M  END
>  <PUBCHEM_COMPOUND_CID>  (1) 
21345

>  <PUBCHEM_CONFORMER_RMSD>  (1) 
0.6

>  <PUBCHEM_CONFORMER_DIVERSEORDER>  (1) 
1
7
13
5
12
6
14
8
2
11
3
4
10
9

>  <PUBCHEM_MMFF94_PARTIAL_CHARGES>  (1) 
25
1 0.03
10 -0.15
11 -0.15
12 -0.15
13 -0.15
14 0.16
15 -0.15
16 0.16
19 0.15
2 -0.62
20 0.27
21 0.15
22 0.15
23 0.15
24 0.15
25 0.15
26 0.15
27 0.15
28 0.15
3 -0.18
5 0.32
6 -0.15
7 -0.3
8 -0.14
9 -0.15

>  <PUBCHEM_EFFECTIVE_ROTOR_COUNT>  (1) 
2

>  <PUBCHEM_PHARMACOPHORE_FEATURES>  (1) 
6
1 1 cation
1 1 donor
1 2 acceptor
5 1 3 4 6 7 rings
6 2 8 13 14 15 16 rings
6 4 6 9 10 11 12 rings

>  <PUBCHEM_HEAVY_ATOM_COUNT>  (1) 
16

>  <PUBCHEM_ATOM_DEF_STEREO_COUNT>  (1) 
0

>  <PUBCHEM_ATOM_UDEF_STEREO_COUNT>  (1) 
0

>  <PUBCHEM_BOND_DEF_STEREO_COUNT>  (1) 
0

>  <PUBCHEM_BOND_UDEF_STEREO_COUNT>  (1) 
0

>  <PUBCHEM_ISOTOPIC_ATOM_COUNT>  (1) 
0

>  <PUBCHEM_COMPONENT_COUNT>  (1) 
1

>  <PUBCHEM_CACTVS_TAUTO_COUNT>  (1) 
1

>  <PUBCHEM_CONFORMER_ID>  (1) 
0000536100000001

>  <PUBCHEM_MMFF94_ENERGY>  (1) 
37.1547

>  <PUBCHEM_FEATURE_SELFOVERLAP>  (1) 
30.538

>  <PUBCHEM_SHAPE_FINGERPRINT>  (1) 
10465860 71 18187643643455103525
10498660 4 18113893866561849015
10616163 171 18341334405114303966
10764073 3 16968912829110208491
10799339 124 10519988162340299380
11127187 94 18408601453123416175
11543360 7 18187652422536918852
12173636 292 18190733129443096213
12670546 177 17968377952248938940
12707595 3 17489863834862891768
12892183 10 11455889161305128356
13296908 3 17703782617976314952
14790565 3 18121782730012800525
15239191 94 17489586770522357518
16752209 62 18264188237404027905
16945 1 18334563634306873865
17134986 127 17394435906318067741
18186145 218 17603864498638523529
19862831 5 17603583015193334082
200 152 17917710197319780186
20281475 54 18272652350522968219
20361792 2 16272201973110796784
20374829 77 18341324544043283499
20645477 70 17632285809091232125
20871999 31 18333446547783426013
21065199 12 9727628406397627156
21713013 43 18411139121406873886
221490 88 18411989070187323834
22721475 48 18272653445639388827
22802520 49 18413103952827643897
23402539 116 18040709295107833512
23403322 49 18200877279539558518
23500284 214 10953455215390439199
23557571 272 18339907260823406600
23559900 14 18411129230524569160
27216 239 11098157585519763950
2748010 2 17686896533161009969
2871803 45 18410009953077651150
3082319 5 18260831462542541930
4028521 119 17822006488918877767
4921388 177 17386017190581271219
5262128 65 18335152989703387284
58051976 378 18410291454209047100
7364860 26 17979068620081554209
81228 2 18335414660602045345
83771 10 18272655687765233203
93112 12 18335422322765107028
9709674 26 18412266099498518814

>  <PUBCHEM_SHAPE_MULTIPOLES>  (1) 
319.31
7.45
2.05
1.01
2.66
0.08
0.1
-2.66
-2.67
-0.7
-0.05
0.14
0.03
0.43

>  <PUBCHEM_SHAPE_SELFOVERLAP>  (1) 
709.825

>  <PUBCHEM_SHAPE_VOLUME>  (1) 
171.2

>  <PUBCHEM_COORDINATE_TYPE>  (1) 
2
5
10

$$$$
