21344
     RDKit          3D

 17 19  0  0  0  0  0  0  0  0999 V2000
   -1.0061    0.9360    1.5310 O   0  0  0  0  0  0  0  0  0  0  0  0
   -3.9142    0.8410   -1.1663 N   0  0  0  0  0  0  0  0  0  0  0  0
    1.9642   -2.0140   -0.1087 N   0  0  0  0  0  0  0  0  0  0  0  0
   -2.1581   -0.8516    0.4626 C   0  0  0  0  0  0  0  0  0  0  0  0
   -2.2449   -0.9815   -1.0596 C   0  0  0  0  0  0  0  0  0  0  0  0
   -3.4151   -0.1869    1.0276 C   0  0  0  0  0  0  0  0  0  0  0  0
   -2.6662    0.3274   -1.7298 C   0  0  0  0  0  0  0  0  0  0  0  0
   -3.7869    1.0885    0.2695 C   0  0  0  0  0  0  0  0  0  0  0  0
   -0.9245   -0.0937    0.8653 C   0  0  0  0  0  0  0  0  0  0  0  0
    0.4104   -0.6073    0.4469 C   0  0  0  0  0  0  0  0  0  0  0  0
    1.5443    0.1559    0.1948 C   0  0  0  0  0  0  0  0  0  0  0  0
    2.5346   -0.7622   -0.1612 C   0  0  0  0  0  0  0  0  0  0  0  0
    0.6512   -1.9193    0.2673 C   0  0  0  0  0  0  0  0  0  0  0  0
    1.8684    1.5270    0.2214 C   0  0  0  0  0  0  0  0  0  0  0  0
    3.8381   -0.3761   -0.4931 C   0  0  0  0  0  0  0  0  0  0  0  0
    3.1683    1.9277   -0.1082 C   0  0  0  0  0  0  0  0  0  0  0  0
    4.1364    0.9891   -0.4598 C   0  0  0  0  0  0  0  0  0  0  0  0
  1  9  2  0
  2  7  1  0
  2  8  1  0
  3 12  1  0
  3 13  1  0
  4  5  1  0
  4  6  1  0
  4  9  1  0
  5  7  1  0
  6  8  1  0
  9 10  1  0
 10 11  1  0
 10 13  2  0
 11 12  2  0
 11 14  1  0
 12 15  1  0
 14 16  2  0
 15 17  2  0
 16 17  1  0
M  END
>  <PUBCHEM_COMPOUND_CID>  (1) 
21344

>  <PUBCHEM_CONFORMER_RMSD>  (1) 
0.6

>  <PUBCHEM_CONFORMER_DIVERSEORDER>  (1) 
1
30
29
17
10
32
6
26
11
3
25
8
31
27
7
23
24
9
16
19
20
18
28
21
14
22
2
15
4
5
12
13

>  <PUBCHEM_MMFF94_PARTIAL_CHARGES>  (1) 
21
1 -0.57
10 -0.09
12 -0.15
13 -0.3
14 -0.15
15 -0.15
16 -0.15
17 -0.15
2 -0.9
27 0.36
28 0.15
29 0.27
3 0.03
30 0.15
31 0.15
32 0.15
33 0.15
4 0.06
7 0.27
8 0.27
9 0.6

>  <PUBCHEM_EFFECTIVE_ROTOR_COUNT>  (1) 
3.2

>  <PUBCHEM_PHARMACOPHORE_FEATURES>  (1) 
8
1 1 acceptor
1 2 cation
1 2 donor
1 3 cation
1 3 donor
5 3 10 11 12 13 rings
6 11 12 14 15 16 17 rings
6 2 4 5 6 7 8 rings

>  <PUBCHEM_HEAVY_ATOM_COUNT>  (1) 
17

>  <PUBCHEM_ATOM_DEF_STEREO_COUNT>  (1) 
0

>  <PUBCHEM_ATOM_UDEF_STEREO_COUNT>  (1) 
0

>  <PUBCHEM_BOND_DEF_STEREO_COUNT>  (1) 
0

>  <PUBCHEM_BOND_UDEF_STEREO_COUNT>  (1) 
0

>  <PUBCHEM_ISOTOPIC_ATOM_COUNT>  (1) 
0

>  <PUBCHEM_COMPONENT_COUNT>  (1) 
1

>  <PUBCHEM_CACTVS_TAUTO_COUNT>  (1) 
5

>  <PUBCHEM_CONFORMER_ID>  (1) 
0000536000000001

>  <PUBCHEM_MMFF94_ENERGY>  (1) 
26.3487

>  <PUBCHEM_FEATURE_SELFOVERLAP>  (1) 
40.689

>  <PUBCHEM_SHAPE_FINGERPRINT>  (1) 
10465860 71 16271924943419865097
10498660 4 17676753315352103741
10608611 8 18259703397798167285
10646746 165 17385721378982302348
11471102 20 18410857642361912302
11543360 7 15554168172513708224
11796584 16 14404640761544062188
12236239 1 17703794699571495499
12403259 415 18262806280052763528
12654215 9 18334573525816776004
12730499 353 18187366498280226427
13581323 91 14273456993671936146
13583140 156 16951671674863683832
13693222 15 8358255964741536797
13764800 53 16515962567407403197
14289901 80 16298390188163192546
15219456 202 18113056025748126627
15775835 57 18411984675802511212
16752209 62 16773235059823533449
16945 1 18341892978722715458
18186145 218 18412548742753410366
19862831 5 17917711309536974828
200 152 17917711296910509760
20281407 28 12535357800197719416
20645476 183 17988918977261365015
20645477 70 18341338799124388414
20871999 31 17346311644143411703
21639500 275 18411978091907887480
23114952 82 18262799545232749078
231179 274 18113054939516955208
23402539 116 17917996092313769032
23402655 69 18272940418533090268
23419403 2 12988244848761714106
23493267 7 17749105629766178248
23557571 272 17458071486400527787
23559900 14 17917153914089512992
23598291 2 17628092104344794834
25 1 18408041805783580522
2748010 2 17980773941314938986
3082319 5 17704351082530470727
4028521 119 18040987411267521645
474 4 18337394936751390456
4921388 177 15698004080304004303
633830 44 18200607968068186820
74978 22 17203317953479919427
77492 1 17775568610988004043
81228 2 16677230986990432890
90525 40 17488472883844568425
9981440 41 17339262838528336040

>  <PUBCHEM_SHAPE_MULTIPOLES>  (1) 
334.02
7.61
1.77
1.2
0.11
0.17
-0.2
-2.65
-1.56
-1.04
0.01
1.2
-0.15
0.14

>  <PUBCHEM_SHAPE_SELFOVERLAP>  (1) 
730.98

>  <PUBCHEM_SHAPE_VOLUME>  (1) 
179.6

>  <PUBCHEM_COORDINATE_TYPE>  (1) 
2
5
10

$$$$
