21356
     RDKit          3D

 12 13  0  0  0  0  0  0  0  0999 V2000
    3.3050    1.5827    0.0003 Cl  0  0  0  0  0  0  0  0  0  0  0  0
    3.2471   -1.6481    0.0005 Cl  0  0  0  0  0  0  0  0  0  0  0  0
   -1.8730   -1.1581   -0.0002 O   0  0  0  0  0  0  0  0  0  0  0  0
   -3.8767   -0.0030    0.0010 O   0  0  0  0  0  0  0  0  0  0  0  0
   -1.8459    1.1401   -0.0001 N   0  0  0  0  0  0  0  0  0  0  0  0
   -0.5431    0.7176   -0.0003 C   0  0  0  0  0  0  0  0  0  0  0  0
   -0.5791   -0.6602   -0.0004 C   0  0  0  0  0  0  0  0  0  0  0  0
    0.6307    1.4362   -0.0002 C   0  0  0  0  0  0  0  0  0  0  0  0
    0.5784   -1.4079   -0.0003 C   0  0  0  0  0  0  0  0  0  0  0  0
    1.8171    0.6988   -0.0001 C   0  0  0  0  0  0  0  0  0  0  0  0
    1.7915   -0.7113    0.0001 C   0  0  0  0  0  0  0  0  0  0  0  0
   -2.6521    0.0132   -0.0002 C   0  0  0  0  0  0  0  0  0  0  0  0
  1 10  1  0
  2 11  1  0
  3  7  1  0
  3 12  1  0
  4 12  2  0
  5  6  1  0
  5 12  1  0
  6  7  2  0
  6  8  1  0
  7  9  1  0
  8 10  2  0
  9 11  2  0
 10 11  1  0
M  END
>  <PUBCHEM_COMPOUND_CID>  (1) 
21356

>  <PUBCHEM_CONFORMER_RMSD>  (1) 
0.4

>  <PUBCHEM_CONFORMER_DIVERSEORDER>  (1) 
1

>  <PUBCHEM_MMFF94_PARTIAL_CHARGES>  (1) 
15
1 -0.18
10 0.18
11 0.18
12 0.78
13 0.15
14 0.37
15 0.15
2 -0.18
3 -0.23
4 -0.57
5 -0.55
6 0.12
7 0.08
8 -0.15
9 -0.15

>  <PUBCHEM_EFFECTIVE_ROTOR_COUNT>  (1) 
0

>  <PUBCHEM_PHARMACOPHORE_FEATURES>  (1) 
4
1 4 acceptor
1 5 donor
5 3 5 6 7 12 rings
6 6 7 8 9 10 11 rings

>  <PUBCHEM_HEAVY_ATOM_COUNT>  (1) 
12

>  <PUBCHEM_ATOM_DEF_STEREO_COUNT>  (1) 
0

>  <PUBCHEM_ATOM_UDEF_STEREO_COUNT>  (1) 
0

>  <PUBCHEM_BOND_DEF_STEREO_COUNT>  (1) 
0

>  <PUBCHEM_BOND_UDEF_STEREO_COUNT>  (1) 
0

>  <PUBCHEM_ISOTOPIC_ATOM_COUNT>  (1) 
0

>  <PUBCHEM_COMPONENT_COUNT>  (1) 
1

>  <PUBCHEM_CACTVS_TAUTO_COUNT>  (1) 
2

>  <PUBCHEM_CONFORMER_ID>  (1) 
0000536C00000001

>  <PUBCHEM_MMFF94_ENERGY>  (1) 
32.6737

>  <PUBCHEM_FEATURE_SELFOVERLAP>  (1) 
20.413

>  <PUBCHEM_SHAPE_FINGERPRINT>  (1) 
10608611 8 18408599240846350821
11471102 20 18410288108244796853
12032990 46 18337959991001422835
13380535 21 18337683025945912938
13380535 76 18337106890622195570
14325111 11 18410856572582902113
14576447 43 17913754288012547159
14897335 6 18340200898988678276
15219456 202 18334287648039859109
15536298 74 18343301466361130598
15775835 57 18271247226080932564
161256 15 18335417924855862972
16945 1 18266741470385195716
193761 8 17978510832441075396
20201158 50 18338235964135615778
20645477 70 18411976940957145631
20871998 22 18127415536360095158
21040471 1 18266458896113089636
21501502 16 18413108355169076520
21501925 9 18338505362038576858
23235685 24 18337385062442176768
23402655 69 18341601621637998429
23463225 33 18409728431019492690
23552423 10 18334013886977282182
2748010 2 18409448081187018220
5084963 1 18272086050421125026
528886 8 18339074998876198376
53812653 166 18199746011029026088
63268167 104 18412547625719152200
7364860 26 18342738516492111814

>  <PUBCHEM_SHAPE_MULTIPOLES>  (1) 
233.97
5.31
1.8
0.6
1.44
0.03
0
0.02
0
-1.45
0
-0.08
0
0

>  <PUBCHEM_SHAPE_SELFOVERLAP>  (1) 
497.035

>  <PUBCHEM_SHAPE_VOLUME>  (1) 
134.6

>  <PUBCHEM_COORDINATE_TYPE>  (1) 
2
5
10

$$$$
