2135
     RDKit          3D

 15 16  0  0  0  0  0  0  0  0999 V2000
    3.0063    1.4809    0.1779 O   0  0  0  0  0  0  0  0  0  0  0  0
   -0.0755   -0.3944   -0.0440 N   0  0  0  0  0  0  0  0  0  0  0  0
    0.3528   -1.6526   -0.1811 N   0  0  0  0  0  0  0  0  0  0  0  0
    3.9962   -1.1627   -0.1102 N   0  0  0  0  0  0  0  0  0  0  0  0
   -1.4542   -0.1444   -0.0229 C   0  0  0  0  0  0  0  0  0  0  0  0
    0.7929    0.6309    0.0735 C   0  0  0  0  0  0  0  0  0  0  0  0
    2.1601    0.4251    0.0570 C   0  0  0  0  0  0  0  0  0  0  0  0
    2.6244   -0.8653   -0.0836 C   0  0  0  0  0  0  0  0  0  0  0  0
   -1.9502    1.0693   -0.4989 C   0  0  0  0  0  0  0  0  0  0  0  0
   -2.3304   -1.1090    0.4744 C   0  0  0  0  0  0  0  0  0  0  0  0
    1.6829   -1.8650   -0.1986 C   0  0  0  0  0  0  0  0  0  0  0  0
   -3.3225    1.3184   -0.4775 C   0  0  0  0  0  0  0  0  0  0  0  0
   -3.7027   -0.8599    0.4957 C   0  0  0  0  0  0  0  0  0  0  0  0
   -4.1987    0.3538    0.0198 C   0  0  0  0  0  0  0  0  0  0  0  0
    2.4186    2.7748    0.3184 C   0  0  0  0  0  0  0  0  0  0  0  0
  1  7  1  0
  1 15  1  0
  2  3  2  0
  2  5  1  0
  2  6  1  0
  3 11  1  0
  4  8  1  0
  5  9  2  0
  5 10  1  0
  6  7  2  0
  7  8  1  0
  8 11  2  0
  9 12  1  0
 10 13  2  0
 12 14  2  0
 13 14  1  0
M  CHG  1   2   1
M  END
>  <PUBCHEM_COMPOUND_CID>  (1) 
2135

>  <PUBCHEM_CONFORMER_RMSD>  (1) 
0.6

>  <PUBCHEM_CONFORMER_DIVERSEORDER>  (1) 
1
2
3

>  <PUBCHEM_MMFF94_PARTIAL_CHARGES>  (1) 
24
1 -0.36
10 -0.15
11 0.16
12 -0.15
13 -0.15
14 -0.15
15 0.28
16 0.15
17 0.15
18 0.15
19 0.15
2 0.23
20 0.15
21 0.15
22 0.15
23 0.4
24 0.4
3 -0.26
4 -0.9
5 0.36
6 0.21
7 0.08
8 0.1
9 -0.15

>  <PUBCHEM_EFFECTIVE_ROTOR_COUNT>  (1) 
2

>  <PUBCHEM_PHARMACOPHORE_FEATURES>  (1) 
5
1 1 acceptor
1 4 cation
1 4 donor
6 2 3 6 7 8 11 rings
6 5 9 10 12 13 14 rings

>  <PUBCHEM_HEAVY_ATOM_COUNT>  (1) 
15

>  <PUBCHEM_ATOM_DEF_STEREO_COUNT>  (1) 
0

>  <PUBCHEM_ATOM_UDEF_STEREO_COUNT>  (1) 
0

>  <PUBCHEM_BOND_DEF_STEREO_COUNT>  (1) 
0

>  <PUBCHEM_BOND_UDEF_STEREO_COUNT>  (1) 
0

>  <PUBCHEM_ISOTOPIC_ATOM_COUNT>  (1) 
0

>  <PUBCHEM_COMPONENT_COUNT>  (1) 
1

>  <PUBCHEM_CACTVS_TAUTO_COUNT>  (1) 
1

>  <PUBCHEM_CONFORMER_ID>  (1) 
0000085700000001

>  <PUBCHEM_MMFF94_ENERGY>  (1) 
72.955

>  <PUBCHEM_FEATURE_SELFOVERLAP>  (1) 
25.371

>  <PUBCHEM_SHAPE_FINGERPRINT>  (1) 
10608611 8 18408037395015860269
11132069 177 18114459054568024525
11471102 20 18412823573167813796
11615757 297 18131075930616600939
12500047 106 17968936384234322639
12916754 54 18342178886374687843
13897977 150 18410570716971749109
13922767 16 18412259515318519466
14026960 21 18191589863596315905
14325111 11 18410011056905020365
14415576 193 18410295817320845988
14648413 74 18409446964274144049
14866123 147 16393522863266601234
15196674 1 18409730677361241509
15219456 202 18408885148455715961
15375462 6 18408886269320925981
15442244 35 18124034524765692145
15536298 74 18413389856047615684
15775835 57 18129665330022736677
16945 1 18341053999531351442
17802600 8 18335698317200056669
17804303 29 18334862675356803742
18175812 5 18335140894996210967
18186145 218 18202012048390018600
200 152 18060411396737181279
20201158 50 18338517435065201067
20528008 55 18334010593090683687
20645477 56 18041560218571781285
20645477 70 18343581824261612647
20671657 53 18128546959457541950
21267235 1 18410583859730027823
21501502 16 18341325707947778823
21524375 3 18126000718276677016
21639500 275 18272077335969664405
21730867 7 18410013255828101160
221490 88 18409456907271419658
22854114 111 18413107281469567472
23402539 116 18335693911154461431
23402655 69 18269265773511280053
23557571 272 17385723557037059165
23559900 14 18409724049788834553
2748010 2 18408322215413171132
3286 77 18334011679311338278
5104073 3 18408606972272339417
69090 78 18411133628724210423
7364860 26 18413389852000613708
8809292 202 18259992560851006963
93112 12 18410292488953163647
9709674 26 18410579478816211983

>  <PUBCHEM_SHAPE_MULTIPOLES>  (1) 
287.88
7.24
2.19
0.68
2.39
0.89
0
0.52
-0.23
-1.77
-0.08
0.18
0.03
0.73

>  <PUBCHEM_SHAPE_SELFOVERLAP>  (1) 
619.061

>  <PUBCHEM_SHAPE_VOLUME>  (1) 
159

>  <PUBCHEM_COORDINATE_TYPE>  (1) 
2
5
10

$$$$
