2136
     RDKit          3D

 19 20  0  0  0  0  0  0  0  0999 V2000
   -1.7253   -1.9758   -1.4526 O   0  0  0  0  0  0  0  0  0  0  0  0
    4.7381    2.0845   -0.6209 O   0  0  0  0  0  0  0  0  0  0  0  0
    2.9255    2.0099    0.7441 O   0  0  0  0  0  0  0  0  0  0  0  0
    0.7967    0.2622   -1.7695 N   0  0  0  0  0  0  0  0  0  0  0  0
    2.2775   -0.6342   -0.0618 C   0  0  0  0  0  0  0  0  0  0  0  0
    1.0026   -0.5340   -0.6184 C   0  0  0  0  0  0  0  0  0  0  0  0
   -0.0325   -1.2203   -0.0263 C   0  0  0  0  0  0  0  0  0  0  0  0
    3.4424    0.0872   -0.6584 C   0  0  0  0  0  0  0  0  0  0  0  0
    2.4834   -1.4189    1.0729 C   0  0  0  0  0  0  0  0  0  0  0  0
    0.1392   -2.0029    1.0943 C   0  0  0  0  0  0  0  0  0  0  0  0
   -1.4115   -1.1362   -0.5954 C   0  0  0  0  0  0  0  0  0  0  0  0
    1.4141   -2.1032    1.6510 C   0  0  0  0  0  0  0  0  0  0  0  0
   -2.3665   -0.1219   -0.1786 C   0  0  0  0  0  0  0  0  0  0  0  0
   -2.0074    0.8190    0.7864 C   0  0  0  0  0  0  0  0  0  0  0  0
   -3.6415   -0.0902   -0.7432 C   0  0  0  0  0  0  0  0  0  0  0  0
    3.6443    1.4768   -0.0900 C   0  0  0  0  0  0  0  0  0  0  0  0
   -2.9232    1.7918    1.1868 C   0  0  0  0  0  0  0  0  0  0  0  0
   -4.5575    0.8826   -0.3428 C   0  0  0  0  0  0  0  0  0  0  0  0
   -4.1984    1.8236    0.6222 C   0  0  0  0  0  0  0  0  0  0  0  0
  1 11  2  0
  2 16  1  0
  3 16  2  0
  4  6  1  0
  5  6  2  0
  5  8  1  0
  5  9  1  0
  6  7  1  0
  7 10  2  0
  7 11  1  0
  8 16  1  0
  9 12  2  0
 10 12  1  0
 11 13  1  0
 13 14  2  0
 13 15  1  0
 14 17  1  0
 15 18  2  0
 17 19  2  0
 18 19  1  0
M  END
>  <PUBCHEM_COMPOUND_CID>  (1) 
2136

>  <PUBCHEM_CONFORMER_RMSD>  (1) 
0.6

>  <PUBCHEM_CONFORMER_DIVERSEORDER>  (1) 
1
9
5
4
11
10
3
6
2
8
7

>  <PUBCHEM_MMFF94_PARTIAL_CHARGES>  (1) 
30
1 -0.57
10 -0.15
11 0.4
12 -0.15
13 0.09
14 -0.15
15 -0.15
16 0.66
17 -0.15
18 -0.15
19 -0.15
2 -0.65
22 0.15
23 0.15
24 0.15
25 0.4
26 0.4
27 0.15
28 0.15
29 0.15
3 -0.57
30 0.15
31 0.15
32 0.5
4 -0.9
5 -0.14
6 0.1
7 0.09
8 0.2
9 -0.15

>  <PUBCHEM_EFFECTIVE_ROTOR_COUNT>  (1) 
4

>  <PUBCHEM_PHARMACOPHORE_FEATURES>  (1) 
8
1 1 acceptor
1 2 acceptor
1 3 acceptor
1 4 cation
1 4 donor
3 2 3 16 anion
6 13 14 15 17 18 19 rings
6 5 6 7 9 10 12 rings

>  <PUBCHEM_HEAVY_ATOM_COUNT>  (1) 
19

>  <PUBCHEM_ATOM_DEF_STEREO_COUNT>  (1) 
0

>  <PUBCHEM_ATOM_UDEF_STEREO_COUNT>  (1) 
0

>  <PUBCHEM_BOND_DEF_STEREO_COUNT>  (1) 
0

>  <PUBCHEM_BOND_UDEF_STEREO_COUNT>  (1) 
0

>  <PUBCHEM_ISOTOPIC_ATOM_COUNT>  (1) 
0

>  <PUBCHEM_COMPONENT_COUNT>  (1) 
1

>  <PUBCHEM_CACTVS_TAUTO_COUNT>  (1) 
4

>  <PUBCHEM_CONFORMER_ID>  (1) 
0000085800000001

>  <PUBCHEM_MMFF94_ENERGY>  (1) 
69.3121

>  <PUBCHEM_FEATURE_SELFOVERLAP>  (1) 
40.654

>  <PUBCHEM_SHAPE_FINGERPRINT>  (1) 
10382601 240 17749103375229990448
10498660 4 17845651448284121385
10618630 7 8430314627867794177
11640471 11 18410293605565467869
11769659 78 8574714593855686918
12236239 1 18337946780051292035
12390115 104 17824843345505246484
12491281 212 18341615957690257706
12788726 201 17248947866469268202
13140716 1 17748819726995274882
13149001 5 13757778391229978668
13464514 151 18411707603821412962
13583140 156 18113621162467610393
14178342 30 17604152635178543642
14251764 38 17912353536053402152
14739800 52 18058425730287751168
14787075 74 18048035469780120027
15209294 21 18334572481997389372
15342168 16 17894917368499525460
15534591 1 18411420656444820806
15775835 57 18409732833197479761
15848702 105 18273213122933115409
17357990 137 18127407856531198163
1813 80 17759517773149103490
18186145 218 18261395524739681262
193927 3 9583522057011389237
204376 136 17894917368615452598
20510252 161 17466792997273592298
20715895 44 17472691426555101845
21041028 32 17610891297617421530
21503847 285 18338240349618614608
21524375 3 18410295800251765942
21713013 43 14117503343026736765
21864079 5 18199475372297124585
22854114 111 18260265209421634048
23419403 2 14950070422447337622
23557571 272 17915748780187163599
23559900 14 17488181491498663302
2637199 183 18270692973515413442
2748010 2 16879326936592896206
283562 15 17681837645960974482
2838139 119 18059852913524049656
3472631 163 18129948862969933293
4028521 119 18343866644822713197
4340502 62 17821734927486452131
46194498 28 13254211862650591425
474 4 18187928425519832292
495365 180 16734092437353403139
5104073 3 17895197650013443833
5895379 119 17487905497237858576
6034566 193 17243314982458570324
633830 44 18410577253637634878
7615 1 18196063651787171647
77492 1 18337660911418067467
9981440 41 17980469385268428264

>  <PUBCHEM_SHAPE_MULTIPOLES>  (1) 
368.42
8.21
2.42
1.37
1.81
0.21
-0.01
6.21
0.16
-1.44
-0.64
0.02
-0.35
-1.48

>  <PUBCHEM_SHAPE_SELFOVERLAP>  (1) 
798.913

>  <PUBCHEM_SHAPE_VOLUME>  (1) 
200.4

>  <PUBCHEM_COORDINATE_TYPE>  (1) 
2
5
10

$$$$
