21364
     RDKit          3D

 17 17  0  0  0  0  0  0  0  0999 V2000
   -3.0523   -0.9629    0.9445 O   0  0  0  0  0  0  0  0  0  0  0  0
    3.8749   -0.8748   -0.3491 O   0  0  0  0  0  0  0  0  0  0  0  0
   -3.0425   -0.9726   -1.3574 O   0  0  0  0  0  0  0  0  0  0  0  0
    3.6393    1.1037    0.8036 O   0  0  0  0  0  0  0  0  0  0  0  0
   -0.9404    3.0039   -0.0995 O   0  0  0  0  0  0  0  0  0  0  0  0
   -2.6526    1.6405   -0.2686 O   0  0  0  0  0  0  0  0  0  0  0  0
   -1.4218    1.8480   -0.1556 N   0  0  0  0  0  0  0  0  0  0  0  0
   -1.0265   -0.5731   -0.1486 C   0  0  0  0  0  0  0  0  0  0  0  0
   -0.5402    0.7329   -0.0890 C   0  0  0  0  0  0  0  0  0  0  0  0
    1.7139   -0.1152    0.1022 C   0  0  0  0  0  0  0  0  0  0  0  0
    0.8299    0.9618    0.0364 C   0  0  0  0  0  0  0  0  0  0  0  0
   -0.1427   -1.6502   -0.0827 C   0  0  0  0  0  0  0  0  0  0  0  0
    1.2275   -1.4212    0.0426 C   0  0  0  0  0  0  0  0  0  0  0  0
   -2.4518   -0.8515   -0.2783 C   0  0  0  0  0  0  0  0  0  0  0  0
    3.1426    0.1229    0.2343 C   0  0  0  0  0  0  0  0  0  0  0  0
   -4.4573   -1.2380    0.9492 C   0  0  0  0  0  0  0  0  0  0  0  0
    5.3000   -0.7542   -0.2838 C   0  0  0  0  0  0  0  0  0  0  0  0
  1 14  1  0
  1 16  1  0
  2 15  1  0
  2 17  1  0
  3 14  2  0
  4 15  2  0
  5  7  1  0
  6  7  2  0
  7  9  1  0
  8  9  2  0
  8 12  1  0
  8 14  1  0
  9 11  1  0
 10 11  2  0
 10 13  1  0
 10 15  1  0
 12 13  2  0
M  CHG  2   5  -1   7   1
M  END
>  <PUBCHEM_COMPOUND_CID>  (1) 
21364

>  <PUBCHEM_CONFORMER_RMSD>  (1) 
0.6

>  <PUBCHEM_CONFORMER_DIVERSEORDER>  (1) 
1
9
8
6
3
7
2
5
4

>  <PUBCHEM_MMFF94_PARTIAL_CHARGES>  (1) 
20
1 -0.43
10 0.09
11 -0.15
12 -0.15
13 -0.15
14 0.63
15 0.63
16 0.28
17 0.28
18 0.15
19 0.15
2 -0.43
20 0.15
3 -0.57
4 -0.57
5 -0.52
6 -0.52
7 0.91
8 0.09
9 0.13

>  <PUBCHEM_EFFECTIVE_ROTOR_COUNT>  (1) 
5

>  <PUBCHEM_PHARMACOPHORE_FEATURES>  (1) 
6
1 3 acceptor
1 4 acceptor
1 5 acceptor
1 5 anion
1 6 acceptor
6 8 9 10 11 12 13 rings

>  <PUBCHEM_HEAVY_ATOM_COUNT>  (1) 
17

>  <PUBCHEM_ATOM_DEF_STEREO_COUNT>  (1) 
0

>  <PUBCHEM_ATOM_UDEF_STEREO_COUNT>  (1) 
0

>  <PUBCHEM_BOND_DEF_STEREO_COUNT>  (1) 
0

>  <PUBCHEM_BOND_UDEF_STEREO_COUNT>  (1) 
0

>  <PUBCHEM_ISOTOPIC_ATOM_COUNT>  (1) 
0

>  <PUBCHEM_COMPONENT_COUNT>  (1) 
1

>  <PUBCHEM_CACTVS_TAUTO_COUNT>  (1) 
1

>  <PUBCHEM_CONFORMER_ID>  (1) 
0000537400000001

>  <PUBCHEM_MMFF94_ENERGY>  (1) 
62.7401

>  <PUBCHEM_FEATURE_SELFOVERLAP>  (1) 
30.532

>  <PUBCHEM_SHAPE_FINGERPRINT>  (1) 
10608611 8 18342450427176399960
108231 29 18189056558888627955
11132069 177 18130496517953404650
12032990 46 18336549403529707522
12236239 1 17703509999881915287
13140716 1 18049440636807714866
13214271 11 18410577280024558311
13380535 21 18195533579892413830
13760787 5 18339080496545237126
14787075 74 17534628410467576434
15219456 202 18059299738588698398
16945 1 18337947986599375118
17804303 29 18412829066863534444
17844478 74 18410858767258319578
19026448 5 16486974050346103310
19141452 34 17917714638506290967
200 152 17560791126394035879
20510252 161 18341892991681399200
20602899 9 16414331417738774381
20871998 184 18343021056204136701
21029758 27 18261118512070421821
21061003 4 18337392750913340307
21267235 1 18409739468774596826
21339142 126 18342455937350272527
21501502 16 18192423065945676026
2297311 6 18339657676184109582
2306618 200 18059857212221291201
23175994 123 18261111919854642151
2334 1 18338231557630902486
23402539 116 18342170085438156910
23493267 7 17749096773633225851
23557571 272 18342465811142359132
23559900 14 18200305521430678002
2748010 2 18268426845622237702
3286 77 16558176237106414042
43471831 8 18188485779242020266
5104073 3 18339919308696801930

>  <PUBCHEM_SHAPE_MULTIPOLES>  (1) 
309.66
7.95
2.1
0.82
5.34
1.49
-0.02
-2.88
0.75
-1.13
-0.05
-0.48
-0.16
0.58

>  <PUBCHEM_SHAPE_SELFOVERLAP>  (1) 
652.988

>  <PUBCHEM_SHAPE_VOLUME>  (1) 
174.8

>  <PUBCHEM_COORDINATE_TYPE>  (1) 
2
5
10

$$$$
