21366
     RDKit          3D

 18 20  0  0  0  0  0  0  0  0999 V2000
   -2.9993   -1.9628    0.0560 S   0  0  0  0  0  0  0  0  0  0  0  0
   -3.4818    1.4310   -0.6713 S   0  0  0  0  0  0  0  0  0  0  0  0
    4.5290   -0.2059   -1.3003 O   0  0  0  0  0  0  0  0  0  0  0  0
   -0.0901   -1.8801    1.1611 O   0  0  0  0  0  0  0  0  0  0  0  0
   -0.7188    2.5768    0.1856 O   0  0  0  0  0  0  0  0  0  0  0  0
    2.2869   -0.0377    0.4449 N   0  0  0  0  0  0  0  0  0  0  0  0
   -0.0123    0.4293    0.7927 N   0  0  0  0  0  0  0  0  0  0  0  0
    1.3314    0.7113    1.2584 C   0  0  0  0  0  0  0  0  0  0  0  0
    2.1934    0.3586   -0.9670 C   0  0  0  0  0  0  0  0  0  0  0  0
    3.6581    0.1620    0.9341 C   0  0  0  0  0  0  0  0  0  0  0  0
    3.2072   -0.4274   -1.7934 C   0  0  0  0  0  0  0  0  0  0  0  0
    4.6380   -0.6183    0.0625 C   0  0  0  0  0  0  0  0  0  0  0  0
   -0.5748   -0.8231    0.7925 C   0  0  0  0  0  0  0  0  0  0  0  0
   -0.8843    1.3751    0.3140 C   0  0  0  0  0  0  0  0  0  0  0  0
   -1.9340   -0.6499    0.2429 C   0  0  0  0  0  0  0  0  0  0  0  0
   -2.1197    0.6415   -0.0272 C   0  0  0  0  0  0  0  0  0  0  0  0
   -4.2804   -1.2179   -1.0008 C   0  0  0  0  0  0  0  0  0  0  0  0
   -4.7486    0.1375   -0.4847 C   0  0  0  0  0  0  0  0  0  0  0  0
  1 15  1  0
  1 17  1  0
  2 16  1  0
  2 18  1  0
  3 11  1  0
  3 12  1  0
  4 13  2  0
  5 14  2  0
  6  8  1  0
  6  9  1  0
  6 10  1  0
  7  8  1  0
  7 13  1  0
  7 14  1  0
  9 11  1  0
 10 12  1  0
 13 15  1  0
 14 16  1  0
 15 16  2  0
 17 18  1  0
M  END
>  <PUBCHEM_COMPOUND_CID>  (1) 
21366

>  <PUBCHEM_CONFORMER_RMSD>  (1) 
0.6

>  <PUBCHEM_CONFORMER_DIVERSEORDER>  (1) 
1
4
3
5
2

>  <PUBCHEM_MMFF94_PARTIAL_CHARGES>  (1) 
18
1 -0.33
10 0.27
11 0.28
12 0.28
13 0.62
14 0.62
15 0.12
16 0.12
17 0.23
18 0.23
2 -0.33
3 -0.56
4 -0.57
5 -0.57
6 -0.81
7 -0.42
8 0.57
9 0.27

>  <PUBCHEM_EFFECTIVE_ROTOR_COUNT>  (1) 
4.2

>  <PUBCHEM_PHARMACOPHORE_FEATURES>  (1) 
7
1 3 acceptor
1 4 acceptor
1 5 acceptor
1 6 cation
5 7 13 14 15 16 rings
6 1 2 15 16 17 18 rings
6 3 6 9 10 11 12 rings

>  <PUBCHEM_HEAVY_ATOM_COUNT>  (1) 
18

>  <PUBCHEM_ATOM_DEF_STEREO_COUNT>  (1) 
0

>  <PUBCHEM_ATOM_UDEF_STEREO_COUNT>  (1) 
0

>  <PUBCHEM_BOND_DEF_STEREO_COUNT>  (1) 
0

>  <PUBCHEM_BOND_UDEF_STEREO_COUNT>  (1) 
0

>  <PUBCHEM_ISOTOPIC_ATOM_COUNT>  (1) 
0

>  <PUBCHEM_COMPONENT_COUNT>  (1) 
1

>  <PUBCHEM_CACTVS_TAUTO_COUNT>  (1) 
1

>  <PUBCHEM_CONFORMER_ID>  (1) 
0000537600000001

>  <PUBCHEM_MMFF94_ENERGY>  (1) 
28.7351

>  <PUBCHEM_FEATURE_SELFOVERLAP>  (1) 
35.568

>  <PUBCHEM_SHAPE_FINGERPRINT>  (1) 
10062212 137 18114169826890579811
10465860 71 18408888468502554085
12236239 1 17385719188638626264
12251169 10 9655569708336858514
12670546 177 18408889567792675116
13544653 18 16702025283170058684
14115302 16 18040998466286169522
14386348 63 17918275359054810606
14420673 8 10590117174851642844
14790565 3 17837775526383503361
14911166 2 18408595972961352661
14993402 34 17603585235538360829
15775835 57 16805612460072458412
15848702 151 17489871557245796747
16752209 62 18260822704877554339
16945 1 18340491071263886905
17834072 14 18201718483196349404
17870717 6 18342186548084557015
18186145 218 18113611330886699069
19141452 34 17632577201764750727
19862831 5 17821729450754179306
200 152 18187364333078450526
20279233 1 17989489619332180406
20374829 77 18272929427495385175
20645476 183 17458064888903753355
20645477 70 17275382118728107126
20871999 31 18335707164711393157
231179 274 14490189410377862110
23379529 103 17769364260800971831
23402539 116 18408316670926935572
23402655 69 16588029026278902998
23557571 272 18272646848685894176
23559900 14 18412541012329326952
25 1 14129053729650313408
26918003 58 16128656353279776967
2748010 2 17756977175812968363
474 4 15357704110399548556
4990 188 18201995525835375721
77492 1 17313098648942302896
9709674 26 18197490938349651017

>  <PUBCHEM_SHAPE_MULTIPOLES>  (1) 
350.56
9.15
1.81
1.3
2.97
0.23
-0.29
-1.85
-3.34
-1.73
0.18
1.05
-0.16
0.31

>  <PUBCHEM_SHAPE_SELFOVERLAP>  (1) 
720.162

>  <PUBCHEM_SHAPE_VOLUME>  (1) 
203.8

>  <PUBCHEM_COORDINATE_TYPE>  (1) 
2
5
10

$$$$
