21379
     RDKit          3D

 10 10  0  0  0  0  0  0  0  0999 V2000
   -2.0103   -0.7551    0.0000 O   0  0  0  0  0  0  0  0  0  0  0  0
   -1.7388    2.0452    0.0006 N   0  0  0  0  0  0  0  0  0  0  0  0
    2.7658   -1.3019    0.0003 N   0  0  0  0  0  0  0  0  0  0  0  0
   -0.7691   -0.1918   -0.0002 C   0  0  0  0  0  0  0  0  0  0  0  0
   -0.6121    1.1942   -0.0004 C   0  0  0  0  0  0  0  0  0  0  0  0
    1.6315   -0.4638    0.0000 C   0  0  0  0  0  0  0  0  0  0  0  0
    0.3526   -1.0207   -0.0002 C   0  0  0  0  0  0  0  0  0  0  0  0
    0.6668    1.7512   -0.0002 C   0  0  0  0  0  0  0  0  0  0  0  0
    1.7886    0.9222    0.0001 C   0  0  0  0  0  0  0  0  0  0  0  0
   -2.0748   -2.1795    0.0001 C   0  0  0  0  0  0  0  0  0  0  0  0
  1  4  1  0
  1 10  1  0
  2  5  1  0
  3  6  1  0
  4  5  2  0
  4  7  1  0
  5  8  1  0
  6  7  2  0
  6  9  1  0
  8  9  2  0
M  END
>  <PUBCHEM_COMPOUND_CID>  (1) 
21379

>  <PUBCHEM_CONFORMER_RMSD>  (1) 
0.4

>  <PUBCHEM_CONFORMER_DIVERSEORDER>  (1) 
3
1
2

>  <PUBCHEM_MMFF94_PARTIAL_CHARGES>  (1) 
17
1 -0.36
10 0.28
11 0.15
12 0.15
13 0.15
14 0.4
15 0.4
16 0.4
17 0.4
2 -0.9
3 -0.9
4 0.08
5 0.1
6 0.1
7 -0.15
8 -0.15
9 -0.15

>  <PUBCHEM_EFFECTIVE_ROTOR_COUNT>  (1) 
1

>  <PUBCHEM_PHARMACOPHORE_FEATURES>  (1) 
6
1 1 acceptor
1 2 cation
1 2 donor
1 3 cation
1 3 donor
6 4 5 6 7 8 9 rings

>  <PUBCHEM_HEAVY_ATOM_COUNT>  (1) 
10

>  <PUBCHEM_ATOM_DEF_STEREO_COUNT>  (1) 
0

>  <PUBCHEM_ATOM_UDEF_STEREO_COUNT>  (1) 
0

>  <PUBCHEM_BOND_DEF_STEREO_COUNT>  (1) 
0

>  <PUBCHEM_BOND_UDEF_STEREO_COUNT>  (1) 
0

>  <PUBCHEM_ISOTOPIC_ATOM_COUNT>  (1) 
0

>  <PUBCHEM_COMPONENT_COUNT>  (1) 
1

>  <PUBCHEM_CACTVS_TAUTO_COUNT>  (1) 
1

>  <PUBCHEM_CONFORMER_ID>  (1) 
0000538300000003

>  <PUBCHEM_MMFF94_ENERGY>  (1) 
54.6299

>  <PUBCHEM_FEATURE_SELFOVERLAP>  (1) 
30.446

>  <PUBCHEM_SHAPE_FINGERPRINT>  (1) 
14128692 85 18410865386182750358
161256 15 18269561713610737228
16945 1 18410856551071051428
18185500 45 17981325908409321295
193761 8 18410292536087365316
20871998 184 18201154356411651446
21040471 1 18050567339752089636
23552423 10 18260552246644750046
241688 4 18408604759926539328
2748010 2 18411696586755681564
29004967 10 18048597311246584267

>  <PUBCHEM_SHAPE_MULTIPOLES>  (1) 
189.96
3.07
2.32
0.59
0.32
0.51
0
-1.6
0
0.42
0
-0.01
0
0

>  <PUBCHEM_SHAPE_SELFOVERLAP>  (1) 
393.297

>  <PUBCHEM_SHAPE_VOLUME>  (1) 
109.4

>  <PUBCHEM_COORDINATE_TYPE>  (1) 
2
5
10

$$$$
