21373
     RDKit          3D

 19 20  0  0  0  0  0  0  0  0999 V2000
   -6.9051    0.2977    0.1859 O   0  0  0  0  0  0  0  0  0  0  0  0
    5.4070    1.6784   -0.0575 O   0  0  0  0  0  0  0  0  0  0  0  0
    4.6797   -0.5635   -0.1160 N   0  0  0  0  0  0  0  0  0  0  0  0
   -0.8454   -0.1843    0.5938 N   0  0  0  0  0  0  0  0  0  0  0  0
   -1.4136   -0.0787   -0.5185 N   0  0  0  0  0  0  0  0  0  0  0  0
    3.2993   -0.4684    0.0626 C   0  0  0  0  0  0  0  0  0  0  0  0
    0.5386   -0.2794    0.4167 C   0  0  0  0  0  0  0  0  0  0  0  0
    2.7001    0.7814    0.2189 C   0  0  0  0  0  0  0  0  0  0  0  0
    2.5182   -1.6238    0.0834 C   0  0  0  0  0  0  0  0  0  0  0  0
    1.3197    0.8760    0.3961 C   0  0  0  0  0  0  0  0  0  0  0  0
    1.1378   -1.5294    0.2604 C   0  0  0  0  0  0  0  0  0  0  0  0
   -2.8044    0.0166   -0.3402 C   0  0  0  0  0  0  0  0  0  0  0  0
   -3.3964    1.2662   -0.1849 C   0  0  0  0  0  0  0  0  0  0  0  0
   -3.5790   -1.1392   -0.3205 C   0  0  0  0  0  0  0  0  0  0  0  0
   -5.5583    0.2055    0.0122 C   0  0  0  0  0  0  0  0  0  0  0  0
   -4.7769    1.3608   -0.0083 C   0  0  0  0  0  0  0  0  0  0  0  0
   -4.9594   -1.0443   -0.1439 C   0  0  0  0  0  0  0  0  0  0  0  0
    5.6192    0.4750   -0.1657 C   0  0  0  0  0  0  0  0  0  0  0  0
    7.0188   -0.0466   -0.3744 C   0  0  0  0  0  0  0  0  0  0  0  0
  1 15  1  0
  2 18  2  0
  3  6  1  0
  3 18  1  0
  4  5  2  0
  4  7  1  0
  5 12  1  0
  6  8  2  0
  6  9  1  0
  7 10  2  0
  7 11  1  0
  8 10  1  0
  9 11  2  0
 12 13  2  0
 12 14  1  0
 13 16  1  0
 14 17  2  0
 15 16  2  0
 15 17  1  0
 18 19  1  0
M  END
>  <PUBCHEM_COMPOUND_CID>  (1) 
21373

>  <PUBCHEM_CONFORMER_RMSD>  (1) 
0.6

>  <PUBCHEM_CONFORMER_DIVERSEORDER>  (1) 
1
7
2
5
6
3
4

>  <PUBCHEM_MMFF94_PARTIAL_CHARGES>  (1) 
29
1 -0.53
10 -0.15
11 -0.15
12 0.18
13 -0.15
14 -0.15
15 0.08
16 -0.15
17 -0.15
18 0.57
19 0.06
2 -0.57
20 0.15
21 0.15
22 0.15
23 0.15
24 0.37
25 0.15
26 0.15
27 0.15
28 0.15
3 -0.55
32 0.45
4 -0.18
5 -0.18
6 0.12
7 0.18
8 -0.15
9 -0.15

>  <PUBCHEM_EFFECTIVE_ROTOR_COUNT>  (1) 
4

>  <PUBCHEM_PHARMACOPHORE_FEATURES>  (1) 
5
1 1 donor
1 2 acceptor
1 3 donor
6 12 13 14 15 16 17 rings
6 6 7 8 9 10 11 rings

>  <PUBCHEM_HEAVY_ATOM_COUNT>  (1) 
19

>  <PUBCHEM_ATOM_DEF_STEREO_COUNT>  (1) 
0

>  <PUBCHEM_ATOM_UDEF_STEREO_COUNT>  (1) 
0

>  <PUBCHEM_BOND_DEF_STEREO_COUNT>  (1) 
0

>  <PUBCHEM_BOND_UDEF_STEREO_COUNT>  (1) 
0

>  <PUBCHEM_ISOTOPIC_ATOM_COUNT>  (1) 
0

>  <PUBCHEM_COMPONENT_COUNT>  (1) 
1

>  <PUBCHEM_CACTVS_TAUTO_COUNT>  (1) 
8

>  <PUBCHEM_CONFORMER_ID>  (1) 
0000537D00000001

>  <PUBCHEM_MMFF94_ENERGY>  (1) 
53.9695

>  <PUBCHEM_FEATURE_SELFOVERLAP>  (1) 
25.372

>  <PUBCHEM_SHAPE_FINGERPRINT>  (1) 
10595046 47 18410572889950640899
10968037 39 18408603665511549999
11287383 113 18408323302366899034
11315181 36 17703793639194608617
11719270 70 18201715112265019134
11796584 16 14045738244761735836
12091667 2 18411138047891902699
12107183 9 17619067231552481539
12236239 1 18131351903481722883
12730499 353 18408046203946493746
12788726 201 17346038853237217539
14251718 22 18411138038937854283
14251732 16 18334577983623622707
14251764 18 18202282503350955875
14251764 46 16917068858658337918
14341114 176 18410297986759235311
14528608 73 18411418432120863644
14933364 13 18411983563617185788
15048467 5 18410011022603369269
17834072 33 18341893000081208460
17834076 25 18410575080378667626
18335252 98 18334300881762779467
18681886 176 18202275944244902570
19489759 90 7997972375619142239
200 152 18130786759142950403
20281389 69 17894627054928759076
20645477 70 18270963423543716710
21267235 1 18412267268230321875
21709351 56 18409721898110628365
22224240 67 12540698150192333792
23035841 295 17846780697885503598
23402539 116 18113614594924512030
23402655 69 18342454824595066079
23536379 177 18411699872558468376
23559900 14 18341323496424633073
26918003 58 8430311346876627597
2916195 48 17967248697867285524
29717793 49 17275111622231325372
300161 21 18186795864377026911
3004659 81 18338801118277782582
34797466 226 17989495129775409924
3545911 37 18411980260966553321
4073 2 18113904904744338234
4214541 1 18412543185429810641
42788 4 18410573989720731548
4325135 7 18335421265886634815
4340502 62 16515682243571664042
4463277 17 18413388739240080688
5104073 3 18335417916112863883
542803 24 18335136492385616074
559249 180 9799695891982679285
59755656 215 18341616992962038150
59755656 520 17748823042266934986
77779 3 18411417289717682531

>  <PUBCHEM_SHAPE_MULTIPOLES>  (1) 
364.33
17.13
1.45
0.67
2.73
0.05
0
-3.17
1.63
0.09
-0.01
0.01
0.01
-0.12

>  <PUBCHEM_SHAPE_SELFOVERLAP>  (1) 
778.701

>  <PUBCHEM_SHAPE_VOLUME>  (1) 
201.6

>  <PUBCHEM_COORDINATE_TYPE>  (1) 
2
5
10

$$$$
