21376
     RDKit          3D

 27 29  0  0  0  0  0  0  0  0999 V2000
    0.0032    0.1902   -0.0015 O   0  0  0  0  0  0  0  0  0  0  0  0
    6.1194    1.6767    0.1839 O   0  0  0  0  0  0  0  0  0  0  0  0
   -6.1223    1.6756   -0.1827 O   0  0  0  0  0  0  0  0  0  0  0  0
    5.7462   -2.3845    0.1740 O   0  0  0  0  0  0  0  0  0  0  0  0
   -5.7461   -2.3853   -0.1727 O   0  0  0  0  0  0  0  0  0  0  0  0
    7.0424   -0.6079    0.2097 O   0  0  0  0  0  0  0  0  0  0  0  0
   -7.0436   -0.6096   -0.2076 O   0  0  0  0  0  0  0  0  0  0  0  0
    0.6950   -1.9370    0.0208 N   0  0  0  0  0  0  0  0  0  0  0  0
   -0.6868   -1.9377   -0.0217 N   0  0  0  0  0  0  0  0  0  0  0  0
    5.9093   -1.1420    0.1772 N   0  0  0  0  0  0  0  0  0  0  0  0
   -5.9100   -1.1429   -0.1759 N   0  0  0  0  0  0  0  0  0  0  0  0
    2.3568   -0.0777    0.0708 C   0  0  0  0  0  0  0  0  0  0  0  0
   -2.3503   -0.0796   -0.0720 C   0  0  0  0  0  0  0  0  0  0  0  0
    1.0458   -0.6782    0.0307 C   0  0  0  0  0  0  0  0  0  0  0  0
   -1.0467   -0.6754   -0.0331 C   0  0  0  0  0  0  0  0  0  0  0  0
    3.4938   -0.8850    0.1044 C   0  0  0  0  0  0  0  0  0  0  0  0
   -3.4947   -0.8842   -0.1049 C   0  0  0  0  0  0  0  0  0  0  0  0
    4.7612   -0.3035    0.1417 C   0  0  0  0  0  0  0  0  0  0  0  0
   -4.7626   -0.3037   -0.1413 C   0  0  0  0  0  0  0  0  0  0  0  0
    2.4870    1.3109    0.0745 C   0  0  0  0  0  0  0  0  0  0  0  0
   -2.4894    1.3125   -0.0760 C   0  0  0  0  0  0  0  0  0  0  0  0
    4.8915    1.0853    0.1453 C   0  0  0  0  0  0  0  0  0  0  0  0
   -4.8939    1.0851   -0.1450 C   0  0  0  0  0  0  0  0  0  0  0  0
    3.7542    1.8925    0.1116 C   0  0  0  0  0  0  0  0  0  0  0  0
   -3.7572    1.8932   -0.1122 C   0  0  0  0  0  0  0  0  0  0  0  0
    6.7421    1.9569   -1.0675 C   0  0  0  0  0  0  0  0  0  0  0  0
   -6.7442    1.9554    1.0693 C   0  0  0  0  0  0  0  0  0  0  0  0
  1 14  1  0
  1 15  1  0
  2 22  1  0
  2 26  1  0
  3 23  1  0
  3 27  1  0
  4 10  1  0
  5 11  1  0
  6 10  2  0
  7 11  2  0
  8  9  1  0
  8 14  2  0
  9 15  2  0
 10 18  1  0
 11 19  1  0
 12 14  1  0
 12 16  2  0
 12 20  1  0
 13 15  1  0
 13 17  2  0
 13 21  1  0
 16 18  1  0
 17 19  1  0
 18 22  2  0
 19 23  2  0
 20 24  2  0
 21 25  2  0
 22 24  1  0
 23 25  1  0
M  CHG  4   4  -1   5  -1  10   1  11   1
M  END
>  <PUBCHEM_COMPOUND_CID>  (1) 
21376

>  <PUBCHEM_CONFORMER_RMSD>  (1) 
0.8

>  <PUBCHEM_CONFORMER_DIVERSEORDER>  (1) 
3
1
4
2

>  <PUBCHEM_MMFF94_PARTIAL_CHARGES>  (1) 
33
1 -0.28
10 0.91
11 0.91
12 0.05
13 0.05
14 0.43
15 0.43
16 -0.15
17 -0.15
18 0.13
19 0.13
2 -0.36
20 -0.15
21 -0.15
22 0.08
23 0.08
24 -0.15
25 -0.15
26 0.28
27 0.28
28 0.15
29 0.15
3 -0.36
30 0.15
31 0.15
32 0.15
33 0.15
4 -0.52
5 -0.52
6 -0.52
7 -0.52
8 -0.34
9 -0.34

>  <PUBCHEM_EFFECTIVE_ROTOR_COUNT>  (1) 
6

>  <PUBCHEM_PHARMACOPHORE_FEATURES>  (1) 
11
1 2 acceptor
1 3 acceptor
1 4 acceptor
1 4 anion
1 5 acceptor
1 5 anion
1 6 acceptor
1 7 acceptor
5 1 8 9 14 15 rings
6 12 16 18 20 22 24 rings
6 13 17 19 21 23 25 rings

>  <PUBCHEM_HEAVY_ATOM_COUNT>  (1) 
27

>  <PUBCHEM_ATOM_DEF_STEREO_COUNT>  (1) 
0

>  <PUBCHEM_ATOM_UDEF_STEREO_COUNT>  (1) 
0

>  <PUBCHEM_BOND_DEF_STEREO_COUNT>  (1) 
0

>  <PUBCHEM_BOND_UDEF_STEREO_COUNT>  (1) 
0

>  <PUBCHEM_ISOTOPIC_ATOM_COUNT>  (1) 
0

>  <PUBCHEM_COMPONENT_COUNT>  (1) 
1

>  <PUBCHEM_CACTVS_TAUTO_COUNT>  (1) 
1

>  <PUBCHEM_CONFORMER_ID>  (1) 
0000538000000003

>  <PUBCHEM_MMFF94_ENERGY>  (1) 
102.9417

>  <PUBCHEM_FEATURE_SELFOVERLAP>  (1) 
56.031

>  <PUBCHEM_SHAPE_FINGERPRINT>  (1) 
10 15 18261118461364485153
10595046 47 18409728456467497723
11315181 36 18334576863438862173
11524674 6 16271928250898371671
11719270 70 17989203716339731270
12107183 9 17688303491269244497
12166972 35 18407761455993953532
12236239 1 18410855460128161797
13167372 99 18342459214083479728
13533116 47 18342737417044080098
13631057 29 18341890857884739755
13785724 45 17835236749729633562
14251764 18 18334292081057778200
14341114 176 18333734606560165168
14849402 71 18336552727808742013
14933364 13 18410857659151501792
15183329 4 18202008707311852200
15196674 1 18410854364911761156
1577012 14 18410856564024791508
15778101 99 18342459206406077153
17844677 252 18411423903355492624
17980427 23 18187089477247691557
18335252 98 18263368138620417659
18681886 176 18412818105632183370
19611394 137 18042417996544525163
20281389 69 18335136505555744280
21033648 29 18341886446293762616
21130935 74 18413387631265606402
21236236 1 18411981378043263075
21267235 1 18410859858174906758
21315764 268 18335696152748172892
23081809 10 18342452647036019703
23522609 53 18266486284867348516
23536379 177 18412543206197778554
23559900 14 18412536613903111657
23569943 247 17387963184476351426
3004659 81 18408323264477045418
335352 9 18410012127259394598
34797466 226 17560809883102137300
350125 39 18411135831330296164
3545911 37 18411981403433187228
397830 11 15647916957276770497
4073 2 18041002890298105482
4325135 7 18341891914050549351
5104073 3 18408601474281683763
59755656 520 17968092036445323259
9996256 80 18411697699009857839

>  <PUBCHEM_SHAPE_MULTIPOLES>  (1) 
494.64
20.87
2.39
0.69
0.04
0.09
0
-3.77
0.01
0
0
0
-0.19
-1.2

>  <PUBCHEM_SHAPE_SELFOVERLAP>  (1) 
1088.941

>  <PUBCHEM_SHAPE_VOLUME>  (1) 
268.2

>  <PUBCHEM_COORDINATE_TYPE>  (1) 
2
5
10

$$$$
