21374
     RDKit          3D

 19 20  0  0  0  0  0  0  0  0999 V2000
    5.4887    0.0082    0.0512 N   0  0  0  0  0  0  0  0  0  0  0  0
   -0.0826   -0.0686   -0.4911 N   0  0  0  0  0  0  0  0  0  0  0  0
   -0.6231    0.0867    0.6292 N   0  0  0  0  0  0  0  0  0  0  0  0
   -4.7919    0.0300    0.2312 C   0  0  0  0  0  0  0  0  0  0  0  0
    4.0856   -0.0110   -0.0871 C   0  0  0  0  0  0  0  0  0  0  0  0
   -6.2762    0.0103    0.0880 C   0  0  0  0  0  0  0  0  0  0  0  0
   -4.0973   -1.1572    0.4628 C   0  0  0  0  0  0  0  0  0  0  0  0
   -4.0981    1.2360    0.1318 C   0  0  0  0  0  0  0  0  0  0  0  0
    3.3918   -1.2171    0.0108 C   0  0  0  0  0  0  0  0  0  0  0  0
    3.3912    1.1760   -0.3201 C   0  0  0  0  0  0  0  0  0  0  0  0
    1.3162   -0.0491   -0.3565 C   0  0  0  0  0  0  0  0  0  0  0  0
   -2.0149    0.0677    0.4957 C   0  0  0  0  0  0  0  0  0  0  0  0
    2.0035   -1.2363   -0.1242 C   0  0  0  0  0  0  0  0  0  0  0  0
    2.0029    1.1570   -0.4550 C   0  0  0  0  0  0  0  0  0  0  0  0
   -2.7087   -1.1383    0.5952 C   0  0  0  0  0  0  0  0  0  0  0  0
   -2.7096    1.2548    0.2640 C   0  0  0  0  0  0  0  0  0  0  0  0
   -6.7173   -0.1908   -1.3595 C   0  0  0  0  0  0  0  0  0  0  0  0
    6.2812   -1.1396   -0.3437 C   0  0  0  0  0  0  0  0  0  0  0  0
    6.1587    1.1812    0.5772 C   0  0  0  0  0  0  0  0  0  0  0  0
  1  5  1  0
  1 18  1  0
  1 19  1  0
  2  3  2  0
  2 11  1  0
  3 12  1  0
  4  6  1  0
  4  7  2  0
  4  8  1  0
  5  9  2  0
  5 10  1  0
  6 17  1  0
  7 15  1  0
  8 16  2  0
  9 13  1  0
 10 14  2  0
 11 13  2  0
 11 14  1  0
 12 15  2  0
 12 16  1  0
M  END
>  <PUBCHEM_COMPOUND_CID>  (1) 
21374

>  <PUBCHEM_CONFORMER_RMSD>  (1) 
0.6

>  <PUBCHEM_CONFORMER_DIVERSEORDER>  (1) 
1
7
3
6
5
2
4

>  <PUBCHEM_MMFF94_PARTIAL_CHARGES>  (1) 
26
1 -0.84
10 -0.15
11 0.18
12 0.18
13 -0.15
14 -0.15
15 -0.15
16 -0.15
18 0.37
19 0.37
2 -0.18
22 0.15
23 0.15
24 0.15
25 0.15
26 0.15
27 0.15
28 0.15
29 0.15
3 -0.18
4 -0.14
5 0.1
6 0.14
7 -0.15
8 -0.15
9 -0.15

>  <PUBCHEM_EFFECTIVE_ROTOR_COUNT>  (1) 
4

>  <PUBCHEM_PHARMACOPHORE_FEATURES>  (1) 
4
1 1 cation
1 17 hydrophobe
6 4 7 8 12 15 16 rings
6 5 9 10 11 13 14 rings

>  <PUBCHEM_HEAVY_ATOM_COUNT>  (1) 
19

>  <PUBCHEM_ATOM_DEF_STEREO_COUNT>  (1) 
0

>  <PUBCHEM_ATOM_UDEF_STEREO_COUNT>  (1) 
0

>  <PUBCHEM_BOND_DEF_STEREO_COUNT>  (1) 
0

>  <PUBCHEM_BOND_UDEF_STEREO_COUNT>  (1) 
0

>  <PUBCHEM_ISOTOPIC_ATOM_COUNT>  (1) 
0

>  <PUBCHEM_COMPONENT_COUNT>  (1) 
1

>  <PUBCHEM_CACTVS_TAUTO_COUNT>  (1) 
1

>  <PUBCHEM_CONFORMER_ID>  (1) 
0000537E00000001

>  <PUBCHEM_MMFF94_ENERGY>  (1) 
63.8892

>  <PUBCHEM_FEATURE_SELFOVERLAP>  (1) 
20.297

>  <PUBCHEM_SHAPE_FINGERPRINT>  (1) 
10 15 18339916113389053776
10968037 39 18412544323632995911
11089746 13 18272930539865521477
11315181 36 18260274061613196073
11796584 16 15574720201158247312
12107183 9 17615969911254517224
12166972 35 18131353011979541856
12236239 1 17846499222824117532
12516196 113 17988924474397503897
12916748 109 11095888163866771578
13533116 47 18271241621280974058
13668630 136 17561085804358833607
14123256 10 18273493486167352487
14251752 14 15647044954635340197
14251764 18 18408322181960748528
14251764 46 18410855452013078386
14341114 176 18410018736501698608
15183329 4 17967531246553833961
15716309 27 17275102830032168503
17834072 8 17894347774674769543
19489759 90 18410294701088219969
200 152 18130788949776659793
20645477 70 18270403780435460614
21150785 3 16845569850549630325
21267235 1 18336276681648684987
220451 1 12757150194704628160
22224240 67 18343294890988058490
23035841 295 14836403631658031687
23402539 116 18335136523030772415
23559900 14 18337669831996504921
26918003 58 18333454261259879011
29717793 49 18343308054503391956
300161 21 18113613491070652123
3004659 81 18113618993008219088
335352 9 18411141330080535974
34797466 226 17346605196658134484
351380 180 18408044026081219049
3545911 37 18335423460836455923
4073 2 17967822690635338578
4214541 1 18335987497506520729
42788 4 18413392025153656856
4325135 7 18060698390746802605
5104073 3 18337115553212425890
542803 24 15267064739534246960
59755656 215 18040715835800089606
59755656 520 15647051595119172891
67856867 119 18262803006818439133
7495541 125 17203324563144470411

>  <PUBCHEM_SHAPE_MULTIPOLES>  (1) 
376.07
17.55
1.38
0.83
0.94
0.03
0.11
-0.32
1.74
-0.71
-0.06
0.65
-0.01
0.29

>  <PUBCHEM_SHAPE_SELFOVERLAP>  (1) 
791.518

>  <PUBCHEM_SHAPE_VOLUME>  (1) 
214.4

>  <PUBCHEM_COORDINATE_TYPE>  (1) 
2
5
10

$$$$
