21387
     RDKit          3D

 17 20  0  0  0  0  0  0  0  0999 V2000
   -3.7024   -1.5400   -0.0004 O   0  0  0  0  0  0  0  0  0  0  0  0
   -0.4637    0.2331    0.0000 C   0  0  0  0  0  0  0  0  0  0  0  0
    0.9266   -0.0406    0.0000 C   0  0  0  0  0  0  0  0  0  0  0  0
   -1.3940   -0.8323    0.0001 C   0  0  0  0  0  0  0  0  0  0  0  0
   -0.9207    1.5717    0.0000 C   0  0  0  0  0  0  0  0  0  0  0  0
    1.3835   -1.3792    0.0000 C   0  0  0  0  0  0  0  0  0  0  0  0
    1.8568    1.0248    0.0000 C   0  0  0  0  0  0  0  0  0  0  0  0
   -0.9228   -2.1521    0.0001 C   0  0  0  0  0  0  0  0  0  0  0  0
    0.4472   -2.4218    0.0001 C   0  0  0  0  0  0  0  0  0  0  0  0
    0.0156    2.6143    0.0000 C   0  0  0  0  0  0  0  0  0  0  0  0
    1.3856    2.3446    0.0000 C   0  0  0  0  0  0  0  0  0  0  0  0
   -2.7668   -0.5450    0.0001 C   0  0  0  0  0  0  0  0  0  0  0  0
   -2.2999    1.8261    0.0001 C   0  0  0  0  0  0  0  0  0  0  0  0
    2.7627   -1.6336    0.0000 C   0  0  0  0  0  0  0  0  0  0  0  0
    3.2295    0.7375   -0.0001 C   0  0  0  0  0  0  0  0  0  0  0  0
   -3.2150    0.7748    0.0001 C   0  0  0  0  0  0  0  0  0  0  0  0
    3.6779   -0.5823   -0.0001 C   0  0  0  0  0  0  0  0  0  0  0  0
  1 12  1  0
  2  3  2  0
  2  4  1  0
  2  5  1  0
  3  6  1  0
  3  7  1  0
  4  8  2  0
  4 12  1  0
  5 10  1  0
  5 13  2  0
  6  9  2  0
  6 14  1  0
  7 11  1  0
  7 15  2  0
  8  9  1  0
 10 11  2  0
 12 16  2  0
 13 16  1  0
 14 17  2  0
 15 17  1  0
M  END
>  <PUBCHEM_COMPOUND_CID>  (1) 
21387

>  <PUBCHEM_CONFORMER_RMSD>  (1) 
0.4

>  <PUBCHEM_CONFORMER_DIVERSEORDER>  (1) 
1

>  <PUBCHEM_MMFF94_PARTIAL_CHARGES>  (1) 
21
1 -0.53
10 -0.15
11 -0.15
12 0.08
13 -0.15
14 -0.15
15 -0.15
16 -0.15
17 -0.15
18 0.15
19 0.15
20 0.15
21 0.15
22 0.15
23 0.15
24 0.15
25 0.15
26 0.15
27 0.45
8 -0.15
9 -0.15

>  <PUBCHEM_EFFECTIVE_ROTOR_COUNT>  (1) 
0

>  <PUBCHEM_PHARMACOPHORE_FEATURES>  (1) 
5
1 1 donor
6 2 3 4 6 8 9 rings
6 2 3 5 7 10 11 rings
6 2 4 5 12 13 16 rings
6 3 6 7 14 15 17 rings

>  <PUBCHEM_HEAVY_ATOM_COUNT>  (1) 
17

>  <PUBCHEM_ATOM_DEF_STEREO_COUNT>  (1) 
0

>  <PUBCHEM_ATOM_UDEF_STEREO_COUNT>  (1) 
0

>  <PUBCHEM_BOND_DEF_STEREO_COUNT>  (1) 
0

>  <PUBCHEM_BOND_UDEF_STEREO_COUNT>  (1) 
0

>  <PUBCHEM_ISOTOPIC_ATOM_COUNT>  (1) 
0

>  <PUBCHEM_COMPONENT_COUNT>  (1) 
1

>  <PUBCHEM_CACTVS_TAUTO_COUNT>  (1) 
3

>  <PUBCHEM_CONFORMER_ID>  (1) 
0000538B00000001

>  <PUBCHEM_MMFF94_ENERGY>  (1) 
60.7471

>  <PUBCHEM_FEATURE_SELFOVERLAP>  (1) 
25.504

>  <PUBCHEM_SHAPE_FINGERPRINT>  (1) 
10967382 1 18410575041829547942
11132069 177 18339355258567055376
11471102 20 18410287004464543077
11578080 2 17273386544253517313
11680986 33 18120938574873388643
12382932 28 18340204064195011224
13132413 78 18412545401021233220
13140716 1 18339078159977344792
13221675 6 18410855477355685670
14790565 3 18338255836976233300
15196674 1 18410855456028405796
15442244 35 18122060901705388826
15536298 74 18343864420351082360
16945 1 18266741474690680036
193761 8 17834113421963810178
19591789 44 18410858737378658406
20510252 161 18344146986091542912
20905425 154 18052820239219905718
21267235 1 18410865342895778926
21501502 16 18409731729190405144
22721475 48 18409735074996380432
2334 1 18410855451554070956
23402539 116 18342164545394445222
23419403 2 16112811394359449992
23463225 33 18336264557209157424
23559900 14 18342741785452769766
238 59 17539645215969339821
2748010 2 18411135796959670620
335352 9 17978510836498432437
34934 24 18265606589802022441
5104073 3 18411136918167668834
528886 8 18339355267019774952
589210 1 17906173206424457642
7364860 26 18197779006122695264
8809292 202 18261680280913189483
9709674 26 18411985771230765782

>  <PUBCHEM_SHAPE_MULTIPOLES>  (1) 
343.98
5.21
2.91
0.61
0.12
0.31
0
-0.78
0
0.14
0
-0.02
0.01
0

>  <PUBCHEM_SHAPE_SELFOVERLAP>  (1) 
805.84

>  <PUBCHEM_SHAPE_VOLUME>  (1) 
175.6

>  <PUBCHEM_COORDINATE_TYPE>  (1) 
2
5
10

$$$$
