21389
     RDKit          3D

 26 29  0  0  0  0  0  0  0  0999 V2000
   -0.7164    0.8196   -0.0035 O   0  0  0  0  0  0  0  0  0  0  0  0
   -6.8287    0.5692    0.0017 N   0  0  0  0  0  0  0  0  0  0  0  0
    7.0417    0.7798    0.0013 N   0  0  0  0  0  0  0  0  0  0  0  0
   -4.9464    1.8297   -0.0004 N   0  0  0  0  0  0  0  0  0  0  0  0
    6.1630   -1.3082    0.0008 N   0  0  0  0  0  0  0  0  0  0  0  0
   -1.0639   -1.4973   -0.0014 N   0  0  0  0  0  0  0  0  0  0  0  0
    1.0907   -0.6648   -0.0019 N   0  0  0  0  0  0  0  0  0  0  0  0
   -7.3866    1.8880    0.0088 C   0  0  0  0  0  0  0  0  0  0  0  0
    8.2330   -0.0148    0.0095 C   0  0  0  0  0  0  0  0  0  0  0  0
   -5.4636    0.6240    0.0005 C   0  0  0  0  0  0  0  0  0  0  0  0
    5.9318   -0.0167    0.0006 C   0  0  0  0  0  0  0  0  0  0  0  0
   -6.1208    2.7492   -0.0040 C   0  0  0  0  0  0  0  0  0  0  0  0
    7.6495   -1.4303   -0.0024 C   0  0  0  0  0  0  0  0  0  0  0  0
   -4.6372   -0.5725    0.0007 C   0  0  0  0  0  0  0  0  0  0  0  0
    4.5836    0.5280    0.0000 C   0  0  0  0  0  0  0  0  0  0  0  0
   -3.2469   -0.4606   -0.0010 C   0  0  0  0  0  0  0  0  0  0  0  0
    3.4840   -0.3301   -0.0011 C   0  0  0  0  0  0  0  0  0  0  0  0
   -2.4547   -1.6087   -0.0016 C   0  0  0  0  0  0  0  0  0  0  0  0
    2.2064    0.2052   -0.0024 C   0  0  0  0  0  0  0  0  0  0  0  0
   -5.2355   -1.8326    0.0017 C   0  0  0  0  0  0  0  0  0  0  0  0
    4.3902    1.9096   -0.0002 C   0  0  0  0  0  0  0  0  0  0  0  0
   -3.0531   -2.8687   -0.0005 C   0  0  0  0  0  0  0  0  0  0  0  0
    1.9976    1.5745   -0.0026 C   0  0  0  0  0  0  0  0  0  0  0  0
   -4.4435   -2.9808    0.0011 C   0  0  0  0  0  0  0  0  0  0  0  0
    3.0972    2.4328   -0.0015 C   0  0  0  0  0  0  0  0  0  0  0  0
   -0.2714   -0.3236   -0.0023 C   0  0  0  0  0  0  0  0  0  0  0  0
  1 26  2  0
  2  8  1  0
  2 10  1  0
  3  9  1  0
  3 11  1  0
  4 10  2  0
  4 12  1  0
  5 11  2  0
  5 13  1  0
  6 18  1  0
  6 26  1  0
  7 19  1  0
  7 26  1  0
  8 12  1  0
  9 13  1  0
 10 14  1  0
 11 15  1  0
 14 16  2  0
 14 20  1  0
 15 17  2  0
 15 21  1  0
 16 18  1  0
 17 19  1  0
 18 22  2  0
 19 23  2  0
 20 24  2  0
 21 25  2  0
 22 24  1  0
 23 25  1  0
M  END
>  <PUBCHEM_COMPOUND_CID>  (1) 
21389

>  <PUBCHEM_CONFORMER_RMSD>  (1) 
0.8

>  <PUBCHEM_CONFORMER_DIVERSEORDER>  (1) 
2
14
11
4
6
10
1
12
5
9
13
3
15
7
8

>  <PUBCHEM_MMFF94_PARTIAL_CHARGES>  (1) 
38
1 -0.57
10 0.41
11 0.41
12 0.25
13 0.25
14 0.09
15 0.09
16 -0.15
17 -0.15
18 0.12
19 0.12
2 -0.82
20 -0.15
21 -0.15
22 -0.15
23 -0.15
24 -0.15
25 -0.15
26 0.69
3 -0.82
35 0.4
36 0.4
37 0.15
38 0.15
39 0.15
4 -0.7
40 0.15
41 0.15
42 0.15
43 0.15
44 0.15
45 0.37
46 0.37
5 -0.7
6 -0.55
7 -0.55
8 0.37
9 0.37

>  <PUBCHEM_EFFECTIVE_ROTOR_COUNT>  (1) 
7.2

>  <PUBCHEM_PHARMACOPHORE_FEATURES>  (1) 
11
1 1 acceptor
1 2 donor
1 3 donor
1 6 donor
1 7 donor
3 2 4 10 cation
3 3 5 11 cation
5 2 4 8 10 12 rings
5 3 5 9 11 13 rings
6 14 16 18 20 22 24 rings
6 15 17 19 21 23 25 rings

>  <PUBCHEM_HEAVY_ATOM_COUNT>  (1) 
26

>  <PUBCHEM_ATOM_DEF_STEREO_COUNT>  (1) 
0

>  <PUBCHEM_ATOM_UDEF_STEREO_COUNT>  (1) 
0

>  <PUBCHEM_BOND_DEF_STEREO_COUNT>  (1) 
0

>  <PUBCHEM_BOND_UDEF_STEREO_COUNT>  (1) 
0

>  <PUBCHEM_ISOTOPIC_ATOM_COUNT>  (1) 
0

>  <PUBCHEM_COMPONENT_COUNT>  (1) 
1

>  <PUBCHEM_CACTVS_TAUTO_COUNT>  (1) 
2

>  <PUBCHEM_CONFORMER_ID>  (1) 
0000538D00000002

>  <PUBCHEM_MMFF94_ENERGY>  (1) 
93.3438

>  <PUBCHEM_FEATURE_SELFOVERLAP>  (1) 
55.871

>  <PUBCHEM_SHAPE_FINGERPRINT>  (1) 
10050765 1 18266458896197979372
100830 39 18410012105072869001
10165383 225 18339923720024223337
10299344 5 18040716970145962590
10319926 262 18340757234486930906
10580692 12 18410856572756995018
10666366 153 18131361778619131758
10670039 82 18409722964059076233
10674148 151 18186800275920129864
10951579 204 18055655931527831068
11315181 36 17489871557251123931
11408170 132 18336274513909377020
11524674 6 17275105063183801614
11719270 70 17988926665590727222
12107183 9 18191296096665966739
13533116 47 13901647207877530364
13885169 127 18411418418729747870
14251752 14 18411981360130034632
14257110 125 18409448073457043437
14428016 86 18411419476283485981
14856354 85 15574722395907621019
14933364 13 18408604772853547940
15021287 119 17530689822515248557
15142383 8 18342737412880858108
15152005 290 18338233740550955549
15183329 4 18187355537011997010
15419008 42 17987524723080823879
15419008 91 18130774686417714792
15461852 350 17203604921609045421
15778101 99 18410293610483031275
15890870 6 18337951178915889933
17093844 174 18412824711518991235
17844677 252 18337960120092736017
19611394 137 17969799651871674723
21130935 74 18411697729781861714
21150785 3 12031783665051577606
21236236 1 18411698829377391599
21267235 1 18335706099623171010
21315763 129 18340206409463536575
21315763 28 18339079393076329887
21365058 27 14996286907150261992
21774942 28 17346046545592755473
23522609 53 17750536068856707220
23559900 14 18343015622780266080
23569943 247 16806706422618748690
249057 3 18410293605534170125
2838139 119 18343016697282031053
3004659 81 18261671562925845256
3103668 31 18042682798126740892
335352 9 18410855460196928852
350125 39 18408321073411033548
4073 2 18041846232975509122
4098825 35 18334012830832422692
4144715 1 18118125994238846656
4214541 1 18410574028639148807
4339292 15 16271348826130625255
5104073 3 18188764067099237889
531348 171 18272368719916338903
559249 180 18412544331701132767
58260988 114 15937269931613140867
59755656 215 18341616971392139206
59755656 520 18261107470326792607
6086070 43 16558455470194819667
6126387 218 18413384342195604080
6299153 45 18337111163750580640
6327066 14 18336260130074127053
6328613 192 18261116309090179500
7226269 152 18202284684804173441
9831232 110 18272663325109182022
99344 41 18412261723222580966

>  <PUBCHEM_SHAPE_MULTIPOLES>  (1) 
499.31
24.14
2.93
0.59
16.62
0.25
0
-3.9
-0.04
-4.73
0
0
0
0

>  <PUBCHEM_SHAPE_SELFOVERLAP>  (1) 
1089.193

>  <PUBCHEM_SHAPE_VOLUME>  (1) 
272.2

>  <PUBCHEM_COORDINATE_TYPE>  (1) 
2
5
10

$$$$
