2138
     RDKit          3D

 15 15  0  0  0  0  0  0  0  0999 V2000
    2.1893    0.2284    1.4208 O   0  0  0  0  0  0  0  0  0  0  0  0
    4.7014    0.1305    1.2332 O   0  0  0  0  0  0  0  0  0  0  0  0
    4.5524   -0.2013   -1.0322 O   0  0  0  0  0  0  0  0  0  0  0  0
   -4.6271    1.1904    0.2823 N   0  0  0  0  0  0  0  0  0  0  0  0
   -4.5356   -1.1325    0.5201 N   0  0  0  0  0  0  0  0  0  0  0  0
    0.2430   -0.0522   -0.6382 C   0  0  0  0  0  0  0  0  0  0  0  0
    1.7011   -0.0702   -0.9516 C   0  0  0  0  0  0  0  0  0  0  0  0
   -0.4517    1.1573   -0.6189 C   0  0  0  0  0  0  0  0  0  0  0  0
   -0.4258   -1.2450   -0.3634 C   0  0  0  0  0  0  0  0  0  0  0  0
   -2.4838   -0.0189   -0.0499 C   0  0  0  0  0  0  0  0  0  0  0  0
   -1.8150    1.1739   -0.3247 C   0  0  0  0  0  0  0  0  0  0  0  0
   -1.7892   -1.2284   -0.0692 C   0  0  0  0  0  0  0  0  0  0  0  0
    2.5806    0.0702    0.2738 C   0  0  0  0  0  0  0  0  0  0  0  0
   -3.9055   -0.0016    0.2560 C   0  0  0  0  0  0  0  0  0  0  0  0
    4.0659   -0.0006    0.0620 C   0  0  0  0  0  0  0  0  0  0  0  0
  1 13  2  0
  2 15  1  0
  3 15  2  0
  4 14  1  0
  5 14  2  0
  6  7  1  0
  6  8  2  0
  6  9  1  0
  7 13  1  0
  8 11  1  0
  9 12  2  0
 10 11  2  0
 10 12  1  0
 10 14  1  0
 13 15  1  0
M  END
>  <PUBCHEM_COMPOUND_CID>  (1) 
2138

>  <PUBCHEM_CONFORMER_RMSD>  (1) 
0.6

>  <PUBCHEM_CONFORMER_DIVERSEORDER>  (1) 
1
7
8
9
11
6
4
2
10
5
3

>  <PUBCHEM_MMFF94_PARTIAL_CHARGES>  (1) 
23
1 -0.57
10 0.09
11 -0.15
12 -0.15
13 0.51
14 0.41
15 0.72
18 0.15
19 0.15
2 -0.65
20 0.15
21 0.15
22 0.4
23 0.4
24 0.4
25 0.5
3 -0.57
4 -0.85
5 -0.85
6 -0.14
7 0.2
8 -0.15
9 -0.15

>  <PUBCHEM_EFFECTIVE_ROTOR_COUNT>  (1) 
4

>  <PUBCHEM_PHARMACOPHORE_FEATURES>  (1) 
8
1 1 acceptor
1 2 acceptor
1 3 acceptor
1 4 donor
1 5 donor
3 2 3 15 anion
3 4 5 14 cation
6 6 8 9 10 11 12 rings

>  <PUBCHEM_HEAVY_ATOM_COUNT>  (1) 
15

>  <PUBCHEM_ATOM_DEF_STEREO_COUNT>  (1) 
0

>  <PUBCHEM_ATOM_UDEF_STEREO_COUNT>  (1) 
0

>  <PUBCHEM_BOND_DEF_STEREO_COUNT>  (1) 
0

>  <PUBCHEM_BOND_UDEF_STEREO_COUNT>  (1) 
0

>  <PUBCHEM_ISOTOPIC_ATOM_COUNT>  (1) 
0

>  <PUBCHEM_COMPONENT_COUNT>  (1) 
1

>  <PUBCHEM_CACTVS_TAUTO_COUNT>  (1) 
2

>  <PUBCHEM_CONFORMER_ID>  (1) 
0000085A00000001

>  <PUBCHEM_MMFF94_ENERGY>  (1) 
38.5191

>  <PUBCHEM_FEATURE_SELFOVERLAP>  (1) 
40.707

>  <PUBCHEM_SHAPE_FINGERPRINT>  (1) 
11132069 177 18412268320149136991
11401426 45 18410854352754560989
11471102 20 16415479346495798056
12119455 92 17060337405342500589
12236239 1 17603309258694685350
12251169 10 18411134761904252732
13214271 11 18342457037225715477
13581323 91 18333448742290148654
13675066 3 18272091608166815287
14943859 89 16056876935678193767
15209294 21 18130516219432725745
15219456 202 18059860506408472638
15375462 189 17240474819290403136
17804303 29 18411140263936836853
17834072 33 17095811009061067686
18186145 218 16271922709894290398
19422 9 17458339694228412352
200 152 15285355119783700148
20510252 161 18341613659661442289
20645477 56 17917984001759232808
20645477 70 13984653734051343776
21119208 17 11815898972227437394
22485316 2 12973602252734787641
22854114 59 17847059986818526688
2297311 6 18339935844109933460
23402539 116 18201994430792808429
23532345 42 18410577305308948637
23559900 14 18269287789408320070
2748010 2 18048042874451093967
42 15 18186800262233640434
43471831 8 18115021905236512579
449060 50 17346884463562374879
69090 78 17632572764541236207

>  <PUBCHEM_SHAPE_MULTIPOLES>  (1) 
281.12
9.39
1.17
1
2.37
0.01
-0.12
-0.02
-2.16
-1.14
0.08
0.9
-0.02
0.13

>  <PUBCHEM_SHAPE_SELFOVERLAP>  (1) 
589.518

>  <PUBCHEM_SHAPE_VOLUME>  (1) 
157.7

>  <PUBCHEM_COORDINATE_TYPE>  (1) 
2
5
10

$$$$
