21395
     RDKit          3D

 15 14  0  0  0  0  0  0  0  0999 V2000
    0.0342   -1.5330    2.2906 O   0  0  0  0  0  0  0  0  0  0  0  0
   -0.0314   -1.5374   -2.2897 O   0  0  0  0  0  0  0  0  0  0  0  0
    3.6459    2.6451   -0.5833 N   0  0  0  0  0  0  0  0  0  0  0  0
   -3.6524    2.6384    0.5820 N   0  0  0  0  0  0  0  0  0  0  0  0
   -0.0004   -0.6911   -0.0003 C   0  0  0  0  0  0  0  0  0  0  0  0
    1.1799    0.1824   -0.5185 C   0  0  0  0  0  0  0  0  0  0  0  0
   -1.1840    0.1789    0.5161 C   0  0  0  0  0  0  0  0  0  0  0  0
    0.5182   -1.5816    1.1578 C   0  0  0  0  0  0  0  0  0  0  0  0
   -0.5153   -1.5860   -1.1568 C   0  0  0  0  0  0  0  0  0  0  0  0
    1.7617    1.1659    0.5049 C   0  0  0  0  0  0  0  0  0  0  0  0
   -1.7610    1.1676   -0.5051 C   0  0  0  0  0  0  0  0  0  0  0  0
    1.6778   -2.5105    0.8788 C   0  0  0  0  0  0  0  0  0  0  0  0
   -1.6703   -2.5200   -0.8755 C   0  0  0  0  0  0  0  0  0  0  0  0
    2.8149    1.9918   -0.1046 C   0  0  0  0  0  0  0  0  0  0  0  0
   -2.8177    1.9896    0.1037 C   0  0  0  0  0  0  0  0  0  0  0  0
  1  8  2  0
  2  9  2  0
  3 14  3  0
  4 15  3  0
  5  6  1  0
  5  7  1  0
  5  8  1  0
  5  9  1  0
  6 10  1  0
  7 11  1  0
  8 12  1  0
  9 13  1  0
 10 14  1  0
 11 15  1  0
M  END
>  <PUBCHEM_COMPOUND_CID>  (1) 
21395

>  <PUBCHEM_CONFORMER_RMSD>  (1) 
0.6

>  <PUBCHEM_CONFORMER_DIVERSEORDER>  (1) 
1
41
3
45
33
14
37
38
51
13
46
55
42
54
52
39
24
2
23
11
44
57
43
50
29
34
7
28
49
8
47
19
6
26
48
31
21
25
36
22
10
4
18
53
30
56
35
15
20
12
40
32
9
5
16
17
27

>  <PUBCHEM_MMFF94_PARTIAL_CHARGES>  (1) 
13
1 -0.57
10 0.2
11 0.2
12 0.06
13 0.06
14 0.36
15 0.36
2 -0.57
3 -0.56
4 -0.56
5 0.12
8 0.45
9 0.45

>  <PUBCHEM_EFFECTIVE_ROTOR_COUNT>  (1) 
6

>  <PUBCHEM_PHARMACOPHORE_FEATURES>  (1) 
5
1 1 acceptor
1 2 acceptor
1 3 acceptor
1 4 acceptor
5 5 6 7 10 11 hydrophobe

>  <PUBCHEM_HEAVY_ATOM_COUNT>  (1) 
15

>  <PUBCHEM_ATOM_DEF_STEREO_COUNT>  (1) 
0

>  <PUBCHEM_ATOM_UDEF_STEREO_COUNT>  (1) 
0

>  <PUBCHEM_BOND_DEF_STEREO_COUNT>  (1) 
0

>  <PUBCHEM_BOND_UDEF_STEREO_COUNT>  (1) 
0

>  <PUBCHEM_ISOTOPIC_ATOM_COUNT>  (1) 
0

>  <PUBCHEM_COMPONENT_COUNT>  (1) 
1

>  <PUBCHEM_CACTVS_TAUTO_COUNT>  (1) 
3

>  <PUBCHEM_CONFORMER_ID>  (1) 
0000539300000001

>  <PUBCHEM_MMFF94_ENERGY>  (1) 
26.272

>  <PUBCHEM_FEATURE_SELFOVERLAP>  (1) 
25.374

>  <PUBCHEM_SHAPE_FINGERPRINT>  (1) 
10219947 1 17621582931199811419
10756046 70 18125139572759443062
12423570 1 8012934920265024826
12725867 57 17118038422811716151
13024252 1 17463681353317574862
13134695 92 17466490218900286837
13380536 261 17908106074809783726
14344429 50 17756999912947911505
14817 1 16408097284992125135
15534591 1 18263363749480313096
16945 1 18411132554249117831
187816 3 17686324778567102558
20671657 1 18337952281746194552
20711985 344 17979909741965375936
21524375 3 18410855464423824160
23419403 2 17332589665571159154
23558518 356 18336269066930099772
298252 57 18202845461092763736
3060560 45 17912082755169997437
430814 3 18410004429549274353
5939293 188 17760644763549994309
68250623 7 18410851066377157154
68419 9 17982413200849949778
81228 2 17905601460299562104

>  <PUBCHEM_SHAPE_MULTIPOLES>  (1) 
286.99
4.26
3.66
1.54
0.02
0.35
0
5.6
0
0
0.01
0
-1.17
-1.41

>  <PUBCHEM_SHAPE_SELFOVERLAP>  (1) 
554.944

>  <PUBCHEM_SHAPE_VOLUME>  (1) 
169

>  <PUBCHEM_COORDINATE_TYPE>  (1) 
2
5
10

$$$$
