21391
     RDKit          3D

 24 26  0  0  0  0  0  0  0  0999 V2000
    4.9775    1.7352    0.1015 O   0  0  0  0  0  0  0  0  0  0  0  0
   -1.2702    0.1941    0.3884 N   0  0  0  0  0  0  0  0  0  0  0  0
    0.2217   -3.2231    0.1906 N   0  0  0  0  0  0  0  0  0  0  0  0
   -1.4209    2.2852   -0.3496 N   0  0  0  0  0  0  0  0  0  0  0  0
   -0.6812   -1.0454    0.8456 C   0  0  0  0  0  0  0  0  0  0  0  0
   -0.3934   -1.9999   -0.3097 C   0  0  0  0  0  0  0  0  0  0  0  0
   -2.6126    0.4367    0.2478 C   0  0  0  0  0  0  0  0  0  0  0  0
   -0.6002    1.3272    0.0195 C   0  0  0  0  0  0  0  0  0  0  0  0
    1.4823   -2.9250    0.8729 C   0  0  0  0  0  0  0  0  0  0  0  0
    0.4483   -4.1710   -0.9020 C   0  0  0  0  0  0  0  0  0  0  0  0
   -2.6805    1.7484   -0.2140 C   0  0  0  0  0  0  0  0  0  0  0  0
    0.8417    1.4325    0.0408 C   0  0  0  0  0  0  0  0  0  0  0  0
   -3.7388   -0.3542    0.4777 C   0  0  0  0  0  0  0  0  0  0  0  0
    2.0789   -4.1958    1.4466 C   0  0  0  0  0  0  0  0  0  0  0  0
   -0.8591   -4.4778   -1.6069 C   0  0  0  0  0  0  0  0  0  0  0  0
   -3.9385    2.3211   -0.4665 C   0  0  0  0  0  0  0  0  0  0  0  0
   -4.9826    0.2317    0.2209 C   0  0  0  0  0  0  0  0  0  0  0  0
   -5.0828    1.5455   -0.2428 C   0  0  0  0  0  0  0  0  0  0  0  0
    1.4877    1.8825    1.1901 C   0  0  0  0  0  0  0  0  0  0  0  0
    1.5796    1.0838   -1.0882 C   0  0  0  0  0  0  0  0  0  0  0  0
    2.8788    1.9844    1.2104 C   0  0  0  0  0  0  0  0  0  0  0  0
    2.9706    1.1855   -1.0677 C   0  0  0  0  0  0  0  0  0  0  0  0
    3.6203    1.6359    0.0815 C   0  0  0  0  0  0  0  0  0  0  0  0
    5.6734    1.3625   -1.0870 C   0  0  0  0  0  0  0  0  0  0  0  0
  1 23  1  0
  1 24  1  0
  2  5  1  0
  2  7  1  0
  2  8  1  0
  3  6  1  0
  3  9  1  0
  3 10  1  0
  4  8  2  0
  4 11  1  0
  5  6  1  0
  7 11  2  0
  7 13  1  0
  8 12  1  0
  9 14  1  0
 10 15  1  0
 11 16  1  0
 12 19  2  0
 12 20  1  0
 13 17  2  0
 16 18  2  0
 17 18  1  0
 19 21  1  0
 20 22  2  0
 21 23  2  0
 22 23  1  0
M  END
>  <PUBCHEM_COMPOUND_CID>  (1) 
21391

>  <PUBCHEM_CONFORMER_RMSD>  (1) 
0.8

>  <PUBCHEM_CONFORMER_DIVERSEORDER>  (1) 
3
11
14
16
10
13
12
15
1
5
6
2
4
9
7
8

>  <PUBCHEM_MMFF94_PARTIAL_CHARGES>  (1) 
30
1 -0.36
10 0.27
11 0.23
12 0.05
13 -0.15
16 -0.15
17 -0.15
18 -0.15
19 -0.15
2 0.05
20 -0.15
21 -0.15
22 -0.15
23 0.08
24 0.28
3 -0.81
33 0.15
4 -0.57
40 0.15
41 0.15
42 0.15
43 0.15
44 0.15
45 0.15
46 0.15
5 0.26
6 0.27
7 -0.15
8 0.13
9 0.27

>  <PUBCHEM_EFFECTIVE_ROTOR_COUNT>  (1) 
7

>  <PUBCHEM_PHARMACOPHORE_FEATURES>  (1) 
6
1 1 acceptor
1 3 cation
3 2 4 8 cation
5 2 4 7 8 11 rings
6 12 19 20 21 22 23 rings
6 7 11 13 16 17 18 rings

>  <PUBCHEM_HEAVY_ATOM_COUNT>  (1) 
24

>  <PUBCHEM_ATOM_DEF_STEREO_COUNT>  (1) 
0

>  <PUBCHEM_ATOM_UDEF_STEREO_COUNT>  (1) 
0

>  <PUBCHEM_BOND_DEF_STEREO_COUNT>  (1) 
0

>  <PUBCHEM_BOND_UDEF_STEREO_COUNT>  (1) 
0

>  <PUBCHEM_ISOTOPIC_ATOM_COUNT>  (1) 
0

>  <PUBCHEM_COMPONENT_COUNT>  (1) 
1

>  <PUBCHEM_CACTVS_TAUTO_COUNT>  (1) 
1

>  <PUBCHEM_CONFORMER_ID>  (1) 
0000538F00000003

>  <PUBCHEM_MMFF94_ENERGY>  (1) 
61.7816

>  <PUBCHEM_FEATURE_SELFOVERLAP>  (1) 
30.553

>  <PUBCHEM_SHAPE_FINGERPRINT>  (1) 
10190108 129 18194687184554163399
107951 10 18336837493336400606
11963148 33 18116147947869365091
12160290 23 17763496153714387826
12236239 1 17095240345315468148
12553582 1 16895403282491130386
12592029 89 18408887321503485409
12788726 201 17617367824462455234
13004483 165 17262424610460458470
133893 2 17974028166294460505
13540713 4 17898016733840849297
13681431 1 17979080375111280467
138480 1 17905325126656816754
14028597 1 17845664637595730417
140371 6 17548975559915168681
14659021 117 17691676106465931154
14866123 147 18267298914718694554
14955137 171 16756087965561901673
15042514 8 17976828897663008427
15664445 248 17625554388474105095
15927050 60 18412543241080393022
15961568 22 17617657653715838342
16752209 62 18120087535714836811
167882 2 18262518070298021666
18681886 176 18261111936808671396
19591789 44 18411699928161246459
20028762 73 17983021334756578767
20567600 347 18334861614732022651
20602899 9 18200886161273256193
20642791 13 17478878845764561801
21033648 29 18271235118553243417
21133410 230 17318783158756169962
21421861 104 17981902838645185649
22033318 11 16609740249233693555
22956985 138 18041555811202606739
23366157 5 17897450492960764945
23402539 116 18340201985584529013
23558518 356 17762328511300132640
23559900 14 18049995594058866331
3298306 158 18410294692366344942
38695281 34 18412825767875308279
43471831 8 18408322181354152089
46194498 28 17829864579181719085
5104073 3 18192724354482431657
5265222 85 18191038983323981548
5385378 56 18338526231364068985
59755656 215 18334575772337911835
59755656 520 18411697724969377940
6138700 20 18265339413399363142
6669772 16 18201446861159875366
7364860 26 18267298725560103345
81228 2 17476358778241610251

>  <PUBCHEM_SHAPE_MULTIPOLES>  (1) 
473.1
8.91
5.49
1.23
0.58
9.77
-0.03
-8.61
-1.09
-2.62
-0.59
-0.84
0.69
-0.67

>  <PUBCHEM_SHAPE_SELFOVERLAP>  (1) 
1009.799

>  <PUBCHEM_SHAPE_VOLUME>  (1) 
267.4

>  <PUBCHEM_COORDINATE_TYPE>  (1) 
2
5
10

$$$$
