21403
     RDKit          3D

 13 14  0  0  0  0  0  0  0  0999 V2000
    2.0465    0.3111   -0.5536 O   0  0  0  0  0  0  0  0  0  0  0  0
   -0.3329    0.1957   -0.1543 C   0  0  0  0  0  0  0  0  0  0  0  0
   -1.4711   -0.6050    0.1031 C   0  0  0  0  0  0  0  0  0  0  0  0
    0.9201   -0.4205   -0.3051 C   0  0  0  0  0  0  0  0  0  0  0  0
   -0.4814    1.5887   -0.2534 C   0  0  0  0  0  0  0  0  0  0  0  0
   -1.3229   -1.9981    0.2018 C   0  0  0  0  0  0  0  0  0  0  0  0
    1.0492   -1.8060   -0.2034 C   0  0  0  0  0  0  0  0  0  0  0  0
   -2.7242    0.0109    0.2537 C   0  0  0  0  0  0  0  0  0  0  0  0
   -0.0703   -2.5934    0.0494 C   0  0  0  0  0  0  0  0  0  0  0  0
   -1.7340    2.1838   -0.1007 C   0  0  0  0  0  0  0  0  0  0  0  0
   -2.8533    1.3964    0.1524 C   0  0  0  0  0  0  0  0  0  0  0  0
    3.0990    0.2185    0.4021 C   0  0  0  0  0  0  0  0  0  0  0  0
    3.8754    1.5181    0.4080 C   0  0  0  0  0  0  0  0  0  0  0  0
  1  4  1  0
  1 12  1  0
  2  3  1  0
  2  4  2  0
  2  5  1  0
  3  6  2  0
  3  8  1  0
  4  7  1  0
  5 10  2  0
  6  9  1  0
  7  9  2  0
  8 11  2  0
 10 11  1  0
 12 13  1  0
M  END
>  <PUBCHEM_COMPOUND_CID>  (1) 
21403

>  <PUBCHEM_CONFORMER_RMSD>  (1) 
0.6

>  <PUBCHEM_CONFORMER_DIVERSEORDER>  (1) 
1
2
3
4

>  <PUBCHEM_MMFF94_PARTIAL_CHARGES>  (1) 
17
1 -0.36
10 -0.15
11 -0.15
12 0.28
14 0.15
15 0.15
16 0.15
17 0.15
18 0.15
19 0.15
20 0.15
4 0.08
5 -0.15
6 -0.15
7 -0.15
8 -0.15
9 -0.15

>  <PUBCHEM_EFFECTIVE_ROTOR_COUNT>  (1) 
2

>  <PUBCHEM_PHARMACOPHORE_FEATURES>  (1) 
3
1 1 acceptor
6 2 3 4 6 7 9 rings
6 2 3 5 8 10 11 rings

>  <PUBCHEM_HEAVY_ATOM_COUNT>  (1) 
13

>  <PUBCHEM_ATOM_DEF_STEREO_COUNT>  (1) 
0

>  <PUBCHEM_ATOM_UDEF_STEREO_COUNT>  (1) 
0

>  <PUBCHEM_BOND_DEF_STEREO_COUNT>  (1) 
0

>  <PUBCHEM_BOND_UDEF_STEREO_COUNT>  (1) 
0

>  <PUBCHEM_ISOTOPIC_ATOM_COUNT>  (1) 
0

>  <PUBCHEM_COMPONENT_COUNT>  (1) 
1

>  <PUBCHEM_CACTVS_TAUTO_COUNT>  (1) 
1

>  <PUBCHEM_CONFORMER_ID>  (1) 
0000539B00000001

>  <PUBCHEM_MMFF94_ENERGY>  (1) 
42.6412

>  <PUBCHEM_FEATURE_SELFOVERLAP>  (1) 
15.249

>  <PUBCHEM_SHAPE_FINGERPRINT>  (1) 
10608611 8 18266740177689989804
10967382 1 18410294670580291637
11132069 177 18411417349420106232
12382932 28 18410015450434972881
13140716 1 17977675530216516475
13380535 76 18410852127233780503
13897977 150 18193556658223289837
14420673 8 18265040346695966914
14614273 12 18261103041893705397
14648413 74 17761213211224565257
16945 1 18336559286428621871
17846911 113 18411975871109297112
193761 8 18265616476975337687
20510252 161 18270403905099716896
20871998 184 18198348544292152670
21501502 16 18340480045977297307
21524375 3 18342731888883015302
2334 1 18337397015488856629
23402539 116 18198895006151110871
23552423 10 17902801764830060695
23559900 14 18271539615751126534
2748010 2 18191882136363174639
305870 269 18263359192424754730
3071541 12 17980484464339531942
3071541 236 18188202208051866811
43471831 8 18334293149835280858
5255222 1 17541106359268584221
53812653 166 18343019978056705537
5706482 22 18339065043295071570
6333449 129 18340203084937251232
7364860 26 17981324486849200734
81228 2 18194127540707039290

>  <PUBCHEM_SHAPE_MULTIPOLES>  (1) 
261.66
4.73
2.67
0.68
3.76
0.83
-0.01
-2.98
-0.8
-0.54
-0.03
0.08
-0.02
0.27

>  <PUBCHEM_SHAPE_SELFOVERLAP>  (1) 
563.075

>  <PUBCHEM_SHAPE_VOLUME>  (1) 
145.4

>  <PUBCHEM_COORDINATE_TYPE>  (1) 
2
5
10

$$$$
