21401
     RDKit          3D

 13 13  0  0  0  0  0  0  0  0999 V2000
    2.3358    0.4906    0.4498 O   0  0  0  0  0  0  0  0  0  0  0  0
   -2.5794    0.2122   -0.9420 O   0  0  0  0  0  0  0  0  0  0  0  0
    1.0735    0.8859   -1.4278 O   0  0  0  0  0  0  0  0  0  0  0  0
    0.2173    1.1862    0.7074 N   0  0  0  0  0  0  0  0  0  0  0  0
    3.1641   -0.4647   -0.2226 C   0  0  0  0  0  0  0  0  0  0  0  0
   -1.1118    1.6176    0.3404 C   0  0  0  0  0  0  0  0  0  0  0  0
    4.3994   -0.7384    0.6217 C   0  0  0  0  0  0  0  0  0  0  0  0
    2.3612   -1.7310   -0.4793 C   0  0  0  0  0  0  0  0  0  0  0  0
   -2.0215    0.4296    0.2635 C   0  0  0  0  0  0  0  0  0  0  0  0
    1.1953    0.8575   -0.2076 C   0  0  0  0  0  0  0  0  0  0  0  0
   -2.4019   -0.4882    1.1860 C   0  0  0  0  0  0  0  0  0  0  0  0
   -3.2785   -1.3629    0.5008 C   0  0  0  0  0  0  0  0  0  0  0  0
   -3.3535   -0.8944   -0.7901 C   0  0  0  0  0  0  0  0  0  0  0  0
  1  5  1  0
  1 10  1  0
  2  9  1  0
  2 13  1  0
  3 10  2  0
  4  6  1  0
  4 10  1  0
  5  7  1  0
  5  8  1  0
  6  9  1  0
  9 11  2  0
 11 12  1  0
 12 13  2  0
M  END
>  <PUBCHEM_COMPOUND_CID>  (1) 
21401

>  <PUBCHEM_CONFORMER_RMSD>  (1) 
0.6

>  <PUBCHEM_CONFORMER_DIVERSEORDER>  (1) 
1
77
60
145
34
14
139
85
122
143
78
111
84
58
142
48
126
29
144
99
88
124
45
11
112
16
43
96
128
40
35
135
51
62
137
56
4
140
27
33
76
98
87
20
127
72
28
136
24
81
64
95
21
75
65
13
141
100
55
83
82
63
50
93
15
71
130
8
57
36
59
79
23
61
114
94
49
80
91
42
138
9
12
120
115
5
86
7
53
32
121
3
66
89
113
19
134
10
131
17
92
22
47
37
2
106
105
129
116
6
69
123
44
133
18
107
104
68
97
70
118
54
90
102
31
41
39
132
117
109
52
46
125
119
26
30
74
103
25
38
73
108
67
101
110

>  <PUBCHEM_MMFF94_PARTIAL_CHARGES>  (1) 
15
1 -0.43
10 0.78
11 -0.15
12 -0.15
13 -0.01
2 -0.28
23 0.37
24 0.15
25 0.15
26 0.15
3 -0.57
4 -0.73
5 0.28
6 0.48
9 -0.04

>  <PUBCHEM_EFFECTIVE_ROTOR_COUNT>  (1) 
5

>  <PUBCHEM_PHARMACOPHORE_FEATURES>  (1) 
5
1 2 acceptor
1 3 acceptor
1 4 donor
3 5 7 8 hydrophobe
5 2 9 11 12 13 rings

>  <PUBCHEM_HEAVY_ATOM_COUNT>  (1) 
13

>  <PUBCHEM_ATOM_DEF_STEREO_COUNT>  (1) 
0

>  <PUBCHEM_ATOM_UDEF_STEREO_COUNT>  (1) 
0

>  <PUBCHEM_BOND_DEF_STEREO_COUNT>  (1) 
0

>  <PUBCHEM_BOND_UDEF_STEREO_COUNT>  (1) 
0

>  <PUBCHEM_ISOTOPIC_ATOM_COUNT>  (1) 
0

>  <PUBCHEM_COMPONENT_COUNT>  (1) 
1

>  <PUBCHEM_CACTVS_TAUTO_COUNT>  (1) 
2

>  <PUBCHEM_CONFORMER_ID>  (1) 
0000539900000001

>  <PUBCHEM_MMFF94_ENERGY>  (1) 
11.3573

>  <PUBCHEM_FEATURE_SELFOVERLAP>  (1) 
25.372

>  <PUBCHEM_SHAPE_FINGERPRINT>  (1) 
10149128 111 11314303945168770431
10618630 7 18411706490813005571
11127187 94 17821727260685050227
11137873 295 18334014982331047315
11769659 78 18408321068957518376
12251169 10 16415194602579561224
12382932 28 15913056391159755137
13549 16 12829484818928989320
13705890 14 17749392598116810216
14350558 41 18335990838727079654
17834072 14 18409719669059446600
18186145 218 12107793986533264004
19107657 162 18341898463395919878
19107657 46 18413672404713695190
19107657 9 11242241953126575007
201361 129 12103572957104669564
20201158 50 18334858315986324651
20281407 28 18273217486503973256
20361792 2 18342742961451291733
20645477 70 18265042716836807983
20671657 53 17822012016700296516
21119208 17 14417849228824450818
231179 274 10231763266530135370
23403322 49 18333728005132270875
25 1 11025788782536199148
27216 239 10952042368945533967
305870 269 11383837039150838220
9882013 296 16845566535109054402

>  <PUBCHEM_SHAPE_MULTIPOLES>  (1) 
244.94
7.22
1.59
1.07
3.3
0.07
0.1
3.56
-0.58
-0.08
0
-0.3
0
0

>  <PUBCHEM_SHAPE_SELFOVERLAP>  (1) 
493.768

>  <PUBCHEM_SHAPE_VOLUME>  (1) 
145

>  <PUBCHEM_COORDINATE_TYPE>  (1) 
2
5
10

$$$$
