21408
     RDKit          3D

 13 13  0  0  0  0  0  0  0  0999 V2000
   -2.7913   -1.1451   -0.3209 O   0  0  0  0  0  0  0  0  0  0  0  0
   -0.3361   -1.7149    0.7697 O   0  0  0  0  0  0  0  0  0  0  0  0
   -1.1793    0.5091    0.3777 C   0  0  0  0  0  0  0  0  0  0  0  0
   -3.6321    1.1038   -0.1113 C   0  0  0  0  0  0  0  0  0  0  0  0
   -2.5607    0.0279   -0.0317 C   0  0  0  0  0  0  0  0  0  0  0  0
   -0.0974   -0.5521    0.4538 C   0  0  0  0  0  0  0  0  0  0  0  0
    1.3102   -0.1574    0.1611 C   0  0  0  0  0  0  0  0  0  0  0  0
   -4.9925    0.5500   -0.4952 C   0  0  0  0  0  0  0  0  0  0  0  0
    1.7080    1.1300    0.4438 C   0  0  0  0  0  0  0  0  0  0  0  0
    2.1599   -1.0953   -0.3813 C   0  0  0  0  0  0  0  0  0  0  0  0
    3.0250    1.4992    0.1695 C   0  0  0  0  0  0  0  0  0  0  0  0
    3.4769   -0.7262   -0.6553 C   0  0  0  0  0  0  0  0  0  0  0  0
    3.9094    0.5711   -0.3799 C   0  0  0  0  0  0  0  0  0  0  0  0
  1  5  2  0
  2  6  2  0
  3  5  1  0
  3  6  1  0
  4  5  1  0
  4  8  1  0
  6  7  1  0
  7  9  2  0
  7 10  1  0
  9 11  1  0
 10 12  2  0
 11 13  2  0
 12 13  1  0
M  END
>  <PUBCHEM_COMPOUND_CID>  (1) 
21408

>  <PUBCHEM_CONFORMER_RMSD>  (1) 
0.6

>  <PUBCHEM_CONFORMER_DIVERSEORDER>  (1) 
1
73
62
66
28
76
47
69
5
43
64
87
19
27
10
67
56
36
4
78
72
29
75
7
2
63
17
89
3
54
15
40
51
61
57
6
49
68
37
77
59
60
18
32
83
13
86
91
39
34
8
24
14
85
23
65
70
16
12
42
50
25
90
21
20
38
71
84
11
81
30
80
22
48
26
58
33
53
44
52
88
55
82
9
79
41
74
46
31
35
45

>  <PUBCHEM_MMFF94_PARTIAL_CHARGES>  (1) 
17
1 -0.57
10 -0.15
11 -0.15
12 -0.15
13 -0.15
2 -0.57
21 0.15
22 0.15
23 0.15
24 0.15
25 0.15
3 0.12
4 0.06
5 0.45
6 0.42
7 0.09
9 -0.15

>  <PUBCHEM_EFFECTIVE_ROTOR_COUNT>  (1) 
4

>  <PUBCHEM_PHARMACOPHORE_FEATURES>  (1) 
5
1 1 acceptor
1 2 acceptor
1 3 anion
1 8 hydrophobe
6 7 9 10 11 12 13 rings

>  <PUBCHEM_HEAVY_ATOM_COUNT>  (1) 
13

>  <PUBCHEM_ATOM_DEF_STEREO_COUNT>  (1) 
0

>  <PUBCHEM_ATOM_UDEF_STEREO_COUNT>  (1) 
0

>  <PUBCHEM_BOND_DEF_STEREO_COUNT>  (1) 
0

>  <PUBCHEM_BOND_UDEF_STEREO_COUNT>  (1) 
0

>  <PUBCHEM_ISOTOPIC_ATOM_COUNT>  (1) 
0

>  <PUBCHEM_COMPONENT_COUNT>  (1) 
1

>  <PUBCHEM_CACTVS_TAUTO_COUNT>  (1) 
5

>  <PUBCHEM_CONFORMER_ID>  (1) 
000053A000000001

>  <PUBCHEM_MMFF94_ENERGY>  (1) 
25.4758

>  <PUBCHEM_FEATURE_SELFOVERLAP>  (1) 
25.377

>  <PUBCHEM_SHAPE_FINGERPRINT>  (1) 
10498660 4 17896028859155691205
10608611 8 18338799038827601216
11401426 45 18272366477895222816
11471102 20 18341895177830165572
11543360 7 17417802985202927645
12932764 1 17821719520795104707
13081056 2 18335701628889192085
14252887 29 9799691523410264661
14325111 11 18410856581119920385
14415576 193 18411985766835253524
14911166 2 18411427189553950982
14993402 34 17131839776426684868
15775835 57 18259703384876316135
17834072 33 18202275927544964429
18186145 218 18407755924059569957
200 152 17418094303965034272
20201158 50 18343308058919821054
20281407 28 10807946967614945816
20606313 2 18413670210238432564
20645477 56 18334575784600509945
20645477 70 18202004283078923182
20871999 31 17988351685275368439
21119208 17 17846779598336790261
212847 35 18113336384307737940
22485316 2 11240001135560109165
231179 274 17822284661192546029
23402539 116 18409158935551769196
23402655 69 18343866614815860516
23559900 14 18342176670493134658
25 1 18336265660752131890
2748010 2 18124892393555448682
276578 36 16732980916653968682
3060560 45 18201438056355397598
4028521 119 18261386716162878741
4047638 21 18261114075743666808
4072396 5 18340194229690522874
4990 188 18271810098909494135
522135 26 18343019960691985957
69090 78 18344142601014206087
77779 3 18342459248849062045
93112 12 18272089404843246173

>  <PUBCHEM_SHAPE_MULTIPOLES>  (1) 
255.8
8.45
1.46
0.77
6.49
0.07
0
-2.11
-2.23
-0.47
0.12
-0.06
0.06
0.32

>  <PUBCHEM_SHAPE_SELFOVERLAP>  (1) 
524.096

>  <PUBCHEM_SHAPE_VOLUME>  (1) 
147.4

>  <PUBCHEM_COORDINATE_TYPE>  (1) 
2
5
10

$$$$
