21418
     RDKit          3D

 14 13  0  0  0  0  0  0  0  0999 V2000
    5.3113    1.2107    1.2515 Cl  0  0  0  0  0  0  0  0  0  0  0  0
   -5.3123   -1.2086    1.2521 Cl  0  0  0  0  0  0  0  0  0  0  0  0
    2.9084    0.0104   -0.2085 O   0  0  0  0  0  0  0  0  0  0  0  0
   -2.9083   -0.0108   -0.2084 O   0  0  0  0  0  0  0  0  0  0  0  0
    1.6607   -1.9341   -0.2107 O   0  0  0  0  0  0  0  0  0  0  0  0
   -1.6602    1.9332   -0.2116 O   0  0  0  0  0  0  0  0  0  0  0  0
    4.1194   -0.7527   -0.2062 C   0  0  0  0  0  0  0  0  0  0  0  0
   -4.1190    0.7530   -0.2068 C   0  0  0  0  0  0  0  0  0  0  0  0
    5.3143    0.1828   -0.2041 C   0  0  0  0  0  0  0  0  0  0  0  0
   -5.3144   -0.1818   -0.2043 C   0  0  0  0  0  0  0  0  0  0  0  0
    0.6263    0.2347   -0.2111 C   0  0  0  0  0  0  0  0  0  0  0  0
   -0.6263   -0.2359   -0.2107 C   0  0  0  0  0  0  0  0  0  0  0  0
    1.7590   -0.7172   -0.2106 C   0  0  0  0  0  0  0  0  0  0  0  0
   -1.7588    0.7164   -0.2107 C   0  0  0  0  0  0  0  0  0  0  0  0
  1  9  1  0
  2 10  1  0
  3  7  1  0
  3 13  1  0
  4  8  1  0
  4 14  1  0
  5 13  2  0
  6 14  2  0
  7  9  1  0
  8 10  1  0
 11 12  2  0
 11 13  1  0
 12 14  1  0
M  END
>  <PUBCHEM_COMPOUND_CID>  (1) 
21418

>  <PUBCHEM_CONFORMER_RMSD>  (1) 
0.8

>  <PUBCHEM_CONFORMER_DIVERSEORDER>  (1) 
1
74
30
49
7
13
12
69
19
43
52
83
76
22
54
48
87
8
3
20
31
77
51
78
64
2
34
21
5
67
79
39
15
9
86
50
38
66
56
4
45
28
42
63
65
29
23
10
60
37
55
11
36
81
27
72
26
47
44
80
35
16
33
46
84
58
61
75
85
14
17
24
62
6
41
73
68
40
71
59
25
53
18
57
32
70
82

>  <PUBCHEM_MMFF94_PARTIAL_CHARGES>  (1) 
16
1 -0.29
10 0.29
11 -0.14
12 -0.14
13 0.71
14 0.71
2 -0.29
23 0.15
24 0.15
3 -0.43
4 -0.43
5 -0.57
6 -0.57
7 0.28
8 0.28
9 0.29

>  <PUBCHEM_EFFECTIVE_ROTOR_COUNT>  (1) 
8

>  <PUBCHEM_PHARMACOPHORE_FEATURES>  (1) 
2
1 5 acceptor
1 6 acceptor

>  <PUBCHEM_HEAVY_ATOM_COUNT>  (1) 
14

>  <PUBCHEM_ATOM_DEF_STEREO_COUNT>  (1) 
0

>  <PUBCHEM_ATOM_UDEF_STEREO_COUNT>  (1) 
0

>  <PUBCHEM_BOND_DEF_STEREO_COUNT>  (1) 
0

>  <PUBCHEM_BOND_UDEF_STEREO_COUNT>  (1) 
1

>  <PUBCHEM_ISOTOPIC_ATOM_COUNT>  (1) 
0

>  <PUBCHEM_COMPONENT_COUNT>  (1) 
1

>  <PUBCHEM_CACTVS_TAUTO_COUNT>  (1) 
1

>  <PUBCHEM_CONFORMER_ID>  (1) 
000053AA00000001

>  <PUBCHEM_MMFF94_ENERGY>  (1) 
17.6091

>  <PUBCHEM_FEATURE_SELFOVERLAP>  (1) 
10.149

>  <PUBCHEM_SHAPE_FINGERPRINT>  (1) 
11287383 113 18261114092628136896
11858739 19 11963383034172165072
124424 183 11602827890824774351
12555020 224 11530480038802923945
13081056 2 18272930506059749060
13237642 15 18410575088958046523
13533116 47 17822282436911281242
14123238 8 18410573976561516638
1420 363 18409736157344086735
14251732 16 18338517546459726059
14252887 29 17988653955977219983
14366163 111 13901900146817466178
17834072 33 17060331950628630300
17834076 25 14908181953779002255
18222031 100 16950568757669726982
18785283 64 18193555794845822864
20281389 69 13542469739425294315
20621476 91 18189049961919309299
20645477 70 17346043256269987318
22079108 93 18343296002967668194
23218964 4 10519990352567891868
23402539 116 14129055915984002031
23557571 272 18114467734269636556
23590187 135 17749398104655469075
26918003 58 18040999544644636165
3014965 18 10375607974840906476
32948 21 10952051152032218186
42788 4 18272368659395776308
449060 50 18201717345082724622
474229 33 18335140899011973467
5104073 3 18338517409020773161
59345605 10 18261678168459374707
59682541 35 18338517572229530291

>  <PUBCHEM_SHAPE_MULTIPOLES>  (1) 
268.38
14.02
1.43
0.89
0
0
0.33
-0.01
3.71
0
0.11
0
0
1.45

>  <PUBCHEM_SHAPE_SELFOVERLAP>  (1) 
495.858

>  <PUBCHEM_SHAPE_VOLUME>  (1) 
169.5

>  <PUBCHEM_COORDINATE_TYPE>  (1) 
2
5
10

$$$$
