21419
     RDKit          3D

 15 16  0  0  0  0  0  0  0  0999 V2000
    3.2188    2.4786    0.0009 Cl  0  0  0  0  0  0  0  0  0  0  0  0
    3.0757   -2.9040   -0.0006 Cl  0  0  0  0  0  0  0  0  0  0  0  0
    0.2443    2.2459    0.0001 O   0  0  0  0  0  0  0  0  0  0  0  0
    0.1776   -0.1442    0.0000 C   0  0  0  0  0  0  0  0  0  0  0  0
   -1.2692   -0.1380    0.0002 C   0  0  0  0  0  0  0  0  0  0  0  0
    0.9027    1.0488    0.0010 C   0  0  0  0  0  0  0  0  0  0  0  0
    0.8520   -1.3666   -0.0011 C   0  0  0  0  0  0  0  0  0  0  0  0
   -1.9668   -0.1359    1.2080 C   0  0  0  0  0  0  0  0  0  0  0  0
   -1.9664   -0.1321   -1.2078 C   0  0  0  0  0  0  0  0  0  0  0  0
    2.2973    1.0196    0.0009 C   0  0  0  0  0  0  0  0  0  0  0  0
    2.2465   -1.3957   -0.0011 C   0  0  0  0  0  0  0  0  0  0  0  0
    2.9692   -0.2027   -0.0001 C   0  0  0  0  0  0  0  0  0  0  0  0
   -3.3616   -0.1278    1.2079 C   0  0  0  0  0  0  0  0  0  0  0  0
   -3.3612   -0.1240   -1.2080 C   0  0  0  0  0  0  0  0  0  0  0  0
   -4.0589   -0.1218   -0.0002 C   0  0  0  0  0  0  0  0  0  0  0  0
  1 10  1  0
  2 11  1  0
  3  6  1  0
  4  5  1  0
  4  6  2  0
  4  7  1  0
  5  8  2  0
  5  9  1  0
  6 10  1  0
  7 11  2  0
  8 13  1  0
  9 14  2  0
 10 12  2  0
 11 12  1  0
 13 15  2  0
 14 15  1  0
M  END
>  <PUBCHEM_COMPOUND_CID>  (1) 
21419

>  <PUBCHEM_CONFORMER_RMSD>  (1) 
0.4

>  <PUBCHEM_CONFORMER_DIVERSEORDER>  (1) 
1
2

>  <PUBCHEM_MMFF94_PARTIAL_CHARGES>  (1) 
21
1 -0.18
10 0.18
11 0.18
12 -0.15
13 -0.15
14 -0.15
15 -0.15
16 0.15
17 0.15
18 0.15
19 0.15
2 -0.18
20 0.15
21 0.15
22 0.15
23 0.45
3 -0.53
6 0.08
7 -0.15
8 -0.15
9 -0.15

>  <PUBCHEM_EFFECTIVE_ROTOR_COUNT>  (1) 
1

>  <PUBCHEM_PHARMACOPHORE_FEATURES>  (1) 
3
1 3 donor
6 4 6 7 10 11 12 rings
6 5 8 9 13 14 15 rings

>  <PUBCHEM_HEAVY_ATOM_COUNT>  (1) 
15

>  <PUBCHEM_ATOM_DEF_STEREO_COUNT>  (1) 
0

>  <PUBCHEM_ATOM_UDEF_STEREO_COUNT>  (1) 
0

>  <PUBCHEM_BOND_DEF_STEREO_COUNT>  (1) 
0

>  <PUBCHEM_BOND_UDEF_STEREO_COUNT>  (1) 
0

>  <PUBCHEM_ISOTOPIC_ATOM_COUNT>  (1) 
0

>  <PUBCHEM_COMPONENT_COUNT>  (1) 
1

>  <PUBCHEM_CACTVS_TAUTO_COUNT>  (1) 
3

>  <PUBCHEM_CONFORMER_ID>  (1) 
000053AB00000001

>  <PUBCHEM_MMFF94_ENERGY>  (1) 
44.748

>  <PUBCHEM_FEATURE_SELFOVERLAP>  (1) 
15.223

>  <PUBCHEM_SHAPE_FINGERPRINT>  (1) 
10608611 8 18186794781929399413
10980938 120 18411417349404145492
11031198 65 18334860570785925084
11471102 20 18409728482395706452
12236239 1 17703791422785813579
12553582 1 18196376914160101630
12932764 1 17632574967959588081
13140716 1 18266737068782273978
13296908 3 17894915109447097075
13538477 17 17418087767446913575
13581323 91 14996273747655133577
14144814 61 18202846560783486227
14251717 144 18412538829631450038
15219456 202 18040714796570621029
15279307 12 18130505365528246302
15309172 13 18193277609660443304
15442244 35 18197221347347332721
15775835 57 18059016201964401277
16945 1 18410856560114575718
17844478 74 17894916221959606397
1813 80 17914348883311392038
18186145 218 18341901852130423812
19049666 15 17822845373547010341
19422 9 17988925569925368135
19784866 34 18196654218739184168
200 152 18272923908884344495
20201158 50 18187082840827068235
20279233 1 17749387091910714619
20361792 2 18269551645996587343
204376 136 18121499313436052240
20645476 183 17846214535760528751
20645477 70 18336536153735084111
20671657 53 18265052418951944002
20715346 28 17822013129123056779
20871998 22 18054793888651906022
21499 59 18195244640431575276
21501502 16 18267309729129529320
21639500 275 18340196505068589285
22112679 90 17346599664344365153
2255824 54 18342460331228748206
22802520 49 18041551425998234021
22943178 12 17967534575528216595
23557571 272 17022904553507758013
23559900 14 16877939404442217738
23598291 2 18060698403172866159
25 1 18337390564506273084
2748010 2 18051962624877490422
458136 41 18263939889452107420
474 4 18198621236266672824
54173680 148 17545884824377146802
581208 293 18340762723718755280
6049 1 17822295647739774021
63268167 104 18342173405574262625
633830 44 18058184992743870668
7364860 26 18412825781345447786
7615 1 17846776287080470505
77492 1 17703791422780545319
81228 2 17546442280945791624
81539 233 18188490293489427196
8272917 22 18341620291407140127
84936 182 17987794253891017224
9981440 41 15689814045938844264

>  <PUBCHEM_SHAPE_MULTIPOLES>  (1) 
306.56
6.71
2.33
1.01
3.31
0.11
0
0.55
0
-3.98
0
1.04
0.05
0

>  <PUBCHEM_SHAPE_SELFOVERLAP>  (1) 
649.696

>  <PUBCHEM_SHAPE_VOLUME>  (1) 
173.8

>  <PUBCHEM_COORDINATE_TYPE>  (1) 
2
5
10

$$$$
