21430
     RDKit          3D

 16 15  0  0  0  0  0  0  0  0999 V2000
   -2.9674   -0.2836    0.2580 O   0  0  0  0  0  0  0  0  0  0  0  0
    3.2645   -0.6288   -0.5234 O   0  0  0  0  0  0  0  0  0  0  0  0
   -1.5078    2.3220    0.6131 O   0  0  0  0  0  0  0  0  0  0  0  0
   -4.2927   -2.0690   -0.3687 O   0  0  0  0  0  0  0  0  0  0  0  0
    4.8591    0.1291    0.9664 O   0  0  0  0  0  0  0  0  0  0  0  0
   -0.1830    0.4422    0.2753 N   0  0  0  0  0  0  0  0  0  0  0  0
   -0.8090   -0.3806    1.3024 C   0  0  0  0  0  0  0  0  0  0  0  0
    0.9048   -0.1972   -0.4605 C   0  0  0  0  0  0  0  0  0  0  0  0
   -1.9746   -1.1771    0.7451 C   0  0  0  0  0  0  0  0  0  0  0  0
    2.2461    0.0405    0.2089 C   0  0  0  0  0  0  0  0  0  0  0  0
   -0.5941    1.7496    0.0130 C   0  0  0  0  0  0  0  0  0  0  0  0
    0.1433    2.4845   -1.0781 C   0  0  0  0  0  0  0  0  0  0  0  0
   -4.0826   -0.8671   -0.2766 C   0  0  0  0  0  0  0  0  0  0  0  0
    4.5338   -0.5005   -0.0309 C   0  0  0  0  0  0  0  0  0  0  0  0
   -5.0360    0.1899   -0.7455 C   0  0  0  0  0  0  0  0  0  0  0  0
    5.4958   -1.2540   -0.8986 C   0  0  0  0  0  0  0  0  0  0  0  0
  1  9  1  0
  1 13  1  0
  2 10  1  0
  2 14  1  0
  3 11  2  0
  4 13  2  0
  5 14  2  0
  6  7  1  0
  6  8  1  0
  6 11  1  0
  7  9  1  0
  8 10  1  0
 11 12  1  0
 13 15  1  0
 14 16  1  0
M  END
>  <PUBCHEM_COMPOUND_CID>  (1) 
21430

>  <PUBCHEM_CONFORMER_RMSD>  (1) 
0.8

>  <PUBCHEM_CONFORMER_DIVERSEORDER>  (1) 
1
79
121
84
233
28
213
172
122
20
190
25
241
86
151
45
10
243
16
156
30
83
199
23
4
201
21
12
155
91
163
70
62
64
78
227
235
171
195
29
106
218
139
8
115
59
170
7
66
50
137
3
141
107
210
89
187
42
98
249
242
18
39
149
114
186
17
67
198
90
231
125
95
209
211
26
87
223
135
181
75
177
234
57
35
46
101
152
111
203
58
22
41
184
109
31
215
48
61
206
185
133
82
88
200
124
130
34
166
189
160
146
19
93
85
214
92
245
94
165
68
5
142
221
118
65
197
128
144
40
224
81
164
47
76
51
9
222
103
27
162
179
140
237
119
53
100
97
74
105
2
168
117
225
129
202
102
123
126
230
192
194
55
6
33
24
63
147
127
132
219
13
193
205
159
15
204
120
207
80
238
112
191
116
220
104
240
239
182
217
145
72
54
60
176
246
11
14
38
96
216
228
71
154
236
52
183
49
143
158
138
232
180
32
208
131
248
169
73
113
178
99
212
175
196
167
157
161
226
244
43
44
56
150
134
110
136
174
37
153
173
247
36
108
229
77
188
148
69

>  <PUBCHEM_MMFF94_PARTIAL_CHARGES>  (1) 
16
1 -0.43
10 0.28
11 0.57
12 0.06
13 0.66
14 0.66
15 0.06
16 0.06
2 -0.43
3 -0.57
4 -0.57
5 -0.57
6 -0.66
7 0.3
8 0.3
9 0.28

>  <PUBCHEM_EFFECTIVE_ROTOR_COUNT>  (1) 
9

>  <PUBCHEM_PHARMACOPHORE_FEATURES>  (1) 
3
1 3 acceptor
1 4 acceptor
1 5 acceptor

>  <PUBCHEM_HEAVY_ATOM_COUNT>  (1) 
16

>  <PUBCHEM_ATOM_DEF_STEREO_COUNT>  (1) 
0

>  <PUBCHEM_ATOM_UDEF_STEREO_COUNT>  (1) 
0

>  <PUBCHEM_BOND_DEF_STEREO_COUNT>  (1) 
0

>  <PUBCHEM_BOND_UDEF_STEREO_COUNT>  (1) 
0

>  <PUBCHEM_ISOTOPIC_ATOM_COUNT>  (1) 
0

>  <PUBCHEM_COMPONENT_COUNT>  (1) 
1

>  <PUBCHEM_CACTVS_TAUTO_COUNT>  (1) 
1

>  <PUBCHEM_CONFORMER_ID>  (1) 
000053B600000001

>  <PUBCHEM_MMFF94_ENERGY>  (1) 
21.6577

>  <PUBCHEM_FEATURE_SELFOVERLAP>  (1) 
15.224

>  <PUBCHEM_SHAPE_FINGERPRINT>  (1) 
10366900 7 18409176502432454626
10989021 7 18334581278175210396
11401426 45 18409163320581619955
12403259 118 14405191633854430722
12916748 109 8286202760023438222
14178000 29 18340486776111760135
14911166 2 18040713684400957747
14943859 89 11746935395103923634
15501527 16 8286193951124505494
15848700 24 18336540603188963452
17834072 14 18335421308926205664
17834072 8 18334006190833517151
17959699 21 16877667889510322564
18186145 218 17168138000959868773
187816 3 17894632551975013171
200 152 18186521003454773218
20374829 77 18409725166591322091
204376 136 10303817574880989617
20671657 53 18336554909841428437
20871999 31 18113614543459089005
22224240 67 10087638213489127997
23402539 116 18409163303259345503
23419403 2 18127386008117446401
23557571 272 18270408183198574884
23559900 14 18335138743470959056
2871803 45 18408605829922294762
2916195 48 10881404261493666622
3009799 131 18261662740609546517
3286 77 17704074006032963640
347723 3 17821726122492180689
366044 4 9079116656814955093
5283173 99 18187636986092771501
68521 5 18260264118547842517
81228 2 18190760655735281344

>  <PUBCHEM_SHAPE_MULTIPOLES>  (1) 
294.94
10.99
2.04
1.03
6.47
1.32
0.07
-6.07
-2.63
-1.26
-0.32
0.15
0.03
0.24

>  <PUBCHEM_SHAPE_SELFOVERLAP>  (1) 
562.667

>  <PUBCHEM_SHAPE_VOLUME>  (1) 
180.5

>  <PUBCHEM_COORDINATE_TYPE>  (1) 
2
5
10

$$$$
