2143
     RDKit          3D

 24 27  0  0  1  0  0  0  0  0999 V2000
   -0.1533   -0.4421   -0.5837 O   0  0  0  0  0  0  0  0  0  0  0  0
   -4.1536   -1.0058   -0.4325 N   0  0  0  0  0  0  0  0  0  0  0  0
    1.0676    1.2369   -2.1494 N   0  0  0  0  0  0  0  0  0  0  0  0
   -3.5539   -1.1445    0.9082 C   0  0  0  0  0  0  0  0  0  0  0  0
   -3.8260    0.3869   -0.7924 C   0  0  0  0  0  0  0  0  0  0  0  0
   -3.9008    0.1673    1.6207 C   0  0  0  0  0  0  0  0  0  0  0  0
   -4.0816    1.1845    0.4911 C   0  0  0  0  0  0  0  0  0  0  0  0
   -2.0356   -1.2958    0.6895 C   0  0  0  0  0  0  0  0  0  0  0  0
   -2.3355    0.3930   -1.1859 C   0  0  0  0  0  0  0  0  0  0  0  0
   -1.4257   -0.0958   -0.0502 C   0  0  0  0  0  0  0  0  0  0  0  0
   -5.5904   -1.2689   -0.4396 C   0  0  0  0  0  0  0  0  0  0  0  0
    0.8872   -0.1999    0.3529 C   0  0  0  0  0  0  0  0  0  0  0  0
    1.4008    1.2244    0.2678 C   0  0  0  0  0  0  0  0  0  0  0  0
    1.9835   -1.2322    0.1910 C   0  0  0  0  0  0  0  0  0  0  0  0
    1.4684    1.8714   -0.9531 C   0  0  0  0  0  0  0  0  0  0  0  0
    1.7944    1.8457    1.4405 C   0  0  0  0  0  0  0  0  0  0  0  0
    2.7335   -1.5983    1.2944 C   0  0  0  0  0  0  0  0  0  0  0  0
    2.2100   -1.7852   -1.0567 C   0  0  0  0  0  0  0  0  0  0  0  0
    1.9448    3.1813   -1.0040 C   0  0  0  0  0  0  0  0  0  0  0  0
    2.2706    3.1557    1.3898 C   0  0  0  0  0  0  0  0  0  0  0  0
    3.7433   -2.5488    1.1451 C   0  0  0  0  0  0  0  0  0  0  0  0
    3.2198   -2.7357   -1.2060 C   0  0  0  0  0  0  0  0  0  0  0  0
    2.3460    3.8235    0.1675 C   0  0  0  0  0  0  0  0  0  0  0  0
    3.9864   -3.1176   -0.1051 C   0  0  0  0  0  0  0  0  0  0  0  0
  1 10  1  0
  1 12  1  0
  2  4  1  0
  2  5  1  0
  2 11  1  0
  3 15  1  0
  4  6  1  0
  4  8  1  0
  5  7  1  0
  5  9  1  0
  6  7  1  0
  8 10  1  0
  9 10  1  0
 12 13  1  0
 12 14  1  0
 13 15  2  0
 13 16  1  0
 14 17  2  0
 14 18  1  0
 15 19  1  0
 16 20  2  0
 17 21  1  0
 18 22  2  0
 19 23  2  0
 20 23  1  0
 21 24  2  0
 22 24  1  0
M  END
>  <PUBCHEM_COMPOUND_CID>  (1) 
2143

>  <PUBCHEM_CONFORMER_RMSD>  (1) 
0.8

>  <PUBCHEM_CONFORMER_DIVERSEORDER>  (1) 
7
43
37
33
42
24
41
38
27
11
31
20
22
23
34
50
16
40
25
48
30
29
28
19
44
49
10
15
35
13
45
12
47
14
9
46
51
32
18
39
26
17
36
2
21
8
5
3
4
1
6

>  <PUBCHEM_MMFF94_PARTIAL_CHARGES>  (1) 
31
1 -0.56
10 0.28
11 0.27
12 0.57
13 -0.14
14 -0.14
15 0.1
16 -0.15
17 -0.15
18 -0.15
19 -0.15
2 -0.81
20 -0.15
21 -0.15
22 -0.15
23 -0.15
24 -0.15
3 -0.9
4 0.27
40 0.15
41 0.15
42 0.15
43 0.15
44 0.15
45 0.15
46 0.15
47 0.15
48 0.4
49 0.4
5 0.27
50 0.15

>  <PUBCHEM_EFFECTIVE_ROTOR_COUNT>  (1) 
5.2

>  <PUBCHEM_PHARMACOPHORE_FEATURES>  (1) 
7
1 1 acceptor
1 2 cation
1 3 cation
1 3 donor
6 13 15 16 19 20 23 rings
6 14 17 18 21 22 24 rings
8 2 4 5 6 7 8 9 10 rings

>  <PUBCHEM_HEAVY_ATOM_COUNT>  (1) 
24

>  <PUBCHEM_ATOM_DEF_STEREO_COUNT>  (1) 
0

>  <PUBCHEM_ATOM_UDEF_STEREO_COUNT>  (1) 
3

>  <PUBCHEM_BOND_DEF_STEREO_COUNT>  (1) 
0

>  <PUBCHEM_BOND_UDEF_STEREO_COUNT>  (1) 
0

>  <PUBCHEM_ISOTOPIC_ATOM_COUNT>  (1) 
0

>  <PUBCHEM_COMPONENT_COUNT>  (1) 
1

>  <PUBCHEM_CACTVS_TAUTO_COUNT>  (1) 
1

>  <PUBCHEM_CONFORMER_ID>  (1) 
0000085F00000007

>  <PUBCHEM_MMFF94_ENERGY>  (1) 
81.6924

>  <PUBCHEM_FEATURE_SELFOVERLAP>  (1) 
35.522

>  <PUBCHEM_SHAPE_FINGERPRINT>  (1) 
11405975 8 18410857638546941249
11578080 2 17313929824083060588
11582403 64 15910209940635137640
12363563 72 18266180534940760974
12422481 6 18122872466394530576
12516196 113 18339641127528002930
12549972 3 17894925031116944225
12553582 1 18191312576154872155
12633257 1 18198919024014067681
12707595 3 18335143042211255682
12714826 92 17751645338190885839
12788726 201 17757554049692174082
12916754 54 18411980270020932391
13009979 54 17846228695803493011
13134695 92 18340483374708716772
133893 2 18265074533648815800
13533116 47 18410577327501430651
13544653 18 18268709420464250618
13681431 1 18411987931820290032
13955234 65 18338802337320065955
14251757 17 13841419202790663290
14347329 18 15866587602861079821
14739800 52 17560514122705615185
14856354 85 16084725538730086288
14955137 171 18272652381226003706
1601671 61 18412543219826400976
17492 89 18341610447606484839
17980427 23 17631728258027921889
1813 80 18270686338054925710
18785283 64 18263076772903599944
19078846 21 18200327510756106097
20600515 1 18266190426413863702
20739085 24 18201436935595779690
21033648 29 17129559273204493387
21120745 212 17910697379773591716
21524375 3 17908142427629202792
2255824 54 18410015459093849270
22849341 161 18054534437713082056
23175994 123 18266180530655927511
23366157 5 18334297608058267424
23419403 2 18046314528066599940
23557571 272 17979067190226527862
23559900 14 17894630374912053087
249057 25 17775290422869440481
25222932 49 17626946731673800847
283562 15 17975135336566882586
312423 11 18271254884719732555
314173 85 18198341741507255754
3411729 13 18337665417007365104
4409770 3 17469032268177246572
5104073 3 18412271657961413675
5895379 119 16915686699254025809
59755656 215 18261672700459383764
6049 1 17894632548080862053
6442390 28 17618799384195829120
67856867 119 18271518805943467355
6786 2 17686363240336789916
6823239 73 16877954862039779849
7364860 26 18340206383725309740
7615 1 17917999386490173945
81228 2 17764034562683323458
9709674 26 18334293214808279971
9841814 1 18261106353302999762
9971528 1 18200872864154838202
9981440 41 17979628266824882273

>  <PUBCHEM_SHAPE_MULTIPOLES>  (1) 
478.08
9
4.16
1.55
11.3
2.46
0.07
-5.45
-0.74
-6.99
-0.09
-0.39
0.29
0.15

>  <PUBCHEM_SHAPE_SELFOVERLAP>  (1) 
1038.788

>  <PUBCHEM_SHAPE_VOLUME>  (1) 
261.7

>  <PUBCHEM_COORDINATE_TYPE>  (1) 
2
5
10

$$$$
