21439
     RDKit          3D

  9  9  0  0  0  0  0  0  0  0999 V2000
    2.6266    0.6190    0.7290 O   0  0  0  0  0  0  0  0  0  0  0  0
    0.7284   -2.1232   -0.1097 N   0  0  0  0  0  0  0  0  0  0  0  0
    0.4849    0.3006   -0.2549 C   0  0  0  0  0  0  0  0  0  0  0  0
   -0.0753   -0.9628   -0.0663 C   0  0  0  0  0  0  0  0  0  0  0  0
    1.9476    0.4667   -0.5104 C   0  0  0  0  0  0  0  0  0  0  0  0
   -0.3235    1.4363   -0.2066 C   0  0  0  0  0  0  0  0  0  0  0  0
   -1.4440   -1.0905    0.1703 C   0  0  0  0  0  0  0  0  0  0  0  0
   -1.6922    1.3087    0.0301 C   0  0  0  0  0  0  0  0  0  0  0  0
   -2.2524    0.0452    0.2185 C   0  0  0  0  0  0  0  0  0  0  0  0
  1  5  1  0
  2  4  1  0
  3  4  2  0
  3  5  1  0
  3  6  1  0
  4  7  1  0
  6  8  2  0
  7  9  2  0
  8  9  1  0
M  END
>  <PUBCHEM_COMPOUND_CID>  (1) 
21439

>  <PUBCHEM_CONFORMER_RMSD>  (1) 
0.4

>  <PUBCHEM_CONFORMER_DIVERSEORDER>  (1) 
2
1
4
3

>  <PUBCHEM_MMFF94_PARTIAL_CHARGES>  (1) 
16
1 -0.68
12 0.15
13 0.15
14 0.15
15 0.15
16 0.4
17 0.4
18 0.4
2 -0.9
3 -0.14
4 0.1
5 0.42
6 -0.15
7 -0.15
8 -0.15
9 -0.15

>  <PUBCHEM_EFFECTIVE_ROTOR_COUNT>  (1) 
1

>  <PUBCHEM_PHARMACOPHORE_FEATURES>  (1) 
5
1 1 acceptor
1 1 donor
1 2 cation
1 2 donor
6 3 4 6 7 8 9 rings

>  <PUBCHEM_HEAVY_ATOM_COUNT>  (1) 
9

>  <PUBCHEM_ATOM_DEF_STEREO_COUNT>  (1) 
0

>  <PUBCHEM_ATOM_UDEF_STEREO_COUNT>  (1) 
0

>  <PUBCHEM_BOND_DEF_STEREO_COUNT>  (1) 
0

>  <PUBCHEM_BOND_UDEF_STEREO_COUNT>  (1) 
0

>  <PUBCHEM_ISOTOPIC_ATOM_COUNT>  (1) 
0

>  <PUBCHEM_COMPONENT_COUNT>  (1) 
1

>  <PUBCHEM_CACTVS_TAUTO_COUNT>  (1) 
1

>  <PUBCHEM_CONFORMER_ID>  (1) 
000053BF00000002

>  <PUBCHEM_MMFF94_ENERGY>  (1) 
32.302

>  <PUBCHEM_FEATURE_SELFOVERLAP>  (1) 
25.371

>  <PUBCHEM_SHAPE_FINGERPRINT>  (1) 
10857977 72 18338796839709263825
12423570 1 17268332939345166799
16945 1 18409175423852142597
18185500 45 17112699748107931598
20645464 45 17988076807278629792
20871998 184 17983584292708746734
21040471 1 18337680719400749533
23552423 10 18188502267383644286
2748010 2 18192158092370128989
29004967 10 18261126170271352201
369184 2 18059570329975674008
5084963 1 18201733876253669084

>  <PUBCHEM_SHAPE_MULTIPOLES>  (1) 
174.37
2.89
1.76
0.69
0.77
0.56
-0.02
-0.61
-0.42
-0.1
0.06
0.16
-0.06
0.1

>  <PUBCHEM_SHAPE_SELFOVERLAP>  (1) 
359.423

>  <PUBCHEM_SHAPE_VOLUME>  (1) 
100.6

>  <PUBCHEM_COORDINATE_TYPE>  (1) 
2
5
10

$$$$
