21436
     RDKit          3D

 18 20  0  0  0  0  0  0  0  0999 V2000
    0.6190    2.6916   -0.7597 O   0  0  0  0  0  0  0  0  0  0  0  0
    1.8438   -0.4597   -0.3167 N   0  0  0  0  0  0  0  0  0  0  0  0
    2.2723    0.6931    0.4879 C   0  0  0  0  0  0  0  0  0  0  0  0
    2.9863   -1.0891   -0.9938 C   0  0  0  0  0  0  0  0  0  0  0  0
    3.2961    0.2779    1.5457 C   0  0  0  0  0  0  0  0  0  0  0  0
    4.0334   -1.5625    0.0155 C   0  0  0  0  0  0  0  0  0  0  0  0
    4.4947   -0.4201    0.9134 C   0  0  0  0  0  0  0  0  0  0  0  0
    0.8309   -0.0552   -1.2914 C   0  0  0  0  0  0  0  0  0  0  0  0
   -0.3935    0.5188   -0.6354 C   0  0  0  0  0  0  0  0  0  0  0  0
   -1.4712   -0.3004   -0.2678 C   0  0  0  0  0  0  0  0  0  0  0  0
   -0.4262    1.8925   -0.4030 C   0  0  0  0  0  0  0  0  0  0  0  0
   -2.6034    0.2848    0.3472 C   0  0  0  0  0  0  0  0  0  0  0  0
   -1.4527   -1.6861   -0.4957 C   0  0  0  0  0  0  0  0  0  0  0  0
   -1.5396    2.4679    0.2023 C   0  0  0  0  0  0  0  0  0  0  0  0
   -2.6220    1.6705    0.5754 C   0  0  0  0  0  0  0  0  0  0  0  0
   -3.6839   -0.5329    0.7164 C   0  0  0  0  0  0  0  0  0  0  0  0
   -2.5352   -2.4833   -0.1226 C   0  0  0  0  0  0  0  0  0  0  0  0
   -3.6488   -1.9078    0.4822 C   0  0  0  0  0  0  0  0  0  0  0  0
  1 11  1  0
  2  3  1  0
  2  4  1  0
  2  8  1  0
  3  5  1  0
  4  6  1  0
  5  7  1  0
  6  7  1  0
  8  9  1  0
  9 10  1  0
  9 11  2  0
 10 12  2  0
 10 13  1  0
 11 14  1  0
 12 15  1  0
 12 16  1  0
 13 17  2  0
 14 15  2  0
 16 18  2  0
 17 18  1  0
M  END
>  <PUBCHEM_COMPOUND_CID>  (1) 
21436

>  <PUBCHEM_CONFORMER_RMSD>  (1) 
0.6

>  <PUBCHEM_CONFORMER_DIVERSEORDER>  (1) 
1
9
8
3
6
4
7
2
10
5
11

>  <PUBCHEM_MMFF94_PARTIAL_CHARGES>  (1) 
20
1 -0.53
11 0.08
13 -0.15
14 -0.15
15 -0.15
16 -0.15
17 -0.15
18 -0.15
2 -0.81
3 0.27
31 0.15
32 0.15
33 0.15
34 0.15
35 0.15
36 0.15
37 0.45
4 0.27
8 0.41
9 -0.14

>  <PUBCHEM_EFFECTIVE_ROTOR_COUNT>  (1) 
3.2

>  <PUBCHEM_PHARMACOPHORE_FEATURES>  (1) 
5
1 1 donor
1 2 cation
6 10 12 13 16 17 18 rings
6 2 3 4 5 6 7 rings
6 9 10 11 12 14 15 rings

>  <PUBCHEM_HEAVY_ATOM_COUNT>  (1) 
18

>  <PUBCHEM_ATOM_DEF_STEREO_COUNT>  (1) 
0

>  <PUBCHEM_ATOM_UDEF_STEREO_COUNT>  (1) 
0

>  <PUBCHEM_BOND_DEF_STEREO_COUNT>  (1) 
0

>  <PUBCHEM_BOND_UDEF_STEREO_COUNT>  (1) 
0

>  <PUBCHEM_ISOTOPIC_ATOM_COUNT>  (1) 
0

>  <PUBCHEM_COMPONENT_COUNT>  (1) 
1

>  <PUBCHEM_CACTVS_TAUTO_COUNT>  (1) 
3

>  <PUBCHEM_CONFORMER_ID>  (1) 
000053BC00000001

>  <PUBCHEM_MMFF94_ENERGY>  (1) 
46.1592

>  <PUBCHEM_FEATURE_SELFOVERLAP>  (1) 
25.398

>  <PUBCHEM_SHAPE_FINGERPRINT>  (1) 
10366900 7 17988634220813380722
11046707 91 18114179726800655194
11132069 177 18412547578674828827
11221954 11 13899418432597977347
11370993 144 17560247916252965714
11552529 35 17774998028925644594
11578080 2 17531512278566576612
12251169 10 18272368689492130818
12553582 1 18338529649857453559
12633257 1 17988929959107450210
12714826 92 17676199165528046359
12824470 246 17603859039809216563
13083527 12 17981875643001470093
13140716 1 18339934817628495841
14081887 123 18342168938839923586
14178342 30 18338239271281305467
14223421 5 18343295998567329480
14420673 8 17833831565358574458
14787075 74 17897443015913416936
15295992 7 17274247345366207344
15375462 189 18115599290611250127
15653759 3 18343018857275761586
15885798 251 18335987557862792843
16752209 62 18187919535211485399
16945 1 18339658784290972605
17780758 139 18118662350419806010
17804303 29 18271254824052146182
1813 80 17748829626582966846
19049666 15 17771352972012345854
200 152 15357697461958966154
20291156 8 18261392281923243722
20361792 2 16950564376407309694
20510252 161 18201440207996804161
20600515 1 18341059527376372829
20671657 53 16443057322676291398
21065199 12 18273209781802266282
21421861 104 18119826947538620041
21650355 55 18409727335544668209
22112679 90 18041575662572544868
22182313 1 18050869727678613981
23184049 29 18338240478414873093
232386 152 18261399978483591191
23366157 5 17825677908684571445
23388829 49 17768519848222036413
23402539 116 18272360954767714575
23419403 2 17975942639640657029
23559900 14 18270411464648424494
24859131 72 18342737412031798383
2748010 2 17906757812188522149
3009799 131 18337935862692585127
5104073 3 18270670975500071738
58807428 26 18123484782432733883
5902787 121 18189617313950353787
6049 1 17917439679121101054
7364860 26 18052267481076152221
77492 1 17458642068252247972
81228 2 18410581647642197629
90316 7 18261394386447052500
9709674 26 18129380410704197302

>  <PUBCHEM_SHAPE_MULTIPOLES>  (1) 
359.58
7.41
2.64
1.11
5.07
0.64
0.06
-3.71
2.68
-1.89
-0.24
0.68
0.04
0.22

>  <PUBCHEM_SHAPE_SELFOVERLAP>  (1) 
778.219

>  <PUBCHEM_SHAPE_VOLUME>  (1) 
197.5

>  <PUBCHEM_COORDINATE_TYPE>  (1) 
2
5
10

$$$$
