21432
     RDKit          3D

 10  9  0  0  1  0  0  0  0  0999 V2000
    2.7309   -0.5980   -1.0687 O   0  0  0  0  0  0  0  0  0  0  0  0
    1.7676   -0.4068   -0.0221 C   0  0  0  0  0  0  0  0  0  0  0  0
    0.3702   -0.3808   -0.6827 C   0  0  0  0  0  0  0  0  0  0  0  0
   -0.8063   -0.2070    0.2831 C   0  0  0  0  0  0  0  0  0  0  0  0
    2.1385    0.8757    0.7531 C   0  0  0  0  0  0  0  0  0  0  0  0
   -2.1596   -0.0923   -0.4280 C   0  0  0  0  0  0  0  0  0  0  0  0
    1.9162   -1.6181    0.9074 C   0  0  0  0  0  0  0  0  0  0  0  0
   -3.3353    0.1133    0.5282 C   0  0  0  0  0  0  0  0  0  0  0  0
    2.0367    2.1677   -0.0497 C   0  0  0  0  0  0  0  0  0  0  0  0
   -4.6590    0.1464   -0.2206 C   0  0  0  0  0  0  0  0  0  0  0  0
  1  2  1  0
  2  3  1  0
  2  5  1  0
  2  7  1  0
  3  4  1  0
  4  6  1  0
  5  9  1  0
  6  8  1  0
  8 10  1  0
M  END
>  <PUBCHEM_COMPOUND_CID>  (1) 
21432

>  <PUBCHEM_CONFORMER_RMSD>  (1) 
0.6

>  <PUBCHEM_CONFORMER_DIVERSEORDER>  (1) 
8
70
33
25
95
2
76
87
55
93
30
98
92
37
48
91
86
3
94
58
65
68
54
18
80
96
45
81
50
83
12
79
5
88
24
97
29
77
27
57
15
85
46
78
16
73
82
62
66
31
10
74
64
21
71
41
1
89
47
17
35
72
7
75
32
59
90
22
84
67
4
56
38
34
43
11
9
14
69
28
40
36
20
39
63
42
60
6
49
19
23
61
53
44
13
52
51
26

>  <PUBCHEM_MMFF94_PARTIAL_CHARGES>  (1) 
3
1 -0.68
2 0.28
27 0.4

>  <PUBCHEM_EFFECTIVE_ROTOR_COUNT>  (1) 
5

>  <PUBCHEM_PHARMACOPHORE_FEATURES>  (1) 
5
1 1 acceptor
1 1 donor
1 10 hydrophobe
1 9 hydrophobe
4 3 4 6 8 hydrophobe

>  <PUBCHEM_HEAVY_ATOM_COUNT>  (1) 
10

>  <PUBCHEM_ATOM_DEF_STEREO_COUNT>  (1) 
0

>  <PUBCHEM_ATOM_UDEF_STEREO_COUNT>  (1) 
1

>  <PUBCHEM_BOND_DEF_STEREO_COUNT>  (1) 
0

>  <PUBCHEM_BOND_UDEF_STEREO_COUNT>  (1) 
0

>  <PUBCHEM_ISOTOPIC_ATOM_COUNT>  (1) 
0

>  <PUBCHEM_COMPONENT_COUNT>  (1) 
1

>  <PUBCHEM_CACTVS_TAUTO_COUNT>  (1) 
1

>  <PUBCHEM_CONFORMER_ID>  (1) 
000053B800000008

>  <PUBCHEM_MMFF94_ENERGY>  (1) 
9.7201

>  <PUBCHEM_FEATURE_SELFOVERLAP>  (1) 
25.372

>  <PUBCHEM_SHAPE_FINGERPRINT>  (1) 
11062470 55 14706932843490279463
12162725 195 18130791135915176025
12932764 1 18261106366272199903
14325111 11 18343301492073016055
14344429 50 18409449172256469358
15775835 57 17988077919153108337
170605 34 18270399519922432528
18186145 218 18412263917928977659
190213 19 17418091006005144331
20606313 2 18343017822073020865
20645477 70 18412823569289935383
20871998 22 18125717881875000394
21524375 3 17908693278844582000
230 275 18411411838929560368
23380061 81 17988934365965350307
3248919 1 17704351065793882047
449060 62 18340490062025894745

>  <PUBCHEM_SHAPE_MULTIPOLES>  (1) 
199.93
6.69
1.51
0.94
9.25
0.55
0.03
0.69
-0.01
-1.8
-0.23
-0.36
-0.14
0

>  <PUBCHEM_SHAPE_SELFOVERLAP>  (1) 
357.792

>  <PUBCHEM_SHAPE_VOLUME>  (1) 
131

>  <PUBCHEM_COORDINATE_TYPE>  (1) 
2
5
10

$$$$
