21433
     RDKit          3D

 17 18  0  0  0  0  0  0  0  0999 V2000
    5.2212   -1.0224    0.2877 O   0  0  0  0  0  0  0  0  0  0  0  0
    3.5907   -2.3940   -0.2407 O   0  0  0  0  0  0  0  0  0  0  0  0
   -0.4791    0.4823   -0.6310 N   0  0  0  0  0  0  0  0  0  0  0  0
    4.0163   -1.2417    0.0149 N   0  0  0  0  0  0  0  0  0  0  0  0
    0.8750    0.7017   -0.3262 C   0  0  0  0  0  0  0  0  0  0  0  0
   -2.6942   -0.0239    0.2124 C   0  0  0  0  0  0  0  0  0  0  0  0
    1.7619   -0.3704   -0.3070 C   0  0  0  0  0  0  0  0  0  0  0  0
    3.1060   -0.1518   -0.0047 C   0  0  0  0  0  0  0  0  0  0  0  0
    1.3194    1.9903   -0.0461 C   0  0  0  0  0  0  0  0  0  0  0  0
    3.5568    1.1380    0.2767 C   0  0  0  0  0  0  0  0  0  0  0  0
    2.6633    2.2091    0.2561 C   0  0  0  0  0  0  0  0  0  0  0  0
   -1.2704    0.2233    0.3739 C   0  0  0  0  0  0  0  0  0  0  0  0
   -3.4857   -0.2967    1.3283 C   0  0  0  0  0  0  0  0  0  0  0  0
   -3.2688    0.0120   -1.0582 C   0  0  0  0  0  0  0  0  0  0  0  0
   -4.8515   -0.5335    1.1735 C   0  0  0  0  0  0  0  0  0  0  0  0
   -4.6347   -0.2248   -1.2128 C   0  0  0  0  0  0  0  0  0  0  0  0
   -5.4260   -0.4975   -0.0969 C   0  0  0  0  0  0  0  0  0  0  0  0
  1  4  1  0
  2  4  2  0
  3  5  1  0
  3 12  2  0
  4  8  1  0
  5  7  2  0
  5  9  1  0
  6 12  1  0
  6 13  2  0
  6 14  1  0
  7  8  1  0
  8 10  2  0
  9 11  2  0
 10 11  1  0
 13 15  1  0
 14 16  2  0
 15 17  2  0
 16 17  1  0
M  CHG  2   1  -1   4   1
M  END
>  <PUBCHEM_COMPOUND_CID>  (1) 
21433

>  <PUBCHEM_CONFORMER_RMSD>  (1) 
0.6

>  <PUBCHEM_CONFORMER_DIVERSEORDER>  (1) 
1
3
4
2

>  <PUBCHEM_MMFF94_PARTIAL_CHARGES>  (1) 
27
1 -0.52
10 -0.15
11 -0.15
12 0.3
13 -0.15
14 -0.15
15 -0.15
16 -0.15
17 -0.15
18 0.15
19 0.15
2 -0.52
20 0.15
21 0.15
22 0.06
23 0.15
24 0.15
25 0.15
26 0.15
27 0.15
3 -0.63
4 0.91
5 0.18
6 0.09
7 -0.15
8 0.13
9 -0.15

>  <PUBCHEM_EFFECTIVE_ROTOR_COUNT>  (1) 
3

>  <PUBCHEM_PHARMACOPHORE_FEATURES>  (1) 
6
1 1 acceptor
1 1 anion
1 2 acceptor
1 3 acceptor
6 5 7 8 9 10 11 rings
6 6 13 14 15 16 17 rings

>  <PUBCHEM_HEAVY_ATOM_COUNT>  (1) 
17

>  <PUBCHEM_ATOM_DEF_STEREO_COUNT>  (1) 
0

>  <PUBCHEM_ATOM_UDEF_STEREO_COUNT>  (1) 
0

>  <PUBCHEM_BOND_DEF_STEREO_COUNT>  (1) 
0

>  <PUBCHEM_BOND_UDEF_STEREO_COUNT>  (1) 
0

>  <PUBCHEM_ISOTOPIC_ATOM_COUNT>  (1) 
0

>  <PUBCHEM_COMPONENT_COUNT>  (1) 
1

>  <PUBCHEM_CACTVS_TAUTO_COUNT>  (1) 
1

>  <PUBCHEM_CONFORMER_ID>  (1) 
000053B900000001

>  <PUBCHEM_MMFF94_ENERGY>  (1) 
51.2416

>  <PUBCHEM_FEATURE_SELFOVERLAP>  (1) 
30.528

>  <PUBCHEM_SHAPE_FINGERPRINT>  (1) 
10751810 167 14923944561507981537
10912923 1 17560804381122079569
11796584 16 16878216464361301954
12107183 9 17697613095050370409
12236239 1 17561083630809956133
12596602 18 16845567625983749482
12616971 3 17917433146644642205
12670546 56 17846777416525286409
13134695 92 18341609356051801965
13167823 11 18202562916975093303
13533116 47 18343865541385123571
13544592 145 17894630366005328163
13675066 3 18040715917778650829
13911852 28 18125440809197843222
13955234 65 18337952411043717224
14252887 29 18334010622839307544
14386348 63 17822012016599946203
14455015 7 18187370926059056323
14573314 32 17822287977007460605
14739800 52 16270787009341941560
15242439 84 17749103392346581973
15788980 27 18413105065709554485
15961568 22 16081935987145112172
17844677 252 18408608063168151829
17870717 6 16950004716884438835
1813 80 18129395829900287380
18222031 100 18273214158532008014
19050596 39 17346601893637989969
200 152 18272647952887920037
20279233 1 17967531315711251489
20325693 3 15574715790369245259
20369508 70 18260542321228536802
20645477 70 18407755945523973846
21065201 7 17022614304218978817
21728266 224 16630232685047450999
2215653 11 18040427790077057439
22224240 67 18200299044625459384
22646028 1 17989487437562575581
2297311 6 16660085503873084895
23175994 123 18113620110338169165
23402539 116 18060416911575610853
23557571 272 17385713703717970205
23559900 14 17603586356514509557
239999 70 17894350003752188280
26918003 58 18411139151740527179
312423 11 18340502100655799049
314194 84 18412263913507962014
33824 294 18408600375287149890
341906 21 15195295204937534579
3421961 26 18411135819041103680
345986 75 18058442110923772330
42 15 18412268337191985841
465052 167 18342463642548241910
474 4 17699558453005940401
4990 188 17458061573157040201
5104073 3 17917152809792307939
5281201 14 17894912944704588981
573450 72 17060340725837516635
59755656 215 17312818269810221235
633830 44 17168419467436309245
9709674 26 17896887749435013819

>  <PUBCHEM_SHAPE_MULTIPOLES>  (1) 
328.15
11.99
1.69
1.01
5.1
0.05
-0.05
-4.12
-0.74
-3.13
-0.02
1.4
-0.04
0.33

>  <PUBCHEM_SHAPE_SELFOVERLAP>  (1) 
706.764

>  <PUBCHEM_SHAPE_VOLUME>  (1) 
180.5

>  <PUBCHEM_COORDINATE_TYPE>  (1) 
2
5
10

$$$$
