21435
     RDKit          3D

 23 24  0  0  1  0  0  0  0  0999 V2000
    3.3408    1.8411   -0.4181 N   0  0  0  0  0  0  0  0  0  0  0  0
   -0.2485    1.2822    2.4762 N   0  0  0  0  0  0  0  0  0  0  0  0
   -0.2221    0.1775    0.2450 C   0  0  0  0  0  0  0  0  0  0  0  0
    0.9183    1.1956   -0.1922 C   0  0  0  0  0  0  0  0  0  0  0  0
    2.3974    0.9049    0.1842 C   0  0  0  0  0  0  0  0  0  0  0  0
    0.1993   -1.2090   -0.3096 C   0  0  0  0  0  0  0  0  0  0  0  0
   -1.5939    0.6632   -0.3338 C   0  0  0  0  0  0  0  0  0  0  0  0
   -0.4240    0.1927    1.7969 C   0  0  0  0  0  0  0  0  0  0  0  0
    2.5675    0.9764    1.7051 C   0  0  0  0  0  0  0  0  0  0  0  0
   -0.8833   -1.0633    2.5347 C   0  0  0  0  0  0  0  0  0  0  0  0
   -0.2132   -1.5445   -1.5678 C   0  0  0  0  0  0  0  0  0  0  0  0
   -2.6808   -0.1185   -0.0994 C   0  0  0  0  0  0  0  0  0  0  0  0
    0.9578   -2.0127    0.4928 C   0  0  0  0  0  0  0  0  0  0  0  0
   -1.5982    1.8309   -1.0291 C   0  0  0  0  0  0  0  0  0  0  0  0
    3.2266    1.8193   -1.8771 C   0  0  0  0  0  0  0  0  0  0  0  0
    4.7104    1.5251   -0.0105 C   0  0  0  0  0  0  0  0  0  0  0  0
   -2.2015   -0.8443    3.2583 C   0  0  0  0  0  0  0  0  0  0  0  0
    0.1653   -2.7910   -2.0662 C   0  0  0  0  0  0  0  0  0  0  0  0
   -3.9026    0.3138   -0.6154 C   0  0  0  0  0  0  0  0  0  0  0  0
    1.3365   -3.2592   -0.0056 C   0  0  0  0  0  0  0  0  0  0  0  0
   -2.8199    2.2634   -1.5450 C   0  0  0  0  0  0  0  0  0  0  0  0
    0.9402   -3.6484   -1.2852 C   0  0  0  0  0  0  0  0  0  0  0  0
   -3.9721    1.5048   -1.3381 C   0  0  0  0  0  0  0  0  0  0  0  0
  1  5  1  0
  1 15  1  0
  1 16  1  0
  2  8  2  0
  3  4  1  0
  3  6  1  0
  3  7  1  0
  3  8  1  0
  4  5  1  0
  5  9  1  0
  6 11  2  0
  6 13  1  0
  7 12  2  0
  7 14  1  0
  8 10  1  0
 10 17  1  0
 11 18  1  0
 12 19  1  0
 13 20  2  0
 14 21  2  0
 18 22  2  0
 19 23  2  0
 20 22  1  0
 21 23  1  0
M  END
>  <PUBCHEM_COMPOUND_CID>  (1) 
21435

>  <PUBCHEM_CONFORMER_RMSD>  (1) 
0.8

>  <PUBCHEM_CONFORMER_DIVERSEORDER>  (1) 
1
12
24
18
22
19
20
16
3
15
26
25
23
11
6
21
17
13
14
5
8
2
9
4
10
7

>  <PUBCHEM_MMFF94_PARTIAL_CHARGES>  (1) 
31
1 -0.81
10 0.06
11 -0.15
12 -0.15
13 -0.15
14 -0.15
15 0.27
16 0.27
18 -0.15
19 -0.15
2 -0.85
20 -0.15
21 -0.15
22 -0.15
23 -0.15
3 0.35
32 0.15
33 0.15
34 0.15
35 0.15
45 0.4
46 0.15
47 0.15
48 0.15
49 0.15
5 0.27
50 0.15
51 0.15
6 -0.14
7 -0.14
8 0.33

>  <PUBCHEM_EFFECTIVE_ROTOR_COUNT>  (1) 
7

>  <PUBCHEM_PHARMACOPHORE_FEATURES>  (1) 
6
1 1 cation
1 17 hydrophobe
1 2 acceptor
1 2 donor
6 6 11 13 18 20 22 rings
6 7 12 14 19 21 23 rings

>  <PUBCHEM_HEAVY_ATOM_COUNT>  (1) 
23

>  <PUBCHEM_ATOM_DEF_STEREO_COUNT>  (1) 
0

>  <PUBCHEM_ATOM_UDEF_STEREO_COUNT>  (1) 
1

>  <PUBCHEM_BOND_DEF_STEREO_COUNT>  (1) 
0

>  <PUBCHEM_BOND_UDEF_STEREO_COUNT>  (1) 
0

>  <PUBCHEM_ISOTOPIC_ATOM_COUNT>  (1) 
0

>  <PUBCHEM_COMPONENT_COUNT>  (1) 
1

>  <PUBCHEM_CACTVS_TAUTO_COUNT>  (1) 
2

>  <PUBCHEM_CONFORMER_ID>  (1) 
000053BB00000001

>  <PUBCHEM_MMFF94_ENERGY>  (1) 
101.2099

>  <PUBCHEM_FEATURE_SELFOVERLAP>  (1) 
30.446

>  <PUBCHEM_SHAPE_FINGERPRINT>  (1) 
10948715 1 17967806150204422305
11578080 2 17321883682265714681
12035759 4 17488470667393530436
12293681 25 17968962837049214675
12592029 89 18411133615338031650
12633257 1 15574981914969835872
13149001 5 17683549250393759699
133893 2 18126301743865560170
13681431 1 17838895936799174670
14022347 108 17113778313365581575
14181834 199 17841406173274205726
14713325 29 18262796409901464743
14817 1 8762593686069780250
15163728 17 18188792572929530964
15238133 3 16199016186339337753
15502722 9 18267860597265750157
16752209 62 18124580140553237078
16945 1 18261661645366447149
17980427 26 17315890214302131959
1813 80 17409932423305112871
18915476 22 18268164084129388899
20600515 1 16897046494055170601
20602899 9 18060139890020777606
20691752 17 17242176734668275357
21524375 3 18114451331847873164
21756936 100 17604696902620501360
23114952 82 18195240014772864445
23419403 2 17903395595319077411
23557571 272 17170146761469881099
23559900 14 18049705335900389973
23598288 3 17606972964556248492
23728640 28 18191860335351708228
238 59 18341622473181825094
25222932 49 14604090126096625204
266924 78 17914356592640134955
298252 57 18336531811343689064
3729539 64 18200884972437610598
376196 1 18042383799187414533
394222 165 18341043030348654962
44802255 64 18117862077906061780
5845 1 10158314940417158485
7364860 26 18126551336983326951
81228 2 17477745244955250078
84936 31 17841965846225517934

>  <PUBCHEM_SHAPE_MULTIPOLES>  (1) 
463.37
5.72
3.52
2.65
0.8
2.93
-2.05
-5.35
1.63
1.95
2.06
-1.04
0.7
1.17

>  <PUBCHEM_SHAPE_SELFOVERLAP>  (1) 
972.663

>  <PUBCHEM_SHAPE_VOLUME>  (1) 
259.8

>  <PUBCHEM_COORDINATE_TYPE>  (1) 
2
5
10

$$$$
