21446
     RDKit          3D

  9  8  0  0  0  0  0  0  0  0999 V2000
    2.0395   -0.8887    0.0050 S   0  0  0  0  0  0  0  0  0  0  0  0
   -1.6737    0.4724    0.0001 O   0  0  0  0  0  0  0  0  0  0  0  0
   -0.8298   -1.6717   -0.0031 O   0  0  0  0  0  0  0  0  0  0  0  0
    4.1745    1.0011   -0.0031 N   0  0  0  0  0  0  0  0  0  0  0  0
   -3.0052   -0.0532   -0.0007 C   0  0  0  0  0  0  0  0  0  0  0  0
   -3.9893    1.0971    0.0011 C   0  0  0  0  0  0  0  0  0  0  0  0
    0.6499    0.2687    0.0018 C   0  0  0  0  0  0  0  0  0  0  0  0
   -0.6709   -0.4590   -0.0013 C   0  0  0  0  0  0  0  0  0  0  0  0
    3.3048    0.2333    0.0001 C   0  0  0  0  0  0  0  0  0  0  0  0
  1  7  1  0
  1  9  1  0
  2  5  1  0
  2  8  1  0
  3  8  2  0
  4  9  3  0
  5  6  1  0
  7  8  1  0
M  END
>  <PUBCHEM_COMPOUND_CID>  (1) 
21446

>  <PUBCHEM_CONFORMER_RMSD>  (1) 
0.6

>  <PUBCHEM_CONFORMER_DIVERSEORDER>  (1) 
1
36
11
35
14
4
39
41
22
34
7
47
30
6
43
46
5
37
24
16
27
15
32
10
40
33
2
26
18
12
20
8
42
13
3
45
21
44
29
19
28
38
25
31
9
23
17

>  <PUBCHEM_MMFF94_PARTIAL_CHARGES>  (1) 
8
1 -0.27
2 -0.43
3 -0.57
4 -0.56
5 0.28
7 0.29
8 0.66
9 0.59

>  <PUBCHEM_EFFECTIVE_ROTOR_COUNT>  (1) 
4

>  <PUBCHEM_PHARMACOPHORE_FEATURES>  (1) 
2
1 3 acceptor
1 4 acceptor

>  <PUBCHEM_HEAVY_ATOM_COUNT>  (1) 
9

>  <PUBCHEM_ATOM_DEF_STEREO_COUNT>  (1) 
0

>  <PUBCHEM_ATOM_UDEF_STEREO_COUNT>  (1) 
0

>  <PUBCHEM_BOND_DEF_STEREO_COUNT>  (1) 
0

>  <PUBCHEM_BOND_UDEF_STEREO_COUNT>  (1) 
0

>  <PUBCHEM_ISOTOPIC_ATOM_COUNT>  (1) 
0

>  <PUBCHEM_COMPONENT_COUNT>  (1) 
1

>  <PUBCHEM_CACTVS_TAUTO_COUNT>  (1) 
1

>  <PUBCHEM_CONFORMER_ID>  (1) 
000053C600000001

>  <PUBCHEM_MMFF94_ENERGY>  (1) 
4.7058

>  <PUBCHEM_FEATURE_SELFOVERLAP>  (1) 
10.149

>  <PUBCHEM_SHAPE_FINGERPRINT>  (1) 
11062470 55 18201720652054652420
14325111 11 18410573959634991363
14390081 3 18341894108441201216
170605 34 18334858299133399162
177051 138 9079114462308089512
20211469 26 8070026666531696805
20645477 70 18058732390304163439
21293036 1 17775284971315997633
22485316 2 8430309121777704009
23235685 24 18413383228791622230

>  <PUBCHEM_SHAPE_MULTIPOLES>  (1) 
172.35
7.45
1.24
0.6
0.34
0.26
0
-3.46
0
0.02
0
0.01
0.01
0

>  <PUBCHEM_SHAPE_SELFOVERLAP>  (1) 
306.873

>  <PUBCHEM_SHAPE_VOLUME>  (1) 
110.6

>  <PUBCHEM_COORDINATE_TYPE>  (1) 
2
5
10

$$$$
