21444
     RDKit          3D

 10  9  0  0  0  0  0  0  0  0999 V2000
    2.6165    0.8541   -0.0065 S   0  0  0  0  0  0  0  0  0  0  0  0
   -1.1450   -0.3667    0.0027 O   0  0  0  0  0  0  0  0  0  0  0  0
   -0.2213    1.7441    0.0033 O   0  0  0  0  0  0  0  0  0  0  0  0
    4.6791   -1.1144    0.0016 N   0  0  0  0  0  0  0  0  0  0  0  0
   -3.4844   -0.9120    0.0043 C   0  0  0  0  0  0  0  0  0  0  0  0
   -2.4559    0.2084    0.0041 C   0  0  0  0  0  0  0  0  0  0  0  0
   -4.9044   -0.3752   -0.0094 C   0  0  0  0  0  0  0  0  0  0  0  0
   -0.1080    0.5263    0.0025 C   0  0  0  0  0  0  0  0  0  0  0  0
    1.1845   -0.2503   -0.0010 C   0  0  0  0  0  0  0  0  0  0  0  0
    3.8389   -0.3145   -0.0015 C   0  0  0  0  0  0  0  0  0  0  0  0
  1  9  1  0
  1 10  1  0
  2  6  1  0
  2  8  1  0
  3  8  2  0
  4 10  3  0
  5  6  1  0
  5  7  1  0
  8  9  1  0
M  END
>  <PUBCHEM_COMPOUND_CID>  (1) 
21444

>  <PUBCHEM_CONFORMER_RMSD>  (1) 
0.6

>  <PUBCHEM_CONFORMER_DIVERSEORDER>  (1) 
1
85
88
145
28
123
58
106
33
102
21
9
122
24
141
116
41
69
136
132
149
87
61
134
26
113
76
98
115
67
78
154
125
152
40
146
121
36
131
130
2
64
79
153
62
127
143
18
25
72
10
49
100
42
140
117
16
126
73
29
20
150
97
129
95
23
31
151
147
35
109
142
103
86
104
37
139
96
128
7
89
60
114
46
83
81
120
70
59
91
138
38
84
118
74
14
124
110
44
48
3
4
54
45
57
55
32
92
101
53
90
11
22
43
111
56
13
82
133
66
34
68
51
71
39
15
47
119
63
5
108
93
105
8
77
144
80
99
137
12
30
135
148
50
17
6
65
107
112
75
94
19
52
27

>  <PUBCHEM_MMFF94_PARTIAL_CHARGES>  (1) 
8
1 -0.27
10 0.59
2 -0.43
3 -0.57
4 -0.56
6 0.28
8 0.66
9 0.29

>  <PUBCHEM_EFFECTIVE_ROTOR_COUNT>  (1) 
5

>  <PUBCHEM_PHARMACOPHORE_FEATURES>  (1) 
3
1 3 acceptor
1 4 acceptor
1 7 hydrophobe

>  <PUBCHEM_HEAVY_ATOM_COUNT>  (1) 
10

>  <PUBCHEM_ATOM_DEF_STEREO_COUNT>  (1) 
0

>  <PUBCHEM_ATOM_UDEF_STEREO_COUNT>  (1) 
0

>  <PUBCHEM_BOND_DEF_STEREO_COUNT>  (1) 
0

>  <PUBCHEM_BOND_UDEF_STEREO_COUNT>  (1) 
0

>  <PUBCHEM_ISOTOPIC_ATOM_COUNT>  (1) 
0

>  <PUBCHEM_COMPONENT_COUNT>  (1) 
1

>  <PUBCHEM_CACTVS_TAUTO_COUNT>  (1) 
1

>  <PUBCHEM_CONFORMER_ID>  (1) 
000053C400000001

>  <PUBCHEM_MMFF94_ENERGY>  (1) 
4.3744

>  <PUBCHEM_FEATURE_SELFOVERLAP>  (1) 
15.223

>  <PUBCHEM_SHAPE_FINGERPRINT>  (1) 
11062470 55 18261392282218564677
114248 4 15140963971405928962
12032990 46 18408887355799848273
13690532 89 18410012147657979951
14123238 8 9799691497951489155
14252887 29 17704079469321203558
177051 138 18411138026538255590
17834076 25 14634867548306912347
20211469 26 18342740714866618513
20645477 70 18409167723055123118
20719005 15 18410856564156393891
20767249 13 18060699498721855103
21119208 17 16225766324067307591
21293036 1 11530480034206814598
22485316 2 18341328984817720142
23402539 116 17632853119233024205

>  <PUBCHEM_SHAPE_MULTIPOLES>  (1) 
192.93
9.57
1.18
0.6
1.55
0.27
0
-3.78
0.02
-0.48
0
0
0
0

>  <PUBCHEM_SHAPE_SELFOVERLAP>  (1) 
344.871

>  <PUBCHEM_SHAPE_VOLUME>  (1) 
123.2

>  <PUBCHEM_COORDINATE_TYPE>  (1) 
2
5
10

$$$$
