21440
     RDKit          3D

 20 21  0  0  0  0  0  0  0  0999 V2000
    0.3108    2.1089   -1.6211 O   0  0  0  0  0  0  0  0  0  0  0  0
   -0.0275    0.0013   -2.3961 O   0  0  0  0  0  0  0  0  0  0  0  0
   -2.7374   -2.8463   -0.2655 O   0  0  0  0  0  0  0  0  0  0  0  0
   -0.7004   -2.1595    0.2000 O   0  0  0  0  0  0  0  0  0  0  0  0
   -1.9263   -1.9478    0.0553 N   0  0  0  0  0  0  0  0  0  0  0  0
   -1.5492    0.4149    0.6244 C   0  0  0  0  0  0  0  0  0  0  0  0
    0.8341    0.3638   -0.1457 C   0  0  0  0  0  0  0  0  0  0  0  0
    2.2491    0.1429    0.1085 C   0  0  0  0  0  0  0  0  0  0  0  0
   -0.1343    0.2147    0.8012 C   0  0  0  0  0  0  0  0  0  0  0  0
   -2.4186   -0.6282    0.2638 C   0  0  0  0  0  0  0  0  0  0  0  0
   -2.0822    1.6992    0.8183 C   0  0  0  0  0  0  0  0  0  0  0  0
    2.7736    0.3742    1.3802 C   0  0  0  0  0  0  0  0  0  0  0  0
    3.0817   -0.3003   -0.9192 C   0  0  0  0  0  0  0  0  0  0  0  0
   -3.7840   -0.3920    0.1018 C   0  0  0  0  0  0  0  0  0  0  0  0
   -3.4475    1.9352    0.6561 C   0  0  0  0  0  0  0  0  0  0  0  0
   -4.2982    0.8896    0.2979 C   0  0  0  0  0  0  0  0  0  0  0  0
    4.1306    0.1626    1.6241 C   0  0  0  0  0  0  0  0  0  0  0  0
    4.4386   -0.5120   -0.6752 C   0  0  0  0  0  0  0  0  0  0  0  0
    0.3240    0.7592   -1.5050 C   0  0  0  0  0  0  0  0  0  0  0  0
    4.9630   -0.2805    0.5965 C   0  0  0  0  0  0  0  0  0  0  0  0
  1 19  1  0
  2 19  2  0
  3  5  1  0
  4  5  2  0
  5 10  1  0
  6  9  1  0
  6 10  2  0
  6 11  1  0
  7  8  1  0
  7  9  2  0
  7 19  1  0
  8 12  2  0
  8 13  1  0
 10 14  1  0
 11 15  2  0
 12 17  1  0
 13 18  2  0
 14 16  2  0
 15 16  1  0
 17 20  2  0
 18 20  1  0
M  CHG  2   3  -1   5   1
M  END
>  <PUBCHEM_COMPOUND_CID>  (1) 
21440

>  <PUBCHEM_CONFORMER_RMSD>  (1) 
0.6

>  <PUBCHEM_CONFORMER_DIVERSEORDER>  (1) 
2
4
1
3
5

>  <PUBCHEM_MMFF94_PARTIAL_CHARGES>  (1) 
31
1 -0.65
10 0.13
11 -0.15
12 -0.15
13 -0.15
14 -0.15
15 -0.15
16 -0.15
17 -0.15
18 -0.15
19 0.71
2 -0.57
20 -0.15
21 0.15
22 0.15
23 0.15
24 0.15
25 0.15
26 0.15
27 0.15
28 0.15
29 0.15
3 -0.52
30 0.15
31 0.5
4 -0.52
5 0.91
6 0.03
7 -0.01
8 0.03
9 -0.18

>  <PUBCHEM_EFFECTIVE_ROTOR_COUNT>  (1) 
4

>  <PUBCHEM_PHARMACOPHORE_FEATURES>  (1) 
8
1 1 acceptor
1 2 acceptor
1 3 acceptor
1 3 anion
1 4 acceptor
3 1 2 19 anion
6 6 10 11 14 15 16 rings
6 8 12 13 17 18 20 rings

>  <PUBCHEM_HEAVY_ATOM_COUNT>  (1) 
20

>  <PUBCHEM_ATOM_DEF_STEREO_COUNT>  (1) 
0

>  <PUBCHEM_ATOM_UDEF_STEREO_COUNT>  (1) 
0

>  <PUBCHEM_BOND_DEF_STEREO_COUNT>  (1) 
0

>  <PUBCHEM_BOND_UDEF_STEREO_COUNT>  (1) 
1

>  <PUBCHEM_ISOTOPIC_ATOM_COUNT>  (1) 
0

>  <PUBCHEM_COMPONENT_COUNT>  (1) 
1

>  <PUBCHEM_CACTVS_TAUTO_COUNT>  (1) 
1

>  <PUBCHEM_CONFORMER_ID>  (1) 
000053C000000002

>  <PUBCHEM_MMFF94_ENERGY>  (1) 
78.685

>  <PUBCHEM_FEATURE_SELFOVERLAP>  (1) 
40.736

>  <PUBCHEM_SHAPE_FINGERPRINT>  (1) 
10 15 17345735479235088634
10366900 7 17561087990565596152
11370993 70 18201998802827260042
12236239 1 17822014202838565785
12346177 29 18412819213871155335
12500047 106 18343021055977244226
12507560 40 17775283885158848384
12553582 1 17095518496519384456
12633257 1 18344150288837075640
13296909 8 18342735256110865267
13544592 145 18128546972463776270
13583140 156 17418088849736525914
15042514 8 18339929333145676195
15375358 24 17846779594184234706
15375462 189 17167864162414145196
15852999 172 17988095391443675831
16945 1 18413392033606513001
17980427 23 18272933847244209949
1813 80 17023192578531342470
200 152 16153702107801602576
20600515 1 18340499893074472092
20645477 70 15140672558565784864
21033648 29 18270391690329564545
21330990 113 18336266721888570486
22112679 90 18041288741535000740
23402539 116 18201712943174100541
23419403 2 17329098918116907053
23557571 272 17988938794372161503
23559900 14 18130514054826964126
23598291 2 17969227900369785391
351380 180 17560796610961953296
602551 16 18411136939975008738
69090 78 17060330821073219982
6992083 37 18114185245954807069
77492 1 17894636975733201769
9709674 26 17988929963444861822
9862522 239 17751349591475973581

>  <PUBCHEM_SHAPE_MULTIPOLES>  (1) 
383.13
8.67
1.91
1.49
4.8
0.96
0.7
-0.25
-2.29
-2.42
-0.02
1.02
-0.38
0.1

>  <PUBCHEM_SHAPE_SELFOVERLAP>  (1) 
833.374

>  <PUBCHEM_SHAPE_VOLUME>  (1) 
208.1

>  <PUBCHEM_COORDINATE_TYPE>  (1) 
2
5
10

$$$$
