21442
     RDKit          3D

 11 10  0  0  0  0  0  0  0  0999 V2000
   -3.2199    0.7616    0.0143 S   0  0  0  0  0  0  0  0  0  0  0  0
    0.6283   -0.1832   -0.0105 O   0  0  0  0  0  0  0  0  0  0  0  0
   -0.4527    1.8515    0.0048 O   0  0  0  0  0  0  0  0  0  0  0  0
   -5.1372   -1.3487   -0.0026 N   0  0  0  0  0  0  0  0  0  0  0  0
    2.9918   -0.5665   -0.0203 C   0  0  0  0  0  0  0  0  0  0  0  0
    4.3754    0.0772   -0.0050 C   0  0  0  0  0  0  0  0  0  0  0  0
    1.8855    0.4788   -0.0106 C   0  0  0  0  0  0  0  0  0  0  0  0
    5.4768   -0.9703    0.0290 C   0  0  0  0  0  0  0  0  0  0  0  0
   -0.4790    0.6287   -0.0021 C   0  0  0  0  0  0  0  0  0  0  0  0
   -1.7130   -0.2380   -0.0013 C   0  0  0  0  0  0  0  0  0  0  0  0
   -4.3561   -0.4911    0.0042 C   0  0  0  0  0  0  0  0  0  0  0  0
  1 10  1  0
  1 11  1  0
  2  7  1  0
  2  9  1  0
  3  9  2  0
  4 11  3  0
  5  6  1  0
  5  7  1  0
  6  8  1  0
  9 10  1  0
M  END
>  <PUBCHEM_COMPOUND_CID>  (1) 
21442

>  <PUBCHEM_CONFORMER_RMSD>  (1) 
0.8

>  <PUBCHEM_CONFORMER_DIVERSEORDER>  (1) 
1
230
386
9
18
183
398
24
276
352
14
328
299
130
27
493
438
289
142
365
33
179
284
150
40
456
23
435
326
92
31
347
348
242
6
297
390
286
407
8
440
19
447
393
28
29
448
134
232
451
364
201
342
60
141
222
66
467
42
505
2
69
16
399
181
86
344
38
285
210
11
121
248
317
303
73
97
61
144
366
241
301
244
417
211
194
89
492
3
202
357
262
91
381
41
316

>  <PUBCHEM_MMFF94_PARTIAL_CHARGES>  (1) 
8
1 -0.27
10 0.29
11 0.59
2 -0.43
3 -0.57
4 -0.56
7 0.28
9 0.66

>  <PUBCHEM_EFFECTIVE_ROTOR_COUNT>  (1) 
6

>  <PUBCHEM_PHARMACOPHORE_FEATURES>  (1) 
3
1 3 acceptor
1 4 acceptor
1 8 hydrophobe

>  <PUBCHEM_HEAVY_ATOM_COUNT>  (1) 
11

>  <PUBCHEM_ATOM_DEF_STEREO_COUNT>  (1) 
0

>  <PUBCHEM_ATOM_UDEF_STEREO_COUNT>  (1) 
0

>  <PUBCHEM_BOND_DEF_STEREO_COUNT>  (1) 
0

>  <PUBCHEM_BOND_UDEF_STEREO_COUNT>  (1) 
0

>  <PUBCHEM_ISOTOPIC_ATOM_COUNT>  (1) 
0

>  <PUBCHEM_COMPONENT_COUNT>  (1) 
1

>  <PUBCHEM_CACTVS_TAUTO_COUNT>  (1) 
1

>  <PUBCHEM_CONFORMER_ID>  (1) 
000053C200000001

>  <PUBCHEM_MMFF94_ENERGY>  (1) 
4.2474

>  <PUBCHEM_FEATURE_SELFOVERLAP>  (1) 
15.223

>  <PUBCHEM_SHAPE_FINGERPRINT>  (1) 
100836 57 9583520936124930699
11062470 55 11963395137294955424
114248 4 16008749121418481903
12032990 46 18411700993455437125
13690532 89 18407478864261727766
14123238 8 17676488345681340966
14251718 22 18260548935388488614
14252887 29 17418103096090260518
15501527 24 17894918425541521262
17834072 33 18410576223146040604
17834076 25 9367347028798150663
18342897 14 9943806685800647590
187816 3 17167582682804766425
20605781 2 8574714602503624231
20645477 56 9583512118905114778
20645477 70 18334576794498417490
20719005 15 18410856559856132358
20767249 13 18260266347872914458
20767249 213 10519987063213975171
21119208 17 15430036569264475907
212847 35 9007060154247314310
22485316 2 18408882906430033403
23402539 116 18334009462960494533
23402655 69 11891328755337176115
42788 4 18410573985167281900
449060 50 15841833356506883444
57483677 66 18410008819259110442

>  <PUBCHEM_SHAPE_MULTIPOLES>  (1) 
213.5
11.83
1.25
0.6
3.36
0.2
0
-5.51
0.07
-0.72
0
0.01
0
-0.02

>  <PUBCHEM_SHAPE_SELFOVERLAP>  (1) 
382.857

>  <PUBCHEM_SHAPE_VOLUME>  (1) 
136.1

>  <PUBCHEM_COORDINATE_TYPE>  (1) 
2
5
10

$$$$
