21441
     RDKit          3D

 10 10  0  0  0  0  0  0  0  0999 V2000
   -0.9009    2.6345    0.0001 Cl  0  0  0  0  0  0  0  0  0  0  0  0
   -2.2773   -0.0388   -0.0002 O   0  0  0  0  0  0  0  0  0  0  0  0
    3.2783   -0.3235   -0.0001 N   0  0  0  0  0  0  0  0  0  0  0  0
   -0.9147   -0.0854    0.0001 C   0  0  0  0  0  0  0  0  0  0  0  0
    1.8705   -0.2432    0.0000 C   0  0  0  0  0  0  0  0  0  0  0  0
   -0.1501    1.0812   -0.0001 C   0  0  0  0  0  0  0  0  0  0  0  0
   -0.2867   -1.3309    0.0001 C   0  0  0  0  0  0  0  0  0  0  0  0
    1.2424    1.0023    0.0001 C   0  0  0  0  0  0  0  0  0  0  0  0
    1.1059   -1.4099    0.0000 C   0  0  0  0  0  0  0  0  0  0  0  0
   -2.9675   -1.2863    0.0000 C   0  0  0  0  0  0  0  0  0  0  0  0
  1  6  1  0
  2  4  1  0
  2 10  1  0
  3  5  1  0
  4  6  2  0
  4  7  1  0
  5  8  2  0
  5  9  1  0
  6  8  1  0
  7  9  2  0
M  END
>  <PUBCHEM_COMPOUND_CID>  (1) 
21441

>  <PUBCHEM_CONFORMER_RMSD>  (1) 
0.4

>  <PUBCHEM_CONFORMER_DIVERSEORDER>  (1) 
3
1
2

>  <PUBCHEM_MMFF94_PARTIAL_CHARGES>  (1) 
15
1 -0.18
10 0.28
11 0.15
12 0.15
13 0.15
14 0.4
15 0.4
2 -0.36
3 -0.9
4 0.08
5 0.1
6 0.18
7 -0.15
8 -0.15
9 -0.15

>  <PUBCHEM_EFFECTIVE_ROTOR_COUNT>  (1) 
1

>  <PUBCHEM_PHARMACOPHORE_FEATURES>  (1) 
4
1 2 acceptor
1 3 cation
1 3 donor
6 4 5 6 7 8 9 rings

>  <PUBCHEM_HEAVY_ATOM_COUNT>  (1) 
10

>  <PUBCHEM_ATOM_DEF_STEREO_COUNT>  (1) 
0

>  <PUBCHEM_ATOM_UDEF_STEREO_COUNT>  (1) 
0

>  <PUBCHEM_BOND_DEF_STEREO_COUNT>  (1) 
0

>  <PUBCHEM_BOND_UDEF_STEREO_COUNT>  (1) 
0

>  <PUBCHEM_ISOTOPIC_ATOM_COUNT>  (1) 
0

>  <PUBCHEM_COMPONENT_COUNT>  (1) 
1

>  <PUBCHEM_CACTVS_TAUTO_COUNT>  (1) 
1

>  <PUBCHEM_CONFORMER_ID>  (1) 
000053C100000003

>  <PUBCHEM_MMFF94_ENERGY>  (1) 
42.8812

>  <PUBCHEM_FEATURE_SELFOVERLAP>  (1) 
20.297

>  <PUBCHEM_SHAPE_FINGERPRINT>  (1) 
10857977 72 18339631321684610546
11206711 2 18337393742644870548
12032990 46 18338524130713656078
12423570 1 11965403897720675488
12897270 3 18410571764669287446
13380535 76 17907849605058531484
16945 1 18410575046055872006
18185500 45 18340204201681515271
193761 8 17906171754620308839
21040471 1 17834114525643778724
23402655 69 18195789809885179429
23552423 10 18044946675160893694
241688 4 18411417345014233025
2748010 2 18123188167253309614
29004967 10 18409451413976320283
5084963 1 18201721743118731578

>  <PUBCHEM_SHAPE_MULTIPOLES>  (1) 
196.81
3.61
2.2
0.6
0.21
1.44
0
-1.45
0
-0.86
0
-0.01
0.01
0

>  <PUBCHEM_SHAPE_SELFOVERLAP>  (1) 
398.264

>  <PUBCHEM_SHAPE_VOLUME>  (1) 
116.4

>  <PUBCHEM_COORDINATE_TYPE>  (1) 
2
5
10

$$$$
