21459
     RDKit          3D

  8  7  0  0  0  0  0  0  0  0999 V2000
    1.8566    0.3955   -0.1622 O   0  0  0  0  0  0  0  0  0  0  0  0
   -1.8147   -0.3768    0.0416 C   0  0  0  0  0  0  0  0  0  0  0  0
   -0.5344    0.4510   -0.0445 C   0  0  0  0  0  0  0  0  0  0  0  0
   -3.0559    0.5148    0.0209 C   0  0  0  0  0  0  0  0  0  0  0  0
    0.7054   -0.4318   -0.0669 C   0  0  0  0  0  0  0  0  0  0  0  0
   -4.3336   -0.3077    0.0723 C   0  0  0  0  0  0  0  0  0  0  0  0
    3.0007   -0.3317   -0.1683 C   0  0  0  0  0  0  0  0  0  0  0  0
    4.1757    0.0868    0.3071 C   0  0  0  0  0  0  0  0  0  0  0  0
  1  5  1  0
  1  7  1  0
  2  3  1  0
  2  4  1  0
  3  5  1  0
  4  6  1  0
  7  8  2  0
M  END
>  <PUBCHEM_COMPOUND_CID>  (1) 
21459

>  <PUBCHEM_CONFORMER_RMSD>  (1) 
0.6

>  <PUBCHEM_CONFORMER_DIVERSEORDER>  (1) 
1
55
47
48
13
40
11
35
10
51
26
27
49
45
12
16
41
53
6
52
37
17
54
29
44
4
18
23
19
20
22
42
50
34
21
9
43
39
7
30
33
32
15
3
36
46
8
31
38
2
24
28
25
5
14

>  <PUBCHEM_MMFF94_PARTIAL_CHARGES>  (1) 
7
1 -0.36
20 0.15
21 0.15
22 0.15
5 0.28
7 -0.07
8 -0.3

>  <PUBCHEM_EFFECTIVE_ROTOR_COUNT>  (1) 
5

>  <PUBCHEM_PHARMACOPHORE_FEATURES>  (1) 
2
1 1 acceptor
1 6 hydrophobe

>  <PUBCHEM_HEAVY_ATOM_COUNT>  (1) 
8

>  <PUBCHEM_ATOM_DEF_STEREO_COUNT>  (1) 
0

>  <PUBCHEM_ATOM_UDEF_STEREO_COUNT>  (1) 
0

>  <PUBCHEM_BOND_DEF_STEREO_COUNT>  (1) 
0

>  <PUBCHEM_BOND_UDEF_STEREO_COUNT>  (1) 
0

>  <PUBCHEM_ISOTOPIC_ATOM_COUNT>  (1) 
0

>  <PUBCHEM_COMPONENT_COUNT>  (1) 
1

>  <PUBCHEM_CACTVS_TAUTO_COUNT>  (1) 
1

>  <PUBCHEM_CONFORMER_ID>  (1) 
000053D300000001

>  <PUBCHEM_MMFF94_ENERGY>  (1) 
6.9456

>  <PUBCHEM_FEATURE_SELFOVERLAP>  (1) 
10.148

>  <PUBCHEM_SHAPE_FINGERPRINT>  (1) 
11062470 55 18411700984575215784
14123238 8 18411699902243444236
14325111 11 18412263913074977622
17834076 25 16487256582063863576
190213 19 18408605855211569903
20719005 15 18411136939442135211
21293036 1 10735875075625621218
22485316 2 18411133632480984023
23402539 116 18333723624861331735

>  <PUBCHEM_SHAPE_MULTIPOLES>  (1) 
158.77
8.52
0.75
0.62
0.11
0
0.01
-0.24
0.62
-0.13
0
0.04
0
0.05

>  <PUBCHEM_SHAPE_SELFOVERLAP>  (1) 
278.702

>  <PUBCHEM_SHAPE_VOLUME>  (1) 
105

>  <PUBCHEM_COORDINATE_TYPE>  (1) 
2
5
10

$$$$
