21457
     RDKit          3D

  7  6  0  0  0  0  0  0  0  0999 V2000
   -1.9626    0.7060   -0.9489 O   0  0  0  0  0  0  0  0  0  0  0  0
    1.2423    0.0063    0.0549 C   0  0  0  0  0  0  0  0  0  0  0  0
    0.1700    0.3142    0.8091 C   0  0  0  0  0  0  0  0  0  0  0  0
   -1.0816   -0.4881    0.9811 C   0  0  0  0  0  0  0  0  0  0  0  0
    2.4737    0.8573   -0.0769 C   0  0  0  0  0  0  0  0  0  0  0  0
    1.2702   -1.2631   -0.7532 C   0  0  0  0  0  0  0  0  0  0  0  0
   -2.1119   -0.1326   -0.0662 C   0  0  0  0  0  0  0  0  0  0  0  0
  1  7  2  0
  2  3  2  3
  2  5  1  0
  2  6  1  0
  3  4  1  0
  4  7  1  0
M  END
>  <PUBCHEM_COMPOUND_CID>  (1) 
21457

>  <PUBCHEM_CONFORMER_RMSD>  (1) 
0.4

>  <PUBCHEM_CONFORMER_DIVERSEORDER>  (1) 
2
9
14
3
12
10
13
5
4
11
1
6
7
8

>  <PUBCHEM_MMFF94_PARTIAL_CHARGES>  (1) 
9
1 -0.57
17 0.06
2 -0.28
3 -0.29
4 0.2
5 0.14
6 0.14
7 0.45
8 0.15

>  <PUBCHEM_EFFECTIVE_ROTOR_COUNT>  (1) 
2

>  <PUBCHEM_PHARMACOPHORE_FEATURES>  (1) 
2
1 1 acceptor
3 2 5 6 hydrophobe

>  <PUBCHEM_HEAVY_ATOM_COUNT>  (1) 
7

>  <PUBCHEM_ATOM_DEF_STEREO_COUNT>  (1) 
0

>  <PUBCHEM_ATOM_UDEF_STEREO_COUNT>  (1) 
0

>  <PUBCHEM_BOND_DEF_STEREO_COUNT>  (1) 
0

>  <PUBCHEM_BOND_UDEF_STEREO_COUNT>  (1) 
0

>  <PUBCHEM_ISOTOPIC_ATOM_COUNT>  (1) 
0

>  <PUBCHEM_COMPONENT_COUNT>  (1) 
1

>  <PUBCHEM_CACTVS_TAUTO_COUNT>  (1) 
3

>  <PUBCHEM_CONFORMER_ID>  (1) 
000053D100000002

>  <PUBCHEM_MMFF94_ENERGY>  (1) 
3.8272

>  <PUBCHEM_FEATURE_SELFOVERLAP>  (1) 
10.148

>  <PUBCHEM_SHAPE_FINGERPRINT>  (1) 
12897270 3 18202561804145968789
14390081 3 17749103417610256372
15310529 11 18060701671790638469
18185500 45 16702018643256257159
20096714 4 13912619259073341915
21040471 1 16515685502929419763
23552423 10 17344927233922651262
23552449 1 17387985410704545593
24536 1 18342185431392877970
29004967 10 18202008736875210131

>  <PUBCHEM_SHAPE_MULTIPOLES>  (1) 
138.19
3.24
1.07
1
0.01
0.38
-0.05
-0.27
-0.8
-0.57
0.03
0.45
-0.08
-0.11

>  <PUBCHEM_SHAPE_SELFOVERLAP>  (1) 
250.515

>  <PUBCHEM_SHAPE_VOLUME>  (1) 
88.8

>  <PUBCHEM_COORDINATE_TYPE>  (1) 
2
5
10

$$$$
