21454
     RDKit          3D

 16 18  0  0  0  0  0  0  0  0999 V2000
   -2.0428   -0.0062   -0.5296 N   0  0  0  0  0  0  0  0  0  0  0  0
    1.7066    1.9767   -0.1826 N   0  0  0  0  0  0  0  0  0  0  0  0
   -1.9758   -0.0825    0.9365 C   0  0  0  0  0  0  0  0  0  0  0  0
   -3.1972   -0.7534   -1.0482 C   0  0  0  0  0  0  0  0  0  0  0  0
   -3.2461    0.4792    1.5771 C   0  0  0  0  0  0  0  0  0  0  0  0
   -4.5074   -0.2138   -0.4725 C   0  0  0  0  0  0  0  0  0  0  0  0
   -4.4907   -0.2270    1.0519 C   0  0  0  0  0  0  0  0  0  0  0  0
   -0.8026   -0.5030   -1.1250 C   0  0  0  0  0  0  0  0  0  0  0  0
    0.3972    0.2883   -0.6853 C   0  0  0  0  0  0  0  0  0  0  0  0
    1.6295   -0.2511   -0.2709 C   0  0  0  0  0  0  0  0  0  0  0  0
    0.4547    1.6468   -0.6280 C   0  0  0  0  0  0  0  0  0  0  0  0
    2.4458    0.8375    0.0435 C   0  0  0  0  0  0  0  0  0  0  0  0
    2.1492   -1.5527   -0.1257 C   0  0  0  0  0  0  0  0  0  0  0  0
    3.7611    0.6891    0.4975 C   0  0  0  0  0  0  0  0  0  0  0  0
    3.4634   -1.7165    0.3274 C   0  0  0  0  0  0  0  0  0  0  0  0
    4.2551   -0.6115    0.6338 C   0  0  0  0  0  0  0  0  0  0  0  0
  1  3  1  0
  1  4  1  0
  1  8  1  0
  2 11  1  0
  2 12  1  0
  3  5  1  0
  4  6  1  0
  5  7  1  0
  6  7  1  0
  8  9  1  0
  9 10  1  0
  9 11  2  0
 10 12  2  0
 10 13  1  0
 12 14  1  0
 13 15  2  0
 14 16  2  0
 15 16  1  0
M  END
>  <PUBCHEM_COMPOUND_CID>  (1) 
21454

>  <PUBCHEM_CONFORMER_RMSD>  (1) 
0.6

>  <PUBCHEM_CONFORMER_DIVERSEORDER>  (1) 
1
8
4
5
3
7
6
13
2
12
11
9
10

>  <PUBCHEM_MMFF94_PARTIAL_CHARGES>  (1) 
18
1 -0.81
11 -0.3
12 -0.15
13 -0.15
14 -0.15
15 -0.15
16 -0.15
2 0.03
29 0.15
3 0.27
30 0.27
31 0.15
32 0.15
33 0.15
34 0.15
4 0.27
8 0.45
9 -0.18

>  <PUBCHEM_EFFECTIVE_ROTOR_COUNT>  (1) 
3.2

>  <PUBCHEM_PHARMACOPHORE_FEATURES>  (1) 
6
1 1 cation
1 2 cation
1 2 donor
5 2 9 10 11 12 rings
6 1 3 4 5 6 7 rings
6 10 12 13 14 15 16 rings

>  <PUBCHEM_HEAVY_ATOM_COUNT>  (1) 
16

>  <PUBCHEM_ATOM_DEF_STEREO_COUNT>  (1) 
0

>  <PUBCHEM_ATOM_UDEF_STEREO_COUNT>  (1) 
0

>  <PUBCHEM_BOND_DEF_STEREO_COUNT>  (1) 
0

>  <PUBCHEM_BOND_UDEF_STEREO_COUNT>  (1) 
0

>  <PUBCHEM_ISOTOPIC_ATOM_COUNT>  (1) 
0

>  <PUBCHEM_COMPONENT_COUNT>  (1) 
1

>  <PUBCHEM_CACTVS_TAUTO_COUNT>  (1) 
1

>  <PUBCHEM_CONFORMER_ID>  (1) 
000053CE00000001

>  <PUBCHEM_MMFF94_ENERGY>  (1) 
21.3924

>  <PUBCHEM_FEATURE_SELFOVERLAP>  (1) 
30.54

>  <PUBCHEM_SHAPE_FINGERPRINT>  (1) 
10465860 71 14634877435253244631
10498660 4 14476415776798671531
10646746 165 15626231194941736443
10751810 167 13695588854053673089
11471102 22 18334295374828254300
11578080 2 17700375240143262809
11796584 16 16153975847294417410
12236239 1 17989203763209233535
12251169 10 18272652350390982375
12644460 14 18261111928518864904
12670546 56 17846773009830571449
13296908 3 16878226445574886957
13675066 3 18333448742353601477
13965767 371 17198297407315207865
14252887 29 18335981991574725186
14386348 63 17385724690270322787
14739800 52 16629663185353208912
14911166 2 9439404674961196784
15375358 24 17676200290556205018
15375462 189 18412260623483378938
15375462 478 18131071519680075361
15527383 91 18410576167364219696
15653759 3 16950000344211832685
16752209 62 14129328646570574915
16945 1 18408601491941684692
17804303 29 15936413360061339781
1813 80 18338529530083159590
19050596 39 17989209269779352171
19107657 47 18410292519239643169
19862831 5 11746938689459916619
200 152 18342729737520956295
20279233 1 17603303760735879387
20432913 95 18260547822733691139
20645477 70 18259976080824095870
20715895 44 17628649544578330241
20871998 22 18268712710535715814
20871999 31 14345798240519953703
21065198 48 17988925561092626027
22094290 60 14779264202848678807
2255824 54 18338803437048224764
23048698 100 18272932734472360579
23175994 123 17748828505770835733
23184049 59 18412826875908169174
23382010 3 8213844964835045844
23402539 116 15985094220048532285
23557571 272 14333129719416538261
23559900 14 16008749125818938190
26918003 58 18333449850544711427
2748010 2 18122607376607075844
3268164 11 15195557988644139217
4047638 21 11600004362424056950
42 15 18408605851043216107
474 4 18055905743846989960
4990 188 11891332015438848008
573450 72 17632855322197773547
77492 1 17988641930100179733
83771 10 18261109639000167638

>  <PUBCHEM_SHAPE_MULTIPOLES>  (1) 
319.31
8.92
1.5
1.19
3.91
0.19
-0.18
-1.83
-2.5
-1.48
0.12
1.08
0
-0.51

>  <PUBCHEM_SHAPE_SELFOVERLAP>  (1) 
687.677

>  <PUBCHEM_SHAPE_VOLUME>  (1) 
178.4

>  <PUBCHEM_COORDINATE_TYPE>  (1) 
2
5
10

$$$$
