21469
     RDKit          3D

 16 17  0  0  0  0  0  0  0  0999 V2000
    1.3809   -0.9135   -0.2535 O   0  0  0  0  0  0  0  0  0  0  0  0
    2.1498   -3.4628    0.6430 O   0  0  0  0  0  0  0  0  0  0  0  0
   -0.0850    0.9148    0.0277 N   0  0  0  0  0  0  0  0  0  0  0  0
   -0.0814    2.2567    0.1752 N   0  0  0  0  0  0  0  0  0  0  0  0
    1.1743    0.3869   -0.0993 C   0  0  0  0  0  0  0  0  0  0  0  0
   -1.2793    0.2178    0.0158 C   0  0  0  0  0  0  0  0  0  0  0  0
    1.2159    2.5725    0.1386 C   0  0  0  0  0  0  0  0  0  0  0  0
    2.0447    1.4473   -0.0308 C   0  0  0  0  0  0  0  0  0  0  0  0
    2.7407   -1.3804   -0.3797 C   0  0  0  0  0  0  0  0  0  0  0  0
   -1.3245   -1.0962    0.4817 C   0  0  0  0  0  0  0  0  0  0  0  0
   -2.4389    0.8289   -0.4611 C   0  0  0  0  0  0  0  0  0  0  0  0
    1.6302    3.9794    0.2708 C   0  0  0  0  0  0  0  0  0  0  0  0
   -2.5292   -1.7991    0.4707 C   0  0  0  0  0  0  0  0  0  0  0  0
   -3.6436    0.1261   -0.4720 C   0  0  0  0  0  0  0  0  0  0  0  0
    2.7342   -2.8904   -0.5207 C   0  0  0  0  0  0  0  0  0  0  0  0
   -3.6888   -1.1880   -0.0062 C   0  0  0  0  0  0  0  0  0  0  0  0
  1  5  1  0
  1  9  1  0
  2 15  1  0
  3  4  1  0
  3  5  1  0
  3  6  1  0
  4  7  2  0
  5  8  2  0
  6 10  2  0
  6 11  1  0
  7  8  1  0
  7 12  1  0
  9 15  1  0
 10 13  1  0
 11 14  2  0
 13 16  2  0
 14 16  1  0
M  END
>  <PUBCHEM_COMPOUND_CID>  (1) 
21469

>  <PUBCHEM_CONFORMER_RMSD>  (1) 
0.6

>  <PUBCHEM_CONFORMER_DIVERSEORDER>  (1) 
1
9
14
10
11
2
5
4
3
8
7
12
6
13

>  <PUBCHEM_MMFF94_PARTIAL_CHARGES>  (1) 
23
1 -0.34
10 -0.15
11 -0.15
12 0.18
13 -0.15
14 -0.15
15 0.28
16 -0.15
17 0.15
2 -0.68
20 0.15
21 0.15
27 0.15
28 0.15
29 0.15
3 0.59
30 0.4
4 -0.71
5 -0.09
6 -0.02
7 0.11
8 -0.15
9 0.28

>  <PUBCHEM_EFFECTIVE_ROTOR_COUNT>  (1) 
4

>  <PUBCHEM_PHARMACOPHORE_FEATURES>  (1) 
6
1 1 acceptor
1 2 acceptor
1 2 donor
1 4 acceptor
5 3 4 5 7 8 rings
6 6 10 11 13 14 16 rings

>  <PUBCHEM_HEAVY_ATOM_COUNT>  (1) 
16

>  <PUBCHEM_ATOM_DEF_STEREO_COUNT>  (1) 
0

>  <PUBCHEM_ATOM_UDEF_STEREO_COUNT>  (1) 
0

>  <PUBCHEM_BOND_DEF_STEREO_COUNT>  (1) 
0

>  <PUBCHEM_BOND_UDEF_STEREO_COUNT>  (1) 
0

>  <PUBCHEM_ISOTOPIC_ATOM_COUNT>  (1) 
0

>  <PUBCHEM_COMPONENT_COUNT>  (1) 
1

>  <PUBCHEM_CACTVS_TAUTO_COUNT>  (1) 
1

>  <PUBCHEM_CONFORMER_ID>  (1) 
000053DD00000001

>  <PUBCHEM_MMFF94_ENERGY>  (1) 
40.5923

>  <PUBCHEM_FEATURE_SELFOVERLAP>  (1) 
30.451

>  <PUBCHEM_SHAPE_FINGERPRINT>  (1) 
1 1 18196372752093640124
10608611 8 18264201599084657197
10967382 1 18410856598315659246
12553582 1 18195258719176336762
12788726 201 17761218717489021098
13140716 1 18051414259920804569
13380535 76 17975687608740332817
14648413 74 18337389439219501897
14790565 3 17403467273491381208
14866123 147 17187003086383081971
15042514 8 17690289205105863473
15219456 202 18192429899423195245
15309172 13 17691695897142766945
15442244 35 18341620261395369953
16945 1 18339646749449951497
17990270 104 18410571816261583971
19049666 15 18334857234113222497
19591789 44 17906459079806434132
20645477 70 18264760129569335591
20671657 53 18270688566815846222
21524375 3 17613709740544868368
2255824 54 18341336711616788662
23184049 29 18050003294924990154
23530152 11 17762904663945708908
23559900 14 18339070583723833449
23728640 28 17039790565309034874
257057 1 18267298729691514246
2748010 2 18339635651043137357
3084891 72 17618214010513658525
3091708 16 9142539794782717752
314173 41 18339370668868022095
33824 294 18050568744465053211
458136 41 17977407227656816353
6338986 31 18267018358511219390
7364860 26 18339923826205850368
81228 2 17838345072973252000
9709674 26 18336545036001875451

>  <PUBCHEM_SHAPE_MULTIPOLES>  (1) 
307.57
5.43
4.26
0.71
4.6
0.84
0
1.04
-0.4
-5.5
0.39
0.06
0.13
0.65

>  <PUBCHEM_SHAPE_SELFOVERLAP>  (1) 
651.33

>  <PUBCHEM_SHAPE_VOLUME>  (1) 
172.7

>  <PUBCHEM_COORDINATE_TYPE>  (1) 
2
5
10

$$$$
