21464
     RDKit          3D

 20 20  0  0  0  0  0  0  0  0999 V2000
   -0.2863   -0.1612   -1.2267 O   0  0  0  0  0  0  0  0  0  0  0  0
   -2.7352   -0.3002    0.0093 N   0  0  0  0  0  0  0  0  0  0  0  0
    0.9105   -0.1463    0.7954 N   0  0  0  0  0  0  0  0  0  0  0  0
   -3.9534   -0.3747    0.9184 C   0  0  0  0  0  0  0  0  0  0  0  0
   -2.6987   -1.5260   -0.8918 C   0  0  0  0  0  0  0  0  0  0  0  0
   -1.4719   -0.2557    0.8569 C   0  0  0  0  0  0  0  0  0  0  0  0
   -2.8165    0.9559   -0.8462 C   0  0  0  0  0  0  0  0  0  0  0  0
   -5.2058   -0.4184    0.0707 C   0  0  0  0  0  0  0  0  0  0  0  0
   -2.6178   -2.7712   -0.0360 C   0  0  0  0  0  0  0  0  0  0  0  0
   -0.2296   -0.1811   -0.0017 C   0  0  0  0  0  0  0  0  0  0  0  0
   -2.8565    2.2087   -0.0347 C   0  0  0  0  0  0  0  0  0  0  0  0
    2.2584   -0.0759    0.3699 C   0  0  0  0  0  0  0  0  0  0  0  0
   -1.9293    3.1704   -0.1004 C   0  0  0  0  0  0  0  0  0  0  0  0
    2.8526    1.1643    0.1912 C   0  0  0  0  0  0  0  0  0  0  0  0
    2.9617   -1.2487    0.1387 C   0  0  0  0  0  0  0  0  0  0  0  0
    4.1811    1.2333   -0.2285 C   0  0  0  0  0  0  0  0  0  0  0  0
    4.2902   -1.1795   -0.2812 C   0  0  0  0  0  0  0  0  0  0  0  0
    2.1096    2.4377    0.4354 C   0  0  0  0  0  0  0  0  0  0  0  0
    2.3366   -2.5929    0.3265 C   0  0  0  0  0  0  0  0  0  0  0  0
    4.9001    0.0616   -0.4651 C   0  0  0  0  0  0  0  0  0  0  0  0
  1 10  2  0
  2  4  1  0
  2  5  1  0
  2  6  1  0
  2  7  1  0
  3 10  1  0
  3 12  1  0
  4  8  1  0
  5  9  1  0
  6 10  1  0
  7 11  1  0
 11 13  2  0
 12 14  2  0
 12 15  1  0
 14 16  1  0
 14 18  1  0
 15 17  2  0
 15 19  1  0
 16 20  2  0
 17 20  1  0
M  CHG  1   2   1
M  END
>  <PUBCHEM_COMPOUND_CID>  (1) 
21464

>  <PUBCHEM_CONFORMER_RMSD>  (1) 
0.8

>  <PUBCHEM_CONFORMER_DIVERSEORDER>  (1) 
1
13
17
3
14
2
18
9
16
8
12
7
11
6
10
4
15
5

>  <PUBCHEM_MMFF94_PARTIAL_CHARGES>  (1) 
25
1 -0.57
10 0.57
11 -0.29
12 0.12
13 -0.3
14 -0.14
15 -0.14
16 -0.15
17 -0.15
18 0.14
19 0.14
2 -1.01
20 -0.15
3 -0.55
35 0.15
36 0.37
37 0.15
38 0.15
39 0.15
4 0.5
40 0.15
47 0.15
5 0.5
6 0.56
7 0.64

>  <PUBCHEM_EFFECTIVE_ROTOR_COUNT>  (1) 
8

>  <PUBCHEM_PHARMACOPHORE_FEATURES>  (1) 
5
1 1 acceptor
1 13 hydrophobe
1 2 cation
1 3 donor
6 12 14 15 16 17 20 rings

>  <PUBCHEM_HEAVY_ATOM_COUNT>  (1) 
20

>  <PUBCHEM_ATOM_DEF_STEREO_COUNT>  (1) 
0

>  <PUBCHEM_ATOM_UDEF_STEREO_COUNT>  (1) 
0

>  <PUBCHEM_BOND_DEF_STEREO_COUNT>  (1) 
0

>  <PUBCHEM_BOND_UDEF_STEREO_COUNT>  (1) 
0

>  <PUBCHEM_ISOTOPIC_ATOM_COUNT>  (1) 
0

>  <PUBCHEM_COMPONENT_COUNT>  (1) 
1

>  <PUBCHEM_CACTVS_TAUTO_COUNT>  (1) 
2

>  <PUBCHEM_CONFORMER_ID>  (1) 
000053D800000001

>  <PUBCHEM_MMFF94_ENERGY>  (1) 
94.0454

>  <PUBCHEM_FEATURE_SELFOVERLAP>  (1) 
25.371

>  <PUBCHEM_SHAPE_FINGERPRINT>  (1) 
10366900 7 18261116295872474610
10616163 171 18412545439612966614
11552529 35 17916025857518627099
116883 192 17623008993913084238
12107183 9 17688589359981720122
12173636 292 18410847742219786727
12236239 1 17704359870455662050
12553582 1 18339349851245525099
13224815 77 17240196625536772586
13760787 19 18272934967813598262
14251751 93 18412823560346371406
14289901 80 18408319995131395938
14341114 176 18409736170286919996
15196674 1 18409730621326745800
15375462 6 18411134766204468773
15442244 35 18193834843275858512
17492 89 18337953368315249139
18186145 218 18202564003580531666
19930381 70 17905886229558445153
200 152 18131350816907764171
20510252 161 18410855422048696689
20645477 70 18342460301179885870
21267235 1 18411427185153657362
21652331 79 18410293631298692597
221357 26 18411983542047488212
221490 88 18339084912225473322
23402539 116 18343295973298412957
23402655 69 18409731738376438732
23557571 272 18271814513925183133
23559900 14 18339354266229195449
350125 39 18339365163099542361
3545911 37 18410293635461453284
4028521 119 18114453479626731909
4214541 1 18410575046061237704
5104073 3 18336826386192115072
5281201 14 18410017598393420044
58051976 100 18343303707791078167
58051976 378 18411696608272930446
6287921 2 18189340237358057268
77779 3 18409731746539072878
93112 12 18411413990681600334
9709674 26 18411704257398980310

>  <PUBCHEM_SHAPE_MULTIPOLES>  (1) 
395.76
9.81
2.94
0.89
1.42
0.75
-0.04
-0.9
-0.46
-0.84
0
-0.3
-0.06
0.07

>  <PUBCHEM_SHAPE_SELFOVERLAP>  (1) 
797.361

>  <PUBCHEM_SHAPE_VOLUME>  (1) 
233.9

>  <PUBCHEM_COORDINATE_TYPE>  (1) 
2
5
10

$$$$
