21468
     RDKit          3D

 13 13  0  0  0  0  0  0  0  0999 V2000
    0.9182    0.6197    0.7341 O   0  0  0  0  0  0  0  0  0  0  0  0
   -3.0007   -0.2961   -0.3019 N   0  0  0  0  0  0  0  0  0  0  0  0
   -3.4941    2.0312   -0.4300 N   0  0  0  0  0  0  0  0  0  0  0  0
   -2.4782   -2.6164   -0.1664 N   0  0  0  0  0  0  0  0  0  0  0  0
    3.2268    0.4394    0.1251 C   0  0  0  0  0  0  0  0  0  0  0  0
    4.3469   -0.4987   -0.3156 C   0  0  0  0  0  0  0  0  0  0  0  0
    1.9192   -0.3090    0.3414 C   0  0  0  0  0  0  0  0  0  0  0  0
    5.6396    0.2590   -0.5722 C   0  0  0  0  0  0  0  0  0  0  0  0
   -0.3745    0.3173    0.3923 C   0  0  0  0  0  0  0  0  0  0  0  0
   -1.2795    1.3389    0.1547 C   0  0  0  0  0  0  0  0  0  0  0  0
   -0.7663   -1.0071    0.2870 C   0  0  0  0  0  0  0  0  0  0  0  0
   -2.5737    0.9815   -0.1876 C   0  0  0  0  0  0  0  0  0  0  0  0
   -2.0836   -1.2596   -0.0609 C   0  0  0  0  0  0  0  0  0  0  0  0
  1  7  1  0
  1  9  1  0
  2 12  2  0
  2 13  1  0
  3 12  1  0
  4 13  1  0
  5  6  1  0
  5  7  1  0
  6  8  1  0
  9 10  2  0
  9 11  1  0
 10 12  1  0
 11 13  2  0
M  END
>  <PUBCHEM_COMPOUND_CID>  (1) 
21468

>  <PUBCHEM_CONFORMER_RMSD>  (1) 
0.6

>  <PUBCHEM_CONFORMER_DIVERSEORDER>  (1) 
1
15
23
9
10
2
22
13
6
11
14
8
4
3
21
17
5
7
12
16
20
18
19
24

>  <PUBCHEM_MMFF94_PARTIAL_CHARGES>  (1) 
16
1 -0.36
10 -0.15
11 -0.15
12 0.41
13 0.41
2 -0.62
23 0.15
24 0.15
25 0.4
26 0.4
27 0.4
28 0.4
3 -0.9
4 -0.9
7 0.28
9 0.08

>  <PUBCHEM_EFFECTIVE_ROTOR_COUNT>  (1) 
4

>  <PUBCHEM_PHARMACOPHORE_FEATURES>  (1) 
7
1 1 acceptor
1 3 donor
1 4 cation
1 4 donor
1 8 hydrophobe
3 2 3 12 cation
6 2 9 10 11 12 13 rings

>  <PUBCHEM_HEAVY_ATOM_COUNT>  (1) 
13

>  <PUBCHEM_ATOM_DEF_STEREO_COUNT>  (1) 
0

>  <PUBCHEM_ATOM_UDEF_STEREO_COUNT>  (1) 
0

>  <PUBCHEM_BOND_DEF_STEREO_COUNT>  (1) 
0

>  <PUBCHEM_BOND_UDEF_STEREO_COUNT>  (1) 
0

>  <PUBCHEM_ISOTOPIC_ATOM_COUNT>  (1) 
0

>  <PUBCHEM_COMPONENT_COUNT>  (1) 
1

>  <PUBCHEM_CACTVS_TAUTO_COUNT>  (1) 
5

>  <PUBCHEM_CONFORMER_ID>  (1) 
000053DC00000001

>  <PUBCHEM_MMFF94_ENERGY>  (1) 
43.8488

>  <PUBCHEM_FEATURE_SELFOVERLAP>  (1) 
35.52

>  <PUBCHEM_SHAPE_FINGERPRINT>  (1) 
10014705 185 18260830397538748452
10680689 15 18336554884319167722
10726558 24 18268709416084588493
12186901 62 18410856555365947335
12500047 106 18411413982186591884
13024252 1 16950565493425893107
14911166 2 18342730789387445669
15669948 3 18336253591925821738
17870717 6 18129678425947715358
1986462 14 18411703201226733502
200 152 15841548553014894856
20279233 1 17775288248977431390
20300324 65 18335704983305746116
20325693 3 18410299102997045284
20645476 183 18187363207860517363
20645477 56 18409731729275151945
20645477 70 17131557129187705494
20871998 22 17835237123264492627
20871999 31 18409444803894914751
21061003 4 17060344075352994698
21426921 1 18409449214926632383
22485316 2 18411981352257524578
23402539 116 18341887459526281460
23402655 69 18261114046064056684
23557571 272 18342465854387561068
23559900 14 18272366443983812544
2748010 2 17834092510353575987
293599 30 18266741290429716145
3312278 4 18342459235827166162
4175511 318 18334292037464676892
559249 180 18263357006777427362
573450 72 18260816091245058186
58051976 100 18410012152243078342
633830 44 16950572056389187362
93112 12 18411417319613745968

>  <PUBCHEM_SHAPE_MULTIPOLES>  (1) 
246.72
8.86
1.82
0.71
13.76
0.59
-0.01
-0.87
2.28
-2.66
0.17
0.15
-0.04
0.13

>  <PUBCHEM_SHAPE_SELFOVERLAP>  (1) 
495.286

>  <PUBCHEM_SHAPE_VOLUME>  (1) 
145.6

>  <PUBCHEM_COORDINATE_TYPE>  (1) 
2
5
10

$$$$
