21479
     RDKit          3D

  9  8  0  0  0  0  0  0  0  0999 V2000
   -0.0111    0.1565    0.3012 O   0  0  0  0  0  0  0  0  0  0  0  0
   -3.4103   -0.7680   -0.3479 O   0  0  0  0  0  0  0  0  0  0  0  0
    2.3573    1.2902   -0.3313 O   0  0  0  0  0  0  0  0  0  0  0  0
   -2.5028    1.2474    0.2019 O   0  0  0  0  0  0  0  0  0  0  0  0
    1.1806   -0.5924    0.3178 N   0  0  0  0  0  0  0  0  0  0  0  0
   -1.0889   -0.7180   -0.0028 C   0  0  0  0  0  0  0  0  0  0  0  0
    2.3105    0.0965   -0.0417 C   0  0  0  0  0  0  0  0  0  0  0  0
    3.5438   -0.7659   -0.0692 C   0  0  0  0  0  0  0  0  0  0  0  0
   -2.3790    0.0537   -0.0280 C   0  0  0  0  0  0  0  0  0  0  0  0
  1  5  1  0
  1  6  1  0
  2  9  1  0
  3  7  2  0
  4  9  2  0
  5  7  1  0
  6  9  1  0
  7  8  1  0
M  END
>  <PUBCHEM_COMPOUND_CID>  (1) 
21479

>  <PUBCHEM_CONFORMER_RMSD>  (1) 
0.6

>  <PUBCHEM_CONFORMER_DIVERSEORDER>  (1) 
1
28
29
10
19
24
25
2
5
30
12
14
16
7
4
27
17
32
21
13
15
26
23
18
34
6
11
20
22
31
8
33
3
9

>  <PUBCHEM_MMFF94_PARTIAL_CHARGES>  (1) 
11
1 -0.32
12 0.37
16 0.5
2 -0.65
3 -0.57
4 -0.57
5 -0.39
6 0.34
7 0.57
8 0.06
9 0.66

>  <PUBCHEM_EFFECTIVE_ROTOR_COUNT>  (1) 
4

>  <PUBCHEM_PHARMACOPHORE_FEATURES>  (1) 
5
1 2 acceptor
1 3 acceptor
1 4 acceptor
1 5 donor
3 2 4 9 anion

>  <PUBCHEM_HEAVY_ATOM_COUNT>  (1) 
9

>  <PUBCHEM_ATOM_DEF_STEREO_COUNT>  (1) 
0

>  <PUBCHEM_ATOM_UDEF_STEREO_COUNT>  (1) 
0

>  <PUBCHEM_BOND_DEF_STEREO_COUNT>  (1) 
0

>  <PUBCHEM_BOND_UDEF_STEREO_COUNT>  (1) 
0

>  <PUBCHEM_ISOTOPIC_ATOM_COUNT>  (1) 
0

>  <PUBCHEM_COMPONENT_COUNT>  (1) 
1

>  <PUBCHEM_CACTVS_TAUTO_COUNT>  (1) 
2

>  <PUBCHEM_CONFORMER_ID>  (1) 
000053E700000001

>  <PUBCHEM_MMFF94_ENERGY>  (1) 
9.5546

>  <PUBCHEM_FEATURE_SELFOVERLAP>  (1) 
25.429

>  <PUBCHEM_SHAPE_FINGERPRINT>  (1) 
11062470 55 9871750195574563463
12932764 1 16950275213275732026
14325111 11 18411138038922030034
14390081 3 18408039632393024185
3248919 1 18187644729965674474
5460574 1 9223234052598816763

>  <PUBCHEM_SHAPE_MULTIPOLES>  (1) 
156.76
6.14
1.1
0.6
0.24
0.24
0
-0.49
-0.53
0.02
-0.04
0.02
-0.01
-0.25

>  <PUBCHEM_SHAPE_SELFOVERLAP>  (1) 
292.265

>  <PUBCHEM_SHAPE_VOLUME>  (1) 
97.9

>  <PUBCHEM_COORDINATE_TYPE>  (1) 
2
5
10

$$$$
