21477
     RDKit          3D

 16 18  0  0  0  0  0  0  0  0999 V2000
    4.4023   -0.3266   -1.0162 O   0  0  0  0  0  0  0  0  0  0  0  0
    2.0452    0.0357    0.5374 N   0  0  0  0  0  0  0  0  0  0  0  0
   -1.7142    1.9829    0.1142 N   0  0  0  0  0  0  0  0  0  0  0  0
    0.8078   -0.4474    1.1465 C   0  0  0  0  0  0  0  0  0  0  0  0
    1.9895   -0.0882   -0.9259 C   0  0  0  0  0  0  0  0  0  0  0  0
    3.2057   -0.6981    1.0611 C   0  0  0  0  0  0  0  0  0  0  0  0
   -0.3957    0.3209    0.6773 C   0  0  0  0  0  0  0  0  0  0  0  0
    3.2956    0.4099   -1.5381 C   0  0  0  0  0  0  0  0  0  0  0  0
    4.4828   -0.1846    0.4024 C   0  0  0  0  0  0  0  0  0  0  0  0
   -1.6240   -0.2400    0.2793 C   0  0  0  0  0  0  0  0  0  0  0  0
   -2.4461    0.8322   -0.0740 C   0  0  0  0  0  0  0  0  0  0  0  0
   -0.4614    1.6762    0.5732 C   0  0  0  0  0  0  0  0  0  0  0  0
   -2.1355   -1.5491    0.1779 C   0  0  0  0  0  0  0  0  0  0  0  0
   -3.7595    0.6600   -0.5254 C   0  0  0  0  0  0  0  0  0  0  0  0
   -3.4475   -1.7364   -0.2720 C   0  0  0  0  0  0  0  0  0  0  0  0
   -4.2452   -0.6474   -0.6177 C   0  0  0  0  0  0  0  0  0  0  0  0
  1  8  1  0
  1  9  1  0
  2  4  1  0
  2  5  1  0
  2  6  1  0
  3 11  1  0
  3 12  1  0
  4  7  1  0
  5  8  1  0
  6  9  1  0
  7 10  1  0
  7 12  2  0
 10 11  2  0
 10 13  1  0
 11 14  1  0
 13 15  2  0
 14 16  2  0
 15 16  1  0
M  END
>  <PUBCHEM_COMPOUND_CID>  (1) 
21477

>  <PUBCHEM_CONFORMER_RMSD>  (1) 
0.6

>  <PUBCHEM_CONFORMER_DIVERSEORDER>  (1) 
1
8
4
5
10
7
3
6
2
9

>  <PUBCHEM_MMFF94_PARTIAL_CHARGES>  (1) 
21
1 -0.56
11 -0.15
12 -0.3
13 -0.15
14 -0.15
15 -0.15
16 -0.15
2 -0.81
27 0.15
28 0.27
29 0.15
3 0.03
30 0.15
31 0.15
32 0.15
4 0.45
5 0.27
6 0.27
7 -0.18
8 0.28
9 0.28

>  <PUBCHEM_EFFECTIVE_ROTOR_COUNT>  (1) 
3.2

>  <PUBCHEM_PHARMACOPHORE_FEATURES>  (1) 
7
1 1 acceptor
1 2 cation
1 3 cation
1 3 donor
5 3 7 10 11 12 rings
6 1 2 5 6 8 9 rings
6 10 11 13 14 15 16 rings

>  <PUBCHEM_HEAVY_ATOM_COUNT>  (1) 
16

>  <PUBCHEM_ATOM_DEF_STEREO_COUNT>  (1) 
0

>  <PUBCHEM_ATOM_UDEF_STEREO_COUNT>  (1) 
0

>  <PUBCHEM_BOND_DEF_STEREO_COUNT>  (1) 
0

>  <PUBCHEM_BOND_UDEF_STEREO_COUNT>  (1) 
0

>  <PUBCHEM_ISOTOPIC_ATOM_COUNT>  (1) 
0

>  <PUBCHEM_COMPONENT_COUNT>  (1) 
1

>  <PUBCHEM_CACTVS_TAUTO_COUNT>  (1) 
1

>  <PUBCHEM_CONFORMER_ID>  (1) 
000053E500000001

>  <PUBCHEM_MMFF94_ENERGY>  (1) 
30.0648

>  <PUBCHEM_FEATURE_SELFOVERLAP>  (1) 
35.613

>  <PUBCHEM_SHAPE_FINGERPRINT>  (1) 
10465860 71 18411422838404063389
11543360 7 16660640799725552595
11578080 2 17607205919040159356
12119455 92 14490186120174398762
12236239 1 17894627037168355290
13296908 3 17060621070842215624
14115302 16 18186517730610552923
14252887 29 16200433572343082930
14386348 63 17561365088591025494
14420673 8 10014773564884876300
14911166 2 18338504297276947581
15375358 24 17704065187995515111
16752209 62 18337940226099685171
16945 1 18412259511303289577
17804303 29 18272647983079122961
17870717 6 18272099270272583079
18186145 218 14779263107315494072
19107657 47 15285358410108593356
19141452 34 17346316055302015919
192875 21 17458340840953363212
19862831 5 17967813859707479370
200 152 17967531281124640266
20279233 1 17704352169236525734
20300324 65 18409169908971774648
20374829 77 18273208720908355791
20432913 95 15626223524235809758
20645476 183 17894346696464372723
20645477 70 15338557120329640644
20871999 31 18408599267164280669
21061003 4 16702300169814637345
21079973 296 18130784590052603394
21119208 17 17821726134860182750
22094290 60 18343022177027070481
231179 274 14273455894756335868
23382010 3 17313384603358841745
23402539 116 18408878529921629990
23402655 69 17530964657503758596
23557571 272 18059573551470502912
23559900 14 18343295934474986522
23598291 2 17679012704146147514
2748010 2 18122045766641220145
3082319 5 17894349990360922958
4028521 119 14056989525541893679
4175511 318 18260822675118543567
474 4 16588312717363747380
495365 180 13551454995728978392
57096353 35 18114180847671029478
67856867 119 18187358887751320984
7364860 26 17913200151189657089
77492 1 17894909598887765048
84936 31 16772092872915791184

>  <PUBCHEM_SHAPE_MULTIPOLES>  (1) 
313.44
8.65
1.51
1.15
3.97
0.21
-0.18
-1.93
-2.32
-1.48
0.12
1.03
0
-0.42

>  <PUBCHEM_SHAPE_SELFOVERLAP>  (1) 
678.095

>  <PUBCHEM_SHAPE_VOLUME>  (1) 
173

>  <PUBCHEM_COORDINATE_TYPE>  (1) 
2
5
10

$$$$
