21478
     RDKit          3D

 15 17  0  0  0  0  0  0  0  0999 V2000
   -2.1084   -0.3777   -0.1864 N   0  0  0  0  0  0  0  0  0  0  0  0
    1.5843    2.0147    0.0247 N   0  0  0  0  0  0  0  0  0  0  0  0
   -3.3421   -0.9576   -0.7164 C   0  0  0  0  0  0  0  0  0  0  0  0
   -2.5367    0.7958    0.5743 C   0  0  0  0  0  0  0  0  0  0  0  0
   -4.2980   -0.8606    0.4634 C   0  0  0  0  0  0  0  0  0  0  0  0
   -3.7707    0.2941    1.3097 C   0  0  0  0  0  0  0  0  0  0  0  0
   -1.1566   -0.0430   -1.2353 C   0  0  0  0  0  0  0  0  0  0  0  0
    0.1095    0.5526   -0.6863 C   0  0  0  0  0  0  0  0  0  0  0  0
    1.2578   -0.1674   -0.3059 C   0  0  0  0  0  0  0  0  0  0  0  0
    0.3190    1.8814   -0.4811 C   0  0  0  0  0  0  0  0  0  0  0  0
    2.1812    0.7797    0.1422 C   0  0  0  0  0  0  0  0  0  0  0  0
    1.6211   -1.5287   -0.2911 C   0  0  0  0  0  0  0  0  0  0  0  0
    3.4548    0.4321    0.6062 C   0  0  0  0  0  0  0  0  0  0  0  0
    2.8919   -1.8912    0.1703 C   0  0  0  0  0  0  0  0  0  0  0  0
    3.7929   -0.9242    0.6117 C   0  0  0  0  0  0  0  0  0  0  0  0
  1  3  1  0
  1  4  1  0
  1  7  1  0
  2 10  1  0
  2 11  1  0
  3  5  1  0
  4  6  1  0
  5  6  1  0
  7  8  1  0
  8  9  1  0
  8 10  2  0
  9 11  2  0
  9 12  1  0
 11 13  1  0
 12 14  2  0
 13 15  2  0
 14 15  1  0
M  END
>  <PUBCHEM_COMPOUND_CID>  (1) 
21478

>  <PUBCHEM_CONFORMER_RMSD>  (1) 
0.6

>  <PUBCHEM_CONFORMER_DIVERSEORDER>  (1) 
2
6
5
7
4
3
8
1

>  <PUBCHEM_MMFF94_PARTIAL_CHARGES>  (1) 
18
1 -0.81
10 -0.3
11 -0.15
12 -0.15
13 -0.15
14 -0.15
15 -0.15
2 0.03
26 0.15
27 0.27
28 0.15
29 0.15
3 0.27
30 0.15
31 0.15
4 0.27
7 0.45
8 -0.18

>  <PUBCHEM_EFFECTIVE_ROTOR_COUNT>  (1) 
3

>  <PUBCHEM_PHARMACOPHORE_FEATURES>  (1) 
6
1 1 cation
1 2 cation
1 2 donor
5 1 3 4 5 6 rings
5 2 8 9 10 11 rings
6 9 11 12 13 14 15 rings

>  <PUBCHEM_HEAVY_ATOM_COUNT>  (1) 
15

>  <PUBCHEM_ATOM_DEF_STEREO_COUNT>  (1) 
0

>  <PUBCHEM_ATOM_UDEF_STEREO_COUNT>  (1) 
0

>  <PUBCHEM_BOND_DEF_STEREO_COUNT>  (1) 
0

>  <PUBCHEM_BOND_UDEF_STEREO_COUNT>  (1) 
0

>  <PUBCHEM_ISOTOPIC_ATOM_COUNT>  (1) 
0

>  <PUBCHEM_COMPONENT_COUNT>  (1) 
1

>  <PUBCHEM_CACTVS_TAUTO_COUNT>  (1) 
1

>  <PUBCHEM_CONFORMER_ID>  (1) 
000053E600000002

>  <PUBCHEM_MMFF94_ENERGY>  (1) 
24.9295

>  <PUBCHEM_FEATURE_SELFOVERLAP>  (1) 
30.54

>  <PUBCHEM_SHAPE_FINGERPRINT>  (1) 
10465860 71 14490194907883402967
10618630 7 18260266300522681726
10751810 167 13767923520806025931
10799339 124 18342741780282317121
10980938 120 18413671331161307620
11471102 22 18408324397346182712
11543360 7 14345804833242128982
11715629 250 10447934932095022531
11796584 16 16226594196393987090
12032990 46 18335980866293261118
12119455 92 11887668447169465480
12251169 10 18272089404985748927
12892183 10 18060699485388534595
13296908 3 18187358792428155583
13583140 156 14117216348531643886
13705890 14 15502375604304459130
14144814 61 18343021090516343591
14251717 144 18408880763083447967
14252887 29 18409166593547198706
14911166 2 9223232996595972872
15375462 189 18334292033354514066
15375462 478 18131913754282394429
15501101 241 18334573559839066940
15527383 91 18409733932508764553
16752209 62 14346059954858440279
16945 1 18338782486387483524
17844478 74 18113613456805716516
1813 80 18187657851470520414
18915474 69 12973891437367660073
19050596 39 18130229354198094907
19862831 5 12107505927123879103
200 152 18201423814639255511
20279233 1 17458058283507607387
20281407 28 17676768695181499743
20281475 54 18187368722382221774
20559304 39 18271814552653702613
20645477 70 18187633752293140111
20671657 53 15864072061325704748
20871998 22 18268996392972616246
21501925 9 18410852170272909853
22445834 79 18343020008216233559
2255824 54 18265058113988895028
231179 274 13039188082798356554
23382010 3 7997672182605210973
23402539 116 7997971267491303402
23557571 272 16226313859710035124
26918003 58 18335137618294905731
2748010 2 18052237528517341188
42 15 18410859850017359083
7097593 13 18272374139879755279
77492 1 17917988425306438181
83771 10 18260830367178188486

>  <PUBCHEM_SHAPE_MULTIPOLES>  (1) 
298.73
7.54
1.78
1.02
3.93
0.21
-0.01
-2.59
-2.56
-1.1
0.08
0.59
0.02
-0.3

>  <PUBCHEM_SHAPE_SELFOVERLAP>  (1) 
650.151

>  <PUBCHEM_SHAPE_VOLUME>  (1) 
167

>  <PUBCHEM_COORDINATE_TYPE>  (1) 
2
5
10

$$$$
