21476
     RDKit          3D

 10 10  0  0  0  0  0  0  0  0999 V2000
    0.7475    1.3445   -0.0094 C   0  0  0  0  0  0  0  0  0  0  0  0
    1.3516   -0.9943    0.0270 C   0  0  0  0  0  0  0  0  0  0  0  0
   -0.9721   -0.3488   -0.1167 C   0  0  0  0  0  0  0  0  0  0  0  0
    1.7235    0.3497    0.0506 C   0  0  0  0  0  0  0  0  0  0  0  0
   -0.6003    0.9953   -0.0930 C   0  0  0  0  0  0  0  0  0  0  0  0
    0.0038   -1.3437   -0.0568 C   0  0  0  0  0  0  0  0  0  0  0  0
    1.1455    2.7817    0.0159 C   0  0  0  0  0  0  0  0  0  0  0  0
    2.3953   -2.0577    0.0915 C   0  0  0  0  0  0  0  0  0  0  0  0
   -2.3775   -0.7135   -0.2037 C   0  0  0  0  0  0  0  0  0  0  0  0
   -3.4173   -0.0133    0.2947 C   0  0  0  0  0  0  0  0  0  0  0  0
  1  4  2  0
  1  5  1  0
  1  7  1  0
  2  4  1  0
  2  6  2  0
  2  8  1  0
  3  5  2  0
  3  6  1  0
  3  9  1  0
  9 10  2  0
M  END
>  <PUBCHEM_COMPOUND_CID>  (1) 
21476

>  <PUBCHEM_CONFORMER_RMSD>  (1) 
0.4

>  <PUBCHEM_CONFORMER_DIVERSEORDER>  (1) 
1

>  <PUBCHEM_MMFF94_PARTIAL_CHARGES>  (1) 
16
1 -0.14
10 -0.3
11 0.15
12 0.15
13 0.15
2 -0.14
20 0.15
21 0.15
22 0.15
3 0.03
4 -0.15
5 -0.15
6 -0.15
7 0.14
8 0.14
9 -0.18

>  <PUBCHEM_EFFECTIVE_ROTOR_COUNT>  (1) 
1

>  <PUBCHEM_PHARMACOPHORE_FEATURES>  (1) 
2
1 10 hydrophobe
6 1 2 3 4 5 6 rings

>  <PUBCHEM_HEAVY_ATOM_COUNT>  (1) 
10

>  <PUBCHEM_ATOM_DEF_STEREO_COUNT>  (1) 
0

>  <PUBCHEM_ATOM_UDEF_STEREO_COUNT>  (1) 
0

>  <PUBCHEM_BOND_DEF_STEREO_COUNT>  (1) 
0

>  <PUBCHEM_BOND_UDEF_STEREO_COUNT>  (1) 
0

>  <PUBCHEM_ISOTOPIC_ATOM_COUNT>  (1) 
0

>  <PUBCHEM_COMPONENT_COUNT>  (1) 
1

>  <PUBCHEM_CACTVS_TAUTO_COUNT>  (1) 
1

>  <PUBCHEM_CONFORMER_ID>  (1) 
000053E400000001

>  <PUBCHEM_MMFF94_ENERGY>  (1) 
26.4791

>  <PUBCHEM_FEATURE_SELFOVERLAP>  (1) 
10.148

>  <PUBCHEM_SHAPE_FINGERPRINT>  (1) 
1 1 18194119848420469372
12423570 1 8315755957303084104
13380535 76 18048308148167617922
161256 15 18408038511380296725
16945 1 18338230573935432349
19021347 4 17617657000288978456
193761 8 17978228584396852590
20645477 70 18338509837853929023
20871998 184 17840577098784218206
20871998 22 18198629821821855846
21040471 1 17689715689464646820
23552423 10 18267865158621329359
241688 4 18194401082968545976
2748010 2 18267291037399903412
29004967 10 18335420166496475603
528862 383 18336256959179882858
63268167 104 18411141342047344929
7364860 26 18342459291482347212
81228 2 17762618391342809600

>  <PUBCHEM_SHAPE_MULTIPOLES>  (1) 
205.8
3.72
2.45
0.63
3.12
1.25
0
-1.23
-0.29
-2
-0.02
0.04
0
-0.07

>  <PUBCHEM_SHAPE_SELFOVERLAP>  (1) 
422.082

>  <PUBCHEM_SHAPE_VOLUME>  (1) 
112.4

>  <PUBCHEM_COORDINATE_TYPE>  (1) 
2
5
10

$$$$
