21486
     RDKit          3D

 14 15  0  0  0  0  0  0  0  0999 V2000
   -1.8892   -2.5791   -0.0754 Cl  0  0  0  0  0  0  0  0  0  0  0  0
   -0.4533   -0.0569   -0.8607 O   0  0  0  0  0  0  0  0  0  0  0  0
    2.9717    0.3936    0.4081 N   0  0  0  0  0  0  0  0  0  0  0  0
    4.2111   -0.3660    0.2398 C   0  0  0  0  0  0  0  0  0  0  0  0
    5.4879    0.1358    0.8489 C   0  0  0  0  0  0  0  0  0  0  0  0
    5.3046    0.1663   -0.6402 C   0  0  0  0  0  0  0  0  0  0  0  0
    1.8708   -0.2303   -0.2754 C   0  0  0  0  0  0  0  0  0  0  0  0
    0.5967    0.5832   -0.1391 C   0  0  0  0  0  0  0  0  0  0  0  0
   -1.7216    0.1174   -0.3923 C   0  0  0  0  0  0  0  0  0  0  0  0
   -2.5016   -0.9686    0.0057 C   0  0  0  0  0  0  0  0  0  0  0  0
   -2.2368    1.4114   -0.3156 C   0  0  0  0  0  0  0  0  0  0  0  0
   -3.7966   -0.7601    0.4804 C   0  0  0  0  0  0  0  0  0  0  0  0
   -3.5319    1.6195    0.1589 C   0  0  0  0  0  0  0  0  0  0  0  0
   -4.3118    0.5338    0.5569 C   0  0  0  0  0  0  0  0  0  0  0  0
  1 10  1  0
  2  8  1  0
  2  9  1  0
  3  4  1  0
  3  7  1  0
  4  5  1  0
  4  6  1  0
  5  6  1  0
  7  8  1  0
  9 10  2  0
  9 11  1  0
 10 12  1  0
 11 13  2  0
 12 14  2  0
 13 14  1  0
M  END
>  <PUBCHEM_COMPOUND_CID>  (1) 
21486

>  <PUBCHEM_CONFORMER_RMSD>  (1) 
0.6

>  <PUBCHEM_CONFORMER_DIVERSEORDER>  (1) 
1
72
24
129
83
62
101
120
95
66
79
104
32
117
12
63
25
68
52
121
2
28
110
114
67
84
33
56
107
111
108
128
8
113
85
35
31
59
55
86
92
102
96
94
5
93
100
134
98
74
18
80
14
75
106
40
37
131
116
97
126
130
41
122
64
127
16
6
9
36
133
53
118
43
78
88
103
61
73
54
69
124
34
125
115
51
58
26
105
50
81
99
23
39
87
57
3
89
22
42
70
45
11
77
109
30
119
38
112
29
17
48
71
10
65
21
7
132
82
27
46
91
4
90
15
13
123
49
19
47
76
60
44
20

>  <PUBCHEM_MMFF94_PARTIAL_CHARGES>  (1) 
24
1 -0.18
10 0.18
11 -0.15
12 -0.15
13 -0.15
14 -0.15
15 0.1
16 0.1
17 0.1
18 0.1
19 0.1
2 -0.36
20 0.36
25 0.15
26 0.15
27 0.15
28 0.15
3 -0.79
4 0.06
5 -0.2
6 -0.2
7 0.27
8 0.28
9 0.08

>  <PUBCHEM_EFFECTIVE_ROTOR_COUNT>  (1) 
5.6

>  <PUBCHEM_PHARMACOPHORE_FEATURES>  (1) 
4
1 2 acceptor
1 3 cation
1 3 donor
6 9 10 11 12 13 14 rings

>  <PUBCHEM_HEAVY_ATOM_COUNT>  (1) 
14

>  <PUBCHEM_ATOM_DEF_STEREO_COUNT>  (1) 
0

>  <PUBCHEM_ATOM_UDEF_STEREO_COUNT>  (1) 
0

>  <PUBCHEM_BOND_DEF_STEREO_COUNT>  (1) 
0

>  <PUBCHEM_BOND_UDEF_STEREO_COUNT>  (1) 
0

>  <PUBCHEM_ISOTOPIC_ATOM_COUNT>  (1) 
0

>  <PUBCHEM_COMPONENT_COUNT>  (1) 
1

>  <PUBCHEM_CACTVS_TAUTO_COUNT>  (1) 
1

>  <PUBCHEM_CONFORMER_ID>  (1) 
000053EE00000001

>  <PUBCHEM_MMFF94_ENERGY>  (1) 
34.8347

>  <PUBCHEM_FEATURE_SELFOVERLAP>  (1) 
20.297

>  <PUBCHEM_SHAPE_FINGERPRINT>  (1) 
10680689 15 17775001310522719476
10912923 1 17821447972015420264
12251169 10 18408605872338776181
124424 183 17632574963421943161
12500047 106 18341607109719991867
13167823 11 18040994021374982490
13675066 3 17917990603282150812
13897977 58 18334581247735659076
14123238 8 17603588525979207612
15042514 8 18265339585267023011
15375358 24 18060422395826770558
17804303 29 18412266172312281749
17834072 33 18041002877544838196
1813 80 16733273361104085342
200 152 14129059218222904853
20279233 1 17989213641665663158
20645477 56 18412265016976602725
20645477 70 16486700160898543926
20828058 44 18408319991110650546
2297311 6 18341907281000682588
23175994 123 17203332220971179441
23402539 116 18342450461694088911
23559900 14 18268983348898605297
4214541 1 18410573989752529472
57265010 4 18413108376797004507
573450 72 18260820501859946802
5924683 9 18058440066340387127
77779 3 18410012148143263636
90127 26 17775566468485054200
9971528 1 13470685945842626906

>  <PUBCHEM_SHAPE_MULTIPOLES>  (1) 
279.13
11.68
1.67
0.81
16.36
0.88
-0.02
-1.31
-2.12
-2.31
0.04
0.29
-0.02
-0.01

>  <PUBCHEM_SHAPE_SELFOVERLAP>  (1) 
559.333

>  <PUBCHEM_SHAPE_VOLUME>  (1) 
165.5

>  <PUBCHEM_COORDINATE_TYPE>  (1) 
2
5
10

$$$$
