21483
     RDKit          3D

  5  4  0  0  0  0  0  0  0  0999 V2000
    2.4131    0.1811    0.0002 O   0  0  0  0  0  0  0  0  0  0  0  0
   -2.3344    0.2139    0.0001 O   0  0  0  0  0  0  0  0  0  0  0  0
    0.0253    0.3447   -0.0003 C   0  0  0  0  0  0  0  0  0  0  0  0
    1.1569   -0.3636   -0.0002 C   0  0  0  0  0  0  0  0  0  0  0  0
   -1.2608   -0.3762    0.0001 C   0  0  0  0  0  0  0  0  0  0  0  0
  1  4  1  0
  2  5  2  0
  3  4  2  0
  3  5  1  0
M  END
>  <PUBCHEM_COMPOUND_CID>  (1) 
21483

>  <PUBCHEM_CONFORMER_RMSD>  (1) 
0.4

>  <PUBCHEM_CONFORMER_DIVERSEORDER>  (1) 
1
2

>  <PUBCHEM_MMFF94_PARTIAL_CHARGES>  (1) 
9
1 -0.53
2 -0.57
3 -0.14
4 -0.07
5 0.5
6 0.15
7 0.15
8 0.06
9 0.45

>  <PUBCHEM_EFFECTIVE_ROTOR_COUNT>  (1) 
1

>  <PUBCHEM_PHARMACOPHORE_FEATURES>  (1) 
2
1 1 donor
1 2 acceptor

>  <PUBCHEM_HEAVY_ATOM_COUNT>  (1) 
5

>  <PUBCHEM_ATOM_DEF_STEREO_COUNT>  (1) 
0

>  <PUBCHEM_ATOM_UDEF_STEREO_COUNT>  (1) 
0

>  <PUBCHEM_BOND_DEF_STEREO_COUNT>  (1) 
0

>  <PUBCHEM_BOND_UDEF_STEREO_COUNT>  (1) 
1

>  <PUBCHEM_ISOTOPIC_ATOM_COUNT>  (1) 
0

>  <PUBCHEM_COMPONENT_COUNT>  (1) 
1

>  <PUBCHEM_CACTVS_TAUTO_COUNT>  (1) 
2

>  <PUBCHEM_CONFORMER_ID>  (1) 
000053EB00000001

>  <PUBCHEM_MMFF94_ENERGY>  (1) 
3.2536

>  <PUBCHEM_FEATURE_SELFOVERLAP>  (1) 
10.148

>  <PUBCHEM_SHAPE_FINGERPRINT>  (1) 
139733 1 9295288339369430465
16714656 1 18411420609131212573
20096714 4 18411138081929822696
29004967 10 17022907834704542136
5460574 1 9295290542735113091

>  <PUBCHEM_SHAPE_MULTIPOLES>  (1) 
91.16
3.06
0.68
0.58
0.14
0.03
0
-0.17
0
-0.01
0
0
0.01
0

>  <PUBCHEM_SHAPE_SELFOVERLAP>  (1) 
162.227

>  <PUBCHEM_SHAPE_VOLUME>  (1) 
58.8

>  <PUBCHEM_COORDINATE_TYPE>  (1) 
2
5
10

$$$$
