21494
     RDKit          3D

 16 17  0  0  0  0  0  0  0  0999 V2000
   -5.1545   -1.6740   -0.0023 Cl  0  0  0  0  0  0  0  0  0  0  0  0
   -0.0040    2.5778   -0.0054 O   0  0  0  0  0  0  0  0  0  0  0  0
    1.2693    0.6374    0.0019 C   0  0  0  0  0  0  0  0  0  0  0  0
   -1.2812    0.5914    0.0008 C   0  0  0  0  0  0  0  0  0  0  0  0
   -0.0057    1.3372    0.0033 C   0  0  0  0  0  0  0  0  0  0  0  0
    3.7151   -0.7044   -0.0003 C   0  0  0  0  0  0  0  0  0  0  0  0
    1.8811    0.3051   -1.2066 C   0  0  0  0  0  0  0  0  0  0  0  0
    1.8802    0.2990    1.2094 C   0  0  0  0  0  0  0  0  0  0  0  0
    3.1040   -0.3659   -1.2077 C   0  0  0  0  0  0  0  0  0  0  0  0
    3.1032   -0.3720    1.2083 C   0  0  0  0  0  0  0  0  0  0  0  0
   -1.2532   -0.7915   -0.0029 C   0  0  0  0  0  0  0  0  0  0  0  0
   -2.4731    1.2939    0.0040 C   0  0  0  0  0  0  0  0  0  0  0  0
    5.0224   -1.4226   -0.0018 C   0  0  0  0  0  0  0  0  0  0  0  0
   -2.4571   -1.4958   -0.0036 C   0  0  0  0  0  0  0  0  0  0  0  0
   -3.6772    0.5897    0.0034 C   0  0  0  0  0  0  0  0  0  0  0  0
   -3.6692   -0.8053   -0.0004 C   0  0  0  0  0  0  0  0  0  0  0  0
  1 16  1  0
  2  5  2  0
  3  5  1  0
  3  7  2  0
  3  8  1  0
  4  5  1  0
  4 11  2  0
  4 12  1  0
  6  9  2  0
  6 10  1  0
  6 13  1  0
  7  9  1  0
  8 10  2  0
 11 14  1  0
 12 15  2  0
 14 16  2  0
 15 16  1  0
M  END
>  <PUBCHEM_COMPOUND_CID>  (1) 
21494

>  <PUBCHEM_CONFORMER_RMSD>  (1) 
0.6

>  <PUBCHEM_CONFORMER_DIVERSEORDER>  (1) 
1
3
2

>  <PUBCHEM_MMFF94_PARTIAL_CHARGES>  (1) 
24
1 -0.18
10 -0.15
11 -0.15
12 -0.15
13 0.14
14 -0.15
15 -0.15
16 0.18
17 0.15
18 0.15
19 0.15
2 -0.57
20 0.15
21 0.15
22 0.15
26 0.15
27 0.15
3 0.09
4 0.09
5 0.4
6 -0.14
7 -0.15
8 -0.15
9 -0.15

>  <PUBCHEM_EFFECTIVE_ROTOR_COUNT>  (1) 
2

>  <PUBCHEM_PHARMACOPHORE_FEATURES>  (1) 
3
1 2 acceptor
6 3 6 7 8 9 10 rings
6 4 11 12 14 15 16 rings

>  <PUBCHEM_HEAVY_ATOM_COUNT>  (1) 
16

>  <PUBCHEM_ATOM_DEF_STEREO_COUNT>  (1) 
0

>  <PUBCHEM_ATOM_UDEF_STEREO_COUNT>  (1) 
0

>  <PUBCHEM_BOND_DEF_STEREO_COUNT>  (1) 
0

>  <PUBCHEM_BOND_UDEF_STEREO_COUNT>  (1) 
0

>  <PUBCHEM_ISOTOPIC_ATOM_COUNT>  (1) 
0

>  <PUBCHEM_COMPONENT_COUNT>  (1) 
1

>  <PUBCHEM_CACTVS_TAUTO_COUNT>  (1) 
1

>  <PUBCHEM_CONFORMER_ID>  (1) 
000053F600000001

>  <PUBCHEM_MMFF94_ENERGY>  (1) 
50.6501

>  <PUBCHEM_FEATURE_SELFOVERLAP>  (1) 
15.223

>  <PUBCHEM_SHAPE_FINGERPRINT>  (1) 
10618630 7 18410856551260864638
10751810 167 18040720264106115399
11046707 91 18409166584535017354
11471102 22 16415477121671168184
11543360 7 15574715845866307491
11578080 2 17460285872649369724
11796584 16 18124595284856017830
12032990 46 18412545418348496473
12236239 1 17821730507542987478
12251169 10 15195564610913685692
12346177 29 18271796918050469229
12363563 72 18412268358608741623
12507560 40 17988916799280338096
12633257 1 16271921640511146342
13288520 33 18411139091611166678
13296908 3 18413103982903113672
13583140 156 14548727396761443711
13675066 3 17418098728419561753
13690532 89 18410292540819903207
13760787 5 17894921741108522245
13862211 1 18340768243432829839
14115302 16 17676490596107274843
14178342 30 17987813907940320897
14252887 29 18201721786042056890
14386348 63 17988645172832357566
14576447 43 17748825203083474786
15188451 53 17274814814311422383
15196674 1 18410855473218811495
15848700 24 18342170098560058695
15885798 251 18413110584805865905
16752209 62 18260535719953531931
17804303 29 18342739619924349057
1798214 20 17821442460965861018
18186145 218 12324239421397208444
18915474 69 18113904874689862798
19049666 15 17344356540311967548
19141452 34 17917992823902017271
193927 3 18334305278954631059
19422 9 18186809083901209717
19862831 5 17458065958360801850
200 152 17023188189095741036
20279233 1 17632296752614966358
20281475 54 18411423890544424224
20374829 77 18411417284826759182
20645477 70 18192145117464026631
20871999 31 18187363207770788365
21267235 1 18409175410767111963
21501925 9 18342452690154614505
22646028 28 18333731320809931042
232386 152 18408886256372616724
23402539 116 18339074900113062732
23402655 69 13551187779690106222
23559900 14 18341045221393619464
23598291 2 17894643534180249580
25 1 13045941279068895396
26918003 58 16917066650897708123
3060560 45 15430034379232237786
312423 11 18261968443681591373
42 15 18131353016189657851
449060 62 8502390926978731207
465052 167 18265343974660237395
474 4 17024885989784343500
5104073 3 18271533091136550385
559249 180 18187921712396388243
7364860 26 18126005111617433297
76465 3 18271238434821208039
77492 1 17676492696478118856
81228 2 18056775238168945120
9709674 26 18193273229157811419

>  <PUBCHEM_SHAPE_MULTIPOLES>  (1) 
325.27
9.36
1.8
0.98
1.24
0.46
0
-6
0
0.94
0
-0.92
-0.02
0

>  <PUBCHEM_SHAPE_SELFOVERLAP>  (1) 
695.602

>  <PUBCHEM_SHAPE_VOLUME>  (1) 
181.8

>  <PUBCHEM_COORDINATE_TYPE>  (1) 
2
5
10

$$$$
