21498
     RDKit          3D

 11 11  0  0  0  0  0  0  0  0999 V2000
   -0.2830   -1.0448    0.0010 N   0  0  0  0  0  0  0  0  0  0  0  0
    0.1740    1.3109    0.0011 N   0  0  0  0  0  0  0  0  0  0  0  0
    1.9854   -0.2627    0.0003 N   0  0  0  0  0  0  0  0  0  0  0  0
    1.5077   -2.5587   -0.0015 N   0  0  0  0  0  0  0  0  0  0  0  0
    2.4009    2.0452   -0.0012 N   0  0  0  0  0  0  0  0  0  0  0  0
   -2.1101    0.5319   -0.0001 C   0  0  0  0  0  0  0  0  0  0  0  0
   -0.6205    0.2428    0.0013 C   0  0  0  0  0  0  0  0  0  0  0  0
   -2.7900   -0.0109    1.2593 C   0  0  0  0  0  0  0  0  0  0  0  0
   -2.7874   -0.0092   -1.2617 C   0  0  0  0  0  0  0  0  0  0  0  0
    1.0477   -1.2238    0.0007 C   0  0  0  0  0  0  0  0  0  0  0  0
    1.4752    0.9793    0.0008 C   0  0  0  0  0  0  0  0  0  0  0  0
  1  7  2  0
  1 10  1  0
  2  7  1  0
  2 11  2  0
  3 10  2  0
  3 11  1  0
  4 10  1  0
  5 11  1  0
  6  7  1  0
  6  8  1  0
  6  9  1  0
M  END
>  <PUBCHEM_COMPOUND_CID>  (1) 
21498

>  <PUBCHEM_CONFORMER_RMSD>  (1) 
0.4

>  <PUBCHEM_CONFORMER_DIVERSEORDER>  (1) 
1
2
3

>  <PUBCHEM_MMFF94_PARTIAL_CHARGES>  (1) 
13
1 -0.62
10 0.72
11 0.72
19 0.4
2 -0.62
20 0.4
21 0.4
22 0.4
3 -0.62
4 -0.9
5 -0.9
6 0.14
7 0.48

>  <PUBCHEM_EFFECTIVE_ROTOR_COUNT>  (1) 
1

>  <PUBCHEM_PHARMACOPHORE_FEATURES>  (1) 
6
1 4 donor
1 5 donor
3 6 8 9 hydrophobe
4 1 3 4 10 cation
4 2 3 5 11 cation
6 1 2 3 7 10 11 rings

>  <PUBCHEM_HEAVY_ATOM_COUNT>  (1) 
11

>  <PUBCHEM_ATOM_DEF_STEREO_COUNT>  (1) 
0

>  <PUBCHEM_ATOM_UDEF_STEREO_COUNT>  (1) 
0

>  <PUBCHEM_BOND_DEF_STEREO_COUNT>  (1) 
0

>  <PUBCHEM_BOND_UDEF_STEREO_COUNT>  (1) 
0

>  <PUBCHEM_ISOTOPIC_ATOM_COUNT>  (1) 
0

>  <PUBCHEM_COMPONENT_COUNT>  (1) 
1

>  <PUBCHEM_CACTVS_TAUTO_COUNT>  (1) 
10

>  <PUBCHEM_CONFORMER_ID>  (1) 
000053FA00000001

>  <PUBCHEM_MMFF94_ENERGY>  (1) 
28.3888

>  <PUBCHEM_FEATURE_SELFOVERLAP>  (1) 
30.489

>  <PUBCHEM_SHAPE_FINGERPRINT>  (1) 
1 1 18409730698640847444
10857977 72 17168435955768376769
12932741 1 17749109950682599575
12932764 1 17704070698845004321
16945 1 18410856533959689062
18380122 1 17896049882940775249
20711985 344 17183054744253790106
21040471 1 18122626312701307936
23211744 41 17749386022353179153
23552423 10 18341327812486723359
241688 4 17689996739392284018
2748010 2 18193283107413533702
29004967 10 18334863762109967803
5084963 1 18130776859016518497
81228 2 17112691489207639842

>  <PUBCHEM_SHAPE_MULTIPOLES>  (1) 
201.47
3.91
1.92
0.9
1.77
0.59
0
-0.58
0
-1.95
0
0.91
0.01
0

>  <PUBCHEM_SHAPE_SELFOVERLAP>  (1) 
408.825

>  <PUBCHEM_SHAPE_VOLUME>  (1) 
110.2

>  <PUBCHEM_COORDINATE_TYPE>  (1) 
2
5
10

$$$$
