21500
     RDKit          3D

 29 31  0  0  1  0  0  0  0  0999 V2000
   -1.4136   -1.1998   -0.6501 O   0  0  0  0  0  0  0  0  0  0  0  0
   -3.0519    1.2634    1.5062 O   0  0  0  0  0  0  0  0  0  0  0  0
   -3.8229    1.2811   -1.2618 O   0  0  0  0  0  0  0  0  0  0  0  0
   -5.7492   -0.8546    0.9921 O   0  0  0  0  0  0  0  0  0  0  0  0
   -6.5685   -0.7969   -1.6983 O   0  0  0  0  0  0  0  0  0  0  0  0
    4.6613   -2.6293   -1.0246 O   0  0  0  0  0  0  0  0  0  0  0  0
    0.9580   -4.8095    0.6046 O   0  0  0  0  0  0  0  0  0  0  0  0
    0.8495   -0.1475    0.6540 N   0  0  0  0  0  0  0  0  0  0  0  0
    3.4551   -0.2761   -0.4913 N   0  0  0  0  0  0  0  0  0  0  0  0
    0.9060   -2.5342    0.6280 N   0  0  0  0  0  0  0  0  0  0  0  0
    2.7955   -3.7526   -0.2038 N   0  0  0  0  0  0  0  0  0  0  0  0
   -1.5266   -0.0066    0.1227 C   0  0  0  0  0  0  0  0  0  0  0  0
   -2.9596    0.0987    0.6879 C   0  0  0  0  0  0  0  0  0  0  0  0
   -0.4711   -0.0453    1.2343 C   0  0  0  0  0  0  0  0  0  0  0  0
   -4.0532    0.1644   -0.4048 C   0  0  0  0  0  0  0  0  0  0  0  0
   -5.4806    0.2816    0.1731 C   0  0  0  0  0  0  0  0  0  0  0  0
    1.5536    1.0465    0.3464 C   0  0  0  0  0  0  0  0  0  0  0  0
    1.4545   -1.3798    0.3877 C   0  0  0  0  0  0  0  0  0  0  0  0
    2.8416    0.9570   -0.2200 C   0  0  0  0  0  0  0  0  0  0  0  0
   -6.5664    0.3749   -0.8993 C   0  0  0  0  0  0  0  0  0  0  0  0
    1.0253    2.3301    0.5804 C   0  0  0  0  0  0  0  0  0  0  0  0
    2.8312   -1.3757   -0.2179 C   0  0  0  0  0  0  0  0  0  0  0  0
    1.7480    3.4833    0.2638 C   0  0  0  0  0  0  0  0  0  0  0  0
    3.5589    2.1214   -0.5344 C   0  0  0  0  0  0  0  0  0  0  0  0
    3.0152    3.3794   -0.2939 C   0  0  0  0  0  0  0  0  0  0  0  0
    3.5457   -2.6489   -0.5337 C   0  0  0  0  0  0  0  0  0  0  0  0
    1.1361    4.8190    0.5349 C   0  0  0  0  0  0  0  0  0  0  0  0
    3.8095    4.5951   -0.6401 C   0  0  0  0  0  0  0  0  0  0  0  0
    1.5184   -3.7392    0.3578 C   0  0  0  0  0  0  0  0  0  0  0  0
  1 12  1  0
  2 13  1  0
  3 15  1  0
  4 16  1  0
  5 20  1  0
  6 26  2  0
  7 29  2  0
  8 14  1  0
  8 17  1  0
  8 18  1  0
  9 19  1  0
  9 22  2  0
 10 18  2  0
 10 29  1  0
 11 26  1  0
 11 29  1  0
 12 13  1  0
 12 14  1  0
 13 15  1  0
 15 16  1  0
 16 20  1  0
 17 19  2  0
 17 21  1  0
 18 22  1  0
 19 24  1  0
 21 23  2  0
 22 26  1  0
 23 25  1  0
 23 27  1  0
 24 25  2  0
 25 28  1  0
M  END
>  <PUBCHEM_COMPOUND_CID>  (1) 
21500

>  <PUBCHEM_CONFORMER_RMSD>  (1) 
0.8

>  <PUBCHEM_CONFORMER_DIVERSEORDER>  (1) 
1
94
115
36
85
113
91
110
51
50
53
124
111
29
77
35
120
34
10
116
56
105
84
16
101
52
125
8
6
121
48
64
100
93
128
39
55
104
99
18
40
102
28
20
61
90
69
11
117
82
107
127
54
44
80
37
75
41
60
83
109
73
17
22
92
46
67
19
72
47
15
58
49
123
32
26
66
81
57
12
4
21
3
106
38
43
108
31
97
27
62
87
70
95
119
98
30
33
89
68
24
112
74
76
9
118
25
5
63
86
42
78
65
71
7
126
23
79
2
59
122
88
14
45
96
103
13
114

>  <PUBCHEM_MMFF94_PARTIAL_CHARGES>  (1) 
37
1 -0.68
10 -0.66
11 -0.49
12 0.28
13 0.28
14 0.37
15 0.28
16 0.28
17 0.1
18 0.5
19 0.18
2 -0.68
20 0.28
21 -0.15
22 0.45
23 -0.14
24 -0.15
25 -0.14
26 0.63
27 0.14
28 0.14
29 0.84
3 -0.68
38 0.15
39 0.4
4 -0.68
40 0.4
41 0.15
42 0.4
43 0.4
5 -0.68
50 0.37
51 0.4
6 -0.57
7 -0.57
8 -0.52
9 -0.63

>  <PUBCHEM_EFFECTIVE_ROTOR_COUNT>  (1) 
6

>  <PUBCHEM_PHARMACOPHORE_FEATURES>  (1) 
18
1 1 acceptor
1 1 donor
1 10 donor
1 11 donor
1 2 acceptor
1 2 donor
1 3 acceptor
1 3 donor
1 4 acceptor
1 4 donor
1 5 acceptor
1 5 donor
1 6 acceptor
1 7 acceptor
1 9 acceptor
6 10 11 18 22 26 29 rings
6 17 19 21 23 24 25 rings
6 8 9 17 18 19 22 rings

>  <PUBCHEM_HEAVY_ATOM_COUNT>  (1) 
29

>  <PUBCHEM_ATOM_DEF_STEREO_COUNT>  (1) 
0

>  <PUBCHEM_ATOM_UDEF_STEREO_COUNT>  (1) 
4

>  <PUBCHEM_BOND_DEF_STEREO_COUNT>  (1) 
0

>  <PUBCHEM_BOND_UDEF_STEREO_COUNT>  (1) 
0

>  <PUBCHEM_ISOTOPIC_ATOM_COUNT>  (1) 
0

>  <PUBCHEM_COMPONENT_COUNT>  (1) 
1

>  <PUBCHEM_CACTVS_TAUTO_COUNT>  (1) 
3

>  <PUBCHEM_CONFORMER_ID>  (1) 
000053FC00000001

>  <PUBCHEM_MMFF94_ENERGY>  (1) 
85.8121

>  <PUBCHEM_FEATURE_SELFOVERLAP>  (1) 
91.475

>  <PUBCHEM_SHAPE_FINGERPRINT>  (1) 
10411042 1 18194405477074049986
10675989 125 18340491156989913144
10693767 8 18130516232407617294
10930396 42 18266153095581624690
1100329 8 18338523053647049002
11135609 149 18122880076290556070
12107183 9 17983587299777113769
12553582 1 18121791525688591482
12730499 353 18263651817289631233
12769317 202 18339358690119921969
12788726 201 17252309708953813946
13009979 54 17702393844464284817
13692114 37 17765699605096741074
138480 1 18338521824674680520
13911987 19 18117585988681800318
15439362 3 18338801238368256756
15950262 2 15287360715525210958
16087824 20 17400935093553915489
16728300 4 17389910450419111074
17844677 252 18339929221497235373
1813 80 17986961738809919982
18681886 176 18341888550511726290
19319366 153 18271239546932543589
19427546 62 18264489661955117683
20642791 105 17692246757206420528
21133410 171 17031592692871028931
21304303 282 17050455235588160016
22033318 11 17698192577135268321
221357 26 18335699378437040493
23522609 53 17845393149636814057
23559900 14 18408601453339921659
23845131 108 18120649399083652075
24771293 8 18272369725249325154
25147074 1 17917441878513862561
283562 15 18049172064662048778
3886686 26 17908960435038664928
4015057 19 18335990779230904619
46194498 28 18334007290071176205
474 4 18339080505019289561
5309563 4 18196089949829681719
6004065 56 18410853257390545186
6025842 7 18410853291480894343
6443956 14 18337113354674518228
6669772 16 18268998751052145172
7164475 11 17616819834223367930
9777508 108 17547571943033567208

>  <PUBCHEM_SHAPE_MULTIPOLES>  (1) 
535.8
11.47
6.16
1.08
25.23
0.36
-0.05
-1.98
-4.43
-10.88
0.2
0.99
-0.06
0.14

>  <PUBCHEM_SHAPE_SELFOVERLAP>  (1) 
1143.903

>  <PUBCHEM_SHAPE_VOLUME>  (1) 
293.4

>  <PUBCHEM_COORDINATE_TYPE>  (1) 
2
5
10

$$$$
