21507
     RDKit          3D

  9  9  0  0  0  0  0  0  0  0999 V2000
    1.3743   -0.2933    0.0000 N   0  0  0  0  0  0  0  0  0  0  0  0
    0.8690   -2.6214   -0.0001 N   0  0  0  0  0  0  0  0  0  0  0  0
   -1.3611    0.2819    0.0000 C   0  0  0  0  0  0  0  0  0  0  0  0
    0.9133    0.9775    0.0000 C   0  0  0  0  0  0  0  0  0  0  0  0
   -0.4304    1.3151   -0.0001 C   0  0  0  0  0  0  0  0  0  0  0  0
   -0.9256   -1.0385    0.0002 C   0  0  0  0  0  0  0  0  0  0  0  0
    0.4404   -1.2708    0.0000 C   0  0  0  0  0  0  0  0  0  0  0  0
   -2.8199    0.5890    0.0000 C   0  0  0  0  0  0  0  0  0  0  0  0
    1.9400    2.0605    0.0000 C   0  0  0  0  0  0  0  0  0  0  0  0
  1  4  2  0
  1  7  1  0
  2  7  1  0
  3  5  2  0
  3  6  1  0
  3  8  1  0
  4  5  1  0
  4  9  1  0
  6  7  2  0
M  END
>  <PUBCHEM_COMPOUND_CID>  (1) 
21507

>  <PUBCHEM_CONFORMER_RMSD>  (1) 
0.4

>  <PUBCHEM_CONFORMER_DIVERSEORDER>  (1) 
1

>  <PUBCHEM_MMFF94_PARTIAL_CHARGES>  (1) 
13
1 -0.62
10 0.15
11 0.15
18 0.4
19 0.4
2 -0.9
3 -0.14
4 0.17
5 -0.15
6 -0.15
7 0.41
8 0.14
9 0.14

>  <PUBCHEM_EFFECTIVE_ROTOR_COUNT>  (1) 
0

>  <PUBCHEM_PHARMACOPHORE_FEATURES>  (1) 
4
1 1 acceptor
1 2 cation
1 2 donor
6 1 3 4 5 6 7 rings

>  <PUBCHEM_HEAVY_ATOM_COUNT>  (1) 
9

>  <PUBCHEM_ATOM_DEF_STEREO_COUNT>  (1) 
0

>  <PUBCHEM_ATOM_UDEF_STEREO_COUNT>  (1) 
0

>  <PUBCHEM_BOND_DEF_STEREO_COUNT>  (1) 
0

>  <PUBCHEM_BOND_UDEF_STEREO_COUNT>  (1) 
0

>  <PUBCHEM_ISOTOPIC_ATOM_COUNT>  (1) 
0

>  <PUBCHEM_COMPONENT_COUNT>  (1) 
1

>  <PUBCHEM_CACTVS_TAUTO_COUNT>  (1) 
2

>  <PUBCHEM_CONFORMER_ID>  (1) 
0000540300000001

>  <PUBCHEM_MMFF94_ENERGY>  (1) 
27.0863

>  <PUBCHEM_FEATURE_SELFOVERLAP>  (1) 
20.297

>  <PUBCHEM_SHAPE_FINGERPRINT>  (1) 
16945 1 18338798909936156805
18185500 45 17907017279188448259
20871998 184 17191237833926430276
21040471 1 18194682798326521604
23552423 10 18411419471307776981
23552449 1 17114662376469143116
241688 4 17546165203567238297
2748010 2 18265339580148421357
29004967 10 18192152598948727851

>  <PUBCHEM_SHAPE_MULTIPOLES>  (1) 
175.25
2.69
2.37
0.6
0.18
1.62
0
-1.86
0
-0.23
0
0.01
-0.03
0

>  <PUBCHEM_SHAPE_SELFOVERLAP>  (1) 
359.03

>  <PUBCHEM_SHAPE_VOLUME>  (1) 
101.3

>  <PUBCHEM_COORDINATE_TYPE>  (1) 
2
5
10

$$$$
