21503
     RDKit          3D

 16 15  0  0  0  0  0  0  0  0999 V2000
    0.8136    0.9212   -0.1047 O   0  0  0  0  0  0  0  0  0  0  0  0
   -1.3451    1.8771   -0.1960 O   0  0  0  0  0  0  0  0  0  0  0  0
    4.4140   -0.0869    0.2659 C   0  0  0  0  0  0  0  0  0  0  0  0
   -4.1281   -0.5942    0.3212 C   0  0  0  0  0  0  0  0  0  0  0  0
    2.9472   -0.1668   -0.1539 C   0  0  0  0  0  0  0  0  0  0  0  0
   -3.3896    0.6284   -0.2211 C   0  0  0  0  0  0  0  0  0  0  0  0
    5.2463   -1.2857   -0.1980 C   0  0  0  0  0  0  0  0  0  0  0  0
   -5.5481   -0.7431   -0.2325 C   0  0  0  0  0  0  0  0  0  0  0  0
    2.1683    1.0606    0.3006 C   0  0  0  0  0  0  0  0  0  0  0  0
   -1.9731    0.7160    0.3315 C   0  0  0  0  0  0  0  0  0  0  0  0
    6.7088   -1.2176    0.2433 C   0  0  0  0  0  0  0  0  0  0  0  0
   -6.2958   -1.9529    0.3293 C   0  0  0  0  0  0  0  0  0  0  0  0
   -0.0013    2.0314    0.2793 C   0  0  0  0  0  0  0  0  0  0  0  0
    7.5075   -2.3918   -0.3024 C   0  0  0  0  0  0  0  0  0  0  0  0
   -7.6711   -2.0976   -0.3046 C   0  0  0  0  0  0  0  0  0  0  0  0
    0.5467    3.3019   -0.3580 C   0  0  0  0  0  0  0  0  0  0  0  0
  1  9  1  0
  1 13  1  0
  2 10  1  0
  2 13  1  0
  3  5  1  0
  3  7  1  0
  4  6  1  0
  4  8  1  0
  5  9  1  0
  6 10  1  0
  7 11  1  0
  8 12  1  0
 11 14  1  0
 12 15  1  0
 13 16  1  0
M  END
>  <PUBCHEM_COMPOUND_CID>  (1) 
21503

>  <PUBCHEM_CONFORMER_RMSD>  (1) 
1

>  <PUBCHEM_CONFORMER_DIVERSEORDER>  (1) 
1
258
282
327
10
335
125
324
302
296
390
161
318
64
203
410
232
212
85
287
187
12
364
299
243
5
407
146
348
389
375
384
14
182
50
205
371
332
290
395
374
349
4
406
37
317
201
34
42
428
340
404
425
278
413
174
288
283
257
43
309
178
357
103
196
8
36
198
2
79
90
170
319
217
75
185
148
300
291
376
391
356
359
339
358
224
412
422
152
66
16
23
173
336
362
215
209
7
78
219
223
116
6
365
323
259
117
108
163
383
313
80
39
225
194
311
191
279
351
338
421
305
392
30
176
423
141
134
164
277
153
233
93
343
399
61
276
237
222
341
408
76
420
154
361
208
129
210
321
9
100
254
74
333
29
249
97
270
388
308
310
18
230
71
244
177
402
306
221
252
111
165
200
220
169
264
72
190
137
110
234
326
107
275
266
312
114
105
373
15
118
424
127
416
334
298
272
31
131
189
285
378
328
46
255
159
101
204
3
35
121
112
314
162
262
155
240
57
94
354
377
17
48
415
245
60
330
322
38
417
51
238
54
120
149
379
83
195
246
69
82
33
265
342
316
202
242
20
293
226
109
284
45
261
370
398
88
206
405
347
345
65
126
320
281
102
184
98
273
304
344
24
271
303
268
350
68
151
56
315
292
368
106
426
124
231
186
136
393
140
260
166
21
28
158
382
213
145
253
92
207
135
123
104
49
147
87
346
32
331
11
396
128
409
144
197
369
228
130
394
352
267
183
143
419
235
229
247
211
353
53
216
256
297
387
113
86
380
236
133
81
294
329
295
139
13
274
67
115
307
397
181
52
171
77
157
250
44
325
156
91
239
119
62
414
280
193
160
214
301
386
172
366
411
188
418
99
179
167
138
27
41
241
199
19
401
89
403
367
427
175
47
95
63
73
248
96
26
40
360
150
142
25
22
59
269
192
263
227
385
381
286
251
84
168
363
289
180
132
58
55
122
355
372
218
70
337
400

>  <PUBCHEM_MMFF94_PARTIAL_CHARGES>  (1) 
5
1 -0.56
10 0.28
13 0.56
2 -0.56
9 0.28

>  <PUBCHEM_EFFECTIVE_ROTOR_COUNT>  (1) 
12

>  <PUBCHEM_PHARMACOPHORE_FEATURES>  (1) 
6
1 1 acceptor
1 14 hydrophobe
1 15 hydrophobe
1 2 acceptor
4 3 5 7 11 hydrophobe
4 4 6 8 12 hydrophobe

>  <PUBCHEM_HEAVY_ATOM_COUNT>  (1) 
16

>  <PUBCHEM_ATOM_DEF_STEREO_COUNT>  (1) 
0

>  <PUBCHEM_ATOM_UDEF_STEREO_COUNT>  (1) 
0

>  <PUBCHEM_BOND_DEF_STEREO_COUNT>  (1) 
0

>  <PUBCHEM_BOND_UDEF_STEREO_COUNT>  (1) 
0

>  <PUBCHEM_ISOTOPIC_ATOM_COUNT>  (1) 
0

>  <PUBCHEM_COMPONENT_COUNT>  (1) 
1

>  <PUBCHEM_CACTVS_TAUTO_COUNT>  (1) 
1

>  <PUBCHEM_CONFORMER_ID>  (1) 
000053FF00000001

>  <PUBCHEM_MMFF94_ENERGY>  (1) 
9.6644

>  <PUBCHEM_FEATURE_SELFOVERLAP>  (1) 
30.486

>  <PUBCHEM_SHAPE_FINGERPRINT>  (1) 
10753850 27 18408600370475107659
117890 112 9007046969019293370
13533116 47 18199187472365798489
13668630 136 18334292067461148546
13685833 64 18412544327173667258
13862211 1 18410577283728772866
13955234 65 17981607379629934369
14123256 34 18408324393204482107
14931854 50 17603862278220189923
18335252 98 18343300367419397058
19784866 240 18409733989023892793
20281389 69 10807934856118641354
20526848 3 9079117764995814147
20621476 38 18339079410778633315
20645477 70 18189893296333890337
21054139 6 17968661506807706074
21095086 4 17845103861830125910
21267235 1 18410858763047891115
21307412 95 17822573910857095995
21426921 1 18192431858182055068
21585483 132 17461147765771054058
22288116 15 13262692477661273211
22896161 15 18410856543620398336
23402539 116 18189054201431863980
28498 318 18409444813656026239
293599 30 9367341535788264648
3004659 81 17967530185749698280
3014063 24 18272086119504903895
351380 3 18411134744888095707
3627633 1 18338517417770222772
465052 167 18343024423157745045
543368 44 7925641003687304607
559249 180 18413671306161604579
5718773 13 18411135839894012931
59682541 35 18272640274098143434
6138700 20 18408322190371828747
636775 8 18270409287680767294
77188 2 18411419539675047016

>  <PUBCHEM_SHAPE_MULTIPOLES>  (1) 
317.53
21.7
3.08
0.68
0.67
1.4
-0.01
-27.65
0.95
-0.25
0.32
0.04
-0.01
0.26

>  <PUBCHEM_SHAPE_SELFOVERLAP>  (1) 
569.998

>  <PUBCHEM_SHAPE_VOLUME>  (1) 
205.4

>  <PUBCHEM_COORDINATE_TYPE>  (1) 
2
5
10

$$$$
