21504
     RDKit          3D

 11 12  0  0  0  0  0  0  0  0999 V2000
   -1.5595    1.5492    0.0001 S   0  0  0  0  0  0  0  0  0  0  0  0
   -1.7057   -1.0259    0.0002 N   0  0  0  0  0  0  0  0  0  0  0  0
    3.6231    0.6948    0.0000 N   0  0  0  0  0  0  0  0  0  0  0  0
   -3.7829    0.0980   -0.0004 N   0  0  0  0  0  0  0  0  0  0  0  0
   -0.0765    0.6696    0.0000 C   0  0  0  0  0  0  0  0  0  0  0  0
   -0.3573   -0.7001    0.0000 C   0  0  0  0  0  0  0  0  0  0  0  0
    1.2405    1.1565    0.0000 C   0  0  0  0  0  0  0  0  0  0  0  0
    2.2883    0.2322    0.0000 C   0  0  0  0  0  0  0  0  0  0  0  0
    0.7200   -1.6126   -0.0001 C   0  0  0  0  0  0  0  0  0  0  0  0
    2.0336   -1.1348   -0.0001 C   0  0  0  0  0  0  0  0  0  0  0  0
   -2.4236    0.0731    0.0003 C   0  0  0  0  0  0  0  0  0  0  0  0
  1  5  1  0
  1 11  1  0
  2  6  1  0
  2 11  2  0
  3  8  1  0
  4 11  1  0
  5  6  2  0
  5  7  1  0
  6  9  1  0
  7  8  2  0
  8 10  1  0
  9 10  2  0
M  END
>  <PUBCHEM_COMPOUND_CID>  (1) 
21504

>  <PUBCHEM_CONFORMER_RMSD>  (1) 
0.4

>  <PUBCHEM_CONFORMER_DIVERSEORDER>  (1) 
1

>  <PUBCHEM_MMFF94_PARTIAL_CHARGES>  (1) 
18
1 -0.08
10 -0.15
11 0.46
12 0.15
13 0.15
14 0.15
15 0.4
16 0.4
17 0.4
18 0.4
2 -0.57
3 -0.9
4 -0.88
5 0.04
6 0.23
7 -0.15
8 0.1
9 -0.15

>  <PUBCHEM_EFFECTIVE_ROTOR_COUNT>  (1) 
0

>  <PUBCHEM_PHARMACOPHORE_FEATURES>  (1) 
6
1 3 cation
1 3 donor
1 4 donor
3 2 4 11 cation
5 1 2 5 6 11 rings
6 5 6 7 8 9 10 rings

>  <PUBCHEM_HEAVY_ATOM_COUNT>  (1) 
11

>  <PUBCHEM_ATOM_DEF_STEREO_COUNT>  (1) 
0

>  <PUBCHEM_ATOM_UDEF_STEREO_COUNT>  (1) 
0

>  <PUBCHEM_BOND_DEF_STEREO_COUNT>  (1) 
0

>  <PUBCHEM_BOND_UDEF_STEREO_COUNT>  (1) 
0

>  <PUBCHEM_ISOTOPIC_ATOM_COUNT>  (1) 
0

>  <PUBCHEM_COMPONENT_COUNT>  (1) 
1

>  <PUBCHEM_CACTVS_TAUTO_COUNT>  (1) 
2

>  <PUBCHEM_CONFORMER_ID>  (1) 
0000540000000001

>  <PUBCHEM_MMFF94_ENERGY>  (1) 
31.805

>  <PUBCHEM_FEATURE_SELFOVERLAP>  (1) 
30.517

>  <PUBCHEM_SHAPE_FINGERPRINT>  (1) 
10219947 1 18333452044877438485
11471102 20 18410569557499183005
12897270 3 18411138038922049589
12932764 1 17059761252601660113
13380535 76 18409729573201588906
14325111 11 18410855421505351489
15775835 57 18343585156897491725
16945 1 18410575097547993797
17844478 74 18113909234361204081
193761 8 17834395618531949828
19973954 147 18195247719664514141
20201158 50 18408885135481188779
20645477 70 18339355246125661575
21040471 1 18410856602911371810
21501502 16 18266458698354819953
23235685 24 18409442609277474092
23402655 69 18341319004152637693
23463225 33 18334572400472040994
23552423 10 18190464856952844106
2748010 2 18194119612139096396
369184 2 18334856086971767683
5084963 1 18271807895380274609
528886 8 18411414042115745442
53812653 166 18271519888122414232
63268167 104 18412547574184734953
7364860 26 18270962315600240806

>  <PUBCHEM_SHAPE_MULTIPOLES>  (1) 
215.28
4.75
1.57
0.6
0.73
0.06
0
-0.6
0
-0.2
0
0
-0.02
0

>  <PUBCHEM_SHAPE_SELFOVERLAP>  (1) 
457.784

>  <PUBCHEM_SHAPE_VOLUME>  (1) 
122.3

>  <PUBCHEM_COORDINATE_TYPE>  (1) 
2
5
10

$$$$
