21505
     RDKit          3D

 15 15  0  0  0  0  0  0  0  0999 V2000
    1.5963   -0.5620    0.0013 O   0  0  0  0  0  0  0  0  0  0  0  0
    4.9073    0.5560   -0.0082 O   0  0  0  0  0  0  0  0  0  0  0  0
    4.0453   -1.4676   -0.0101 O   0  0  0  0  0  0  0  0  0  0  0  0
   -4.3068    1.4401   -0.0160 O   0  0  0  0  0  0  0  0  0  0  0  0
   -1.8873    0.1397    0.0013 N   0  0  0  0  0  0  0  0  0  0  0  0
    3.8997   -0.2101   -0.0063 N   0  0  0  0  0  0  0  0  0  0  0  0
   -3.0641   -0.5210    0.0030 N   0  0  0  0  0  0  0  0  0  0  0  0
   -5.3580   -0.6016   -0.0004 N   0  0  0  0  0  0  0  0  0  0  0  0
    0.4822    0.1797    0.0078 C   0  0  0  0  0  0  0  0  0  0  0  0
   -0.7879   -0.5563    0.0099 C   0  0  0  0  0  0  0  0  0  0  0  0
    0.7149    1.5056    0.0114 C   0  0  0  0  0  0  0  0  0  0  0  0
    2.6152    0.3369    0.0009 C   0  0  0  0  0  0  0  0  0  0  0  0
    2.1254    1.6222    0.0069 C   0  0  0  0  0  0  0  0  0  0  0  0
   -0.7423   -2.0735    0.0047 C   0  0  0  0  0  0  0  0  0  0  0  0
   -4.2398    0.2118   -0.0062 C   0  0  0  0  0  0  0  0  0  0  0  0
  1  9  1  0
  1 12  1  0
  2  6  1  0
  3  6  2  0
  4 15  2  0
  5  7  1  0
  5 10  2  0
  6 12  1  0
  7 15  1  0
  8 15  1  0
  9 10  1  0
  9 11  2  0
 10 14  1  0
 11 13  1  0
 12 13  2  0
M  CHG  2   2  -1   6   1
M  END
>  <PUBCHEM_COMPOUND_CID>  (1) 
21505

>  <PUBCHEM_CONFORMER_RMSD>  (1) 
0.6

>  <PUBCHEM_CONFORMER_DIVERSEORDER>  (1) 
1
2
3
4

>  <PUBCHEM_MMFF94_PARTIAL_CHARGES>  (1) 
20
1 -0.28
10 0.47
11 -0.15
12 0.22
13 -0.15
14 0.06
15 0.69
16 0.15
17 0.15
2 -0.52
21 0.37
22 0.37
23 0.37
3 -0.52
4 -0.57
5 -0.51
6 0.96
7 -0.37
8 -0.8
9 0.05

>  <PUBCHEM_EFFECTIVE_ROTOR_COUNT>  (1) 
4

>  <PUBCHEM_PHARMACOPHORE_FEATURES>  (1) 
9
1 1 acceptor
1 2 acceptor
1 2 anion
1 3 acceptor
1 4 acceptor
1 5 acceptor
1 7 donor
1 8 donor
5 1 9 11 12 13 rings

>  <PUBCHEM_HEAVY_ATOM_COUNT>  (1) 
15

>  <PUBCHEM_ATOM_DEF_STEREO_COUNT>  (1) 
0

>  <PUBCHEM_ATOM_UDEF_STEREO_COUNT>  (1) 
0

>  <PUBCHEM_BOND_DEF_STEREO_COUNT>  (1) 
0

>  <PUBCHEM_BOND_UDEF_STEREO_COUNT>  (1) 
1

>  <PUBCHEM_ISOTOPIC_ATOM_COUNT>  (1) 
0

>  <PUBCHEM_COMPONENT_COUNT>  (1) 
1

>  <PUBCHEM_CACTVS_TAUTO_COUNT>  (1) 
3

>  <PUBCHEM_CONFORMER_ID>  (1) 
0000540100000001

>  <PUBCHEM_MMFF94_ENERGY>  (1) 
30.7889

>  <PUBCHEM_FEATURE_SELFOVERLAP>  (1) 
45.821

>  <PUBCHEM_SHAPE_FINGERPRINT>  (1) 
11401426 45 18272929431600357352
11471102 20 18410009940276775020
13675066 3 18343579663739763393
13690532 89 18411982446661853802
13922767 16 18343018904130219569
14115302 16 18041289837115541182
14325111 11 18410574028639226753
15048467 5 17822015354417413004
15242433 33 18408888451670779478
17834072 33 18341894146779597308
18186145 218 18335972143093207741
18511873 20 18411136960885232238
200 152 18060699494405717249
20645477 70 18340770351781600942
20671657 1 18117003384351461909
23402539 116 18131626786074199901
23402655 69 18343580724913456501
23557571 272 13470422053760575235
23559900 14 18130504219494404792
265663 24 18060416928470481295
34934 24 18339919411691594114
366044 4 18409729573402055515
42788 4 18410856564098365124
4990 188 18272939310199309231
5104073 3 18338516455601376115
522135 26 18260830410391579532
6430166 295 18409165506693521837
69090 78 18342735251837295871

>  <PUBCHEM_SHAPE_MULTIPOLES>  (1) 
265.29
9.75
1.62
0.56
4.95
0.2
0
-0.25
-0.05
-0.24
0
0
-0.01
0.01

>  <PUBCHEM_SHAPE_SELFOVERLAP>  (1) 
551.426

>  <PUBCHEM_SHAPE_VOLUME>  (1) 
151.7

>  <PUBCHEM_COORDINATE_TYPE>  (1) 
2
5
10

$$$$
