21516
     RDKit          3D

 23 24  0  0  1  0  0  0  0  0999 V2000
   -5.0444    0.3075    0.8251 Br  0  0  0  0  0  0  0  0  0  0  0  0
    1.0970    4.4691    0.2811 Br  0  0  0  0  0  0  0  0  0  0  0  0
   -3.2025   -0.1943   -1.7201 O   0  0  0  0  0  0  0  0  0  0  0  0
    1.5271    2.0985   -1.5865 O   0  0  0  0  0  0  0  0  0  0  0  0
   -1.4446    2.4143   -0.1555 C   0  0  0  0  0  0  0  0  0  0  0  0
   -2.9002    2.0794    0.2034 C   0  0  0  0  0  0  0  0  0  0  0  0
   -0.4651    2.1674    1.0014 C   0  0  0  0  0  0  0  0  0  0  0  0
   -3.1293    0.6080    0.5501 C   0  0  0  0  0  0  0  0  0  0  0  0
    0.9851    2.5626    0.7213 C   0  0  0  0  0  0  0  0  0  0  0  0
   -2.7413   -0.3213   -0.5869 C   0  0  0  0  0  0  0  0  0  0  0  0
    1.6330    1.7701   -0.4056 C   0  0  0  0  0  0  0  0  0  0  0  0
   -1.7970   -1.4384   -0.3231 C   0  0  0  0  0  0  0  0  0  0  0  0
    2.4586    0.5673   -0.0750 C   0  0  0  0  0  0  0  0  0  0  0  0
   -1.7728   -2.0063    0.9335 C   0  0  0  0  0  0  0  0  0  0  0  0
    2.1422   -0.1560    1.0503 C   0  0  0  0  0  0  0  0  0  0  0  0
   -0.9762   -1.8710   -1.3435 C   0  0  0  0  0  0  0  0  0  0  0  0
    3.4985    0.2358   -0.9105 C   0  0  0  0  0  0  0  0  0  0  0  0
   -0.8868   -3.0548    1.1811 C   0  0  0  0  0  0  0  0  0  0  0  0
    2.9119   -1.2777    1.3585 C   0  0  0  0  0  0  0  0  0  0  0  0
   -0.0904   -2.9196   -1.0957 C   0  0  0  0  0  0  0  0  0  0  0  0
    4.2681   -0.8861   -0.6022 C   0  0  0  0  0  0  0  0  0  0  0  0
   -0.0457   -3.5115    0.1665 C   0  0  0  0  0  0  0  0  0  0  0  0
    3.9747   -1.6427    0.5323 C   0  0  0  0  0  0  0  0  0  0  0  0
  1  8  1  0
  2  9  1  0
  3 10  2  0
  4 11  2  0
  5  6  1  0
  5  7  1  0
  6  8  1  0
  7  9  1  0
  8 10  1  0
  9 11  1  0
 10 12  1  0
 11 13  1  0
 12 14  2  0
 12 16  1  0
 13 15  2  0
 13 17  1  0
 14 18  1  0
 15 19  1  0
 16 20  2  0
 17 21  2  0
 18 22  2  0
 19 23  2  0
 20 22  1  0
 21 23  1  0
M  END
>  <PUBCHEM_COMPOUND_CID>  (1) 
21516

>  <PUBCHEM_CONFORMER_RMSD>  (1) 
1

>  <PUBCHEM_CONFORMER_DIVERSEORDER>  (1) 
1
234
106
254
390
319
271
581
29
374
768
49
73
413
4
391
359
932
911
120
522
10
352
276
794
344
20
783
925
884
1049
245
813
270
837
57
375
742
496
440
26
300
72
903
90
806
487
624
754
203
497
65
947
8
312
216
143
373
155
7
691
28
782
438
299
387
12
220
726
909
752
766
69
162
47
724
211
74
58
580
205
769
502
791
105
773
261
614
701
93
424
110
459
408
697
204
240
113
172
160
345
1025
305
54
134
11
363
661
899
428
287
40
655
1032
2
857
347
566
51
3
897
88
282
841
140
337
210
301
150
923
183
656
27
132
235
136
278
936
97
590
852
161
252
59
929
228
80
130
32
407
96
230
324
474
366
149
378
592
922
137
193
870
295
186
432
17
431
623
102
38
177
35
151
342
924
99
589
21
6
364
517
358
335
815
142
327
466
505
1015
238
296
348
798
154
33
717
63
13
423
16
872
629
689
393
23
807
430
498
118
18
5
68
302
380
209
83
546
996
201
356
685
392
243
44
942
736
22
323
31
524
988
50
851
78
880
1031
14
653
42
222
714
833
453
607
919
340
734
670
297
960
565
357
630
509
128
758
678
414
263
198
1036
1043
180
256
1057
889

>  <PUBCHEM_MMFF94_PARTIAL_CHARGES>  (1) 
30
1 -0.23
10 0.42
11 0.42
12 0.09
13 0.09
14 -0.15
15 -0.15
16 -0.15
17 -0.15
18 -0.15
19 -0.15
2 -0.23
20 -0.15
21 -0.15
22 -0.15
23 -0.15
3 -0.57
32 0.15
33 0.15
34 0.15
35 0.15
36 0.15
37 0.15
38 0.15
39 0.15
4 -0.57
40 0.15
41 0.15
8 0.29
9 0.29

>  <PUBCHEM_EFFECTIVE_ROTOR_COUNT>  (1) 
8

>  <PUBCHEM_PHARMACOPHORE_FEATURES>  (1) 
6
1 1 hydrophobe
1 2 hydrophobe
1 3 acceptor
1 4 acceptor
6 12 14 16 18 20 22 rings
6 13 15 17 19 21 23 rings

>  <PUBCHEM_HEAVY_ATOM_COUNT>  (1) 
23

>  <PUBCHEM_ATOM_DEF_STEREO_COUNT>  (1) 
0

>  <PUBCHEM_ATOM_UDEF_STEREO_COUNT>  (1) 
2

>  <PUBCHEM_BOND_DEF_STEREO_COUNT>  (1) 
0

>  <PUBCHEM_BOND_UDEF_STEREO_COUNT>  (1) 
0

>  <PUBCHEM_ISOTOPIC_ATOM_COUNT>  (1) 
0

>  <PUBCHEM_COMPONENT_COUNT>  (1) 
1

>  <PUBCHEM_CACTVS_TAUTO_COUNT>  (1) 
3

>  <PUBCHEM_CONFORMER_ID>  (1) 
0000540C00000001

>  <PUBCHEM_MMFF94_ENERGY>  (1) 
60.625

>  <PUBCHEM_FEATURE_SELFOVERLAP>  (1) 
30.447

>  <PUBCHEM_SHAPE_FINGERPRINT>  (1) 
104564 63 18195805159501968394
10616163 171 17906171754878732968
11578080 2 17344905441464112586
12035759 4 17986926654060466055
12156800 1 13966124514242872722
12422481 6 17186129004941804858
12553582 1 18411133615338155088
12788726 201 18200046044601848008
128993 33 17974013052489246230
13122387 1 18410569570020042394
13140716 1 18339926021456287363
1420 336 18341040934277792771
14223421 5 17761212515292183142
14251740 79 17912379632406054222
14251757 5 18337973233065780134
15420108 30 17412472330063616761
16752209 62 18338504236424751284
17093844 170 18052543162574386814
17977361 122 18339073779100139947
19319366 153 17895484716905769586
20600515 1 18202003231170637800
20775438 99 17193435693162391799
22113638 7 18413101762436468839
238 59 16251909729873909646
3052486 1 18049738325502135430
3298306 158 18193267495513926653
445580 8 18269830909376149627
474 4 18338234856556455263
484985 159 14716457624426769115
70251023 43 17765434640423722726

>  <PUBCHEM_SHAPE_MULTIPOLES>  (1) 
473.48
7.08
4.94
1.36
1.18
2.07
0.18
-0.62
-0.44
-0.74
-0.43
0.02
-0.4
-0.51

>  <PUBCHEM_SHAPE_SELFOVERLAP>  (1) 
965.089

>  <PUBCHEM_SHAPE_VOLUME>  (1) 
280.1

>  <PUBCHEM_COORDINATE_TYPE>  (1) 
2
5
10

$$$$
