21527
     RDKit          3D

 11 12  0  0  0  0  0  0  0  0999 V2000
   -3.7976    0.8533   -0.0006 Cl  0  0  0  0  0  0  0  0  0  0  0  0
    1.4167    1.1604    0.0000 N   0  0  0  0  0  0  0  0  0  0  0  0
    1.7639   -1.0349   -0.0001 N   0  0  0  0  0  0  0  0  0  0  0  0
    3.6471    0.4752   -0.0002 N   0  0  0  0  0  0  0  0  0  0  0  0
    0.1685    0.5925    0.0001 C   0  0  0  0  0  0  0  0  0  0  0  0
    0.4121   -0.7782    0.0000 C   0  0  0  0  0  0  0  0  0  0  0  0
   -1.1135    1.1431    0.0003 C   0  0  0  0  0  0  0  0  0  0  0  0
    2.3359    0.1484    0.0001 C   0  0  0  0  0  0  0  0  0  0  0  0
   -0.6761   -1.6672   -0.0001 C   0  0  0  0  0  0  0  0  0  0  0  0
   -2.1848    0.2439    0.0005 C   0  0  0  0  0  0  0  0  0  0  0  0
   -1.9721   -1.1366    0.0001 C   0  0  0  0  0  0  0  0  0  0  0  0
  1 10  1  0
  2  5  1  0
  2  8  1  0
  3  6  1  0
  3  8  2  0
  4  8  1  0
  5  6  2  0
  5  7  1  0
  6  9  1  0
  7 10  2  0
  9 11  2  0
 10 11  1  0
M  END
>  <PUBCHEM_COMPOUND_CID>  (1) 
21527

>  <PUBCHEM_CONFORMER_RMSD>  (1) 
0.4

>  <PUBCHEM_CONFORMER_DIVERSEORDER>  (1) 
1

>  <PUBCHEM_MMFF94_PARTIAL_CHARGES>  (1) 
17
1 -0.18
10 0.18
11 -0.15
12 0.27
13 0.15
14 0.15
15 0.15
16 0.4
17 0.4
2 0.03
3 -0.57
4 -0.88
5 -0.15
6 0.23
7 -0.15
8 0.27
9 -0.15

>  <PUBCHEM_EFFECTIVE_ROTOR_COUNT>  (1) 
0

>  <PUBCHEM_PHARMACOPHORE_FEATURES>  (1) 
5
1 2 donor
1 4 donor
4 2 3 4 8 cation
5 2 3 5 6 8 rings
6 5 6 7 9 10 11 rings

>  <PUBCHEM_HEAVY_ATOM_COUNT>  (1) 
11

>  <PUBCHEM_ATOM_DEF_STEREO_COUNT>  (1) 
0

>  <PUBCHEM_ATOM_UDEF_STEREO_COUNT>  (1) 
0

>  <PUBCHEM_BOND_DEF_STEREO_COUNT>  (1) 
0

>  <PUBCHEM_BOND_UDEF_STEREO_COUNT>  (1) 
0

>  <PUBCHEM_ISOTOPIC_ATOM_COUNT>  (1) 
0

>  <PUBCHEM_COMPONENT_COUNT>  (1) 
1

>  <PUBCHEM_CACTVS_TAUTO_COUNT>  (1) 
3

>  <PUBCHEM_CONFORMER_ID>  (1) 
0000541700000001

>  <PUBCHEM_MMFF94_ENERGY>  (1) 
16.4391

>  <PUBCHEM_FEATURE_SELFOVERLAP>  (1) 
25.523

>  <PUBCHEM_SHAPE_FINGERPRINT>  (1) 
10219947 1 18261396603008574429
11062470 55 17917991668027988273
12932764 1 16950550112726071212
13380535 76 18411699872305643983
14325111 11 18410855438964639621
15775835 57 18407761421649363769
16945 1 18410575088984426469
193761 8 17834114530286983589
20871998 184 18129386071376219271
21040471 1 18410856581151640259
23235685 24 18411694370531412205
23402539 116 18201990015234300533
23402655 69 18269541764247504413
23552423 10 18188771793861395246
23559900 14 18343867736809821876
2748010 2 18123468538333773893
369184 2 18408881853936283562
528886 8 18411414007940564939
53812653 166 18342171176407127952
6333449 129 18341609360472661607

>  <PUBCHEM_SHAPE_MULTIPOLES>  (1) 
213.3
4.97
1.49
0.6
0.04
0.37
0
-1.52
0
0.33
0
0.07
0
0

>  <PUBCHEM_SHAPE_SELFOVERLAP>  (1) 
460.831

>  <PUBCHEM_SHAPE_VOLUME>  (1) 
120.2

>  <PUBCHEM_COORDINATE_TYPE>  (1) 
2
5
10

$$$$
