21525
     RDKit          3D

  8  7  0  0  0  0  0  0  0  0999 V2000
   -2.0943   -0.4044   -0.2868 O   0  0  0  0  0  0  0  0  0  0  0  0
    2.0218    0.6918    1.0213 O   0  0  0  0  0  0  0  0  0  0  0  0
    0.6671    0.0439   -0.7574 N   0  0  0  0  0  0  0  0  0  0  0  0
   -0.2933    1.1206   -0.6768 C   0  0  0  0  0  0  0  0  0  0  0  0
   -1.4453    0.7447    0.2415 C   0  0  0  0  0  0  0  0  0  0  0  0
    1.7449   -0.0755    0.1031 C   0  0  0  0  0  0  0  0  0  0  0  0
    2.5713   -1.3000   -0.1852 C   0  0  0  0  0  0  0  0  0  0  0  0
   -3.1722   -0.8211    0.5403 C   0  0  0  0  0  0  0  0  0  0  0  0
  1  5  1  0
  1  8  1  0
  2  6  2  0
  3  4  1  0
  3  6  1  0
  4  5  1  0
  6  7  1  0
M  END
>  <PUBCHEM_COMPOUND_CID>  (1) 
21525

>  <PUBCHEM_CONFORMER_RMSD>  (1) 
0.6

>  <PUBCHEM_CONFORMER_DIVERSEORDER>  (1) 
1
13
7
2
4
12
11
3
9
6
5
8
10

>  <PUBCHEM_MMFF94_PARTIAL_CHARGES>  (1) 
9
1 -0.56
13 0.37
2 -0.57
3 -0.73
4 0.3
5 0.28
6 0.57
7 0.06
8 0.28

>  <PUBCHEM_EFFECTIVE_ROTOR_COUNT>  (1) 
4

>  <PUBCHEM_PHARMACOPHORE_FEATURES>  (1) 
3
1 1 acceptor
1 2 acceptor
1 3 donor

>  <PUBCHEM_HEAVY_ATOM_COUNT>  (1) 
8

>  <PUBCHEM_ATOM_DEF_STEREO_COUNT>  (1) 
0

>  <PUBCHEM_ATOM_UDEF_STEREO_COUNT>  (1) 
0

>  <PUBCHEM_BOND_DEF_STEREO_COUNT>  (1) 
0

>  <PUBCHEM_BOND_UDEF_STEREO_COUNT>  (1) 
0

>  <PUBCHEM_ISOTOPIC_ATOM_COUNT>  (1) 
0

>  <PUBCHEM_COMPONENT_COUNT>  (1) 
1

>  <PUBCHEM_CACTVS_TAUTO_COUNT>  (1) 
2

>  <PUBCHEM_CONFORMER_ID>  (1) 
0000541500000001

>  <PUBCHEM_MMFF94_ENERGY>  (1) 
8.3859

>  <PUBCHEM_FEATURE_SELFOVERLAP>  (1) 
15.223

>  <PUBCHEM_SHAPE_FINGERPRINT>  (1) 
10857977 72 18336817671471329601
12897270 3 13046237077503023446
12932741 1 18266725914172074348
12932764 1 17917991689386728397
14390081 3 10735881655721389931
20653085 51 8430323480037997583
21028194 46 11959738170063181629
21040471 1 12391509797600176644
23552449 11 17749946799048068701
29004967 10 18335416897968353897

>  <PUBCHEM_SHAPE_MULTIPOLES>  (1) 
147.92
4.52
1.23
0.87
1.51
0.07
0.08
2.14
0.69
-0.04
-0.05
-0.19
-0.12
0.35

>  <PUBCHEM_SHAPE_SELFOVERLAP>  (1) 
265.062

>  <PUBCHEM_SHAPE_VOLUME>  (1) 
96.2

>  <PUBCHEM_COORDINATE_TYPE>  (1) 
2
5
10

$$$$
