21523
     RDKit          3D

 15 15  0  0  0  0  0  0  0  0999 V2000
    0.0785    2.6900   -0.3324 Cl  0  0  0  0  0  0  0  0  0  0  0  0
    0.0521   -2.7004   -0.3230 Cl  0  0  0  0  0  0  0  0  0  0  0  0
   -3.1082   -2.6576    0.2609 Cl  0  0  0  0  0  0  0  0  0  0  0  0
   -3.0829    2.6797    0.2517 Cl  0  0  0  0  0  0  0  0  0  0  0  0
    1.2164   -0.0114   -0.5406 O   0  0  0  0  0  0  0  0  0  0  0  0
    4.3452    0.0228    1.2096 O   0  0  0  0  0  0  0  0  0  0  0  0
    3.8968   -0.0204   -1.0231 O   0  0  0  0  0  0  0  0  0  0  0  0
   -0.1270   -0.0042   -0.2919 C   0  0  0  0  0  0  0  0  0  0  0  0
   -0.8071    1.2073   -0.1673 C   0  0  0  0  0  0  0  0  0  0  0  0
   -0.8189   -1.2087   -0.1633 C   0  0  0  0  0  0  0  0  0  0  0  0
   -2.1906   -1.2015    0.0900 C   0  0  0  0  0  0  0  0  0  0  0  0
   -2.1788    1.2143    0.0860 C   0  0  0  0  0  0  0  0  0  0  0  0
   -2.8706    0.0099    0.2147 C   0  0  0  0  0  0  0  0  0  0  0  0
    2.0809   -0.0143    0.5914 C   0  0  0  0  0  0  0  0  0  0  0  0
    3.5142   -0.0055    0.1373 C   0  0  0  0  0  0  0  0  0  0  0  0
  1  9  1  0
  2 10  1  0
  3 11  1  0
  4 12  1  0
  5  8  1  0
  5 14  1  0
  6 15  1  0
  7 15  2  0
  8  9  2  0
  8 10  1  0
  9 12  1  0
 10 11  2  0
 11 13  1  0
 12 13  2  0
 14 15  1  0
M  END
>  <PUBCHEM_COMPOUND_CID>  (1) 
21523

>  <PUBCHEM_CONFORMER_RMSD>  (1) 
0.6

>  <PUBCHEM_CONFORMER_DIVERSEORDER>  (1) 
1
5
3
4
2
6

>  <PUBCHEM_MMFF94_PARTIAL_CHARGES>  (1) 
17
1 -0.18
10 0.18
11 0.18
12 0.18
13 -0.15
14 0.34
15 0.66
16 0.15
19 0.5
2 -0.18
3 -0.18
4 -0.18
5 -0.36
6 -0.65
7 -0.57
8 0.08
9 0.18

>  <PUBCHEM_EFFECTIVE_ROTOR_COUNT>  (1) 
3

>  <PUBCHEM_PHARMACOPHORE_FEATURES>  (1) 
5
1 5 acceptor
1 6 acceptor
1 7 acceptor
3 6 7 15 anion
6 8 9 10 11 12 13 rings

>  <PUBCHEM_HEAVY_ATOM_COUNT>  (1) 
15

>  <PUBCHEM_ATOM_DEF_STEREO_COUNT>  (1) 
0

>  <PUBCHEM_ATOM_UDEF_STEREO_COUNT>  (1) 
0

>  <PUBCHEM_BOND_DEF_STEREO_COUNT>  (1) 
0

>  <PUBCHEM_BOND_UDEF_STEREO_COUNT>  (1) 
0

>  <PUBCHEM_ISOTOPIC_ATOM_COUNT>  (1) 
0

>  <PUBCHEM_COMPONENT_COUNT>  (1) 
1

>  <PUBCHEM_CACTVS_TAUTO_COUNT>  (1) 
1

>  <PUBCHEM_CONFORMER_ID>  (1) 
0000541300000001

>  <PUBCHEM_MMFF94_ENERGY>  (1) 
38.3571

>  <PUBCHEM_FEATURE_SELFOVERLAP>  (1) 
25.434

>  <PUBCHEM_SHAPE_FINGERPRINT>  (1) 
10967382 1 18122346778954798173
10989021 7 18194967576349061909
11132069 177 18410292471694407000
12382932 28 18337394812207732553
13140716 1 18267031742193316329
13380535 21 18268720402357912407
13380535 76 18267299837972444215
14420673 8 17977375046264180538
14614273 12 18189046517349951101
16945 1 18410586080438707271
18186145 218 17774729675458528114
19422 9 18040715879171580514
20510252 161 18272373108839424968
20871998 184 18271809059448553615
21501502 16 18195240023257472331
21650355 55 18337100245986080864
22182313 1 18194420896259324159
2334 1 17978798140484228661
23402539 116 18341320150818929487
23557571 272 18272384048353359964
23559900 14 18271531875966818742
23598291 2 17894641378565232572
23598294 1 18408035213040384602
2748010 2 17977121071703439981
43471831 8 18335699416675547306
5706482 22 18338506439895942019
58807428 26 18191588536577788659
7097593 13 17825933846191649418
7364860 26 17836652194375992844
77492 1 17676212381316378854
81228 2 18267854163410274858
90316 7 18042113293862879228

>  <PUBCHEM_SHAPE_MULTIPOLES>  (1) 
298.56
6.22
3.17
0.81
6.59
0.02
0.04
-0.02
1.13
-3.35
-0.13
0.52
0
0.01

>  <PUBCHEM_SHAPE_SELFOVERLAP>  (1) 
586.965

>  <PUBCHEM_SHAPE_VOLUME>  (1) 
181.9

>  <PUBCHEM_COORDINATE_TYPE>  (1) 
2
5
10

$$$$
