21530
     RDKit          3D

 23 26  0  0  1  0  0  0  0  0999 V2000
    4.9342    0.7624   -0.2302 O   0  0  0  0  0  0  0  0  0  0  0  0
   -0.0237    2.6442    0.8102 O   0  0  0  0  0  0  0  0  0  0  0  0
   -5.2687   -0.2099   -1.7314 O   0  0  0  0  0  0  0  0  0  0  0  0
    2.5064    0.3889    0.0650 C   0  0  0  0  0  0  0  0  0  0  0  0
    1.6684   -0.8891   -0.1767 C   0  0  0  0  0  0  0  0  0  0  0  0
    0.3292   -0.8806    0.5783 C   0  0  0  0  0  0  0  0  0  0  0  0
   -0.5134    0.3504    0.0931 C   0  0  0  0  0  0  0  0  0  0  0  0
    3.8117    0.0232   -0.7054 C   0  0  0  0  0  0  0  0  0  0  0  0
    2.6532   -2.0194    0.1047 C   0  0  0  0  0  0  0  0  0  0  0  0
   -1.9353    0.3961    0.7480 C   0  0  0  0  0  0  0  0  0  0  0  0
    1.7086    1.5907   -0.4555 C   0  0  0  0  0  0  0  0  0  0  0  0
    4.0148   -1.4768   -0.3669 C   0  0  0  0  0  0  0  0  0  0  0  0
   -0.4332   -2.2044    0.3877 C   0  0  0  0  0  0  0  0  0  0  0  0
    0.3464    1.6259    0.2301 C   0  0  0  0  0  0  0  0  0  0  0  0
    2.8361    0.6408    1.5664 C   0  0  0  0  0  0  0  0  0  0  0  0
   -2.5746   -0.9725    0.4609 C   0  0  0  0  0  0  0  0  0  0  0  0
   -1.8300   -2.1653    1.0074 C   0  0  0  0  0  0  0  0  0  0  0  0
   -2.8352    1.5326    0.1790 C   0  0  0  0  0  0  0  0  0  0  0  0
    3.7621    0.2287   -2.2246 C   0  0  0  0  0  0  0  0  0  0  0  0
   -1.8617    0.6283    2.2787 C   0  0  0  0  0  0  0  0  0  0  0  0
   -3.4278    1.2253   -1.1847 C   0  0  0  0  0  0  0  0  0  0  0  0
   -3.6447   -1.1684   -0.3272 C   0  0  0  0  0  0  0  0  0  0  0  0
   -4.2227   -0.0509   -1.1068 C   0  0  0  0  0  0  0  0  0  0  0  0
  1  8  1  0
  2 14  2  0
  3 23  2  0
  4  5  1  0
  4  8  1  0
  4 11  1  0
  4 15  1  0
  5  6  1  0
  5  9  1  0
  6  7  1  0
  6 13  1  0
  7 10  1  0
  7 14  1  0
  8 12  1  0
  8 19  1  0
  9 12  1  0
 10 16  1  0
 10 18  1  0
 10 20  1  0
 11 14  1  0
 13 17  1  0
 16 17  1  0
 16 22  2  0
 18 21  1  0
 21 23  1  0
 22 23  1  0
M  END
>  <PUBCHEM_COMPOUND_CID>  (1) 
21530

>  <PUBCHEM_CONFORMER_RMSD>  (1) 
0.6

>  <PUBCHEM_CONFORMER_DIVERSEORDER>  (1) 
1

>  <PUBCHEM_MMFF94_PARTIAL_CHARGES>  (1) 
15
1 -0.68
10 0.14
11 0.06
14 0.45
16 -0.28
17 0.14
2 -0.57
21 0.06
22 -0.14
23 0.49
3 -0.57
48 0.4
51 0.15
7 0.06
8 0.28

>  <PUBCHEM_EFFECTIVE_ROTOR_COUNT>  (1) 
1.6

>  <PUBCHEM_PHARMACOPHORE_FEATURES>  (1) 
8
1 1 acceptor
1 1 donor
1 2 acceptor
1 3 acceptor
5 4 5 8 9 12 rings
6 10 16 18 21 22 23 rings
6 4 5 6 7 11 14 rings
6 6 7 10 13 16 17 rings

>  <PUBCHEM_HEAVY_ATOM_COUNT>  (1) 
23

>  <PUBCHEM_ATOM_DEF_STEREO_COUNT>  (1) 
6

>  <PUBCHEM_ATOM_UDEF_STEREO_COUNT>  (1) 
0

>  <PUBCHEM_BOND_DEF_STEREO_COUNT>  (1) 
0

>  <PUBCHEM_BOND_UDEF_STEREO_COUNT>  (1) 
0

>  <PUBCHEM_ISOTOPIC_ATOM_COUNT>  (1) 
0

>  <PUBCHEM_COMPONENT_COUNT>  (1) 
1

>  <PUBCHEM_CACTVS_TAUTO_COUNT>  (1) 
15

>  <PUBCHEM_CONFORMER_ID>  (1) 
0000541A00000001

>  <PUBCHEM_MMFF94_ENERGY>  (1) 
82.3601

>  <PUBCHEM_FEATURE_SELFOVERLAP>  (1) 
40.713

>  <PUBCHEM_SHAPE_FINGERPRINT>  (1) 
10366900 7 18060701714961851424
10498660 4 18334583468502477588
11796584 16 16272199791705091879
11961588 58 17313377972240547047
12011746 2 18413387653035211710
12236239 1 17917999347919968297
12553582 1 18339380594769162008
12596599 1 17560813069266003817
12788726 201 18056204570238498793
12892183 10 12679185960199699742
13140716 1 18265625281410323306
13224815 77 18202289095434697690
14790565 3 17979645528705516105
15163728 17 15431708798276531823
15196674 1 18409733932761978514
15238133 3 14634866418852086902
15375358 24 18410289242184728256
15420108 30 16391824122517887952
15788980 27 16950002539166902810
16752209 62 18262515892660159208
16945 1 18335991959713557104
17349148 13 18339918234258768378
17357779 13 18272936041576215856
1813 80 14405181815806611331
18186145 218 18343023289423548243
192875 21 18338787923288676451
19784866 170 9439412358262011349
19862831 5 18334295357390078150
200 152 17847058896076266055
20715895 44 17750784463657284421
20775438 99 17194559373040530367
20871999 31 18409732850329999709
21029758 11 18342736338353193585
21069387 34 17846501447780830725
21285901 2 17968366849869138519
221357 26 18411125936506063173
22182313 1 18119242020495845609
22393880 68 18339916013723616895
2334 1 18410581681754302218
23379529 103 17631166588238882895
23402539 116 18131072601837585322
23493267 7 17168155506988117864
23559900 14 18410576176470982434
25 1 18260823753377023459
2748010 2 17689158228553075299
2838139 119 15431412007562839383
296302 2 16587746447052381470
3004659 81 18114740435118946494
3286 77 17346589734617405730
34934 24 18409443722106695906
4028521 119 18334011696496624975
4280585 95 17407682809504123198
57100710 210 15123513583997044713
7097593 13 12389862647609201060
9709674 26 18266454489513814131

>  <PUBCHEM_SHAPE_MULTIPOLES>  (1) 
455.72
8.64
2.2
1.56
0.01
0.28
-0.02
0.18
-4.34
0.09
0.4
0.39
-0.33
0.15

>  <PUBCHEM_SHAPE_SELFOVERLAP>  (1) 
984.399

>  <PUBCHEM_SHAPE_VOLUME>  (1) 
249

>  <PUBCHEM_COORDINATE_TYPE>  (1) 
2
5
10

$$$$
