21540
     RDKit          3D

 14 15  0  0  0  0  0  0  0  0999 V2000
   -0.0964   -2.3527   -0.0017 O   0  0  0  0  0  0  0  0  0  0  0  0
    3.0907    0.5139   -1.2238 N   0  0  0  0  0  0  0  0  0  0  0  0
   -1.2756   -0.3537    0.0048 C   0  0  0  0  0  0  0  0  0  0  0  0
    1.2742   -0.4298    0.0211 C   0  0  0  0  0  0  0  0  0  0  0  0
   -0.0358   -1.1136    0.0120 C   0  0  0  0  0  0  0  0  0  0  0  0
   -1.2390    1.0407    0.0193 C   0  0  0  0  0  0  0  0  0  0  0  0
   -2.5014   -1.0190   -0.0170 C   0  0  0  0  0  0  0  0  0  0  0  0
    1.8795   -0.1110    1.2165 C   0  0  0  0  0  0  0  0  0  0  0  0
   -2.4281    1.7697    0.0123 C   0  0  0  0  0  0  0  0  0  0  0  0
   -3.6905   -0.2899   -0.0242 C   0  0  0  0  0  0  0  0  0  0  0  0
    1.8931   -0.1101   -1.1617 C   0  0  0  0  0  0  0  0  0  0  0  0
   -3.6539    1.1045   -0.0096 C   0  0  0  0  0  0  0  0  0  0  0  0
    3.1124    0.5317    1.1934 C   0  0  0  0  0  0  0  0  0  0  0  0
    3.6709    0.8193   -0.0416 C   0  0  0  0  0  0  0  0  0  0  0  0
  1  5  2  0
  2 11  2  0
  2 14  1  0
  3  5  1  0
  3  6  2  0
  3  7  1  0
  4  5  1  0
  4  8  2  0
  4 11  1  0
  6  9  1  0
  7 10  2  0
  8 13  1  0
  9 12  2  0
 10 12  1  0
 13 14  2  0
M  END
>  <PUBCHEM_COMPOUND_CID>  (1) 
21540

>  <PUBCHEM_CONFORMER_RMSD>  (1) 
0.6

>  <PUBCHEM_CONFORMER_DIVERSEORDER>  (1) 
1
2

>  <PUBCHEM_MMFF94_PARTIAL_CHARGES>  (1) 
23
1 -0.57
10 -0.15
11 0.16
12 -0.15
13 -0.15
14 0.16
15 0.15
16 0.15
17 0.15
18 0.15
19 0.15
2 -0.62
20 0.15
21 0.15
22 0.15
23 0.15
3 0.09
4 0.09
5 0.4
6 -0.15
7 -0.15
8 -0.15
9 -0.15

>  <PUBCHEM_EFFECTIVE_ROTOR_COUNT>  (1) 
2

>  <PUBCHEM_PHARMACOPHORE_FEATURES>  (1) 
4
1 1 acceptor
1 2 acceptor
6 2 4 8 11 13 14 rings
6 3 6 7 9 10 12 rings

>  <PUBCHEM_HEAVY_ATOM_COUNT>  (1) 
14

>  <PUBCHEM_ATOM_DEF_STEREO_COUNT>  (1) 
0

>  <PUBCHEM_ATOM_UDEF_STEREO_COUNT>  (1) 
0

>  <PUBCHEM_BOND_DEF_STEREO_COUNT>  (1) 
0

>  <PUBCHEM_BOND_UDEF_STEREO_COUNT>  (1) 
0

>  <PUBCHEM_ISOTOPIC_ATOM_COUNT>  (1) 
0

>  <PUBCHEM_COMPONENT_COUNT>  (1) 
1

>  <PUBCHEM_CACTVS_TAUTO_COUNT>  (1) 
1

>  <PUBCHEM_CONFORMER_ID>  (1) 
0000542400000001

>  <PUBCHEM_MMFF94_ENERGY>  (1) 
48.0613

>  <PUBCHEM_FEATURE_SELFOVERLAP>  (1) 
20.297

>  <PUBCHEM_SHAPE_FINGERPRINT>  (1) 
10498660 4 18411980230796845901
10608611 8 18202560704755770928
11031198 65 16988845003442055028
11132069 177 18407758127631149765
11471102 22 14923936860599828372
11543360 7 15697703883575698261
12251169 10 17240481398863711345
12932764 1 17847057783410886591
13538477 17 17968374679563110186
13764800 53 18336838532454391273
14289901 80 14996286945931411197
14614273 12 18261665974867665557
15219456 202 17775567541752000958
15775835 57 18187083953345021016
16945 1 18338799021573852891
17357990 137 17967541168345097260
17846911 113 18411131442121418769
18186145 218 17775293750303062314
20233049 118 18411978062033345584
20510252 161 18343025514390765529
20645477 70 16415490337174703966
21501925 9 8141789561272578111
21524375 3 18409445860494078578
22802520 49 17702398264122762332
23048698 100 17022617589473191232
23402539 116 18272078422870443732
23402655 69 15554455080254802864
23557571 272 17987803045593651863
23559900 14 18202006521637371454
25 1 17632303345553341282
2748010 2 18193000305582092087
276578 36 18334295344784777418
305870 269 18263075539757466586
474 4 16880203466651511732
7364860 26 18054505811788293343
77492 1 17676482886704061146
81228 2 17768240576479938231

>  <PUBCHEM_SHAPE_MULTIPOLES>  (1) 
277.26
6.65
1.59
1
0.28
0.33
0
-2.32
0
0.87
0.01
-0.98
-0.08
0.02

>  <PUBCHEM_SHAPE_SELFOVERLAP>  (1) 
604.077

>  <PUBCHEM_SHAPE_VOLUME>  (1) 
150.4

>  <PUBCHEM_COORDINATE_TYPE>  (1) 
2
5
10

$$$$
