21552
     RDKit          3D

 22 24  0  0  0  0  0  0  0  0999 V2000
   -3.8621    2.0144   -0.0007 O   0  0  0  0  0  0  0  0  0  0  0  0
   -3.9598   -2.6762    0.0005 O   0  0  0  0  0  0  0  0  0  0  0  0
   -0.8833    1.7341   -0.0001 N   0  0  0  0  0  0  0  0  0  0  0  0
   -1.8852   -1.6224    0.0003 N   0  0  0  0  0  0  0  0  0  0  0  0
    0.1514   -0.2407    0.0004 N   0  0  0  0  0  0  0  0  0  0  0  0
   -3.9360   -0.3339   -0.0004 N   0  0  0  0  0  0  0  0  0  0  0  0
    6.1657   -1.6340   -0.0008 N   0  0  0  0  0  0  0  0  0  0  0  0
   -1.8671    0.7872   -0.0008 C   0  0  0  0  0  0  0  0  0  0  0  0
   -1.2070   -0.4112   -0.0003 C   0  0  0  0  0  0  0  0  0  0  0  0
    0.3141    1.0663    0.0006 C   0  0  0  0  0  0  0  0  0  0  0  0
    1.6099    1.7772    0.0005 C   0  0  0  0  0  0  0  0  0  0  0  0
   -3.2870    0.9295   -0.0007 C   0  0  0  0  0  0  0  0  0  0  0  0
   -3.3027   -1.6290   -0.0005 C   0  0  0  0  0  0  0  0  0  0  0  0
   -1.0609    3.1677    0.0011 C   0  0  0  0  0  0  0  0  0  0  0  0
    2.8269    0.8649    0.0002 C   0  0  0  0  0  0  0  0  0  0  0  0
   -1.1373   -2.8735    0.0014 C   0  0  0  0  0  0  0  0  0  0  0  0
   -5.3953   -0.3195    0.0001 C   0  0  0  0  0  0  0  0  0  0  0  0
    3.3609    0.4647   -1.2079 C   0  0  0  0  0  0  0  0  0  0  0  0
    3.3620    0.4651    1.2080 C   0  0  0  0  0  0  0  0  0  0  0  0
    4.4776   -0.3711   -1.2083 C   0  0  0  0  0  0  0  0  0  0  0  0
    4.4788   -0.3708    1.2078 C   0  0  0  0  0  0  0  0  0  0  0  0
    5.0367   -0.7888   -0.0004 C   0  0  0  0  0  0  0  0  0  0  0  0
  1 12  2  0
  2 13  2  0
  3  8  1  0
  3 10  1  0
  3 14  1  0
  4  9  1  0
  4 13  1  0
  4 16  1  0
  5  9  1  0
  5 10  2  0
  6 12  1  0
  6 13  1  0
  6 17  1  0
  7 22  1  0
  8  9  2  0
  8 12  1  0
 10 11  1  0
 11 15  1  0
 15 18  2  0
 15 19  1  0
 18 20  1  0
 19 21  2  0
 20 22  2  0
 21 22  1  0
M  END
>  <PUBCHEM_COMPOUND_CID>  (1) 
21552

>  <PUBCHEM_CONFORMER_RMSD>  (1) 
0.6

>  <PUBCHEM_CONFORMER_DIVERSEORDER>  (1) 
1
2
8
9
10
3
11
6
4
5
7

>  <PUBCHEM_MMFF94_PARTIAL_CHARGES>  (1) 
28
1 -0.57
10 0.01
11 0.32
12 0.71
13 0.69
14 0.26
15 -0.14
16 0.3
17 0.3
18 -0.15
19 -0.15
2 -0.57
20 -0.15
21 -0.15
22 0.1
3 0.05
34 0.15
35 0.15
36 0.15
37 0.15
38 0.4
39 0.4
4 -0.42
5 -0.57
6 -0.42
7 -0.9
8 -0.24
9 0.29

>  <PUBCHEM_EFFECTIVE_ROTOR_COUNT>  (1) 
2

>  <PUBCHEM_PHARMACOPHORE_FEATURES>  (1) 
8
1 1 acceptor
1 2 acceptor
1 7 cation
1 7 donor
3 3 5 10 cation
5 3 5 8 9 10 rings
6 15 18 19 20 21 22 rings
6 4 6 8 9 12 13 rings

>  <PUBCHEM_HEAVY_ATOM_COUNT>  (1) 
22

>  <PUBCHEM_ATOM_DEF_STEREO_COUNT>  (1) 
0

>  <PUBCHEM_ATOM_UDEF_STEREO_COUNT>  (1) 
0

>  <PUBCHEM_BOND_DEF_STEREO_COUNT>  (1) 
0

>  <PUBCHEM_BOND_UDEF_STEREO_COUNT>  (1) 
0

>  <PUBCHEM_ISOTOPIC_ATOM_COUNT>  (1) 
0

>  <PUBCHEM_COMPONENT_COUNT>  (1) 
1

>  <PUBCHEM_CACTVS_TAUTO_COUNT>  (1) 
1

>  <PUBCHEM_CONFORMER_ID>  (1) 
0000543000000001

>  <PUBCHEM_MMFF94_ENERGY>  (1) 
56.2903

>  <PUBCHEM_FEATURE_SELFOVERLAP>  (1) 
40.711

>  <PUBCHEM_SHAPE_FINGERPRINT>  (1) 
10616163 171 18410012117941706322
10693767 8 17625240294033730015
11458722 379 18407760339207134299
11796584 16 18340488847045866302
12236239 1 17748829613513597812
12403259 226 18269270347746460449
12553582 1 18334564759403383714
12555020 224 18409720777525227055
12788726 201 18338530685102833664
13140716 1 18340769337868664785
13167823 11 18260267473212296754
13402501 40 18201726111528318038
13583140 156 14333404566889653895
13675066 3 17989201572939598816
13862211 1 18411980299937945519
14386348 63 17989490697769755574
14420673 8 18339364050608411386
15042514 8 18409451401566016129
15196674 1 18338516446963928806
15885798 251 18411136982418311912
16752209 62 18334286544217426744
17349148 13 18343866627742921629
17492 89 18121781891866053499
17804303 29 18412825785224028088
1813 80 17531240686472760356
19141452 34 18060137686702899151
19591789 44 18338234968014368107
20374829 77 18411701001829048558
20403669 9 18343024389167434078
21267235 1 18408047316405982467
23402539 116 18343858910066596309
23557571 272 18201164264764007756
23559900 14 18341326798943532936
3004659 81 18186802491738229718
335352 9 18410574003212360245
338550 245 18333735684992913838
4214541 1 18410856546855426272
465052 167 18338243750916429399
5104073 3 18271529787673930856
5385378 56 18052264994933685713
559249 180 18262514793111491162
59755656 215 18338514145378637567
602551 16 18412260610951976440
6138700 20 18410293575495954711
67856867 119 18261114136459401908
9709674 26 18194402418597944690

>  <PUBCHEM_SHAPE_MULTIPOLES>  (1) 
416.11
11.59
2.74
0.88
6.68
0.08
0
4.92
0
-2.4
0
1.14
-0.01
0

>  <PUBCHEM_SHAPE_SELFOVERLAP>  (1) 
906.703

>  <PUBCHEM_SHAPE_VOLUME>  (1) 
228.4

>  <PUBCHEM_COORDINATE_TYPE>  (1) 
2
5
10

$$$$
