21558
     RDKit          3D

 22 23  0  0  0  0  0  0  0  0999 V2000
    3.7126    3.2864   -0.0584 O   0  0  0  0  0  0  0  0  0  0  0  0
   -6.5853   -0.7169   -0.1530 N   0  0  0  0  0  0  0  0  0  0  0  0
    0.8214   -0.5437   -0.0049 N   0  0  0  0  0  0  0  0  0  0  0  0
    3.0532   -2.2011    0.0545 N   0  0  0  0  0  0  0  0  0  0  0  0
   -2.8922    0.2104   -0.1056 C   0  0  0  0  0  0  0  0  0  0  0  0
   -4.1352   -0.6820   -0.0934 C   0  0  0  0  0  0  0  0  0  0  0  0
   -1.6093   -0.6207   -0.0616 C   0  0  0  0  0  0  0  0  0  0  0  0
   -5.4135    0.1507   -0.1746 C   0  0  0  0  0  0  0  0  0  0  0  0
   -0.3708    0.2697   -0.0344 C   0  0  0  0  0  0  0  0  0  0  0  0
   -7.8116    0.0652   -0.2196 C   0  0  0  0  0  0  0  0  0  0  0  0
    2.1066   -0.0252   -0.0033 C   0  0  0  0  0  0  0  0  0  0  0  0
   -7.8932    1.0231    0.9656 C   0  0  0  0  0  0  0  0  0  0  0  0
   -9.0126   -0.8749   -0.2480 C   0  0  0  0  0  0  0  0  0  0  0  0
    3.2354   -0.8672    0.0274 C   0  0  0  0  0  0  0  0  0  0  0  0
    4.5232   -0.2917    0.0288 C   0  0  0  0  0  0  0  0  0  0  0  0
    2.2885    1.3753   -0.0318 C   0  0  0  0  0  0  0  0  0  0  0  0
    3.5598    1.9354   -0.0302 C   0  0  0  0  0  0  0  0  0  0  0  0
    4.6765    1.1049    0.0000 C   0  0  0  0  0  0  0  0  0  0  0  0
    5.6299   -1.1509    0.0596 C   0  0  0  0  0  0  0  0  0  0  0  0
    5.4454   -2.5258    0.0876 C   0  0  0  0  0  0  0  0  0  0  0  0
    4.1477   -2.9956    0.0837 C   0  0  0  0  0  0  0  0  0  0  0  0
    2.5234    4.0750   -0.0884 C   0  0  0  0  0  0  0  0  0  0  0  0
  1 17  1  0
  1 22  1  0
  2  8  1  0
  2 10  1  0
  3  9  1  0
  3 11  1  0
  4 14  2  0
  4 21  1  0
  5  6  1  0
  5  7  1  0
  6  8  1  0
  7  9  1  0
 10 12  1  0
 10 13  1  0
 11 14  1  0
 11 16  2  0
 14 15  1  0
 15 18  1  0
 15 19  2  0
 16 17  1  0
 17 18  2  0
 19 20  1  0
 20 21  2  0
M  END
>  <PUBCHEM_COMPOUND_CID>  (1) 
21558

>  <PUBCHEM_CONFORMER_RMSD>  (1) 
0.8

>  <PUBCHEM_CONFORMER_DIVERSEORDER>  (1) 
1
104
360
282
97
367
160
285
163
244
291
152
198
252
233
368
180
13
51
237
185
82
176
3
131
36
120
354
203
245
94
218
184
328
190
169
277
98
258
230
188
316
181
11
311
274
345
372
270
63
307
298
219
128
331
320
29
322
83
90
67
260
334
2
93
157
351
199
303
276
279
102
141
195
71
202
266
225
253
39
194
240
227
314
10
226
34
193
108
271
101
150
310
259
7
324
59
92
191
267
284
79
330
24
80
257
74
204
374
299
31
41
332
214
207
9
58
211
352
99
236
346
323
361
289
358
313
20
242
30
170
129
312
371
293
287
75
132
112
305
154
32
164
12
263
309
103
172
340
315
171
212
6
297
231
48
337
288
122
57
239
100
275
168
370
144
248
220
5
326
294
342
235
21
344
114
73
149
256
117
38
217
265
208
118
87
347
264
26
232
109
178
52
251
362
224
130
60
216
359
356
196
139
215
350
124
182
134
301
325
123
229
107
210
61
261
148
254
119
110
327
278
85
4
89
357
126
247
121
373
317
238
43
133
14
125
319
16
159
246
33
321
40
249
349
369
197
55
348
338
8
304
333
42
286
113
200
156
355
243
78
290
363
84
339
268
72
173
366
70
155
234
88
201
209
77
153
177
272
143
165
37
106
140
18
292
66
45
22
96
343
192
15
255
221
189
65
54
23
27
95
142
167
49
136
46
56
250
306
295
28
318
17
137
205
296
53
222
228
161
269
183
35
135
147
69
308
81
76
273
62
68
162
335
336
166
151
47
138
329
116
187
241
174
44
281
365
115
50
86
223
364
145
64
175
179
302
105
25
206
280
262
111
186
213
127
341
91
353
19
283
158
300
146

>  <PUBCHEM_MMFF94_PARTIAL_CHARGES>  (1) 
23
1 -0.36
10 0.27
11 0.1
14 0.31
16 -0.15
17 0.08
18 -0.15
19 -0.15
2 -0.9
20 -0.15
21 0.16
22 0.28
3 -0.87
34 0.36
35 0.4
4 -0.62
42 0.15
43 0.15
44 0.15
45 0.15
46 0.15
8 0.27
9 0.37

>  <PUBCHEM_EFFECTIVE_ROTOR_COUNT>  (1) 
9

>  <PUBCHEM_PHARMACOPHORE_FEATURES>  (1) 
9
1 1 acceptor
1 2 cation
1 2 donor
1 3 cation
1 3 donor
1 4 acceptor
3 10 12 13 hydrophobe
6 11 14 15 16 17 18 rings
6 4 14 15 19 20 21 rings

>  <PUBCHEM_HEAVY_ATOM_COUNT>  (1) 
22

>  <PUBCHEM_ATOM_DEF_STEREO_COUNT>  (1) 
0

>  <PUBCHEM_ATOM_UDEF_STEREO_COUNT>  (1) 
0

>  <PUBCHEM_BOND_DEF_STEREO_COUNT>  (1) 
0

>  <PUBCHEM_BOND_UDEF_STEREO_COUNT>  (1) 
0

>  <PUBCHEM_ISOTOPIC_ATOM_COUNT>  (1) 
0

>  <PUBCHEM_COMPONENT_COUNT>  (1) 
1

>  <PUBCHEM_CACTVS_TAUTO_COUNT>  (1) 
1

>  <PUBCHEM_CONFORMER_ID>  (1) 
0000543600000001

>  <PUBCHEM_MMFF94_ENERGY>  (1) 
57.2252

>  <PUBCHEM_FEATURE_SELFOVERLAP>  (1) 
45.7

>  <PUBCHEM_SHAPE_FINGERPRINT>  (1) 
10162869 55 18342163514728842919
10299344 5 18273214197524505471
10411042 1 18194119613173564682
10595046 47 18270679891646215237
10835480 77 18335983185707294497
11719270 70 17489588940019347927
12166972 35 18272932700144725993
12616971 3 17988634208123508815
13167372 99 18272092661051364665
13533116 47 18410293618440034565
14170010 4 18410290316042544808
14251764 18 18202282494650374847
14933364 13 18335421266783472381
15183329 4 18411419493246934763
15348495 7 18188497977391726499
15419008 47 17676481727459070397
15483637 11 18120937462583640219
17844677 252 18411141307925262573
19427546 62 18264489662187460146
20157964 124 18411419539753044481
20281389 69 18334575746816242373
21267235 1 18341333280597750350
21315759 40 17918273160949348699
21315763 28 18412262836066730445
21315764 268 18408037412575875733
21344244 78 18272075068722694704
221357 26 18334011662057687388
22956985 138 14203332233696487992
23081809 10 17989202673284423159
23522609 53 17844550945025679457
23559900 14 18408881871306161018
249057 25 18060430097162283025
255183 451 18127982919010007774
3004659 81 17989211438373800863
335352 9 18410015434125964030
397830 11 17677905715634326505
4073 2 18114748256133164651
44555599 121 18272098180295590313
68570916 9 18270682091049610423

>  <PUBCHEM_SHAPE_MULTIPOLES>  (1) 
431.94
23.11
3.26
0.66
65.01
2.6
-0.04
-5.87
-0.86
-7.9
0
0.41
0.04
-0.72

>  <PUBCHEM_SHAPE_SELFOVERLAP>  (1) 
885.128

>  <PUBCHEM_SHAPE_VOLUME>  (1) 
250.6

>  <PUBCHEM_COORDINATE_TYPE>  (1) 
2
5
10

$$$$
