21556
     RDKit          3D

 14 15  0  0  0  0  0  0  0  0999 V2000
   -3.9014    1.1294   -0.0002 O   0  0  0  0  0  0  0  0  0  0  0  0
    3.8930   -1.1321   -0.0001 O   0  0  0  0  0  0  0  0  0  0  0  0
   -0.6122   -0.3062    0.0026 N   0  0  0  0  0  0  0  0  0  0  0  0
    0.6326    0.3129    0.0025 N   0  0  0  0  0  0  0  0  0  0  0  0
   -2.9493    0.1601    0.0009 C   0  0  0  0  0  0  0  0  0  0  0  0
    2.9697   -0.1539    0.0004 C   0  0  0  0  0  0  0  0  0  0  0  0
   -3.5295   -1.0870   -0.0006 C   0  0  0  0  0  0  0  0  0  0  0  0
    3.5217    1.0845   -0.0010 C   0  0  0  0  0  0  0  0  0  0  0  0
   -4.9280   -0.8700   -0.0027 C   0  0  0  0  0  0  0  0  0  0  0  0
    4.9201    0.8671   -0.0024 C   0  0  0  0  0  0  0  0  0  0  0  0
   -5.1029    0.4944   -0.0025 C   0  0  0  0  0  0  0  0  0  0  0  0
    5.0945   -0.4973   -0.0020 C   0  0  0  0  0  0  0  0  0  0  0  0
   -1.5855    0.5666    0.0030 C   0  0  0  0  0  0  0  0  0  0  0  0
    1.5772   -0.5686    0.0022 C   0  0  0  0  0  0  0  0  0  0  0  0
  1  5  1  0
  1 11  1  0
  2  6  1  0
  2 12  1  0
  3  4  1  0
  3 13  2  0
  4 14  2  0
  5  7  2  0
  5 13  1  0
  6  8  2  0
  6 14  1  0
  7  9  1  0
  8 10  1  0
  9 11  2  0
 10 12  2  0
M  END
>  <PUBCHEM_COMPOUND_CID>  (1) 
21556

>  <PUBCHEM_CONFORMER_RMSD>  (1) 
0.6

>  <PUBCHEM_CONFORMER_DIVERSEORDER>  (1) 
1
3
2

>  <PUBCHEM_MMFF94_PARTIAL_CHARGES>  (1) 
22
1 -0.28
10 -0.15
11 -0.01
12 -0.01
13 0.47
14 0.47
15 0.15
16 0.15
17 0.15
18 0.15
19 0.15
2 -0.28
20 0.15
21 0.06
22 0.06
3 -0.45
4 -0.45
5 0.05
6 0.05
7 -0.15
8 -0.15
9 -0.15

>  <PUBCHEM_EFFECTIVE_ROTOR_COUNT>  (1) 
3

>  <PUBCHEM_PHARMACOPHORE_FEATURES>  (1) 
6
1 1 acceptor
1 2 acceptor
1 3 acceptor
1 4 acceptor
5 1 5 7 9 11 rings
5 2 6 8 10 12 rings

>  <PUBCHEM_HEAVY_ATOM_COUNT>  (1) 
14

>  <PUBCHEM_ATOM_DEF_STEREO_COUNT>  (1) 
0

>  <PUBCHEM_ATOM_UDEF_STEREO_COUNT>  (1) 
0

>  <PUBCHEM_BOND_DEF_STEREO_COUNT>  (1) 
0

>  <PUBCHEM_BOND_UDEF_STEREO_COUNT>  (1) 
2

>  <PUBCHEM_ISOTOPIC_ATOM_COUNT>  (1) 
0

>  <PUBCHEM_COMPONENT_COUNT>  (1) 
1

>  <PUBCHEM_CACTVS_TAUTO_COUNT>  (1) 
1

>  <PUBCHEM_CONFORMER_ID>  (1) 
0000543400000001

>  <PUBCHEM_MMFF94_ENERGY>  (1) 
7.2689

>  <PUBCHEM_FEATURE_SELFOVERLAP>  (1) 
31.918

>  <PUBCHEM_SHAPE_FINGERPRINT>  (1) 
10680689 15 17603305942927295413
10912923 1 18410575071778177465
11287383 113 18410013264444305682
11401426 45 17894629262309470229
12107183 9 17618222806179250944
13167823 11 18409727352640251810
13533116 47 16588293957073290584
14123238 8 18410856572524691525
1420 363 18113907073813319387
14251718 22 18410292544539779723
17834072 33 18341893025713823284
17834076 25 16298386859516000161
17844677 252 18412833481568123616
200 152 18273214201107004611
20645477 70 18341051814052822710
22485316 2 18409728456541519531
23402539 116 18334289868706489893
23402655 69 18342739619992777852
23557571 272 18114464457151625788
23559900 14 18411696621073274032
300161 21 18186512198898280595
42 15 18408323276481018286
4214541 1 18410575063541956129
42788 4 18410575088979164708
5104073 3 18410856555344823234
522135 26 18411419501778736318
542803 24 17095244717559689164
57483677 66 18410291406416033946
7495541 125 17774718774499221722
77779 3 18411138034616500228
9971528 1 17675926499829959772

>  <PUBCHEM_SHAPE_MULTIPOLES>  (1) 
266.41
13.74
1.13
0.59
0.09
0
0
0.01
-0.02
0
0
0
0
0

>  <PUBCHEM_SHAPE_SELFOVERLAP>  (1) 
570.907

>  <PUBCHEM_SHAPE_VOLUME>  (1) 
149.9

>  <PUBCHEM_COORDINATE_TYPE>  (1) 
2
5
10

$$$$
