21554
     RDKit          3D

 14 14  0  0  0  0  0  0  0  0999 V2000
    4.4346    0.8071    0.0250 O   0  0  0  0  0  0  0  0  0  0  0  0
   -2.2916   -2.5478    0.0057 O   0  0  0  0  0  0  0  0  0  0  0  0
   -0.1185   -2.2369   -0.0046 O   0  0  0  0  0  0  0  0  0  0  0  0
    3.3027   -1.1628    0.0017 O   0  0  0  0  0  0  0  0  0  0  0  0
    0.9186    0.0248   -0.0098 N   0  0  0  0  0  0  0  0  0  0  0  0
   -1.2907   -1.7935    0.0007 N   0  0  0  0  0  0  0  0  0  0  0  0
   -0.4129    0.4988   -0.0047 C   0  0  0  0  0  0  0  0  0  0  0  0
   -1.4922   -0.3847    0.0007 C   0  0  0  0  0  0  0  0  0  0  0  0
   -0.6384    1.8753   -0.0045 C   0  0  0  0  0  0  0  0  0  0  0  0
    2.0503    0.8967   -0.0147 C   0  0  0  0  0  0  0  0  0  0  0  0
   -2.7970    0.1083    0.0063 C   0  0  0  0  0  0  0  0  0  0  0  0
   -1.9433    2.3683    0.0010 C   0  0  0  0  0  0  0  0  0  0  0  0
   -3.0226    1.4848    0.0063 C   0  0  0  0  0  0  0  0  0  0  0  0
    3.3009    0.0617   -0.0088 C   0  0  0  0  0  0  0  0  0  0  0  0
  1 14  1  0
  2  6  1  0
  3  6  2  0
  4 14  2  0
  5  7  1  0
  5 10  1  0
  6  8  1  0
  7  8  2  0
  7  9  1  0
  8 11  1  0
  9 12  2  0
 10 14  1  0
 11 13  2  0
 12 13  1  0
M  CHG  2   2  -1   6   1
M  END
>  <PUBCHEM_COMPOUND_CID>  (1) 
21554

>  <PUBCHEM_CONFORMER_RMSD>  (1) 
0.6

>  <PUBCHEM_CONFORMER_DIVERSEORDER>  (1) 
1
5
6
3
4
2

>  <PUBCHEM_MMFF94_PARTIAL_CHARGES>  (1) 
20
1 -0.65
10 0.43
11 -0.15
12 -0.15
13 -0.15
14 0.66
15 0.4
18 0.15
19 0.15
2 -0.52
20 0.15
21 0.15
22 0.5
3 -0.52
4 -0.57
5 -0.87
6 0.91
7 0.1
8 0.13
9 -0.15

>  <PUBCHEM_EFFECTIVE_ROTOR_COUNT>  (1) 
4

>  <PUBCHEM_PHARMACOPHORE_FEATURES>  (1) 
9
1 1 acceptor
1 2 acceptor
1 2 anion
1 3 acceptor
1 4 acceptor
1 5 cation
1 5 donor
3 1 4 14 anion
6 7 8 9 11 12 13 rings

>  <PUBCHEM_HEAVY_ATOM_COUNT>  (1) 
14

>  <PUBCHEM_ATOM_DEF_STEREO_COUNT>  (1) 
0

>  <PUBCHEM_ATOM_UDEF_STEREO_COUNT>  (1) 
0

>  <PUBCHEM_BOND_DEF_STEREO_COUNT>  (1) 
0

>  <PUBCHEM_BOND_UDEF_STEREO_COUNT>  (1) 
0

>  <PUBCHEM_ISOTOPIC_ATOM_COUNT>  (1) 
0

>  <PUBCHEM_COMPONENT_COUNT>  (1) 
1

>  <PUBCHEM_CACTVS_TAUTO_COUNT>  (1) 
1

>  <PUBCHEM_CONFORMER_ID>  (1) 
0000543200000001

>  <PUBCHEM_MMFF94_ENERGY>  (1) 
49.5099

>  <PUBCHEM_FEATURE_SELFOVERLAP>  (1) 
45.811

>  <PUBCHEM_SHAPE_FINGERPRINT>  (1) 
10608611 8 18342453764271192864
10967382 1 18266458715471249125
12500047 106 18411693266941335344
12716758 59 18412538812451607017
13024252 1 14707208807966186813
13380535 76 18269271274905417623
14144814 61 18337110077466966640
14325111 11 18338516331263932676
15669948 3 18410288133956532714
15775835 57 18262239924010811624
16945 1 18410577275402627845
18186145 218 18127134078441856276
193761 8 17978229692751616037
20510252 161 18271808977796923209
20645476 183 17895780442204134302
20645477 56 18410293597181813752
20711985 365 18337390572837498036
20871998 184 18200598106538503743
23402539 116 18342729728841481021
23463225 33 18118120277811468082
23557571 272 18271257126529215244
23559900 14 18271804593568503040
257057 1 17765707310474142759
2748010 2 18123178276212717173
3071541 12 17403459572535216061
366044 4 18337389344988768633
43471831 8 18262799541064531491
54173680 148 18337674229932096499
5706482 22 18339916005281290657
6333449 129 18411698789921040385
69090 78 18411415081555950669
7364860 26 17620756081296713335
75552 356 18410293635588281316
81228 2 18264761237317229881
9709674 26 18343586218240029230

>  <PUBCHEM_SHAPE_MULTIPOLES>  (1) 
254.67
5.92
2.53
0.58
6.65
1.1
0
-1.18
-0.03
-1.84
0
-0.04
-0.05
0

>  <PUBCHEM_SHAPE_SELFOVERLAP>  (1) 
530.703

>  <PUBCHEM_SHAPE_VOLUME>  (1) 
143.8

>  <PUBCHEM_COORDINATE_TYPE>  (1) 
2
5
10

$$$$
