21568
     RDKit          3D

  9  8  0  0  0  0  0  0  0  0999 V2000
   -0.1873    2.0092   -0.9206 Br  0  0  0  0  0  0  0  0  0  0  0  0
    2.1423   -0.3619    0.6600 O   0  0  0  0  0  0  0  0  0  0  0  0
   -2.2890    0.0023   -0.3270 O   0  0  0  0  0  0  0  0  0  0  0  0
    1.3380   -0.5977   -1.3679 O   0  0  0  0  0  0  0  0  0  0  0  0
   -1.0014   -1.6871    0.2124 O   0  0  0  0  0  0  0  0  0  0  0  0
    1.2527   -0.2163   -0.1926 N   0  0  0  0  0  0  0  0  0  0  0  0
   -1.1962   -0.4812   -0.0007 N   0  0  0  0  0  0  0  0  0  0  0  0
   -0.0335    0.4624    0.2376 C   0  0  0  0  0  0  0  0  0  0  0  0
   -0.0256    0.8702    1.6987 C   0  0  0  0  0  0  0  0  0  0  0  0
  1  8  1  0
  2  6  1  0
  3  7  1  0
  4  6  2  0
  5  7  2  0
  6  8  1  0
  7  8  1  0
  8  9  1  0
M  CHG  4   2  -1   3  -1   6   1   7   1
M  END
>  <PUBCHEM_COMPOUND_CID>  (1) 
21568

>  <PUBCHEM_CONFORMER_RMSD>  (1) 
0.4

>  <PUBCHEM_CONFORMER_DIVERSEORDER>  (1) 
1
6
8
4
5
7
2
3

>  <PUBCHEM_MMFF94_PARTIAL_CHARGES>  (1) 
8
1 -0.23
2 -0.52
3 -0.52
4 -0.52
5 -0.52
6 0.8
7 0.8
8 0.71

>  <PUBCHEM_EFFECTIVE_ROTOR_COUNT>  (1) 
2

>  <PUBCHEM_PHARMACOPHORE_FEATURES>  (1) 
8
1 1 hydrophobe
1 2 acceptor
1 2 anion
1 3 acceptor
1 3 anion
1 4 acceptor
1 5 acceptor
3 1 8 9 hydrophobe

>  <PUBCHEM_HEAVY_ATOM_COUNT>  (1) 
9

>  <PUBCHEM_ATOM_DEF_STEREO_COUNT>  (1) 
0

>  <PUBCHEM_ATOM_UDEF_STEREO_COUNT>  (1) 
0

>  <PUBCHEM_BOND_DEF_STEREO_COUNT>  (1) 
0

>  <PUBCHEM_BOND_UDEF_STEREO_COUNT>  (1) 
0

>  <PUBCHEM_ISOTOPIC_ATOM_COUNT>  (1) 
0

>  <PUBCHEM_COMPONENT_COUNT>  (1) 
1

>  <PUBCHEM_CACTVS_TAUTO_COUNT>  (1) 
1

>  <PUBCHEM_CONFORMER_ID>  (1) 
0000544000000001

>  <PUBCHEM_MMFF94_ENERGY>  (1) 
22.9496

>  <PUBCHEM_FEATURE_SELFOVERLAP>  (1) 
41.685

>  <PUBCHEM_SHAPE_FINGERPRINT>  (1) 
12423570 1 12399729810980306553
137420 1 13437742862848940385
21040471 1 17469599611913801668
24536 1 18058191546536370847
29004967 10 18114186375219937216
5943 1 8916968846641299377

>  <PUBCHEM_SHAPE_MULTIPOLES>  (1) 
157.72
2.05
1.69
1.31
0.14
0.75
0.46
-0.59
-0.28
-0.51
-0.38
0.29
0.19
0.02

>  <PUBCHEM_SHAPE_SELFOVERLAP>  (1) 
287.91

>  <PUBCHEM_SHAPE_VOLUME>  (1) 
103.3

>  <PUBCHEM_COORDINATE_TYPE>  (1) 
2
5
10

$$$$
