21567
     RDKit          3D

 10 10  0  0  0  0  0  0  0  0999 V2000
   -3.0845    0.8902    0.4725 O   0  0  0  0  0  0  0  0  0  0  0  0
   -1.3935   -0.3191    0.1118 N   0  0  0  0  0  0  0  0  0  0  0  0
   -2.1531    0.6710   -0.3111 N   0  0  0  0  0  0  0  0  0  0  0  0
   -0.0048   -0.1706   -0.3191 C   0  0  0  0  0  0  0  0  0  0  0  0
    0.5061    1.2284    0.0430 C   0  0  0  0  0  0  0  0  0  0  0  0
    0.8601   -1.2589    0.3263 C   0  0  0  0  0  0  0  0  0  0  0  0
    1.9800    1.3948   -0.3235 C   0  0  0  0  0  0  0  0  0  0  0  0
    2.3333   -1.0896   -0.0411 C   0  0  0  0  0  0  0  0  0  0  0  0
    2.8432    0.3059    0.3073 C   0  0  0  0  0  0  0  0  0  0  0  0
   -1.8868   -1.6521   -0.2662 C   0  0  0  0  0  0  0  0  0  0  0  0
  1  3  2  0
  2  3  1  0
  2  4  1  0
  2 10  1  0
  4  5  1  0
  4  6  1  0
  5  7  1  0
  6  8  1  0
  7  9  1  0
  8  9  1  0
M  END
>  <PUBCHEM_COMPOUND_CID>  (1) 
21567

>  <PUBCHEM_CONFORMER_RMSD>  (1) 
0.6

>  <PUBCHEM_CONFORMER_DIVERSEORDER>  (1) 
1
15
8
10
9
18
2
6
17
5
7
4
14
13
12
3
16
11

>  <PUBCHEM_MMFF94_PARTIAL_CHARGES>  (1) 
5
1 -0.16
10 0.27
2 -0.36
3 -0.01
4 0.27

>  <PUBCHEM_EFFECTIVE_ROTOR_COUNT>  (1) 
3.2

>  <PUBCHEM_PHARMACOPHORE_FEATURES>  (1) 
1
6 4 5 6 7 8 9 rings

>  <PUBCHEM_HEAVY_ATOM_COUNT>  (1) 
10

>  <PUBCHEM_ATOM_DEF_STEREO_COUNT>  (1) 
0

>  <PUBCHEM_ATOM_UDEF_STEREO_COUNT>  (1) 
0

>  <PUBCHEM_BOND_DEF_STEREO_COUNT>  (1) 
0

>  <PUBCHEM_BOND_UDEF_STEREO_COUNT>  (1) 
0

>  <PUBCHEM_ISOTOPIC_ATOM_COUNT>  (1) 
0

>  <PUBCHEM_COMPONENT_COUNT>  (1) 
1

>  <PUBCHEM_CACTVS_TAUTO_COUNT>  (1) 
1

>  <PUBCHEM_CONFORMER_ID>  (1) 
0000543F00000001

>  <PUBCHEM_MMFF94_ENERGY>  (1) 
15.4218

>  <PUBCHEM_FEATURE_SELFOVERLAP>  (1) 
5.074

>  <PUBCHEM_SHAPE_FINGERPRINT>  (1) 
12897270 3 18194396929598208871
12932764 1 17676199156790476814
14325111 11 18338234972219469652
14390081 3 18272366503116575809
15775835 57 18410581720451134148
16945 1 18336257938622356364
193761 8 14735356751886336430
19973954 147 18337955700334011620
20653091 64 18115579486838834346
21040471 1 18193275410985087508
21501502 16 18336546130722293518
23402655 69 18341036442369872621
23552423 10 18261672666094338118
2748010 2 18410292553340827862
29004967 10 18114183016824510984
3248919 1 18338788004919292278
5084963 1 18127695039624602250
528886 8 18410849962844342666

>  <PUBCHEM_SHAPE_MULTIPOLES>  (1) 
189.96
4.22
1.67
0.67
1.04
0.18
0
-0.49
0.29
0.04
-0.04
-0.02
0
-0.26

>  <PUBCHEM_SHAPE_SELFOVERLAP>  (1) 
368.487

>  <PUBCHEM_SHAPE_VOLUME>  (1) 
115.3

>  <PUBCHEM_COORDINATE_TYPE>  (1) 
2
5
10

$$$$
