2156
     RDKit          3D

 31 33  0  0  0  0  0  0  0  0999 V2000
    2.6365    1.8933    2.6931 I   0  0  0  0  0  0  0  0  0  0  0  0
    2.2256   -0.4643   -2.9206 I   0  0  0  0  0  0  0  0  0  0  0  0
    3.5011    0.6329   -0.1582 O   0  0  0  0  0  0  0  0  0  0  0  0
   -4.7549   -1.3753   -0.5394 O   0  0  0  0  0  0  0  0  0  0  0  0
   -2.5749    2.2049    0.2258 O   0  0  0  0  0  0  0  0  0  0  0  0
    6.3255    0.2327   -0.2046 N   0  0  0  0  0  0  0  0  0  0  0  0
    5.3569   -0.8653   -0.4508 C   0  0  0  0  0  0  0  0  0  0  0  0
    7.3257    0.3846   -1.3239 C   0  0  0  0  0  0  0  0  0  0  0  0
    7.0154    0.1084    1.1314 C   0  0  0  0  0  0  0  0  0  0  0  0
    4.0766   -0.5831    0.3104 C   0  0  0  0  0  0  0  0  0  0  0  0
    8.2276   -0.8300   -1.3544 C   0  0  0  0  0  0  0  0  0  0  0  0
    7.8409    1.3512    1.3832 C   0  0  0  0  0  0  0  0  0  0  0  0
   -5.1030    0.9224   -1.1334 C   0  0  0  0  0  0  0  0  0  0  0  0
   -4.2336   -0.1209   -0.5683 C   0  0  0  0  0  0  0  0  0  0  0  0
   -2.9628   -0.1091   -0.0416 C   0  0  0  0  0  0  0  0  0  0  0  0
   -5.9956    1.5992   -0.0691 C   0  0  0  0  0  0  0  0  0  0  0  0
   -2.6755   -1.4459    0.3408 C   0  0  0  0  0  0  0  0  0  0  0  0
   -3.8082   -2.1845    0.0138 C   0  0  0  0  0  0  0  0  0  0  0  0
   -6.9284    2.6511   -0.6694 C   0  0  0  0  0  0  0  0  0  0  0  0
   -2.1292    1.0519    0.0778 C   0  0  0  0  0  0  0  0  0  0  0  0
    2.1403    0.7349   -0.1012 C   0  0  0  0  0  0  0  0  0  0  0  0
   -0.6392    0.9421    0.0152 C   0  0  0  0  0  0  0  0  0  0  0  0
   -1.5848   -2.1128    0.9258 C   0  0  0  0  0  0  0  0  0  0  0  0
    1.5267    1.2538    1.0389 C   0  0  0  0  0  0  0  0  0  0  0  0
    1.3642    0.3195   -1.1831 C   0  0  0  0  0  0  0  0  0  0  0  0
   -3.9365   -3.5553    0.2298 C   0  0  0  0  0  0  0  0  0  0  0  0
    0.1370    1.3573    1.0972 C   0  0  0  0  0  0  0  0  0  0  0  0
   -0.0256    0.4232   -1.1249 C   0  0  0  0  0  0  0  0  0  0  0  0
   -7.8230    3.2729    0.3910 C   0  0  0  0  0  0  0  0  0  0  0  0
   -1.6844   -3.4919    1.1557 C   0  0  0  0  0  0  0  0  0  0  0  0
   -2.8404   -4.1979    0.8131 C   0  0  0  0  0  0  0  0  0  0  0  0
  1 24  1  0
  2 25  1  0
  3 10  1  0
  3 21  1  0
  4 14  1  0
  4 18  1  0
  5 20  2  0
  6  7  1  0
  6  8  1  0
  6  9  1  0
  7 10  1  0
  8 11  1  0
  9 12  1  0
 13 14  1  0
 13 16  1  0
 14 15  2  0
 15 17  1  0
 15 20  1  0
 16 19  1  0
 17 18  2  0
 17 23  1  0
 18 26  1  0
 19 29  1  0
 20 22  1  0
 21 24  2  0
 21 25  1  0
 22 27  2  0
 22 28  1  0
 23 30  2  0
 24 27  1  0
 25 28  2  0
 26 31  2  0
 30 31  1  0
M  CHG  1   6   1
M  END
>  <PUBCHEM_COMPOUND_CID>  (1) 
2156

>  <PUBCHEM_CONFORMER_RMSD>  (1) 
1.4

>  <PUBCHEM_CONFORMER_DIVERSEORDER>  (1) 
1
29
32
14
7
9
27
24
30
33
15
16
28
3
20
5
26
4
18
11
23
12
13
19
17
25
10
22
6
2
8
31
21

>  <PUBCHEM_MMFF94_PARTIAL_CHARGES>  (1) 
32
1 -0.08
10 0.28
13 0.18
14 -0.04
15 -0.09
18 0.14
2 -0.08
20 0.57
21 0.08
22 0.09
23 -0.15
24 0.08
25 0.08
26 -0.15
27 -0.15
28 -0.15
3 -0.36
30 -0.15
31 -0.15
32 0.45
4 -0.28
5 -0.57
53 0.15
54 0.15
55 0.15
56 0.15
6 -0.96
60 0.15
61 0.15
7 0.5
8 0.5
9 0.5

>  <PUBCHEM_EFFECTIVE_ROTOR_COUNT>  (1) 
11

>  <PUBCHEM_PHARMACOPHORE_FEATURES>  (1) 
11
1 1 hydrophobe
1 2 hydrophobe
1 29 hydrophobe
1 3 acceptor
1 4 acceptor
1 5 acceptor
1 6 cation
1 6 donor
5 4 14 15 17 18 rings
6 17 18 23 26 30 31 rings
6 21 22 24 25 27 28 rings

>  <PUBCHEM_HEAVY_ATOM_COUNT>  (1) 
31

>  <PUBCHEM_ATOM_DEF_STEREO_COUNT>  (1) 
0

>  <PUBCHEM_ATOM_UDEF_STEREO_COUNT>  (1) 
0

>  <PUBCHEM_BOND_DEF_STEREO_COUNT>  (1) 
0

>  <PUBCHEM_BOND_UDEF_STEREO_COUNT>  (1) 
0

>  <PUBCHEM_ISOTOPIC_ATOM_COUNT>  (1) 
0

>  <PUBCHEM_COMPONENT_COUNT>  (1) 
1

>  <PUBCHEM_CACTVS_TAUTO_COUNT>  (1) 
1

>  <PUBCHEM_CONFORMER_ID>  (1) 
0000086C00000001

>  <PUBCHEM_MMFF94_ENERGY>  (1) 
77.5901

>  <PUBCHEM_FEATURE_SELFOVERLAP>  (1) 
55.923

>  <PUBCHEM_SHAPE_FINGERPRINT>  (1) 
10165383 225 18334857166079970581
10319926 262 18340193202417976872
10369192 42 13118289174325814474
10864689 126 18272088284616943770
10940486 97 18187368774122432909
11007060 377 18201445714329968633
11045977 3 18272928358222575912
11315181 36 17561083622330960433
11796584 16 18409731768283272542
12758862 11 18343862212511780136
13008946 113 17758113697312032433
13782708 43 18129664252513842750
14394314 77 18261105253538255000
14461889 52 18271237318836333194
14725015 67 18122345937595843731
150020 25 18272657862094773532
15021287 119 16443347589435148703
15183329 4 17313380162948590190
15230672 131 18261107427124470978
15361156 5 18130783490515193149
23516275 137 17751654151886096386
23559900 14 18339917212093689640
249057 3 18259705596779771005
335352 9 18410853249011711293
397830 11 18197210559360013688
4073 2 18411418436494913400
4144715 1 18193835066293054769
4403749 210 18059284487460562606
4625314 4 18335703867331992564
5265222 85 18262245537612266814
57527295 17 17987782056943174887
58083652 198 16200431382489933578
58902169 19 17530973492974316414
59755656 520 18336541634793653957
6009941 240 18412545414296258670
6371380 46 18341887481375664433
6677587 24 14684458585880542025
7226269 152 18343302540092788649
9862886 166 18410293653158488626

>  <PUBCHEM_SHAPE_MULTIPOLES>  (1) 
639.25
20.53
3.73
1.99
19.96
2.93
0.36
-9.46
2.91
-8.7
-1.94
2.74
-0.19
3.26

>  <PUBCHEM_SHAPE_SELFOVERLAP>  (1) 
1302.028

>  <PUBCHEM_SHAPE_VOLUME>  (1) 
379.6

>  <PUBCHEM_COORDINATE_TYPE>  (1) 
2
5
10

$$$$
