21579
     RDKit          3D

 13 14  0  0  0  0  0  0  0  0999 V2000
   -1.3205    2.3275    0.0012 O   0  0  0  0  0  0  0  0  0  0  0  0
   -3.3979    0.5579   -0.0002 N   0  0  0  0  0  0  0  0  0  0  0  0
   -0.1918   -2.9704    0.0014 N   0  0  0  0  0  0  0  0  0  0  0  0
    0.6873   -0.6701   -0.0005 C   0  0  0  0  0  0  0  0  0  0  0  0
    0.3642    0.6881   -0.0005 C   0  0  0  0  0  0  0  0  0  0  0  0
   -0.3819   -1.6872   -0.0003 C   0  0  0  0  0  0  0  0  0  0  0  0
   -1.0445    1.1321    0.0000 C   0  0  0  0  0  0  0  0  0  0  0  0
   -2.1136    0.0942   -0.0003 C   0  0  0  0  0  0  0  0  0  0  0  0
    2.0320   -1.0647   -0.0004 C   0  0  0  0  0  0  0  0  0  0  0  0
    1.3840    1.6489   -0.0003 C   0  0  0  0  0  0  0  0  0  0  0  0
   -1.7820   -1.2026   -0.0006 C   0  0  0  0  0  0  0  0  0  0  0  0
    3.0441   -0.1041    0.0002 C   0  0  0  0  0  0  0  0  0  0  0  0
    2.7207    1.2504    0.0002 C   0  0  0  0  0  0  0  0  0  0  0  0
  1  7  2  0
  2  8  1  0
  3  6  2  0
  4  5  2  0
  4  6  1  0
  4  9  1  0
  5  7  1  0
  5 10  1  0
  6 11  1  0
  7  8  1  0
  8 11  2  0
  9 12  2  0
 10 13  2  0
 12 13  1  0
M  END
>  <PUBCHEM_COMPOUND_CID>  (1) 
21579

>  <PUBCHEM_CONFORMER_RMSD>  (1) 
0.4

>  <PUBCHEM_CONFORMER_DIVERSEORDER>  (1) 
1

>  <PUBCHEM_MMFF94_PARTIAL_CHARGES>  (1) 
21
1 -0.57
10 -0.15
11 -0.14
12 -0.15
13 -0.15
14 0.15
15 0.15
16 0.15
17 0.15
18 0.15
19 0.4
2 -0.9
20 0.4
21 0.4
3 -0.85
4 0.09
5 0.09
6 0.35
7 0.47
8 0.11
9 -0.15

>  <PUBCHEM_EFFECTIVE_ROTOR_COUNT>  (1) 
0

>  <PUBCHEM_PHARMACOPHORE_FEATURES>  (1) 
7
1 1 acceptor
1 2 cation
1 2 donor
1 3 acceptor
1 3 donor
6 4 5 6 7 8 11 rings
6 4 5 9 10 12 13 rings

>  <PUBCHEM_HEAVY_ATOM_COUNT>  (1) 
13

>  <PUBCHEM_ATOM_DEF_STEREO_COUNT>  (1) 
0

>  <PUBCHEM_ATOM_UDEF_STEREO_COUNT>  (1) 
0

>  <PUBCHEM_BOND_DEF_STEREO_COUNT>  (1) 
0

>  <PUBCHEM_BOND_UDEF_STEREO_COUNT>  (1) 
0

>  <PUBCHEM_ISOTOPIC_ATOM_COUNT>  (1) 
0

>  <PUBCHEM_COMPONENT_COUNT>  (1) 
1

>  <PUBCHEM_CACTVS_TAUTO_COUNT>  (1) 
3

>  <PUBCHEM_CONFORMER_ID>  (1) 
0000544B00000001

>  <PUBCHEM_MMFF94_ENERGY>  (1) 
39.1939

>  <PUBCHEM_FEATURE_SELFOVERLAP>  (1) 
35.541

>  <PUBCHEM_SHAPE_FINGERPRINT>  (1) 
10967382 1 18410573967971594951
11471102 20 18338230458509606533
12382932 28 18267864067641601088
12423570 1 12651080763429449876
12524768 44 18341056327588274806
13140716 1 18410575110644120099
13380535 76 18341328972238883862
14325111 11 18410856589768078533
15775835 57 18408891749699240992
16945 1 18410855503394384832
193761 8 17617940231727964933
20510252 161 18272651216725864624
20588541 1 18341618165176723884
20645476 183 17895773901011192478
20871998 184 18056204810624454062
21501502 16 18267018547652933974
22802520 49 18127996250245277982
2334 1 18266740375337457219
23402539 116 18270668857178984246
23463225 33 18190738627111666770
23552423 10 17972879438936885740
23559900 14 18270971262718868556
241688 4 16465581561126227426
2748010 2 18338238283565427903
2897 32 18337673009992364988
5084963 1 18131068195185315464
528886 8 18411414029262414145
54173680 148 18193559084932715530
66348 1 18337110059965051650
7364860 26 17981323391643076727

>  <PUBCHEM_SHAPE_MULTIPOLES>  (1) 
251.7
4.04
2.45
0.6
0.22
0.77
0
-0.94
0
-0.44
0
0.03
0
0

>  <PUBCHEM_SHAPE_SELFOVERLAP>  (1) 
553.975

>  <PUBCHEM_SHAPE_VOLUME>  (1) 
134.4

>  <PUBCHEM_COORDINATE_TYPE>  (1) 
2
5
10

$$$$
