21570
     RDKit          3D

 25 26  0  0  0  0  0  0  0  0999 V2000
    0.5999    0.7593    1.3046 O   0  0  0  0  0  0  0  0  0  0  0  0
   -1.6701    0.3471   -0.0406 O   0  0  0  0  0  0  0  0  0  0  0  0
   -0.3689    1.2122   -1.7277 O   0  0  0  0  0  0  0  0  0  0  0  0
   -5.2745    0.9895   -0.4665 N   0  0  0  0  0  0  0  0  0  0  0  0
    0.6892   -0.0267    0.0988 C   0  0  0  0  0  0  0  0  0  0  0  0
    2.0539    0.1743   -0.5645 C   0  0  0  0  0  0  0  0  0  0  0  0
    0.4546   -1.5026    0.4282 C   0  0  0  0  0  0  0  0  0  0  0  0
   -0.4760    0.5986   -0.6725 C   0  0  0  0  0  0  0  0  0  0  0  0
    3.1796    0.4288    0.2190 C   0  0  0  0  0  0  0  0  0  0  0  0
   -0.1565   -2.3377   -0.5071 C   0  0  0  0  0  0  0  0  0  0  0  0
    2.1718    0.1035   -1.9527 C   0  0  0  0  0  0  0  0  0  0  0  0
    0.8516   -2.0128    1.6644 C   0  0  0  0  0  0  0  0  0  0  0  0
   -2.8347    0.8475   -0.6841 C   0  0  0  0  0  0  0  0  0  0  0  0
   -4.0508    0.4784    0.1502 C   0  0  0  0  0  0  0  0  0  0  0  0
    0.7597    2.1345    1.0190 C   0  0  0  0  0  0  0  0  0  0  0  0
    4.4231    0.6123   -0.3857 C   0  0  0  0  0  0  0  0  0  0  0  0
   -0.3705   -3.6829   -0.2064 C   0  0  0  0  0  0  0  0  0  0  0  0
    3.4154    0.2869   -2.5573 C   0  0  0  0  0  0  0  0  0  0  0  0
    0.6378   -3.3580    1.9649 C   0  0  0  0  0  0  0  0  0  0  0  0
    4.5409    0.5413   -1.7739 C   0  0  0  0  0  0  0  0  0  0  0  0
    0.0267   -4.1930    1.0297 C   0  0  0  0  0  0  0  0  0  0  0  0
    1.1467    2.8435    2.2743 C   0  0  0  0  0  0  0  0  0  0  0  0
   -5.6934    0.1219   -1.5667 C   0  0  0  0  0  0  0  0  0  0  0  0
   -6.3396    1.1028    0.5291 C   0  0  0  0  0  0  0  0  0  0  0  0
    2.2841    3.5313    2.4237 C   0  0  0  0  0  0  0  0  0  0  0  0
  1  5  1  0
  1 15  1  0
  2  8  1  0
  2 13  1  0
  3  8  2  0
  4 14  1  0
  4 23  1  0
  4 24  1  0
  5  6  1  0
  5  7  1  0
  5  8  1  0
  6  9  2  0
  6 11  1  0
  7 10  2  0
  7 12  1  0
  9 16  1  0
 10 17  1  0
 11 18  2  0
 12 19  2  0
 13 14  1  0
 15 22  1  0
 16 20  2  0
 17 21  2  0
 18 20  1  0
 19 21  1  0
 22 25  2  0
M  END
>  <PUBCHEM_COMPOUND_CID>  (1) 
21570

>  <PUBCHEM_CONFORMER_RMSD>  (1) 
1

>  <PUBCHEM_CONFORMER_DIVERSEORDER>  (1) 
1
31
26
10
3
17
24
18
23
14
8
22
36
25
5
37
19
28
34
15
21
11
30
12
29
13
27
6
33
2
9
32
20
7
4
16
35

>  <PUBCHEM_MMFF94_PARTIAL_CHARGES>  (1) 
38
1 -0.56
10 -0.15
11 -0.15
12 -0.15
13 0.28
14 0.27
15 0.42
16 -0.15
17 -0.15
18 -0.15
19 -0.15
2 -0.43
20 -0.15
21 -0.15
22 -0.29
23 0.27
24 0.27
25 -0.3
26 0.15
27 0.15
28 0.15
29 0.15
3 -0.57
36 0.15
37 0.15
38 0.15
39 0.15
4 -0.81
40 0.15
41 0.15
42 0.15
49 0.15
5 0.63
50 0.15
6 -0.14
7 -0.14
8 0.66
9 -0.15

>  <PUBCHEM_EFFECTIVE_ROTOR_COUNT>  (1) 
10

>  <PUBCHEM_PHARMACOPHORE_FEATURES>  (1) 
6
1 1 acceptor
1 25 hydrophobe
1 3 acceptor
1 4 cation
6 6 9 11 16 18 20 rings
6 7 10 12 17 19 21 rings

>  <PUBCHEM_HEAVY_ATOM_COUNT>  (1) 
25

>  <PUBCHEM_ATOM_DEF_STEREO_COUNT>  (1) 
0

>  <PUBCHEM_ATOM_UDEF_STEREO_COUNT>  (1) 
0

>  <PUBCHEM_BOND_DEF_STEREO_COUNT>  (1) 
0

>  <PUBCHEM_BOND_UDEF_STEREO_COUNT>  (1) 
0

>  <PUBCHEM_ISOTOPIC_ATOM_COUNT>  (1) 
0

>  <PUBCHEM_COMPONENT_COUNT>  (1) 
1

>  <PUBCHEM_CACTVS_TAUTO_COUNT>  (1) 
1

>  <PUBCHEM_CONFORMER_ID>  (1) 
0000544200000001

>  <PUBCHEM_MMFF94_ENERGY>  (1) 
77.8117

>  <PUBCHEM_FEATURE_SELFOVERLAP>  (1) 
30.446

>  <PUBCHEM_SHAPE_FINGERPRINT>  (1) 
10366900 7 18409728452995820585
10906281 52 17917160502189920424
11421498 54 18265907864905496217
11578080 2 17977116965499200116
12293681 160 18271259230989447632
12592029 89 17676775270987432914
12788726 201 18059031484022536360
13149001 5 18198916983546016080
133893 2 17174086135659959626
14943834 7 17476937752781173352
14955137 171 18196634216807624322
15775530 1 17838619216361920456
17980427 26 18127665271206598661
18681886 176 17749678501046996453
20567600 347 18260557679662854727
20600515 1 16529165841856378482
20602899 9 18117023042801338822
20832881 197 18202006503576787368
21054139 6 18336258042266496687
21421861 104 17977955583712039473
21521721 280 18336278910921795649
22393880 68 18270951432558768959
23419403 2 17697340738431750864
23558518 356 17908969247488154781
23559900 14 18340495560485802276
239999 70 17917418865899625061
298252 57 17531541956980020788
3250762 1 17839182162194356888
3380486 145 16685965017577068278
3380486 77 18336835208524653144
3633792 109 18189625951931108564
404807 78 17824269413758923179
5845 1 16240968936943908662
633830 44 18059560434861894437
70251023 43 17767139609148146127
81228 2 17684920693359524427

>  <PUBCHEM_SHAPE_MULTIPOLES>  (1) 
491.9
8.99
4.16
2.34
16.31
3.91
0.13
-6.2
-4.75
-1.08
3.91
-2.06
-0.91
0.74

>  <PUBCHEM_SHAPE_SELFOVERLAP>  (1) 
1028.914

>  <PUBCHEM_SHAPE_VOLUME>  (1) 
278.1

>  <PUBCHEM_COORDINATE_TYPE>  (1) 
2
5
10

$$$$
