21577
     RDKit          3D

 15 16  0  0  0  0  0  0  0  0999 V2000
    3.5399   -2.0354   -0.4911 Br  0  0  0  0  0  0  0  0  0  0  0  0
   -4.3164    0.2051   -0.1173 O   0  0  0  0  0  0  0  0  0  0  0  0
   -2.5442   -0.1971   -1.4793 O   0  0  0  0  0  0  0  0  0  0  0  0
    0.1944    0.4319    0.3141 C   0  0  0  0  0  0  0  0  0  0  0  0
   -0.7841   -0.5441    0.5641 C   0  0  0  0  0  0  0  0  0  0  0  0
    1.5111    0.0253   -0.0081 C   0  0  0  0  0  0  0  0  0  0  0  0
   -2.1955   -0.1836    0.9112 C   0  0  0  0  0  0  0  0  0  0  0  0
   -0.4689   -1.9016    0.4976 C   0  0  0  0  0  0  0  0  0  0  0  0
   -0.1052    1.8025    0.3765 C   0  0  0  0  0  0  0  0  0  0  0  0
    1.8105   -1.3454   -0.0707 C   0  0  0  0  0  0  0  0  0  0  0  0
    2.4894    1.0014   -0.2584 C   0  0  0  0  0  0  0  0  0  0  0  0
    0.8260   -2.3016    0.1811 C   0  0  0  0  0  0  0  0  0  0  0  0
    0.8792    2.7587    0.1252 C   0  0  0  0  0  0  0  0  0  0  0  0
    2.1741    2.3588   -0.1917 C   0  0  0  0  0  0  0  0  0  0  0  0
   -3.0103   -0.0750   -0.3533 C   0  0  0  0  0  0  0  0  0  0  0  0
  1 10  1  0
  2 15  1  0
  3 15  2  0
  4  5  2  0
  4  6  1  0
  4  9  1  0
  5  7  1  0
  5  8  1  0
  6 10  2  0
  6 11  1  0
  7 15  1  0
  8 12  2  0
  9 13  2  0
 10 12  1  0
 11 14  2  0
 13 14  1  0
M  END
>  <PUBCHEM_COMPOUND_CID>  (1) 
21577

>  <PUBCHEM_CONFORMER_RMSD>  (1) 
0.6

>  <PUBCHEM_CONFORMER_DIVERSEORDER>  (1) 
1
3
2
4

>  <PUBCHEM_MMFF94_PARTIAL_CHARGES>  (1) 
20
1 -0.11
10 0.11
11 -0.15
12 -0.15
13 -0.15
14 -0.15
15 0.66
18 0.15
19 0.15
2 -0.65
20 0.15
21 0.15
22 0.15
23 0.15
24 0.5
3 -0.57
5 -0.14
7 0.2
8 -0.15
9 -0.15

>  <PUBCHEM_EFFECTIVE_ROTOR_COUNT>  (1) 
2

>  <PUBCHEM_PHARMACOPHORE_FEATURES>  (1) 
6
1 1 hydrophobe
1 2 acceptor
1 3 acceptor
3 2 3 15 anion
6 4 5 6 8 10 12 rings
6 4 6 9 11 13 14 rings

>  <PUBCHEM_HEAVY_ATOM_COUNT>  (1) 
15

>  <PUBCHEM_ATOM_DEF_STEREO_COUNT>  (1) 
0

>  <PUBCHEM_ATOM_UDEF_STEREO_COUNT>  (1) 
0

>  <PUBCHEM_BOND_DEF_STEREO_COUNT>  (1) 
0

>  <PUBCHEM_BOND_UDEF_STEREO_COUNT>  (1) 
0

>  <PUBCHEM_ISOTOPIC_ATOM_COUNT>  (1) 
0

>  <PUBCHEM_COMPONENT_COUNT>  (1) 
1

>  <PUBCHEM_CACTVS_TAUTO_COUNT>  (1) 
1

>  <PUBCHEM_CONFORMER_ID>  (1) 
0000544900000001

>  <PUBCHEM_MMFF94_ENERGY>  (1) 
42.9385

>  <PUBCHEM_FEATURE_SELFOVERLAP>  (1) 
30.53

>  <PUBCHEM_SHAPE_FINGERPRINT>  (1) 
1 1 18265330788355771076
10967382 1 18410580604118054048
10989021 7 18341053999905754994
11206711 2 18119540833944495182
11471102 20 18409446977565084813
11578080 2 12615557467266951991
11680986 33 18338805614723218402
12423570 1 11498069124475463418
12654215 9 18333725797518807701
13140716 1 18051134988800724896
13380535 76 18192988455245017962
13897977 150 18336828722543403993
14181834 199 18261942050991266294
14614273 12 17688029029926810659
14617773 55 17916884416769029096
14911166 2 18336273344749681654
15219456 202 18188216502093236227
15490181 7 17763188342356680450
16945 1 18339653350888434696
18186145 218 18260543407781454975
193761 8 18122632922677361506
20645477 70 18411975871779236279
21029758 11 18339928108789365426
21041028 32 18269286677027614265
21501502 16 18119803866004751331
21524375 3 17973432492948027498
21639500 275 18338789126116740181
21947302 44 18336262439637293331
22112679 90 17703520886990690001
221490 88 18337116781985236507
2334 1 17618792796053841016
23388829 49 18268991986335969018
23402539 116 18124875664568627750
23419403 2 17535510085612000792
23559900 14 17982193394233059500
23598291 2 18131061637303076271
238 59 17830128650349429517
25 1 18336826502029676133
2748010 2 17834689557809858064
3071541 12 18411143566750928240
3071541 158 18260554411397964182
3071541 250 18340212890453011678
63268167 104 18341334473970514945
7364860 26 18342176691493191496
77492 1 17704080594486278787
7832392 63 18124595280423809609
81228 2 17907027170714441690
84936 182 18059292183688886833

>  <PUBCHEM_SHAPE_MULTIPOLES>  (1) 
302.9
5.12
2.92
0.87
3.13
1.24
0.13
-1.63
1.3
-2.46
-0.12
0.39
-0.11
0.11

>  <PUBCHEM_SHAPE_SELFOVERLAP>  (1) 
645.589

>  <PUBCHEM_SHAPE_VOLUME>  (1) 
173.2

>  <PUBCHEM_COORDINATE_TYPE>  (1) 
2
5
10

$$$$
