21589
     RDKit          3D

 14 15  0  0  0  0  0  0  0  0999 V2000
   -2.1597    0.1183   -1.2761 O   0  0  0  0  0  0  0  0  0  0  0  0
    1.4613   -2.0078   -0.2463 N   0  0  0  0  0  0  0  0  0  0  0  0
   -3.7379    0.4084    0.4039 N   0  0  0  0  0  0  0  0  0  0  0  0
   -4.7260    0.8005   -0.4756 N   0  0  0  0  0  0  0  0  0  0  0  0
   -0.1992   -0.7483    0.5174 C   0  0  0  0  0  0  0  0  0  0  0  0
    0.9329    0.0877    0.3071 C   0  0  0  0  0  0  0  0  0  0  0  0
    1.9608   -0.7271   -0.1721 C   0  0  0  0  0  0  0  0  0  0  0  0
   -1.5225   -0.3263    1.0195 C   0  0  0  0  0  0  0  0  0  0  0  0
    0.1567   -2.0307    0.1684 C   0  0  0  0  0  0  0  0  0  0  0  0
    1.1826    1.4638    0.4790 C   0  0  0  0  0  0  0  0  0  0  0  0
    3.2311   -0.2328   -0.4892 C   0  0  0  0  0  0  0  0  0  0  0  0
    2.4485    1.9723    0.1660 C   0  0  0  0  0  0  0  0  0  0  0  0
    3.4554    1.1353   -0.3106 C   0  0  0  0  0  0  0  0  0  0  0  0
   -2.4843    0.0866   -0.0914 C   0  0  0  0  0  0  0  0  0  0  0  0
  1 14  2  0
  2  7  1  0
  2  9  1  0
  3  4  1  0
  3 14  1  0
  5  6  1  0
  5  8  1  0
  5  9  2  0
  6  7  2  0
  6 10  1  0
  7 11  1  0
  8 14  1  0
 10 12  2  0
 11 13  2  0
 12 13  1  0
M  END
>  <PUBCHEM_COMPOUND_CID>  (1) 
21589

>  <PUBCHEM_CONFORMER_RMSD>  (1) 
0.6

>  <PUBCHEM_CONFORMER_DIVERSEORDER>  (1) 
1
11
13
5
14
15
6
3
9
10
12
7
4
2
8

>  <PUBCHEM_MMFF94_PARTIAL_CHARGES>  (1) 
22
1 -0.57
10 -0.15
11 -0.15
12 -0.15
13 -0.15
14 0.57
17 0.15
18 0.27
19 0.15
2 0.03
20 0.15
21 0.15
22 0.15
23 0.37
24 0.36
25 0.36
3 -0.42
4 -0.73
5 -0.18
7 -0.15
8 0.24
9 -0.3

>  <PUBCHEM_EFFECTIVE_ROTOR_COUNT>  (1) 
3

>  <PUBCHEM_PHARMACOPHORE_FEATURES>  (1) 
7
1 1 acceptor
1 2 cation
1 2 donor
1 3 donor
1 4 donor
5 2 5 6 7 9 rings
6 6 7 10 11 12 13 rings

>  <PUBCHEM_HEAVY_ATOM_COUNT>  (1) 
14

>  <PUBCHEM_ATOM_DEF_STEREO_COUNT>  (1) 
0

>  <PUBCHEM_ATOM_UDEF_STEREO_COUNT>  (1) 
0

>  <PUBCHEM_BOND_DEF_STEREO_COUNT>  (1) 
0

>  <PUBCHEM_BOND_UDEF_STEREO_COUNT>  (1) 
0

>  <PUBCHEM_ISOTOPIC_ATOM_COUNT>  (1) 
0

>  <PUBCHEM_COMPONENT_COUNT>  (1) 
1

>  <PUBCHEM_CACTVS_TAUTO_COUNT>  (1) 
2

>  <PUBCHEM_CONFORMER_ID>  (1) 
0000545500000001

>  <PUBCHEM_MMFF94_ENERGY>  (1) 
22.0814

>  <PUBCHEM_FEATURE_SELFOVERLAP>  (1) 
37.124

>  <PUBCHEM_SHAPE_FINGERPRINT>  (1) 
1 1 18410011044094231446
10608611 8 18335986475119610137
11031198 65 18410017628078395831
11401426 45 18202844366350603672
11471102 20 18411419488144858620
12251169 10 11025800903007755145
12654215 9 18409169900645545200
12730499 353 18334301946624213083
14251717 144 18341895164633988327
14415576 193 18408888425436888485
14911166 2 18341344335700664862
15219456 202 18261682544545557883
15279308 100 18265904729652781252
15775835 57 18341332270562582445
16945 1 18341908389360564762
18186145 218 18343310279016979992
20606313 2 18411138017605533560
20645477 70 18341894035548511935
20820808 20 18412824694122629778
21119208 17 17418096515963005517
21524375 3 18335135444482414562
21639500 275 18412536626318391468
21947302 44 18335421244480493506
22289505 5 18265042540764676925
231179 274 17968090915205241877
23402539 116 18271236214196365804
23402655 69 18343865502651478349
25 1 18410012134741319130
2748010 2 18053961816110533578
276578 36 16515681139195233152
3060560 45 18343301444348562262
4047638 21 18259706691890305896
4072396 5 18337096888012563722
528886 8 18341332270757741738
63268167 104 18272095997728808992
77492 1 17417820500037356403
81228 2 17470160822416115202
8272917 22 18129107715104551191

>  <PUBCHEM_SHAPE_MULTIPOLES>  (1) 
267.3
6.38
1.85
0.86
5.91
0.37
-0.03
-3.02
-1.3
-1.14
0.07
0.31
-0.02
0.33

>  <PUBCHEM_SHAPE_SELFOVERLAP>  (1) 
577.551

>  <PUBCHEM_SHAPE_VOLUME>  (1) 
147.7

>  <PUBCHEM_COORDINATE_TYPE>  (1) 
2
5
10

$$$$
