21587
     RDKit          3D

 12 11  0  0  0  0  0  0  0  0999 V2000
   -1.8461   -1.1538    0.1953 O   0  0  0  0  0  0  0  0  0  0  0  0
   -1.4940    1.1785    0.1255 O   0  0  0  0  0  0  0  0  0  0  0  0
    2.6993   -0.7452    0.3414 O   0  0  0  0  0  0  0  0  0  0  0  0
   -0.9831   -0.1022   -0.2584 C   0  0  0  0  0  0  0  0  0  0  0  0
    0.3414   -0.3100    0.4182 C   0  0  0  0  0  0  0  0  0  0  0  0
   -3.1448   -1.0702   -0.3775 C   0  0  0  0  0  0  0  0  0  0  0  0
   -0.6320    2.2482   -0.2422 C   0  0  0  0  0  0  0  0  0  0  0  0
   -3.9905   -2.2098    0.1493 C   0  0  0  0  0  0  0  0  0  0  0  0
   -1.2517    3.5559    0.2021 C   0  0  0  0  0  0  0  0  0  0  0  0
    1.4783   -0.5524   -0.2447 C   0  0  0  0  0  0  0  0  0  0  0  0
    3.7502   -0.3084   -0.5053 C   0  0  0  0  0  0  0  0  0  0  0  0
    5.0731   -0.5305    0.1961 C   0  0  0  0  0  0  0  0  0  0  0  0
  1  4  1  0
  1  6  1  0
  2  4  1  0
  2  7  1  0
  3 10  1  0
  3 11  1  0
  4  5  1  0
  5 10  2  0
  6  8  1  0
  7  9  1  0
 11 12  1  0
M  END
>  <PUBCHEM_COMPOUND_CID>  (1) 
21587

>  <PUBCHEM_CONFORMER_RMSD>  (1) 
0.8

>  <PUBCHEM_CONFORMER_DIVERSEORDER>  (1) 
1
16
8
17
25
27
21
13
24
29
14
10
12
18
23
7
5
26
20
3
19
6
11
28
9
22
4
2
15

>  <PUBCHEM_MMFF94_PARTIAL_CHARGES>  (1) 
11
1 -0.56
10 -0.07
11 0.28
14 0.15
2 -0.56
25 0.15
3 -0.36
4 0.7
5 -0.29
6 0.28
7 0.28

>  <PUBCHEM_EFFECTIVE_ROTOR_COUNT>  (1) 
7

>  <PUBCHEM_PHARMACOPHORE_FEATURES>  (1) 
3
1 1 acceptor
1 2 acceptor
1 3 acceptor

>  <PUBCHEM_HEAVY_ATOM_COUNT>  (1) 
12

>  <PUBCHEM_ATOM_DEF_STEREO_COUNT>  (1) 
0

>  <PUBCHEM_ATOM_UDEF_STEREO_COUNT>  (1) 
0

>  <PUBCHEM_BOND_DEF_STEREO_COUNT>  (1) 
0

>  <PUBCHEM_BOND_UDEF_STEREO_COUNT>  (1) 
1

>  <PUBCHEM_ISOTOPIC_ATOM_COUNT>  (1) 
0

>  <PUBCHEM_COMPONENT_COUNT>  (1) 
1

>  <PUBCHEM_CACTVS_TAUTO_COUNT>  (1) 
1

>  <PUBCHEM_CONFORMER_ID>  (1) 
0000545300000001

>  <PUBCHEM_MMFF94_ENERGY>  (1) 
18.4968

>  <PUBCHEM_FEATURE_SELFOVERLAP>  (1) 
15.262

>  <PUBCHEM_SHAPE_FINGERPRINT>  (1) 
10989021 7 18339926038072037168
12841375 25 18338797926689462823
1741750 31 17982729675942560120
187816 3 17967812777428923283
200 152 18040432217787685550
20645477 56 18196658389252395496
20671657 53 18268153235163188439
20711985 327 18270407216772865367
20711985 344 18339064991987475225
20871998 184 18201719518188541983
20871999 31 18261662723725050679
21339142 36 18409157827439573085
21426921 1 18339081484709429340
21524375 3 17539977169295954073
22182937 141 18057607568824677616
23380061 127 18337105679610184126
23402539 116 18409162216685594574
23557571 272 18200602401816971132
23598294 1 18338224969045543443
3071541 250 18265338498128126517
3250762 1 17840038338028754847
58734987 43 18194404613484358487
68521 5 18410011018387627317
7364860 26 17907579482207859245
81228 2 18337122154877988809

>  <PUBCHEM_SHAPE_MULTIPOLES>  (1) 
229.35
7.78
3
0.68
8.12
3.91
-0.02
-5.96
0.02
-3.67
0.2
0.07
-0.02
-0.05

>  <PUBCHEM_SHAPE_SELFOVERLAP>  (1) 
416.911

>  <PUBCHEM_SHAPE_VOLUME>  (1) 
147

>  <PUBCHEM_COORDINATE_TYPE>  (1) 
2
5
10

$$$$
