21585
     RDKit          3D

 11 11  0  0  0  0  0  0  0  0999 V2000
    1.7230    0.2295   -1.8439 Br  0  0  0  0  0  0  0  0  0  0  0  0
    4.2273    0.0002   -0.0330 O   0  0  0  0  0  0  0  0  0  0  0  0
   -0.6173   -0.0546    0.4484 C   0  0  0  0  0  0  0  0  0  0  0  0
   -1.2823    1.1700    0.3866 C   0  0  0  0  0  0  0  0  0  0  0  0
   -1.2940   -1.2324    0.1318 C   0  0  0  0  0  0  0  0  0  0  0  0
    0.7821   -0.1031    0.8424 C   0  0  0  0  0  0  0  0  0  0  0  0
   -2.6241    1.2168    0.0084 C   0  0  0  0  0  0  0  0  0  0  0  0
   -2.6358   -1.1857   -0.2466 C   0  0  0  0  0  0  0  0  0  0  0  0
   -3.3008    0.0389   -0.3083 C   0  0  0  0  0  0  0  0  0  0  0  0
    1.8339   -0.0045    0.0022 C   0  0  0  0  0  0  0  0  0  0  0  0
    3.1879   -0.0751    0.6120 C   0  0  0  0  0  0  0  0  0  0  0  0
  1 10  1  0
  2 11  2  0
  3  4  2  0
  3  5  1  0
  3  6  1  0
  4  7  1  0
  5  8  2  0
  6 10  2  0
  7  9  2  0
  8  9  1  0
 10 11  1  0
M  END
>  <PUBCHEM_COMPOUND_CID>  (1) 
21585

>  <PUBCHEM_CONFORMER_RMSD>  (1) 
0.4

>  <PUBCHEM_CONFORMER_DIVERSEORDER>  (1) 
1
2
3

>  <PUBCHEM_MMFF94_PARTIAL_CHARGES>  (1) 
18
1 -0.11
10 0.12
11 0.5
12 0.15
13 0.15
14 0.15
15 0.15
16 0.15
17 0.15
18 0.06
2 -0.57
3 0.03
4 -0.15
5 -0.15
6 -0.18
7 -0.15
8 -0.15
9 -0.15

>  <PUBCHEM_EFFECTIVE_ROTOR_COUNT>  (1) 
2

>  <PUBCHEM_PHARMACOPHORE_FEATURES>  (1) 
3
1 1 hydrophobe
1 2 acceptor
6 3 4 5 7 8 9 rings

>  <PUBCHEM_HEAVY_ATOM_COUNT>  (1) 
11

>  <PUBCHEM_ATOM_DEF_STEREO_COUNT>  (1) 
0

>  <PUBCHEM_ATOM_UDEF_STEREO_COUNT>  (1) 
0

>  <PUBCHEM_BOND_DEF_STEREO_COUNT>  (1) 
0

>  <PUBCHEM_BOND_UDEF_STEREO_COUNT>  (1) 
1

>  <PUBCHEM_ISOTOPIC_ATOM_COUNT>  (1) 
0

>  <PUBCHEM_COMPONENT_COUNT>  (1) 
1

>  <PUBCHEM_CACTVS_TAUTO_COUNT>  (1) 
1

>  <PUBCHEM_CONFORMER_ID>  (1) 
0000545100000001

>  <PUBCHEM_MMFF94_ENERGY>  (1) 
26.634

>  <PUBCHEM_FEATURE_SELFOVERLAP>  (1) 
15.223

>  <PUBCHEM_SHAPE_FINGERPRINT>  (1) 
10219947 1 16588021290958354834
11062470 55 18202280307857724624
12716758 59 18200605682950347959
13024252 1 17894348882786848979
14325111 11 18411415077350550418
14993402 34 17458341944548812158
15219456 202 17203056192023237469
15775835 57 18260266300464886833
16945 1 18412554210346946475
18175812 5 17704065231214349904
20201158 50 17275106123855450462
20279233 1 17418379086087649111
20645464 45 17775288261614419795
20645476 183 17821720650741217059
20645477 70 15338283328980870429
20653085 51 16081083814114595287
21061003 4 16200434705713237698
21119208 17 17967246498922884983
23402539 116 18201990010997361925
23552423 10 18189050898264494299
23557571 272 18131638880396221581
23559900 14 18272646819338236098
3248919 1 17749398065362342810
57812782 119 18060134340991596226
581208 293 15123509203367481012
6333449 129 18201716249950479481
74978 22 16660936576922084394
77492 1 17894348877911580856

>  <PUBCHEM_SHAPE_MULTIPOLES>  (1) 
226.45
6
1.17
1.15
3.09
0.42
-0.04
0.16
-0.1
0.41
-0.24
-0.61
0.11
-0.76

>  <PUBCHEM_SHAPE_SELFOVERLAP>  (1) 
454.006

>  <PUBCHEM_SHAPE_VOLUME>  (1) 
135.6

>  <PUBCHEM_COORDINATE_TYPE>  (1) 
2
5
10

$$$$
