21591
     RDKit          3D

 24 25  0  0  0  0  0  0  0  0999 V2000
    1.6498   -0.6052    0.2505 O   0  0  0  0  0  0  0  0  0  0  0  0
    0.6373    1.3656    0.8937 O   0  0  0  0  0  0  0  0  0  0  0  0
    5.3041   -0.3738   -0.1723 N   0  0  0  0  0  0  0  0  0  0  0  0
    3.9774   -0.9886   -0.1456 C   0  0  0  0  0  0  0  0  0  0  0  0
    5.6424    0.1688    1.1429 C   0  0  0  0  0  0  0  0  0  0  0  0
    6.3096   -1.3465   -0.5980 C   0  0  0  0  0  0  0  0  0  0  0  0
    2.9217    0.0297    0.2545 C   0  0  0  0  0  0  0  0  0  0  0  0
    6.9923    0.8656    1.1185 C   0  0  0  0  0  0  0  0  0  0  0  0
    5.9739   -1.9213   -1.9637 C   0  0  0  0  0  0  0  0  0  0  0  0
   -1.8748   -0.2150    0.1907 C   0  0  0  0  0  0  0  0  0  0  0  0
   -2.0072    1.2296   -0.1385 C   0  0  0  0  0  0  0  0  0  0  0  0
   -3.0387   -1.1288    0.1410 C   0  0  0  0  0  0  0  0  0  0  0  0
   -0.6387   -0.6516    0.5146 C   0  0  0  0  0  0  0  0  0  0  0  0
    0.5888    0.1848    0.5916 C   0  0  0  0  0  0  0  0  0  0  0  0
   -2.3059    2.1169    0.8736 C   0  0  0  0  0  0  0  0  0  0  0  0
   -3.3269   -1.7853   -1.0407 C   0  0  0  0  0  0  0  0  0  0  0  0
   -1.8268    1.6330   -1.4445 C   0  0  0  0  0  0  0  0  0  0  0  0
   -3.8061   -1.3013    1.2774 C   0  0  0  0  0  0  0  0  0  0  0  0
   -2.4304    3.4716    0.5651 C   0  0  0  0  0  0  0  0  0  0  0  0
   -4.4234   -2.6460   -1.0878 C   0  0  0  0  0  0  0  0  0  0  0  0
   -1.9512    2.9876   -1.7529 C   0  0  0  0  0  0  0  0  0  0  0  0
   -4.9028   -2.1621    1.2302 C   0  0  0  0  0  0  0  0  0  0  0  0
   -2.2530    3.9068   -0.7480 C   0  0  0  0  0  0  0  0  0  0  0  0
   -5.2113   -2.8345    0.0476 C   0  0  0  0  0  0  0  0  0  0  0  0
  1  7  1  0
  1 14  1  0
  2 14  2  0
  3  4  1  0
  3  5  1  0
  3  6  1  0
  4  7  1  0
  5  8  1  0
  6  9  1  0
 10 11  1  0
 10 12  1  0
 10 13  2  3
 11 15  2  0
 11 17  1  0
 12 16  2  0
 12 18  1  0
 13 14  1  0
 15 19  1  0
 16 20  1  0
 17 21  2  0
 18 22  2  0
 19 23  2  0
 20 24  2  0
 21 23  1  0
 22 24  1  0
M  END
>  <PUBCHEM_COMPOUND_CID>  (1) 
21591

>  <PUBCHEM_CONFORMER_RMSD>  (1) 
1

>  <PUBCHEM_CONFORMER_DIVERSEORDER>  (1) 
1
43
28
42
34
32
22
29
47
33
3
26
45
5
25
23
11
30
31
48
38
4
14
44
16
49
40
18
24
46
41
7
6
12
9
8
27
50
20
35
54
10
51
2
13
19
53
15
36
39
37
17
21
52

>  <PUBCHEM_MMFF94_PARTIAL_CHARGES>  (1) 
33
1 -0.43
10 -0.06
11 0.03
12 0.03
13 -0.14
14 0.71
15 -0.15
16 -0.15
17 -0.15
18 -0.15
19 -0.15
2 -0.57
20 -0.15
21 -0.15
22 -0.15
23 -0.15
24 -0.15
3 -0.81
39 0.15
4 0.27
40 0.15
41 0.15
42 0.15
43 0.15
44 0.15
45 0.15
46 0.15
47 0.15
48 0.15
49 0.15
5 0.27
6 0.27
7 0.28

>  <PUBCHEM_EFFECTIVE_ROTOR_COUNT>  (1) 
9

>  <PUBCHEM_PHARMACOPHORE_FEATURES>  (1) 
4
1 2 acceptor
1 3 cation
6 11 15 17 19 21 23 rings
6 12 16 18 20 22 24 rings

>  <PUBCHEM_HEAVY_ATOM_COUNT>  (1) 
24

>  <PUBCHEM_ATOM_DEF_STEREO_COUNT>  (1) 
0

>  <PUBCHEM_ATOM_UDEF_STEREO_COUNT>  (1) 
0

>  <PUBCHEM_BOND_DEF_STEREO_COUNT>  (1) 
0

>  <PUBCHEM_BOND_UDEF_STEREO_COUNT>  (1) 
0

>  <PUBCHEM_ISOTOPIC_ATOM_COUNT>  (1) 
0

>  <PUBCHEM_COMPONENT_COUNT>  (1) 
1

>  <PUBCHEM_CACTVS_TAUTO_COUNT>  (1) 
1

>  <PUBCHEM_CONFORMER_ID>  (1) 
0000545700000001

>  <PUBCHEM_MMFF94_ENERGY>  (1) 
70.4137

>  <PUBCHEM_FEATURE_SELFOVERLAP>  (1) 
20.297

>  <PUBCHEM_SHAPE_FINGERPRINT>  (1) 
11056379 131 18408889503310155818
11069576 57 16761105612666381719
11101153 10 18188496899302733244
11545043 162 18271805675742110114
11809386 21 18334571296565758586
12788726 201 18187069664094563403
13073987 5 18335130974349842210
13673619 4 18202008754266374762
13690498 29 18412554188925195838
14347332 77 18408886248067505662
14508225 48 18335412517613616677
14556957 393 17603878809554184935
14713325 29 18340771425259245377
15131766 46 15552164930752083177
15463212 79 17824257103364105761
16087824 20 18263640681542531453
17844677 252 18411985746093347624
1813 80 18268163122415358983
20101258 96 18334868220481732721
21304303 172 18342462543822402689
2132832 1 17967819383347087948
21426921 1 18336827502757017033
22393880 68 18268149769515373566
23081809 10 17603872153409916306
23402539 116 18261110798636400691
249057 25 17167860855927332052
283562 15 18261385646541903483
44062 13 18339083662278928134
497634 4 17918002676092342032
5104073 3 18201154352802350538
531348 171 18191307070460485610
5969126 39 18337943580189529565
59755656 520 18055074255448075921
7237137 82 18335138678629601380
77188 2 18267024054234199745

>  <PUBCHEM_SHAPE_MULTIPOLES>  (1) 
477.19
15.32
4.07
1.48
31.92
3.33
-0.43
-11.05
0.36
-7.12
-1.2
0.33
0.04
2.16

>  <PUBCHEM_SHAPE_SELFOVERLAP>  (1) 
995.743

>  <PUBCHEM_SHAPE_VOLUME>  (1) 
272.1

>  <PUBCHEM_COORDINATE_TYPE>  (1) 
2
5
10

$$$$
