21601
     RDKit          3D

 15 17  0  0  1  0  0  0  0  0999 V2000
    3.8257    0.9225    0.6196 O   0  0  0  0  0  0  0  0  0  0  0  0
    0.5093    2.1766   -0.4892 O   0  0  0  0  0  0  0  0  0  0  0  0
    0.1835   -2.4397   -0.2659 O   0  0  0  0  0  0  0  0  0  0  0  0
    0.7653   -0.1646   -0.4669 N   0  0  0  0  0  0  0  0  0  0  0  0
    3.0080   -0.2339    0.5174 C   0  0  0  0  0  0  0  0  0  0  0  0
    2.1819   -0.2771   -0.7515 C   0  0  0  0  0  0  0  0  0  0  0  0
    4.4869   -0.3377    0.4473 C   0  0  0  0  0  0  0  0  0  0  0  0
    0.0967    1.0378   -0.3715 C   0  0  0  0  0  0  0  0  0  0  0  0
   -0.0626   -1.2479   -0.2614 C   0  0  0  0  0  0  0  0  0  0  0  0
   -1.2960    0.6937   -0.0872 C   0  0  0  0  0  0  0  0  0  0  0  0
   -1.3923   -0.6884   -0.0206 C   0  0  0  0  0  0  0  0  0  0  0  0
   -2.3911    1.5118    0.1004 C   0  0  0  0  0  0  0  0  0  0  0  0
   -2.5888   -1.3253    0.2371 C   0  0  0  0  0  0  0  0  0  0  0  0
   -3.6143    0.8885    0.3623 C   0  0  0  0  0  0  0  0  0  0  0  0
   -3.7123   -0.5163    0.4303 C   0  0  0  0  0  0  0  0  0  0  0  0
  1  5  1  0
  1  7  1  0
  2  8  2  0
  3  9  2  0
  4  6  1  0
  4  8  1  0
  4  9  1  0
  5  6  1  0
  5  7  1  0
  8 10  1  0
  9 11  1  0
 10 11  2  0
 10 12  1  0
 11 13  1  0
 12 14  2  0
 13 15  2  0
 14 15  1  0
M  END
>  <PUBCHEM_COMPOUND_CID>  (1) 
21601

>  <PUBCHEM_CONFORMER_RMSD>  (1) 
0.6

>  <PUBCHEM_CONFORMER_DIVERSEORDER>  (1) 
1
5
3
4
2

>  <PUBCHEM_MMFF94_PARTIAL_CHARGES>  (1) 
22
1 -0.3
10 0.09
11 0.09
12 -0.15
13 -0.15
14 -0.15
15 -0.15
16 0.1
19 0.1
2 -0.57
20 0.1
21 0.15
22 0.15
23 0.15
24 0.15
3 -0.57
4 -0.42
5 -0.05
6 0.4
7 -0.05
8 0.54
9 0.54

>  <PUBCHEM_EFFECTIVE_ROTOR_COUNT>  (1) 
2.8

>  <PUBCHEM_PHARMACOPHORE_FEATURES>  (1) 
5
1 1 acceptor
1 2 acceptor
1 3 acceptor
5 4 8 9 10 11 rings
6 10 11 12 13 14 15 rings

>  <PUBCHEM_HEAVY_ATOM_COUNT>  (1) 
15

>  <PUBCHEM_ATOM_DEF_STEREO_COUNT>  (1) 
0

>  <PUBCHEM_ATOM_UDEF_STEREO_COUNT>  (1) 
1

>  <PUBCHEM_BOND_DEF_STEREO_COUNT>  (1) 
0

>  <PUBCHEM_BOND_UDEF_STEREO_COUNT>  (1) 
0

>  <PUBCHEM_ISOTOPIC_ATOM_COUNT>  (1) 
0

>  <PUBCHEM_COMPONENT_COUNT>  (1) 
1

>  <PUBCHEM_CACTVS_TAUTO_COUNT>  (1) 
1

>  <PUBCHEM_CONFORMER_ID>  (1) 
0000546100000001

>  <PUBCHEM_MMFF94_ENERGY>  (1) 
33.4724

>  <PUBCHEM_FEATURE_SELFOVERLAP>  (1) 
25.464

>  <PUBCHEM_SHAPE_FINGERPRINT>  (1) 
11132069 177 18408608032749471989
11401426 45 18411132533412208229
12119455 92 17346875629009890950
12251169 10 18335140903306512032
12382932 28 18337956671197106705
124424 183 17748824120672263357
13140716 1 18266188412311098227
13214271 11 18341889688550601725
13380535 76 18409169883576653655
14178342 30 18266755605571005553
15209294 21 17916597436034485721
15219456 202 18059580135528572214
15375462 189 17821722832425958424
15536298 74 18271248192565015094
16945 1 18337688450853429367
17804303 29 18412548729705153560
17846911 113 18341610395401511488
18186145 218 17703522003703266022
193761 8 17762623188868674007
200 152 18201428204196032711
20510252 161 18272654523665780328
21501502 16 18194125350352729269
21501925 9 18336828692515569157
2334 1 17978239575518375823
23380061 330 18411982481274721935
23402539 116 18343009008599377375
23463225 33 18333452023576597382
23559900 14 18270415901560598998
2748010 2 17976553714950068871
34934 24 18337948983664498245
4072396 5 18262507109736713091
43471831 8 18261671467809590402
53812653 166 18343301440090290545
69090 78 17918269865786565799
7364860 26 17983579606662420174
84936 31 16485564287619360174
90316 7 17894907374074217428

>  <PUBCHEM_SHAPE_MULTIPOLES>  (1) 
286.1
6.91
1.83
0.76
4.3
0.12
0
-0.4
-2.03
-0.57
0.17
0.21
-0.02
0.09

>  <PUBCHEM_SHAPE_SELFOVERLAP>  (1) 
629.05

>  <PUBCHEM_SHAPE_VOLUME>  (1) 
155.7

>  <PUBCHEM_COORDINATE_TYPE>  (1) 
2
5
10

$$$$
