21608
     RDKit          3D

 12 11  0  0  0  0  0  0  0  0999 V2000
   -1.8730    0.9576    1.1988 O   0  0  0  0  0  0  0  0  0  0  0  0
   -1.2441   -0.3198   -0.6415 N   0  0  0  0  0  0  0  0  0  0  0  0
    1.8178    0.5012    0.0692 C   0  0  0  0  0  0  0  0  0  0  0  0
    0.7588   -0.3732    0.8129 C   0  0  0  0  0  0  0  0  0  0  0  0
   -0.3121   -1.1999    0.0428 C   0  0  0  0  0  0  0  0  0  0  0  0
    2.2961    1.6842    0.9311 C   0  0  0  0  0  0  0  0  0  0  0  0
    1.1200    1.1042   -1.1743 C   0  0  0  0  0  0  0  0  0  0  0  0
    3.0322   -0.3003   -0.4181 C   0  0  0  0  0  0  0  0  0  0  0  0
    0.2820   -2.1891   -0.9632 C   0  0  0  0  0  0  0  0  0  0  0  0
   -1.1210   -2.0046    1.0809 C   0  0  0  0  0  0  0  0  0  0  0  0
   -1.9406    0.6814    0.0039 C   0  0  0  0  0  0  0  0  0  0  0  0
   -2.8162    1.4584   -0.9424 C   0  0  0  0  0  0  0  0  0  0  0  0
  1 11  2  0
  2  5  1  0
  2 11  1  0
  3  4  1  0
  3  6  1  0
  3  7  1  0
  3  8  1  0
  4  5  1  0
  5  9  1  0
  5 10  1  0
 11 12  1  0
M  END
>  <PUBCHEM_COMPOUND_CID>  (1) 
21608

>  <PUBCHEM_CONFORMER_RMSD>  (1) 
0.6

>  <PUBCHEM_CONFORMER_DIVERSEORDER>  (1) 
1
4
3
2
5

>  <PUBCHEM_MMFF94_PARTIAL_CHARGES>  (1) 
6
1 -0.57
11 0.57
12 0.06
2 -0.73
30 0.37
5 0.3

>  <PUBCHEM_EFFECTIVE_ROTOR_COUNT>  (1) 
4

>  <PUBCHEM_PHARMACOPHORE_FEATURES>  (1) 
4
1 1 acceptor
1 2 donor
3 5 9 10 hydrophobe
4 3 6 7 8 hydrophobe

>  <PUBCHEM_HEAVY_ATOM_COUNT>  (1) 
12

>  <PUBCHEM_ATOM_DEF_STEREO_COUNT>  (1) 
0

>  <PUBCHEM_ATOM_UDEF_STEREO_COUNT>  (1) 
0

>  <PUBCHEM_BOND_DEF_STEREO_COUNT>  (1) 
0

>  <PUBCHEM_BOND_UDEF_STEREO_COUNT>  (1) 
0

>  <PUBCHEM_ISOTOPIC_ATOM_COUNT>  (1) 
0

>  <PUBCHEM_COMPONENT_COUNT>  (1) 
1

>  <PUBCHEM_CACTVS_TAUTO_COUNT>  (1) 
2

>  <PUBCHEM_CONFORMER_ID>  (1) 
0000546800000001

>  <PUBCHEM_MMFF94_ENERGY>  (1) 
41.9798

>  <PUBCHEM_FEATURE_SELFOVERLAP>  (1) 
20.297

>  <PUBCHEM_SHAPE_FINGERPRINT>  (1) 
1 1 18340762628976416783
100427 49 16968016125542593351
12138202 97 18128241475639968348
12326174 3 17903352611344342571
12423570 1 17692214505716667647
12932764 1 17914063255158788624
13839132 238 18268983362099985624
14817 1 11002414771673843739
15775835 57 18408879612021630725
16945 1 18057603170424036502
19837323 101 18271527614504711979
19973954 147 18195810893267588240
20511035 2 18408886265242314494
20653085 51 17632588140376274073
207724 885 18041001717729315374
21028194 46 18410293609860487053
21040471 1 18333447646857210164
21041028 32 17407418939497053289
21524375 3 18337099090755760245
21922407 69 16807014470367759496
23235685 24 18336265656531089109
25 1 18268715999958320853
2748010 2 18341618173808863020
369184 2 17702672214306253370
5084963 1 18261681453444314939
63268167 104 18196370312404217393
81228 2 18048036569080686435

>  <PUBCHEM_SHAPE_MULTIPOLES>  (1) 
236.1
3.77
2.18
1.25
0.43
0.78
-0.04
-1.99
0.18
-0.52
0.05
-0.08
-0.03
0.62

>  <PUBCHEM_SHAPE_SELFOVERLAP>  (1) 
445.511

>  <PUBCHEM_SHAPE_VOLUME>  (1) 
148.5

>  <PUBCHEM_COORDINATE_TYPE>  (1) 
2
5
10

$$$$
