21605
     RDKit          3D

 14 14  0  0  0  0  0  0  0  0999 V2000
    0.1306    0.1236    0.9036 N   0  0  0  0  0  0  0  0  0  0  0  0
    0.9437    0.1348   -0.0469 N   0  0  0  0  0  0  0  0  0  0  0  0
    3.3523   -2.1452   -0.5766 N   0  0  0  0  0  0  0  0  0  0  0  0
    3.5293    2.2531   -0.3737 N   0  0  0  0  0  0  0  0  0  0  0  0
   -1.8951   -0.9568    0.1060 C   0  0  0  0  0  0  0  0  0  0  0  0
   -1.1785    0.2003    0.4119 C   0  0  0  0  0  0  0  0  0  0  0  0
   -3.1984   -0.8614   -0.3819 C   0  0  0  0  0  0  0  0  0  0  0  0
   -1.7654    1.4526    0.2298 C   0  0  0  0  0  0  0  0  0  0  0  0
   -1.2885   -2.3089    0.2937 C   0  0  0  0  0  0  0  0  0  0  0  0
   -3.7851    0.3910   -0.5639 C   0  0  0  0  0  0  0  0  0  0  0  0
   -3.0686    1.5480   -0.2580 C   0  0  0  0  0  0  0  0  0  0  0  0
    2.3276    0.0575    0.4195 C   0  0  0  0  0  0  0  0  0  0  0  0
    2.8986   -1.1710   -0.1383 C   0  0  0  0  0  0  0  0  0  0  0  0
    2.9974    1.2824   -0.0250 C   0  0  0  0  0  0  0  0  0  0  0  0
  1  2  2  0
  1  6  1  0
  2 12  1  0
  3 13  3  0
  4 14  3  0
  5  6  2  0
  5  7  1  0
  5  9  1  0
  6  8  1  0
  7 10  2  0
  8 11  2  0
 10 11  1  0
 12 13  1  0
 12 14  1  0
M  END
>  <PUBCHEM_COMPOUND_CID>  (1) 
21605

>  <PUBCHEM_CONFORMER_RMSD>  (1) 
0.6

>  <PUBCHEM_CONFORMER_DIVERSEORDER>  (1) 
1
3
5
9
11
7
6
2
4
8
10

>  <PUBCHEM_MMFF94_PARTIAL_CHARGES>  (1) 
18
1 -0.18
10 -0.15
11 -0.15
12 0.65
13 0.36
14 0.36
15 0.15
16 0.15
2 -0.25
20 0.15
21 0.15
3 -0.56
4 -0.56
5 -0.14
6 0.18
7 -0.15
8 -0.15
9 0.14

>  <PUBCHEM_EFFECTIVE_ROTOR_COUNT>  (1) 
2

>  <PUBCHEM_PHARMACOPHORE_FEATURES>  (1) 
3
1 3 acceptor
1 4 acceptor
6 5 6 7 8 10 11 rings

>  <PUBCHEM_HEAVY_ATOM_COUNT>  (1) 
14

>  <PUBCHEM_ATOM_DEF_STEREO_COUNT>  (1) 
0

>  <PUBCHEM_ATOM_UDEF_STEREO_COUNT>  (1) 
0

>  <PUBCHEM_BOND_DEF_STEREO_COUNT>  (1) 
0

>  <PUBCHEM_BOND_UDEF_STEREO_COUNT>  (1) 
0

>  <PUBCHEM_ISOTOPIC_ATOM_COUNT>  (1) 
0

>  <PUBCHEM_COMPONENT_COUNT>  (1) 
1

>  <PUBCHEM_CACTVS_TAUTO_COUNT>  (1) 
1

>  <PUBCHEM_CONFORMER_ID>  (1) 
0000546500000001

>  <PUBCHEM_MMFF94_ENERGY>  (1) 
24.6102

>  <PUBCHEM_FEATURE_SELFOVERLAP>  (1) 
15.223

>  <PUBCHEM_SHAPE_FINGERPRINT>  (1) 
10608611 8 18409727378504812696
12173636 292 18408598163226115845
13296908 3 18334298677463004251
14325111 11 18410571773449152009
14415576 193 18335140955447792292
15375462 6 18340487858654606244
15442244 35 18267585702421718048
15669948 3 18267013032646089011
18186145 218 18262794069170415269
18619055 16 18343019999462781634
20201158 50 18058732394646577142
20281475 54 18059855095155893643
20645477 56 18334011718008462577
20645477 70 18342738494379485390
20653085 51 18334298621865806353
21501502 16 18343867705621340185
23559900 14 18343013368476336450
58051976 100 18335985272539505111
58051976 378 18341048644150095788
633830 44 18337665313869906725
7364860 26 18341894095820147368
74978 22 18336550430253660226
93112 12 18410577262480549414
9709674 26 18411702105757450062

>  <PUBCHEM_SHAPE_MULTIPOLES>  (1) 
268.19
7.11
2.29
0.75
2.26
0.36
-0.03
-1.12
1.53
1.09
0.2
-0.04
0.03
0.2

>  <PUBCHEM_SHAPE_SELFOVERLAP>  (1) 
553.613

>  <PUBCHEM_SHAPE_VOLUME>  (1) 
150.2

>  <PUBCHEM_COORDINATE_TYPE>  (1) 
2
5
10

$$$$
