21607
     RDKit          3D

 12 13  0  0  0  0  0  0  0  0999 V2000
    0.3494   -3.2277    0.0003 Br  0  0  0  0  0  0  0  0  0  0  0  0
    3.8822    1.2496    0.0002 Br  0  0  0  0  0  0  0  0  0  0  0  0
   -1.7803   -0.8009   -0.0001 O   0  0  0  0  0  0  0  0  0  0  0  0
   -3.6193    0.6016    0.0001 O   0  0  0  0  0  0  0  0  0  0  0  0
   -1.4586    1.4748    0.0002 N   0  0  0  0  0  0  0  0  0  0  0  0
   -0.2208    0.8886   -0.0002 C   0  0  0  0  0  0  0  0  0  0  0  0
   -0.4332   -0.4732   -0.0003 C   0  0  0  0  0  0  0  0  0  0  0  0
    1.0356    1.4507   -0.0001 C   0  0  0  0  0  0  0  0  0  0  0  0
    0.6188   -1.3632   -0.0003 C   0  0  0  0  0  0  0  0  0  0  0  0
    2.1175    0.5671    0.0000 C   0  0  0  0  0  0  0  0  0  0  0  0
    1.9112   -0.8280    0.0000 C   0  0  0  0  0  0  0  0  0  0  0  0
   -2.4027    0.4606    0.0001 C   0  0  0  0  0  0  0  0  0  0  0  0
  1  9  1  0
  2 10  1  0
  3  7  1  0
  3 12  1  0
  4 12  2  0
  5  6  1  0
  5 12  1  0
  6  7  2  0
  6  8  1  0
  7  9  1  0
  8 10  2  0
  9 11  2  0
 10 11  1  0
M  END
>  <PUBCHEM_COMPOUND_CID>  (1) 
21607

>  <PUBCHEM_CONFORMER_RMSD>  (1) 
0.4

>  <PUBCHEM_CONFORMER_DIVERSEORDER>  (1) 
1

>  <PUBCHEM_MMFF94_PARTIAL_CHARGES>  (1) 
15
1 -0.11
10 0.11
11 -0.15
12 0.78
13 0.15
14 0.37
15 0.15
2 -0.11
3 -0.23
4 -0.57
5 -0.55
6 0.12
7 0.08
8 -0.15
9 0.11

>  <PUBCHEM_EFFECTIVE_ROTOR_COUNT>  (1) 
0

>  <PUBCHEM_PHARMACOPHORE_FEATURES>  (1) 
6
1 1 hydrophobe
1 2 hydrophobe
1 4 acceptor
1 5 donor
5 3 5 6 7 12 rings
6 6 7 8 9 10 11 rings

>  <PUBCHEM_HEAVY_ATOM_COUNT>  (1) 
12

>  <PUBCHEM_ATOM_DEF_STEREO_COUNT>  (1) 
0

>  <PUBCHEM_ATOM_UDEF_STEREO_COUNT>  (1) 
0

>  <PUBCHEM_BOND_DEF_STEREO_COUNT>  (1) 
0

>  <PUBCHEM_BOND_UDEF_STEREO_COUNT>  (1) 
0

>  <PUBCHEM_ISOTOPIC_ATOM_COUNT>  (1) 
0

>  <PUBCHEM_COMPONENT_COUNT>  (1) 
1

>  <PUBCHEM_CACTVS_TAUTO_COUNT>  (1) 
2

>  <PUBCHEM_CONFORMER_ID>  (1) 
0000546700000001

>  <PUBCHEM_MMFF94_ENERGY>  (1) 
31.5703

>  <PUBCHEM_FEATURE_SELFOVERLAP>  (1) 
30.561

>  <PUBCHEM_SHAPE_FINGERPRINT>  (1) 
1 1 18410573938097020494
10967382 1 18410575059067517350
11471102 20 18338511946292117269
13380535 76 18412544344765077478
14325111 11 18410856581389198976
15309172 13 18410583906594593904
15775835 57 18342177782093222140
16945 1 18194683665867438053
17990270 104 17977664208334804611
193761 8 17762336916492887684
20645476 183 17896335773312794942
20645477 70 18266170639942344015
20871998 184 17911809286181215678
21040471 1 18338516464412823332
23235685 24 18410287038613538020
2334 1 18410855507489190886
23402539 116 18271516598319942252
23402655 69 18341317913267997709
23463225 33 18334288726530006178
23552423 10 18122347878287058383
23559900 14 18271532018002010780
241688 4 17041480510375071858
2748010 2 18409459093404349134
366044 4 18410011069916496888
528862 383 18261384508232943514
528886 8 18410851083614659008
53812653 166 18343016731230325768
54173680 148 17905326578482525682
7364860 26 18196934366401954902
81228 2 17761482999590151242
81539 233 18261671489141410871

>  <PUBCHEM_SHAPE_MULTIPOLES>  (1) 
242.12
4.68
2.64
0.62
1.16
2.93
0
-2.98
0
-0.08
0
0.1
0.04
0

>  <PUBCHEM_SHAPE_SELFOVERLAP>  (1) 
502.337

>  <PUBCHEM_SHAPE_VOLUME>  (1) 
143.8

>  <PUBCHEM_COORDINATE_TYPE>  (1) 
2
5
10

$$$$
