21612
     RDKit          3D

 16 16  0  0  0  0  0  0  0  0999 V2000
   -0.8782    3.1004    0.1026 O   0  0  0  0  0  0  0  0  0  0  0  0
    2.9232   -1.9701    0.8682 O   0  0  0  0  0  0  0  0  0  0  0  0
    4.0204   -0.9663   -0.7243 O   0  0  0  0  0  0  0  0  0  0  0  0
    0.4443    1.3786   -0.1947 N   0  0  0  0  0  0  0  0  0  0  0  0
    0.1574    2.5368    0.4719 N   0  0  0  0  0  0  0  0  0  0  0  0
    2.4346    1.2150    1.0955 N   0  0  0  0  0  0  0  0  0  0  0  0
    1.8539   -0.5228   -0.4464 N   0  0  0  0  0  0  0  0  0  0  0  0
    2.9802   -1.1718   -0.0799 N   0  0  0  0  0  0  0  0  0  0  0  0
   -0.4585    0.7948   -1.2077 C   0  0  0  0  0  0  0  0  0  0  0  0
   -1.5302   -0.0564   -0.5802 C   0  0  0  0  0  0  0  0  0  0  0  0
   -1.2976   -1.4097   -0.3793 C   0  0  0  0  0  0  0  0  0  0  0  0
   -2.7356    0.5245   -0.2118 C   0  0  0  0  0  0  0  0  0  0  0  0
   -2.2906   -2.1983    0.2020 C   0  0  0  0  0  0  0  0  0  0  0  0
   -3.7285   -0.2641    0.3694 C   0  0  0  0  0  0  0  0  0  0  0  0
    1.6116    0.6350    0.1384 C   0  0  0  0  0  0  0  0  0  0  0  0
   -3.5061   -1.6254    0.5764 C   0  0  0  0  0  0  0  0  0  0  0  0
  1  5  2  0
  2  8  1  0
  3  8  2  0
  4  5  1  0
  4  9  1  0
  4 15  1  0
  6 15  1  0
  7  8  1  0
  7 15  2  0
  9 10  1  0
 10 11  2  0
 10 12  1  0
 11 13  1  0
 12 14  2  0
 13 16  2  0
 14 16  1  0
M  CHG  2   2  -1   8   1
M  END
>  <PUBCHEM_COMPOUND_CID>  (1) 
21612

>  <PUBCHEM_CONFORMER_RMSD>  (1) 
0.6

>  <PUBCHEM_CONFORMER_DIVERSEORDER>  (1) 
1
107
37
82
112
93
49
67
105
116
60
73
117
108
118
85
100
29
104
43
114
89
83
81
86
5
110
97
54
120
77
91
121
115
59
103
40
15
102
66
57
48
2
3
8
75
61
68
34
24
46
92
45
62
50
65
55
101
99
78
14
41
76
32
6
69
39
74
21
111
98
96
20
72
12
11
87
63
64
27
30
23
95
113
17
84
71
36
35
70
28
58
25
16
26
31
44
51
109
94
19
88
56
38
52
119
7
53
90
13
18
79
47
80
22
9
10
33
4
42
106

>  <PUBCHEM_MMFF94_PARTIAL_CHARGES>  (1) 
22
1 -0.16
10 -0.14
11 -0.15
12 -0.15
13 -0.15
14 -0.15
15 0.55
16 -0.15
19 0.15
2 -0.52
20 0.15
21 0.15
22 0.15
23 0.15
24 0.4
25 0.4
3 -0.52
4 -0.25
6 -0.85
7 -0.5
8 1.09
9 0.51

>  <PUBCHEM_EFFECTIVE_ROTOR_COUNT>  (1) 
5

>  <PUBCHEM_PHARMACOPHORE_FEATURES>  (1) 
5
1 2 acceptor
1 3 acceptor
1 6 donor
4 4 6 7 15 cation
6 10 11 12 13 14 16 rings

>  <PUBCHEM_HEAVY_ATOM_COUNT>  (1) 
16

>  <PUBCHEM_ATOM_DEF_STEREO_COUNT>  (1) 
0

>  <PUBCHEM_ATOM_UDEF_STEREO_COUNT>  (1) 
0

>  <PUBCHEM_BOND_DEF_STEREO_COUNT>  (1) 
0

>  <PUBCHEM_BOND_UDEF_STEREO_COUNT>  (1) 
1

>  <PUBCHEM_ISOTOPIC_ATOM_COUNT>  (1) 
0

>  <PUBCHEM_COMPONENT_COUNT>  (1) 
1

>  <PUBCHEM_CACTVS_TAUTO_COUNT>  (1) 
2

>  <PUBCHEM_CONFORMER_ID>  (1) 
0000546C00000001

>  <PUBCHEM_MMFF94_ENERGY>  (1) 
51.3321

>  <PUBCHEM_FEATURE_SELFOVERLAP>  (1) 
25.459

>  <PUBCHEM_SHAPE_FINGERPRINT>  (1) 
10618630 7 18334856121342185454
1100329 8 16682883559251866233
12251169 10 18126008406368461003
12382932 28 18340194306008326161
12507560 14 18201161039886886703
12553582 1 18410851049376623182
12696612 119 18125442161937759949
15375462 189 18187087243258438354
17804303 29 18409175428347700015
17841504 4 18267870664927476349
19784866 135 18264766558681535034
20559304 39 18122351443447504677
20711983 138 18410568453323290145
20871998 22 18337389447603753521
22445834 79 18123474044872321911
23500284 5 18261954029317600626
23559900 14 18337946784783816886
238078 22 18336561477078370222
2748010 2 18340473547596651292
57426455 70 18338248097887283843
7364860 26 18051700133118320277
81228 2 18126572219093655964
83771 10 18333734623792697526

>  <PUBCHEM_SHAPE_MULTIPOLES>  (1) 
286.76
6.11
2.69
0.91
1.14
1.23
-0.04
-3.76
0.81
0.3
0.47
0.19
0.03
0.39

>  <PUBCHEM_SHAPE_SELFOVERLAP>  (1) 
589.989

>  <PUBCHEM_SHAPE_VOLUME>  (1) 
164.3

>  <PUBCHEM_COORDINATE_TYPE>  (1) 
2
5
10

$$$$
