21618
     RDKit          3D

  7  7  0  0  1  0  0  0  0  0999 V2000
    0.1567   -1.0388   -0.1580 O   0  0  0  0  0  0  0  0  0  0  0  0
    1.9914    0.3959    0.1435 O   0  0  0  0  0  0  0  0  0  0  0  0
   -2.6043   -0.3679    0.1699 O   0  0  0  0  0  0  0  0  0  0  0  0
   -0.2965    0.2334    0.3108 C   0  0  0  0  0  0  0  0  0  0  0  0
    0.8149    1.1631   -0.1125 C   0  0  0  0  0  0  0  0  0  0  0  0
   -1.6450    0.5738   -0.2867 C   0  0  0  0  0  0  0  0  0  0  0  0
    1.5828   -0.9594   -0.0671 C   0  0  0  0  0  0  0  0  0  0  0  0
  1  4  1  0
  1  7  1  0
  2  5  1  0
  2  7  1  0
  3  6  1  0
  4  5  1  0
  4  6  1  0
M  END
>  <PUBCHEM_COMPOUND_CID>  (1) 
21618

>  <PUBCHEM_CONFORMER_RMSD>  (1) 
0.4

>  <PUBCHEM_CONFORMER_DIVERSEORDER>  (1) 
1
8
4
7
6
2
3
5

>  <PUBCHEM_MMFF94_PARTIAL_CHARGES>  (1) 
8
1 -0.56
15 0.4
2 -0.56
3 -0.68
4 0.28
5 0.28
6 0.28
7 0.56

>  <PUBCHEM_EFFECTIVE_ROTOR_COUNT>  (1) 
2

>  <PUBCHEM_PHARMACOPHORE_FEATURES>  (1) 
5
1 1 acceptor
1 2 acceptor
1 3 acceptor
1 3 donor
5 1 2 4 5 7 rings

>  <PUBCHEM_HEAVY_ATOM_COUNT>  (1) 
7

>  <PUBCHEM_ATOM_DEF_STEREO_COUNT>  (1) 
0

>  <PUBCHEM_ATOM_UDEF_STEREO_COUNT>  (1) 
1

>  <PUBCHEM_BOND_DEF_STEREO_COUNT>  (1) 
0

>  <PUBCHEM_BOND_UDEF_STEREO_COUNT>  (1) 
0

>  <PUBCHEM_ISOTOPIC_ATOM_COUNT>  (1) 
0

>  <PUBCHEM_COMPONENT_COUNT>  (1) 
1

>  <PUBCHEM_CACTVS_TAUTO_COUNT>  (1) 
1

>  <PUBCHEM_CONFORMER_ID>  (1) 
0000547200000001

>  <PUBCHEM_MMFF94_ENERGY>  (1) 
14.4755

>  <PUBCHEM_FEATURE_SELFOVERLAP>  (1) 
25.415

>  <PUBCHEM_SHAPE_FINGERPRINT>  (1) 
20096714 4 18339641243190906828
21040471 1 18339922743995391552
23552423 10 18044384820344933654
24536 1 18267854013149554097
29004967 10 18410012108966279721
5460574 1 9511464424408049433

>  <PUBCHEM_SHAPE_MULTIPOLES>  (1) 
126.45
2.8
1.16
0.61
1.22
0.03
0
-0.29
-0.05
-0.32
0.05
0.02
0.02
0.08

>  <PUBCHEM_SHAPE_SELFOVERLAP>  (1) 
243.707

>  <PUBCHEM_SHAPE_VOLUME>  (1) 
77.3

>  <PUBCHEM_COORDINATE_TYPE>  (1) 
2
5
10

$$$$
