21619
     RDKit          3D

 10 10  0  0  0  0  0  0  0  0999 V2000
    0.1367   -2.4929    0.1107 Cl  0  0  0  0  0  0  0  0  0  0  0  0
    2.4775    0.3362   -0.5815 S   0  0  0  0  0  0  0  0  0  0  0  0
    3.8904    0.3364   -0.1084 O   0  0  0  0  0  0  0  0  0  0  0  0
    1.4737    0.2462    0.5473 N   0  0  0  0  0  0  0  0  0  0  0  0
    0.0398    0.2342    0.2682 C   0  0  0  0  0  0  0  0  0  0  0  0
   -0.6543   -0.9570    0.0566 C   0  0  0  0  0  0  0  0  0  0  0  0
   -0.6356    1.4536    0.2170 C   0  0  0  0  0  0  0  0  0  0  0  0
   -2.0238   -0.9289   -0.2065 C   0  0  0  0  0  0  0  0  0  0  0  0
   -2.0052    1.4817   -0.0458 C   0  0  0  0  0  0  0  0  0  0  0  0
   -2.6992    0.2905   -0.2576 C   0  0  0  0  0  0  0  0  0  0  0  0
  1  6  1  0
  2  3  2  0
  2  4  2  0
  4  5  1  0
  5  6  2  0
  5  7  1  0
  6  8  1  0
  7  9  2  0
  8 10  2  0
  9 10  1  0
M  END
>  <PUBCHEM_COMPOUND_CID>  (1) 
21619

>  <PUBCHEM_CONFORMER_RMSD>  (1) 
0.4

>  <PUBCHEM_CONFORMER_DIVERSEORDER>  (1) 
1
2
3

>  <PUBCHEM_MMFF94_PARTIAL_CHARGES>  (1) 
14
1 -0.18
10 -0.15
11 0.15
12 0.15
13 0.15
14 0.15
2 0.72
3 -0.5
4 -0.62
5 0.4
6 0.18
7 -0.15
8 -0.15
9 -0.15

>  <PUBCHEM_EFFECTIVE_ROTOR_COUNT>  (1) 
1

>  <PUBCHEM_PHARMACOPHORE_FEATURES>  (1) 
1
6 5 6 7 8 9 10 rings

>  <PUBCHEM_HEAVY_ATOM_COUNT>  (1) 
10

>  <PUBCHEM_ATOM_DEF_STEREO_COUNT>  (1) 
0

>  <PUBCHEM_ATOM_UDEF_STEREO_COUNT>  (1) 
0

>  <PUBCHEM_BOND_DEF_STEREO_COUNT>  (1) 
0

>  <PUBCHEM_BOND_UDEF_STEREO_COUNT>  (1) 
0

>  <PUBCHEM_ISOTOPIC_ATOM_COUNT>  (1) 
0

>  <PUBCHEM_COMPONENT_COUNT>  (1) 
1

>  <PUBCHEM_CACTVS_TAUTO_COUNT>  (1) 
1

>  <PUBCHEM_CONFORMER_ID>  (1) 
0000547300000001

>  <PUBCHEM_MMFF94_ENERGY>  (1) 
18.7329

>  <PUBCHEM_FEATURE_SELFOVERLAP>  (1) 
5.074

>  <PUBCHEM_SHAPE_FINGERPRINT>  (1) 
12716758 59 18340203093806630954
12897270 3 18411979152437827029
13024252 1 12324236187429077429
14325111 11 18410293579954049500
15775835 57 18186802448382641100
16945 1 18340476812193808673
193761 8 17834675998402880257
20201158 50 17917998282509512070
20645464 45 17916565661644786304
20645476 183 17895488015298409894
20871998 184 18127700532835435750
21040471 1 18339633439404076713
23235685 24 18408600344837269829
23402539 116 18341321275462090108
23552423 10 18120651327766885899
23559900 14 18272932722658356720
5084963 1 18131351946558041993
528862 383 18043807589451251490

>  <PUBCHEM_SHAPE_MULTIPOLES>  (1) 
200.66
4.3
1.97
0.7
3.68
1.18
0.03
-1.3
0.64
-0.51
-0.1
0.08
-0.01
-0.09

>  <PUBCHEM_SHAPE_SELFOVERLAP>  (1) 
395.343

>  <PUBCHEM_SHAPE_VOLUME>  (1) 
121.2

>  <PUBCHEM_COORDINATE_TYPE>  (1) 
2
5
10

$$$$
