21615
     RDKit          3D

 17 17  0  0  1  0  0  0  0  0999 V2000
   -3.2994   -0.4941   -0.2753 O   0  0  0  0  0  0  0  0  0  0  0  0
   -2.0331    1.9633    1.3599 O   0  0  0  0  0  0  0  0  0  0  0  0
   -1.5929   -1.6175    0.7919 O   0  0  0  0  0  0  0  0  0  0  0  0
    0.2113    0.2368    0.0772 N   0  0  0  0  0  0  0  0  0  0  0  0
    0.9733    0.1164   -0.9051 N   0  0  0  0  0  0  0  0  0  0  0  0
   -1.1683    0.4913   -0.3382 C   0  0  0  0  0  0  0  0  0  0  0  0
   -1.5347    1.8416    0.2409 C   0  0  0  0  0  0  0  0  0  0  0  0
   -2.0109   -0.6642    0.1476 C   0  0  0  0  0  0  0  0  0  0  0  0
   -4.2102   -1.5381    0.0834 C   0  0  0  0  0  0  0  0  0  0  0  0
   -1.2305    3.0495   -0.6082 C   0  0  0  0  0  0  0  0  0  0  0  0
    2.2840   -0.1249   -0.4603 C   0  0  0  0  0  0  0  0  0  0  0  0
   -5.5841   -1.2008   -0.4555 C   0  0  0  0  0  0  0  0  0  0  0  0
    2.7158   -1.4328   -0.2608 C   0  0  0  0  0  0  0  0  0  0  0  0
    3.1411    0.9452   -0.2217 C   0  0  0  0  0  0  0  0  0  0  0  0
    4.0167   -1.6728    0.1815 C   0  0  0  0  0  0  0  0  0  0  0  0
    4.4421    0.7050    0.2206 C   0  0  0  0  0  0  0  0  0  0  0  0
    4.8798   -0.6040    0.4222 C   0  0  0  0  0  0  0  0  0  0  0  0
  1  8  1  0
  1  9  1  0
  2  7  2  0
  3  8  2  0
  4  5  2  0
  4  6  1  0
  5 11  1  0
  6  7  1  0
  6  8  1  0
  7 10  1  0
  9 12  1  0
 11 13  2  0
 11 14  1  0
 13 15  1  0
 14 16  2  0
 15 17  2  0
 16 17  1  0
M  END
>  <PUBCHEM_COMPOUND_CID>  (1) 
21615

>  <PUBCHEM_CONFORMER_RMSD>  (1) 
0.8

>  <PUBCHEM_CONFORMER_DIVERSEORDER>  (1) 
1
91
32
40
51
30
57
60
78
9
25
39
34
8
43
84
12
24
59
71
20
77
73
56
19
63
10
27
52
44
75
28
41
23
31
54
62
16
89
85
7
37
2
38
74
14
46
90
83
45
6
48
81
3
88
69
47
35
79
4
33
53
87
42
26
49
50
5
18
67
61
65
58
72
82
22
66
86
70
13
55
17
21
15
29
11
64
80
76
36
68

>  <PUBCHEM_MMFF94_PARTIAL_CHARGES>  (1) 
21
1 -0.43
10 0.06
11 0.18
13 -0.15
14 -0.15
15 -0.15
16 -0.15
17 -0.15
2 -0.57
27 0.15
28 0.15
29 0.15
3 -0.57
30 0.15
31 0.15
4 -0.25
5 -0.18
6 0.37
7 0.45
8 0.66
9 0.28

>  <PUBCHEM_EFFECTIVE_ROTOR_COUNT>  (1) 
6

>  <PUBCHEM_PHARMACOPHORE_FEATURES>  (1) 
4
1 2 acceptor
1 3 acceptor
1 6 anion
6 11 13 14 15 16 17 rings

>  <PUBCHEM_HEAVY_ATOM_COUNT>  (1) 
17

>  <PUBCHEM_ATOM_DEF_STEREO_COUNT>  (1) 
0

>  <PUBCHEM_ATOM_UDEF_STEREO_COUNT>  (1) 
1

>  <PUBCHEM_BOND_DEF_STEREO_COUNT>  (1) 
0

>  <PUBCHEM_BOND_UDEF_STEREO_COUNT>  (1) 
0

>  <PUBCHEM_ISOTOPIC_ATOM_COUNT>  (1) 
0

>  <PUBCHEM_COMPONENT_COUNT>  (1) 
1

>  <PUBCHEM_CACTVS_TAUTO_COUNT>  (1) 
5

>  <PUBCHEM_CONFORMER_ID>  (1) 
0000546F00000001

>  <PUBCHEM_MMFF94_ENERGY>  (1) 
29.7641

>  <PUBCHEM_FEATURE_SELFOVERLAP>  (1) 
20.297

>  <PUBCHEM_SHAPE_FINGERPRINT>  (1) 
10366900 7 18339932605630622154
10447042 23 18410845590372911574
11045515 52 18040712589174216077
11265709 11 18410860992531485221
12916754 54 18412264995791871076
13533116 47 18408600353643872250
15342168 16 14332549198567442650
17492 89 18267864995497702110
187816 3 18186517735264307411
200 152 18410851075182999543
20510252 161 18341049631544226513
20645477 70 18335136480002452358
21065198 48 18411703154150846450
21065199 12 18270957952129265314
21267235 1 18411987953543423198
22079108 93 13830128416685343711
23402539 116 18341608222654592023
23419403 2 17987495144216562065
23557571 272 18130516262002609884
23559900 14 18262516034583990424
26918003 58 18187362172562525963
2871803 45 18261109669028444146
3009799 131 18411688903760555879
312423 11 18339094721803813180
347723 3 17313097558416124831
4214541 1 18339360752099252120
5104073 3 18199742562623741186
5283173 99 18187915145839890053
5374978 207 18412822516822136930
81228 2 18266199282657293121
9709674 26 18410581647700817486

>  <PUBCHEM_SHAPE_MULTIPOLES>  (1) 
322.28
10.39
2.42
0.83
0.89
1.58
-0.08
-5.6
-0.13
1.52
-0.06
0.18
0.18
-0.27

>  <PUBCHEM_SHAPE_SELFOVERLAP>  (1) 
655.538

>  <PUBCHEM_SHAPE_VOLUME>  (1) 
187.5

>  <PUBCHEM_COORDINATE_TYPE>  (1) 
2
5
10

$$$$
