21625
     RDKit          3D

  8  7  0  0  0  0  0  0  0  0999 V2000
   -3.8842   -0.7331    0.0008 S   0  0  0  0  0  0  0  0  0  0  0  0
    1.2010   -0.4509    0.0024 O   0  0  0  0  0  0  0  0  0  0  0  0
    0.1048    1.5793    0.0039 O   0  0  0  0  0  0  0  0  0  0  0  0
   -1.1418   -0.5104    0.0098 C   0  0  0  0  0  0  0  0  0  0  0  0
   -2.4132    0.3299   -0.0144 C   0  0  0  0  0  0  0  0  0  0  0  0
    0.0983    0.3559    0.0051 C   0  0  0  0  0  0  0  0  0  0  0  0
    2.4611    0.2278   -0.0025 C   0  0  0  0  0  0  0  0  0  0  0  0
    3.5739   -0.7984   -0.0051 C   0  0  0  0  0  0  0  0  0  0  0  0
  1  5  1  0
  2  6  1  0
  2  7  1  0
  3  6  2  0
  4  5  1  0
  4  6  1  0
  7  8  1  0
M  END
>  <PUBCHEM_COMPOUND_CID>  (1) 
21625

>  <PUBCHEM_CONFORMER_RMSD>  (1) 
0.6

>  <PUBCHEM_CONFORMER_DIVERSEORDER>  (1) 
1
26
20
17
34
21
12
32
29
27
31
33
4
7
35
16
30
22
24
13
14
8
15
6
5
25
9
2
3
11
10
19
28
18
23

>  <PUBCHEM_MMFF94_PARTIAL_CHARGES>  (1) 
8
1 -0.41
18 0.18
2 -0.43
3 -0.57
4 0.06
5 0.23
6 0.66
7 0.28

>  <PUBCHEM_EFFECTIVE_ROTOR_COUNT>  (1) 
4

>  <PUBCHEM_PHARMACOPHORE_FEATURES>  (1) 
1
1 3 acceptor

>  <PUBCHEM_HEAVY_ATOM_COUNT>  (1) 
8

>  <PUBCHEM_ATOM_DEF_STEREO_COUNT>  (1) 
0

>  <PUBCHEM_ATOM_UDEF_STEREO_COUNT>  (1) 
0

>  <PUBCHEM_BOND_DEF_STEREO_COUNT>  (1) 
0

>  <PUBCHEM_BOND_UDEF_STEREO_COUNT>  (1) 
0

>  <PUBCHEM_ISOTOPIC_ATOM_COUNT>  (1) 
0

>  <PUBCHEM_COMPONENT_COUNT>  (1) 
1

>  <PUBCHEM_CACTVS_TAUTO_COUNT>  (1) 
1

>  <PUBCHEM_CONFORMER_ID>  (1) 
0000547900000001

>  <PUBCHEM_MMFF94_ENERGY>  (1) 
4.6067

>  <PUBCHEM_FEATURE_SELFOVERLAP>  (1) 
5.074

>  <PUBCHEM_SHAPE_FINGERPRINT>  (1) 
10219947 1 18130790074651967951
11062470 55 12679464188038696475
12032990 46 18411142428415789663
12932764 1 15913320269528820941
14325111 11 18410575080389210627
21293036 1 17967814967798531286
29004967 10 18410578391793197720
5460574 1 9295290542888080899

>  <PUBCHEM_SHAPE_MULTIPOLES>  (1) 
156.75
6.48
1.09
0.6
0.8
0.25
0
-2.41
0.02
-0.06
0
0.06
-0.02
0

>  <PUBCHEM_SHAPE_SELFOVERLAP>  (1) 
273.56

>  <PUBCHEM_SHAPE_VOLUME>  (1) 
105.1

>  <PUBCHEM_COORDINATE_TYPE>  (1) 
2
5
10

$$$$
