21626
     RDKit          3D

 16 16  0  0  0  0  0  0  0  0999 V2000
   -4.7701   -1.2121    0.5151 O   0  0  0  0  0  0  0  0  0  0  0  0
   -4.9435    1.0534    0.5777 O   0  0  0  0  0  0  0  0  0  0  0  0
    1.2022    0.0130   -1.0330 N   0  0  0  0  0  0  0  0  0  0  0  0
    1.9135    0.0033   -0.0032 N   0  0  0  0  0  0  0  0  0  0  0  0
    4.3705    2.1856    0.6907 N   0  0  0  0  0  0  0  0  0  0  0  0
    4.3380   -2.2208    0.6714 N   0  0  0  0  0  0  0  0  0  0  0  0
   -2.8502    0.0351    0.0250 C   0  0  0  0  0  0  0  0  0  0  0  0
   -0.1508    0.0201   -0.6792 C   0  0  0  0  0  0  0  0  0  0  0  0
   -2.1671    1.2393   -0.1446 C   0  0  0  0  0  0  0  0  0  0  0  0
   -2.1838   -1.1767   -0.1575 C   0  0  0  0  0  0  0  0  0  0  0  0
   -0.8175    1.2318   -0.4967 C   0  0  0  0  0  0  0  0  0  0  0  0
   -0.8340   -1.1842   -0.5096 C   0  0  0  0  0  0  0  0  0  0  0  0
   -4.2574    0.0429    0.3918 C   0  0  0  0  0  0  0  0  0  0  0  0
    3.3402   -0.0058   -0.3246 C   0  0  0  0  0  0  0  0  0  0  0  0
    3.9141    1.2165    0.2437 C   0  0  0  0  0  0  0  0  0  0  0  0
    3.8960   -1.2413    0.2330 C   0  0  0  0  0  0  0  0  0  0  0  0
  1 13  1  0
  2 13  2  0
  3  4  2  0
  3  8  1  0
  4 14  1  0
  5 15  3  0
  6 16  3  0
  7  9  2  0
  7 10  1  0
  7 13  1  0
  8 11  2  0
  8 12  1  0
  9 11  1  0
 10 12  2  0
 14 15  1  0
 14 16  1  0
M  END
>  <PUBCHEM_COMPOUND_CID>  (1) 
21626

>  <PUBCHEM_CONFORMER_RMSD>  (1) 
0.6

>  <PUBCHEM_CONFORMER_DIVERSEORDER>  (1) 
1
6
9
7
2
5
4
8
10
3

>  <PUBCHEM_MMFF94_PARTIAL_CHARGES>  (1) 
21
1 -0.65
10 -0.15
11 -0.15
12 -0.15
13 0.63
14 0.65
15 0.36
16 0.36
17 0.15
18 0.15
19 0.15
2 -0.57
20 0.15
22 0.5
3 -0.18
4 -0.25
5 -0.56
6 -0.56
7 0.09
8 0.18
9 -0.15

>  <PUBCHEM_EFFECTIVE_ROTOR_COUNT>  (1) 
3

>  <PUBCHEM_PHARMACOPHORE_FEATURES>  (1) 
6
1 1 acceptor
1 2 acceptor
1 5 acceptor
1 6 acceptor
3 1 2 13 anion
6 7 8 9 10 11 12 rings

>  <PUBCHEM_HEAVY_ATOM_COUNT>  (1) 
16

>  <PUBCHEM_ATOM_DEF_STEREO_COUNT>  (1) 
0

>  <PUBCHEM_ATOM_UDEF_STEREO_COUNT>  (1) 
0

>  <PUBCHEM_BOND_DEF_STEREO_COUNT>  (1) 
0

>  <PUBCHEM_BOND_UDEF_STEREO_COUNT>  (1) 
0

>  <PUBCHEM_ISOTOPIC_ATOM_COUNT>  (1) 
0

>  <PUBCHEM_COMPONENT_COUNT>  (1) 
1

>  <PUBCHEM_CACTVS_TAUTO_COUNT>  (1) 
1

>  <PUBCHEM_CONFORMER_ID>  (1) 
0000547A00000001

>  <PUBCHEM_MMFF94_ENERGY>  (1) 
32.5112

>  <PUBCHEM_FEATURE_SELFOVERLAP>  (1) 
30.506

>  <PUBCHEM_SHAPE_FINGERPRINT>  (1) 
10912923 1 17917710223232060743
12119455 92 17489304149147906223
12251169 10 18410575132071535596
12507560 40 18261668195218161932
12670546 56 18335415755707370323
13533116 47 18334013856765117226
13675066 3 18040999544296522143
14252887 29 17748824125004225368
14445660 50 18341893051779026220
15196674 1 18410856564240737963
17804303 29 18264491685444136990
1813 80 16805324404973735614
19050596 39 18411411852310048366
200 152 12901538057290038132
21065199 12 18408318882845694344
21652331 79 18342457066805767720
23402539 116 18272364253302649877
23503953 91 18130495380124921634
23559900 14 18408041810373816980
42 15 18333734585064223262
5104073 3 18410859854164627491
5374978 207 18410291410990329352
77779 3 18410575084821347512

>  <PUBCHEM_SHAPE_MULTIPOLES>  (1) 
297.61
10.62
1.83
0.81
0.35
0.03
0.05
0.06
-3.42
1.81
-0.35
0.08
-0.01
0

>  <PUBCHEM_SHAPE_SELFOVERLAP>  (1) 
622.189

>  <PUBCHEM_SHAPE_VOLUME>  (1) 
164.1

>  <PUBCHEM_COORDINATE_TYPE>  (1) 
2
5
10

$$$$
