21621
     RDKit          3D

 17 17  0  0  0  0  0  0  0  0999 V2000
   -1.9034    0.1689    0.9474 O   0  0  0  0  0  0  0  0  0  0  0  0
   -2.3208   -0.7374   -1.1527 O   0  0  0  0  0  0  0  0  0  0  0  0
    2.8267   -0.5679    0.2364 N   0  0  0  0  0  0  0  0  0  0  0  0
   -3.8625   -0.9603    0.5666 N   0  0  0  0  0  0  0  0  0  0  0  0
    2.4791   -2.0544    0.1914 C   0  0  0  0  0  0  0  0  0  0  0  0
    1.5862    0.3204    0.1146 C   0  0  0  0  0  0  0  0  0  0  0  0
    3.5080   -0.2790    1.5710 C   0  0  0  0  0  0  0  0  0  0  0  0
    3.7644   -0.2641   -0.9289 C   0  0  0  0  0  0  0  0  0  0  0  0
    1.7752   -2.3623   -1.1121 C   0  0  0  0  0  0  0  0  0  0  0  0
    0.4227   -0.1828    0.5923 C   0  0  0  0  0  0  0  0  0  0  0  0
    1.7561    1.5352   -0.4603 C   0  0  0  0  0  0  0  0  0  0  0  0
   -0.7078    0.6269    0.4815 C   0  0  0  0  0  0  0  0  0  0  0  0
   -0.6061    1.8908   -0.1000 C   0  0  0  0  0  0  0  0  0  0  0  0
    0.6259    2.3448   -0.5710 C   0  0  0  0  0  0  0  0  0  0  0  0
   -1.8054    2.7707   -0.2273 C   0  0  0  0  0  0  0  0  0  0  0  0
   -2.6749   -0.5379    0.0055 C   0  0  0  0  0  0  0  0  0  0  0  0
   -4.8635   -1.7117   -0.1545 C   0  0  0  0  0  0  0  0  0  0  0  0
  1 12  1  0
  1 16  1  0
  2 16  2  0
  3  5  1  0
  3  6  1  0
  3  7  1  0
  3  8  1  0
  4 16  1  0
  4 17  1  0
  5  9  1  0
  6 10  2  0
  6 11  1  0
 10 12  1  0
 11 14  2  0
 12 13  2  0
 13 14  1  0
 13 15  1  0
M  CHG  1   3   1
M  END
>  <PUBCHEM_COMPOUND_CID>  (1) 
21621

>  <PUBCHEM_CONFORMER_RMSD>  (1) 
0.6

>  <PUBCHEM_CONFORMER_DIVERSEORDER>  (1) 
1
58
103
106
60
135
15
44
101
125
109
93
55
46
48
77
108
35
61
10
111
86
87
22
23
100
73
24
12
31
37
63
82
91
38
132
89
20
69
62
130
98
83
116
80
113
57
75
97
34
118
42
122
133
14
134
45
6
88
36
92
79
129
30
76
102
104
85
33
128
4
59
110
13
107
126
41
99
26
117
64
56
90
11
47
119
78
105
112
53
25
74
52
3
120
123
71
27
28
121
127
67
43
81
131
94
115
16
32
50
124
2
9
21
72
65
29
54
66
95
49
114
51
96
8
84
7
70
5
39
19
18
68
40
17

>  <PUBCHEM_MMFF94_PARTIAL_CHARGES>  (1) 
20
1 -0.23
10 -0.15
11 -0.15
12 0.08
13 -0.14
14 -0.15
15 0.14
16 0.78
17 0.3
2 -0.57
29 0.15
3 -0.87
30 0.15
31 0.15
35 0.37
4 -0.73
5 0.5
6 0.36
7 0.5
8 0.5

>  <PUBCHEM_EFFECTIVE_ROTOR_COUNT>  (1) 
5

>  <PUBCHEM_PHARMACOPHORE_FEATURES>  (1) 
4
1 2 acceptor
1 3 cation
1 4 donor
6 6 10 11 12 13 14 rings

>  <PUBCHEM_HEAVY_ATOM_COUNT>  (1) 
17

>  <PUBCHEM_ATOM_DEF_STEREO_COUNT>  (1) 
0

>  <PUBCHEM_ATOM_UDEF_STEREO_COUNT>  (1) 
0

>  <PUBCHEM_BOND_DEF_STEREO_COUNT>  (1) 
0

>  <PUBCHEM_BOND_UDEF_STEREO_COUNT>  (1) 
0

>  <PUBCHEM_ISOTOPIC_ATOM_COUNT>  (1) 
0

>  <PUBCHEM_COMPONENT_COUNT>  (1) 
1

>  <PUBCHEM_CACTVS_TAUTO_COUNT>  (1) 
2

>  <PUBCHEM_CONFORMER_ID>  (1) 
0000547500000001

>  <PUBCHEM_MMFF94_ENERGY>  (1) 
68.0667

>  <PUBCHEM_FEATURE_SELFOVERLAP>  (1) 
20.297

>  <PUBCHEM_SHAPE_FINGERPRINT>  (1) 
10618630 7 18411703166540090363
11322862 65 17905330624293986197
11578080 2 17845354657533512393
116883 192 18337955589197897893
12553582 1 18412260674849199135
13083527 12 18262220231638650064
13140716 1 18123461945785997042
13464513 79 18271814565754980070
14178342 30 18268421331269364704
14252887 29 18342461451735164698
15422964 175 18410854347964208583
15477762 27 18408887377317084163
16945 1 18408042926981021952
18981168 100 10881986989654954596
20645476 183 16159093957804642256
20645477 70 18191303978168084199
20871998 184 18271239409224772693
20871998 22 18411703157913193539
21296965 67 18409444804211640153
21501502 16 18189341173692289860
21501925 9 18409724092749193633
221490 88 17900551382345508171
2255824 54 18122912189866659205
2334 1 17833835254259669050
23388829 49 18411696616899723292
23402539 116 18187923933384752922
23419403 2 17680951315008353508
23557571 272 18268140964462612632
23559900 14 17979068294091002122
2748010 2 18196652882813925014
276578 36 10447937178019818920
2871803 45 18410295795999204686
3060560 45 18267313212468897412
4463277 69 18060422382947234575
7364860 26 18268713998540815576
81228 2 18190183390661325769
9709674 26 18054219930227391054

>  <PUBCHEM_SHAPE_MULTIPOLES>  (1) 
328.15
6.9
2.74
1.08
4.82
0.85
-0.08
-4.75
-0.31
0.66
0.72
-0.64
-0.22
0.04

>  <PUBCHEM_SHAPE_SELFOVERLAP>  (1) 
667.739

>  <PUBCHEM_SHAPE_VOLUME>  (1) 
192.1

>  <PUBCHEM_COORDINATE_TYPE>  (1) 
2
5
10

$$$$
