21627
     RDKit          3D

 16 16  0  0  0  0  0  0  0  0999 V2000
   -1.9579   -2.6163    0.6863 O   0  0  0  0  0  0  0  0  0  0  0  0
   -0.5540   -2.1949   -1.0510 O   0  0  0  0  0  0  0  0  0  0  0  0
    0.3297    0.4280   -0.8801 N   0  0  0  0  0  0  0  0  0  0  0  0
    1.1330    0.3745    0.0771 N   0  0  0  0  0  0  0  0  0  0  0  0
    3.9325    2.2063    0.3747 N   0  0  0  0  0  0  0  0  0  0  0  0
    3.2752   -2.1400    0.6838 N   0  0  0  0  0  0  0  0  0  0  0  0
   -1.8078   -0.4069   -0.0739 C   0  0  0  0  0  0  0  0  0  0  0  0
   -0.9669    0.6567   -0.4018 C   0  0  0  0  0  0  0  0  0  0  0  0
   -3.0953   -0.1571    0.4011 C   0  0  0  0  0  0  0  0  0  0  0  0
   -1.4137    1.9700   -0.2548 C   0  0  0  0  0  0  0  0  0  0  0  0
   -3.5420    1.1562    0.5480 C   0  0  0  0  0  0  0  0  0  0  0  0
   -2.7012    2.2197    0.2202 C   0  0  0  0  0  0  0  0  0  0  0  0
   -1.3677   -1.7884   -0.2174 C   0  0  0  0  0  0  0  0  0  0  0  0
    2.5030    0.1353   -0.3751 C   0  0  0  0  0  0  0  0  0  0  0  0
    3.2999    1.2906    0.0453 C   0  0  0  0  0  0  0  0  0  0  0  0
    2.9332   -1.1337    0.2177 C   0  0  0  0  0  0  0  0  0  0  0  0
  1 13  1  0
  2 13  2  0
  3  4  2  0
  3  8  1  0
  4 14  1  0
  5 15  3  0
  6 16  3  0
  7  8  2  0
  7  9  1  0
  7 13  1  0
  8 10  1  0
  9 11  2  0
 10 12  2  0
 11 12  1  0
 14 15  1  0
 14 16  1  0
M  END
>  <PUBCHEM_COMPOUND_CID>  (1) 
21627

>  <PUBCHEM_CONFORMER_RMSD>  (1) 
0.6

>  <PUBCHEM_CONFORMER_DIVERSEORDER>  (1) 
1
13
18
5
7
11
21
8
14
9
22
19
6
4
15
2
3
20
17
12
10
16

>  <PUBCHEM_MMFF94_PARTIAL_CHARGES>  (1) 
21
1 -0.65
10 -0.15
11 -0.15
12 -0.15
13 0.63
14 0.65
15 0.36
16 0.36
17 0.15
18 0.15
19 0.15
2 -0.57
20 0.15
22 0.5
3 -0.18
4 -0.25
5 -0.56
6 -0.56
7 0.09
8 0.18
9 -0.15

>  <PUBCHEM_EFFECTIVE_ROTOR_COUNT>  (1) 
3

>  <PUBCHEM_PHARMACOPHORE_FEATURES>  (1) 
6
1 1 acceptor
1 2 acceptor
1 5 acceptor
1 6 acceptor
3 1 2 13 anion
6 7 8 9 10 11 12 rings

>  <PUBCHEM_HEAVY_ATOM_COUNT>  (1) 
16

>  <PUBCHEM_ATOM_DEF_STEREO_COUNT>  (1) 
0

>  <PUBCHEM_ATOM_UDEF_STEREO_COUNT>  (1) 
0

>  <PUBCHEM_BOND_DEF_STEREO_COUNT>  (1) 
0

>  <PUBCHEM_BOND_UDEF_STEREO_COUNT>  (1) 
0

>  <PUBCHEM_ISOTOPIC_ATOM_COUNT>  (1) 
0

>  <PUBCHEM_COMPONENT_COUNT>  (1) 
1

>  <PUBCHEM_CACTVS_TAUTO_COUNT>  (1) 
1

>  <PUBCHEM_CONFORMER_ID>  (1) 
0000547B00000001

>  <PUBCHEM_MMFF94_ENERGY>  (1) 
34.0393

>  <PUBCHEM_FEATURE_SELFOVERLAP>  (1) 
30.506

>  <PUBCHEM_SHAPE_FINGERPRINT>  (1) 
10608611 8 18413388735203862060
10616163 171 18338519754468821254
12173636 292 18412544293009556133
12251169 10 18337950095850070222
12382932 28 18340209699287029456
13380535 21 18410578405131877612
13380535 76 18268148643922322407
14178342 30 18262512719059031656
15442244 35 18337951178176554146
15669948 3 18271241724301582246
16945 1 18261966240146954477
17804303 29 18265060119812254366
18186145 218 18201162027138923732
20510252 161 18272377468632540265
20528008 55 18412823603312043941
20871998 184 18199477725938930063
21501502 16 18341604936730212814
21524375 3 18198338460183292453
23402539 116 18200026369762359983
23463225 33 18262803938836398046
23559900 14 18412822478273172944
2748010 2 18048339759907566981
45790113 53 18191301568385515116
5706482 22 18269549443200272443
633830 44 17916028958347845621
69090 78 18411133615385341965
7097593 13 18189887631045323298
7364860 26 17621886383808875983
81228 2 18265037206230184849
84936 31 16626860280536711831
9709674 26 18341617001272683694

>  <PUBCHEM_SHAPE_MULTIPOLES>  (1) 
297.61
6.6
2.83
0.8
4.04
0.76
0.05
-2.14
-1.57
0.07
-0.23
-0.04
0.16
-0.15

>  <PUBCHEM_SHAPE_SELFOVERLAP>  (1) 
623.899

>  <PUBCHEM_SHAPE_VOLUME>  (1) 
163.5

>  <PUBCHEM_COORDINATE_TYPE>  (1) 
2
5
10

$$$$
