21644
     RDKit          3D

  9  9  0  0  0  0  0  0  0  0999 V2000
    0.0921    0.2858    0.2194 N   0  0  0  0  0  0  0  0  0  0  0  0
   -0.3007   -1.0265   -0.3129 C   0  0  0  0  0  0  0  0  0  0  0  0
   -0.8552    1.3313   -0.1925 C   0  0  0  0  0  0  0  0  0  0  0  0
   -1.6986   -1.4208    0.1666 C   0  0  0  0  0  0  0  0  0  0  0  0
   -2.2712    1.0141    0.2908 C   0  0  0  0  0  0  0  0  0  0  0  0
   -2.7289   -0.3568   -0.1942 C   0  0  0  0  0  0  0  0  0  0  0  0
    1.4483    0.6267   -0.2093 C   0  0  0  0  0  0  0  0  0  0  0  0
    2.4458   -0.3989    0.3232 C   0  0  0  0  0  0  0  0  0  0  0  0
    3.8683   -0.0549   -0.0911 C   0  0  0  0  0  0  0  0  0  0  0  0
  1  2  1  0
  1  3  1  0
  1  7  1  0
  2  4  1  0
  3  5  1  0
  4  6  1  0
  5  6  1  0
  7  8  1  0
  8  9  1  0
M  END
>  <PUBCHEM_COMPOUND_CID>  (1) 
21644

>  <PUBCHEM_CONFORMER_RMSD>  (1) 
0.6

>  <PUBCHEM_CONFORMER_DIVERSEORDER>  (1) 
1
3
4
5
6
2

>  <PUBCHEM_MMFF94_PARTIAL_CHARGES>  (1) 
4
1 -0.81
2 0.27
3 0.27
7 0.27

>  <PUBCHEM_EFFECTIVE_ROTOR_COUNT>  (1) 
3.2

>  <PUBCHEM_PHARMACOPHORE_FEATURES>  (1) 
3
1 1 cation
1 9 hydrophobe
6 1 2 3 4 5 6 rings

>  <PUBCHEM_HEAVY_ATOM_COUNT>  (1) 
9

>  <PUBCHEM_ATOM_DEF_STEREO_COUNT>  (1) 
0

>  <PUBCHEM_ATOM_UDEF_STEREO_COUNT>  (1) 
0

>  <PUBCHEM_BOND_DEF_STEREO_COUNT>  (1) 
0

>  <PUBCHEM_BOND_UDEF_STEREO_COUNT>  (1) 
0

>  <PUBCHEM_ISOTOPIC_ATOM_COUNT>  (1) 
0

>  <PUBCHEM_COMPONENT_COUNT>  (1) 
1

>  <PUBCHEM_CACTVS_TAUTO_COUNT>  (1) 
1

>  <PUBCHEM_CONFORMER_ID>  (1) 
0000548C00000001

>  <PUBCHEM_MMFF94_ENERGY>  (1) 
-0.1164

>  <PUBCHEM_FEATURE_SELFOVERLAP>  (1) 
15.223

>  <PUBCHEM_SHAPE_FINGERPRINT>  (1) 
10857977 72 18342448279101720048
12932764 1 17748819705393330372
13024252 1 15140680276294993221
14325111 11 18412262800958009768
15310529 11 16370713803859087098
16714656 1 18410009935892162869
20201158 50 18202002114283728310
20645464 45 17846785091547116782
20871998 184 18201442531474118327
21040471 1 18339929195184028189
23235685 24 18341326691505702577
23402539 116 18201710761309264645
23552423 10 18115588304142968252
29004967 10 16200437969893643884
369184 2 15913325797072674571
5084963 1 18410853269795236625
75552 356 18410857676347123778

>  <PUBCHEM_SHAPE_MULTIPOLES>  (1) 
180.23
5.1
1.36
0.66
4.37
0.04
0
0.26
-0.08
-0.79
0.01
-0.01
0
-0.1

>  <PUBCHEM_SHAPE_SELFOVERLAP>  (1) 
338.276

>  <PUBCHEM_SHAPE_VOLUME>  (1) 
113.5

>  <PUBCHEM_COORDINATE_TYPE>  (1) 
2
5
10

$$$$
