21656
     RDKit          3D

 22 24  0  0  0  0  0  0  0  0999 V2000
   -4.2100    3.0569   -1.7216 Cl  0  0  0  0  0  0  0  0  0  0  0  0
    4.4445    1.6374    0.5282 N   0  0  0  0  0  0  0  0  0  0  0  0
   -0.1695    0.1694   -0.2051 C   0  0  0  0  0  0  0  0  0  0  0  0
   -1.5922    0.5315   -0.0135 C   0  0  0  0  0  0  0  0  0  0  0  0
    0.2804   -1.2266   -0.4055 C   0  0  0  0  0  0  0  0  0  0  0  0
    2.2315    0.8922   -0.2170 C   0  0  0  0  0  0  0  0  0  0  0  0
    0.7593    1.1401   -0.1202 C   0  0  0  0  0  0  0  0  0  0  0  0
    3.0135    1.9056    0.6177 C   0  0  0  0  0  0  0  0  0  0  0  0
   -2.3798   -0.1049    0.9649 C   0  0  0  0  0  0  0  0  0  0  0  0
   -0.0968   -2.2483    0.4870 C   0  0  0  0  0  0  0  0  0  0  0  0
   -1.8621   -1.1126    1.9066 C   0  0  0  0  0  0  0  0  0  0  0  0
   -0.8950   -2.0208    1.7042 C   0  0  0  0  0  0  0  0  0  0  0  0
   -2.1771    1.5047   -0.8457 C   0  0  0  0  0  0  0  0  0  0  0  0
    1.0706   -1.5448   -1.5258 C   0  0  0  0  0  0  0  0  0  0  0  0
   -3.7246    0.2802    1.1109 C   0  0  0  0  0  0  0  0  0  0  0  0
    0.3625   -3.5571    0.2549 C   0  0  0  0  0  0  0  0  0  0  0  0
   -3.5161    1.8625   -0.6955 C   0  0  0  0  0  0  0  0  0  0  0  0
    1.5036   -2.8512   -1.7475 C   0  0  0  0  0  0  0  0  0  0  0  0
   -4.2890    1.2528    0.2851 C   0  0  0  0  0  0  0  0  0  0  0  0
    1.1527   -3.8567   -0.8552 C   0  0  0  0  0  0  0  0  0  0  0  0
    5.1980    2.5809    1.3557 C   0  0  0  0  0  0  0  0  0  0  0  0
    4.8957    1.7088   -0.8626 C   0  0  0  0  0  0  0  0  0  0  0  0
  1 17  1  0
  2  8  1  0
  2 21  1  0
  2 22  1  0
  3  4  1  0
  3  5  1  0
  3  7  2  0
  4  9  2  0
  4 13  1  0
  5 10  2  0
  5 14  1  0
  6  7  1  0
  6  8  1  0
  9 11  1  0
  9 15  1  0
 10 12  1  0
 10 16  1  0
 11 12  2  0
 13 17  2  0
 14 18  2  0
 15 19  2  0
 16 20  2  0
 17 19  1  0
 18 20  1  0
M  END
>  <PUBCHEM_COMPOUND_CID>  (1) 
21656

>  <PUBCHEM_CONFORMER_RMSD>  (1) 
0.6

>  <PUBCHEM_CONFORMER_DIVERSEORDER>  (1) 
1
10
8
9
6
4
3
2
11
12
5
7

>  <PUBCHEM_MMFF94_PARTIAL_CHARGES>  (1) 
32
1 -0.18
10 0.03
11 -0.18
12 -0.18
13 -0.15
14 -0.15
15 -0.15
16 -0.15
17 0.18
18 -0.15
19 -0.15
2 -0.81
20 -0.15
21 0.27
22 0.27
25 0.15
28 0.15
29 0.15
3 -0.06
30 0.15
31 0.15
32 0.15
33 0.15
34 0.15
35 0.15
36 0.15
4 0.03
5 0.03
6 0.14
7 -0.29
8 0.27
9 0.03

>  <PUBCHEM_EFFECTIVE_ROTOR_COUNT>  (1) 
3

>  <PUBCHEM_PHARMACOPHORE_FEATURES>  (1) 
4
1 2 cation
6 4 9 13 15 17 19 rings
6 5 10 14 16 18 20 rings
7 3 4 5 9 10 11 12 rings

>  <PUBCHEM_HEAVY_ATOM_COUNT>  (1) 
22

>  <PUBCHEM_ATOM_DEF_STEREO_COUNT>  (1) 
0

>  <PUBCHEM_ATOM_UDEF_STEREO_COUNT>  (1) 
0

>  <PUBCHEM_BOND_DEF_STEREO_COUNT>  (1) 
0

>  <PUBCHEM_BOND_UDEF_STEREO_COUNT>  (1) 
1

>  <PUBCHEM_ISOTOPIC_ATOM_COUNT>  (1) 
0

>  <PUBCHEM_COMPONENT_COUNT>  (1) 
1

>  <PUBCHEM_CACTVS_TAUTO_COUNT>  (1) 
1

>  <PUBCHEM_CONFORMER_ID>  (1) 
0000549800000001

>  <PUBCHEM_MMFF94_ENERGY>  (1) 
79.0601

>  <PUBCHEM_FEATURE_SELFOVERLAP>  (1) 
20.311

>  <PUBCHEM_SHAPE_FINGERPRINT>  (1) 
105312 117 18410291458451553116
10764073 3 17099718480423917826
107951 10 17968386727394840202
10930396 42 17120259930400671626
11578080 2 18265911168036027337
12549972 3 17681293070014392833
12716301 132 17315103054191855507
12788726 201 17837464699383779786
13004483 165 17261023841189270114
13134695 92 17764030168563015015
13540713 4 18042695992634732985
13590594 115 17188698541666099265
13681431 1 17769656395405702354
15230672 131 18336273410313226190
16945 1 17977676307785211219
17980427 23 17240484745165780501
17980427 26 17826774968260035263
1813 80 16697532476795991134
18915476 22 18270404880241941661
21033648 29 18271514407813580600
21120745 212 17113832241106494156
21731228 192 18339644546131416920
22182313 1 18041858198991531817
23419403 2 18052013304822079466
23559900 14 17898022234569927222
23598288 3 17971753530783311868
23728640 28 18195518427638294442
238918 7 18336539439543470604
2748010 2 17974043714503684051
3027735 51 17843681307930605670
3298306 158 18411140208466051262
376196 1 18263627524638548545
495365 180 18341889641527663212
532947 4 18269841930568387638
633830 44 17489326173608850640
7399639 24 18337402578062296675
81228 2 17550093110242128914
90316 7 17615138006154227914
9862522 239 18267025131721910234
9981440 41 18410566288728761105

>  <PUBCHEM_SHAPE_MULTIPOLES>  (1) 
449.64
8.25
4.51
1.67
3.81
3.05
-0.03
-11.7
-0.44
2.71
1.04
-0.33
0.34
3.13

>  <PUBCHEM_SHAPE_SELFOVERLAP>  (1) 
960.39

>  <PUBCHEM_SHAPE_VOLUME>  (1) 
249.7

>  <PUBCHEM_COORDINATE_TYPE>  (1) 
2
5
10

$$$$
