21651
     RDKit          3D

 26 27  0  0  0  0  0  0  0  0999 V2000
   -2.3833   -1.3097   -0.6486 O   0  0  0  0  0  0  0  0  0  0  0  0
   -2.9808    1.3855   -0.9372 O   0  0  0  0  0  0  0  0  0  0  0  0
    2.6206   -1.4078    0.2349 O   0  0  0  0  0  0  0  0  0  0  0  0
    5.0928   -0.6095   -0.0447 O   0  0  0  0  0  0  0  0  0  0  0  0
    5.4887    1.3874    1.0575 O   0  0  0  0  0  0  0  0  0  0  0  0
    1.6489    2.5014   -0.2047 N   0  0  0  0  0  0  0  0  0  0  0  0
   -3.7285   -3.1430    0.1850 C   0  0  0  0  0  0  0  0  0  0  0  0
   -5.0977    2.0159    0.0561 C   0  0  0  0  0  0  0  0  0  0  0  0
   -1.4023   -0.3698   -0.5411 C   0  0  0  0  0  0  0  0  0  0  0  0
   -1.7027    0.9850   -0.6858 C   0  0  0  0  0  0  0  0  0  0  0  0
   -2.6109   -2.1409    0.4875 C   0  0  0  0  0  0  0  0  0  0  0  0
   -3.5861    2.2560    0.0164 C   0  0  0  0  0  0  0  0  0  0  0  0
    0.9159    0.1860   -0.1741 C   0  0  0  0  0  0  0  0  0  0  0  0
    0.6237    1.5553   -0.3190 C   0  0  0  0  0  0  0  0  0  0  0  0
   -0.0927   -0.7749   -0.2850 C   0  0  0  0  0  0  0  0  0  0  0  0
   -0.6946    1.9446   -0.5754 C   0  0  0  0  0  0  0  0  0  0  0  0
   -3.3581   -4.0536   -0.9876 C   0  0  0  0  0  0  0  0  0  0  0  0
   -4.0465   -3.9765    1.4245 C   0  0  0  0  0  0  0  0  0  0  0  0
   -5.7699    3.0062    1.0046 C   0  0  0  0  0  0  0  0  0  0  0  0
   -5.4231    0.5790    0.4697 C   0  0  0  0  0  0  0  0  0  0  0  0
    2.3203   -0.2283    0.0999 C   0  0  0  0  0  0  0  0  0  0  0  0
    3.3433    0.8531    0.2036 C   0  0  0  0  0  0  0  0  0  0  0  0
    2.9378    2.1199    0.0459 C   0  0  0  0  0  0  0  0  0  0  0  0
    4.7604    0.6033    0.4675 C   0  0  0  0  0  0  0  0  0  0  0  0
    6.4580   -1.0000    0.1357 C   0  0  0  0  0  0  0  0  0  0  0  0
    6.6669   -2.3645   -0.4858 C   0  0  0  0  0  0  0  0  0  0  0  0
  1  9  1  0
  1 11  1  0
  2 10  1  0
  2 12  1  0
  3 21  2  0
  4 24  1  0
  4 25  1  0
  5 24  2  0
  6 14  1  0
  6 23  1  0
  7 11  1  0
  7 17  1  0
  7 18  1  0
  8 12  1  0
  8 19  1  0
  8 20  1  0
  9 10  1  0
  9 15  2  0
 10 16  2  0
 13 14  2  0
 13 15  1  0
 13 21  1  0
 14 16  1  0
 21 22  1  0
 22 23  2  0
 22 24  1  0
 25 26  1  0
M  END
>  <PUBCHEM_COMPOUND_CID>  (1) 
21651

>  <PUBCHEM_CONFORMER_RMSD>  (1) 
1

>  <PUBCHEM_CONFORMER_DIVERSEORDER>  (1) 
1
31
27
19
15
12
10
25
11
22
18
9
4
29
32
2
17
24
14
20
7
3
8
16
13
26
21
23
6
5
28
30

>  <PUBCHEM_MMFF94_PARTIAL_CHARGES>  (1) 
23
1 -0.36
10 0.08
11 0.28
12 0.28
13 0.09
14 0.1
15 -0.15
16 -0.15
2 -0.36
21 0.47
22 0.03
23 -0.05
24 0.71
25 0.28
3 -0.57
33 0.15
34 0.15
4 -0.43
47 0.4
48 0.15
5 -0.57
6 -0.6
9 0.08

>  <PUBCHEM_EFFECTIVE_ROTOR_COUNT>  (1) 
9

>  <PUBCHEM_PHARMACOPHORE_FEATURES>  (1) 
11
1 1 acceptor
1 2 acceptor
1 22 anion
1 3 acceptor
1 5 acceptor
1 6 cation
1 6 donor
3 7 17 18 hydrophobe
3 8 19 20 hydrophobe
6 6 13 14 21 22 23 rings
6 9 10 13 14 15 16 rings

>  <PUBCHEM_HEAVY_ATOM_COUNT>  (1) 
26

>  <PUBCHEM_ATOM_DEF_STEREO_COUNT>  (1) 
0

>  <PUBCHEM_ATOM_UDEF_STEREO_COUNT>  (1) 
0

>  <PUBCHEM_BOND_DEF_STEREO_COUNT>  (1) 
0

>  <PUBCHEM_BOND_UDEF_STEREO_COUNT>  (1) 
0

>  <PUBCHEM_ISOTOPIC_ATOM_COUNT>  (1) 
0

>  <PUBCHEM_COMPONENT_COUNT>  (1) 
1

>  <PUBCHEM_CACTVS_TAUTO_COUNT>  (1) 
4

>  <PUBCHEM_CONFORMER_ID>  (1) 
0000549300000001

>  <PUBCHEM_MMFF94_ENERGY>  (1) 
77.9462

>  <PUBCHEM_FEATURE_SELFOVERLAP>  (1) 
55.849

>  <PUBCHEM_SHAPE_FINGERPRINT>  (1) 
10050765 1 18338518655010220388
11405975 8 18411696612552008528
12236239 1 17845928550451692733
12643181 29 18338232662155201790
13140716 1 18410853304060529580
13540713 5 18042698379924757389
14420673 8 18410577241180169534
14866123 147 18408040719552961539
15042514 8 18408323319794915493
15196674 1 18410569613655706036
15295992 7 17632006546371209017
15361156 5 18041010556861759428
15537594 2 17603863360894190218
15927050 60 18337948970674991207
17492 89 18337670948824950286
19141452 34 18409729543057651212
19301679 30 18193849356166582843
21033648 29 17703208716220130304
21236236 1 18411978092124210935
21267235 1 18339082558846996236
21304304 249 18335425682157519757
22224240 67 18340208480524464321
23522609 53 17896060839440005228
23559900 14 18340477899337642112
25147074 1 17969229004229550453
312423 11 17970069044002990476
335352 9 18339922619694866412
4073 2 18410853279092001122
5104073 3 18338504331541987896
59755656 215 18267306435332679790
59755656 520 18337388236876429533
7970288 3 17906448080005974838

>  <PUBCHEM_SHAPE_MULTIPOLES>  (1) 
500.74
14.89
4.53
0.93
14.26
4.15
-0.09
1.83
-3.12
-7.39
-0.44
-0.59
0.29
0.44

>  <PUBCHEM_SHAPE_SELFOVERLAP>  (1) 
1038.083

>  <PUBCHEM_SHAPE_VOLUME>  (1) 
286.6

>  <PUBCHEM_COORDINATE_TYPE>  (1) 
2
5
10

$$$$
