21661
     RDKit          3D

 13 14  0  0  0  0  0  0  0  0999 V2000
   -2.2103    1.1898    0.2544 N   0  0  0  0  0  0  0  0  0  0  0  0
   -2.5272   -1.0289   -0.1407 N   0  0  0  0  0  0  0  0  0  0  0  0
   -0.7125   -0.4346    1.3982 C   0  0  0  0  0  0  0  0  0  0  0  0
   -1.8488   -0.1024    0.4875 C   0  0  0  0  0  0  0  0  0  0  0  0
   -3.2939    1.2358   -0.6802 C   0  0  0  0  0  0  0  0  0  0  0  0
   -3.5436   -0.2602   -0.9234 C   0  0  0  0  0  0  0  0  0  0  0  0
    0.5934   -0.4334    0.6565 C   0  0  0  0  0  0  0  0  0  0  0  0
    1.3330    0.7401    0.5683 C   0  0  0  0  0  0  0  0  0  0  0  0
    1.0485   -1.6059    0.0650 C   0  0  0  0  0  0  0  0  0  0  0  0
    2.5454    0.7408   -0.1213 C   0  0  0  0  0  0  0  0  0  0  0  0
    2.2611   -1.6050   -0.6244 C   0  0  0  0  0  0  0  0  0  0  0  0
    3.0094   -0.4317   -0.7177 C   0  0  0  0  0  0  0  0  0  0  0  0
    3.3455    1.9956   -0.2222 C   0  0  0  0  0  0  0  0  0  0  0  0
  1  4  1  0
  1  5  1  0
  2  4  2  0
  2  6  1  0
  3  4  1  0
  3  7  1  0
  5  6  1  0
  7  8  2  0
  7  9  1  0
  8 10  1  0
  9 11  2  0
 10 12  2  0
 10 13  1  0
 11 12  1  0
M  END
>  <PUBCHEM_COMPOUND_CID>  (1) 
21661

>  <PUBCHEM_CONFORMER_RMSD>  (1) 
0.6

>  <PUBCHEM_CONFORMER_DIVERSEORDER>  (1) 
1
7
6
4
2
5
8
3

>  <PUBCHEM_MMFF94_PARTIAL_CHARGES>  (1) 
18
1 -0.82
10 -0.14
11 -0.15
12 -0.15
13 0.14
2 -0.7
20 0.4
21 0.15
22 0.15
23 0.15
24 0.15
3 0.2
4 0.44
5 0.37
6 0.25
7 -0.14
8 -0.15
9 -0.15

>  <PUBCHEM_EFFECTIVE_ROTOR_COUNT>  (1) 
2.6

>  <PUBCHEM_PHARMACOPHORE_FEATURES>  (1) 
4
1 1 donor
3 1 2 4 cation
5 1 2 4 5 6 rings
6 7 8 9 10 11 12 rings

>  <PUBCHEM_HEAVY_ATOM_COUNT>  (1) 
13

>  <PUBCHEM_ATOM_DEF_STEREO_COUNT>  (1) 
0

>  <PUBCHEM_ATOM_UDEF_STEREO_COUNT>  (1) 
0

>  <PUBCHEM_BOND_DEF_STEREO_COUNT>  (1) 
0

>  <PUBCHEM_BOND_UDEF_STEREO_COUNT>  (1) 
0

>  <PUBCHEM_ISOTOPIC_ATOM_COUNT>  (1) 
0

>  <PUBCHEM_COMPONENT_COUNT>  (1) 
1

>  <PUBCHEM_CACTVS_TAUTO_COUNT>  (1) 
1

>  <PUBCHEM_CONFORMER_ID>  (1) 
0000549D00000001

>  <PUBCHEM_MMFF94_ENERGY>  (1) 
35.3096

>  <PUBCHEM_FEATURE_SELFOVERLAP>  (1) 
20.297

>  <PUBCHEM_SHAPE_FINGERPRINT>  (1) 
10498660 4 17750501911176902813
10608611 8 18334576845293927725
11715629 250 18187076235425888429
12006461 19 11312058776705689925
12202030 40 12750968663197881136
12251169 10 8214136361165059001
124424 183 17894352159878609426
12696612 119 8502361243953671346
12897270 3 18341891909217537627
12932764 1 18041007210702609771
13571099 52 17967530198771730754
13705890 14 17846779611437956846
13764800 53 16660943088245759073
14250199 8 18410578357549835221
15775835 57 18272938253500093813
16945 1 18267880405887183474
17357990 137 14996293500141240670
17804303 29 9727367864943960377
18186145 218 18336273361702236250
18619055 16 18130785633613696247
20201158 50 18410014295294530786
20281407 28 12391521879263903024
20361792 2 15195276530467217129
20645477 70 18201722820987036399
20653085 51 18335989653706587201
20671657 53 18056769715236381542
20711985 344 15194737709603135419
20871999 31 18269822277046052263
21524375 3 18264486372569546160
21947302 44 18334574642239228202
22096605 113 18411418444626061264
22169311 14 8935010282270252223
22802520 49 18261686860823977993
230 275 16805324357723813414
23402655 69 18341612564539649413
23557571 272 17750531743481410315
25 1 18188500051143511874
2748010 2 18053406537048032018
3082319 5 18272930501310951733
4028521 119 18041271093809852261
8030462 33 17489871518285103867
81228 2 16735547288473222355
93112 12 18341050726913874215

>  <PUBCHEM_SHAPE_MULTIPOLES>  (1) 
257.57
6.26
1.74
1.03
2.33
0.22
-0.13
1.92
2.2
-1.1
0.22
0.25
-0.1
0.29

>  <PUBCHEM_SHAPE_SELFOVERLAP>  (1) 
541.433

>  <PUBCHEM_SHAPE_VOLUME>  (1) 
143

>  <PUBCHEM_COORDINATE_TYPE>  (1) 
2
5
10

$$$$
