2166
     RDKit          3D

 25 27  0  0  0  0  0  0  0  0999 V2000
   -7.7284    1.0064    0.6054 Cl  0  0  0  0  0  0  0  0  0  0  0  0
    3.4315    2.3080   -1.2238 O   0  0  0  0  0  0  0  0  0  0  0  0
    5.2476   -0.3579    0.0501 N   0  0  0  0  0  0  0  0  0  0  0  0
   -1.0365    0.7060   -0.4537 N   0  0  0  0  0  0  0  0  0  0  0  0
   -3.9655   -2.2922   -0.2351 N   0  0  0  0  0  0  0  0  0  0  0  0
    4.5100    0.6383    0.8276 C   0  0  0  0  0  0  0  0  0  0  0  0
    3.0578    0.6661    0.4820 C   0  0  0  0  0  0  0  0  0  0  0  0
    4.7115   -1.6959    0.2955 C   0  0  0  0  0  0  0  0  0  0  0  0
    6.6717   -0.3089    0.3782 C   0  0  0  0  0  0  0  0  0  0  0  0
    2.5817    1.5001   -0.5298 C   0  0  0  0  0  0  0  0  0  0  0  0
    2.1741   -0.1546    1.1829 C   0  0  0  0  0  0  0  0  0  0  0  0
    0.3334    0.6929   -0.1406 C   0  0  0  0  0  0  0  0  0  0  0  0
    1.2221    1.5133   -0.8405 C   0  0  0  0  0  0  0  0  0  0  0  0
    5.4657   -2.7447   -0.5041 C   0  0  0  0  0  0  0  0  0  0  0  0
    7.2589    1.0584    0.0721 C   0  0  0  0  0  0  0  0  0  0  0  0
    0.8144   -0.1412    0.8722 C   0  0  0  0  0  0  0  0  0  0  0  0
   -2.0442   -0.2845   -0.3762 C   0  0  0  0  0  0  0  0  0  0  0  0
   -3.3862    0.0451   -0.1424 C   0  0  0  0  0  0  0  0  0  0  0  0
   -4.3264   -1.0044   -0.0786 C   0  0  0  0  0  0  0  0  0  0  0  0
   -1.6693   -1.6105   -0.5379 C   0  0  0  0  0  0  0  0  0  0  0  0
   -3.7979    1.3781    0.0254 C   0  0  0  0  0  0  0  0  0  0  0  0
   -5.6593   -0.6763    0.1535 C   0  0  0  0  0  0  0  0  0  0  0  0
   -2.6602   -2.5679   -0.4590 C   0  0  0  0  0  0  0  0  0  0  0  0
   -5.1375    1.6776    0.2564 C   0  0  0  0  0  0  0  0  0  0  0  0
   -6.0690    0.6488    0.3205 C   0  0  0  0  0  0  0  0  0  0  0  0
  1 25  1  0
  2 10  1  0
  3  6  1  0
  3  8  1  0
  3  9  1  0
  4 12  1  0
  4 17  1  0
  5 19  2  0
  5 23  1  0
  6  7  1  0
  7 10  2  0
  7 11  1  0
  8 14  1  0
  9 15  1  0
 10 13  1  0
 11 16  2  0
 12 13  2  0
 12 16  1  0
 17 18  2  0
 17 20  1  0
 18 19  1  0
 18 21  1  0
 19 22  1  0
 20 23  2  0
 21 24  2  0
 22 25  2  0
 24 25  1  0
M  END
>  <PUBCHEM_COMPOUND_CID>  (1) 
2166

>  <PUBCHEM_CONFORMER_RMSD>  (1) 
0.8

>  <PUBCHEM_CONFORMER_DIVERSEORDER>  (1) 
5
102
77
86
72
82
104
74
60
54
52
59
32
24
83
92
93
94
90
96
2
3
79
65
51
22
64
76
95
91
63
18
75
62
78
48
87
88
39
26
68
49
85
7
28
50
98
80
89
81
61
58
97
67
69
99
1
66
42
73
19
21
101
71
84
10
44
53
30
47
40
17
33
27
45
14
23
37
38
70
100
103
56
57
9
31
55
6
13
46
34
29
11
12
4
8
25
41
20
35
36
15
16
43

>  <PUBCHEM_MMFF94_PARTIAL_CHARGES>  (1) 
32
1 -0.18
10 0.08
11 -0.15
12 0.1
13 -0.15
16 -0.15
17 0.1
19 0.31
2 -0.53
20 -0.15
21 -0.15
22 -0.15
23 0.16
24 -0.15
25 0.18
3 -0.81
32 0.15
33 0.15
4 -0.6
40 0.15
41 0.4
42 0.15
43 0.15
44 0.45
45 0.15
46 0.15
47 0.15
5 -0.62
6 0.41
7 -0.14
8 0.27
9 0.27

>  <PUBCHEM_EFFECTIVE_ROTOR_COUNT>  (1) 
6

>  <PUBCHEM_PHARMACOPHORE_FEATURES>  (1) 
8
1 2 donor
1 3 cation
1 4 cation
1 4 donor
1 5 acceptor
6 18 19 21 22 24 25 rings
6 5 17 18 19 20 23 rings
6 7 10 11 12 13 16 rings

>  <PUBCHEM_HEAVY_ATOM_COUNT>  (1) 
25

>  <PUBCHEM_ATOM_DEF_STEREO_COUNT>  (1) 
0

>  <PUBCHEM_ATOM_UDEF_STEREO_COUNT>  (1) 
0

>  <PUBCHEM_BOND_DEF_STEREO_COUNT>  (1) 
0

>  <PUBCHEM_BOND_UDEF_STEREO_COUNT>  (1) 
0

>  <PUBCHEM_ISOTOPIC_ATOM_COUNT>  (1) 
0

>  <PUBCHEM_COMPONENT_COUNT>  (1) 
1

>  <PUBCHEM_CACTVS_TAUTO_COUNT>  (1) 
17

>  <PUBCHEM_CONFORMER_ID>  (1) 
0000087600000005

>  <PUBCHEM_MMFF94_ENERGY>  (1) 
87.454

>  <PUBCHEM_FEATURE_SELFOVERLAP>  (1) 
40.626

>  <PUBCHEM_SHAPE_FINGERPRINT>  (1) 
10299344 5 18334012792224663562
10906281 52 17823143479460231776
11315181 36 18335700576864706665
11524674 6 17275382114306942751
11578080 2 12318910045994348923
11796584 16 17918277584380899422
12107183 9 18410013213163427209
12236239 1 18261111911201670261
13533116 47 17774719762774599482
13914758 101 14548743863486988155
14251764 18 18273494576609075679
14341114 176 18411138008941700560
14420673 8 18338238158890680615
14849402 71 18042409200236108132
14933364 13 18413107268848637328
15021287 119 17894354380023799853
15183329 4 17918276428448985002
15250474 111 18267860773465528046
15461852 350 17275099574568505173
15537594 2 17748819705045288218
15849732 13 18260267430384112285
17844677 252 18342460386757374560
1813 80 17312821559216729716
19141452 34 18411133649571254094
20105231 36 18040727939223899171
21033648 29 17489007357985664850
21267235 1 18187087256333023265
21641784 216 15502658127358770550
21774942 28 16343151191273063209
21781055 127 17773061720815171521
23522609 53 17896060805022400564
23559900 14 18201711886016027696
23569917 315 18412548722118468111
24771293 8 18117267263728375324
3004659 81 18411138022438649098
335352 9 18412260653885974685
338550 245 18409168839720434966
34797466 226 12324244932045886906
350125 39 18410854347847813097
404807 14 16979012903826082823
4073 2 18261675982205015818
4214541 1 18411697707815972729
5104073 3 18189330337278845177
5265222 85 18058169617240446902
5385378 56 18129673989510632019
559249 180 18411133649861345799
59755656 215 18272654502180335758
59755656 520 18201711848247460823
6328613 192 18412545418364652200
7226269 152 17847062160341348777
9965369 4 18341894057044109555

>  <PUBCHEM_SHAPE_MULTIPOLES>  (1) 
495.55
19.44
2.38
0.9
1.37
1.27
-0.03
-1.28
-2.73
0.57
0.6
0.42
-0.15
-0.69

>  <PUBCHEM_SHAPE_SELFOVERLAP>  (1) 
1057.528

>  <PUBCHEM_SHAPE_VOLUME>  (1) 
276.8

>  <PUBCHEM_COORDINATE_TYPE>  (1) 
2
5
10

$$$$
