21679
     RDKit          3D

 28 29  0  0  0  0  0  0  0  0999 V2000
    1.3659    2.5918    0.6293 O   0  0  0  0  0  0  0  0  0  0  0  0
   -3.6292    3.7838    0.8708 N   0  0  0  0  0  0  0  0  0  0  0  0
    5.3067   -0.7241    1.1918 N   0  0  0  0  0  0  0  0  0  0  0  0
    0.7460    1.3193    0.3560 C   0  0  0  0  0  0  0  0  0  0  0  0
   -0.6693    1.3807    0.9943 C   0  0  0  0  0  0  0  0  0  0  0  0
    1.6261    0.2515    1.0642 C   0  0  0  0  0  0  0  0  0  0  0  0
    0.7822    1.1086   -1.1590 C   0  0  0  0  0  0  0  0  0  0  0  0
   -1.5191    2.5788    0.5359 C   0  0  0  0  0  0  0  0  0  0  0  0
    3.1214    0.2877    0.7249 C   0  0  0  0  0  0  0  0  0  0  0  0
    0.3448   -0.0828   -1.6916 C   0  0  0  0  0  0  0  0  0  0  0  0
   -2.8374    2.6402    1.3087 C   0  0  0  0  0  0  0  0  0  0  0  0
    3.8888   -0.7629    1.5298 C   0  0  0  0  0  0  0  0  0  0  0  0
    1.2599    2.1397   -1.9379 C   0  0  0  0  0  0  0  0  0  0  0  0
   -0.1707   -1.1960   -0.8395 C   0  0  0  0  0  0  0  0  0  0  0  0
    0.3868   -0.2532   -3.0754 C   0  0  0  0  0  0  0  0  0  0  0  0
   -1.4642   -1.8431   -1.3701 C   0  0  0  0  0  0  0  0  0  0  0  0
    1.3016    1.9691   -3.3216 C   0  0  0  0  0  0  0  0  0  0  0  0
    0.8651    0.7728   -3.8903 C   0  0  0  0  0  0  0  0  0  0  0  0
   -1.9893   -2.9419   -0.4785 C   0  0  0  0  0  0  0  0  0  0  0  0
   -4.9080    3.8279    1.5821 C   0  0  0  0  0  0  0  0  0  0  0  0
   -2.8907    5.0309    1.0764 C   0  0  0  0  0  0  0  0  0  0  0  0
    5.8641    0.6030    1.4590 C   0  0  0  0  0  0  0  0  0  0  0  0
    6.0430   -1.7441    1.9405 C   0  0  0  0  0  0  0  0  0  0  0  0
   -1.5695   -4.2461   -0.6882 C   0  0  0  0  0  0  0  0  0  0  0  0
   -2.8815   -2.6272    0.5346 C   0  0  0  0  0  0  0  0  0  0  0  0
   -2.0545   -5.2616    0.1358 C   0  0  0  0  0  0  0  0  0  0  0  0
   -3.3663   -3.6429    1.3586 C   0  0  0  0  0  0  0  0  0  0  0  0
   -2.9528   -4.9600    1.1593 C   0  0  0  0  0  0  0  0  0  0  0  0
  1  4  1  0
  2 11  1  0
  2 20  1  0
  2 21  1  0
  3 12  1  0
  3 22  1  0
  3 23  1  0
  4  5  1  0
  4  6  1  0
  4  7  1  0
  5  8  1  0
  6  9  1  0
  7 10  2  0
  7 13  1  0
  8 11  1  0
  9 12  1  0
 10 14  1  0
 10 15  1  0
 13 17  2  0
 14 16  1  0
 15 18  2  0
 16 19  1  0
 17 18  1  0
 19 24  2  0
 19 25  1  0
 24 26  1  0
 25 27  2  0
 26 28  2  0
 27 28  1  0
M  END
>  <PUBCHEM_COMPOUND_CID>  (1) 
21679

>  <PUBCHEM_CONFORMER_RMSD>  (1) 
1

>  <PUBCHEM_CONFORMER_DIVERSEORDER>  (1) 
2
120
34
57
56
67
148
154
134
118
84
61
77
139
52
60
156
21
70
16
96
98
144
153
147
128
103
114
91
123
110
8
23
14
79
101
121
125
90
45
95
100
85
78
36
88
28
135
65
50
59
97
39
44
6
102
32
127
54
27
26
89
132
116
49
68
92
17
3
33
104
113
124
71
136
55
47
30
58
69
152
81
64
80
108
142
143
130
24
76
37
5
86
73
99
106
48
11
53
145
111
115
4
141
126
149
133
75
46
40
109
117
82
131
105
122
38
146
63
140
43
12
94
87
10
151
66
72
13
35
18
29
41
1
7
157
20
138
42
74
129
93
119
137
83
15
25
150
155
62
31
9
22
19
51
112
107

>  <PUBCHEM_MMFF94_PARTIAL_CHARGES>  (1) 
34
1 -0.68
10 -0.14
11 0.27
12 0.27
13 -0.15
14 0.14
15 -0.15
16 0.14
17 -0.15
18 -0.15
19 -0.14
2 -0.81
20 0.27
21 0.27
22 0.27
23 0.27
24 -0.15
25 -0.15
26 -0.15
27 -0.15
28 -0.15
3 -0.81
4 0.42
41 0.4
42 0.15
45 0.15
48 0.15
49 0.15
62 0.15
63 0.15
64 0.15
65 0.15
66 0.15
7 -0.14

>  <PUBCHEM_EFFECTIVE_ROTOR_COUNT>  (1) 
12

>  <PUBCHEM_PHARMACOPHORE_FEATURES>  (1) 
6
1 1 acceptor
1 1 donor
1 2 cation
1 3 cation
6 19 24 25 26 27 28 rings
6 7 10 13 15 17 18 rings

>  <PUBCHEM_HEAVY_ATOM_COUNT>  (1) 
28

>  <PUBCHEM_ATOM_DEF_STEREO_COUNT>  (1) 
0

>  <PUBCHEM_ATOM_UDEF_STEREO_COUNT>  (1) 
0

>  <PUBCHEM_BOND_DEF_STEREO_COUNT>  (1) 
0

>  <PUBCHEM_BOND_UDEF_STEREO_COUNT>  (1) 
0

>  <PUBCHEM_ISOTOPIC_ATOM_COUNT>  (1) 
0

>  <PUBCHEM_COMPONENT_COUNT>  (1) 
1

>  <PUBCHEM_CACTVS_TAUTO_COUNT>  (1) 
1

>  <PUBCHEM_CONFORMER_ID>  (1) 
000054AF00000002

>  <PUBCHEM_MMFF94_ENERGY>  (1) 
91.2607

>  <PUBCHEM_FEATURE_SELFOVERLAP>  (1) 
30.446

>  <PUBCHEM_SHAPE_FINGERPRINT>  (1) 
10074138 170 18269535196567191472
11387372 6 18197214746869315598
11421498 54 17538858283191596589
11763715 3 18048330121595104296
12058002 1 18341887468153062300
12160290 23 17916049956801145081
12788726 201 18193010415497302410
13009979 54 18117560840978115322
13135754 10 18342172285094336910
13533116 47 17324354594443229243
13583140 156 17259044724760313711
14863182 85 17905067862421550065
15878777 1 13702110941980771252
15968369 26 17756173110928394457
16114785 44 17272534401013543706
17980427 26 17406537122481688284
20587220 46 13632599160127672065
21049683 118 17054099781346909337
23559900 14 16406517446357093831
3380486 77 16839358881242664071
3552219 110 18043248162241327336
376196 1 17201622351694365528
484985 159 18264184964718687050
5080951 261 17898539061724417858
550186 83 17622761972631570835
56616090 278 16684305854915375763
57527573 199 17987799575355503017
59444896 2 17751106745492937844
6086070 43 17694223670676721191

>  <PUBCHEM_SHAPE_MULTIPOLES>  (1) 
560.4
8.73
7.63
3.14
11.53
0.23
-3.85
-4.49
9.07
-14.76
4.08
2.27
1.29
-3.59

>  <PUBCHEM_SHAPE_SELFOVERLAP>  (1) 
1143.694

>  <PUBCHEM_SHAPE_VOLUME>  (1) 
326.8

>  <PUBCHEM_COORDINATE_TYPE>  (1) 
2
5
10

$$$$
