21676
     RDKit          3D

 12 12  0  0  0  0  0  0  0  0999 V2000
   -2.3786   -0.4015   -0.3561 N   0  0  0  0  0  0  0  0  0  0  0  0
   -1.9475    1.5913    0.8657 N   0  0  0  0  0  0  0  0  0  0  0  0
   -0.5144   -0.2690    1.2613 C   0  0  0  0  0  0  0  0  0  0  0  0
   -1.6810    0.3259    0.5402 C   0  0  0  0  0  0  0  0  0  0  0  0
    0.8089   -0.0991    0.5528 C   0  0  0  0  0  0  0  0  0  0  0  0
    1.7962   -1.0564    0.7212 C   0  0  0  0  0  0  0  0  0  0  0  0
    1.0099    1.0104   -0.2523 C   0  0  0  0  0  0  0  0  0  0  0  0
   -3.5134    0.2261   -1.0645 C   0  0  0  0  0  0  0  0  0  0  0  0
   -2.0655   -1.8066   -0.6814 C   0  0  0  0  0  0  0  0  0  0  0  0
    3.0180   -0.8998    0.0668 C   0  0  0  0  0  0  0  0  0  0  0  0
    2.2318    1.1668   -0.9067 C   0  0  0  0  0  0  0  0  0  0  0  0
    3.2358    0.2118   -0.7471 C   0  0  0  0  0  0  0  0  0  0  0  0
  1  4  2  3
  1  8  1  0
  1  9  1  0
  2  4  1  0
  3  4  1  0
  3  5  1  0
  5  6  2  0
  5  7  1  0
  6 10  1  0
  7 11  2  0
 10 12  2  0
 11 12  1  0
M  CHG  1   1   1
M  END
>  <PUBCHEM_COMPOUND_CID>  (1) 
21676

>  <PUBCHEM_CONFORMER_RMSD>  (1) 
0.6

>  <PUBCHEM_CONFORMER_DIVERSEORDER>  (1) 
1
6
2
7
3
4
5

>  <PUBCHEM_MMFF94_PARTIAL_CHARGES>  (1) 
19
1 -0.83
10 -0.15
11 -0.15
12 -0.15
15 0.15
16 0.15
2 -0.75
23 0.45
24 0.45
25 0.15
26 0.15
27 0.15
3 0.25
4 0.6
5 -0.14
6 -0.15
7 -0.15
8 0.49
9 0.49

>  <PUBCHEM_EFFECTIVE_ROTOR_COUNT>  (1) 
2

>  <PUBCHEM_PHARMACOPHORE_FEATURES>  (1) 
3
1 2 donor
3 1 2 4 cation
6 5 6 7 10 11 12 rings

>  <PUBCHEM_HEAVY_ATOM_COUNT>  (1) 
12

>  <PUBCHEM_ATOM_DEF_STEREO_COUNT>  (1) 
0

>  <PUBCHEM_ATOM_UDEF_STEREO_COUNT>  (1) 
0

>  <PUBCHEM_BOND_DEF_STEREO_COUNT>  (1) 
0

>  <PUBCHEM_BOND_UDEF_STEREO_COUNT>  (1) 
0

>  <PUBCHEM_ISOTOPIC_ATOM_COUNT>  (1) 
0

>  <PUBCHEM_COMPONENT_COUNT>  (1) 
1

>  <PUBCHEM_CACTVS_TAUTO_COUNT>  (1) 
2

>  <PUBCHEM_CONFORMER_ID>  (1) 
000054AC00000001

>  <PUBCHEM_MMFF94_ENERGY>  (1) 
30.0734

>  <PUBCHEM_FEATURE_SELFOVERLAP>  (1) 
15.223

>  <PUBCHEM_SHAPE_FINGERPRINT>  (1) 
11031198 65 16877940499495127059
11401426 45 18187359939922895212
12202030 40 15841005381275225676
124424 183 15430307062474053896
12696612 119 10952054463494201450
12897270 3 18340768246856735333
12932764 1 18130519573438083128
13764800 53 14346080785049113845
14993402 34 18411984646122985454
15775835 57 17967812751685103647
16945 1 18272371970652018314
17844478 74 16154292553650583633
18186145 218 17749113257417007962
18619055 16 18410285921842699071
20279233 1 15123509172849152540
20281407 28 14979686502037052892
20645476 183 18335411374994307111
20653085 51 17603581928814482533
20711985 344 17131563747310211305
21119208 17 18409163303259241703
23402655 69 18186516588101799357
25 1 17095798815717336619
2748010 2 16244650763045121072
3248919 1 18260834791110535194
63268167 104 18113056030127561448
8030462 33 18411422812539203704
81228 2 16343160029745662875

>  <PUBCHEM_SHAPE_MULTIPOLES>  (1) 
236.99
5.49
1.46
1.16
0.67
0.11
0.07
0.03
-1.94
0.1
-0.1
0.39
-0.03
-0.73

>  <PUBCHEM_SHAPE_SELFOVERLAP>  (1) 
480.218

>  <PUBCHEM_SHAPE_VOLUME>  (1) 
137.4

>  <PUBCHEM_COORDINATE_TYPE>  (1) 
2
5
10

$$$$
