21672
     RDKit          3D

 17 16  0  0  1  0  0  0  0  0999 V2000
   -8.5375    0.8555    0.3183 O   0  0  0  0  0  0  0  0  0  0  0  0
   -7.6362   -1.0356   -0.5567 O   0  0  0  0  0  0  0  0  0  0  0  0
    5.2047   -1.0245   -0.2812 C   0  0  0  0  0  0  0  0  0  0  0  0
    6.5970   -0.4322    0.0291 C   0  0  0  0  0  0  0  0  0  0  0  0
    4.0149   -0.1615    0.1543 C   0  0  0  0  0  0  0  0  0  0  0  0
    2.6877   -0.8114   -0.2490 C   0  0  0  0  0  0  0  0  0  0  0  0
    1.4592    0.0240    0.1262 C   0  0  0  0  0  0  0  0  0  0  0  0
    0.1002   -0.6150   -0.1801 C   0  0  0  0  0  0  0  0  0  0  0  0
   -1.0857    0.2896    0.1634 C   0  0  0  0  0  0  0  0  0  0  0  0
   -2.4436   -0.3541   -0.1349 C   0  0  0  0  0  0  0  0  0  0  0  0
    6.8418    0.8798   -0.7405 C   0  0  0  0  0  0  0  0  0  0  0  0
   -3.6296    0.5422    0.2317 C   0  0  0  0  0  0  0  0  0  0  0  0
    6.8116   -0.2637    1.5356 C   0  0  0  0  0  0  0  0  0  0  0  0
   -4.9622   -0.1493   -0.0770 C   0  0  0  0  0  0  0  0  0  0  0  0
    8.2380    1.4506   -0.5299 C   0  0  0  0  0  0  0  0  0  0  0  0
   -6.1675    0.7340    0.2476 C   0  0  0  0  0  0  0  0  0  0  0  0
   -7.4928    0.0714   -0.0569 C   0  0  0  0  0  0  0  0  0  0  0  0
  1 17  1  0
  2 17  2  0
  3  4  1  0
  3  5  1  0
  4 11  1  0
  4 13  1  0
  5  6  1  0
  6  7  1  0
  7  8  1  0
  8  9  1  0
  9 10  1  0
 10 12  1  0
 11 15  1  0
 12 14  1  0
 14 16  1  0
 16 17  1  0
M  END
>  <PUBCHEM_COMPOUND_CID>  (1) 
21672

>  <PUBCHEM_CONFORMER_RMSD>  (1) 
1.2

>  <PUBCHEM_CONFORMER_DIVERSEORDER>  (1) 
1
152
21
45
153
26
13
50
9
148
132
3
23
142
5
32
43
149
71
77
34
57
140
59
30
102
25
144
28
4
135
92
38
131
55
113
114
138
120
73
79
16
154
66
110
8
51
141
18
35
20
53
56
127
155
7
14
40
54
130
22
72
100
86
128
44
12
48
69
136
60
31
61
147
2
124
139
76
107
19
6
119
95
33
143
125
145
75
156
36
117
87
27
106
157
70
151
39
17
98
83
78
158
67
80
91
150
41
90
74
126
42
68
93
89
105
58
15
134
85
11
10
133
116
111
46
99
103
108
101
84
97
129
96
62
47
64
29
82
118
37
81
122
49
104
63
137
24
146
123
94
121
65
112
115
52
88
109

>  <PUBCHEM_MMFF94_PARTIAL_CHARGES>  (1) 
5
1 -0.65
16 0.06
17 0.66
2 -0.57
47 0.5

>  <PUBCHEM_EFFECTIVE_ROTOR_COUNT>  (1) 
12

>  <PUBCHEM_PHARMACOPHORE_FEATURES>  (1) 
5
1 1 acceptor
1 13 hydrophobe
1 15 hydrophobe
1 2 acceptor
3 1 2 17 anion

>  <PUBCHEM_HEAVY_ATOM_COUNT>  (1) 
17

>  <PUBCHEM_ATOM_DEF_STEREO_COUNT>  (1) 
0

>  <PUBCHEM_ATOM_UDEF_STEREO_COUNT>  (1) 
1

>  <PUBCHEM_BOND_DEF_STEREO_COUNT>  (1) 
0

>  <PUBCHEM_BOND_UDEF_STEREO_COUNT>  (1) 
0

>  <PUBCHEM_ISOTOPIC_ATOM_COUNT>  (1) 
0

>  <PUBCHEM_COMPONENT_COUNT>  (1) 
1

>  <PUBCHEM_CACTVS_TAUTO_COUNT>  (1) 
1

>  <PUBCHEM_CONFORMER_ID>  (1) 
000054A800000001

>  <PUBCHEM_MMFF94_ENERGY>  (1) 
5.9611

>  <PUBCHEM_FEATURE_SELFOVERLAP>  (1) 
25.431

>  <PUBCHEM_SHAPE_FINGERPRINT>  (1) 
10066227 49 11599739350247675908
11315181 36 18272937120725856777
11638347 137 16008743594623773600
12091667 2 18186803561686187697
14123256 10 17704071785049444553
14251764 18 18341892991591442163
14251764 46 18261111872578366267
14344974 52 17489304252976499448
14428016 248 18130515184240411281
15690457 1 8286200531014565164
15716309 27 18040995137449391626
16120349 18 18040998483656352508
18006028 8 16225766311641192727
20281389 69 17675923188320581508
20621476 8 10735880560636539891
20735858 18 13984661460460028184
21095086 128 11672060839960716845
21130983 4 18410014334281578324
21150785 3 18411419518183151969
22224240 67 17313104159132402514
23521765 1 18341894082634539099
246663 6 13183025116097008716
28498 318 10519991452443620400
33684 2 18202845435364995563
4325135 7 18342460344324393492
5758199 1 18342459227237465379
59682541 35 17676491669991458897
67123 10 18408887347758572367
8209 1 18410856555344828783

>  <PUBCHEM_SHAPE_MULTIPOLES>  (1) 
338.11
30.36
1.07
0.84
18.33
0.14
-0.18
6.46
-0.01
-1.11
0.12
-1.09
-0.03
-1.11

>  <PUBCHEM_SHAPE_SELFOVERLAP>  (1) 
616.385

>  <PUBCHEM_SHAPE_VOLUME>  (1) 
215.5

>  <PUBCHEM_COORDINATE_TYPE>  (1) 
2
5
10

$$$$
