21677
     RDKit          3D

  9  8  0  0  0  0  0  0  0  0999 V2000
   -3.5869   -0.8684    0.2615 Cl  0  0  0  0  0  0  0  0  0  0  0  0
    2.3502   -1.1579    1.3170 Cl  0  0  0  0  0  0  0  0  0  0  0  0
    0.2456    0.3156   -0.4068 N   0  0  0  0  0  0  0  0  0  0  0  0
    0.6015    2.6867    0.3340 N   0  0  0  0  0  0  0  0  0  0  0  0
   -1.1100   -0.2296   -0.6901 C   0  0  0  0  0  0  0  0  0  0  0  0
    1.3043   -0.4622   -1.1059 C   0  0  0  0  0  0  0  0  0  0  0  0
   -1.9592   -0.2137    0.5688 C   0  0  0  0  0  0  0  0  0  0  0  0
    1.7175   -1.6610   -0.2701 C   0  0  0  0  0  0  0  0  0  0  0  0
    0.4370    1.5906   -0.0085 C   0  0  0  0  0  0  0  0  0  0  0  0
  1  7  1  0
  2  8  1  0
  3  5  1  0
  3  6  1  0
  3  9  1  0
  4  9  3  0
  5  7  1  0
  6  8  1  0
M  END
>  <PUBCHEM_COMPOUND_CID>  (1) 
21677

>  <PUBCHEM_CONFORMER_RMSD>  (1) 
0.6

>  <PUBCHEM_CONFORMER_DIVERSEORDER>  (1) 
1
32
45
46
43
42
27
15
37
41
5
44
28
18
33
38
29
34
12
36
20
17
11
23
25
19
26
24
31
35
4
14
10
7
9
21
40
8
30
16
39
6
2
22
3
13

>  <PUBCHEM_MMFF94_PARTIAL_CHARGES>  (1) 
9
1 -0.29
2 -0.29
3 -0.84
4 -0.56
5 0.36
6 0.36
7 0.29
8 0.29
9 0.68

>  <PUBCHEM_EFFECTIVE_ROTOR_COUNT>  (1) 
4

>  <PUBCHEM_PHARMACOPHORE_FEATURES>  (1) 
3
1 3 cation
1 4 acceptor
3 3 4 9 cation

>  <PUBCHEM_HEAVY_ATOM_COUNT>  (1) 
9

>  <PUBCHEM_ATOM_DEF_STEREO_COUNT>  (1) 
0

>  <PUBCHEM_ATOM_UDEF_STEREO_COUNT>  (1) 
0

>  <PUBCHEM_BOND_DEF_STEREO_COUNT>  (1) 
0

>  <PUBCHEM_BOND_UDEF_STEREO_COUNT>  (1) 
0

>  <PUBCHEM_ISOTOPIC_ATOM_COUNT>  (1) 
0

>  <PUBCHEM_COMPONENT_COUNT>  (1) 
1

>  <PUBCHEM_CACTVS_TAUTO_COUNT>  (1) 
1

>  <PUBCHEM_CONFORMER_ID>  (1) 
000054AD00000001

>  <PUBCHEM_MMFF94_ENERGY>  (1) 
6.5878

>  <PUBCHEM_FEATURE_SELFOVERLAP>  (1) 
17.164

>  <PUBCHEM_SHAPE_FINGERPRINT>  (1) 
10857977 72 18270957942853801170
12932764 1 18262811786506727239
14128692 85 17241047595986878082
20653091 64 18341345477708375825
23552333 60 17604447201378894638
23552449 11 18409729603508732259
29004967 10 18411702054053928966
528862 383 18267860768900930729
58734985 188 18411691123557229256
81228 2 17907861704071341353

>  <PUBCHEM_SHAPE_MULTIPOLES>  (1) 
178.99
4.09
2.14
1.1
3.76
1.75
-0.07
-2.73
-1.08
-1
-0.38
-0.54
-0.28
-0.08

>  <PUBCHEM_SHAPE_SELFOVERLAP>  (1) 
307.961

>  <PUBCHEM_SHAPE_VOLUME>  (1) 
117.6

>  <PUBCHEM_COORDINATE_TYPE>  (1) 
2
5
10

$$$$
