21687
     RDKit          3D

 17 17  0  0  0  0  0  0  0  0999 V2000
   -3.6132   -0.2729   -1.4659 Cl  0  0  0  0  0  0  0  0  0  0  0  0
   -3.1336   -2.7050    0.0044 Cl  0  0  0  0  0  0  0  0  0  0  0  0
   -3.6126   -0.2602    1.4608 Cl  0  0  0  0  0  0  0  0  0  0  0  0
    0.0225    3.2989    1.4641 Cl  0  0  0  0  0  0  0  0  0  0  0  0
    2.4439    2.7702   -0.0069 Cl  0  0  0  0  0  0  0  0  0  0  0  0
    0.0075    3.2919   -1.4625 Cl  0  0  0  0  0  0  0  0  0  0  0  0
    2.0742   -2.4297    0.0013 S   0  0  0  0  0  0  0  0  0  0  0  0
   -1.0528    0.7536    0.0024 N   0  0  0  0  0  0  0  0  0  0  0  0
    1.2593    0.1119   -0.0002 N   0  0  0  0  0  0  0  0  0  0  0  0
   -0.4524   -1.5697    0.0010 N   0  0  0  0  0  0  0  0  0  0  0  0
   -1.3364   -0.5590    0.0023 C   0  0  0  0  0  0  0  0  0  0  0  0
    0.2645    1.0138    0.0011 C   0  0  0  0  0  0  0  0  0  0  0  0
    0.8261   -1.1590   -0.0003 C   0  0  0  0  0  0  0  0  0  0  0  0
   -2.7801   -0.9314    0.0007 C   0  0  0  0  0  0  0  0  0  0  0  0
    0.6639    2.4501   -0.0010 C   0  0  0  0  0  0  0  0  0  0  0  0
    3.6015   -1.4484   -0.0011 C   0  0  0  0  0  0  0  0  0  0  0  0
    4.8174   -2.3553   -0.0001 C   0  0  0  0  0  0  0  0  0  0  0  0
  1 14  1  0
  2 14  1  0
  3 14  1  0
  4 15  1  0
  5 15  1  0
  6 15  1  0
  7 13  1  0
  7 16  1  0
  8 11  2  0
  8 12  1  0
  9 12  2  0
  9 13  1  0
 10 11  1  0
 10 13  2  0
 11 14  1  0
 12 15  1  0
 16 17  1  0
M  END
>  <PUBCHEM_COMPOUND_CID>  (1) 
21687

>  <PUBCHEM_CONFORMER_RMSD>  (1) 
0.6

>  <PUBCHEM_CONFORMER_DIVERSEORDER>  (1) 
1
11
14
8
5
10
12
2
4
6
3
9
15
7
13

>  <PUBCHEM_MMFF94_PARTIAL_CHARGES>  (1) 
16
1 -0.29
10 -0.62
11 0.48
12 0.48
13 0.72
14 1.01
15 1.01
16 0.23
2 -0.29
3 -0.29
4 -0.29
5 -0.29
6 -0.29
7 -0.33
8 -0.62
9 -0.62

>  <PUBCHEM_EFFECTIVE_ROTOR_COUNT>  (1) 
4

>  <PUBCHEM_PHARMACOPHORE_FEATURES>  (1) 
5
1 17 hydrophobe
3 8 10 11 cation
3 8 9 12 cation
3 9 10 13 cation
6 8 9 10 11 12 13 rings

>  <PUBCHEM_HEAVY_ATOM_COUNT>  (1) 
17

>  <PUBCHEM_ATOM_DEF_STEREO_COUNT>  (1) 
0

>  <PUBCHEM_ATOM_UDEF_STEREO_COUNT>  (1) 
0

>  <PUBCHEM_BOND_DEF_STEREO_COUNT>  (1) 
0

>  <PUBCHEM_BOND_UDEF_STEREO_COUNT>  (1) 
0

>  <PUBCHEM_ISOTOPIC_ATOM_COUNT>  (1) 
0

>  <PUBCHEM_COMPONENT_COUNT>  (1) 
1

>  <PUBCHEM_CACTVS_TAUTO_COUNT>  (1) 
1

>  <PUBCHEM_CONFORMER_ID>  (1) 
000054B700000001

>  <PUBCHEM_MMFF94_ENERGY>  (1) 
25.0786

>  <PUBCHEM_FEATURE_SELFOVERLAP>  (1) 
28.144

>  <PUBCHEM_SHAPE_FINGERPRINT>  (1) 
1 1 17979352293643222333
10670039 82 18263941956212520974
10989021 7 18411700976338748098
1100329 8 18269277850595800217
11680986 33 18337665442339305587
12553582 1 18338235955662070218
12788726 201 17905028275596849211
13140716 1 18412833468682819266
14790565 3 17547011832164733300
15042514 8 17832994845335137482
16945 1 18410575127923975233
17357779 13 18196351672351667724
19591789 44 17257659339903242722
20097449 115 18408891706765353386
20510252 161 18051973611003212394
20600515 1 18130797736963749394
20645477 70 18191572263295350527
20671657 1 18198065987046830907
21029758 11 18341039731681655703
21029758 27 18335433326223587814
21041028 32 18341063925570187473
21061003 4 18408326566526538067
21339142 51 18263638472457074878
21524375 3 17621328260950224511
221490 88 18191588751210757995
23175994 123 18335144141939024935
23366157 5 18042686298234071870
23402539 116 18270111288946737406
23526113 38 17895198873382810115
23557571 272 18056479440072082990
23598291 2 18130506439518042119
23598294 1 17903918859917089298
2748010 2 18335404777533851445
3071541 158 18334009510189226183
352729 6 17185308743090769746
43471831 8 17762901365147269834
458136 41 17686922900144620363
59755656 215 18049725423283377351
68521 5 18192149304803952270
7364860 26 18268429220744556834
81228 2 18051695434265745499

>  <PUBCHEM_SHAPE_MULTIPOLES>  (1) 
349.98
6.5
4.54
1.17
1.43
3.02
0
-6.58
0
3.02
0
-0.97
0.85
0

>  <PUBCHEM_SHAPE_SELFOVERLAP>  (1) 
638.651

>  <PUBCHEM_SHAPE_VOLUME>  (1) 
224.8

>  <PUBCHEM_COORDINATE_TYPE>  (1) 
2
5
10

$$$$
