21684
     RDKit          3D

 19 20  0  0  0  0  0  0  0  0999 V2000
    0.6526    0.0607    0.0275 O   0  0  0  0  0  0  0  0  0  0  0  0
    4.3420    0.6199    0.0647 N   0  0  0  0  0  0  0  0  0  0  0  0
   -1.5596   -0.7546   -0.0347 N   0  0  0  0  0  0  0  0  0  0  0  0
   -2.2690   -1.8953   -0.0750 N   0  0  0  0  0  0  0  0  0  0  0  0
    2.8656    0.9887    0.0826 C   0  0  0  0  0  0  0  0  0  0  0  0
    4.6481   -0.1870   -1.1889 C   0  0  0  0  0  0  0  0  0  0  0  0
    5.1817    1.8891    0.0687 C   0  0  0  0  0  0  0  0  0  0  0  0
    4.6726   -0.2110    1.2960 C   0  0  0  0  0  0  0  0  0  0  0  0
    2.0329   -0.2777    0.0473 C   0  0  0  0  0  0  0  0  0  0  0  0
   -0.2384   -0.9799   -0.0138 C   0  0  0  0  0  0  0  0  0  0  0  0
   -0.0224   -2.3064   -0.0395 C   0  0  0  0  0  0  0  0  0  0  0  0
   -1.3246   -2.8398   -0.0778 C   0  0  0  0  0  0  0  0  0  0  0  0
   -2.2209    0.4737   -0.0190 C   0  0  0  0  0  0  0  0  0  0  0  0
   -1.7109   -4.2602   -0.1182 C   0  0  0  0  0  0  0  0  0  0  0  0
   -1.6126    1.5865   -0.5851 C   0  0  0  0  0  0  0  0  0  0  0  0
   -3.4802    0.5669    0.5595 C   0  0  0  0  0  0  0  0  0  0  0  0
   -2.2749    2.8140   -0.5723 C   0  0  0  0  0  0  0  0  0  0  0  0
   -4.1424    1.7945    0.5720 C   0  0  0  0  0  0  0  0  0  0  0  0
   -3.5397    2.9180    0.0061 C   0  0  0  0  0  0  0  0  0  0  0  0
  1  9  1  0
  1 10  1  0
  2  5  1  0
  2  6  1  0
  2  7  1  0
  2  8  1  0
  3  4  1  0
  3 10  1  0
  3 13  1  0
  4 12  2  0
  5  9  1  0
 10 11  2  0
 11 12  1  0
 12 14  1  0
 13 15  2  0
 13 16  1  0
 15 17  1  0
 16 18  2  0
 17 19  2  0
 18 19  1  0
M  CHG  1   2   1
M  END
>  <PUBCHEM_COMPOUND_CID>  (1) 
21684

>  <PUBCHEM_CONFORMER_RMSD>  (1) 
0.6

>  <PUBCHEM_CONFORMER_DIVERSEORDER>  (1) 
1
23
7
16
14
15
5
21
18
24
4
19
9
3
20
6
17
11
22
25
2
26
13
10
8
12

>  <PUBCHEM_MMFF94_PARTIAL_CHARGES>  (1) 
25
1 -0.34
10 -0.09
11 -0.15
12 0.11
13 -0.02
14 0.18
15 -0.15
16 -0.15
17 -0.15
18 -0.15
19 -0.15
2 -1.01
3 0.59
33 0.15
37 0.15
38 0.15
39 0.15
4 -0.71
40 0.15
41 0.15
5 0.5
6 0.5
7 0.5
8 0.5
9 0.28

>  <PUBCHEM_EFFECTIVE_ROTOR_COUNT>  (1) 
5

>  <PUBCHEM_PHARMACOPHORE_FEATURES>  (1) 
5
1 1 acceptor
1 2 cation
1 4 acceptor
5 3 4 10 11 12 rings
6 13 15 16 17 18 19 rings

>  <PUBCHEM_HEAVY_ATOM_COUNT>  (1) 
19

>  <PUBCHEM_ATOM_DEF_STEREO_COUNT>  (1) 
0

>  <PUBCHEM_ATOM_UDEF_STEREO_COUNT>  (1) 
0

>  <PUBCHEM_BOND_DEF_STEREO_COUNT>  (1) 
0

>  <PUBCHEM_BOND_UDEF_STEREO_COUNT>  (1) 
0

>  <PUBCHEM_ISOTOPIC_ATOM_COUNT>  (1) 
0

>  <PUBCHEM_COMPONENT_COUNT>  (1) 
1

>  <PUBCHEM_CACTVS_TAUTO_COUNT>  (1) 
1

>  <PUBCHEM_CONFORMER_ID>  (1) 
000054B400000001

>  <PUBCHEM_MMFF94_ENERGY>  (1) 
63.6911

>  <PUBCHEM_FEATURE_SELFOVERLAP>  (1) 
25.371

>  <PUBCHEM_SHAPE_FINGERPRINT>  (1) 
10319926 262 18269817853493163528
10411042 1 17762338423773889607
10493431 412 18412550877547855129
1100329 8 18120939662354897019
11265709 11 17905890627910865879
11405975 8 18410007746181496242
12107183 9 18191574269376997978
12173636 292 18410290302624925790
12390115 104 18271261429833524049
12788726 201 17900840540849880046
13004483 165 17909538794395895839
13140716 1 18048886487511256283
13544592 145 18199199408153429398
138480 1 17185876095406606023
14123255 52 18338515231488443896
14178000 22 18410849924031517759
14178342 30 18264472036148216370
14508225 48 17910381020661254359
14790565 3 18340215068060466545
15042514 8 18264776630691456907
15230672 131 18264217920599134214
15842332 3 17895184550437101906
1741750 31 18413105031038475930
17539 30 18127118895848691767
17834072 32 18410576150031876268
18785283 64 17976542702300916251
20101258 96 17903649810011578122
204376 136 18338797802061597233
20510252 161 18342741831779629243
20645477 56 18412268337223751248
21065201 7 18342177817260166522
21202864 24 18340217379036805595
212916 134 18198323109785625728
21426921 1 18267303316859244982
21524375 3 18261391096670382683
22182937 141 18342742939591450544
22224240 67 18342749494750560313
23227448 37 18339643442314805196
23402539 116 18270673303108965375
23557571 272 18129392638623411716
23558518 356 18117840121405729976
23559900 14 18202006495957348886
3071541 12 17763747585764024111
3091708 16 9269809352451427939
3729539 64 17765176981040461022
4214541 1 18411701028295145488
458136 41 18124885551582804073
474229 33 18409449168341232217
532947 4 17909551662292189494
573450 72 18262785376752766042
6327066 14 18335415734069764069
633830 44 17985828129531824061
7364860 26 17762339111511254919
7399639 24 17482821665056495776
77188 2 17546446039084912679
7808743 9 18409449228397499520
81228 2 18124017186431357971
9709674 26 18271529783980401782
9862522 239 17969210157844353845
9981440 41 18265050233071787649

>  <PUBCHEM_SHAPE_MULTIPOLES>  (1) 
370.2
9.62
4.12
0.85
12.93
3.54
-0.03
-7.28
-0.99
-4.76
0.39
0.59
-0.1
-0.02

>  <PUBCHEM_SHAPE_SELFOVERLAP>  (1) 
770.233

>  <PUBCHEM_SHAPE_VOLUME>  (1) 
214.6

>  <PUBCHEM_COORDINATE_TYPE>  (1) 
2
5
10

$$$$
