21690
     RDKit          3D

 14 14  0  0  0  0  0  0  0  0999 V2000
   -3.0164   -1.2184   -1.6093 Cl  0  0  0  0  0  0  0  0  0  0  0  0
   -3.2459   -1.1477    1.3074 Cl  0  0  0  0  0  0  0  0  0  0  0  0
   -0.4171    3.1986    1.4199 Cl  0  0  0  0  0  0  0  0  0  0  0  0
   -0.1929    3.1238   -1.4971 Cl  0  0  0  0  0  0  0  0  0  0  0  0
    2.8533   -1.9951    0.3346 S   0  0  0  0  0  0  0  0  0  0  0  0
   -0.8724    0.4361   -0.0124 N   0  0  0  0  0  0  0  0  0  0  0  0
    1.5166    0.3095    0.1734 N   0  0  0  0  0  0  0  0  0  0  0  0
    0.2090   -1.7018    0.1221 N   0  0  0  0  0  0  0  0  0  0  0  0
   -0.8681   -0.9064    0.0205 C   0  0  0  0  0  0  0  0  0  0  0  0
    0.3549    0.9748    0.0684 C   0  0  0  0  0  0  0  0  0  0  0  0
    1.3663   -1.0246    0.1941 C   0  0  0  0  0  0  0  0  0  0  0  0
   -2.1942   -1.5819   -0.0675 C   0  0  0  0  0  0  0  0  0  0  0  0
    0.4371    2.4630    0.0364 C   0  0  0  0  0  0  0  0  0  0  0  0
    4.0698   -0.9300   -0.4905 C   0  0  0  0  0  0  0  0  0  0  0  0
  1 12  1  0
  2 12  1  0
  3 13  1  0
  4 13  1  0
  5 11  1  0
  5 14  1  0
  6  9  2  0
  6 10  1  0
  7 10  2  0
  7 11  1  0
  8  9  1  0
  8 11  2  0
  9 12  1  0
 10 13  1  0
M  END
>  <PUBCHEM_COMPOUND_CID>  (1) 
21690

>  <PUBCHEM_CONFORMER_RMSD>  (1) 
0.6

>  <PUBCHEM_CONFORMER_DIVERSEORDER>  (1) 
1
14
7
9
13
15
19
18
17
20
12
6
2
8
4
11
10
16
5
3

>  <PUBCHEM_MMFF94_PARTIAL_CHARGES>  (1) 
14
1 -0.29
10 0.48
11 0.72
12 0.72
13 0.72
14 0.23
2 -0.29
3 -0.29
4 -0.29
5 -0.33
6 -0.62
7 -0.62
8 -0.62
9 0.48

>  <PUBCHEM_EFFECTIVE_ROTOR_COUNT>  (1) 
3

>  <PUBCHEM_PHARMACOPHORE_FEATURES>  (1) 
5
1 14 hydrophobe
3 6 7 10 cation
3 6 8 9 cation
3 7 8 11 cation
6 6 7 8 9 10 11 rings

>  <PUBCHEM_HEAVY_ATOM_COUNT>  (1) 
14

>  <PUBCHEM_ATOM_DEF_STEREO_COUNT>  (1) 
0

>  <PUBCHEM_ATOM_UDEF_STEREO_COUNT>  (1) 
0

>  <PUBCHEM_BOND_DEF_STEREO_COUNT>  (1) 
0

>  <PUBCHEM_BOND_UDEF_STEREO_COUNT>  (1) 
0

>  <PUBCHEM_ISOTOPIC_ATOM_COUNT>  (1) 
0

>  <PUBCHEM_COMPONENT_COUNT>  (1) 
1

>  <PUBCHEM_CACTVS_TAUTO_COUNT>  (1) 
1

>  <PUBCHEM_CONFORMER_ID>  (1) 
000054BA00000001

>  <PUBCHEM_MMFF94_ENERGY>  (1) 
19.2121

>  <PUBCHEM_FEATURE_SELFOVERLAP>  (1) 
28.144

>  <PUBCHEM_SHAPE_FINGERPRINT>  (1) 
1 1 17762893672834196181
13132413 78 18410867567836505445
14817 1 14744603593257755409
16945 1 18194960979063121435
17357990 137 17414472586221092019
18410436 195 18342162401767661060
20671657 1 17981618374423743675
20711985 344 18192133906998023450
20871998 184 18127979594024506678
21029758 27 18334871535964122934
21041028 32 18340504325685787385
21061003 4 18334863852505241275
21160774 45 17976538312849757269
21524375 3 17329705419012056714
22112679 90 18058190416959959184
2334 1 18410852191721385650
23402539 116 18413106143788998686
23419403 2 16674639738678305340
23526113 38 17750216149469233363
23557571 272 18270686364114769622
23598291 2 18058734748515411439
2748010 2 18337938061008886980
3071541 158 18189330337099145940
3071541 236 17685477759439638170
458136 41 17397568861727227459
6992083 37 17989211443022598639
7364860 26 18053944240576915610
81228 2 18193553368024893346

>  <PUBCHEM_SHAPE_MULTIPOLES>  (1) 
284.5
4.81
3.82
1.33
2.33
4.29
-0.18
-4.9
-0.37
-0.49
0.07
-1.06
0.57
-0.22

>  <PUBCHEM_SHAPE_SELFOVERLAP>  (1) 
524.279

>  <PUBCHEM_SHAPE_VOLUME>  (1) 
182.7

>  <PUBCHEM_COORDINATE_TYPE>  (1) 
2
5
10

$$$$
