217
     RDKit          3D

 18 18  0  0  1  0  0  0  0  0999 V2000
   -2.1363    1.3870    0.3695 P   0  0  0  0  0  0  0  0  0  0  0  0
   -3.2277   -1.2977   -0.1358 P   0  0  0  0  0  0  0  0  0  0  0  0
   -0.6051    0.8691    0.4449 O   0  0  0  0  0  0  0  0  0  0  0  0
   -2.9089    0.2487   -0.4799 O   0  0  0  0  0  0  0  0  0  0  0  0
   -2.0880    2.6417   -0.6506 O   0  0  0  0  0  0  0  0  0  0  0  0
   -2.7626    1.6938    1.6989 O   0  0  0  0  0  0  0  0  0  0  0  0
   -4.1667   -1.7612   -1.3670 O   0  0  0  0  0  0  0  0  0  0  0  0
   -4.2556   -1.1992    1.1076 O   0  0  0  0  0  0  0  0  0  0  0  0
   -2.0154   -2.1493    0.1001 O   0  0  0  0  0  0  0  0  0  0  0  0
    3.7935    0.5590    0.0248 N   0  0  0  0  0  0  0  0  0  0  0  0
    2.9621   -1.6983    0.1697 N   0  0  0  0  0  0  0  0  0  0  0  0
    2.3282    2.3385   -0.5320 N   0  0  0  0  0  0  0  0  0  0  0  0
    1.4810    0.0980   -0.3928 C   0  0  0  0  0  0  0  0  0  0  0  0
    0.0935    0.5473   -0.7454 C   0  0  0  0  0  0  0  0  0  0  0  0
    2.5445    0.9592   -0.2923 C   0  0  0  0  0  0  0  0  0  0  0  0
    1.7387   -1.2288   -0.1519 C   0  0  0  0  0  0  0  0  0  0  0  0
    3.9290   -0.7635    0.2396 C   0  0  0  0  0  0  0  0  0  0  0  0
    5.2957   -1.2442    0.5925 C   0  0  0  0  0  0  0  0  0  0  0  0
  1  3  1  0
  1  4  1  0
  1  5  1  0
  1  6  2  0
  2  4  1  0
  2  7  1  0
  2  8  1  0
  2  9  2  0
  3 14  1  0
 10 15  2  0
 10 17  1  0
 11 16  1  0
 11 17  2  0
 12 15  1  0
 13 14  1  0
 13 15  1  0
 13 16  2  0
 17 18  1  0
M  END
>  <PUBCHEM_COMPOUND_CID>  (1) 
217

>  <PUBCHEM_CONFORMER_RMSD>  (1) 
0.6

>  <PUBCHEM_CONFORMER_DIVERSEORDER>  (1) 
1
33
14
44
17
22
49
37
38
34
32
25
18
16
41
26
12
47
7
46
5
15
28
43
21
20
30
2
11
48
39
6
35
24
10
31
42
40
23
3
27
45
4
29
9
19
8
13
36

>  <PUBCHEM_MMFF94_PARTIAL_CHARGES>  (1) 
24
1 1.51
10 -0.62
11 -0.62
12 -0.9
13 -0.14
14 0.42
15 0.41
16 0.16
17 0.48
18 0.14
2 1.51
21 0.15
22 0.4
23 0.4
27 0.5
28 0.5
29 0.5
3 -0.55
4 -0.54
5 -0.77
6 -0.7
7 -0.77
8 -0.77
9 -0.7

>  <PUBCHEM_EFFECTIVE_ROTOR_COUNT>  (1) 
5

>  <PUBCHEM_PHARMACOPHORE_FEATURES>  (1) 
10
1 12 donor
1 5 acceptor
1 6 acceptor
1 7 acceptor
1 8 acceptor
1 9 acceptor
3 10 11 17 cation
3 10 12 15 cation
4 2 7 8 9 anion
6 10 11 13 15 16 17 rings

>  <PUBCHEM_HEAVY_ATOM_COUNT>  (1) 
18

>  <PUBCHEM_ATOM_DEF_STEREO_COUNT>  (1) 
0

>  <PUBCHEM_ATOM_UDEF_STEREO_COUNT>  (1) 
0

>  <PUBCHEM_BOND_DEF_STEREO_COUNT>  (1) 
0

>  <PUBCHEM_BOND_UDEF_STEREO_COUNT>  (1) 
0

>  <PUBCHEM_ISOTOPIC_ATOM_COUNT>  (1) 
0

>  <PUBCHEM_COMPONENT_COUNT>  (1) 
1

>  <PUBCHEM_CACTVS_TAUTO_COUNT>  (1) 
3

>  <PUBCHEM_CONFORMER_ID>  (1) 
000000D900000001

>  <PUBCHEM_MMFF94_ENERGY>  (1) 
-10.2586

>  <PUBCHEM_FEATURE_SELFOVERLAP>  (1) 
50.928

>  <PUBCHEM_SHAPE_FINGERPRINT>  (1) 
11806522 49 18335136501518921638
12251169 10 18339367353137139816
12500047 106 18194111924174412892
12916754 54 18407761447356175893
13675066 3 17774714274017034398
14178342 30 18129108822588837640
14965852 173 18410012100492571436
15375462 189 18200038489848787115
15442244 35 18408885105696018518
17862501 102 18411414012441422906
19050596 39 18341900687956766817
200 152 18340760524743044183
20681677 274 18339917237810401536
21501502 16 18411145748525814188
221490 88 18334017228656919890
22959321 4 18336547208949014908
23402539 116 18342731936449604151
23503953 91 18201164256216303873
23559900 14 18338505426225930160
23622692 118 18412818105642817190
2871803 45 18261103097517380799
312423 11 18336844059850629620
3286 77 18333446560752899412
5104073 3 18411697660845659432
58051976 100 18261394395263561141
9709674 26 18411142424142317782

>  <PUBCHEM_SHAPE_MULTIPOLES>  (1) 
322.1
9.36
2.48
0.99
3.18
0.58
0.15
-4.32
1.24
-1.38
-0.14
-0.9
0.09
-0.97

>  <PUBCHEM_SHAPE_SELFOVERLAP>  (1) 
627.336

>  <PUBCHEM_SHAPE_VOLUME>  (1) 
196.2

>  <PUBCHEM_COORDINATE_TYPE>  (1) 
2
5
10

$$$$
