21707
     RDKit          3D

 20 23  0  0  0  0  0  0  0  0999 V2000
   -2.4669   -1.6844   -0.2996 O   0  0  0  0  0  0  0  0  0  0  0  0
   -0.5882   -2.9043   -0.7007 O   0  0  0  0  0  0  0  0  0  0  0  0
    3.1923   -1.6398    0.6190 N   0  0  0  0  0  0  0  0  0  0  0  0
   -0.7693    0.5111    0.2453 N   0  0  0  0  0  0  0  0  0  0  0  0
    2.1801    0.2381   -0.0336 C   0  0  0  0  0  0  0  0  0  0  0  0
    1.1973   -0.7665    0.1898 C   0  0  0  0  0  0  0  0  0  0  0  0
    3.4230   -0.3357    0.2428 C   0  0  0  0  0  0  0  0  0  0  0  0
   -0.2546   -0.6594    0.0369 C   0  0  0  0  0  0  0  0  0  0  0  0
    1.8504   -1.9095    0.5899 C   0  0  0  0  0  0  0  0  0  0  0  0
    2.1314    1.5847   -0.4456 C   0  0  0  0  0  0  0  0  0  0  0  0
    4.6243    0.3726    0.1274 C   0  0  0  0  0  0  0  0  0  0  0  0
   -2.1513    0.6695    0.1618 C   0  0  0  0  0  0  0  0  0  0  0  0
   -2.9923   -0.4057   -0.0856 C   0  0  0  0  0  0  0  0  0  0  0  0
   -1.1120   -1.8591   -0.3502 C   0  0  0  0  0  0  0  0  0  0  0  0
    3.3251    2.3056   -0.5656 C   0  0  0  0  0  0  0  0  0  0  0  0
    4.5513    1.7069   -0.2830 C   0  0  0  0  0  0  0  0  0  0  0  0
   -2.7209    1.9315    0.3534 C   0  0  0  0  0  0  0  0  0  0  0  0
   -4.3777   -0.2580   -0.1446 C   0  0  0  0  0  0  0  0  0  0  0  0
   -4.1072    2.0988    0.2952 C   0  0  0  0  0  0  0  0  0  0  0  0
   -4.9349    1.0037    0.0472 C   0  0  0  0  0  0  0  0  0  0  0  0
  1 13  1  0
  1 14  1  0
  2 14  2  0
  3  7  1  0
  3  9  1  0
  4  8  2  0
  4 12  1  0
  5  6  1  0
  5  7  2  0
  5 10  1  0
  6  8  1  0
  6  9  2  0
  7 11  1  0
  8 14  1  0
 10 15  2  0
 11 16  2  0
 12 13  2  0
 12 17  1  0
 13 18  1  0
 15 16  1  0
 17 19  2  0
 18 20  2  0
 19 20  1  0
M  END
>  <PUBCHEM_COMPOUND_CID>  (1) 
21707

>  <PUBCHEM_CONFORMER_RMSD>  (1) 
0.6

>  <PUBCHEM_CONFORMER_DIVERSEORDER>  (1) 
1
6
5
2
4
3

>  <PUBCHEM_MMFF94_PARTIAL_CHARGES>  (1) 
29
1 -0.23
10 -0.15
11 -0.15
12 0.18
13 0.08
14 0.72
15 -0.15
16 -0.15
17 -0.15
18 -0.15
19 -0.15
2 -0.57
20 -0.15
21 0.15
22 0.27
23 0.15
24 0.15
25 0.15
26 0.15
27 0.15
28 0.15
29 0.15
3 0.03
30 0.15
4 -0.63
6 -0.09
7 -0.15
8 0.54
9 -0.3

>  <PUBCHEM_EFFECTIVE_ROTOR_COUNT>  (1) 
1

>  <PUBCHEM_PHARMACOPHORE_FEATURES>  (1) 
8
1 2 acceptor
1 3 cation
1 3 donor
1 4 acceptor
5 3 5 6 7 9 rings
6 1 4 8 12 13 14 rings
6 12 13 17 18 19 20 rings
6 5 7 10 11 15 16 rings

>  <PUBCHEM_HEAVY_ATOM_COUNT>  (1) 
20

>  <PUBCHEM_ATOM_DEF_STEREO_COUNT>  (1) 
0

>  <PUBCHEM_ATOM_UDEF_STEREO_COUNT>  (1) 
0

>  <PUBCHEM_BOND_DEF_STEREO_COUNT>  (1) 
0

>  <PUBCHEM_BOND_UDEF_STEREO_COUNT>  (1) 
0

>  <PUBCHEM_ISOTOPIC_ATOM_COUNT>  (1) 
0

>  <PUBCHEM_COMPONENT_COUNT>  (1) 
1

>  <PUBCHEM_CACTVS_TAUTO_COUNT>  (1) 
3

>  <PUBCHEM_CONFORMER_ID>  (1) 
000054CB00000001

>  <PUBCHEM_MMFF94_ENERGY>  (1) 
56.3208

>  <PUBCHEM_FEATURE_SELFOVERLAP>  (1) 
40.722

>  <PUBCHEM_SHAPE_FINGERPRINT>  (1) 
10411042 1 17329428346499215483
10616163 171 18339926020923927007
12107183 9 17760645867540784137
12173636 292 18342731953260019863
12236239 1 18410008836206429320
12390115 104 17987535744631744385
12403260 363 18267012861269253833
12644460 14 17968093084553889690
12788726 201 18120079843740627227
13583140 156 17458340810946335227
138480 1 17762620585939956479
14739800 52 18129079273889517056
14767858 380 18271508880812013253
14790565 3 18271534104812888889
15196674 1 18410292505890335705
15342168 16 17532099465215166348
15442244 35 18337387124427210738
15536298 74 18411702067260447780
17492 89 18410012122084212611
17834072 32 18339927021962400313
20715895 44 17905602203941106665
21267235 1 18410019831391558226
21524375 3 18408886230539515779
21652331 79 18407760335165439485
22854114 111 18260550017551513560
23227448 37 18339361971479561445
23366157 5 18120662318678373959
23402539 116 18201994447540219357
23402655 69 18410576232052538252
23558518 356 17681837646223841200
23559900 14 18059298660778818902
245318 6 16954521690771691916
335352 9 18410011005882514342
3545911 37 18409169913134892632
38570 142 17460906066301029996
4214541 1 18410292506038269097
474 4 17895196657517424948
5048184 11 18410015463452100616
5104073 3 18335138691429952058
633830 44 18201158724640986751
7832392 63 18410291445634871796
9709674 26 18411425002973122151
9981440 41 17686897633169133840

>  <PUBCHEM_SHAPE_MULTIPOLES>  (1) 
389.89
9.81
2.67
0.71
1.5
0.39
0
-5.14
0.17
-0.23
-0.26
-0.1
0.05
-1.05

>  <PUBCHEM_SHAPE_SELFOVERLAP>  (1) 
887.428

>  <PUBCHEM_SHAPE_VOLUME>  (1) 
201.8

>  <PUBCHEM_COORDINATE_TYPE>  (1) 
2
5
10

$$$$
