21725
     RDKit          3D

 27 28  0  0  0  0  0  0  0  0999 V2000
   -1.1864   -1.7828    0.3786 O   0  0  0  0  0  0  0  0  0  0  0  0
    0.6520   -2.5134   -0.7987 O   0  0  0  0  0  0  0  0  0  0  0  0
    6.4334   -0.4259   -0.3068 O   0  0  0  0  0  0  0  0  0  0  0  0
   -1.6208    4.4068    0.1889 O   0  0  0  0  0  0  0  0  0  0  0  0
   -3.9408   -1.2669   -0.0289 N   0  0  0  0  0  0  0  0  0  0  0  0
    0.8692   -0.6576    0.7776 C   0  0  0  0  0  0  0  0  0  0  0  0
   -3.4241   -2.6125    0.2185 C   0  0  0  0  0  0  0  0  0  0  0  0
   -1.9968   -2.7411   -0.2891 C   0  0  0  0  0  0  0  0  0  0  0  0
   -4.3620   -1.1293   -1.4225 C   0  0  0  0  0  0  0  0  0  0  0  0
   -5.0539   -0.9731    0.8729 C   0  0  0  0  0  0  0  0  0  0  0  0
    2.3629   -0.5953    0.4871 C   0  0  0  0  0  0  0  0  0  0  0  0
    0.2006    0.7022    0.6201 C   0  0  0  0  0  0  0  0  0  0  0  0
    0.1410   -1.7699    0.0294 C   0  0  0  0  0  0  0  0  0  0  0  0
   -4.8450    0.2815   -1.7133 C   0  0  0  0  0  0  0  0  0  0  0  0
   -6.2174   -1.9211    0.6359 C   0  0  0  0  0  0  0  0  0  0  0  0
    3.2827   -0.8932    1.4926 C   0  0  0  0  0  0  0  0  0  0  0  0
    0.1604    1.5892    1.6959 C   0  0  0  0  0  0  0  0  0  0  0  0
    2.8111   -0.2403   -0.7852 C   0  0  0  0  0  0  0  0  0  0  0  0
   -0.3715    1.0601   -0.6007 C   0  0  0  0  0  0  0  0  0  0  0  0
    4.6506   -0.8362    1.2258 C   0  0  0  0  0  0  0  0  0  0  0  0
   -0.4519    2.8340    1.5510 C   0  0  0  0  0  0  0  0  0  0  0  0
    4.1790   -0.1832   -1.0520 C   0  0  0  0  0  0  0  0  0  0  0  0
   -0.9838    2.3049   -0.7456 C   0  0  0  0  0  0  0  0  0  0  0  0
    5.0987   -0.4810   -0.0466 C   0  0  0  0  0  0  0  0  0  0  0  0
   -1.0240    3.1918    0.3302 C   0  0  0  0  0  0  0  0  0  0  0  0
    6.8226   -0.0558   -1.6288 C   0  0  0  0  0  0  0  0  0  0  0  0
   -2.1858    4.7083   -1.0863 C   0  0  0  0  0  0  0  0  0  0  0  0
  1  8  1  0
  1 13  1  0
  2 13  2  0
  3 24  1  0
  3 26  1  0
  4 25  1  0
  4 27  1  0
  5  7  1  0
  5  9  1  0
  5 10  1  0
  6 11  1  0
  6 12  1  0
  6 13  1  0
  7  8  1  0
  9 14  1  0
 10 15  1  0
 11 16  2  0
 11 18  1  0
 12 17  2  0
 12 19  1  0
 16 20  1  0
 17 21  1  0
 18 22  2  0
 19 23  2  0
 20 24  2  0
 21 25  2  0
 22 24  1  0
 23 25  1  0
M  END
>  <PUBCHEM_COMPOUND_CID>  (1) 
21725

>  <PUBCHEM_CONFORMER_RMSD>  (1) 
1

>  <PUBCHEM_CONFORMER_DIVERSEORDER>  (1) 
2
34
45
40
37
9
49
59
71
27
13
20
73
63
35
14
53
18
6
11
19
22
12
1
60
32
65
21
5
26
33
62
29
43
16
48
15
56
36
38
67
17
52
30
44
66
42
24
31
47
7
4
70
28
39
55
61
46
58
8
69
57
54
10
51
64
72
50
3
68
23
25
41
74

>  <PUBCHEM_MMFF94_PARTIAL_CHARGES>  (1) 
33
1 -0.43
10 0.27
11 -0.14
12 -0.14
13 0.66
16 -0.15
17 -0.15
18 -0.15
19 -0.15
2 -0.57
20 -0.15
21 -0.15
22 -0.15
23 -0.15
24 0.08
25 0.08
26 0.28
27 0.28
3 -0.36
4 -0.36
43 0.15
44 0.15
45 0.15
46 0.15
47 0.15
48 0.15
49 0.15
5 -0.81
50 0.15
6 0.35
7 0.27
8 0.28
9 0.27

>  <PUBCHEM_EFFECTIVE_ROTOR_COUNT>  (1) 
11

>  <PUBCHEM_PHARMACOPHORE_FEATURES>  (1) 
6
1 2 acceptor
1 3 acceptor
1 4 acceptor
1 5 cation
6 11 16 18 20 22 24 rings
6 12 17 19 21 23 25 rings

>  <PUBCHEM_HEAVY_ATOM_COUNT>  (1) 
27

>  <PUBCHEM_ATOM_DEF_STEREO_COUNT>  (1) 
0

>  <PUBCHEM_ATOM_UDEF_STEREO_COUNT>  (1) 
0

>  <PUBCHEM_BOND_DEF_STEREO_COUNT>  (1) 
0

>  <PUBCHEM_BOND_UDEF_STEREO_COUNT>  (1) 
0

>  <PUBCHEM_ISOTOPIC_ATOM_COUNT>  (1) 
0

>  <PUBCHEM_COMPONENT_COUNT>  (1) 
1

>  <PUBCHEM_CACTVS_TAUTO_COUNT>  (1) 
1

>  <PUBCHEM_CONFORMER_ID>  (1) 
000054DD00000002

>  <PUBCHEM_MMFF94_ENERGY>  (1) 
81.5959

>  <PUBCHEM_FEATURE_SELFOVERLAP>  (1) 
30.446

>  <PUBCHEM_SHAPE_FINGERPRINT>  (1) 
10764073 3 13756146591294174293
10940486 97 17842280559981123470
11421498 54 18113612370121365147
11646440 116 18272380805969984923
12236239 1 17675920998014192062
12553582 1 18412255160417146051
12788726 201 18334853901065860922
12954195 1 18341057307341971766
14251757 5 18261663784672065829
14289585 56 18057862763096464535
14294032 229 18194136130742332504
14347329 18 16952778763388952471
14363568 33 18045789142002676521
14955137 171 18267313203985087667
15081414 286 18196086879176160417
15198563 99 18410862027170932564
1601671 61 18342739641267829923
16087824 20 18337958892624172337
16994733 274 15647323156567410004
17357779 13 18202274818921292299
19427546 62 17472415452845733449
20600515 1 18200049458831439879
20642791 105 18264759979139751584
21285901 2 17987816149576133510
21641784 216 18334870393608441348
21792961 116 18259700086537274307
22182313 1 17915998262532780808
23557571 272 18201444653725649246
23558518 356 18044941155880265267
23576562 1 18122054567251211199
25147074 1 17895752886480057266
255183 451 17982732179898431703
266924 1 18114176385880744834
266924 87 18339924801311710966
283562 15 18410016489817259971
4409770 3 18264754498687589607
469060 322 18337687333850975889
5171179 24 17988064695154883705
59755656 520 17842010892275236520
68521 5 18411417315144621106
7164475 11 18336825295613520362
7226269 152 18407477764771536903

>  <PUBCHEM_SHAPE_MULTIPOLES>  (1) 
527.19
12.73
4.42
1.53
8.3
6.46
-0.03
-8.1
-3.63
-5.94
-0.17
0.3
0.39
0.42

>  <PUBCHEM_SHAPE_SELFOVERLAP>  (1) 
1092.153

>  <PUBCHEM_SHAPE_VOLUME>  (1) 
302.1

>  <PUBCHEM_COORDINATE_TYPE>  (1) 
2
5
10

$$$$
