21721
     RDKit          3D

 24 25  0  0  0  0  0  0  0  0999 V2000
   -2.0144    1.9663   -0.7800 S   0  0  0  0  0  0  0  0  0  0  0  0
   -1.8062    2.8645    0.5722 O   0  0  0  0  0  0  0  0  0  0  0  0
   -1.2465    2.5595   -1.8601 O   0  0  0  0  0  0  0  0  0  0  0  0
   -3.4371    1.7071   -0.9225 O   0  0  0  0  0  0  0  0  0  0  0  0
   -2.4476   -3.0890    0.2423 C   0  0  0  0  0  0  0  0  0  0  0  0
    4.4086   -0.1803    0.1045 C   0  0  0  0  0  0  0  0  0  0  0  0
   -1.5457   -1.9153    0.0588 C   0  0  0  0  0  0  0  0  0  0  0  0
    2.9325   -0.0154   -0.0308 C   0  0  0  0  0  0  0  0  0  0  0  0
    0.6979   -0.9759    0.0164 C   0  0  0  0  0  0  0  0  0  0  0  0
    0.1528    0.2947   -0.2860 C   0  0  0  0  0  0  0  0  0  0  0  0
   -0.1651   -2.0709    0.1858 C   0  0  0  0  0  0  0  0  0  0  0  0
   -1.2392    0.4329   -0.4101 C   0  0  0  0  0  0  0  0  0  0  0  0
    2.0900   -1.1141    0.1406 C   0  0  0  0  0  0  0  0  0  0  0  0
   -2.0817   -0.6658   -0.2386 C   0  0  0  0  0  0  0  0  0  0  0  0
   -2.2967   -3.7004    1.6697 C   0  0  0  0  0  0  0  0  0  0  0  0
   -2.1269   -4.2156   -0.7883 C   0  0  0  0  0  0  0  0  0  0  0  0
   -3.9753   -2.7944    0.0748 C   0  0  0  0  0  0  0  0  0  0  0  0
    2.3965    1.2340   -0.3282 C   0  0  0  0  0  0  0  0  0  0  0  0
    4.9762    0.7210    1.2445 C   0  0  0  0  0  0  0  0  0  0  0  0
    5.1450    0.2100   -1.2145 C   0  0  0  0  0  0  0  0  0  0  0  0
    4.8944   -1.6298    0.4389 C   0  0  0  0  0  0  0  0  0  0  0  0
    1.0159    1.3895   -0.4553 C   0  0  0  0  0  0  0  0  0  0  0  0
   -2.3235    4.1858    0.6103 C   0  0  0  0  0  0  0  0  0  0  0  0
   -2.0041    4.8017    1.9557 C   0  0  0  0  0  0  0  0  0  0  0  0
  1  2  1  0
  1  3  2  0
  1  4  2  0
  1 12  1  0
  2 23  1  0
  5  7  1  0
  5 15  1  0
  5 16  1  0
  5 17  1  0
  6  8  1  0
  6 19  1  0
  6 20  1  0
  6 21  1  0
  7 11  2  0
  7 14  1  0
  8 13  2  0
  8 18  1  0
  9 10  2  0
  9 11  1  0
  9 13  1  0
 10 12  1  0
 10 22  1  0
 12 14  2  0
 18 22  2  0
 23 24  1  0
M  END
>  <PUBCHEM_COMPOUND_CID>  (1) 
21721

>  <PUBCHEM_CONFORMER_RMSD>  (1) 
0.8

>  <PUBCHEM_CONFORMER_DIVERSEORDER>  (1) 
1
5
3
6
4
2

>  <PUBCHEM_MMFF94_PARTIAL_CHARGES>  (1) 
20
1 1.49
11 -0.15
12 -0.01
13 -0.15
14 -0.15
18 -0.15
2 -0.46
22 -0.15
23 0.28
25 0.15
26 0.15
27 0.15
3 -0.65
37 0.15
4 -0.65
47 0.15
5 0.14
6 0.14
7 -0.14
8 -0.14

>  <PUBCHEM_EFFECTIVE_ROTOR_COUNT>  (1) 
5

>  <PUBCHEM_PHARMACOPHORE_FEATURES>  (1) 
6
1 3 acceptor
1 4 acceptor
4 5 15 16 17 hydrophobe
4 6 19 20 21 hydrophobe
6 7 9 10 11 12 14 rings
6 8 9 10 13 18 22 rings

>  <PUBCHEM_HEAVY_ATOM_COUNT>  (1) 
24

>  <PUBCHEM_ATOM_DEF_STEREO_COUNT>  (1) 
0

>  <PUBCHEM_ATOM_UDEF_STEREO_COUNT>  (1) 
0

>  <PUBCHEM_BOND_DEF_STEREO_COUNT>  (1) 
0

>  <PUBCHEM_BOND_UDEF_STEREO_COUNT>  (1) 
0

>  <PUBCHEM_ISOTOPIC_ATOM_COUNT>  (1) 
0

>  <PUBCHEM_COMPONENT_COUNT>  (1) 
1

>  <PUBCHEM_CACTVS_TAUTO_COUNT>  (1) 
1

>  <PUBCHEM_CONFORMER_ID>  (1) 
000054D900000001

>  <PUBCHEM_MMFF94_ENERGY>  (1) 
73.8733

>  <PUBCHEM_FEATURE_SELFOVERLAP>  (1) 
30.489

>  <PUBCHEM_SHAPE_FINGERPRINT>  (1) 
10319926 262 18267276847803742010
10411042 1 18121217842380106822
1100329 8 18409732893754861509
11036077 51 18268145344917888809
11578080 2 17702086178803383539
12107183 9 17974841775710236018
12160290 23 18192685947781933687
12293681 160 18124283109590108877
12390115 104 18126016970175066308
12549972 3 17916571060951551058
12553582 1 18047194330479312070
12643181 29 18122628250608109630
12788726 201 18334568070760450379
12954195 1 18411427193748932102
13134695 92 17908141328217802159
13140716 1 18264776630348182347
13540713 5 18113340800288277926
138480 1 16392959913439007101
14178342 30 18335969914411421738
14790565 3 17690570689010398044
14866123 147 18335700481790364251
15042514 8 18334858333451023791
15131766 46 15481248634553306112
15475509 84 17831049028072126147
17980427 23 17629499729027580267
1813 80 17979091683628899935
18785283 64 17400090668791341307
19591789 44 17903354805835332070
20510252 161 18337949099254133970
20600515 1 18264218065946715167
21033650 10 17559120874254515972
21120745 212 18121245274362477084
21304253 13 18197504133064528779
22182313 1 18131082510960725286
23419403 2 17558816528301972553
23557571 272 18411145765906079046
23558518 356 18264777570851412327
23559900 14 18264197196716415268
23845131 108 17977671909849814553
25147074 1 17894632582883705724
283562 15 18335419110177542810
3091708 16 9274306350518528345
3178227 256 17258238271360978986
352729 6 18409729564700955151
3886686 26 17830977327566489442
458136 41 17617109005248437340
474 4 17691403014722608953
5486654 2 18410575046720984789
59755656 520 18194686964592556964
633830 44 17696467382380718060
7164475 11 18261672683733253934
79837 15 18266743471876976857
81228 2 18261967313815074683
9709674 26 18341327812930328974
9981440 41 18050006589165192873

>  <PUBCHEM_SHAPE_MULTIPOLES>  (1) 
480.15
8.37
5.92
1.28
12.39
4.23
0.22
-3.5
0.55
-9.5
2.34
-0.27
0.75
-0.14

>  <PUBCHEM_SHAPE_SELFOVERLAP>  (1) 
996.088

>  <PUBCHEM_SHAPE_VOLUME>  (1) 
279.4

>  <PUBCHEM_COORDINATE_TYPE>  (1) 
2
5
10

$$$$
