21726
     RDKit          3D

 22 24  0  0  1  0  0  0  0  0999 V2000
   -1.8823   -0.9292   -1.1060 S   0  0  0  0  0  0  0  0  0  0  0  0
    3.6269   -2.3967    0.4280 N   0  0  0  0  0  0  0  0  0  0  0  0
    3.8215    3.4774    0.0593 N   0  0  0  0  0  0  0  0  0  0  0  0
    3.6732    1.0972   -0.6318 C   0  0  0  0  0  0  0  0  0  0  0  0
    3.3777   -0.3019   -0.2621 C   0  0  0  0  0  0  0  0  0  0  0  0
    3.5420    2.1180    0.5312 C   0  0  0  0  0  0  0  0  0  0  0  0
    2.1080   -0.9421   -0.3162 C   0  0  0  0  0  0  0  0  0  0  0  0
    2.2921   -2.2553    0.1221 C   0  0  0  0  0  0  0  0  0  0  0  0
    4.2911   -1.2217    0.1993 C   0  0  0  0  0  0  0  0  0  0  0  0
    4.4966    1.8029    1.6830 C   0  0  0  0  0  0  0  0  0  0  0  0
    0.8157   -0.5292   -0.6969 C   0  0  0  0  0  0  0  0  0  0  0  0
    1.2445   -3.1797    0.1988 C   0  0  0  0  0  0  0  0  0  0  0  0
   -0.2419   -1.4432   -0.6255 C   0  0  0  0  0  0  0  0  0  0  0  0
   -0.0284   -2.7477   -0.1843 C   0  0  0  0  0  0  0  0  0  0  0  0
    2.9454    3.8254   -1.0469 C   0  0  0  0  0  0  0  0  0  0  0  0
   -2.5480   -0.3128    0.4655 C   0  0  0  0  0  0  0  0  0  0  0  0
   -3.9577    0.1919    0.3255 C   0  0  0  0  0  0  0  0  0  0  0  0
   -5.0202   -0.6818    0.5167 C   0  0  0  0  0  0  0  0  0  0  0  0
   -4.1797    1.5254    0.0074 C   0  0  0  0  0  0  0  0  0  0  0  0
   -6.3279   -0.2138    0.3871 C   0  0  0  0  0  0  0  0  0  0  0  0
   -5.4874    1.9933   -0.1220 C   0  0  0  0  0  0  0  0  0  0  0  0
   -6.5614    1.1237    0.0678 C   0  0  0  0  0  0  0  0  0  0  0  0
  1 13  1  0
  1 16  1  0
  2  8  1  0
  2  9  1  0
  3  6  1  0
  3 15  1  0
  4  5  1  0
  4  6  1  0
  5  7  1  0
  5  9  2  0
  6 10  1  0
  7  8  2  0
  7 11  1  0
  8 12  1  0
 11 13  2  0
 12 14  2  0
 13 14  1  0
 16 17  1  0
 17 18  2  0
 17 19  1  0
 18 20  1  0
 19 21  2  0
 20 22  2  0
 21 22  1  0
M  END
>  <PUBCHEM_COMPOUND_CID>  (1) 
21726

>  <PUBCHEM_CONFORMER_RMSD>  (1) 
0.8

>  <PUBCHEM_CONFORMER_DIVERSEORDER>  (1) 
1
67
147
50
15
113
123
150
78
38
18
89
112
47
97
157
152
73
154
80
44
137
9
54
138
68
83
72
149
158
103
95
2
122
124
29
111
120
119
79
133
70
48
151
53
90
92
7
117
101
107
69
71
106
55
114
87
27
109
46
135
59
45
128
76
11
142
37
98
143
8
23
14
39
35
52
51
153
65
136
81
13
140
63
110
91
118
127
141
6
104
77
4
155
43
94
156
32
131
25
146
126
145
115
116
134
64
31
66
34
40
85
125
88
21
130
16
57
24
58
102
28
82
56
86
61
26
144
139
74
132
22
62
100
93
105
30
99
20
49
36
121
10
75
12
41
60
96
5
129
19
42
17
33
108
148
84
3

>  <PUBCHEM_MMFF94_PARTIAL_CHARGES>  (1) 
31
1 -0.33
11 -0.15
12 -0.15
13 0.1
14 -0.15
15 0.27
16 0.37
17 -0.14
18 -0.15
19 -0.15
2 0.03
20 -0.15
21 -0.15
22 -0.15
26 0.15
27 0.27
3 -0.9
31 0.15
32 0.36
33 0.15
34 0.15
4 0.18
40 0.15
41 0.15
42 0.15
43 0.15
44 0.15
5 -0.18
6 0.27
8 -0.15
9 -0.3

>  <PUBCHEM_EFFECTIVE_ROTOR_COUNT>  (1) 
6

>  <PUBCHEM_PHARMACOPHORE_FEATURES>  (1) 
7
1 2 cation
1 2 donor
1 3 cation
1 3 donor
5 2 5 7 8 9 rings
6 17 18 19 20 21 22 rings
6 7 8 11 12 13 14 rings

>  <PUBCHEM_HEAVY_ATOM_COUNT>  (1) 
22

>  <PUBCHEM_ATOM_DEF_STEREO_COUNT>  (1) 
0

>  <PUBCHEM_ATOM_UDEF_STEREO_COUNT>  (1) 
1

>  <PUBCHEM_BOND_DEF_STEREO_COUNT>  (1) 
0

>  <PUBCHEM_BOND_UDEF_STEREO_COUNT>  (1) 
0

>  <PUBCHEM_ISOTOPIC_ATOM_COUNT>  (1) 
0

>  <PUBCHEM_COMPONENT_COUNT>  (1) 
1

>  <PUBCHEM_CACTVS_TAUTO_COUNT>  (1) 
1

>  <PUBCHEM_CONFORMER_ID>  (1) 
000054DE00000001

>  <PUBCHEM_MMFF94_ENERGY>  (1) 
41.8357

>  <PUBCHEM_FEATURE_SELFOVERLAP>  (1) 
35.614

>  <PUBCHEM_SHAPE_FINGERPRINT>  (1) 
10411042 1 17834396722756354726
10763959 59 18270408178433901285
10835480 77 18335979771614989261
11045977 3 18114753654833234939
11796584 16 12829500220639729227
1200032 147 17460046278431388876
12166972 35 18059011649172597314
12403259 118 18269546157566284227
12616971 3 18130780132156398255
12633257 1 16370727079655804975
13878862 14 18263062367340618829
13965767 371 17970613294344453884
14429380 56 18337940235111730445
14528608 73 18341896281853129623
146900 427 18272942609182468787
14848178 96 18341330080082106816
14849402 71 18335423474185607500
15142526 21 18261392294993087043
15342168 16 18337673134435653613
15475509 35 16516235233533128938
15475509 84 17612300858459570962
17810953 82 18411419535669476492
17844677 252 18339649936779759433
19427546 62 18410858759207176119
21033650 10 13829590733988010747
21315763 129 18337108952317195897
21315764 268 18334010554478371189
21792934 111 18041009402481531425
22122407 14 18129108840512941233
23559900 14 18194965128672072539
23845131 108 18260829357745654722
239999 70 18200882764007249367
245318 6 17898023553331193853
34797466 226 17988933245564591815
350125 39 18409167680369018956
437795 96 18115293476725878261
474 4 18410855503357442162
5104073 3 18261106400542820051
633830 44 18343016722471807398
67856867 119 18409450263499915919
7288768 16 17897723399604262378
7808743 9 18050287273957487128
960060 61 11312055482423478506
9849439 229 18124870411718220832
9999458 23 18408606937802369814

>  <PUBCHEM_SHAPE_MULTIPOLES>  (1) 
446.64
14.43
4.02
0.99
21.74
1.87
-0.07
8.66
-2.87
-5.72
0.3
-0.64
0.34
0.01

>  <PUBCHEM_SHAPE_SELFOVERLAP>  (1) 
940.623

>  <PUBCHEM_SHAPE_VOLUME>  (1) 
254.3

>  <PUBCHEM_COORDINATE_TYPE>  (1) 
2
5
10

$$$$
