21729
     RDKit          3D

 16 17  0  0  1  0  0  0  0  0999 V2000
    3.6710    2.0684   -0.6275 S   0  0  0  0  0  0  0  0  0  0  0  0
    0.1465   -2.6100    0.1133 N   0  0  0  0  0  0  0  0  0  0  0  0
   -4.1059    1.2956   -0.3022 N   0  0  0  0  0  0  0  0  0  0  0  0
   -1.8984    0.3864    0.5309 C   0  0  0  0  0  0  0  0  0  0  0  0
   -0.8601   -0.6422    0.3168 C   0  0  0  0  0  0  0  0  0  0  0  0
    0.5146   -0.4112    0.0311 C   0  0  0  0  0  0  0  0  0  0  0  0
   -3.0378    0.3272   -0.5316 C   0  0  0  0  0  0  0  0  0  0  0  0
    1.1235   -1.6620   -0.0918 C   0  0  0  0  0  0  0  0  0  0  0  0
   -1.0556   -2.0034    0.3609 C   0  0  0  0  0  0  0  0  0  0  0  0
   -2.5023    0.3502    1.9590 C   0  0  0  0  0  0  0  0  0  0  0  0
    1.3019    0.7456   -0.1351 C   0  0  0  0  0  0  0  0  0  0  0  0
    2.4857   -1.8145   -0.3737 C   0  0  0  0  0  0  0  0  0  0  0  0
    2.6659    0.6083   -0.4176 C   0  0  0  0  0  0  0  0  0  0  0  0
    3.2466   -0.6530   -0.5346 C   0  0  0  0  0  0  0  0  0  0  0  0
   -5.1712    1.1323   -1.2803 C   0  0  0  0  0  0  0  0  0  0  0  0
    3.4756    2.8823    0.9825 C   0  0  0  0  0  0  0  0  0  0  0  0
  1 13  1  0
  1 16  1  0
  2  8  1  0
  2  9  1  0
  3  7  1  0
  3 15  1  0
  4  5  1  0
  4  7  1  0
  4 10  1  0
  5  6  1  0
  5  9  2  0
  6  8  2  0
  6 11  1  0
  8 12  1  0
 11 13  2  0
 12 14  2  0
 13 14  1  0
M  END
>  <PUBCHEM_COMPOUND_CID>  (1) 
21729

>  <PUBCHEM_CONFORMER_RMSD>  (1) 
0.6

>  <PUBCHEM_CONFORMER_DIVERSEORDER>  (1) 
5
38
45
33
11
58
59
2
13
35
42
40
29
57
53
39
26
1
41
34
48
37
4
61
43
23
49
60
20
56
17
3
9
31
47
18
50
55
32
21
6
30
62
14
7
36
52
12
28
51
22
54
15
8
16
46
10
24
19
44
27
25

>  <PUBCHEM_MMFF94_PARTIAL_CHARGES>  (1) 
20
1 -0.33
11 -0.15
12 -0.15
13 0.1
14 -0.15
15 0.27
16 0.23
2 0.03
20 0.15
24 0.27
25 0.15
26 0.15
27 0.36
28 0.15
3 -0.9
4 0.18
5 -0.18
7 0.27
8 -0.15
9 -0.3

>  <PUBCHEM_EFFECTIVE_ROTOR_COUNT>  (1) 
4

>  <PUBCHEM_PHARMACOPHORE_FEATURES>  (1) 
8
1 10 hydrophobe
1 16 hydrophobe
1 2 cation
1 2 donor
1 3 cation
1 3 donor
5 2 5 6 8 9 rings
6 6 8 11 12 13 14 rings

>  <PUBCHEM_HEAVY_ATOM_COUNT>  (1) 
16

>  <PUBCHEM_ATOM_DEF_STEREO_COUNT>  (1) 
0

>  <PUBCHEM_ATOM_UDEF_STEREO_COUNT>  (1) 
1

>  <PUBCHEM_BOND_DEF_STEREO_COUNT>  (1) 
0

>  <PUBCHEM_BOND_UDEF_STEREO_COUNT>  (1) 
0

>  <PUBCHEM_ISOTOPIC_ATOM_COUNT>  (1) 
0

>  <PUBCHEM_COMPONENT_COUNT>  (1) 
1

>  <PUBCHEM_CACTVS_TAUTO_COUNT>  (1) 
1

>  <PUBCHEM_CONFORMER_ID>  (1) 
000054E100000005

>  <PUBCHEM_MMFF94_ENERGY>  (1) 
26.1185

>  <PUBCHEM_FEATURE_SELFOVERLAP>  (1) 
40.686

>  <PUBCHEM_SHAPE_FINGERPRINT>  (1) 
10608611 8 18337397135753196078
11471102 20 18264209119039324342
11543360 7 15625950875596474104
11725454 13 17677314083319739149
12403259 327 15719391771576483677
12403259 415 18261967309577915281
12730499 353 18188496774921988099
13140716 1 18339091470629926602
13583140 156 17603872216715912592
14250199 8 18271534086983425797
14897335 6 18411982502818182022
14911166 2 18338245842998318374
15061688 2 18335412512764709109
15422964 175 10303807683544972119
16945 1 18267600017479423106
17834072 32 18189902100532005532
18186145 218 18270699622298744020
18219364 16 18335999626214473201
192875 21 18129940079244322288
20510252 161 17623299677173051208
20645477 70 18338802191444548319
21499 59 18410856564309342391
21524375 3 18340773727557024758
21639500 275 18341051830577992303
22096605 113 18409728431035297461
22892500 29 18335983064957645510
23382010 3 18200865270937164107
23402655 69 18341329994562173063
23557571 272 17241347801948612089
23559900 14 18273216400694944274
25 1 18262521377486376999
2748010 2 18266198281951103118
3060560 45 18267019466449453391
43658 37 18411693322501525725
474 4 18413386535964088464
495365 180 18335974298781863273
633830 44 17915485846763377105
7471813 234 17916010262070076904
77492 1 17631739236180348331
84936 182 18271522013778174721

>  <PUBCHEM_SHAPE_MULTIPOLES>  (1) 
323.16
7.97
2.74
1.15
5.96
0.12
0.36
-6.63
-2.31
-2.26
0.18
0.87
-0.45
1.05

>  <PUBCHEM_SHAPE_SELFOVERLAP>  (1) 
662.039

>  <PUBCHEM_SHAPE_VOLUME>  (1) 
191.5

>  <PUBCHEM_COORDINATE_TYPE>  (1) 
2
5
10

$$$$
