21737
     RDKit          3D

 38 41  0  0  1  0  0  0  0  0999 V2000
    4.4325    1.0600    0.3613 S   0  0  0  0  0  0  0  0  0  0  0  0
    4.2536    2.7129   -0.8443 S   0  0  0  0  0  0  0  0  0  0  0  0
    4.5844   -2.3570    1.9335 O   0  0  0  0  0  0  0  0  0  0  0  0
    0.2947    5.2595   -0.3248 O   0  0  0  0  0  0  0  0  0  0  0  0
    6.5776   -1.9749    0.9225 O   0  0  0  0  0  0  0  0  0  0  0  0
    2.5340    5.4718   -0.0414 O   0  0  0  0  0  0  0  0  0  0  0  0
    2.6900   -2.6007   -2.3396 O   0  0  0  0  0  0  0  0  0  0  0  0
   -0.1399    2.7623    2.0801 O   0  0  0  0  0  0  0  0  0  0  0  0
    3.1350   -1.8991   -0.1748 N   0  0  0  0  0  0  0  0  0  0  0  0
    0.2683    2.6650   -0.2008 N   0  0  0  0  0  0  0  0  0  0  0  0
    0.5264   -2.2307    0.4149 N   0  0  0  0  0  0  0  0  0  0  0  0
   -2.1539    1.5217   -0.5295 N   0  0  0  0  0  0  0  0  0  0  0  0
   -1.3282   -3.1375   -1.4446 N   0  0  0  0  0  0  0  0  0  0  0  0
   -3.8780    1.0235    1.5917 N   0  0  0  0  0  0  0  0  0  0  0  0
    4.5472   -1.6564   -0.3641 C   0  0  0  0  0  0  0  0  0  0  0  0
    1.5888    3.2421   -0.1614 C   0  0  0  0  0  0  0  0  0  0  0  0
    4.8223   -0.2352   -0.8619 C   0  0  0  0  0  0  0  0  0  0  0  0
    2.4933    2.6781   -1.2600 C   0  0  0  0  0  0  0  0  0  0  0  0
    5.3535   -2.0008    0.8770 C   0  0  0  0  0  0  0  0  0  0  0  0
    1.5447    4.7611   -0.1717 C   0  0  0  0  0  0  0  0  0  0  0  0
    2.2827   -2.3620   -1.1865 C   0  0  0  0  0  0  0  0  0  0  0  0
   -0.4959    2.4712    0.9412 C   0  0  0  0  0  0  0  0  0  0  0  0
    0.8835   -2.5333   -0.8462 C   0  0  0  0  0  0  0  0  0  0  0  0
   -1.8253    1.8407    0.7353 C   0  0  0  0  0  0  0  0  0  0  0  0
   -0.7662   -2.3813    0.7529 C   0  0  0  0  0  0  0  0  0  0  0  0
   -3.3523    0.9493   -0.7396 C   0  0  0  0  0  0  0  0  0  0  0  0
   -1.7054   -2.8403   -0.1887 C   0  0  0  0  0  0  0  0  0  0  0  0
   -4.2252    0.6970    0.3345 C   0  0  0  0  0  0  0  0  0  0  0  0
   -0.0307   -2.9802   -1.7628 C   0  0  0  0  0  0  0  0  0  0  0  0
   -2.6750    1.5951    1.7809 C   0  0  0  0  0  0  0  0  0  0  0  0
   -1.1926   -2.0831    2.0451 C   0  0  0  0  0  0  0  0  0  0  0  0
   -3.7452    0.5980   -2.0290 C   0  0  0  0  0  0  0  0  0  0  0  0
   -3.0363   -2.9841    0.1967 C   0  0  0  0  0  0  0  0  0  0  0  0
   -5.4589    0.1025    0.0795 C   0  0  0  0  0  0  0  0  0  0  0  0
   -2.5267   -2.2306    2.4204 C   0  0  0  0  0  0  0  0  0  0  0  0
   -4.9820    0.0036   -2.2733 C   0  0  0  0  0  0  0  0  0  0  0  0
   -3.4525   -2.6830    1.4922 C   0  0  0  0  0  0  0  0  0  0  0  0
   -5.8425   -0.2453   -1.2146 C   0  0  0  0  0  0  0  0  0  0  0  0
  1  2  1  0
  1 17  1  0
  2 18  1  0
  3 19  1  0
  4 20  1  0
  5 19  2  0
  6 20  2  0
  7 21  2  0
  8 22  2  0
  9 15  1  0
  9 21  1  0
 10 16  1  0
 10 22  1  0
 11 23  2  0
 11 25  1  0
 12 24  2  0
 12 26  1  0
 13 27  1  0
 13 29  2  0
 14 28  1  0
 14 30  2  0
 15 17  1  0
 15 19  1  0
 16 18  1  0
 16 20  1  0
 21 23  1  0
 22 24  1  0
 23 29  1  0
 24 30  1  0
 25 27  2  0
 25 31  1  0
 26 28  2  0
 26 32  1  0
 27 33  1  0
 28 34  1  0
 31 35  2  0
 32 36  2  0
 33 37  2  0
 34 38  2  0
 35 37  1  0
 36 38  1  0
M  END
>  <PUBCHEM_COMPOUND_CID>  (1) 
21737

>  <PUBCHEM_CONFORMER_RMSD>  (1) 
1.2

>  <PUBCHEM_CONFORMER_DIVERSEORDER>  (1) 
1
89
6
156
86
159
194
127
36
199
242
92
98
170
120
68
11
4
8
165
250
112
211
106
157
140
254
99
206
72
44
210
178
28
245
129
190
195
49
121
21
255
241
184
249
82
10
145
247
37
186
220
61
31
224
180
115
133
200
144
153
163
80
24
48
111
130
215
73
201
151
141
136
118
139
100
236
231
222
228
174
39
102
15
3
78
47
179
152
103
243
54
18
191
189
253
84
13
148
176
149
88
214
75
223
226
83
172
29
46
70
23
227
69
105
109
221
95
114
232
164
71
122
209
204
150
229
230
57
135
119
239
113
43
198
76
62
193
225
53
212
34
52
33
20
91
175
77
66
188
168
35
81
181
208
97
246
137
132
94
142
96
237
238
14
143
93
147
108
161
218
134
64
196
16
166
45
90
40
104
19
207
251
167
185
42
131
125
55
217
38
110
65
5
240
50
2
146
233
27
41
192
252
244
63
67
56
197
101
182
158
124
60
187
26
171
169
138
234
22
126
9
87
25
154
248
51
160
107
79
59
183
32
177
7
128
219
117
17
235
30
74
205
58
162
116
85
216
12
123
203
155
173
202
213

>  <PUBCHEM_MMFF94_PARTIAL_CHARGES>  (1) 
52
1 -0.23
10 -0.73
11 -0.62
12 -0.62
13 -0.62
14 -0.62
15 0.36
16 0.36
17 0.23
18 0.23
19 0.66
2 -0.23
20 0.66
21 0.54
22 0.54
23 0.4
24 0.4
25 0.31
26 0.31
27 0.31
28 0.31
29 0.16
3 -0.65
30 0.16
31 -0.15
32 -0.15
33 -0.15
34 -0.15
35 -0.15
36 -0.15
37 -0.15
38 -0.15
4 -0.65
45 0.37
46 0.37
47 0.15
48 0.15
49 0.15
5 -0.57
50 0.15
51 0.15
52 0.15
53 0.15
54 0.15
55 0.15
56 0.15
57 0.5
58 0.5
6 -0.57
7 -0.57
8 -0.57
9 -0.73

>  <PUBCHEM_EFFECTIVE_ROTOR_COUNT>  (1) 
13

>  <PUBCHEM_PHARMACOPHORE_FEATURES>  (1) 
19
1 10 donor
1 11 acceptor
1 12 acceptor
1 13 acceptor
1 14 acceptor
1 3 acceptor
1 4 acceptor
1 5 acceptor
1 6 acceptor
1 7 acceptor
1 8 acceptor
1 9 donor
3 3 5 19 anion
3 4 6 20 anion
4 1 2 17 18 hydrophobe
6 11 13 23 25 27 29 rings
6 12 14 24 26 28 30 rings
6 25 27 31 33 35 37 rings
6 26 28 32 34 36 38 rings

>  <PUBCHEM_HEAVY_ATOM_COUNT>  (1) 
38

>  <PUBCHEM_ATOM_DEF_STEREO_COUNT>  (1) 
2

>  <PUBCHEM_ATOM_UDEF_STEREO_COUNT>  (1) 
0

>  <PUBCHEM_BOND_DEF_STEREO_COUNT>  (1) 
0

>  <PUBCHEM_BOND_UDEF_STEREO_COUNT>  (1) 
0

>  <PUBCHEM_ISOTOPIC_ATOM_COUNT>  (1) 
0

>  <PUBCHEM_COMPONENT_COUNT>  (1) 
1

>  <PUBCHEM_CACTVS_TAUTO_COUNT>  (1) 
3

>  <PUBCHEM_CONFORMER_ID>  (1) 
000054E900000001

>  <PUBCHEM_MMFF94_ENERGY>  (1) 
87.804

>  <PUBCHEM_FEATURE_SELFOVERLAP>  (1) 
96.635

>  <PUBCHEM_SHAPE_FINGERPRINT>  (1) 
10675989 125 16603211856072396029
11135926 11 18263378030700701284
11146851 88 18409162190947237910
11513181 2 17630624318436446870
12422481 6 17828229871562825363
12838863 1 18339346475465118590
14725015 67 18265322907528581216
15001296 14 17474113571397779488
15264996 151 18260267494423441449
17627616 140 18051415372670768382
20764821 26 18270134498844113606
21792938 131 17986941042412365183
22113638 7 18413108368470891972
25019877 29 17060043831596463830
25265897 201 13120285758408286344
3027735 51 17550098603948626743
3729539 64 18260824891337817005
373842 8 18410853287502490186
463206 1 18408892806367152188
5081480 168 17270646496593971790
5265222 85 17326062144184509085
6287921 2 17699863816611219982

>  <PUBCHEM_SHAPE_MULTIPOLES>  (1) 
724.62
11.66
6.58
2.09
4.13
6.05
0.12
-2.82
-1.04
5.58
0.09
-1.51
-1.02
-0.16

>  <PUBCHEM_SHAPE_SELFOVERLAP>  (1) 
1545.63

>  <PUBCHEM_SHAPE_VOLUME>  (1) 
403.8

>  <PUBCHEM_COORDINATE_TYPE>  (1) 
2
5
10

$$$$
