21749
     RDKit          3D

 12 13  0  0  0  0  0  0  0  0999 V2000
    3.3943   -1.7027    0.0001 Br  0  0  0  0  0  0  0  0  0  0  0  0
    3.2693    1.6399   -0.0002 Cl  0  0  0  0  0  0  0  0  0  0  0  0
   -1.8696   -1.1733   -0.0003 O   0  0  0  0  0  0  0  0  0  0  0  0
   -3.8875   -0.0432    0.0008 O   0  0  0  0  0  0  0  0  0  0  0  0
   -1.8710    1.1250   -0.0001 N   0  0  0  0  0  0  0  0  0  0  0  0
   -0.5631    0.7187   -0.0002 C   0  0  0  0  0  0  0  0  0  0  0  0
   -0.5819   -0.6595   -0.0003 C   0  0  0  0  0  0  0  0  0  0  0  0
    0.6018    1.4518    0.0000 C   0  0  0  0  0  0  0  0  0  0  0  0
    0.5847   -1.3928   -0.0002 C   0  0  0  0  0  0  0  0  0  0  0  0
    1.7972    0.7291    0.0003 C   0  0  0  0  0  0  0  0  0  0  0  0
    1.7891   -0.6812    0.0004 C   0  0  0  0  0  0  0  0  0  0  0  0
   -2.6632   -0.0119   -0.0004 C   0  0  0  0  0  0  0  0  0  0  0  0
  1 11  1  0
  2 10  1  0
  3  7  1  0
  3 12  1  0
  4 12  2  0
  5  6  1  0
  5 12  1  0
  6  7  2  0
  6  8  1  0
  7  9  1  0
  8 10  2  0
  9 11  2  0
 10 11  1  0
M  END
>  <PUBCHEM_COMPOUND_CID>  (1) 
21749

>  <PUBCHEM_CONFORMER_RMSD>  (1) 
0.4

>  <PUBCHEM_CONFORMER_DIVERSEORDER>  (1) 
1

>  <PUBCHEM_MMFF94_PARTIAL_CHARGES>  (1) 
15
1 -0.11
10 0.18
11 0.11
12 0.78
13 0.15
14 0.37
15 0.15
2 -0.18
3 -0.23
4 -0.57
5 -0.55
6 0.12
7 0.08
8 -0.15
9 -0.15

>  <PUBCHEM_EFFECTIVE_ROTOR_COUNT>  (1) 
0

>  <PUBCHEM_PHARMACOPHORE_FEATURES>  (1) 
5
1 1 hydrophobe
1 4 acceptor
1 5 donor
5 3 5 6 7 12 rings
6 6 7 8 9 10 11 rings

>  <PUBCHEM_HEAVY_ATOM_COUNT>  (1) 
12

>  <PUBCHEM_ATOM_DEF_STEREO_COUNT>  (1) 
0

>  <PUBCHEM_ATOM_UDEF_STEREO_COUNT>  (1) 
0

>  <PUBCHEM_BOND_DEF_STEREO_COUNT>  (1) 
0

>  <PUBCHEM_BOND_UDEF_STEREO_COUNT>  (1) 
0

>  <PUBCHEM_ISOTOPIC_ATOM_COUNT>  (1) 
0

>  <PUBCHEM_COMPONENT_COUNT>  (1) 
1

>  <PUBCHEM_CACTVS_TAUTO_COUNT>  (1) 
2

>  <PUBCHEM_CONFORMER_ID>  (1) 
000054F500000001

>  <PUBCHEM_MMFF94_ENERGY>  (1) 
33.196

>  <PUBCHEM_FEATURE_SELFOVERLAP>  (1) 
25.487

>  <PUBCHEM_SHAPE_FINGERPRINT>  (1) 
10608611 8 18408599245120212605
11471102 20 18410288108218436085
12032990 46 18338240366487604730
13380535 21 18337400455778915562
13380535 76 18337106894932974130
14325111 11 18410575097616766945
14576447 43 17841696698259037023
14897335 6 18340200899009783772
15219456 202 18334287647971280829
15536298 74 18343301466366411858
15775835 57 18271248329887540628
161256 15 18335136454205768124
16945 1 18266742574228733548
193761 8 16681473985113156646
20201158 50 18338517439138719694
20645477 70 18411695470227948959
20871998 22 18055639421578007950
21501502 16 18413108359469312064
21501925 9 18338787940842988066
23235685 24 18337385062426359008
23402655 69 18341883100925487637
23463225 33 18410011009823903910
23552423 10 18334013891319715766
2748010 2 18409446981691234188
5084963 1 18272086050436955778
528886 8 18339356478132065064
53812653 166 18199746011023764328
63268167 104 18412548729525740776
7364860 26 18342457050115904768

>  <PUBCHEM_SHAPE_MULTIPOLES>  (1) 
238.05
5.49
1.87
0.61
1.35
0.1
0
-0.53
0
-1.64
0
-0.11
-0.01
0

>  <PUBCHEM_SHAPE_SELFOVERLAP>  (1) 
499.57

>  <PUBCHEM_SHAPE_VOLUME>  (1) 
139.7

>  <PUBCHEM_COORDINATE_TYPE>  (1) 
2
5
10

$$$$
