21742
     RDKit          3D

 17 18  0  0  0  0  0  0  0  0999 V2000
    2.7319    1.6047    0.0023 O   0  0  0  0  0  0  0  0  0  0  0  0
    3.6896   -0.8461   -0.0012 O   0  0  0  0  0  0  0  0  0  0  0  0
   -2.7085   -1.2268    0.0003 C   0  0  0  0  0  0  0  0  0  0  0  0
   -1.7521   -0.0753   -0.0002 C   0  0  0  0  0  0  0  0  0  0  0  0
   -0.3628   -0.2531    0.0000 C   0  0  0  0  0  0  0  0  0  0  0  0
    0.4606    0.8776    0.0000 C   0  0  0  0  0  0  0  0  0  0  0  0
   -0.0835    2.1654   -0.0004 C   0  0  0  0  0  0  0  0  0  0  0  0
   -2.3009    1.2090   -0.0006 C   0  0  0  0  0  0  0  0  0  0  0  0
    0.2061   -1.6028    0.0004 C   0  0  0  0  0  0  0  0  0  0  0  0
   -3.5902   -1.2534   -1.2601 C   0  0  0  0  0  0  0  0  0  0  0  0
   -3.5898   -1.2528    1.2609 C   0  0  0  0  0  0  0  0  0  0  0  0
   -1.4680    2.3267   -0.0008 C   0  0  0  0  0  0  0  0  0  0  0  0
    1.9206    0.6921    0.0002 C   0  0  0  0  0  0  0  0  0  0  0  0
    1.5248   -1.8464    0.0002 C   0  0  0  0  0  0  0  0  0  0  0  0
    2.4751   -0.7056   -0.0008 C   0  0  0  0  0  0  0  0  0  0  0  0
    0.7403    3.4123   -0.0001 C   0  0  0  0  0  0  0  0  0  0  0  0
    2.1067   -3.2255    0.0000 C   0  0  0  0  0  0  0  0  0  0  0  0
  1 13  2  0
  2 15  2  0
  3  4  1  0
  3 10  1  0
  3 11  1  0
  4  5  2  0
  4  8  1  0
  5  6  1  0
  5  9  1  0
  6  7  2  0
  6 13  1  0
  7 12  1  0
  7 16  1  0
  8 12  2  0
  9 14  2  0
 13 15  1  0
 14 15  1  0
 14 17  1  0
M  END
>  <PUBCHEM_COMPOUND_CID>  (1) 
21742

>  <PUBCHEM_CONFORMER_RMSD>  (1) 
0.6

>  <PUBCHEM_CONFORMER_DIVERSEORDER>  (1) 
1

>  <PUBCHEM_MMFF94_PARTIAL_CHARGES>  (1) 
18
1 -0.57
12 -0.15
13 0.48
14 -0.12
15 0.56
16 0.14
17 0.14
19 0.15
2 -0.57
20 0.15
27 0.15
3 0.14
4 -0.14
5 0.03
6 0.09
7 -0.14
8 -0.15
9 -0.18

>  <PUBCHEM_EFFECTIVE_ROTOR_COUNT>  (1) 
1

>  <PUBCHEM_PHARMACOPHORE_FEATURES>  (1) 
5
1 1 acceptor
1 2 acceptor
3 3 10 11 hydrophobe
6 4 5 6 7 8 12 rings
6 5 6 9 13 14 15 rings

>  <PUBCHEM_HEAVY_ATOM_COUNT>  (1) 
17

>  <PUBCHEM_ATOM_DEF_STEREO_COUNT>  (1) 
0

>  <PUBCHEM_ATOM_UDEF_STEREO_COUNT>  (1) 
0

>  <PUBCHEM_BOND_DEF_STEREO_COUNT>  (1) 
0

>  <PUBCHEM_BOND_UDEF_STEREO_COUNT>  (1) 
0

>  <PUBCHEM_ISOTOPIC_ATOM_COUNT>  (1) 
0

>  <PUBCHEM_COMPONENT_COUNT>  (1) 
1

>  <PUBCHEM_CACTVS_TAUTO_COUNT>  (1) 
1

>  <PUBCHEM_CONFORMER_ID>  (1) 
000054EE00000001

>  <PUBCHEM_MMFF94_ENERGY>  (1) 
49.5743

>  <PUBCHEM_FEATURE_SELFOVERLAP>  (1) 
25.404

>  <PUBCHEM_SHAPE_FINGERPRINT>  (1) 
10967382 1 18194682793999632966
11471102 20 18337950211861764055
11578080 2 17344598583737441737
11680986 33 18195241122737003466
12553582 1 18411141341905368139
13140716 1 18266459810735434792
13583140 156 13830132754681628703
14178342 30 18194390101048419584
14251717 144 18195802092863690103
14790565 3 17976844277793832277
16945 1 18266741461932385189
193761 8 18266459797934999940
19591789 44 17472149843340271658
20510252 161 17334768687343732480
20645477 70 18119235414926146231
20739085 24 17972903611308909009
21501502 16 18266457598901272838
23184049 29 18192992608605396378
2334 1 18410575071783490761
23388829 49 18342454897931211589
23419403 2 16675202641181351520
23559900 14 18052811456744956250
2748010 2 18411693266635308852
3084891 72 16466421592579316686
34934 24 18266171743110550889
54173680 148 17977388226684595042
589210 1 18195247715453793442
7364860 26 18268147745815409881
77492 1 17559405862519145287
81228 2 18120930607957136865
8809292 202 17975983063603730187
9709674 26 17909545060853290622

>  <PUBCHEM_SHAPE_MULTIPOLES>  (1) 
338.11
5.23
3.55
0.8
1.3
1.24
0
-2.94
0
-1.33
0
0.71
-0.25
0

>  <PUBCHEM_SHAPE_SELFOVERLAP>  (1) 
728.69

>  <PUBCHEM_SHAPE_VOLUME>  (1) 
188.5

>  <PUBCHEM_COORDINATE_TYPE>  (1) 
2
5
10

$$$$
