21744
     RDKit          3D

 31 34  0  0  1  0  0  0  0  0999 V2000
   -0.3002   -1.9727   -0.6277 S   0  0  0  0  0  0  0  0  0  0  0  0
   -7.7843   -0.7242   -0.4665 S   0  0  0  0  0  0  0  0  0  0  0  0
   -2.3509    1.3826    1.8521 O   0  0  0  0  0  0  0  0  0  0  0  0
    1.0898    2.8144    1.3088 O   0  0  0  0  0  0  0  0  0  0  0  0
   -0.4102    3.1453   -0.3855 O   0  0  0  0  0  0  0  0  0  0  0  0
   -4.7369   -0.6559    1.9803 O   0  0  0  0  0  0  0  0  0  0  0  0
    7.9980   -0.4129    1.2061 O   0  0  0  0  0  0  0  0  0  0  0  0
   -0.5645    0.2274    0.8347 N   0  0  0  0  0  0  0  0  0  0  0  0
   -3.0258   -1.6033    0.7313 N   0  0  0  0  0  0  0  0  0  0  0  0
    3.6768    0.5928   -0.9600 N   0  0  0  0  0  0  0  0  0  0  0  0
    7.9308   -1.9466   -0.4974 N   0  0  0  0  0  0  0  0  0  0  0  0
   -0.4835   -1.2123    1.0015 C   0  0  0  0  0  0  0  0  0  0  0  0
   -1.9197   -1.1314    1.5637 C   0  0  0  0  0  0  0  0  0  0  0  0
   -1.7178    0.4100    1.5138 C   0  0  0  0  0  0  0  0  0  0  0  0
    0.3560    0.9619    0.1587 C   0  0  0  0  0  0  0  0  0  0  0  0
    1.2638    0.3784   -0.6597 C   0  0  0  0  0  0  0  0  0  0  0  0
    1.2736   -1.1160   -0.9735 C   0  0  0  0  0  0  0  0  0  0  0  0
    2.3672    1.1157   -1.3798 C   0  0  0  0  0  0  0  0  0  0  0  0
    0.2809    2.4232    0.3045 C   0  0  0  0  0  0  0  0  0  0  0  0
   -4.3596   -1.3202    1.0164 C   0  0  0  0  0  0  0  0  0  0  0  0
   -5.3323   -1.8976    0.0076 C   0  0  0  0  0  0  0  0  0  0  0  0
    4.2043   -0.4234   -1.6458 C   0  0  0  0  0  0  0  0  0  0  0  0
    4.2802    1.1588    0.0875 C   0  0  0  0  0  0  0  0  0  0  0  0
   -6.0932   -0.7742   -0.6395 C   0  0  0  0  0  0  0  0  0  0  0  0
    5.4389   -0.9358   -1.2734 C   0  0  0  0  0  0  0  0  0  0  0  0
    5.5166    0.6873    0.5050 C   0  0  0  0  0  0  0  0  0  0  0  0
    6.0985   -0.3714   -0.1858 C   0  0  0  0  0  0  0  0  0  0  0  0
   -5.5914    0.2546   -1.3791 C   0  0  0  0  0  0  0  0  0  0  0  0
   -6.6282    1.1239   -1.8257 C   0  0  0  0  0  0  0  0  0  0  0  0
    7.3936   -0.8870    0.2280 C   0  0  0  0  0  0  0  0  0  0  0  0
   -7.8708    0.7085   -1.4004 C   0  0  0  0  0  0  0  0  0  0  0  0
  1 12  1  0
  1 17  1  0
  2 24  1  0
  2 31  1  0
  3 14  2  0
  4 19  1  0
  5 19  2  0
  6 20  2  0
  7 30  2  0
  8 12  1  0
  8 14  1  0
  8 15  1  0
  9 13  1  0
  9 20  1  0
 10 18  1  0
 10 22  2  0
 10 23  1  0
 11 30  1  0
 12 13  1  0
 13 14  1  0
 15 16  2  0
 15 19  1  0
 16 17  1  0
 16 18  1  0
 20 21  1  0
 21 24  1  0
 22 25  1  0
 23 26  2  0
 24 28  2  0
 25 27  2  0
 26 27  1  0
 27 30  1  0
 28 29  1  0
 29 31  2  0
M  CHG  1  10   1
M  END
>  <PUBCHEM_COMPOUND_CID>  (1) 
21744

>  <PUBCHEM_CONFORMER_RMSD>  (1) 
1

>  <PUBCHEM_CONFORMER_DIVERSEORDER>  (1) 
1
20
12
93
68
62
92
35
53
88
54
94
96
91
72
38
25
41
2
87
45
86
51
69
42
100
49
13
71
52
46
5
99
84
24
60
55
6
21
74
32
36
90
98
79
78
64
39
27
28
23
57
77
65
19
47
10
81
59
89
80
50
67
29
75
43
11
37
63
97
31
15
34
76
14
66
16
83
56
30
9
17
3
22
95
18
40
70
7
61
26
58
4
8
48
82
44
73
85
33

>  <PUBCHEM_MMFF94_PARTIAL_CHARGES>  (1) 
42
1 -0.45
10 -0.21
11 -0.8
12 0.44
13 0.28
14 0.58
15 0.12
16 -0.28
17 0.37
18 0.63
19 0.71
2 -0.08
20 0.57
21 0.24
22 0.21
23 0.21
24 -0.14
25 -0.15
26 -0.15
27 0.09
28 -0.15
29 -0.15
3 -0.57
30 0.54
31 -0.11
36 0.37
4 -0.65
41 0.15
42 0.15
43 0.5
44 0.15
45 0.15
46 0.15
47 0.15
48 0.15
49 0.37
5 -0.57
50 0.37
6 -0.57
7 -0.57
8 -0.39
9 -0.65

>  <PUBCHEM_EFFECTIVE_ROTOR_COUNT>  (1) 
8.6

>  <PUBCHEM_PHARMACOPHORE_FEATURES>  (1) 
12
1 11 donor
1 3 acceptor
1 4 acceptor
1 5 acceptor
1 6 acceptor
1 7 acceptor
1 9 donor
3 4 5 19 anion
4 8 12 13 14 rings
5 2 24 28 29 31 rings
6 1 8 12 15 16 17 rings
6 10 22 23 25 26 27 rings

>  <PUBCHEM_HEAVY_ATOM_COUNT>  (1) 
31

>  <PUBCHEM_ATOM_DEF_STEREO_COUNT>  (1) 
2

>  <PUBCHEM_ATOM_UDEF_STEREO_COUNT>  (1) 
0

>  <PUBCHEM_BOND_DEF_STEREO_COUNT>  (1) 
0

>  <PUBCHEM_BOND_UDEF_STEREO_COUNT>  (1) 
0

>  <PUBCHEM_ISOTOPIC_ATOM_COUNT>  (1) 
0

>  <PUBCHEM_COMPONENT_COUNT>  (1) 
1

>  <PUBCHEM_CACTVS_TAUTO_COUNT>  (1) 
4

>  <PUBCHEM_CONFORMER_ID>  (1) 
000054F000000001

>  <PUBCHEM_MMFF94_ENERGY>  (1) 
87.7667

>  <PUBCHEM_FEATURE_SELFOVERLAP>  (1) 
61.213

>  <PUBCHEM_SHAPE_FINGERPRINT>  (1) 
10670039 82 17313095351130054549
10674148 151 15574711409550102156
10930396 42 18199727251228751008
11135926 11 18202290186969152167
11211813 128 10879991380499047541
11408170 108 17774732956819688158
11724838 91 15123509220795347818
11796584 16 17458631176463423834
12373685 5 16199595650230632135
12857493 111 18341890801017054368
13782708 43 17825684506218692091
13811026 1 18410852174568240932
13914758 101 17822008696606167466
14068700 675 17632858633644251425
14251752 14 17749106703492151435
14279260 333 18335975360081670143
14294032 229 16951397720412288653
14849402 71 10881695610663871295
14856354 85 11458430154674079267
15131766 46 17681844239205130012
15183329 4 16153422861353872679
15188451 53 18413673500663117506
15475509 8 13912322382834830342
15728490 51 13183016337215569485
16992727 255 18041558023722498941
18335252 98 11455893576784800660
19377110 9 15051735266033612222
19841028 212 17749661884631366618
20105231 36 8070028891383103368
21223535 225 18202006483199723249
21365058 27 11602538723704724337
21458453 9 12535334736324158503
21792961 116 18040721355476487899
21814621 53 16805612532886936088
21859007 373 18114449137003624997
22393880 68 18337104687831746715
23559900 14 18270961383734496689
24180151 40 18195242222138271586
24771293 8 17418102031107293424
24893992 56 17821729473184103499
2838139 119 17676203598519761087
3009799 131 18413670231702440215
38570 142 14707205522416360889
4149490 64 16414342555085156143
4258327 124 12535053296350485082
4325135 7 14620794911762563591
4403749 210 11959731543477276545
474113 269 18335413514241578162
5223283 242 11674871153627993386
5381727 24 13686299068253938894
59682541 35 12175615196254927223
5969126 39 17275106107356382057
59755656 520 14345794963887181633
6126387 218 17822004329357442680
6394761 36 17022618671852793038
6703917 75 9078834138387901996
9689198 14 11097851882653758846

>  <PUBCHEM_SHAPE_MULTIPOLES>  (1) 
596.39
22.29
2.28
1.72
2.14
1.1
0.19
-6.49
-6.57
-0.12
0.26
-1.24
0.15
1.57

>  <PUBCHEM_SHAPE_SELFOVERLAP>  (1) 
1268.719

>  <PUBCHEM_SHAPE_VOLUME>  (1) 
334.1

>  <PUBCHEM_COORDINATE_TYPE>  (1) 
2
5
10

$$$$
