21741
     RDKit          3D

 24 26  0  0  1  0  0  0  0  0999 V2000
   -3.4831   -1.7003    1.4560 O   0  0  0  0  0  0  0  0  0  0  0  0
   -4.4153   -1.6681   -1.2802 O   0  0  0  0  0  0  0  0  0  0  0  0
   -4.2106    0.6022   -1.2615 O   0  0  0  0  0  0  0  0  0  0  0  0
    4.7967   -2.1674   -0.5952 O   0  0  0  0  0  0  0  0  0  0  0  0
    4.1973   -0.2607   -1.5135 O   0  0  0  0  0  0  0  0  0  0  0  0
   -1.2225   -1.9919    1.3029 N   0  0  0  0  0  0  0  0  0  0  0  0
   -1.8002    0.5195   -0.2687 N   0  0  0  0  0  0  0  0  0  0  0  0
    3.9443   -1.2763   -0.8226 N   0  0  0  0  0  0  0  0  0  0  0  0
    0.3938   -0.5624    0.0605 C   0  0  0  0  0  0  0  0  0  0  0  0
   -0.5339    0.6043   -0.0416 C   0  0  0  0  0  0  0  0  0  0  0  0
    0.0579   -1.7223    0.7769 C   0  0  0  0  0  0  0  0  0  0  0  0
   -2.3948   -0.7835   -0.4809 C   0  0  0  0  0  0  0  0  0  0  0  0
    0.0151    1.9757    0.1626 C   0  0  0  0  0  0  0  0  0  0  0  0
    1.6807   -0.4345   -0.4879 C   0  0  0  0  0  0  0  0  0  0  0  0
   -2.4290   -1.4985    0.8506 C   0  0  0  0  0  0  0  0  0  0  0  0
    1.0491   -2.6846    1.0223 C   0  0  0  0  0  0  0  0  0  0  0  0
    2.6411   -1.4231   -0.2772 C   0  0  0  0  0  0  0  0  0  0  0  0
    2.3309   -2.5391    0.4923 C   0  0  0  0  0  0  0  0  0  0  0  0
    1.1018    2.1604    1.0077 C   0  0  0  0  0  0  0  0  0  0  0  0
   -0.5670    3.0519   -0.4948 C   0  0  0  0  0  0  0  0  0  0  0  0
   -3.7525   -0.5095   -1.0437 C   0  0  0  0  0  0  0  0  0  0  0  0
    1.6153    3.4432    1.1983 C   0  0  0  0  0  0  0  0  0  0  0  0
   -0.0533    4.3347   -0.3043 C   0  0  0  0  0  0  0  0  0  0  0  0
    1.0379    4.5304    0.5422 C   0  0  0  0  0  0  0  0  0  0  0  0
  1 15  2  0
  2 21  1  0
  3 21  2  0
  4  8  1  0
  5  8  2  0
  6 11  1  0
  6 15  1  0
  7 10  2  0
  7 12  1  0
  8 17  1  0
  9 10  1  0
  9 11  2  0
  9 14  1  0
 10 13  1  0
 11 16  1  0
 12 15  1  0
 12 21  1  0
 13 19  2  0
 13 20  1  0
 14 17  2  0
 16 18  2  0
 17 18  1  0
 19 22  1  0
 20 23  2  0
 22 24  2  0
 23 24  1  0
M  CHG  2   4  -1   8   1
M  END
>  <PUBCHEM_COMPOUND_CID>  (1) 
21741

>  <PUBCHEM_CONFORMER_RMSD>  (1) 
0.6

>  <PUBCHEM_CONFORMER_DIVERSEORDER>  (1) 
1
6
5
3
4
7
2
8

>  <PUBCHEM_MMFF94_PARTIAL_CHARGES>  (1) 
34
1 -0.57
10 0.28
11 0.12
12 0.37
13 0.09
14 -0.15
15 0.57
16 -0.15
17 0.13
18 -0.15
19 -0.15
2 -0.65
20 -0.15
21 0.66
22 -0.15
23 -0.15
24 -0.15
26 0.15
27 0.37
28 0.15
29 0.15
3 -0.57
30 0.15
31 0.15
32 0.15
33 0.15
34 0.15
35 0.5
4 -0.52
5 -0.52
6 -0.55
7 -0.7
8 0.91
9 0.09

>  <PUBCHEM_EFFECTIVE_ROTOR_COUNT>  (1) 
3.4

>  <PUBCHEM_PHARMACOPHORE_FEATURES>  (1) 
13
1 1 acceptor
1 12 anion
1 2 acceptor
1 3 acceptor
1 4 acceptor
1 4 anion
1 5 acceptor
1 6 donor
1 7 acceptor
3 2 3 21 anion
6 13 19 20 22 23 24 rings
6 9 11 14 16 17 18 rings
7 6 7 9 10 11 12 15 rings

>  <PUBCHEM_HEAVY_ATOM_COUNT>  (1) 
24

>  <PUBCHEM_ATOM_DEF_STEREO_COUNT>  (1) 
0

>  <PUBCHEM_ATOM_UDEF_STEREO_COUNT>  (1) 
1

>  <PUBCHEM_BOND_DEF_STEREO_COUNT>  (1) 
0

>  <PUBCHEM_BOND_UDEF_STEREO_COUNT>  (1) 
0

>  <PUBCHEM_ISOTOPIC_ATOM_COUNT>  (1) 
0

>  <PUBCHEM_COMPONENT_COUNT>  (1) 
1

>  <PUBCHEM_CACTVS_TAUTO_COUNT>  (1) 
3

>  <PUBCHEM_CONFORMER_ID>  (1) 
000054ED00000001

>  <PUBCHEM_MMFF94_ENERGY>  (1) 
91.7851

>  <PUBCHEM_FEATURE_SELFOVERLAP>  (1) 
66.418

>  <PUBCHEM_SHAPE_FINGERPRINT>  (1) 
10165383 225 17252906103954900413
10764073 3 14359772930493606693
1100329 8 18267310819919802081
12035758 1 18121220050409502920
12293681 160 18189329074415787899
12553582 1 18338513019875497387
12788726 201 18048875187051321883
12954195 1 18050021991213392942
13140716 1 18338529538409629112
133893 2 18056493969476641553
13590594 115 18340775832481773609
13681431 1 18271806864625170257
14790565 3 17549261428438870577
14955137 171 18196680465447672155
15210252 30 18040433265696526404
15230672 131 17471581401106290372
15475509 8 17844258320012602973
17138139 8 17258734198545750469
1813 80 17916605187959948447
18785283 64 17904214967683613176
20642791 105 17322649895720073705
21029758 11 18410854347905848406
22182313 1 17826227686469057323
23419403 2 17826542103306352115
23557571 272 17911504420992049962
23558518 356 17543910109524816410
23559900 14 17895755244169176375
238918 7 17979323650501758656
23929065 36 17979331103092352786
25147074 1 17537723184098575082
2748010 2 17972037213040792731
283562 15 18264494983979208490
3298306 158 17977950408245279972
352729 6 17043156174859855469
4017518 198 17483105339521393188
532947 4 18196367233240071060
6438718 38 17842558440428266353
7164475 11 17979347556584815454
81228 2 18125164822740326873
9862522 239 17255660414747305385

>  <PUBCHEM_SHAPE_MULTIPOLES>  (1) 
449.62
6.42
5.33
1.27
1.85
7.13
-0.05
-5.51
3.13
-3.41
-1.26
0.25
-0.28
1.25

>  <PUBCHEM_SHAPE_SELFOVERLAP>  (1) 
994.298

>  <PUBCHEM_SHAPE_VOLUME>  (1) 
237.7

>  <PUBCHEM_COORDINATE_TYPE>  (1) 
2
5
10

$$$$
