21759
     RDKit          3D

 15 15  0  0  1  0  0  0  0  0999 V2000
   -2.0953   -1.4289    1.5328 Cl  0  0  0  0  0  0  0  0  0  0  0  0
   -4.2008   -0.4149   -0.2107 Cl  0  0  0  0  0  0  0  0  0  0  0  0
   -2.3259   -2.4103   -1.1967 Cl  0  0  0  0  0  0  0  0  0  0  0  0
   -1.1931    0.9982    0.2974 N   0  0  0  0  0  0  0  0  0  0  0  0
   -0.3404    2.0437   -0.2831 C   0  0  0  0  0  0  0  0  0  0  0  0
    1.0483    1.9869    0.3817 C   0  0  0  0  0  0  0  0  0  0  0  0
    1.7384    0.6769    0.2025 C   0  0  0  0  0  0  0  0  0  0  0  0
   -1.0228    3.3858   -0.0497 C   0  0  0  0  0  0  0  0  0  0  0  0
    1.5558   -0.3412    1.1384 C   0  0  0  0  0  0  0  0  0  0  0  0
    2.5657    0.4694   -0.9013 C   0  0  0  0  0  0  0  0  0  0  0  0
    2.2008   -1.5666    0.9708 C   0  0  0  0  0  0  0  0  0  0  0  0
    3.2107   -0.7560   -1.0688 C   0  0  0  0  0  0  0  0  0  0  0  0
    3.0281   -1.7740   -0.1328 C   0  0  0  0  0  0  0  0  0  0  0  0
   -1.6401    0.1382   -0.5446 C   0  0  0  0  0  0  0  0  0  0  0  0
   -2.5292   -1.0071   -0.1360 C   0  0  0  0  0  0  0  0  0  0  0  0
  1 15  1  0
  2 15  1  0
  3 15  1  0
  4  5  1  0
  4 14  2  0
  5  6  1  0
  5  8  1  0
  6  7  1  0
  7  9  2  0
  7 10  1  0
  9 11  1  0
 10 12  2  0
 11 13  2  0
 12 13  1  0
 14 15  1  0
M  END
>  <PUBCHEM_COMPOUND_CID>  (1) 
21759

>  <PUBCHEM_CONFORMER_RMSD>  (1) 
0.6

>  <PUBCHEM_CONFORMER_DIVERSEORDER>  (1) 
2
38
37
20
12
39
23
42
28
30
15
25
3
21
34
27
13
14
36
24
41
6
43
35
5
33
4
40
8
7
22
10
29
9
32
1
11
19
26
31
18
16
17

>  <PUBCHEM_MMFF94_PARTIAL_CHARGES>  (1) 
20
1 -0.29
10 -0.15
11 -0.15
12 -0.15
13 -0.15
14 0.33
15 0.93
2 -0.29
22 0.15
23 0.15
24 0.15
25 0.15
26 0.15
27 0.06
3 -0.29
4 -0.7
5 0.25
6 0.14
7 -0.14
9 -0.15

>  <PUBCHEM_EFFECTIVE_ROTOR_COUNT>  (1) 
4

>  <PUBCHEM_PHARMACOPHORE_FEATURES>  (1) 
2
1 4 acceptor
6 7 9 10 11 12 13 rings

>  <PUBCHEM_HEAVY_ATOM_COUNT>  (1) 
15

>  <PUBCHEM_ATOM_DEF_STEREO_COUNT>  (1) 
0

>  <PUBCHEM_ATOM_UDEF_STEREO_COUNT>  (1) 
1

>  <PUBCHEM_BOND_DEF_STEREO_COUNT>  (1) 
0

>  <PUBCHEM_BOND_UDEF_STEREO_COUNT>  (1) 
0

>  <PUBCHEM_ISOTOPIC_ATOM_COUNT>  (1) 
0

>  <PUBCHEM_COMPONENT_COUNT>  (1) 
1

>  <PUBCHEM_CACTVS_TAUTO_COUNT>  (1) 
1

>  <PUBCHEM_CONFORMER_ID>  (1) 
000054FF00000002

>  <PUBCHEM_MMFF94_ENERGY>  (1) 
31.6513

>  <PUBCHEM_FEATURE_SELFOVERLAP>  (1) 
10.148

>  <PUBCHEM_SHAPE_FINGERPRINT>  (1) 
104564 63 18266184932860132379
10618630 7 18409445877631431406
11321824 6 18123455086427786942
12202030 40 17202210603589595654
12553582 1 18411697703368174175
12596599 1 17845670259803248670
14178342 30 17767387342908745521
15279307 12 17756715130825245088
15906896 17 18046921367916350585
16752209 62 18192980531436824453
17990270 104 18195241358991924655
19766037 51 18261122888731838571
20291156 8 18412545448408246271
20361792 2 18341610451378517703
20442098 301 17987232420734334215
20645476 183 17758127994629737820
20645477 70 17762606688111316455
20711985 344 18337955571633030129
20871999 31 18264492780249399268
21634736 98 18334586728572650438
21731516 1 18413108376681044150
2255824 54 17833546078501782709
23402539 116 18263081175424121188
23419403 2 13640870575491951801
23557571 272 18200027336077143464
23559900 14 17767113208743923730
23598291 2 18056487372834136279
238 59 17471845278740982991
2748010 2 18338223968397355657
34934 24 18340764956896215909
7364860 26 17982168130338066213
7832392 63 18340484594727387427
81228 2 18335416825075755697
90525 40 17758403971847894776
94968 8 18336549412103804855

>  <PUBCHEM_SHAPE_MULTIPOLES>  (1) 
309.32
5.86
3.08
1.22
1.77
2.12
-0.16
-3.48
1.02
0.62
0.18
-0.01
-0.61
-0.21

>  <PUBCHEM_SHAPE_SELFOVERLAP>  (1) 
597.985

>  <PUBCHEM_SHAPE_VOLUME>  (1) 
187.4

>  <PUBCHEM_COORDINATE_TYPE>  (1) 
2
5
10

$$$$
