21755
     RDKit          3D

 11 11  0  0  0  0  0  0  0  0999 V2000
    2.8201    1.3180    0.0099 O   0  0  0  0  0  0  0  0  0  0  0  0
    3.1858   -0.9459   -0.0025 N   0  0  0  0  0  0  0  0  0  0  0  0
   -1.3444    0.7926   -0.0016 C   0  0  0  0  0  0  0  0  0  0  0  0
   -1.8397   -0.5113    0.0014 C   0  0  0  0  0  0  0  0  0  0  0  0
    0.0325    1.0156   -0.0035 C   0  0  0  0  0  0  0  0  0  0  0  0
    0.9141   -0.0654   -0.0028 C   0  0  0  0  0  0  0  0  0  0  0  0
   -0.9581   -1.5923    0.0022 C   0  0  0  0  0  0  0  0  0  0  0  0
    0.4188   -1.3694    0.0000 C   0  0  0  0  0  0  0  0  0  0  0  0
   -2.2690    1.9657   -0.0018 C   0  0  0  0  0  0  0  0  0  0  0  0
   -3.3098   -0.7747    0.0029 C   0  0  0  0  0  0  0  0  0  0  0  0
    2.3497    0.1669   -0.0041 C   0  0  0  0  0  0  0  0  0  0  0  0
  1 11  2  0
  2 11  1  0
  3  4  2  0
  3  5  1  0
  3  9  1  0
  4  7  1  0
  4 10  1  0
  5  6  2  0
  6  8  1  0
  6 11  1  0
  7  8  2  0
M  END
>  <PUBCHEM_COMPOUND_CID>  (1) 
21755

>  <PUBCHEM_CONFORMER_RMSD>  (1) 
0.4

>  <PUBCHEM_CONFORMER_DIVERSEORDER>  (1) 
1
2

>  <PUBCHEM_MMFF94_PARTIAL_CHARGES>  (1) 
16
1 -0.57
10 0.14
11 0.54
12 0.15
13 0.15
14 0.15
2 -0.8
21 0.37
22 0.37
3 -0.14
4 -0.14
5 -0.15
6 0.09
7 -0.15
8 -0.15
9 0.14

>  <PUBCHEM_EFFECTIVE_ROTOR_COUNT>  (1) 
1

>  <PUBCHEM_PHARMACOPHORE_FEATURES>  (1) 
3
1 1 acceptor
1 2 donor
6 3 4 5 6 7 8 rings

>  <PUBCHEM_HEAVY_ATOM_COUNT>  (1) 
11

>  <PUBCHEM_ATOM_DEF_STEREO_COUNT>  (1) 
0

>  <PUBCHEM_ATOM_UDEF_STEREO_COUNT>  (1) 
0

>  <PUBCHEM_BOND_DEF_STEREO_COUNT>  (1) 
0

>  <PUBCHEM_BOND_UDEF_STEREO_COUNT>  (1) 
0

>  <PUBCHEM_ISOTOPIC_ATOM_COUNT>  (1) 
0

>  <PUBCHEM_COMPONENT_COUNT>  (1) 
1

>  <PUBCHEM_CACTVS_TAUTO_COUNT>  (1) 
2

>  <PUBCHEM_CONFORMER_ID>  (1) 
000054FB00000001

>  <PUBCHEM_MMFF94_ENERGY>  (1) 
32.3818

>  <PUBCHEM_FEATURE_SELFOVERLAP>  (1) 
15.223

>  <PUBCHEM_SHAPE_FINGERPRINT>  (1) 
11206711 2 18410008832259764989
12032990 46 18336835298386682787
12897270 3 18410290311262293815
12932764 1 17561075942997694916
13380535 21 18124328116156361495
13380535 76 18194960747535697143
14325111 11 18410855443106743044
15775835 57 18188779327355390660
16945 1 18338517550823362351
193761 8 17978509733092964935
19973954 147 18410857672321441692
20510252 161 18343865519546524313
20653085 51 18338246967952299304
20871998 184 18128824212428809199
21040471 1 18338517430495654316
21501502 16 18338235946981918999
23402539 116 18342444972219709775
23402655 69 18196917904699736253
23463225 33 18335419015571892674
23552423 10 18261112971873904606
23559900 14 18199751346211909422
241688 4 18051968422735297475
2748010 2 18339083662041492799
369184 2 18342738537286537794
5084963 1 18273215291791398922
6333449 129 18339921524361966053

>  <PUBCHEM_SHAPE_MULTIPOLES>  (1) 
215.52
4.6
1.82
0.6
1.35
0.3
0
0.14
0
-0.63
0
-0.05
0
0

>  <PUBCHEM_SHAPE_SELFOVERLAP>  (1) 
449.643

>  <PUBCHEM_SHAPE_VOLUME>  (1) 
124

>  <PUBCHEM_COORDINATE_TYPE>  (1) 
2
5
10

$$$$
