21753
     RDKit          3D

 12 12  0  0  0  0  0  0  0  0999 V2000
   -4.1460    1.4392    0.0120 Cl  0  0  0  0  0  0  0  0  0  0  0  0
    0.3004    0.3631   -0.0023 O   0  0  0  0  0  0  0  0  0  0  0  0
   -2.9301   -1.1332   -0.0036 O   0  0  0  0  0  0  0  0  0  0  0  0
    3.7934    0.1944    0.0038 O   0  0  0  0  0  0  0  0  0  0  0  0
    2.4154    1.9033   -0.0030 O   0  0  0  0  0  0  0  0  0  0  0  0
    2.6125    0.6523    0.0005 N   0  0  0  0  0  0  0  0  0  0  0  0
   -0.6129   -0.6431   -0.0014 C   0  0  0  0  0  0  0  0  0  0  0  0
    0.0158   -1.8664    0.0021 C   0  0  0  0  0  0  0  0  0  0  0  0
    1.5257   -0.2242    0.0003 C   0  0  0  0  0  0  0  0  0  0  0  0
    1.4047   -1.5944    0.0030 C   0  0  0  0  0  0  0  0  0  0  0  0
   -1.9921   -0.2921   -0.0038 C   0  0  0  0  0  0  0  0  0  0  0  0
   -2.3867    1.2010   -0.0076 C   0  0  0  0  0  0  0  0  0  0  0  0
  1 12  1  0
  2  7  1  0
  2  9  1  0
  3 11  2  0
  4  6  1  0
  5  6  2  0
  6  9  1  0
  7  8  2  0
  7 11  1  0
  8 10  1  0
  9 10  2  0
 11 12  1  0
M  CHG  2   4  -1   6   1
M  END
>  <PUBCHEM_COMPOUND_CID>  (1) 
21753

>  <PUBCHEM_CONFORMER_RMSD>  (1) 
0.6

>  <PUBCHEM_CONFORMER_DIVERSEORDER>  (1) 
1
11
6
12
4
10
2
7
3
8
5
9

>  <PUBCHEM_MMFF94_PARTIAL_CHARGES>  (1) 
14
1 -0.29
10 -0.15
11 0.59
12 0.35
13 0.15
14 0.15
2 -0.28
3 -0.57
4 -0.52
5 -0.52
6 0.96
7 0.05
8 -0.15
9 0.22

>  <PUBCHEM_EFFECTIVE_ROTOR_COUNT>  (1) 
3

>  <PUBCHEM_PHARMACOPHORE_FEATURES>  (1) 
6
1 2 acceptor
1 3 acceptor
1 4 acceptor
1 4 anion
1 5 acceptor
5 2 7 8 9 10 rings

>  <PUBCHEM_HEAVY_ATOM_COUNT>  (1) 
12

>  <PUBCHEM_ATOM_DEF_STEREO_COUNT>  (1) 
0

>  <PUBCHEM_ATOM_UDEF_STEREO_COUNT>  (1) 
0

>  <PUBCHEM_BOND_DEF_STEREO_COUNT>  (1) 
0

>  <PUBCHEM_BOND_UDEF_STEREO_COUNT>  (1) 
0

>  <PUBCHEM_ISOTOPIC_ATOM_COUNT>  (1) 
0

>  <PUBCHEM_COMPONENT_COUNT>  (1) 
1

>  <PUBCHEM_CACTVS_TAUTO_COUNT>  (1) 
2

>  <PUBCHEM_CONFORMER_ID>  (1) 
000054F900000001

>  <PUBCHEM_MMFF94_ENERGY>  (1) 
17.9888

>  <PUBCHEM_FEATURE_SELFOVERLAP>  (1) 
30.54

>  <PUBCHEM_SHAPE_FINGERPRINT>  (1) 
10608611 8 18335983048141980677
11471102 20 18338795589994982941
12932764 1 17459186292206572991
13380535 21 18339370677752952839
13380535 76 18409728431014445339
14325111 11 18410575110448726438
14390081 3 18411699889564270637
14897335 6 18411696548364551015
15775835 57 18410858737388870117
16945 1 18338517572309040646
170605 34 18335421219016560267
18186145 218 18059869375737354656
19973954 147 18339364067576556345
20281407 28 9151184159484710414
20653085 51 18339652216816446042
21028194 46 18340491170053168874
21040471 1 18338516442969940678
21501502 16 18410004408480580803
21524375 3 18410008844843992567
23402539 116 18202555198813224420
23402655 69 18199175201749696301
2748010 2 18410300185487338735
305870 269 18260827059932382706
53812653 166 18413385423551728112
7364860 26 18196935470034626174

>  <PUBCHEM_SHAPE_MULTIPOLES>  (1) 
220.37
6.07
1.88
0.58
2.41
0.06
0
-3.2
0.02
-0.21
0
0.07
0.02
-0.01

>  <PUBCHEM_SHAPE_SELFOVERLAP>  (1) 
448.812

>  <PUBCHEM_SHAPE_VOLUME>  (1) 
130.3

>  <PUBCHEM_COORDINATE_TYPE>  (1) 
2
5
10

$$$$
