21751
     RDKit          3D

 14 14  0  0  1  0  0  0  0  0999 V2000
   -2.5445   -3.0884   -0.1434 I   0  0  0  0  0  0  0  0  0  0  0  0
   -2.7206    3.0466   -0.4137 I   0  0  0  0  0  0  0  0  0  0  0  0
    2.3543   -0.9860   -0.8792 O   0  0  0  0  0  0  0  0  0  0  0  0
    4.8281    0.2251   -0.8923 O   0  0  0  0  0  0  0  0  0  0  0  0
   -3.6306   -0.0618   -0.5555 O   0  0  0  0  0  0  0  0  0  0  0  0
    0.2329    0.1048    0.7071 N   0  0  0  0  0  0  0  0  0  0  0  0
    1.6310    0.1621    1.1224 C   0  0  0  0  0  0  0  0  0  0  0  0
    2.5683    0.1815   -0.0850 C   0  0  0  0  0  0  0  0  0  0  0  0
    4.0442    0.2385    0.2969 C   0  0  0  0  0  0  0  0  0  0  0  0
   -0.4065   -1.1111    0.5194 C   0  0  0  0  0  0  0  0  0  0  0  0
   -0.4744    1.2607    0.4145 C   0  0  0  0  0  0  0  0  0  0  0  0
   -1.6738   -1.2584    0.1041 C   0  0  0  0  0  0  0  0  0  0  0  0
   -1.7473    1.2982   -0.0086 C   0  0  0  0  0  0  0  0  0  0  0  0
   -2.4610   -0.0120   -0.1868 C   0  0  0  0  0  0  0  0  0  0  0  0
  1 12  1  0
  2 13  1  0
  3  8  1  0
  4  9  1  0
  5 14  2  0
  6  7  1  0
  6 10  1  0
  6 11  1  0
  7  8  1  0
  8  9  1  0
 10 12  2  0
 11 13  2  0
 12 14  1  0
 13 14  1  0
M  END
>  <PUBCHEM_COMPOUND_CID>  (1) 
21751

>  <PUBCHEM_CONFORMER_RMSD>  (1) 
0.6

>  <PUBCHEM_CONFORMER_DIVERSEORDER>  (1) 
1
10
7
6
8
2
5
3
9
4

>  <PUBCHEM_MMFF94_PARTIAL_CHARGES>  (1) 
18
1 -0.09
10 -0.05
11 -0.05
12 0.1
13 0.1
14 0.54
2 -0.09
20 0.15
21 0.15
22 0.4
23 0.4
3 -0.68
4 -0.68
5 -0.57
6 -0.57
7 0.37
8 0.28
9 0.28

>  <PUBCHEM_EFFECTIVE_ROTOR_COUNT>  (1) 
3

>  <PUBCHEM_PHARMACOPHORE_FEATURES>  (1) 
9
1 1 hydrophobe
1 2 hydrophobe
1 3 acceptor
1 3 donor
1 4 acceptor
1 4 donor
1 5 acceptor
1 6 cation
6 6 10 11 12 13 14 rings

>  <PUBCHEM_HEAVY_ATOM_COUNT>  (1) 
14

>  <PUBCHEM_ATOM_DEF_STEREO_COUNT>  (1) 
0

>  <PUBCHEM_ATOM_UDEF_STEREO_COUNT>  (1) 
1

>  <PUBCHEM_BOND_DEF_STEREO_COUNT>  (1) 
0

>  <PUBCHEM_BOND_UDEF_STEREO_COUNT>  (1) 
0

>  <PUBCHEM_ISOTOPIC_ATOM_COUNT>  (1) 
0

>  <PUBCHEM_COMPONENT_COUNT>  (1) 
1

>  <PUBCHEM_CACTVS_TAUTO_COUNT>  (1) 
1

>  <PUBCHEM_CONFORMER_ID>  (1) 
000054F700000001

>  <PUBCHEM_MMFF94_ENERGY>  (1) 
29.0712

>  <PUBCHEM_FEATURE_SELFOVERLAP>  (1) 
45.68

>  <PUBCHEM_SHAPE_FINGERPRINT>  (1) 
12138202 97 18341609270120021550
12173636 292 18193830458035712941
12500047 106 18339357462001478564
12532896 13 18195247720028465537
14123255 52 18047187445425132149
14911166 2 18338505422384240895
15502708 8 18410291436654566611
15669948 3 18335410275091925450
15775835 57 17968940764790046328
16945 1 18337656577848326393
17134986 127 17831576470792555749
1741750 31 18265891358929244945
18186145 218 18055922000086863920
18785283 64 17543635223612967649
200 152 16200431351691841226
20201158 50 18131915966137830350
20510252 161 18342737369483123833
20645476 183 18260827043010644863
20645477 56 18411140190748618432
20645477 70 16917353598126698710
20671657 1 17474384678402571749
20711985 344 18336253635176129699
20871998 22 17835236023668462387
20871999 31 18342451513513170549
21061003 4 17060064808073928706
21426921 1 18409450314628060236
21524375 3 17971185924689735265
22213442 358 18196934585228697418
23402539 116 18261104231810649118
23526113 38 17775004557433975778
23557571 272 18340775939132782110
23559900 14 18200871761281698882
23598291 2 17678163898254252666
2748010 2 17979333581040263427
3071541 12 17331116092815861905
3071541 250 17830456442385243539
458136 41 17836650721714069345
53812653 8 18262791879042965185
559249 180 18191581948636429274
573450 72 18260814987469988282
6049 1 17988075711782420952
7364860 26 17330271083848987225
81228 2 18338788022647664553
88987 49 18265593451602598520
9709674 26 18272374139974844110

>  <PUBCHEM_SHAPE_MULTIPOLES>  (1) 
289.4
6.95
3.25
0.91
9.28
0.16
-0.01
-0.61
1.85
-5.3
0.43
0.36
0
0.21

>  <PUBCHEM_SHAPE_SELFOVERLAP>  (1) 
544.616

>  <PUBCHEM_SHAPE_VOLUME>  (1) 
184.8

>  <PUBCHEM_COORDINATE_TYPE>  (1) 
2
5
10

$$$$
