21767
     RDKit          3D

 31 36  0  0  1  0  0  0  0  0999 V2000
    1.4520   -0.9151   -1.8720 O   0  0  0  0  0  0  0  0  0  0  0  0
    5.9382    1.7000   -0.7152 O   0  0  0  0  0  0  0  0  0  0  0  0
    3.2154    1.6077   -1.5827 O   0  0  0  0  0  0  0  0  0  0  0  0
    6.8627    0.1671    0.8974 O   0  0  0  0  0  0  0  0  0  0  0  0
   -6.0342    1.6986    0.8092 O   0  0  0  0  0  0  0  0  0  0  0  0
   -6.9980   -0.0255   -0.5715 O   0  0  0  0  0  0  0  0  0  0  0  0
   -3.2422    1.8243    1.4437 O   0  0  0  0  0  0  0  0  0  0  0  0
    0.6221   -1.2000    0.3824 N   0  0  0  0  0  0  0  0  0  0  0  0
   -0.8125   -1.2410    0.1157 N   0  0  0  0  0  0  0  0  0  0  0  0
    1.4442   -0.3980   -0.5386 C   0  0  0  0  0  0  0  0  0  0  0  0
    1.2620   -2.4729    0.7174 C   0  0  0  0  0  0  0  0  0  0  0  0
    2.5676   -2.2288    1.4765 C   0  0  0  0  0  0  0  0  0  0  0  0
    2.8902   -0.2733   -0.1037 C   0  0  0  0  0  0  0  0  0  0  0  0
    3.4406   -1.1822    0.8342 C   0  0  0  0  0  0  0  0  0  0  0  0
   -1.3907   -2.5105   -0.4046 C   0  0  0  0  0  0  0  0  0  0  0  0
   -2.5966   -2.2191   -1.2960 C   0  0  0  0  0  0  0  0  0  0  0  0
   -3.5213   -1.2024   -0.6793 C   0  0  0  0  0  0  0  0  0  0  0  0
   -1.5279   -0.2027    0.3878 C   0  0  0  0  0  0  0  0  0  0  0  0
   -2.9711   -0.1822    0.1290 C   0  0  0  0  0  0  0  0  0  0  0  0
    3.7006    0.7269   -0.6685 C   0  0  0  0  0  0  0  0  0  0  0  0
    4.7862   -1.0737    1.2194 C   0  0  0  0  0  0  0  0  0  0  0  0
    5.0203    0.7977   -0.2731 C   0  0  0  0  0  0  0  0  0  0  0  0
    5.5479   -0.0776    0.6450 C   0  0  0  0  0  0  0  0  0  0  0  0
   -3.7558    0.8383    0.6675 C   0  0  0  0  0  0  0  0  0  0  0  0
   -4.8918   -1.1965   -0.9595 C   0  0  0  0  0  0  0  0  0  0  0  0
   -5.1042    0.8019    0.3793 C   0  0  0  0  0  0  0  0  0  0  0  0
   -5.6556   -0.1850   -0.4091 C   0  0  0  0  0  0  0  0  0  0  0  0
    7.1038    1.2944    0.0308 C   0  0  0  0  0  0  0  0  0  0  0  0
   -7.2304    1.1679    0.2037 C   0  0  0  0  0  0  0  0  0  0  0  0
    3.2712    2.9938   -1.2451 C   0  0  0  0  0  0  0  0  0  0  0  0
   -3.3926    3.1677    0.9799 C   0  0  0  0  0  0  0  0  0  0  0  0
  1 10  1  0
  2 22  1  0
  2 28  1  0
  3 20  1  0
  3 30  1  0
  4 23  1  0
  4 28  1  0
  5 26  1  0
  5 29  1  0
  6 27  1  0
  6 29  1  0
  7 24  1  0
  7 31  1  0
  8  9  1  0
  8 10  1  0
  8 11  1  0
  9 15  1  0
  9 18  2  0
 10 13  1  0
 11 12  1  0
 12 14  1  0
 13 14  2  0
 13 20  1  0
 14 21  1  0
 15 16  1  0
 16 17  1  0
 17 19  2  0
 17 25  1  0
 18 19  1  0
 19 24  1  0
 20 22  2  0
 21 23  2  0
 22 23  1  0
 24 26  2  0
 25 27  2  0
 26 27  1  0
M  CHG  1   9   1
M  END
>  <PUBCHEM_COMPOUND_CID>  (1) 
21767

>  <PUBCHEM_CONFORMER_RMSD>  (1) 
0.8

>  <PUBCHEM_CONFORMER_DIVERSEORDER>  (1) 
2
28
18
7
5
25
3
29
31
11
30
16
9
10
27
21
19
12
23
8
32
24
20
26
1
4
17
22
6
14
13
15

>  <PUBCHEM_MMFF94_PARTIAL_CHARGES>  (1) 
35
1 -0.68
10 0.69
11 0.27
12 0.14
13 -0.14
14 -0.14
15 0.35
16 0.14
17 -0.14
18 0.25
19 0.09
2 -0.36
20 0.08
21 -0.15
22 0.08
23 0.08
24 0.08
25 -0.15
26 0.08
27 0.08
28 0.56
29 0.56
3 -0.36
30 0.28
31 0.28
4 -0.36
41 0.06
42 0.15
43 0.15
44 0.4
5 -0.36
6 -0.36
7 -0.36
8 -0.37
9 0.08

>  <PUBCHEM_EFFECTIVE_ROTOR_COUNT>  (1) 
5.4

>  <PUBCHEM_PHARMACOPHORE_FEATURES>  (1) 
14
1 1 acceptor
1 1 donor
1 2 acceptor
1 3 acceptor
1 4 acceptor
1 5 acceptor
1 6 acceptor
1 7 acceptor
5 2 4 22 23 28 rings
5 5 6 26 27 29 rings
6 13 14 20 21 22 23 rings
6 17 19 24 25 26 27 rings
6 8 10 11 12 13 14 rings
6 9 15 16 17 18 19 rings

>  <PUBCHEM_HEAVY_ATOM_COUNT>  (1) 
31

>  <PUBCHEM_ATOM_DEF_STEREO_COUNT>  (1) 
0

>  <PUBCHEM_ATOM_UDEF_STEREO_COUNT>  (1) 
1

>  <PUBCHEM_BOND_DEF_STEREO_COUNT>  (1) 
0

>  <PUBCHEM_BOND_UDEF_STEREO_COUNT>  (1) 
0

>  <PUBCHEM_ISOTOPIC_ATOM_COUNT>  (1) 
0

>  <PUBCHEM_COMPONENT_COUNT>  (1) 
1

>  <PUBCHEM_CACTVS_TAUTO_COUNT>  (1) 
1

>  <PUBCHEM_CONFORMER_ID>  (1) 
0000550700000002

>  <PUBCHEM_MMFF94_ENERGY>  (1) 
106.3506

>  <PUBCHEM_FEATURE_SELFOVERLAP>  (1) 
71.419

>  <PUBCHEM_SHAPE_FINGERPRINT>  (1) 
10 15 15430037677877754350
10162869 55 18114454656790597487
10411042 1 17682668533882423778
10595046 47 18412540990348387043
11991303 11 15625651838635745340
12107183 9 18265890268725294986
12236239 1 18410006641478699731
12596602 18 18113618988982349243
12788726 201 18131636651956944593
13911987 19 15195007223386063482
14394314 77 18412267216517752249
14739800 52 18200014227710369146
14747281 78 14834744374750535729
14849402 71 17968943118870137428
15001296 14 18335984271675202396
15064981 194 18044951300872443726
15183329 4 18202566185060057704
15348495 7 15719402775282299793
15475509 8 18336277765156895718
15575132 122 18340484453352448585
1577012 14 18410852165909728135
15961568 22 18343586213634104581
16993438 75 17460297863760327589
19319366 153 18335697209326056259
20511986 3 18337941346601008493
21033648 144 17822845523934358198
21033648 29 16153972638568627879
21033650 10 17915486967908239832
21298829 104 18408604764348412212
22122407 14 18334305296007990809
221357 26 13183021808798488162
23559900 14 17274814788118995329
24771293 8 18192419978798204596
25223398 141 16915933161836739750
3178227 256 16877938344265342722
3472631 163 18341897410949402710
34797466 226 16630527370620942145
3633792 109 18042105631984121583
397830 11 15719971239994873761
4073 2 17676492786646435922
4098825 35 12895082795023187979
44249763 50 16987979709313343706
44802255 64 17201650072288370564
474 4 18186802504217287514
5104073 3 17676765491262783922
5758199 1 18260545650049847618
57724786 102 17241051045272865956
6371009 1 18410013238596205517
6700243 42 17126234620461430903
86090 222 15286488609098580090

>  <PUBCHEM_SHAPE_MULTIPOLES>  (1) 
586.92
18.59
2.83
1.3
2.11
0.79
0.13
9.02
-1.23
0.18
-0.07
-0.41
0.01
-3.19

>  <PUBCHEM_SHAPE_SELFOVERLAP>  (1) 
1314.7

>  <PUBCHEM_SHAPE_VOLUME>  (1) 
309.7

>  <PUBCHEM_COORDINATE_TYPE>  (1) 
2
5
10

$$$$
