21779
     RDKit          3D

 19 21  0  0  0  0  0  0  0  0999 V2000
   -0.4316   -2.0162   -0.0004 N   0  0  0  0  0  0  0  0  0  0  0  0
    1.9785   -1.9511    0.0002 N   0  0  0  0  0  0  0  0  0  0  0  0
    3.1255    0.0673    0.0004 N   0  0  0  0  0  0  0  0  0  0  0  0
    1.9483    2.1712   -0.0002 N   0  0  0  0  0  0  0  0  0  0  0  0
   -0.3774    2.2426    0.0000 N   0  0  0  0  0  0  0  0  0  0  0  0
    0.8221   -3.9943   -0.0007 N   0  0  0  0  0  0  0  0  0  0  0  0
    4.2894    2.1064    0.0004 N   0  0  0  0  0  0  0  0  0  0  0  0
    0.7606    0.0763   -0.0001 C   0  0  0  0  0  0  0  0  0  0  0  0
   -0.4138   -0.6733   -0.0002 C   0  0  0  0  0  0  0  0  0  0  0  0
   -1.7587   -0.1354   -0.0002 C   0  0  0  0  0  0  0  0  0  0  0  0
    1.9724   -0.6124    0.0003 C   0  0  0  0  0  0  0  0  0  0  0  0
    0.8038    1.4689   -0.0001 C   0  0  0  0  0  0  0  0  0  0  0  0
   -2.4049    0.1231   -1.2080 C   0  0  0  0  0  0  0  0  0  0  0  0
   -2.4052    0.1209    1.2079 C   0  0  0  0  0  0  0  0  0  0  0  0
    0.7846   -2.5827   -0.0004 C   0  0  0  0  0  0  0  0  0  0  0  0
    3.0574    1.4164    0.0001 C   0  0  0  0  0  0  0  0  0  0  0  0
   -3.7009    0.6392   -1.2077 C   0  0  0  0  0  0  0  0  0  0  0  0
   -3.7010    0.6370    1.2081 C   0  0  0  0  0  0  0  0  0  0  0  0
   -4.3490    0.8961    0.0004 C   0  0  0  0  0  0  0  0  0  0  0  0
  1  9  2  0
  1 15  1  0
  2 11  1  0
  2 15  2  0
  3 11  1  0
  3 16  2  0
  4 12  2  0
  4 16  1  0
  5 12  1  0
  6 15  1  0
  7 16  1  0
  8  9  1  0
  8 11  2  0
  8 12  1  0
  9 10  1  0
 10 13  2  0
 10 14  1  0
 13 17  1  0
 14 18  2  0
 17 19  2  0
 18 19  1  0
M  END
>  <PUBCHEM_COMPOUND_CID>  (1) 
21779

>  <PUBCHEM_CONFORMER_RMSD>  (1) 
0.6

>  <PUBCHEM_CONFORMER_DIVERSEORDER>  (1) 
1

>  <PUBCHEM_MMFF94_PARTIAL_CHARGES>  (1) 
28
1 -0.62
11 0.62
12 0.41
13 -0.15
14 -0.15
15 0.72
16 0.72
17 -0.15
18 -0.15
19 -0.15
2 -0.62
20 0.15
21 0.15
22 0.15
23 0.15
24 0.15
25 0.4
26 0.4
27 0.4
28 0.4
29 0.4
3 -0.62
30 0.4
4 -0.62
5 -0.9
6 -0.9
7 -0.9
9 0.31

>  <PUBCHEM_EFFECTIVE_ROTOR_COUNT>  (1) 
1

>  <PUBCHEM_PHARMACOPHORE_FEATURES>  (1) 
8
1 5 donor
1 6 donor
1 7 donor
4 1 2 6 15 cation
4 3 4 7 16 cation
6 1 2 8 9 11 15 rings
6 10 13 14 17 18 19 rings
6 3 4 8 11 12 16 rings

>  <PUBCHEM_HEAVY_ATOM_COUNT>  (1) 
19

>  <PUBCHEM_ATOM_DEF_STEREO_COUNT>  (1) 
0

>  <PUBCHEM_ATOM_UDEF_STEREO_COUNT>  (1) 
0

>  <PUBCHEM_BOND_DEF_STEREO_COUNT>  (1) 
0

>  <PUBCHEM_BOND_UDEF_STEREO_COUNT>  (1) 
0

>  <PUBCHEM_ISOTOPIC_ATOM_COUNT>  (1) 
0

>  <PUBCHEM_COMPONENT_COUNT>  (1) 
1

>  <PUBCHEM_CACTVS_TAUTO_COUNT>  (1) 
40

>  <PUBCHEM_CONFORMER_ID>  (1) 
0000551300000001

>  <PUBCHEM_MMFF94_ENERGY>  (1) 
85.0814

>  <PUBCHEM_FEATURE_SELFOVERLAP>  (1) 
40.634

>  <PUBCHEM_SHAPE_FINGERPRINT>  (1) 
10411042 1 17618222806480852983
10493431 412 18267872855092213888
10967382 1 18410855425789528932
10980938 120 18410291385104331493
11471102 20 18410008806242067013
11543360 7 15625943204742769920
11640471 11 17559974138068594521
11725454 13 16952777693625369951
12236239 1 17775566421235262377
12553582 1 17835807395831679159
12730499 353 18335140878312096783
13009979 54 17487615209157236515
13140716 1 18409448098483516826
13583140 156 16516788416314180084
14790565 3 18338251422214135212
15219456 202 18114184107962546817
15309172 13 18409732901864338945
15442244 35 17836931096862374737
16945 1 18338517417626817030
1813 80 17483124743054788254
18186145 218 18341619221580475324
18219364 16 18335990856165574249
19049666 15 17751920216604114901
19591789 44 18337678640768836714
19784866 34 18412824711271129496
204376 136 18337392741880462888
20510252 161 17693937796803231202
20645477 70 18263071146369627375
20739085 24 18262254217657178560
21499 59 18411697716258064959
21524375 3 18189614019615420851
21639500 275 18411127022694873829
2255824 54 18270117894479896503
2334 1 18266458900323946726
23419403 2 17172052086287953502
23493267 7 17458346333910573288
23598291 2 17988353781066142247
238 59 17756942905725712389
25 1 18409727369803939501
2748010 2 18337686320222973078
3091708 16 9189313015117907018
350125 39 17977110389587265217
474 4 18412825780918193049
633830 44 18202015312533690677
7364860 26 18339643317618068702
77492 1 17703785873930640783
81228 2 17399790995880110891
8272917 22 18340491050136969533
84936 182 18130780157525444489

>  <PUBCHEM_SHAPE_MULTIPOLES>  (1) 
356.14
6.58
3.02
0.92
2.49
2.64
0
-3.94
0
-2.98
0
1.04
-0.1
0

>  <PUBCHEM_SHAPE_SELFOVERLAP>  (1) 
798.718

>  <PUBCHEM_SHAPE_VOLUME>  (1) 
176.1

>  <PUBCHEM_COORDINATE_TYPE>  (1) 
2
5
10

$$$$
