21773
     RDKit          3D

 17 17  0  0  1  0  0  0  0  0999 V2000
    0.4865    2.2550    0.4931 O   0  0  0  0  0  0  0  0  0  0  0  0
   -1.6891   -0.4735   -0.6202 O   0  0  0  0  0  0  0  0  0  0  0  0
   -3.8811   -0.2483    0.0467 O   0  0  0  0  0  0  0  0  0  0  0  0
   -3.0374   -2.2712   -0.6483 N   0  0  0  0  0  0  0  0  0  0  0  0
    0.1574    1.0910   -0.2933 C   0  0  0  0  0  0  0  0  0  0  0  0
   -1.2524    0.6231    0.1914 C   0  0  0  0  0  0  0  0  0  0  0  0
    0.0926    1.5879   -1.7665 C   0  0  0  0  0  0  0  0  0  0  0  0
    1.2327    0.0256   -0.0528 C   0  0  0  0  0  0  0  0  0  0  0  0
   -1.3698    0.2358    1.6738 C   0  0  0  0  0  0  0  0  0  0  0  0
    1.3804    2.2412   -2.2668 C   0  0  0  0  0  0  0  0  0  0  0  0
   -1.0610    1.4100    2.5970 C   0  0  0  0  0  0  0  0  0  0  0  0
    1.1565   -1.1539   -0.7549 C   0  0  0  0  0  0  0  0  0  0  0  0
    2.2300    0.2928    0.8550 C   0  0  0  0  0  0  0  0  0  0  0  0
    2.1350   -2.1236   -0.5363 C   0  0  0  0  0  0  0  0  0  0  0  0
    3.2086   -0.6769    1.0735 C   0  0  0  0  0  0  0  0  0  0  0  0
    3.1610   -1.8851    0.3778 C   0  0  0  0  0  0  0  0  0  0  0  0
   -2.9500   -0.9297   -0.3692 C   0  0  0  0  0  0  0  0  0  0  0  0
  1  5  1  0
  2  6  1  0
  2 17  1  0
  3 17  2  0
  4 17  1  0
  5  6  1  0
  5  7  1  0
  5  8  1  0
  6  9  1  0
  7 10  1  0
  8 12  2  0
  8 13  1  0
  9 11  1  0
 12 14  1  0
 13 15  2  0
 14 16  2  0
 15 16  1  0
M  END
>  <PUBCHEM_COMPOUND_CID>  (1) 
21773

>  <PUBCHEM_CONFORMER_RMSD>  (1) 
0.8

>  <PUBCHEM_CONFORMER_DIVERSEORDER>  (1) 
2
16
9
30
7
29
24
31
19
11
27
32
12
8
18
13
5
4
22
15
26
21
23
17
28
14
10
25
1
3
20
6

>  <PUBCHEM_MMFF94_PARTIAL_CHARGES>  (1) 
21
1 -0.68
12 -0.15
13 -0.15
14 -0.15
15 -0.15
16 -0.15
17 0.78
2 -0.43
26 0.4
3 -0.57
30 0.15
31 0.15
32 0.15
33 0.15
34 0.15
35 0.37
36 0.37
4 -0.8
5 0.42
6 0.28
8 -0.14

>  <PUBCHEM_EFFECTIVE_ROTOR_COUNT>  (1) 
6

>  <PUBCHEM_PHARMACOPHORE_FEATURES>  (1) 
7
1 1 acceptor
1 1 donor
1 10 hydrophobe
1 11 hydrophobe
1 3 acceptor
1 4 donor
6 8 12 13 14 15 16 rings

>  <PUBCHEM_HEAVY_ATOM_COUNT>  (1) 
17

>  <PUBCHEM_ATOM_DEF_STEREO_COUNT>  (1) 
0

>  <PUBCHEM_ATOM_UDEF_STEREO_COUNT>  (1) 
2

>  <PUBCHEM_BOND_DEF_STEREO_COUNT>  (1) 
0

>  <PUBCHEM_BOND_UDEF_STEREO_COUNT>  (1) 
0

>  <PUBCHEM_ISOTOPIC_ATOM_COUNT>  (1) 
0

>  <PUBCHEM_COMPONENT_COUNT>  (1) 
1

>  <PUBCHEM_CACTVS_TAUTO_COUNT>  (1) 
2

>  <PUBCHEM_CONFORMER_ID>  (1) 
0000550D00000002

>  <PUBCHEM_MMFF94_ENERGY>  (1) 
53.9907

>  <PUBCHEM_FEATURE_SELFOVERLAP>  (1) 
35.52

>  <PUBCHEM_SHAPE_FINGERPRINT>  (1) 
11578080 2 18269817822579942633
12138202 97 17393586001198920590
12382932 28 17704069629313926771
12423570 1 11618688526507730396
12592029 89 17534632804372204972
13681431 1 17822306694485700548
13898156 1 17983895299711785953
14181834 199 18190178069249125772
14350558 41 18341049704849015495
14787075 74 17126748113876740384
14817 1 16453969885256006680
15375462 478 17346589755654288288
15501101 241 18341037593014613642
15906896 17 16593660492444245356
16945 1 18198318823271074804
18981168 100 13182199322503113107
20344682 10 17345737698804797738
20361792 2 17968106269697383862
20645477 70 17896593089199159871
20711985 344 17388817474977502748
21524375 3 15115039957472842513
22112679 90 18056791808105007657
232386 152 17917149506709177815
23402539 116 17096076966748199162
23419403 2 17696706160997660337
23526113 38 16805603693775175568
4175511 376 17314240036522262020
549884 4 11458427924948060526
5845 1 18264780848143366240
68419 9 17984458262529062081
81228 2 17388257827896370684

>  <PUBCHEM_SHAPE_MULTIPOLES>  (1) 
327.26
4.85
2.46
1.95
1.34
0.41
-0.74
-3.67
-0.29
-0.53
1.24
0.32
1.19
-0.97

>  <PUBCHEM_SHAPE_SELFOVERLAP>  (1) 
668.905

>  <PUBCHEM_SHAPE_VOLUME>  (1) 
188.8

>  <PUBCHEM_COORDINATE_TYPE>  (1) 
2
5
10

$$$$
