21770
     RDKit          3D

 24 27  0  0  0  0  0  0  0  0999 V2000
    1.2245   -0.2341   -1.1706 N   0  0  0  0  0  0  0  0  0  0  0  0
   -4.1148    1.3807    0.2772 N   0  0  0  0  0  0  0  0  0  0  0  0
   -0.1401   -1.9238   -0.7128 C   0  0  0  0  0  0  0  0  0  0  0  0
    1.1124   -2.1820   -0.0889 C   0  0  0  0  0  0  0  0  0  0  0  0
    1.9505   -1.1066   -0.3916 C   0  0  0  0  0  0  0  0  0  0  0  0
   -1.3377   -2.7872   -0.6692 C   0  0  0  0  0  0  0  0  0  0  0  0
   -0.0401   -0.7192   -1.3701 C   0  0  0  0  0  0  0  0  0  0  0  0
    1.7116    1.0187   -1.7072 C   0  0  0  0  0  0  0  0  0  0  0  0
   -2.2963   -2.4939    0.5067 C   0  0  0  0  0  0  0  0  0  0  0  0
    1.6153   -3.2305    0.7069 C   0  0  0  0  0  0  0  0  0  0  0  0
    3.2716   -1.0272    0.0633 C   0  0  0  0  0  0  0  0  0  0  0  0
    1.4598    2.1581   -0.7570 C   0  0  0  0  0  0  0  0  0  0  0  0
   -2.9367   -1.1297    0.4260 C   0  0  0  0  0  0  0  0  0  0  0  0
    2.9347   -3.1645    1.1692 C   0  0  0  0  0  0  0  0  0  0  0  0
    3.7483   -2.0789    0.8510 C   0  0  0  0  0  0  0  0  0  0  0  0
    2.4188    2.4807    0.1936 C   0  0  0  0  0  0  0  0  0  0  0  0
    0.2721    2.8717   -0.8437 C   0  0  0  0  0  0  0  0  0  0  0  0
   -2.3116   -0.0492    1.0178 C   0  0  0  0  0  0  0  0  0  0  0  0
   -4.1385   -0.9812   -0.2387 C   0  0  0  0  0  0  0  0  0  0  0  0
    2.1857    3.5368    1.0744 C   0  0  0  0  0  0  0  0  0  0  0  0
    0.0391    3.9280    0.0371 C   0  0  0  0  0  0  0  0  0  0  0  0
    0.9960    4.2606    0.9961 C   0  0  0  0  0  0  0  0  0  0  0  0
   -2.9398    1.1815    0.9154 C   0  0  0  0  0  0  0  0  0  0  0  0
   -4.6850    0.2912   -0.2848 C   0  0  0  0  0  0  0  0  0  0  0  0
  1  5  1  0
  1  7  1  0
  1  8  1  0
  2 23  2  0
  2 24  1  0
  3  4  1  0
  3  6  1  0
  3  7  2  0
  4  5  2  0
  4 10  1  0
  5 11  1  0
  6  9  1  0
  8 12  1  0
  9 13  1  0
 10 14  2  0
 11 15  2  0
 12 16  2  0
 12 17  1  0
 13 18  2  0
 13 19  1  0
 14 15  1  0
 16 20  1  0
 17 21  2  0
 18 23  1  0
 19 24  2  0
 20 22  2  0
 21 22  1  0
M  END
>  <PUBCHEM_COMPOUND_CID>  (1) 
21770

>  <PUBCHEM_CONFORMER_RMSD>  (1) 
0.8

>  <PUBCHEM_CONFORMER_DIVERSEORDER>  (1) 
1
51
35
10
28
32
61
48
66
49
3
68
46
27
60
67
19
36
4
54
25
44
63
42
39
71
11
20
38
62
22
56
53
21
9
30
57
41
65
70
50
55
26
40
29
7
18
17
6
43
34
23
33
45
14
24
15
13
69
8
5
31
12
58
16
59
37
52
64
2
47

>  <PUBCHEM_MMFF94_PARTIAL_CHARGES>  (1) 
37
1 0.05
10 -0.15
11 -0.15
12 -0.14
13 -0.14
14 -0.15
15 -0.15
16 -0.15
17 -0.15
18 -0.15
19 -0.15
2 -0.62
20 -0.15
21 -0.15
22 -0.15
23 0.16
24 0.16
27 0.15
3 -0.18
32 0.15
33 0.15
34 0.15
35 0.15
36 0.15
37 0.15
38 0.15
39 0.15
40 0.15
41 0.15
42 0.15
43 0.15
44 0.15
5 -0.15
6 0.18
7 -0.3
8 0.4
9 0.14

>  <PUBCHEM_EFFECTIVE_ROTOR_COUNT>  (1) 
5

>  <PUBCHEM_PHARMACOPHORE_FEATURES>  (1) 
6
1 1 cation
1 2 acceptor
5 1 3 4 5 7 rings
6 12 16 17 20 21 22 rings
6 2 13 18 19 23 24 rings
6 4 5 10 11 14 15 rings

>  <PUBCHEM_HEAVY_ATOM_COUNT>  (1) 
24

>  <PUBCHEM_ATOM_DEF_STEREO_COUNT>  (1) 
0

>  <PUBCHEM_ATOM_UDEF_STEREO_COUNT>  (1) 
0

>  <PUBCHEM_BOND_DEF_STEREO_COUNT>  (1) 
0

>  <PUBCHEM_BOND_UDEF_STEREO_COUNT>  (1) 
0

>  <PUBCHEM_ISOTOPIC_ATOM_COUNT>  (1) 
0

>  <PUBCHEM_COMPONENT_COUNT>  (1) 
1

>  <PUBCHEM_CACTVS_TAUTO_COUNT>  (1) 
1

>  <PUBCHEM_CONFORMER_ID>  (1) 
0000550A00000001

>  <PUBCHEM_MMFF94_ENERGY>  (1) 
54.3222

>  <PUBCHEM_FEATURE_SELFOVERLAP>  (1) 
30.54

>  <PUBCHEM_SHAPE_FINGERPRINT>  (1) 
10006869 2 18195512711184555194
1100329 8 18338517542892882220
11370993 70 17981041135372922605
11646440 116 17906176153437258857
12156800 1 17103366638388104785
12553582 1 18124054337798215429
12633257 1 18267315244199723313
12788726 201 18047479924350576786
13004483 165 17974277729653761739
13122387 1 18051141297986466829
13134695 92 18336541616827814079
13140716 1 18408881858737841398
13294875 104 18338243785561004684
13583140 156 18261400009055238715
14081887 123 17691965964643927040
14466204 15 18195526128636365072
14713325 29 15882137351198791508
14790565 3 18189906503385018060
14955137 171 18338529590028929302
15420108 30 18059000791705808278
15475509 84 18047179766271007386
17980427 23 18130776829263211383
192875 21 18341889659087366679
20764821 26 18122904227071626217
2132832 1 17984111989539350511
22113638 7 18341327804192330815
22749437 52 17910681182977489341
23419403 2 17970322872407150772
23559900 14 18410567423006315307
345986 75 17462550720161912394
56638632 10 18126257943858128312
5939293 188 18342184331986777629
6004065 56 18124573324909760309
653340 110 17331679046616046377
7097593 13 18408040727557482730
81228 2 17324382713207792143
84936 182 18193843862427800086
9981440 41 17832415780405913763

>  <PUBCHEM_SHAPE_MULTIPOLES>  (1) 
483.95
6.59
5.77
1.27
6.9
3.47
0.17
-0.9
-1.33
-4.73
-1.72
-0.46
0.12
-0.63

>  <PUBCHEM_SHAPE_SELFOVERLAP>  (1) 
1068.405

>  <PUBCHEM_SHAPE_VOLUME>  (1) 
260.1

>  <PUBCHEM_COORDINATE_TYPE>  (1) 
2
5
10

$$$$
