21797
     RDKit          3D

 26 28  0  0  1  0  0  0  0  0999 V2000
   -0.4953    0.5525    1.3188 O   0  0  0  0  0  0  0  0  0  0  0  0
   -1.6223    2.5690    1.3064 O   0  0  0  0  0  0  0  0  0  0  0  0
    2.6369   -1.9360   -0.0534 N   0  0  0  0  0  0  0  0  0  0  0  0
    0.5659   -0.6046   -0.5332 C   0  0  0  0  0  0  0  0  0  0  0  0
   -0.2508    0.6776   -0.0904 C   0  0  0  0  0  0  0  0  0  0  0  0
    1.8926   -0.7270    0.2664 C   0  0  0  0  0  0  0  0  0  0  0  0
    1.9217   -3.1512    0.3354 C   0  0  0  0  0  0  0  0  0  0  0  0
    3.9167   -2.0067    0.6511 C   0  0  0  0  0  0  0  0  0  0  0  0
    3.0055   -4.2174    0.2764 C   0  0  0  0  0  0  0  0  0  0  0  0
    4.3163   -3.4658    0.4873 C   0  0  0  0  0  0  0  0  0  0  0  0
   -1.6370    0.7571   -0.8069 C   0  0  0  0  0  0  0  0  0  0  0  0
    0.8617   -0.6330   -2.0460 C   0  0  0  0  0  0  0  0  0  0  0  0
    0.5584    1.9561   -0.3666 C   0  0  0  0  0  0  0  0  0  0  0  0
   -2.5424   -0.4450   -0.6176 C   0  0  0  0  0  0  0  0  0  0  0  0
    1.4488    2.3816    0.5869 C   0  0  0  0  0  0  0  0  0  0  0  0
    0.3526    2.6129   -1.5537 C   0  0  0  0  0  0  0  0  0  0  0  0
   -1.1946    1.5768    1.8805 C   0  0  0  0  0  0  0  0  0  0  0  0
   -2.4649   -1.4928   -1.5161 C   0  0  0  0  0  0  0  0  0  0  0  0
   -3.4219   -0.4629    0.4489 C   0  0  0  0  0  0  0  0  0  0  0  0
    2.1823    3.5413    0.3364 C   0  0  0  0  0  0  0  0  0  0  0  0
    1.0861    3.7725   -1.8042 C   0  0  0  0  0  0  0  0  0  0  0  0
    2.0009    4.2368   -0.8592 C   0  0  0  0  0  0  0  0  0  0  0  0
   -3.2973   -2.5985   -1.3421 C   0  0  0  0  0  0  0  0  0  0  0  0
   -4.2542   -1.5687    0.6228 C   0  0  0  0  0  0  0  0  0  0  0  0
   -1.3737    1.3119    3.3447 C   0  0  0  0  0  0  0  0  0  0  0  0
   -4.1918   -2.6364   -0.2726 C   0  0  0  0  0  0  0  0  0  0  0  0
  1  5  1  0
  1 17  1  0
  2 17  2  0
  3  6  1  0
  3  7  1  0
  3  8  1  0
  4  5  1  0
  4  6  1  0
  4 12  1  0
  5 11  1  0
  5 13  1  0
  7  9  1  0
  8 10  1  0
  9 10  1  0
 11 14  1  0
 13 15  2  0
 13 16  1  0
 14 18  2  0
 14 19  1  0
 15 20  1  0
 16 21  2  0
 17 25  1  0
 18 23  1  0
 19 24  2  0
 20 22  2  0
 21 22  1  0
 23 26  2  0
 24 26  1  0
M  END
>  <PUBCHEM_COMPOUND_CID>  (1) 
21797

>  <PUBCHEM_CONFORMER_RMSD>  (1) 
1

>  <PUBCHEM_CONFORMER_DIVERSEORDER>  (1) 
1
12
13
9
11
14
8
4
6
10
15
3
7
5
2

>  <PUBCHEM_MMFF94_PARTIAL_CHARGES>  (1) 
32
1 -0.43
11 0.14
13 -0.14
14 -0.14
15 -0.15
16 -0.15
17 0.66
18 -0.15
19 -0.15
2 -0.57
20 -0.15
21 -0.15
22 -0.15
23 -0.15
24 -0.15
25 0.06
26 -0.15
3 -0.81
43 0.15
44 0.15
45 0.15
46 0.15
47 0.15
48 0.15
49 0.15
5 0.42
50 0.15
51 0.15
55 0.15
6 0.27
7 0.27
8 0.27

>  <PUBCHEM_EFFECTIVE_ROTOR_COUNT>  (1) 
9

>  <PUBCHEM_PHARMACOPHORE_FEATURES>  (1) 
6
1 12 hydrophobe
1 2 acceptor
1 3 cation
5 3 7 8 9 10 rings
6 13 15 16 20 21 22 rings
6 14 18 19 23 24 26 rings

>  <PUBCHEM_HEAVY_ATOM_COUNT>  (1) 
26

>  <PUBCHEM_ATOM_DEF_STEREO_COUNT>  (1) 
0

>  <PUBCHEM_ATOM_UDEF_STEREO_COUNT>  (1) 
2

>  <PUBCHEM_BOND_DEF_STEREO_COUNT>  (1) 
0

>  <PUBCHEM_BOND_UDEF_STEREO_COUNT>  (1) 
0

>  <PUBCHEM_ISOTOPIC_ATOM_COUNT>  (1) 
0

>  <PUBCHEM_COMPONENT_COUNT>  (1) 
1

>  <PUBCHEM_CACTVS_TAUTO_COUNT>  (1) 
1

>  <PUBCHEM_CONFORMER_ID>  (1) 
0000552500000001

>  <PUBCHEM_MMFF94_ENERGY>  (1) 
82.766

>  <PUBCHEM_FEATURE_SELFOVERLAP>  (1) 
30.446

>  <PUBCHEM_SHAPE_FINGERPRINT>  (1) 
11045515 52 18189050911106710918
11315621 246 18053957156330370950
11421498 54 18053109711815988481
11763715 3 18118424860155837222
121448 382 17333375004852510583
12592029 89 17974287921690386468
13004483 165 18120363255520052555
133893 2 18190201124665680124
13533116 47 18054779857521823015
14028597 1 17771924975466709897
14844126 61 17684921406714603162
17138139 8 16544653571372856079
17980427 26 17541716871653411745
1813 80 18335127674828677450
19319366 153 17837209638355596247
19765921 60 17838633493017776685
20600515 1 18056760936111874533
20602899 9 17688043323794632940
21421861 104 18270983322205703395
21796203 349 18119564043837779474
22956985 138 18263630935211957146
23419403 2 16980060876046214089
23559900 14 18263345023660130287
283562 15 14225045931021060461
3380486 145 18190750734545671256
3380486 77 18199198300046429367
394222 165 18054807318660777425
4409770 3 17613428948435900300
458136 41 18048039867562497207
469060 322 18337106779470024072
59554788 281 17837789081041702888
81228 2 17842000987885466535
90316 7 17978802211638549612

>  <PUBCHEM_SHAPE_MULTIPOLES>  (1) 
518.35
6.51
6.06
2.01
6.55
4.16
1.06
4.08
-0.47
-9.09
0.05
0.7
-1.54
-2.22

>  <PUBCHEM_SHAPE_SELFOVERLAP>  (1) 
1099.998

>  <PUBCHEM_SHAPE_VOLUME>  (1) 
287.7

>  <PUBCHEM_COORDINATE_TYPE>  (1) 
2
5
10

$$$$
