21794
     RDKit          3D

 25 28  0  0  1  0  0  0  0  0999 V2000
   -3.0597    3.4191   -0.2823 Cl  0  0  0  0  0  0  0  0  0  0  0  0
    5.4487   -0.5316   -0.8398 O   0  0  0  0  0  0  0  0  0  0  0  0
   -6.1004   -0.4992    1.1681 O   0  0  0  0  0  0  0  0  0  0  0  0
    2.2530   -0.4796   -0.1509 C   0  0  0  0  0  0  0  0  0  0  0  0
    1.3918    0.7493    0.2071 C   0  0  0  0  0  0  0  0  0  0  0  0
   -0.0145    0.6903   -0.4006 C   0  0  0  0  0  0  0  0  0  0  0  0
   -0.7413   -0.5813    0.1295 C   0  0  0  0  0  0  0  0  0  0  0  0
    3.5672   -0.0743    0.5542 C   0  0  0  0  0  0  0  0  0  0  0  0
    2.2956    1.9333   -0.1294 C   0  0  0  0  0  0  0  0  0  0  0  0
    1.5649   -1.7178    0.4385 C   0  0  0  0  0  0  0  0  0  0  0  0
   -2.2200   -0.7117   -0.4083 C   0  0  0  0  0  0  0  0  0  0  0  0
    3.7166    1.4362    0.2322 C   0  0  0  0  0  0  0  0  0  0  0  0
    0.1191   -1.8609   -0.0697 C   0  0  0  0  0  0  0  0  0  0  0  0
   -0.8275    1.9419   -0.0515 C   0  0  0  0  0  0  0  0  0  0  0  0
    2.4695   -0.6750   -1.6741 C   0  0  0  0  0  0  0  0  0  0  0  0
   -2.9824    0.6161   -0.1828 C   0  0  0  0  0  0  0  0  0  0  0  0
   -2.2367    1.8674   -0.6383 C   0  0  0  0  0  0  0  0  0  0  0  0
   -2.9052   -1.8759    0.3676 C   0  0  0  0  0  0  0  0  0  0  0  0
   -2.2566   -1.0385   -1.9198 C   0  0  0  0  0  0  0  0  0  0  0  0
    4.7599   -0.8713    0.1211 C   0  0  0  0  0  0  0  0  0  0  0  0
    4.3124    2.2059    1.4070 C   0  0  0  0  0  0  0  0  0  0  0  0
   -4.4149   -1.9022    0.2182 C   0  0  0  0  0  0  0  0  0  0  0  0
   -4.2239    0.6486    0.3387 C   0  0  0  0  0  0  0  0  0  0  0  0
   -4.9911   -0.5828    0.6446 C   0  0  0  0  0  0  0  0  0  0  0  0
    5.0754   -2.1061    0.9210 C   0  0  0  0  0  0  0  0  0  0  0  0
  1 17  1  0
  2 20  2  0
  3 24  2  0
  4  5  1  0
  4  8  1  0
  4 10  1  0
  4 15  1  0
  5  6  1  0
  5  9  1  0
  6  7  1  0
  6 14  1  0
  7 11  1  0
  7 13  1  0
  8 12  1  0
  8 20  1  0
  9 12  1  0
 10 13  1  0
 11 16  1  0
 11 18  1  0
 11 19  1  0
 12 21  1  0
 14 17  1  0
 16 17  1  0
 16 23  2  0
 18 22  1  0
 20 25  1  0
 22 24  1  0
 23 24  1  0
M  END
>  <PUBCHEM_COMPOUND_CID>  (1) 
21794

>  <PUBCHEM_CONFORMER_RMSD>  (1) 
0.6

>  <PUBCHEM_CONFORMER_DIVERSEORDER>  (1) 
1
48
54
45
46
32
50
58
56
5
36
31
29
34
41
64
42
19
24
39
62
61
11
16
27
59
14
57
33
47
53
49
23
63
44
18
2
38
21
55
9
6
37
26
15
8
22
30
13
4
40
3
10
51
17
43
28
25
12
52
7
20
35
60

>  <PUBCHEM_MMFF94_PARTIAL_CHARGES>  (1) 
13
1 -0.29
11 0.14
16 -0.28
17 0.43
2 -0.57
20 0.45
22 0.06
23 -0.14
24 0.49
25 0.06
3 -0.57
53 0.15
8 0.06

>  <PUBCHEM_EFFECTIVE_ROTOR_COUNT>  (1) 
2.8

>  <PUBCHEM_PHARMACOPHORE_FEATURES>  (1) 
6
1 2 acceptor
1 3 acceptor
5 4 5 8 9 12 rings
6 11 16 18 22 23 24 rings
6 4 5 6 7 10 13 rings
6 6 7 11 14 16 17 rings

>  <PUBCHEM_HEAVY_ATOM_COUNT>  (1) 
25

>  <PUBCHEM_ATOM_DEF_STEREO_COUNT>  (1) 
5

>  <PUBCHEM_ATOM_UDEF_STEREO_COUNT>  (1) 
3

>  <PUBCHEM_BOND_DEF_STEREO_COUNT>  (1) 
0

>  <PUBCHEM_BOND_UDEF_STEREO_COUNT>  (1) 
0

>  <PUBCHEM_ISOTOPIC_ATOM_COUNT>  (1) 
0

>  <PUBCHEM_COMPONENT_COUNT>  (1) 
1

>  <PUBCHEM_CACTVS_TAUTO_COUNT>  (1) 
6

>  <PUBCHEM_CONFORMER_ID>  (1) 
0000552200000001

>  <PUBCHEM_MMFF94_ENERGY>  (1) 
80.4629

>  <PUBCHEM_FEATURE_SELFOVERLAP>  (1) 
30.541

>  <PUBCHEM_SHAPE_FINGERPRINT>  (1) 
10319926 262 18337937997111840472
10646746 165 18410853235794239884
11405975 8 18341325609369298528
11595378 159 18041540512423271824
12107183 9 17539962880245365202
12166972 35 17458350749089143452
12236239 1 17917430969138680867
12403259 226 18409160022047152264
12403259 415 18413102866628614424
12403814 3 18201433710117246213
12422481 6 18272656727247610427
12616971 3 17988917890354985886
12633257 1 17418374726732721183
13073987 5 18261388911075439010
13140716 1 18339354163540721224
13224815 77 18410849988360990684
13533116 47 18187080633520301354
13583140 156 18264475213690415645
13675066 3 18343298188800086288
14178342 30 18188484675197879101
14223421 5 18337955589065749701
14341114 176 18407762546946645656
14790565 3 17400087864009892237
15196674 1 18410572911436111393
15209289 33 18259985963543843891
15788980 27 18113898264603273439
17349148 13 17167863062596328632
17492 89 18409442592398811634
17844677 252 18409171004320505392
1813 80 17385721443412294837
18186145 218 18260820523361111430
18608769 82 18336269058662139378
19141452 34 18059859506240521655
19591789 44 18409727352877394802
20028762 73 18271802453731583790
20261772 1 18343582966617281575
21033648 29 17677314087382409948
21267235 1 18408893918557589698
21279426 13 18194684753143368102
21792934 111 18335699430435545049
22182313 1 17916032256502453503
23402539 116 18410288120887352583
23503953 91 17131829893474945006
23522609 53 18119564022405114452
23557571 272 18340775857480943732
23559900 14 18409441497007824392
23845131 108 17618232702702948329
335352 9 18337669719936620853
350125 39 18409733941199062200
4214541 1 18337107869537323737
5104073 3 18340198614277489936
59755656 215 18335139752551078743
9709674 26 18336545031463795490

>  <PUBCHEM_SHAPE_MULTIPOLES>  (1) 
504.62
11.55
2.84
1.14
0.74
1.57
-0.3
-2.34
3.14
-0.58
0.24
0.13
-0.17
0.69

>  <PUBCHEM_SHAPE_SELFOVERLAP>  (1) 
1066.45

>  <PUBCHEM_SHAPE_VOLUME>  (1) 
284.7

>  <PUBCHEM_COORDINATE_TYPE>  (1) 
2
5
10

$$$$
