21800
     RDKit          3D

 36 39  0  0  1  0  0  0  0  0999 V2000
    2.4095    0.0847    1.1757 F   0  0  0  0  0  0  0  0  0  0  0  0
   -1.8396   -1.0192    1.0555 O   0  0  0  0  0  0  0  0  0  0  0  0
    1.3564    2.0787   -1.6233 O   0  0  0  0  0  0  0  0  0  0  0  0
   -3.7909   -1.2859   -1.4919 O   0  0  0  0  0  0  0  0  0  0  0  0
   -4.6640    1.0857   -0.3901 O   0  0  0  0  0  0  0  0  0  0  0  0
   -3.6941   -2.3902    0.9862 O   0  0  0  0  0  0  0  0  0  0  0  0
    7.0690    1.0315    2.2649 O   0  0  0  0  0  0  0  0  0  0  0  0
   -4.2827    3.3176    0.0539 O   0  0  0  0  0  0  0  0  0  0  0  0
   -0.4331   -0.3573   -0.8408 C   0  0  0  0  0  0  0  0  0  0  0  0
    0.6678   -1.3869   -0.5036 C   0  0  0  0  0  0  0  0  0  0  0  0
    2.0753   -0.9344   -0.9221 C   0  0  0  0  0  0  0  0  0  0  0  0
    2.4285    0.3976   -0.1748 C   0  0  0  0  0  0  0  0  0  0  0  0
   -1.6947   -1.1429   -0.3654 C   0  0  0  0  0  0  0  0  0  0  0  0
    0.1107   -2.6855   -1.0784 C   0  0  0  0  0  0  0  0  0  0  0  0
   -0.1072    0.9347   -0.0616 C   0  0  0  0  0  0  0  0  0  0  0  0
   -1.3899   -2.6397   -0.6914 C   0  0  0  0  0  0  0  0  0  0  0  0
    1.3145    1.4748   -0.3400 C   0  0  0  0  0  0  0  0  0  0  0  0
    3.9037    0.8744   -0.4782 C   0  0  0  0  0  0  0  0  0  0  0  0
    3.1057   -2.0361   -0.6127 C   0  0  0  0  0  0  0  0  0  0  0  0
   -0.5455   -0.0550   -2.3608 C   0  0  0  0  0  0  0  0  0  0  0  0
    4.5339   -1.5897   -0.9009 C   0  0  0  0  0  0  0  0  0  0  0  0
    4.8380   -0.3034   -0.1764 C   0  0  0  0  0  0  0  0  0  0  0  0
   -2.9993   -0.5889   -0.8588 C   0  0  0  0  0  0  0  0  0  0  0  0
   -2.2463   -3.2951   -1.7703 C   0  0  0  0  0  0  0  0  0  0  0  0
    4.1384    1.3050   -1.9444 C   0  0  0  0  0  0  0  0  0  0  0  0
    4.2510    2.0840    0.3778 C   0  0  0  0  0  0  0  0  0  0  0  0
    5.8486   -0.2476    0.7052 C   0  0  0  0  0  0  0  0  0  0  0  0
   -3.2771    0.8633   -0.5334 C   0  0  0  0  0  0  0  0  0  0  0  0
    5.2546    2.1454    1.2585 C   0  0  0  0  0  0  0  0  0  0  0  0
   -2.8898   -1.7014    1.5988 C   0  0  0  0  0  0  0  0  0  0  0  0
    6.1346    0.9821    1.4721 C   0  0  0  0  0  0  0  0  0  0  0  0
   -2.9011   -1.4691    3.0915 C   0  0  0  0  0  0  0  0  0  0  0  0
   -4.0561   -2.1822    3.7725 C   0  0  0  0  0  0  0  0  0  0  0  0
   -5.0454    2.3724   -0.0924 C   0  0  0  0  0  0  0  0  0  0  0  0
   -6.5499    2.4406    0.0258 C   0  0  0  0  0  0  0  0  0  0  0  0
   -7.0332    3.8378    0.3733 C   0  0  0  0  0  0  0  0  0  0  0  0
  1 12  1  0
  2 13  1  0
  2 30  1  0
  3 17  1  0
  4 23  2  0
  5 28  1  0
  5 34  1  0
  6 30  2  0
  7 31  2  0
  8 34  2  0
  9 10  1  0
  9 13  1  0
  9 15  1  0
  9 20  1  0
 10 11  1  0
 10 14  1  0
 11 12  1  0
 11 19  1  0
 12 17  1  0
 12 18  1  0
 13 16  1  0
 13 23  1  0
 14 16  1  0
 15 17  1  0
 16 24  1  0
 18 22  1  0
 18 25  1  0
 18 26  1  0
 19 21  1  0
 21 22  1  0
 22 27  2  0
 23 28  1  0
 26 29  2  0
 27 31  1  0
 29 31  1  0
 30 32  1  0
 32 33  1  0
 34 35  1  0
 35 36  1  0
M  END
>  <PUBCHEM_COMPOUND_CID>  (1) 
21800

>  <PUBCHEM_CONFORMER_RMSD>  (1) 
1

>  <PUBCHEM_CONFORMER_DIVERSEORDER>  (1) 
1
7
6
5
2
3
4

>  <PUBCHEM_MMFF94_PARTIAL_CHARGES>  (1) 
28
1 -0.34
12 0.34
13 0.34
17 0.28
18 0.28
2 -0.43
21 0.14
22 -0.28
23 0.45
26 -0.29
27 -0.14
28 0.34
29 -0.14
3 -0.68
30 0.66
31 0.54
32 0.06
34 0.66
35 0.06
4 -0.57
5 -0.43
58 0.15
59 0.4
6 -0.57
60 0.15
63 0.15
7 -0.57
8 -0.57

>  <PUBCHEM_EFFECTIVE_ROTOR_COUNT>  (1) 
9.4

>  <PUBCHEM_PHARMACOPHORE_FEATURES>  (1) 
12
1 3 acceptor
1 3 donor
1 33 hydrophobe
1 36 hydrophobe
1 4 acceptor
1 6 acceptor
1 7 acceptor
1 8 acceptor
5 9 10 13 14 16 rings
6 11 12 18 19 21 22 rings
6 18 22 26 27 29 31 rings
6 9 10 11 12 15 17 rings

>  <PUBCHEM_HEAVY_ATOM_COUNT>  (1) 
36

>  <PUBCHEM_ATOM_DEF_STEREO_COUNT>  (1) 
8

>  <PUBCHEM_ATOM_UDEF_STEREO_COUNT>  (1) 
0

>  <PUBCHEM_BOND_DEF_STEREO_COUNT>  (1) 
0

>  <PUBCHEM_BOND_UDEF_STEREO_COUNT>  (1) 
0

>  <PUBCHEM_ISOTOPIC_ATOM_COUNT>  (1) 
0

>  <PUBCHEM_COMPONENT_COUNT>  (1) 
1

>  <PUBCHEM_CACTVS_TAUTO_COUNT>  (1) 
6

>  <PUBCHEM_CONFORMER_ID>  (1) 
0000552800000001

>  <PUBCHEM_MMFF94_ENERGY>  (1) 
118.5711

>  <PUBCHEM_FEATURE_SELFOVERLAP>  (1) 
61.002

>  <PUBCHEM_SHAPE_FINGERPRINT>  (1) 
10319926 262 17968105221699165706
10673678 19 17987799584503983399
10675989 125 17986394377856234157
11443803 9 18339063923210583221
11578080 2 17559653174809298816
11763715 3 17686918519452409751
12107183 9 18196077864424823970
12403259 118 18334295417783124276
12422481 6 18412255152254355782
12633257 1 17240197746502261516
13224815 77 18058449988331739998
13583140 156 17416958611854620726
13726171 33 17315104210070886500
13782708 43 16662049364073000171
13911987 19 15554437510092364133
14020679 6 17821738212719773561
14747282 305 16009019537023237867
14790565 3 18271526377728522589
14950920 106 17458625687204945480
15082195 135 14117799089868230808
15238133 3 18410576184702773580
15361156 5 18260550039506379100
15788980 27 18042674174047745558
15840311 113 18129943348052538605
19301679 30 17679889238690154483
19438510 23 18338515236379380881
20511986 3 17560506379116735510
20715895 44 18272366434755938068
21033648 144 17703795859402797030
21033648 29 18411985762397698794
21421861 104 18042670720989225826
22122407 14 18059300859427476265
23559900 14 18261118413967143518
244849 19 18121247315126128539
2838139 119 18129655293238612877
32027 91 17774453672735046262
335352 9 18270120098393848718
3383291 50 18261672666712036715
3552219 110 16913692426444487591
3633792 109 17417531289750660118
392239 28 18058160804057154954
4073 2 18260270759078523890
460360 51 18341062864839527678
5104073 3 18335696130998724546
563151 248 16370733617050029473
57527293 21 16877951563478523134
6086070 43 17489581269038581408
9981440 41 18411139121992513971

>  <PUBCHEM_SHAPE_MULTIPOLES>  (1) 
692.5
15.12
3.79
2.35
1.44
0.84
2.11
13.39
6.48
-6.01
-0.09
-1.17
-1.47
2.25

>  <PUBCHEM_SHAPE_SELFOVERLAP>  (1) 
1484.435

>  <PUBCHEM_SHAPE_VOLUME>  (1) 
382

>  <PUBCHEM_COORDINATE_TYPE>  (1) 
2
5
10

$$$$
