21805
     RDKit          3D

 16 16  0  0  0  0  0  0  0  0999 V2000
   -0.4427   -3.1833    0.2753 Cl  0  0  0  0  0  0  0  0  0  0  0  0
   -4.6512    0.1473   -0.0116 Cl  0  0  0  0  0  0  0  0  0  0  0  0
   -2.5153    2.5856   -0.3869 Cl  0  0  0  0  0  0  0  0  0  0  0  0
    2.1818    0.5529   -0.2785 P   0  0  0  0  0  0  0  0  0  0  0  0
    1.1147   -0.6459   -0.0933 O   0  0  0  0  0  0  0  0  0  0  0  0
    3.6192   -0.1562   -0.0380 O   0  0  0  0  0  0  0  0  0  0  0  0
    1.9637    1.4597    1.0484 O   0  0  0  0  0  0  0  0  0  0  0  0
    2.0537    1.3250   -1.5615 O   0  0  0  0  0  0  0  0  0  0  0  0
   -0.6981    0.7761   -0.2155 N   0  0  0  0  0  0  0  0  0  0  0  0
   -0.2449   -0.4902   -0.0700 C   0  0  0  0  0  0  0  0  0  0  0  0
   -1.0698   -1.5923    0.0953 C   0  0  0  0  0  0  0  0  0  0  0  0
   -2.4441   -1.3819    0.1123 C   0  0  0  0  0  0  0  0  0  0  0  0
   -2.9465   -0.0937   -0.0345 C   0  0  0  0  0  0  0  0  0  0  0  0
   -2.0396    0.9417   -0.1938 C   0  0  0  0  0  0  0  0  0  0  0  0
    4.0648   -1.1145   -0.9817 C   0  0  0  0  0  0  0  0  0  0  0  0
    2.0542    0.8697    2.3339 C   0  0  0  0  0  0  0  0  0  0  0  0
  1 11  1  0
  2 13  1  0
  3 14  1  0
  4  5  1  0
  4  6  1  0
  4  7  1  0
  4  8  2  0
  5 10  1  0
  6 15  1  0
  7 16  1  0
  9 10  2  0
  9 14  1  0
 10 11  1  0
 11 12  2  0
 12 13  1  0
 13 14  2  0
M  END
>  <PUBCHEM_COMPOUND_CID>  (1) 
21805

>  <PUBCHEM_CONFORMER_RMSD>  (1) 
0.6

>  <PUBCHEM_CONFORMER_DIVERSEORDER>  (1) 
3
27
8
17
28
24
5
12
21
23
11
22
19
25
1
6
26
4
13
20
16
10
18
15
2
14
7
9

>  <PUBCHEM_MMFF94_PARTIAL_CHARGES>  (1) 
17
1 -0.18
10 0.39
11 0.18
12 -0.15
13 0.18
14 0.49
15 0.28
16 0.28
17 0.15
2 -0.18
3 -0.18
4 1.51
5 -0.35
6 -0.55
7 -0.55
8 -0.7
9 -0.62

>  <PUBCHEM_EFFECTIVE_ROTOR_COUNT>  (1) 
4

>  <PUBCHEM_PHARMACOPHORE_FEATURES>  (1) 
2
1 8 acceptor
6 9 10 11 12 13 14 rings

>  <PUBCHEM_HEAVY_ATOM_COUNT>  (1) 
16

>  <PUBCHEM_ATOM_DEF_STEREO_COUNT>  (1) 
0

>  <PUBCHEM_ATOM_UDEF_STEREO_COUNT>  (1) 
0

>  <PUBCHEM_BOND_DEF_STEREO_COUNT>  (1) 
0

>  <PUBCHEM_BOND_UDEF_STEREO_COUNT>  (1) 
0

>  <PUBCHEM_ISOTOPIC_ATOM_COUNT>  (1) 
0

>  <PUBCHEM_COMPONENT_COUNT>  (1) 
1

>  <PUBCHEM_CACTVS_TAUTO_COUNT>  (1) 
1

>  <PUBCHEM_CONFORMER_ID>  (1) 
0000552D00000003

>  <PUBCHEM_MMFF94_ENERGY>  (1) 
28.4494

>  <PUBCHEM_FEATURE_SELFOVERLAP>  (1) 
10.148

>  <PUBCHEM_SHAPE_FINGERPRINT>  (1) 
11132069 177 18341322396891665665
12500047 106 18269271429766969638
12553582 1 17183912904453080306
12716758 59 18339921614313692715
13134695 92 16702013159147646408
13538477 17 17822848809320452195
14115302 16 18338808887335005308
15279308 132 18412825772365305138
16752209 62 18334002887745404837
16945 1 18335973264074345171
17802600 8 18342736299751144285
17804303 29 18412269440945917942
18186145 218 18202274797641589217
19049666 15 18202279187066530352
20510252 161 18413107268859310257
20645476 183 17168141286478312947
20645477 56 18338515343342229456
21524375 3 18342179934272907103
21947302 44 17417243363664577280
22802520 49 18270408328937338370
23175994 123 17560530516811495648
23402539 116 18412539925328113399
23493267 7 17675930889165119395
23526113 38 17988090997708391262
23557571 272 18053664960433871448
23559900 14 18342457088517630308
23598294 1 17972326371603232739
2748010 2 18338520862739357607
3286 77 17704072901878240937
43471831 8 18189050911054515579
57426455 114 18342735226188752930
69090 78 18059851783635992431
7364860 26 18124593077058185303
81228 2 17979626068086917347

>  <PUBCHEM_SHAPE_MULTIPOLES>  (1) 
310.27
6.78
2.58
1.22
0.13
1.09
-0.62
-0.84
0.98
-0.96
-0.05
1.37
-0.53
0.74

>  <PUBCHEM_SHAPE_SELFOVERLAP>  (1) 
591.885

>  <PUBCHEM_SHAPE_VOLUME>  (1) 
194.6

>  <PUBCHEM_COORDINATE_TYPE>  (1) 
2
5
10

$$$$
