21808
     RDKit          3D

 21 23  0  0  0  0  0  0  0  0999 V2000
   -0.0022   -0.0004   -0.0001 N   0  0  0  0  0  0  0  0  0  0  0  0
    1.1961   -2.0729   -0.1638 N   0  0  0  0  0  0  0  0  0  0  0  0
   -1.2035   -2.0711   -0.1647 N   0  0  0  0  0  0  0  0  0  0  0  0
   -0.0049   -4.0807   -0.3238 N   0  0  0  0  0  0  0  0  0  0  0  0
   -2.3710   -0.0165   -0.0021 C   0  0  0  0  0  0  0  0  0  0  0  0
    2.3664   -0.0197   -0.0012 C   0  0  0  0  0  0  0  0  0  0  0  0
   -1.1183   -0.7386   -0.0591 C   0  0  0  0  0  0  0  0  0  0  0  0
    1.1194   -0.7365   -0.0581 C   0  0  0  0  0  0  0  0  0  0  0  0
   -4.7862    1.3753    0.1093 C   0  0  0  0  0  0  0  0  0  0  0  0
    4.7905    1.3721    0.1087 C   0  0  0  0  0  0  0  0  0  0  0  0
   -2.4513    1.2820   -0.5046 C   0  0  0  0  0  0  0  0  0  0  0  0
   -3.4982   -0.6193    0.5562 C   0  0  0  0  0  0  0  0  0  0  0  0
    2.4550    1.2822   -0.5040 C   0  0  0  0  0  0  0  0  0  0  0  0
    3.4996   -0.6203    0.5570 C   0  0  0  0  0  0  0  0  0  0  0  0
   -3.6588    1.9780   -0.4488 C   0  0  0  0  0  0  0  0  0  0  0  0
   -4.7059    0.0765    0.6119 C   0  0  0  0  0  0  0  0  0  0  0  0
    3.6637    1.9763   -0.4493 C   0  0  0  0  0  0  0  0  0  0  0  0
    4.7084    0.0736    0.6118 C   0  0  0  0  0  0  0  0  0  0  0  0
   -6.0776    2.1190    0.1687 C   0  0  0  0  0  0  0  0  0  0  0  0
    6.0828    2.1140    0.1677 C   0  0  0  0  0  0  0  0  0  0  0  0
   -0.0041   -2.6731   -0.2120 C   0  0  0  0  0  0  0  0  0  0  0  0
  1  7  2  0
  1  8  1  0
  2  8  2  0
  2 21  1  0
  3  7  1  0
  3 21  2  0
  4 21  1  0
  5  7  1  0
  5 11  2  0
  5 12  1  0
  6  8  1  0
  6 13  2  0
  6 14  1  0
  9 15  2  0
  9 16  1  0
  9 19  1  0
 10 17  2  0
 10 18  1  0
 10 20  1  0
 11 15  1  0
 12 16  2  0
 13 17  1  0
 14 18  2  0
M  END
>  <PUBCHEM_COMPOUND_CID>  (1) 
21808

>  <PUBCHEM_CONFORMER_RMSD>  (1) 
0.6

>  <PUBCHEM_CONFORMER_DIVERSEORDER>  (1) 
1
2

>  <PUBCHEM_MMFF94_PARTIAL_CHARGES>  (1) 
29
1 -0.62
10 -0.14
11 -0.15
12 -0.15
13 -0.15
14 -0.15
15 -0.15
16 -0.15
17 -0.15
18 -0.15
19 0.14
2 -0.62
20 0.14
21 0.72
22 0.15
23 0.15
24 0.15
25 0.15
26 0.15
27 0.15
28 0.15
29 0.15
3 -0.62
36 0.4
37 0.4
4 -0.9
7 0.62
8 0.62
9 -0.14

>  <PUBCHEM_EFFECTIVE_ROTOR_COUNT>  (1) 
2

>  <PUBCHEM_PHARMACOPHORE_FEATURES>  (1) 
5
1 4 donor
4 2 3 4 21 cation
6 1 2 3 7 8 21 rings
6 5 9 11 12 15 16 rings
6 6 10 13 14 17 18 rings

>  <PUBCHEM_HEAVY_ATOM_COUNT>  (1) 
21

>  <PUBCHEM_ATOM_DEF_STEREO_COUNT>  (1) 
0

>  <PUBCHEM_ATOM_UDEF_STEREO_COUNT>  (1) 
0

>  <PUBCHEM_BOND_DEF_STEREO_COUNT>  (1) 
0

>  <PUBCHEM_BOND_UDEF_STEREO_COUNT>  (1) 
0

>  <PUBCHEM_ISOTOPIC_ATOM_COUNT>  (1) 
0

>  <PUBCHEM_COMPONENT_COUNT>  (1) 
1

>  <PUBCHEM_CACTVS_TAUTO_COUNT>  (1) 
3

>  <PUBCHEM_CONFORMER_ID>  (1) 
0000553000000001

>  <PUBCHEM_MMFF94_ENERGY>  (1) 
65.326

>  <PUBCHEM_FEATURE_SELFOVERLAP>  (1) 
25.373

>  <PUBCHEM_SHAPE_FINGERPRINT>  (1) 
10 15 18113622291569716889
10493431 412 18410575119075727349
12107183 9 18335972083496682426
12173636 292 18339356495449266454
12293681 160 17775288257119162232
12390115 104 18270414870056310249
12403259 118 17968945308870557869
12403259 415 18339656576081780790
12596602 18 17240198858872866040
12633257 1 15719398364451107136
12769317 202 18270108020661202433
12788726 201 17538864867561739926
12892183 10 17603585214105813602
13288520 33 9079122158905392753
13544653 18 10159695823910456582
13583140 156 16733526291290036462
13631057 29 18130216177829612599
13685833 64 9727625120964313149
13740256 8 9223226351796411977
13785724 45 17832982755250840506
138480 1 17762338011435696374
13955234 65 18121225281680078387
14341114 176 18041002812603461432
14508225 48 17551500476604937087
14767858 380 18271508893565078767
14790565 3 18411705391233553129
15042514 8 18048322441961976851
15188451 53 15213593359515819329
15196674 1 18409729564516325457
15475509 35 16226887714643651490
15927050 60 18411418432195931414
16087824 20 18340486794790763327
17539 30 17769366454943535031
17834072 32 18411136956775147636
17980427 23 17749115525708321631
18222031 100 11241976987898590113
18785283 64 18264486174764186754
19784866 34 18342458119161977849
19784866 9 18339921515481693057
20157964 124 18266173934308944957
204376 136 18412545405400544403
20645477 56 18340771550008443288
21033648 29 18342166813079480464
21236236 1 18341048631408079775
21756936 100 18270111439602350012
22149856 69 18193023477653477625
22950370 63 9007059084346562327
23227448 37 18340769354942506325
23402539 116 18272364299861754100
23558518 356 17757269654195353652
23559900 14 18049440345071971123
2916195 48 18130502041450483880
293599 30 18412265055947877936
335352 9 18411136910295379294
350125 39 18268710683358462251
351380 3 8214140750690766153
474 4 18339924814301464707
474229 33 18409730707568840155
4921388 177 15410603835505396045
5104073 3 18116443553213645745
5385378 56 18268151967683671267
59682541 52 16486704554233823980
621550 34 18116432544911752845
6327066 14 18410007762449307589
633830 44 18272369724442294599
636775 72 17762900266765660336
7364860 26 18123751959105204223
77188 2 17402614043487818015
7808743 9 18266175209539730912
7970288 3 8646769988718294665
8272917 22 18269557130975688455
9981440 41 18408045117483188131

>  <PUBCHEM_SHAPE_MULTIPOLES>  (1) 
412.25
12.75
3.19
0.73
0.06
2.73
-0.02
-12.26
-2.01
-0.01
0.52
0
-0.05
0

>  <PUBCHEM_SHAPE_SELFOVERLAP>  (1) 
906.561

>  <PUBCHEM_SHAPE_VOLUME>  (1) 
215.9

>  <PUBCHEM_COORDINATE_TYPE>  (1) 
2
5
10

$$$$
