21816
     RDKit          3D

 13 13  0  0  0  0  0  0  0  0999 V2000
   -2.3416    0.4127    0.0068 N   0  0  0  0  0  0  0  0  0  0  0  0
    2.3477    0.4424   -0.0072 N   0  0  0  0  0  0  0  0  0  0  0  0
    0.0028    0.4593    0.0011 N   0  0  0  0  0  0  0  0  0  0  0  0
    1.2159   -1.6110   -0.0034 N   0  0  0  0  0  0  0  0  0  0  0  0
   -1.1836   -1.6264    0.0038 N   0  0  0  0  0  0  0  0  0  0  0  0
    0.0289   -3.6336   -0.0011 N   0  0  0  0  0  0  0  0  0  0  0  0
   -2.4452    1.8514    0.0074 C   0  0  0  0  0  0  0  0  0  0  0  0
    2.4099    1.8706   -0.0071 C   0  0  0  0  0  0  0  0  0  0  0  0
   -1.1365   -0.2730    0.0041 C   0  0  0  0  0  0  0  0  0  0  0  0
    1.1296   -0.2710   -0.0027 C   0  0  0  0  0  0  0  0  0  0  0  0
   -3.9029    2.2699   -0.0118 C   0  0  0  0  0  0  0  0  0  0  0  0
    3.8550    2.3303    0.0099 C   0  0  0  0  0  0  0  0  0  0  0  0
    0.0200   -2.2217    0.0000 C   0  0  0  0  0  0  0  0  0  0  0  0
  1  7  1  0
  1  9  1  0
  2  8  1  0
  2 10  1  0
  3  9  2  0
  3 10  1  0
  4 10  2  0
  4 13  1  0
  5  9  1  0
  5 13  2  0
  6 13  1  0
  7 11  1  0
  8 12  1  0
M  END
>  <PUBCHEM_COMPOUND_CID>  (1) 
21816

>  <PUBCHEM_CONFORMER_RMSD>  (1) 
0.6

>  <PUBCHEM_CONFORMER_DIVERSEORDER>  (1) 
1
13
11
10
4
14
3
12
15
8
6
7
5
9
2

>  <PUBCHEM_MMFF94_PARTIAL_CHARGES>  (1) 
15
1 -0.87
10 0.72
13 0.72
18 0.4
19 0.4
2 -0.87
26 0.4
27 0.4
3 -0.62
4 -0.62
5 -0.62
6 -0.9
7 0.37
8 0.37
9 0.72

>  <PUBCHEM_EFFECTIVE_ROTOR_COUNT>  (1) 
4

>  <PUBCHEM_PHARMACOPHORE_FEATURES>  (1) 
7
1 1 donor
1 2 donor
1 6 donor
4 1 3 5 9 cation
4 2 3 4 10 cation
4 4 5 6 13 cation
6 3 4 5 9 10 13 rings

>  <PUBCHEM_HEAVY_ATOM_COUNT>  (1) 
13

>  <PUBCHEM_ATOM_DEF_STEREO_COUNT>  (1) 
0

>  <PUBCHEM_ATOM_UDEF_STEREO_COUNT>  (1) 
0

>  <PUBCHEM_BOND_DEF_STEREO_COUNT>  (1) 
0

>  <PUBCHEM_BOND_UDEF_STEREO_COUNT>  (1) 
0

>  <PUBCHEM_ISOTOPIC_ATOM_COUNT>  (1) 
0

>  <PUBCHEM_COMPONENT_COUNT>  (1) 
1

>  <PUBCHEM_CACTVS_TAUTO_COUNT>  (1) 
10

>  <PUBCHEM_CONFORMER_ID>  (1) 
0000553800000001

>  <PUBCHEM_MMFF94_ENERGY>  (1) 
33.3631

>  <PUBCHEM_FEATURE_SELFOVERLAP>  (1) 
35.649

>  <PUBCHEM_SHAPE_FINGERPRINT>  (1) 
1 1 18266178340069431039
13380536 305 18195532497449924542
14123255 52 18410573989452407745
14648413 74 18120378661873295827
17134986 127 18410014299537069164
1741750 31 18340486763527999832
19021347 4 18337955687449103258
20510252 161 18198067077899855169
20645477 56 18197225951969219720
20671657 1 18196095434745310365
20871998 184 17624145197135649518
21426921 1 17978230788126506180
21499 59 18409721846893098741
21524375 3 18334006207322640384
21639500 275 18120922920208536637
2306618 200 17912378820329869736
23402539 116 17911515720639666207
2748010 2 18336841839247055447
305870 269 18408319969361728400
3071541 12 18196094339301666470
7364860 26 18123470475358652205
81228 2 17835251407813892810
84936 182 18129374912945923297

>  <PUBCHEM_SHAPE_MULTIPOLES>  (1) 
237.65
5.34
3.77
0.58
0.19
2.41
0
-7.32
0
-0.1
0
0
-0.04
0.01

>  <PUBCHEM_SHAPE_SELFOVERLAP>  (1) 
470.458

>  <PUBCHEM_SHAPE_VOLUME>  (1) 
130.8

>  <PUBCHEM_COORDINATE_TYPE>  (1) 
2
5
10

$$$$
