21812
     RDKit          3D

 23 25  0  0  0  0  0  0  0  0999 V2000
   -4.2225    4.2875    0.5850 Cl  0  0  0  0  0  0  0  0  0  0  0  0
    0.9230    0.2506   -0.9026 O   0  0  0  0  0  0  0  0  0  0  0  0
   -3.0083   -0.6102    0.0558 N   0  0  0  0  0  0  0  0  0  0  0  0
    5.5774    1.0849    0.1060 N   0  0  0  0  0  0  0  0  0  0  0  0
    0.4150   -3.4048    0.3647 C   0  0  0  0  0  0  0  0  0  0  0  0
    0.1796   -2.4827   -0.8318 C   0  0  0  0  0  0  0  0  0  0  0  0
   -0.6920   -4.4353    0.5824 C   0  0  0  0  0  0  0  0  0  0  0  0
   -0.7942   -1.3747   -0.5385 C   0  0  0  0  0  0  0  0  0  0  0  0
   -2.0507   -3.8486    0.9635 C   0  0  0  0  0  0  0  0  0  0  0  0
   -2.6880   -3.0053   -0.1393 C   0  0  0  0  0  0  0  0  0  0  0  0
   -2.1271   -1.6102   -0.2139 C   0  0  0  0  0  0  0  0  0  0  0  0
   -0.3770   -0.0419   -0.5887 C   0  0  0  0  0  0  0  0  0  0  0  0
   -1.2682    1.0030   -0.3154 C   0  0  0  0  0  0  0  0  0  0  0  0
   -2.5939    0.6681    0.0081 C   0  0  0  0  0  0  0  0  0  0  0  0
    1.8503    0.3343    0.1564 C   0  0  0  0  0  0  0  0  0  0  0  0
    3.2260    0.6460   -0.4173 C   0  0  0  0  0  0  0  0  0  0  0  0
   -0.8657    2.3492   -0.3582 C   0  0  0  0  0  0  0  0  0  0  0  0
    4.2767    0.7658    0.6819 C   0  0  0  0  0  0  0  0  0  0  0  0
   -3.4845    1.7027    0.2820 C   0  0  0  0  0  0  0  0  0  0  0  0
   -1.7750    3.3655   -0.0803 C   0  0  0  0  0  0  0  0  0  0  0  0
   -3.0871    3.0412    0.2403 C   0  0  0  0  0  0  0  0  0  0  0  0
    6.0148    0.0217   -0.8006 C   0  0  0  0  0  0  0  0  0  0  0  0
    6.5714    1.2932    1.1605 C   0  0  0  0  0  0  0  0  0  0  0  0
  1 21  1  0
  2 12  1  0
  2 15  1  0
  3 11  2  0
  3 14  1  0
  4 18  1  0
  4 22  1  0
  4 23  1  0
  5  6  1  0
  5  7  1  0
  6  8  1  0
  7  9  1  0
  8 11  1  0
  8 12  2  0
  9 10  1  0
 10 11  1  0
 12 13  1  0
 13 14  2  0
 13 17  1  0
 14 19  1  0
 15 16  1  0
 16 18  1  0
 17 20  2  0
 19 21  2  0
 20 21  1  0
M  END
>  <PUBCHEM_COMPOUND_CID>  (1) 
21812

>  <PUBCHEM_CONFORMER_RMSD>  (1) 
0.8

>  <PUBCHEM_CONFORMER_DIVERSEORDER>  (1) 
2
16
29
23
31
33
19
13
6
7
4
32
28
24
1
25
11
22
8
30
14
12
17
18
27
26
20
10
15
5
3
21
9

>  <PUBCHEM_MMFF94_PARTIAL_CHARGES>  (1) 
21
1 -0.18
10 0.14
11 0.17
12 0.08
14 0.31
15 0.28
17 -0.15
18 0.27
19 -0.15
2 -0.36
20 -0.15
21 0.18
22 0.27
23 0.27
3 -0.62
38 0.15
4 -0.81
41 0.15
42 0.15
6 0.14
8 -0.14

>  <PUBCHEM_EFFECTIVE_ROTOR_COUNT>  (1) 
6

>  <PUBCHEM_PHARMACOPHORE_FEATURES>  (1) 
6
1 2 acceptor
1 3 acceptor
1 4 cation
6 13 14 17 19 20 21 rings
6 3 8 11 12 13 14 rings
7 5 6 7 8 9 10 11 rings

>  <PUBCHEM_HEAVY_ATOM_COUNT>  (1) 
23

>  <PUBCHEM_ATOM_DEF_STEREO_COUNT>  (1) 
0

>  <PUBCHEM_ATOM_UDEF_STEREO_COUNT>  (1) 
0

>  <PUBCHEM_BOND_DEF_STEREO_COUNT>  (1) 
0

>  <PUBCHEM_BOND_UDEF_STEREO_COUNT>  (1) 
0

>  <PUBCHEM_ISOTOPIC_ATOM_COUNT>  (1) 
0

>  <PUBCHEM_COMPONENT_COUNT>  (1) 
1

>  <PUBCHEM_CACTVS_TAUTO_COUNT>  (1) 
1

>  <PUBCHEM_CONFORMER_ID>  (1) 
0000553400000002

>  <PUBCHEM_MMFF94_ENERGY>  (1) 
65.3936

>  <PUBCHEM_FEATURE_SELFOVERLAP>  (1) 
30.486

>  <PUBCHEM_SHAPE_FINGERPRINT>  (1) 
10319926 262 18341878724675482120
10411042 1 17979073022222741423
107951 10 18341618057929103606
1100329 8 18192997243296647129
11036077 51 18409164402792169738
11049842 53 18191049849459248790
11056379 131 18338244872477698980
11135609 187 18263910052652627237
12107183 9 18192139401236842730
12390115 104 18271818864885562760
12788726 201 18338219570440807955
13140716 1 18122353638486866955
138480 1 17040917564632078511
13955234 65 17689444780487442321
14420673 8 18338798893727569710
14790565 3 18194125105761139308
14844126 61 18263078984294825778
14866123 147 18410293622708823234
15042514 8 18264776638906643575
15230672 131 18191875531622111982
15326921 28 18047163299683814816
15927050 60 18268994189791835719
17980427 26 17907569229983975909
18785283 64 17617094711813268473
21120745 212 17975431414015343540
21650355 55 18193838364895989503
22224240 67 18342747274057757033
23558518 356 18410296891073505678
23559900 14 18049714415424479304
23845131 108 18264492776381615425
2748010 2 18121240696580746063
283562 15 18411974772288427983
3091708 16 9125974531086962591
4058900 60 18053395296618141072
4073 2 18411136962188167546
57124632 79 17905601103917438321
58807428 26 18265340516678333625
59755656 520 18337671902207677892
7364860 26 17545606652193181669
77188 2 17690280834304514575
79837 15 18409175389249636008
9981440 41 18335988545573623489

>  <PUBCHEM_SHAPE_MULTIPOLES>  (1) 
459.37
10.17
5.99
0.91
23.4
3.67
-0.05
-10.56
-2.11
-7.82
-1.56
0.5
0.12
0.25

>  <PUBCHEM_SHAPE_SELFOVERLAP>  (1) 
961.188

>  <PUBCHEM_SHAPE_VOLUME>  (1) 
261.7

>  <PUBCHEM_COORDINATE_TYPE>  (1) 
2
5
10

$$$$
