21817
     RDKit          3D

 21 23  0  0  0  0  0  0  0  0999 V2000
    2.3415    0.9860   -0.0902 N   0  0  0  0  0  0  0  0  0  0  0  0
   -2.3442    0.9823    0.0898 N   0  0  0  0  0  0  0  0  0  0  0  0
   -0.0012    0.9524    0.0011 N   0  0  0  0  0  0  0  0  0  0  0  0
   -1.2019    3.0294    0.0463 N   0  0  0  0  0  0  0  0  0  0  0  0
    1.1959    3.0314   -0.0458 N   0  0  0  0  0  0  0  0  0  0  0  0
   -0.0047    5.0454   -0.0011 N   0  0  0  0  0  0  0  0  0  0  0  0
    2.6508   -0.3900   -0.1029 C   0  0  0  0  0  0  0  0  0  0  0  0
   -2.6500   -0.3917    0.1026 C   0  0  0  0  0  0  0  0  0  0  0  0
    1.1223    1.6892   -0.0425 C   0  0  0  0  0  0  0  0  0  0  0  0
   -1.1231    1.6889    0.0437 C   0  0  0  0  0  0  0  0  0  0  0  0
    3.8476   -0.8408    0.4540 C   0  0  0  0  0  0  0  0  0  0  0  0
    1.7598   -1.3001   -0.6714 C   0  0  0  0  0  0  0  0  0  0  0  0
   -3.8454   -0.8480   -0.4562 C   0  0  0  0  0  0  0  0  0  0  0  0
   -1.7585   -1.3023    0.6730 C   0  0  0  0  0  0  0  0  0  0  0  0
    4.1533   -2.2018    0.4425 C   0  0  0  0  0  0  0  0  0  0  0  0
    2.0653   -2.6610   -0.6830 C   0  0  0  0  0  0  0  0  0  0  0  0
   -4.1484   -2.2096   -0.4444 C   0  0  0  0  0  0  0  0  0  0  0  0
   -2.0613   -2.6639    0.6848 C   0  0  0  0  0  0  0  0  0  0  0  0
    3.2622   -3.1118   -0.1261 C   0  0  0  0  0  0  0  0  0  0  0  0
   -3.2563   -3.1174    0.1260 C   0  0  0  0  0  0  0  0  0  0  0  0
   -0.0036    3.6335   -0.0001 C   0  0  0  0  0  0  0  0  0  0  0  0
  1  7  1  0
  1  9  1  0
  2  8  1  0
  2 10  1  0
  3  9  2  0
  3 10  1  0
  4 10  2  0
  4 21  1  0
  5  9  1  0
  5 21  2  0
  6 21  1  0
  7 11  2  0
  7 12  1  0
  8 13  2  0
  8 14  1  0
 11 15  1  0
 12 16  2  0
 13 17  1  0
 14 18  2  0
 15 19  2  0
 16 19  1  0
 17 20  2  0
 18 20  1  0
M  END
>  <PUBCHEM_COMPOUND_CID>  (1) 
21817

>  <PUBCHEM_CONFORMER_RMSD>  (1) 
0.6

>  <PUBCHEM_CONFORMER_DIVERSEORDER>  (1) 
2
32
31
6
38
37
27
3
12
30
11
39
5
10
41
36
20
4
18
34
21
19
16
15
29
33
13
1
26
25
22
40
42
14
17
7
23
8
28
24
35
9

>  <PUBCHEM_MMFF94_PARTIAL_CHARGES>  (1) 
35
1 -0.6
10 0.72
11 -0.15
12 -0.15
13 -0.15
14 -0.15
15 -0.15
16 -0.15
17 -0.15
18 -0.15
19 -0.15
2 -0.6
20 -0.15
21 0.72
22 0.4
23 0.4
24 0.15
25 0.15
26 0.15
27 0.15
28 0.15
29 0.15
3 -0.62
30 0.15
31 0.15
32 0.15
33 0.15
34 0.4
35 0.4
4 -0.62
5 -0.62
6 -0.9
7 0.1
8 0.1
9 0.72

>  <PUBCHEM_EFFECTIVE_ROTOR_COUNT>  (1) 
4

>  <PUBCHEM_PHARMACOPHORE_FEATURES>  (1) 
9
1 1 donor
1 2 donor
1 6 donor
4 1 3 5 9 cation
4 2 3 4 10 cation
4 4 5 6 21 cation
6 3 4 5 9 10 21 rings
6 7 11 12 15 16 19 rings
6 8 13 14 17 18 20 rings

>  <PUBCHEM_HEAVY_ATOM_COUNT>  (1) 
21

>  <PUBCHEM_ATOM_DEF_STEREO_COUNT>  (1) 
0

>  <PUBCHEM_ATOM_UDEF_STEREO_COUNT>  (1) 
0

>  <PUBCHEM_BOND_DEF_STEREO_COUNT>  (1) 
0

>  <PUBCHEM_BOND_UDEF_STEREO_COUNT>  (1) 
0

>  <PUBCHEM_ISOTOPIC_ATOM_COUNT>  (1) 
0

>  <PUBCHEM_COMPONENT_COUNT>  (1) 
1

>  <PUBCHEM_CACTVS_TAUTO_COUNT>  (1) 
10

>  <PUBCHEM_CONFORMER_ID>  (1) 
0000553900000002

>  <PUBCHEM_MMFF94_ENERGY>  (1) 
79.9977

>  <PUBCHEM_FEATURE_SELFOVERLAP>  (1) 
45.802

>  <PUBCHEM_SHAPE_FINGERPRINT>  (1) 
10411042 1 18410856563940869607
10616163 171 18268150860136263014
1100329 8 18338237042699927889
11056379 131 18123479285006593550
116883 192 18339362955090667742
12107183 9 18341629113955853403
12553582 1 18338815458281819375
12788726 201 18190181191833041322
13004483 165 18339349773767665907
13140716 1 18337681827460062155
138480 1 14879752547307932418
14081887 123 18195232335587805378
14251705 54 18338518650319503698
14251757 5 17692277152526911870
14363568 33 17832453125262706882
14790565 3 17835245549785183657
14844126 61 18046904879568485250
14866123 147 17979635628794537339
15352361 1 18410853261158264398
15927050 60 16900176765194764157
17859628 97 16752126407612342410
19591789 44 17474676053126009961
19930381 70 17977663435626118499
20645477 70 17903908204467178719
21452121 199 18336256920847190552
22113638 7 18270110344001438303
2255824 54 18051700145908296045
23184049 29 18337958883115988990
23559900 14 18194673994002059697
23728640 28 17832708967552536570
257057 1 18410855460128200773
3091708 16 9137491932425354169
314173 41 18339655541195239615
33824 294 17618224352747265443
3421961 26 18339641273456066699
5309563 4 18338802333073318067
6443956 14 18337109063785957143
7364860 26 18050287265103379729
81228 2 18264779765558043088
9709674 26 17839175217422273406

>  <PUBCHEM_SHAPE_MULTIPOLES>  (1) 
402.28
7.09
5.82
0.73
0.02
6.32
0
-8.36
0
-0.01
0
0
-0.29
0.09

>  <PUBCHEM_SHAPE_SELFOVERLAP>  (1) 
873.019

>  <PUBCHEM_SHAPE_VOLUME>  (1) 
206.5

>  <PUBCHEM_COORDINATE_TYPE>  (1) 
2
5
10

$$$$
