21818
     RDKit          3D

 17 17  0  0  0  0  0  0  0  0999 V2000
   -2.3382    0.5227    0.1325 N   0  0  0  0  0  0  0  0  0  0  0  0
    2.3436    0.5410   -0.1334 N   0  0  0  0  0  0  0  0  0  0  0  0
    0.0026    0.5637    0.0008 N   0  0  0  0  0  0  0  0  0  0  0  0
    1.2087   -1.5097   -0.0672 N   0  0  0  0  0  0  0  0  0  0  0  0
   -1.1869   -1.5192    0.0689 N   0  0  0  0  0  0  0  0  0  0  0  0
    0.0189   -3.5293    0.0005 N   0  0  0  0  0  0  0  0  0  0  0  0
   -3.6073   -0.1899    0.2038 C   0  0  0  0  0  0  0  0  0  0  0  0
   -2.3672    1.9797    0.1476 C   0  0  0  0  0  0  0  0  0  0  0  0
    3.6037   -0.1701   -0.2058 C   0  0  0  0  0  0  0  0  0  0  0  0
    2.3468    1.9898   -0.1483 C   0  0  0  0  0  0  0  0  0  0  0  0
   -1.1293   -0.1700    0.0652 C   0  0  0  0  0  0  0  0  0  0  0  0
    1.1259   -0.1694   -0.0629 C   0  0  0  0  0  0  0  0  0  0  0  0
   -4.0604   -0.6435   -1.1736 C   0  0  0  0  0  0  0  0  0  0  0  0
   -2.0964    2.5198    1.5416 C   0  0  0  0  0  0  0  0  0  0  0  0
    4.0581   -0.6233    1.1713 C   0  0  0  0  0  0  0  0  0  0  0  0
    2.0641    2.5251   -1.5418 C   0  0  0  0  0  0  0  0  0  0  0  0
    0.0133   -2.1175    0.0009 C   0  0  0  0  0  0  0  0  0  0  0  0
  1  7  1  0
  1  8  1  0
  1 11  1  0
  2  9  1  0
  2 10  1  0
  2 12  1  0
  3 11  2  0
  3 12  1  0
  4 12  2  0
  4 17  1  0
  5 11  1  0
  5 17  2  0
  6 17  1  0
  7 13  1  0
  8 14  1  0
  9 15  1  0
 10 16  1  0
M  END
>  <PUBCHEM_COMPOUND_CID>  (1) 
21818

>  <PUBCHEM_CONFORMER_RMSD>  (1) 
0.8

>  <PUBCHEM_CONFORMER_DIVERSEORDER>  (1) 
1
9
2
13
12
15
10
7
4
8
14
11
6
5
3

>  <PUBCHEM_MMFF94_PARTIAL_CHARGES>  (1) 
15
1 -0.84
10 0.37
11 0.72
12 0.72
17 0.72
2 -0.84
3 -0.62
38 0.4
39 0.4
4 -0.62
5 -0.62
6 -0.9
7 0.37
8 0.37
9 0.37

>  <PUBCHEM_EFFECTIVE_ROTOR_COUNT>  (1) 
6

>  <PUBCHEM_PHARMACOPHORE_FEATURES>  (1) 
5
1 6 donor
4 1 3 5 11 cation
4 2 3 4 12 cation
4 4 5 6 17 cation
6 3 4 5 11 12 17 rings

>  <PUBCHEM_HEAVY_ATOM_COUNT>  (1) 
17

>  <PUBCHEM_ATOM_DEF_STEREO_COUNT>  (1) 
0

>  <PUBCHEM_ATOM_UDEF_STEREO_COUNT>  (1) 
0

>  <PUBCHEM_BOND_DEF_STEREO_COUNT>  (1) 
0

>  <PUBCHEM_BOND_UDEF_STEREO_COUNT>  (1) 
0

>  <PUBCHEM_ISOTOPIC_ATOM_COUNT>  (1) 
0

>  <PUBCHEM_COMPONENT_COUNT>  (1) 
1

>  <PUBCHEM_CACTVS_TAUTO_COUNT>  (1) 
3

>  <PUBCHEM_CONFORMER_ID>  (1) 
0000553A00000001

>  <PUBCHEM_MMFF94_ENERGY>  (1) 
47.9704

>  <PUBCHEM_FEATURE_SELFOVERLAP>  (1) 
25.501

>  <PUBCHEM_SHAPE_FINGERPRINT>  (1) 
12251169 10 18334570283100584888
12403260 363 18410565193353526144
13140716 1 18266741470422450723
13380535 76 18410291414969279131
13538477 17 18191303986567965366
13583140 156 17168141286367244459
14178342 30 18196653990773238185
15442244 35 18408602565725641512
15490181 8 18338533974715154630
16945 1 18410586084074629282
17862501 102 18339069424098429442
18186145 218 18409732893226763005
19107657 47 17675920993122813997
192875 21 18410002252037778557
200 152 18342444946776856133
20510252 161 18272934946401773384
20671657 1 18188501297285797892
21501502 16 18196088833554708115
21524375 3 18335139786631112146
22094290 62 18334295409362085508
2334 1 17978513366234481155
23402539 116 18272639160704646085
23419403 2 16177280271048968654
23557571 272 17275108305867875633
23559900 14 18200037390902057980
2748010 2 17334777968699350577
305870 269 18195531393680239874
352729 6 18338804531880126854
474 4 18335991861261878369
537710 114 18267026240171801069
58051976 378 18342453725463461127
6992083 37 18333449833417875320
7364860 26 17983015544322771655
74978 22 18262802998750211230
7832392 63 17980770333157535153

>  <PUBCHEM_SHAPE_MULTIPOLES>  (1) 
319.97
6.49
3.13
1.08
0.04
0.54
0
-0.79
0.01
0
0
0.01
-0.66
-1.5

>  <PUBCHEM_SHAPE_SELFOVERLAP>  (1) 
631.133

>  <PUBCHEM_SHAPE_VOLUME>  (1) 
180.8

>  <PUBCHEM_COORDINATE_TYPE>  (1) 
2
5
10

$$$$
