21819
     RDKit          3D

 11 11  0  0  0  0  0  0  0  0999 V2000
    1.8454   -0.6047   -0.0060 N   0  0  0  0  0  0  0  0  0  0  0  0
   -0.3830   -1.3337   -0.0013 N   0  0  0  0  0  0  0  0  0  0  0  0
    0.1427    1.0075   -0.0011 N   0  0  0  0  0  0  0  0  0  0  0  0
   -2.1478    0.2922    0.0024 N   0  0  0  0  0  0  0  0  0  0  0  0
   -2.6308   -2.0025    0.0016 N   0  0  0  0  0  0  0  0  0  0  0  0
   -1.6031    2.5730    0.0012 N   0  0  0  0  0  0  0  0  0  0  0  0
    2.8904    0.3895   -0.0074 C   0  0  0  0  0  0  0  0  0  0  0  0
    0.4926   -0.3007   -0.0024 C   0  0  0  0  0  0  0  0  0  0  0  0
    4.2501   -0.2819    0.0111 C   0  0  0  0  0  0  0  0  0  0  0  0
   -1.6741   -0.9643    0.0010 C   0  0  0  0  0  0  0  0  0  0  0  0
   -1.1823    1.2255    0.0010 C   0  0  0  0  0  0  0  0  0  0  0  0
  1  7  1  0
  1  8  1  0
  2  8  2  0
  2 10  1  0
  3  8  1  0
  3 11  2  0
  4 10  2  0
  4 11  1  0
  5 10  1  0
  6 11  1  0
  7  9  1  0
M  END
>  <PUBCHEM_COMPOUND_CID>  (1) 
21819

>  <PUBCHEM_CONFORMER_RMSD>  (1) 
0.4

>  <PUBCHEM_CONFORMER_DIVERSEORDER>  (1) 
1
4
3
2

>  <PUBCHEM_MMFF94_PARTIAL_CHARGES>  (1) 
15
1 -0.87
10 0.72
11 0.72
14 0.4
18 0.4
19 0.4
2 -0.62
20 0.4
21 0.4
3 -0.62
4 -0.62
5 -0.9
6 -0.9
7 0.37
8 0.72

>  <PUBCHEM_EFFECTIVE_ROTOR_COUNT>  (1) 
2

>  <PUBCHEM_PHARMACOPHORE_FEATURES>  (1) 
7
1 1 donor
1 5 donor
1 6 donor
4 1 2 3 8 cation
4 2 4 5 10 cation
4 3 4 6 11 cation
6 2 3 4 8 10 11 rings

>  <PUBCHEM_HEAVY_ATOM_COUNT>  (1) 
11

>  <PUBCHEM_ATOM_DEF_STEREO_COUNT>  (1) 
0

>  <PUBCHEM_ATOM_UDEF_STEREO_COUNT>  (1) 
0

>  <PUBCHEM_BOND_DEF_STEREO_COUNT>  (1) 
0

>  <PUBCHEM_BOND_UDEF_STEREO_COUNT>  (1) 
0

>  <PUBCHEM_ISOTOPIC_ATOM_COUNT>  (1) 
0

>  <PUBCHEM_COMPONENT_COUNT>  (1) 
1

>  <PUBCHEM_CACTVS_TAUTO_COUNT>  (1) 
10

>  <PUBCHEM_CONFORMER_ID>  (1) 
0000553B00000001

>  <PUBCHEM_MMFF94_ENERGY>  (1) 
31.3238

>  <PUBCHEM_FEATURE_SELFOVERLAP>  (1) 
35.649

>  <PUBCHEM_SHAPE_FINGERPRINT>  (1) 
10857977 72 18269545186555385938
12032990 46 18265899240199585579
12716758 59 18268997488083605998
13024252 1 17676207970147679763
13380535 76 18196929972444319175
14325111 11 18410855422143356128
20871998 184 18273498991571945975
21040471 1 18122624946711712805
23402539 116 18343574149429185895
23552423 10 18187927338961353260
2748010 2 18195796595268575821
6333449 129 18341328911877148620

>  <PUBCHEM_SHAPE_MULTIPOLES>  (1) 
196.49
5.19
1.96
0.57
6.31
0.68
0
-0.95
0.01
-2.07
0
0.05
0
0

>  <PUBCHEM_SHAPE_SELFOVERLAP>  (1) 
394.945

>  <PUBCHEM_SHAPE_VOLUME>  (1) 
104.7

>  <PUBCHEM_COORDINATE_TYPE>  (1) 
2
5
10

$$$$
