21821
     RDKit          3D

 23 25  0  0  1  0  0  0  0  0999 V2000
    3.7400   -2.9586   -1.7689 Cl  0  0  0  0  0  0  0  0  0  0  0  0
   -3.0325   -0.6264    1.9682 O   0  0  0  0  0  0  0  0  0  0  0  0
   -3.3562    1.9083   -0.0518 O   0  0  0  0  0  0  0  0  0  0  0  0
   -1.1171   -1.7411    1.4133 N   0  0  0  0  0  0  0  0  0  0  0  0
   -0.9320    0.9059   -0.0254 N   0  0  0  0  0  0  0  0  0  0  0  0
   -4.1582    0.0334   -1.1746 N   0  0  0  0  0  0  0  0  0  0  0  0
    0.6975   -0.9467   -0.0952 C   0  0  0  0  0  0  0  0  0  0  0  0
   -2.0088   -0.0563   -0.1302 C   0  0  0  0  0  0  0  0  0  0  0  0
    0.2879    0.4885   -0.0279 C   0  0  0  0  0  0  0  0  0  0  0  0
    0.0631   -1.9403    0.6677 C   0  0  0  0  0  0  0  0  0  0  0  0
   -2.0969   -0.7969    1.1847 C   0  0  0  0  0  0  0  0  0  0  0  0
    1.3483    1.5317    0.0774 C   0  0  0  0  0  0  0  0  0  0  0  0
    1.8253   -1.2776   -0.8643 C   0  0  0  0  0  0  0  0  0  0  0  0
    0.6327   -3.2211    0.7304 C   0  0  0  0  0  0  0  0  0  0  0  0
   -3.2285    0.7505   -0.4411 C   0  0  0  0  0  0  0  0  0  0  0  0
    2.3511   -2.5686   -0.8303 C   0  0  0  0  0  0  0  0  0  0  0  0
    1.7658   -3.5351   -0.0198 C   0  0  0  0  0  0  0  0  0  0  0  0
    2.5451    1.2311    0.7150 C   0  0  0  0  0  0  0  0  0  0  0  0
    1.1266    2.7917   -0.4636 C   0  0  0  0  0  0  0  0  0  0  0  0
    3.5370    2.2069    0.8133 C   0  0  0  0  0  0  0  0  0  0  0  0
    2.1186    3.7675   -0.3657 C   0  0  0  0  0  0  0  0  0  0  0  0
    3.3238    3.4750    0.2727 C   0  0  0  0  0  0  0  0  0  0  0  0
   -5.4325    0.5782   -1.5839 C   0  0  0  0  0  0  0  0  0  0  0  0
  1 16  1  0
  2 11  2  0
  3 15  2  0
  4 10  1  0
  4 11  1  0
  5  8  1  0
  5  9  2  0
  6 15  1  0
  6 23  1  0
  7  9  1  0
  7 10  2  0
  7 13  1  0
  8 11  1  0
  8 15  1  0
  9 12  1  0
 10 14  1  0
 12 18  2  0
 12 19  1  0
 13 16  2  0
 14 17  2  0
 16 17  1  0
 18 20  1  0
 19 21  2  0
 20 22  2  0
 21 22  1  0
M  END
>  <PUBCHEM_COMPOUND_CID>  (1) 
21821

>  <PUBCHEM_CONFORMER_RMSD>  (1) 
0.6

>  <PUBCHEM_CONFORMER_DIVERSEORDER>  (1) 
1
10
6
8
12
13
4
9
11
3
7
5
2

>  <PUBCHEM_MMFF94_PARTIAL_CHARGES>  (1) 
33
1 -0.18
10 0.12
11 0.57
12 0.09
13 -0.15
14 -0.15
15 0.57
16 0.18
17 -0.15
18 -0.15
19 -0.15
2 -0.57
20 -0.15
21 -0.15
22 -0.15
23 0.3
25 0.37
26 0.15
27 0.15
28 0.15
29 0.15
3 -0.57
30 0.15
31 0.37
32 0.15
33 0.15
34 0.15
4 -0.55
5 -0.7
6 -0.73
7 0.09
8 0.37
9 0.28

>  <PUBCHEM_EFFECTIVE_ROTOR_COUNT>  (1) 
3.4

>  <PUBCHEM_PHARMACOPHORE_FEATURES>  (1) 
9
1 2 acceptor
1 3 acceptor
1 4 donor
1 5 acceptor
1 6 donor
1 8 anion
6 12 18 19 20 21 22 rings
6 7 10 13 14 16 17 rings
7 4 5 7 8 9 10 11 rings

>  <PUBCHEM_HEAVY_ATOM_COUNT>  (1) 
23

>  <PUBCHEM_ATOM_DEF_STEREO_COUNT>  (1) 
0

>  <PUBCHEM_ATOM_UDEF_STEREO_COUNT>  (1) 
1

>  <PUBCHEM_BOND_DEF_STEREO_COUNT>  (1) 
0

>  <PUBCHEM_BOND_UDEF_STEREO_COUNT>  (1) 
0

>  <PUBCHEM_ISOTOPIC_ATOM_COUNT>  (1) 
0

>  <PUBCHEM_COMPONENT_COUNT>  (1) 
1

>  <PUBCHEM_CACTVS_TAUTO_COUNT>  (1) 
6

>  <PUBCHEM_CONFORMER_ID>  (1) 
0000553D00000001

>  <PUBCHEM_MMFF94_ENERGY>  (1) 
80.1192

>  <PUBCHEM_FEATURE_SELFOVERLAP>  (1) 
45.692

>  <PUBCHEM_SHAPE_FINGERPRINT>  (1) 
10165383 225 17616020815154304044
10411042 1 17905878180958485483
10764073 3 14137991496395493813
10930396 42 18118937263103583722
12160290 23 17264415826081391446
12293681 160 17828780447220029058
12553582 1 17978235954402340667
12788726 201 17256254743800129026
13009979 54 17345475882056865963
13134695 92 18193842543778180742
13140716 1 18336273417457651266
133893 2 18201734937020881546
13590594 115 17907868297221135673
13681431 1 18200601276435228018
14739800 52 13190350045534650959
14955137 171 17766025816959274075
15230672 131 18120951748989539428
15475509 8 17195744264064167669
16752209 62 17621305171506753858
1813 80 17557446300369399542
21344244 246 18272647978636904806
22182313 1 18114191869089919635
22907989 373 17327173759050509780
23419403 2 17973199250470077074
23559900 14 18409726253112332017
23598288 3 17539677424061038360
238 59 18411698811617384271
2748010 2 18188224185584078235
3091708 16 9330613453468555464
352729 6 18121500429657953392
4017518 198 17916579982104857878
4409770 3 17473816707289321484
474 4 18337098051622023157
532947 4 18412546501023081580
59444896 2 17475175557770157442
6138700 20 18340201904807617070
633830 44 17629511792789101696
70251023 43 18200314299858755343
7364860 26 18341043034590562669
81228 2 17404317200231395170
9862522 239 17975967979979234512
9981440 41 18265602359576176369

>  <PUBCHEM_SHAPE_MULTIPOLES>  (1) 
448.52
7.16
4.99
1.37
8.71
0.25
0
2.56
2.87
-7.15
0.41
0.64
-0.71
2.03

>  <PUBCHEM_SHAPE_SELFOVERLAP>  (1) 
971.534

>  <PUBCHEM_SHAPE_VOLUME>  (1) 
244.1

>  <PUBCHEM_COORDINATE_TYPE>  (1) 
2
5
10

$$$$
