21822
     RDKit          3D

 25 27  0  0  0  0  0  0  0  0999 V2000
   -1.5332    4.2119   -0.7596 Cl  0  0  0  0  0  0  0  0  0  0  0  0
    4.0739    2.5838    1.1193 Cl  0  0  0  0  0  0  0  0  0  0  0  0
    5.5475   -3.2012   -0.6895 Cl  0  0  0  0  0  0  0  0  0  0  0  0
   -1.4239   -1.6042    0.0741 O   0  0  0  0  0  0  0  0  0  0  0  0
    1.0596   -1.4232   -0.7488 O   0  0  0  0  0  0  0  0  0  0  0  0
    2.1202    0.4965    0.0848 N   0  0  0  0  0  0  0  0  0  0  0  0
   -2.6725    0.4311   -0.1060 C   0  0  0  0  0  0  0  0  0  0  0  0
   -0.2644    0.4427   -0.3287 C   0  0  0  0  0  0  0  0  0  0  0  0
   -1.4553   -0.2527   -0.1185 C   0  0  0  0  0  0  0  0  0  0  0  0
   -3.9199   -0.2699    0.1091 C   0  0  0  0  0  0  0  0  0  0  0  0
   -2.6943    1.8130   -0.3044 C   0  0  0  0  0  0  0  0  0  0  0  0
   -0.2886    1.8232   -0.5266 C   0  0  0  0  0  0  0  0  0  0  0  0
    1.0164   -0.2511   -0.3455 C   0  0  0  0  0  0  0  0  0  0  0  0
   -1.5035    2.5083   -0.5144 C   0  0  0  0  0  0  0  0  0  0  0  0
   -4.6294   -0.7805   -0.9778 C   0  0  0  0  0  0  0  0  0  0  0  0
   -4.4127   -0.4352    1.4034 C   0  0  0  0  0  0  0  0  0  0  0  0
    3.4784    0.1004    0.1541 C   0  0  0  0  0  0  0  0  0  0  0  0
   -5.8319   -1.4563   -0.7704 C   0  0  0  0  0  0  0  0  0  0  0  0
   -5.6150   -1.1112    1.6110 C   0  0  0  0  0  0  0  0  0  0  0  0
    4.4498    0.9761    0.6108 C   0  0  0  0  0  0  0  0  0  0  0  0
    3.7999   -1.1870   -0.2469 C   0  0  0  0  0  0  0  0  0  0  0  0
   -6.3247   -1.6217    0.5240 C   0  0  0  0  0  0  0  0  0  0  0  0
    5.1283   -1.6088   -0.1896 C   0  0  0  0  0  0  0  0  0  0  0  0
    5.7780    0.5542    0.6682 C   0  0  0  0  0  0  0  0  0  0  0  0
    6.1174   -0.7382    0.2680 C   0  0  0  0  0  0  0  0  0  0  0  0
  1 14  1  0
  2 20  1  0
  3 23  1  0
  4  9  1  0
  5 13  2  0
  6 13  1  0
  6 17  1  0
  7  9  2  0
  7 10  1  0
  7 11  1  0
  8  9  1  0
  8 12  2  0
  8 13  1  0
 10 15  2  0
 10 16  1  0
 11 14  2  0
 12 14  1  0
 15 18  1  0
 16 19  2  0
 17 20  2  0
 17 21  1  0
 18 22  2  0
 19 22  1  0
 20 24  1  0
 21 23  2  0
 23 25  1  0
 24 25  2  0
M  END
>  <PUBCHEM_COMPOUND_CID>  (1) 
21822

>  <PUBCHEM_CONFORMER_RMSD>  (1) 
0.8

>  <PUBCHEM_CONFORMER_DIVERSEORDER>  (1) 
3
15
1
12
13
10
8
4
14
11
9
7
6
5
2

>  <PUBCHEM_MMFF94_PARTIAL_CHARGES>  (1) 
35
1 -0.18
11 -0.15
12 -0.15
13 0.54
14 0.18
15 -0.15
16 -0.15
17 0.12
18 -0.15
19 -0.15
2 -0.18
20 0.18
21 -0.15
22 -0.15
23 0.18
24 -0.15
25 -0.15
26 0.15
27 0.15
28 0.15
29 0.15
3 -0.18
30 0.37
31 0.15
32 0.15
33 0.15
34 0.15
35 0.45
36 0.15
37 0.15
4 -0.53
5 -0.57
6 -0.55
8 0.09
9 0.08

>  <PUBCHEM_EFFECTIVE_ROTOR_COUNT>  (1) 
4

>  <PUBCHEM_PHARMACOPHORE_FEATURES>  (1) 
6
1 4 donor
1 5 acceptor
1 6 donor
6 10 15 16 18 19 22 rings
6 17 20 21 23 24 25 rings
6 7 8 9 11 12 14 rings

>  <PUBCHEM_HEAVY_ATOM_COUNT>  (1) 
25

>  <PUBCHEM_ATOM_DEF_STEREO_COUNT>  (1) 
0

>  <PUBCHEM_ATOM_UDEF_STEREO_COUNT>  (1) 
0

>  <PUBCHEM_BOND_DEF_STEREO_COUNT>  (1) 
0

>  <PUBCHEM_BOND_UDEF_STEREO_COUNT>  (1) 
0

>  <PUBCHEM_ISOTOPIC_ATOM_COUNT>  (1) 
0

>  <PUBCHEM_COMPONENT_COUNT>  (1) 
1

>  <PUBCHEM_CACTVS_TAUTO_COUNT>  (1) 
7

>  <PUBCHEM_CONFORMER_ID>  (1) 
0000553E00000003

>  <PUBCHEM_MMFF94_ENERGY>  (1) 
83.8249

>  <PUBCHEM_FEATURE_SELFOVERLAP>  (1) 
30.446

>  <PUBCHEM_SHAPE_FINGERPRINT>  (1) 
10 15 18336816603111403728
11545043 162 18336544898578388968
11796584 16 16733261352533547371
12166972 35 17989490719271050712
12236239 1 17917430964938620223
12403259 226 18340482271161091068
12516196 113 18334856160366039395
12596602 18 17775570840187203819
12616971 3 17203603783469007508
12623949 98 18201730530864861222
12760667 363 18334016090664731275
13073987 5 18130786716588858032
13533116 47 18343022207524507714
13782708 43 18339925901224180958
13862211 1 18408886274027570759
14341114 176 18342741814958494952
14341114 328 16773808021240116163
14347332 77 18337950078480608814
14840074 17 18272932773353874727
14848160 23 18040431113980863219
16087824 20 18191584148398839013
17349148 13 17458637691364127006
17492 89 18338514111171990066
17844677 252 18343304738894432920
17980427 23 17489034872390401929
1813 80 18341066185028985877
18222031 100 17167583786969940862
18608769 82 18410856599186272738
18927931 339 18335988580096723007
19489759 90 16877937239989404887
20281389 69 11312057638602705271
21236236 1 18411418372076107169
21267235 1 18412548700310191590
21682296 61 18411423877797003751
21756936 100 14117511039180454213
21792934 111 18410571795525700153
23402539 116 18410570687191516021
23522609 53 18054542233269505024
23559900 14 18337100181757074980
23569914 152 17256774842991823191
23845131 108 17548145433180254689
24771750 20 17175475205150961373
283562 15 18261670377209156825
300161 21 9439400216516053148
3004659 81 17313104189149349748
3009799 131 18041548214074502213
350125 39 18413389817788847684
3663271 9 17632861940320734851
4340502 62 15195295234786041079
50009960 94 17681253492166002298
5104073 3 18269270175857877664
5969126 39 18411971456658487733
59755656 215 18113053822388420730

>  <PUBCHEM_SHAPE_MULTIPOLES>  (1) 
503.38
16.36
3.36
1.07
3.1
2.7
0.25
-11.18
3.19
1.04
-0.8
-0.84
-0.02
2.12

>  <PUBCHEM_SHAPE_SELFOVERLAP>  (1) 
1080.377

>  <PUBCHEM_SHAPE_VOLUME>  (1) 
280.9

>  <PUBCHEM_COORDINATE_TYPE>  (1) 
2
5
10

$$$$
