21820
     RDKit          3D

 15 16  0  0  0  0  0  0  0  0999 V2000
   -0.4451   -1.1011   -0.1323 N   0  0  0  0  0  0  0  0  0  0  0  0
    1.8852   -1.3602   -0.1436 N   0  0  0  0  0  0  0  0  0  0  0  0
    0.8925    0.8103    0.1029 N   0  0  0  0  0  0  0  0  0  0  0  0
    3.2807    0.5770    0.0963 N   0  0  0  0  0  0  0  0  0  0  0  0
    4.2220   -1.5570   -0.1458 N   0  0  0  0  0  0  0  0  0  0  0  0
    2.2817    2.6848    0.3368 N   0  0  0  0  0  0  0  0  0  0  0  0
   -1.7441   -0.5542   -0.0798 C   0  0  0  0  0  0  0  0  0  0  0  0
    0.8370   -0.5234   -0.0542 C   0  0  0  0  0  0  0  0  0  0  0  0
   -2.7993   -1.3103    0.4306 C   0  0  0  0  0  0  0  0  0  0  0  0
   -1.9735    0.7429   -0.5385 C   0  0  0  0  0  0  0  0  0  0  0  0
   -4.0841   -0.7695    0.4818 C   0  0  0  0  0  0  0  0  0  0  0  0
   -3.2583    1.2837   -0.4871 C   0  0  0  0  0  0  0  0  0  0  0  0
   -4.3135    0.5275    0.0230 C   0  0  0  0  0  0  0  0  0  0  0  0
    3.0735   -0.7404   -0.0604 C   0  0  0  0  0  0  0  0  0  0  0  0
    2.1451    1.2897    0.1703 C   0  0  0  0  0  0  0  0  0  0  0  0
  1  7  1  0
  1  8  1  0
  2  8  2  0
  2 14  1  0
  3  8  1  0
  3 15  2  0
  4 14  2  0
  4 15  1  0
  5 14  1  0
  6 15  1  0
  7  9  2  0
  7 10  1  0
  9 11  1  0
 10 12  2  0
 11 13  2  0
 12 13  1  0
M  END
>  <PUBCHEM_COMPOUND_CID>  (1) 
21820

>  <PUBCHEM_CONFORMER_RMSD>  (1) 
0.6

>  <PUBCHEM_CONFORMER_DIVERSEORDER>  (1) 
1
3
2

>  <PUBCHEM_MMFF94_PARTIAL_CHARGES>  (1) 
25
1 -0.6
10 -0.15
11 -0.15
12 -0.15
13 -0.15
14 0.72
15 0.72
16 0.4
17 0.15
18 0.15
19 0.15
2 -0.62
20 0.15
21 0.15
22 0.4
23 0.4
24 0.4
25 0.4
3 -0.62
4 -0.62
5 -0.9
6 -0.9
7 0.1
8 0.72
9 -0.15

>  <PUBCHEM_EFFECTIVE_ROTOR_COUNT>  (1) 
2

>  <PUBCHEM_PHARMACOPHORE_FEATURES>  (1) 
8
1 1 donor
1 5 donor
1 6 donor
4 1 2 3 8 cation
4 2 4 5 14 cation
4 3 4 6 15 cation
6 2 3 4 8 14 15 rings
6 7 9 10 11 12 13 rings

>  <PUBCHEM_HEAVY_ATOM_COUNT>  (1) 
15

>  <PUBCHEM_ATOM_DEF_STEREO_COUNT>  (1) 
0

>  <PUBCHEM_ATOM_UDEF_STEREO_COUNT>  (1) 
0

>  <PUBCHEM_BOND_DEF_STEREO_COUNT>  (1) 
0

>  <PUBCHEM_BOND_UDEF_STEREO_COUNT>  (1) 
0

>  <PUBCHEM_ISOTOPIC_ATOM_COUNT>  (1) 
0

>  <PUBCHEM_COMPONENT_COUNT>  (1) 
1

>  <PUBCHEM_CACTVS_TAUTO_COUNT>  (1) 
10

>  <PUBCHEM_CONFORMER_ID>  (1) 
0000553C00000001

>  <PUBCHEM_MMFF94_ENERGY>  (1) 
55.4941

>  <PUBCHEM_FEATURE_SELFOVERLAP>  (1) 
40.727

>  <PUBCHEM_SHAPE_FINGERPRINT>  (1) 
10608611 8 18408881849979095269
11471102 20 18412823581826255214
11615757 297 18131075947865041923
12032990 46 18408889516179064607
124424 183 18337107878137723439
12507557 5 18413668002313850489
12916754 54 18341614854158112171
13134695 92 17489296465467549696
13922767 16 18413386523115953842
14325111 11 18410011061263252221
14866123 147 16827279139730691962
15196674 1 18410012143637377725
15219456 202 18410009961656711377
15442244 35 18340488855018479568
15536298 74 18412825815067019124
15653759 3 18114181934434697539
17802600 8 18408599249704946957
17804303 29 18334862688394647503
18175812 5 18408042922717709815
18186145 218 18272658943318801483
18522853 276 18343300344852602560
200 152 17988916774164453943
20528008 55 18334290985783108543
20645477 70 18343582923609891966
21065198 57 18408887343337017539
221490 88 18336553814629925722
22854114 111 18341049708901207792
23402539 116 17916858033238434693
23402655 69 18343017783338895269
23559900 14 18409725157879873395
474 4 15142110844102250742
5104073 3 18409450301816999339
69090 78 18412539929771020199
7364860 26 18341894138548462576
77779 3 18408888446974761995
8809292 202 18260834786625936563
9709674 26 18336549429500185819

>  <PUBCHEM_SHAPE_MULTIPOLES>  (1) 
278.81
8.25
1.91
0.66
1.15
0.79
0
-0.66
-0.31
-1.19
-0.13
0.21
0.03
0.7

>  <PUBCHEM_SHAPE_SELFOVERLAP>  (1) 
596.496

>  <PUBCHEM_SHAPE_VOLUME>  (1) 
142.5

>  <PUBCHEM_COORDINATE_TYPE>  (1) 
2
5
10

$$$$
