21833
     RDKit          3D

 18 19  0  0  0  0  0  0  0  0999 V2000
   -1.9373   -3.7280   -0.6047 Cl  0  0  0  0  0  0  0  0  0  0  0  0
    2.4377    0.8007   -2.4330 Cl  0  0  0  0  0  0  0  0  0  0  0  0
    0.1911    2.0609   -0.6388 O   0  0  0  0  0  0  0  0  0  0  0  0
   -2.2151    2.0770    0.5388 N   0  0  0  0  0  0  0  0  0  0  0  0
   -0.9500    0.0903   -0.1045 C   0  0  0  0  0  0  0  0  0  0  0  0
   -2.1319    0.6941    0.2631 C   0  0  0  0  0  0  0  0  0  0  0  0
    0.2981    0.8994   -0.2234 C   0  0  0  0  0  0  0  0  0  0  0  0
    1.6084    0.3665    0.1299 C   0  0  0  0  0  0  0  0  0  0  0  0
   -0.8602   -1.2585   -0.3751 C   0  0  0  0  0  0  0  0  0  0  0  0
   -3.2820   -0.0883    0.3655 C   0  0  0  0  0  0  0  0  0  0  0  0
   -2.0104   -2.0410   -0.2726 C   0  0  0  0  0  0  0  0  0  0  0  0
   -3.2213   -1.4558    0.0979 C   0  0  0  0  0  0  0  0  0  0  0  0
    2.6454    0.2806   -0.7992 C   0  0  0  0  0  0  0  0  0  0  0  0
    1.8101   -0.0631    1.4416 C   0  0  0  0  0  0  0  0  0  0  0  0
    3.8839   -0.2346   -0.4164 C   0  0  0  0  0  0  0  0  0  0  0  0
    3.0486   -0.5784    1.8242 C   0  0  0  0  0  0  0  0  0  0  0  0
   -3.4003    2.8423    0.3113 C   0  0  0  0  0  0  0  0  0  0  0  0
    4.0854   -0.6642    0.8953 C   0  0  0  0  0  0  0  0  0  0  0  0
  1 11  1  0
  2 13  1  0
  3  7  2  0
  4  6  1  0
  4 17  1  0
  5  6  2  0
  5  7  1  0
  5  9  1  0
  6 10  1  0
  7  8  1  0
  8 13  2  0
  8 14  1  0
  9 11  2  0
 10 12  2  0
 11 12  1  0
 13 15  1  0
 14 16  2  0
 15 18  2  0
 16 18  1  0
M  END
>  <PUBCHEM_COMPOUND_CID>  (1) 
21833

>  <PUBCHEM_CONFORMER_RMSD>  (1) 
0.6

>  <PUBCHEM_CONFORMER_DIVERSEORDER>  (1) 
1
2
9
7
4
5
6
8
3

>  <PUBCHEM_MMFF94_PARTIAL_CHARGES>  (1) 
26
1 -0.18
10 -0.15
11 0.18
12 -0.15
13 0.18
14 -0.15
15 -0.15
16 -0.15
17 0.37
18 -0.15
19 0.15
2 -0.18
20 0.15
21 0.4
22 0.15
23 0.15
24 0.15
25 0.15
29 0.15
3 -0.57
4 -0.87
5 0.09
6 0.1
7 0.4
8 0.09
9 -0.15

>  <PUBCHEM_EFFECTIVE_ROTOR_COUNT>  (1) 
3

>  <PUBCHEM_PHARMACOPHORE_FEATURES>  (1) 
5
1 3 acceptor
1 4 cation
1 4 donor
6 5 6 9 10 11 12 rings
6 8 13 14 15 16 18 rings

>  <PUBCHEM_HEAVY_ATOM_COUNT>  (1) 
18

>  <PUBCHEM_ATOM_DEF_STEREO_COUNT>  (1) 
0

>  <PUBCHEM_ATOM_UDEF_STEREO_COUNT>  (1) 
0

>  <PUBCHEM_BOND_DEF_STEREO_COUNT>  (1) 
0

>  <PUBCHEM_BOND_UDEF_STEREO_COUNT>  (1) 
0

>  <PUBCHEM_ISOTOPIC_ATOM_COUNT>  (1) 
0

>  <PUBCHEM_COMPONENT_COUNT>  (1) 
1

>  <PUBCHEM_CACTVS_TAUTO_COUNT>  (1) 
3

>  <PUBCHEM_CONFORMER_ID>  (1) 
0000554900000001

>  <PUBCHEM_MMFF94_ENERGY>  (1) 
69.0717

>  <PUBCHEM_FEATURE_SELFOVERLAP>  (1) 
25.371

>  <PUBCHEM_SHAPE_FINGERPRINT>  (1) 
10366900 7 17346596408711642898
11471102 22 15769784558804538254
11578080 2 17824233068859564684
11725454 13 17057212502981261248
12236239 1 17967818236595691100
12346177 29 18201144508156824927
12403259 327 17843093971326353418
12500047 106 18271518693941943368
12553582 1 18195533824827460287
12788726 201 18264784310039799491
13140716 1 18196654227444942707
13538477 17 18334856164149433671
14178342 30 18339344340924174234
15042514 8 18339928224959840939
15375462 175 18270134498976073351
15375462 189 18040154032750291944
15653759 3 17561082527177415162
15669948 3 18409453621536665455
16752209 62 18411132537575442999
16945 1 18341614845346371671
17804303 29 18272652376213618219
1813 80 17314229956656459266
18186145 218 13045935785821385820
19049666 15 17202499800685310994
19422 9 18040161712051577176
20291156 8 18191865849715748059
20361792 2 17458891713205319646
20510252 161 18202285792726420193
212916 134 18055901122361666921
21452121 199 17836352019079844987
21634736 98 18115594897255293364
21639500 275 16371294449552482988
21731516 1 18189890005645181994
22112679 90 18259989275211555452
2255824 54 17385730244279974596
23184049 29 18196365046922031611
232386 152 18338513144366323278
23402539 116 18202272633474015871
23419403 2 16174458893978623185
23526113 38 16915667964859523780
23557571 272 18202291320613210220
23559900 14 18059020463215141286
23598288 3 18260843613063116047
23598291 2 17822305560608858348
23728640 28 18411133628407803571
2748010 2 18124611790409704431
465052 167 18115323296799325947
474 4 17242466142555310884
495365 180 16986861342520519486
58807428 26 18197223551203431187
602551 16 18343581845947393506
603831 33 18115597100431150116
6992083 37 18187364294329033405
74978 22 18409442626410026509
7615 1 18113617914992501084
77492 1 17967537869646735324
81228 2 18129663127242636011
84936 182 17194600750491540105
88987 49 18341617009783204540
90525 40 18334016060177966995

>  <PUBCHEM_SHAPE_MULTIPOLES>  (1) 
363.32
6.92
2.9
1.46
2.62
1.08
0.37
0.33
-0.97
-4.37
0.43
1.87
-0.12
-1.28

>  <PUBCHEM_SHAPE_SELFOVERLAP>  (1) 
767.272

>  <PUBCHEM_SHAPE_VOLUME>  (1) 
205.8

>  <PUBCHEM_COORDINATE_TYPE>  (1) 
2
5
10

$$$$
