21836
     RDKit          3D

  8  8  0  0  0  0  0  0  0  0999 V2000
   -2.4966    0.2418   -0.0325 C   0  0  0  0  0  0  0  0  0  0  0  0
   -1.9207   -1.1526    0.1739 C   0  0  0  0  0  0  0  0  0  0  0  0
   -1.3457    1.1709    0.3354 C   0  0  0  0  0  0  0  0  0  0  0  0
   -0.4989   -1.0444   -0.3647 C   0  0  0  0  0  0  0  0  0  0  0  0
   -0.1321    0.3817   -0.0668 C   0  0  0  0  0  0  0  0  0  0  0  0
    1.1059    0.8807   -0.1481 C   0  0  0  0  0  0  0  0  0  0  0  0
    2.3079    0.0802   -0.5512 C   0  0  0  0  0  0  0  0  0  0  0  0
    2.9802   -0.5584    0.6541 C   0  0  0  0  0  0  0  0  0  0  0  0
  1  2  1  0
  1  3  1  0
  2  4  1  0
  3  5  1  0
  4  5  1  0
  5  6  2  3
  6  7  1  0
  7  8  1  0
M  END
>  <PUBCHEM_COMPOUND_CID>  (1) 
21836

>  <PUBCHEM_CONFORMER_RMSD>  (1) 
0.4

>  <PUBCHEM_CONFORMER_DIVERSEORDER>  (1) 
1
3
2

>  <PUBCHEM_MMFF94_PARTIAL_CHARGES>  (1) 
6
17 0.15
3 0.14
4 0.14
5 -0.28
6 -0.29
7 0.14

>  <PUBCHEM_EFFECTIVE_ROTOR_COUNT>  (1) 
1.8

>  <PUBCHEM_PHARMACOPHORE_FEATURES>  (1) 
2
1 8 hydrophobe
5 1 2 3 4 5 rings

>  <PUBCHEM_HEAVY_ATOM_COUNT>  (1) 
8

>  <PUBCHEM_ATOM_DEF_STEREO_COUNT>  (1) 
0

>  <PUBCHEM_ATOM_UDEF_STEREO_COUNT>  (1) 
0

>  <PUBCHEM_BOND_DEF_STEREO_COUNT>  (1) 
0

>  <PUBCHEM_BOND_UDEF_STEREO_COUNT>  (1) 
0

>  <PUBCHEM_ISOTOPIC_ATOM_COUNT>  (1) 
0

>  <PUBCHEM_COMPONENT_COUNT>  (1) 
1

>  <PUBCHEM_CACTVS_TAUTO_COUNT>  (1) 
1

>  <PUBCHEM_CONFORMER_ID>  (1) 
0000554C00000001

>  <PUBCHEM_MMFF94_ENERGY>  (1) 
2.9517

>  <PUBCHEM_FEATURE_SELFOVERLAP>  (1) 
10.148

>  <PUBCHEM_SHAPE_FINGERPRINT>  (1) 
10857977 72 18131064969685975186
12932764 1 18040721372160432516
14325111 11 18410857659156867541
15310529 11 17313390045092955148
16714656 1 18411985766882531229
20645464 45 17489584563246666754
21040471 1 18197508332830270573
23552423 10 18044661029464710812
29004967 10 16343993510940874644
369184 2 15410896244999128839
5084963 1 18113054952064337981

>  <PUBCHEM_SHAPE_MULTIPOLES>  (1) 
164.64
4.05
1.25
0.75
1.86
0.06
-0.01
0.54
-0.46
-0.41
-0.05
0.22
0.03
-0.21

>  <PUBCHEM_SHAPE_SELFOVERLAP>  (1) 
317.987

>  <PUBCHEM_SHAPE_VOLUME>  (1) 
99

>  <PUBCHEM_COORDINATE_TYPE>  (1) 
2
5
10

$$$$
