21843
     RDKit          3D

  5  5  0  0  0  0  0  0  0  0999 V2000
   -0.2410   -0.0090   -0.4191 N   0  0  0  0  0  0  0  0  0  0  0  0
   -1.4169   -0.7311    0.0745 C   0  0  0  0  0  0  0  0  0  0  0  0
   -1.3803    0.7604    0.0883 C   0  0  0  0  0  0  0  0  0  0  0  0
    0.8852   -0.0437    0.3356 C   0  0  0  0  0  0  0  0  0  0  0  0
    2.1530    0.0233   -0.0793 C   0  0  0  0  0  0  0  0  0  0  0  0
  1  2  1  0
  1  3  1  0
  1  4  1  0
  2  3  1  0
  4  5  2  0
M  END
>  <PUBCHEM_COMPOUND_CID>  (1) 
21843

>  <PUBCHEM_CONFORMER_RMSD>  (1) 
0.4

>  <PUBCHEM_CONFORMER_DIVERSEORDER>  (1) 
1
2

>  <PUBCHEM_MMFF94_PARTIAL_CHARGES>  (1) 
12
1 -0.44
10 0.15
11 0.15
12 0.15
2 -0.03
3 -0.03
4 -0.05
5 -0.3
6 0.1
7 0.1
8 0.1
9 0.1

>  <PUBCHEM_EFFECTIVE_ROTOR_COUNT>  (1) 
1.6

>  <PUBCHEM_PHARMACOPHORE_FEATURES>  (1) 
1
1 1 cation

>  <PUBCHEM_HEAVY_ATOM_COUNT>  (1) 
5

>  <PUBCHEM_ATOM_DEF_STEREO_COUNT>  (1) 
0

>  <PUBCHEM_ATOM_UDEF_STEREO_COUNT>  (1) 
0

>  <PUBCHEM_BOND_DEF_STEREO_COUNT>  (1) 
0

>  <PUBCHEM_BOND_UDEF_STEREO_COUNT>  (1) 
0

>  <PUBCHEM_ISOTOPIC_ATOM_COUNT>  (1) 
0

>  <PUBCHEM_COMPONENT_COUNT>  (1) 
1

>  <PUBCHEM_CACTVS_TAUTO_COUNT>  (1) 
1

>  <PUBCHEM_CONFORMER_ID>  (1) 
0000555300000001

>  <PUBCHEM_MMFF94_ENERGY>  (1) 
21.3069

>  <PUBCHEM_FEATURE_SELFOVERLAP>  (1) 
5.074

>  <PUBCHEM_SHAPE_FINGERPRINT>  (1) 
139733 1 10159434118747395675
16714656 1 18411423916240212695
20096714 4 18410011009581395280
21040471 1 18267300920030039033
24536 1 18339912771081291276
29004967 10 17060626611423990882
5460574 1 8286204950424707722

>  <PUBCHEM_SHAPE_MULTIPOLES>  (1) 
97.92
2.57
0.83
0.66
1.03
0.01
0.01
0.01
0.01
-0.33
0.02
0.02
0
-0.01

>  <PUBCHEM_SHAPE_SELFOVERLAP>  (1) 
180.041

>  <PUBCHEM_SHAPE_VOLUME>  (1) 
63.9

>  <PUBCHEM_COORDINATE_TYPE>  (1) 
2
5
10

$$$$
