21848
     RDKit          3D

 26 29  0  0  1  0  0  0  0  0999 V2000
    3.8778   -0.8054   -1.7165 O   0  0  0  0  0  0  0  0  0  0  0  0
    4.1363    1.5761    0.8561 O   0  0  0  0  0  0  0  0  0  0  0  0
   -6.1411    0.1553   -1.1385 O   0  0  0  0  0  0  0  0  0  0  0  0
    1.8964    0.1338   -0.6062 C   0  0  0  0  0  0  0  0  0  0  0  0
    1.4523    0.1267    0.8757 C   0  0  0  0  0  0  0  0  0  0  0  0
   -0.0709    0.1000    1.1398 C   0  0  0  0  0  0  0  0  0  0  0  0
   -0.8438   -0.9298    0.2731 C   0  0  0  0  0  0  0  0  0  0  0  0
    1.1021   -0.9311   -1.4045 C   0  0  0  0  0  0  0  0  0  0  0  0
    3.4036   -0.2554   -0.5015 C   0  0  0  0  0  0  0  0  0  0  0  0
   -2.4030   -0.7763    0.4855 C   0  0  0  0  0  0  0  0  0  0  0  0
   -0.4109   -0.8469   -1.2109 C   0  0  0  0  0  0  0  0  0  0  0  0
    2.1706   -1.1059    1.4677 C   0  0  0  0  0  0  0  0  0  0  0  0
    3.4390   -1.2205    0.6613 C   0  0  0  0  0  0  0  0  0  0  0  0
    1.7094    1.5028   -1.2875 C   0  0  0  0  0  0  0  0  0  0  0  0
   -0.6813    1.4765    1.0149 C   0  0  0  0  0  0  0  0  0  0  0  0
   -2.8590    0.6620    0.1938 C   0  0  0  0  0  0  0  0  0  0  0  0
   -3.1686   -1.7729   -0.4302 C   0  0  0  0  0  0  0  0  0  0  0  0
   -1.9244    1.7395    0.5678 C   0  0  0  0  0  0  0  0  0  0  0  0
   -2.7563   -1.1095    1.9625 C   0  0  0  0  0  0  0  0  0  0  0  0
    4.3260    0.8826   -0.1419 C   0  0  0  0  0  0  0  0  0  0  0  0
   -4.6779   -1.5831   -0.3962 C   0  0  0  0  0  0  0  0  0  0  0  0
   -4.0597    0.9211   -0.3601 C   0  0  0  0  0  0  0  0  0  0  0  0
    4.4136   -2.0916    0.9537 C   0  0  0  0  0  0  0  0  0  0  0  0
   -5.0385   -0.1489   -0.6852 C   0  0  0  0  0  0  0  0  0  0  0  0
   -2.3828    3.1744    0.4899 C   0  0  0  0  0  0  0  0  0  0  0  0
    5.4909    1.1263   -1.0626 C   0  0  0  0  0  0  0  0  0  0  0  0
  1  9  1  0
  2 20  2  0
  3 24  2  0
  4  5  1  0
  4  8  1  0
  4  9  1  0
  4 14  1  0
  5  6  1  0
  5 12  1  0
  6  7  1  0
  6 15  1  0
  7 10  1  0
  7 11  1  0
  8 11  1  0
  9 13  1  0
  9 20  1  0
 10 16  1  0
 10 17  1  0
 10 19  1  0
 12 13  1  0
 13 23  2  0
 15 18  2  0
 16 18  1  0
 16 22  2  0
 17 21  1  0
 18 25  1  0
 20 26  1  0
 21 24  1  0
 22 24  1  0
M  END
>  <PUBCHEM_COMPOUND_CID>  (1) 
21848

>  <PUBCHEM_CONFORMER_RMSD>  (1) 
0.6

>  <PUBCHEM_CONFORMER_DIVERSEORDER>  (1) 
1
52
28
47
21
81
76
16
11
36
74
79
77
43
12
44
69
80
27
41
2
65
42
38
32
51
7
50
78
72
13
39
24
9
22
70
71
6
61
85
31
67
35
62
53
46
34
19
84
86
88
5
26
25
66
87
17
18
63
33
29
4
60
82
64
83
45
58
10
23
55
3
14
59
30
48
68
57
75
8
20
49
56
37
54
73
15
40

>  <PUBCHEM_MMFF94_PARTIAL_CHARGES>  (1) 
23
1 -0.68
10 0.14
12 0.14
13 -0.28
15 -0.29
16 -0.14
18 -0.14
2 -0.57
20 0.45
21 0.06
22 -0.14
23 -0.3
24 0.49
25 0.14
26 0.06
3 -0.57
39 0.15
47 0.4
48 0.15
49 0.15
50 0.15
6 0.14
9 0.48

>  <PUBCHEM_EFFECTIVE_ROTOR_COUNT>  (1) 
2.2

>  <PUBCHEM_PHARMACOPHORE_FEATURES>  (1) 
8
1 1 acceptor
1 1 donor
1 2 acceptor
1 3 acceptor
5 4 5 9 12 13 rings
6 10 16 17 21 22 24 rings
6 4 5 6 7 8 11 rings
6 6 7 10 15 16 18 rings

>  <PUBCHEM_HEAVY_ATOM_COUNT>  (1) 
26

>  <PUBCHEM_ATOM_DEF_STEREO_COUNT>  (1) 
1

>  <PUBCHEM_ATOM_UDEF_STEREO_COUNT>  (1) 
5

>  <PUBCHEM_BOND_DEF_STEREO_COUNT>  (1) 
0

>  <PUBCHEM_BOND_UDEF_STEREO_COUNT>  (1) 
0

>  <PUBCHEM_ISOTOPIC_ATOM_COUNT>  (1) 
0

>  <PUBCHEM_COMPONENT_COUNT>  (1) 
1

>  <PUBCHEM_CACTVS_TAUTO_COUNT>  (1) 
4

>  <PUBCHEM_CONFORMER_ID>  (1) 
0000555800000001

>  <PUBCHEM_MMFF94_ENERGY>  (1) 
79.4875

>  <PUBCHEM_FEATURE_SELFOVERLAP>  (1) 
40.843

>  <PUBCHEM_SHAPE_FINGERPRINT>  (1) 
10366900 7 17847064388938758066
10498660 4 18342457053677707520
10759866 29 18412265017382882046
10863032 1 18334581213692120066
10906281 52 18271539623940205305
11370993 70 17749107828568173483
11578080 2 17970318513200552524
12011746 2 17704354394134878967
12107183 9 17688023116104919890
12236239 1 18040994029880475207
12403259 415 16845569790541271336
12403260 363 18269269075887319880
12467345 10 18260543433118716054
12670546 56 18335419037041285584
12788726 201 18341896264536227529
13224815 77 18131356297259685986
13533116 47 18334570205343281058
13583140 156 18187933922956301218
14289901 80 18408606980814800730
14294032 229 17979922610347576785
14739800 52 18340192086402109544
14790565 3 17624705553393775577
15420108 30 16966875352069482033
15788980 27 18408885131007068410
16752209 62 18340484465714903587
16945 1 18202010888727736763
17349148 13 18341050731367058071
17357779 13 17989199348589664149
17492 89 18411985732433934110
1813 80 13686310092612256336
18222031 100 17060335244847356387
18335252 98 17822581602879486851
192875 21 18261394429649757749
19862831 5 17894348869559185723
200 152 18334294296860145195
20511986 3 18187629328133784174
20715895 44 18193832648943761621
21033648 29 16702012041938924858
21285901 2 17917714561518282525
22393880 68 18341902835957236764
23402539 116 18341322298234115901
23557571 272 18202569479405546609
23559900 14 18334573555686414082
296302 2 17967534588028028970
3004659 81 18261384512580983306
3633792 109 17750220431667483591
474 4 17822861995455866788
5104073 3 18412266112098188611
5283173 99 18337101290175291405
6913067 236 17632283567408369495
7495541 125 16773794809957617138
9709674 26 18129107722961386303
9971528 1 17458061552088470294

>  <PUBCHEM_SHAPE_MULTIPOLES>  (1) 
517.46
11.04
2.21
1.51
1.03
0.92
-0.04
-0.5
2.78
0.4
-0.44
-0.35
-0.24
-0.84

>  <PUBCHEM_SHAPE_SELFOVERLAP>  (1) 
1122.272

>  <PUBCHEM_SHAPE_VOLUME>  (1) 
280.8

>  <PUBCHEM_COORDINATE_TYPE>  (1) 
2
5
10

$$$$
