21852
     RDKit          3D

 10 10  0  0  1  0  0  0  0  0999 V2000
    2.3066    2.2951    0.0382 I   0  0  0  0  0  0  0  0  0  0  0  0
   -0.4074    0.5528   -0.2854 O   0  0  0  0  0  0  0  0  0  0  0  0
    0.4554   -1.6318   -0.2740 O   0  0  0  0  0  0  0  0  0  0  0  0
   -3.1629    1.3038   -0.1081 O   0  0  0  0  0  0  0  0  0  0  0  0
   -1.4834   -0.3876   -0.2689 C   0  0  0  0  0  0  0  0  0  0  0  0
    0.7558   -0.2513   -0.5227 C   0  0  0  0  0  0  0  0  0  0  0  0
   -0.8411   -1.6177    0.3252 C   0  0  0  0  0  0  0  0  0  0  0  0
    1.8775    0.2060    0.3895 C   0  0  0  0  0  0  0  0  0  0  0  0
   -2.6481    0.1479    0.5359 C   0  0  0  0  0  0  0  0  0  0  0  0
    3.1475   -0.6171    0.1703 C   0  0  0  0  0  0  0  0  0  0  0  0
  1  8  1  0
  2  5  1  0
  2  6  1  0
  3  6  1  0
  3  7  1  0
  4  9  1  0
  5  7  1  0
  5  9  1  0
  6  8  1  0
  8 10  1  0
M  END
>  <PUBCHEM_COMPOUND_CID>  (1) 
21852

>  <PUBCHEM_CONFORMER_RMSD>  (1) 
0.6

>  <PUBCHEM_CONFORMER_DIVERSEORDER>  (1) 
1
29
27
30
33
17
7
22
20
19
40
15
35
34
39
9
42
24
5
18
37
28
36
16
32
2
21
23
13
14
25
31
26
41
10
38
8
4
12
11
3
6

>  <PUBCHEM_MMFF94_PARTIAL_CHARGES>  (1) 
10
1 -0.19
2 -0.56
21 0.4
3 -0.56
4 -0.68
5 0.28
6 0.56
7 0.28
8 0.19
9 0.28

>  <PUBCHEM_EFFECTIVE_ROTOR_COUNT>  (1) 
3

>  <PUBCHEM_PHARMACOPHORE_FEATURES>  (1) 
7
1 1 hydrophobe
1 2 acceptor
1 3 acceptor
1 4 acceptor
1 4 donor
3 1 8 10 hydrophobe
5 2 3 5 6 7 rings

>  <PUBCHEM_HEAVY_ATOM_COUNT>  (1) 
10

>  <PUBCHEM_ATOM_DEF_STEREO_COUNT>  (1) 
0

>  <PUBCHEM_ATOM_UDEF_STEREO_COUNT>  (1) 
3

>  <PUBCHEM_BOND_DEF_STEREO_COUNT>  (1) 
0

>  <PUBCHEM_BOND_UDEF_STEREO_COUNT>  (1) 
0

>  <PUBCHEM_ISOTOPIC_ATOM_COUNT>  (1) 
0

>  <PUBCHEM_COMPONENT_COUNT>  (1) 
1

>  <PUBCHEM_CACTVS_TAUTO_COUNT>  (1) 
1

>  <PUBCHEM_CONFORMER_ID>  (1) 
0000555C00000001

>  <PUBCHEM_MMFF94_ENERGY>  (1) 
20.9433

>  <PUBCHEM_FEATURE_SELFOVERLAP>  (1) 
36.166

>  <PUBCHEM_SHAPE_FINGERPRINT>  (1) 
10149128 76 18340768238172277465
10857977 72 17095245860226718097
12897270 3 9727636115758350290
12932764 1 18335147539157519966
13380535 21 18191879026922981124
14325111 11 18411418448794408489
14390081 3 18126849523825836328
14648413 74 18338802320504128368
15775835 57 18266748050439032816
16945 1 18340489975883578950
18511873 20 18342454812031826810
19973954 147 18266740366768569736
20653085 51 18272098218031819451
21028194 46 18343023319446108233
21040471 1 18409175419435998999
21501502 16 18267864067710094590
23552423 10 18190736630057362526
2748010 2 18338240495383732788
3248919 1 18193261104354007586
5084963 1 18130782377991413250

>  <PUBCHEM_SHAPE_MULTIPOLES>  (1) 
200.12
4.73
2.07
0.73
0.24
0.52
-0.02
2.04
-0.51
-0.69
-0.01
-0.05
0.03
0

>  <PUBCHEM_SHAPE_SELFOVERLAP>  (1) 
368.576

>  <PUBCHEM_SHAPE_VOLUME>  (1) 
130.3

>  <PUBCHEM_COORDINATE_TYPE>  (1) 
2
5
10

$$$$
