21869
     RDKit          3D

 12 12  0  0  1  0  0  0  0  0999 V2000
    1.0753   -0.5690    0.9080 O   0  0  0  0  0  0  0  0  0  0  0  0
   -0.1221   -0.4563   -1.1060 O   0  0  0  0  0  0  0  0  0  0  0  0
    3.3190    1.1755    0.8120 O   0  0  0  0  0  0  0  0  0  0  0  0
   -0.2336   -0.4836    0.3238 C   0  0  0  0  0  0  0  0  0  0  0  0
   -0.9194    0.7925    0.7931 C   0  0  0  0  0  0  0  0  0  0  0  0
    1.9981   -0.5573   -0.1865 C   0  0  0  0  0  0  0  0  0  0  0  0
   -2.3067    1.0105    0.1656 C   0  0  0  0  0  0  0  0  0  0  0  0
    1.1714   -0.9967   -1.3732 C   0  0  0  0  0  0  0  0  0  0  0  0
   -1.0326   -1.7136    0.7466 C   0  0  0  0  0  0  0  0  0  0  0  0
    2.5705    0.8448   -0.3483 C   0  0  0  0  0  0  0  0  0  0  0  0
   -2.2567    1.0448   -1.3625 C   0  0  0  0  0  0  0  0  0  0  0  0
   -3.2631   -0.0916    0.6273 C   0  0  0  0  0  0  0  0  0  0  0  0
  1  4  1  0
  1  6  1  0
  2  4  1  0
  2  8  1  0
  3 10  1  0
  4  5  1  0
  4  9  1  0
  5  7  1  0
  6  8  1  0
  6 10  1  0
  7 11  1  0
  7 12  1  0
M  END
>  <PUBCHEM_COMPOUND_CID>  (1) 
21869

>  <PUBCHEM_CONFORMER_RMSD>  (1) 
0.6

>  <PUBCHEM_CONFORMER_DIVERSEORDER>  (1) 
3
5
1
4
6
2

>  <PUBCHEM_MMFF94_PARTIAL_CHARGES>  (1) 
8
1 -0.56
10 0.28
2 -0.56
3 -0.68
30 0.4
4 0.56
6 0.28
8 0.28

>  <PUBCHEM_EFFECTIVE_ROTOR_COUNT>  (1) 
4

>  <PUBCHEM_PHARMACOPHORE_FEATURES>  (1) 
6
1 1 acceptor
1 2 acceptor
1 3 acceptor
1 3 donor
3 7 11 12 hydrophobe
5 1 2 4 6 8 rings

>  <PUBCHEM_HEAVY_ATOM_COUNT>  (1) 
12

>  <PUBCHEM_ATOM_DEF_STEREO_COUNT>  (1) 
0

>  <PUBCHEM_ATOM_UDEF_STEREO_COUNT>  (1) 
2

>  <PUBCHEM_BOND_DEF_STEREO_COUNT>  (1) 
0

>  <PUBCHEM_BOND_UDEF_STEREO_COUNT>  (1) 
0

>  <PUBCHEM_ISOTOPIC_ATOM_COUNT>  (1) 
0

>  <PUBCHEM_COMPONENT_COUNT>  (1) 
1

>  <PUBCHEM_CACTVS_TAUTO_COUNT>  (1) 
1

>  <PUBCHEM_CONFORMER_ID>  (1) 
0000556D00000003

>  <PUBCHEM_MMFF94_ENERGY>  (1) 
42.4661

>  <PUBCHEM_FEATURE_SELFOVERLAP>  (1) 
30.49

>  <PUBCHEM_SHAPE_FINGERPRINT>  (1) 
10857977 72 17603881000240647233
11031198 65 17346328084777021497
12138202 97 18412542141135787343
12423570 1 16627157157102160071
12897270 3 17131827634148054389
12932764 1 17969232148324490955
13571099 22 11097858509919963977
13839132 238 18337963285314938701
15219456 202 18201452375444071994
15310529 11 17274831190446162877
15375462 478 16226048907330060493
15775835 57 17822582615964013573
16945 1 16588321461742991075
18186145 218 18338243639505684061
20653085 51 17417265220695065449
21028194 46 18413392020816614916
21040471 1 17676784066874850199
230 275 18187368692538970812
23211744 41 18337112259162484559
23235685 24 18131071532380348129
23402539 116 18261946461965078639
23552423 10 17058653958588089775
2748010 2 17532938199308316895
305870 269 17604419696228814314
3248919 1 17845650331370668843
369184 2 18186803569236957233
5084963 1 17387433258393942795
528886 8 17275100630771529395
57812782 119 17530684299113146953
81228 2 17972059164550389579

>  <PUBCHEM_SHAPE_MULTIPOLES>  (1) 
229.35
4.51
1.43
1.26
0.38
0.22
0.34
-1.61
-0.68
-0.19
-0.06
0.1
-0.07
0.64

>  <PUBCHEM_SHAPE_SELFOVERLAP>  (1) 
451.312

>  <PUBCHEM_SHAPE_VOLUME>  (1) 
138.9

>  <PUBCHEM_COORDINATE_TYPE>  (1) 
2
5
10

$$$$
