21866
     RDKit          3D

 13 12  0  0  0  0  0  0  0  0999 V2000
    2.8796    0.2125    0.4556 O   0  0  0  0  0  0  0  0  0  0  0  0
   -2.8899   -0.5539   -0.3359 O   0  0  0  0  0  0  0  0  0  0  0  0
   -2.5125    1.2363    1.0527 O   0  0  0  0  0  0  0  0  0  0  0  0
    3.6127   -1.4464   -0.9624 O   0  0  0  0  0  0  0  0  0  0  0  0
   -1.1754    0.8294   -0.8005 N   0  0  0  0  0  0  0  0  0  0  0  0
    4.7512   -0.9388    0.9698 N   0  0  0  0  0  0  0  0  0  0  0  0
    0.9449    1.5989    0.1872 C   0  0  0  0  0  0  0  0  0  0  0  0
   -0.2741    1.9404   -0.6595 C   0  0  0  0  0  0  0  0  0  0  0  0
    1.7797    0.4710   -0.4071 C   0  0  0  0  0  0  0  0  0  0  0  0
   -2.2208    0.5676    0.0665 C   0  0  0  0  0  0  0  0  0  0  0  0
   -4.0030   -0.9421    0.4771 C   0  0  0  0  0  0  0  0  0  0  0  0
   -4.6261   -2.1931   -0.1049 C   0  0  0  0  0  0  0  0  0  0  0  0
    3.7337   -0.7819    0.0614 C   0  0  0  0  0  0  0  0  0  0  0  0
  1  9  1  0
  1 13  1  0
  2 10  1  0
  2 11  1  0
  3 10  2  0
  4 13  2  0
  5  8  1  0
  5 10  1  0
  6 13  1  0
  7  8  1  0
  7  9  1  0
 11 12  1  0
M  END
>  <PUBCHEM_COMPOUND_CID>  (1) 
21866

>  <PUBCHEM_CONFORMER_RMSD>  (1) 
0.8

>  <PUBCHEM_CONFORMER_DIVERSEORDER>  (1) 
1
91
51
76
112
190
48
131
18
93
122
75
132
162
58
155
41
142
55
176
202
104
43
103
10
94
207
15
134
193
46
13
105
14
62
117
179
83
22
12
113
123
159
173
201
206
195
50
182
63
178
153
187
172
6
144
140
52
8
109
30
68
4
115
3
192
36
9
92
188
151
61
158
186
42
27
96
181
39
67
203
120
116
49
95
209
72
5
69
57
2
166
138
85
70
171
99
191
24
73
82
146
210
194
157
40
21
135
170
16
189
29
25
33
141
28
164
214
84
106
19
137
213
89
156
37
44
183
65
129
121
98
101
100
165
136
111
199
110
148
197
71
32
212
200
66
133
74
45
160
59
216
125
184
7
47
20
17
126
139
130
154
108
204
128
97
38
60
163
26
79
175
150
102
78
11
198
54
211
217
215
77
161
180
80
124
127
118
119
196
177
149
167
208
145
88
143
152
168
87
90
53
81
174
35
147
23
64
169
34
86
107
185
114
56
31
205

>  <PUBCHEM_MMFF94_PARTIAL_CHARGES>  (1) 
14
1 -0.43
10 0.78
11 0.28
13 0.78
2 -0.43
20 0.37
26 0.37
27 0.37
3 -0.57
4 -0.57
5 -0.73
6 -0.8
8 0.3
9 0.28

>  <PUBCHEM_EFFECTIVE_ROTOR_COUNT>  (1) 
8

>  <PUBCHEM_PHARMACOPHORE_FEATURES>  (1) 
4
1 3 acceptor
1 4 acceptor
1 5 donor
1 6 donor

>  <PUBCHEM_HEAVY_ATOM_COUNT>  (1) 
13

>  <PUBCHEM_ATOM_DEF_STEREO_COUNT>  (1) 
0

>  <PUBCHEM_ATOM_UDEF_STEREO_COUNT>  (1) 
0

>  <PUBCHEM_BOND_DEF_STEREO_COUNT>  (1) 
0

>  <PUBCHEM_BOND_UDEF_STEREO_COUNT>  (1) 
0

>  <PUBCHEM_ISOTOPIC_ATOM_COUNT>  (1) 
0

>  <PUBCHEM_COMPONENT_COUNT>  (1) 
1

>  <PUBCHEM_CACTVS_TAUTO_COUNT>  (1) 
4

>  <PUBCHEM_CONFORMER_ID>  (1) 
0000556A00000001

>  <PUBCHEM_MMFF94_ENERGY>  (1) 
7.8192

>  <PUBCHEM_FEATURE_SELFOVERLAP>  (1) 
20.298

>  <PUBCHEM_SHAPE_FINGERPRINT>  (1) 
11046707 91 18335419049683542269
12006461 19 18411422838435516947
122479 349 10735873988819761804
12892183 10 17131836438894158978
14123255 352 11240000048817455979
14123260 362 9943520847073789283
1420 369 18412267272072069735
14251710 61 18409169952143019659
15342168 16 11600008768981368699
15342816 4 18259989266842972086
177051 138 18411702123000012125
17834072 8 18113607990145642695
1798214 55 9943809979966801606
18186145 218 12540705794864712820
19107657 162 18271242721055735198
193927 3 18336838571109440979
19782 4 9511459992022983606
20281407 28 18335985259844500732
20281475 54 18408609140956828284
20374829 77 18186794781913256563
20388580 30 17967817196939487741
20621476 91 18263339504790536250
20645477 70 18043243750972109359
20671657 53 18040715900377476237
20871998 22 18334852870036598973
22485316 2 18333730195665740420
23402655 69 11025794288969057346
23403322 49 18186795864076372595
23500284 214 11600005470304196805
23503958 8 18273218564698884139
270888 7 10375875177330179859
4028521 119 10737283541309808367
4416823 128 18408040731941503765
8199 26 9511471021620442295
94968 8 18187646954769218242

>  <PUBCHEM_SHAPE_MULTIPOLES>  (1) 
234.09
9.74
2.08
0.9
0.67
0.03
-0.03
8.37
-1.33
-0.86
0.18
0.23
-0.02
-0.2

>  <PUBCHEM_SHAPE_SELFOVERLAP>  (1) 
439.624

>  <PUBCHEM_SHAPE_VOLUME>  (1) 
145

>  <PUBCHEM_COORDINATE_TYPE>  (1) 
2
5
10

$$$$
