21861
     RDKit          3D

 16 17  0  0  0  0  0  0  0  0999 V2000
    1.2161    1.1931    0.0769 N   0  0  0  0  0  0  0  0  0  0  0  0
   -4.2868   -0.2594    0.0705 C   0  0  0  0  0  0  0  0  0  0  0  0
   -2.8450    0.1216    0.0715 C   0  0  0  0  0  0  0  0  0  0  0  0
   -4.5418   -1.6014    0.7825 C   0  0  0  0  0  0  0  0  0  0  0  0
   -4.8846   -0.2995   -1.3488 C   0  0  0  0  0  0  0  0  0  0  0  0
   -2.4322    1.2871    0.7170 C   0  0  0  0  0  0  0  0  0  0  0  0
   -1.9092   -0.6883   -0.5722 C   0  0  0  0  0  0  0  0  0  0  0  0
   -0.1475    0.8332    0.0751 C   0  0  0  0  0  0  0  0  0  0  0  0
   -1.0835    1.6429    0.7187 C   0  0  0  0  0  0  0  0  0  0  0  0
   -0.5604   -0.3325   -0.5704 C   0  0  0  0  0  0  0  0  0  0  0  0
    2.4027    0.4354    0.0367 C   0  0  0  0  0  0  0  0  0  0  0  0
    3.5500    0.9630   -0.5585 C   0  0  0  0  0  0  0  0  0  0  0  0
    2.4340   -0.8450    0.5918 C   0  0  0  0  0  0  0  0  0  0  0  0
    4.7248    0.2123   -0.5987 C   0  0  0  0  0  0  0  0  0  0  0  0
    3.6090   -1.5956    0.5515 C   0  0  0  0  0  0  0  0  0  0  0  0
    4.7544   -1.0669   -0.0437 C   0  0  0  0  0  0  0  0  0  0  0  0
  1  8  1  0
  1 11  1  0
  2  3  1  0
  2  4  1  0
  2  5  1  0
  3  6  2  0
  3  7  1  0
  6  9  1  0
  7 10  2  0
  8  9  2  0
  8 10  1  0
 11 12  2  0
 11 13  1  0
 12 14  1  0
 13 15  2  0
 14 16  2  0
 15 16  1  0
M  END
>  <PUBCHEM_COMPOUND_CID>  (1) 
21861

>  <PUBCHEM_CONFORMER_RMSD>  (1) 
0.6

>  <PUBCHEM_CONFORMER_DIVERSEORDER>  (1) 
1
7
4
5
8
2
9
6
3

>  <PUBCHEM_MMFF94_PARTIAL_CHARGES>  (1) 
24
1 -0.6
10 -0.15
11 0.1
12 -0.15
13 -0.15
14 -0.15
15 -0.15
16 -0.15
2 0.14
24 0.15
25 0.15
26 0.15
27 0.15
28 0.4
29 0.15
3 -0.14
30 0.15
31 0.15
32 0.15
33 0.15
6 -0.15
7 -0.15
8 0.1
9 -0.15

>  <PUBCHEM_EFFECTIVE_ROTOR_COUNT>  (1) 
3

>  <PUBCHEM_PHARMACOPHORE_FEATURES>  (1) 
5
1 1 cation
1 1 donor
3 2 4 5 hydrophobe
6 11 12 13 14 15 16 rings
6 3 6 7 8 9 10 rings

>  <PUBCHEM_HEAVY_ATOM_COUNT>  (1) 
16

>  <PUBCHEM_ATOM_DEF_STEREO_COUNT>  (1) 
0

>  <PUBCHEM_ATOM_UDEF_STEREO_COUNT>  (1) 
0

>  <PUBCHEM_BOND_DEF_STEREO_COUNT>  (1) 
0

>  <PUBCHEM_BOND_UDEF_STEREO_COUNT>  (1) 
0

>  <PUBCHEM_ISOTOPIC_ATOM_COUNT>  (1) 
0

>  <PUBCHEM_COMPONENT_COUNT>  (1) 
1

>  <PUBCHEM_CACTVS_TAUTO_COUNT>  (1) 
1

>  <PUBCHEM_CONFORMER_ID>  (1) 
0000556500000001

>  <PUBCHEM_MMFF94_ENERGY>  (1) 
57.7898

>  <PUBCHEM_FEATURE_SELFOVERLAP>  (1) 
25.371

>  <PUBCHEM_SHAPE_FINGERPRINT>  (1) 
10014705 185 9079113337116250923
11045515 52 17894631461386240413
11046707 91 18060698399157427653
11543360 7 17168428263365846605
12107183 9 17617379480950761224
12236239 1 18411421696317224524
12553582 1 18201430402491476142
12596602 18 15554443011397207450
13167823 11 18410294700660886954
13690532 89 18413388739398284317
13760787 5 18341613745956154261
13862211 1 18060133263108104527
14252887 29 17561090185431086462
14573314 32 17530956965291171695
14576447 43 18335141977771119978
15188451 53 15625645203221995703
15196674 1 18411702045769715594
15375358 24 14996286920235375904
15375462 189 18343017809219273890
16752209 62 18200017465841415841
17804303 29 17917711301079065145
17834072 33 18261395580589956854
1798214 20 18408317787344067310
18222031 100 17560794463831758965
193927 3 18341623593931269374
19422 9 18337958891885148304
19433438 28 12967132718012063391
200 152 18410291406558166433
20261772 1 17846216686922368047
20279233 1 15791454816254418928
20281475 54 18336827477292941248
20645477 56 8646768893643045507
20645477 70 17968373459982419154
21267235 1 18340778078464397198
22485316 2 17821444660004823859
22646028 1 18201716254018599981
22646028 28 18411981338744888290
2297311 6 17489319563965243028
23402539 116 17704348862586539621
23559900 14 18335416923717338256
26918003 58 18334009497320284723
2871803 45 18187080629245919306
29717793 49 18343021056256819476
312423 11 18341347633856214024
351380 3 18273215317804107655
42 15 18342741801488011032
4214541 1 18336265647951846861
465052 167 18272376416275868911
474 4 18116157860505891836
4921388 177 16009040526734180099
4990 188 16805038531871398433
5104073 3 18343021060467553608
573450 72 18201156546660206681
77779 3 18334860506503820660
9709674 26 18340776935681615950

>  <PUBCHEM_SHAPE_MULTIPOLES>  (1) 
324.29
11.11
1.56
0.96
0.57
0.03
0.1
4.01
1.38
0.07
-0.38
-0.61
0.05
-0.46

>  <PUBCHEM_SHAPE_SELFOVERLAP>  (1) 
684.846

>  <PUBCHEM_SHAPE_VOLUME>  (1) 
182.5

>  <PUBCHEM_COORDINATE_TYPE>  (1) 
2
5
10

$$$$
