21860
     RDKit          3D

 11 12  0  0  0  0  0  0  0  0999 V2000
    1.8733   -1.9375    0.0009 O   0  0  0  0  0  0  0  0  0  0  0  0
    3.1120    0.8181    0.0003 O   0  0  0  0  0  0  0  0  0  0  0  0
    0.8545    1.4245   -0.0001 N   0  0  0  0  0  0  0  0  0  0  0  0
   -0.1845   -0.5499   -0.0003 C   0  0  0  0  0  0  0  0  0  0  0  0
   -0.3881    0.8317    0.0000 C   0  0  0  0  0  0  0  0  0  0  0  0
    1.2222   -0.7646   -0.0004 C   0  0  0  0  0  0  0  0  0  0  0  0
    1.8340    0.4679   -0.0004 C   0  0  0  0  0  0  0  0  0  0  0  0
   -1.3074   -1.4009   -0.0006 C   0  0  0  0  0  0  0  0  0  0  0  0
   -1.6638    1.4071    0.0002 C   0  0  0  0  0  0  0  0  0  0  0  0
   -2.5895   -0.8396    0.0001 C   0  0  0  0  0  0  0  0  0  0  0  0
   -2.7626    0.5432    0.0004 C   0  0  0  0  0  0  0  0  0  0  0  0
  1  6  1  0
  2  7  1  0
  3  5  1  0
  3  7  1  0
  4  5  2  0
  4  6  1  0
  4  8  1  0
  5  9  1  0
  6  7  2  0
  8 10  2  0
  9 11  2  0
 10 11  1  0
M  END
>  <PUBCHEM_COMPOUND_CID>  (1) 
21860

>  <PUBCHEM_CONFORMER_RMSD>  (1) 
0.4

>  <PUBCHEM_CONFORMER_DIVERSEORDER>  (1) 
1

>  <PUBCHEM_MMFF94_PARTIAL_CHARGES>  (1) 
17
1 -0.51
10 -0.15
11 -0.15
12 0.27
13 0.15
14 0.15
15 0.15
16 0.15
17 0.45
18 0.45
2 -0.51
3 0.03
5 -0.15
6 0.06
7 -0.09
8 -0.15
9 -0.15

>  <PUBCHEM_EFFECTIVE_ROTOR_COUNT>  (1) 
0

>  <PUBCHEM_PHARMACOPHORE_FEATURES>  (1) 
6
1 1 donor
1 2 donor
1 3 cation
1 3 donor
5 3 4 5 6 7 rings
6 4 5 8 9 10 11 rings

>  <PUBCHEM_HEAVY_ATOM_COUNT>  (1) 
11

>  <PUBCHEM_ATOM_DEF_STEREO_COUNT>  (1) 
0

>  <PUBCHEM_ATOM_UDEF_STEREO_COUNT>  (1) 
0

>  <PUBCHEM_BOND_DEF_STEREO_COUNT>  (1) 
0

>  <PUBCHEM_BOND_UDEF_STEREO_COUNT>  (1) 
0

>  <PUBCHEM_ISOTOPIC_ATOM_COUNT>  (1) 
0

>  <PUBCHEM_COMPONENT_COUNT>  (1) 
1

>  <PUBCHEM_CACTVS_TAUTO_COUNT>  (1) 
3

>  <PUBCHEM_CONFORMER_ID>  (1) 
0000556400000001

>  <PUBCHEM_MMFF94_ENERGY>  (1) 
16.3509

>  <PUBCHEM_FEATURE_SELFOVERLAP>  (1) 
30.582

>  <PUBCHEM_SHAPE_FINGERPRINT>  (1) 
12423570 1 17342361991869863423
12524768 44 18339929207884372359
12897270 3 18338797917719603245
13380535 21 18338531767101743627
13380535 76 18409725179423599866
14325111 11 18410855438780172709
16945 1 18338516442853688261
193761 8 14807693849489731203
19973954 147 18410577245221623809
20201158 50 18409163350656914443
21040471 1 18410856533928163973
21501502 16 18411698746939543539
23402655 69 18340752760091260205
23463225 33 18334288760910837018
23552423 10 18261396615497902383
2748010 2 18337954467815547877
29004967 10 18335143123883660523
369184 2 18410854343737332251
5084963 1 18128810846511260635
528886 8 18411132580050238971
53812653 166 18271803553263524456
63268167 104 18411138000504811873
7364860 26 18271525295655135550

>  <PUBCHEM_SHAPE_MULTIPOLES>  (1) 
209.66
3.89
1.71
0.59
0.38
0.29
0
-0.22
0
0.14
0
-0.05
0
0

>  <PUBCHEM_SHAPE_SELFOVERLAP>  (1) 
465.316

>  <PUBCHEM_SHAPE_VOLUME>  (1) 
112.6

>  <PUBCHEM_COORDINATE_TYPE>  (1) 
2
5
10

$$$$
