21875
     RDKit          3D

 25 28  0  0  1  0  0  0  0  0999 V2000
   -6.8539    2.3201   -0.6790 Cl  0  0  0  0  0  0  0  0  0  0  0  0
   -0.4381    0.8149    0.2295 O   0  0  0  0  0  0  0  0  0  0  0  0
    3.2385    0.8292    0.5846 N   0  0  0  0  0  0  0  0  0  0  0  0
    5.0494   -0.5966   -0.3371 C   0  0  0  0  0  0  0  0  0  0  0  0
    4.3076    1.7934    0.2617 C   0  0  0  0  0  0  0  0  0  0  0  0
    5.1901    0.3083   -1.5725 C   0  0  0  0  0  0  0  0  0  0  0  0
    5.9514   -0.0482    0.7808 C   0  0  0  0  0  0  0  0  0  0  0  0
    4.7101    1.7230   -1.2244 C   0  0  0  0  0  0  0  0  0  0  0  0
    5.5275    1.3892    1.1164 C   0  0  0  0  0  0  0  0  0  0  0  0
    3.5817   -0.5322    0.1329 C   0  0  0  0  0  0  0  0  0  0  0  0
    1.9203    1.2453    0.1246 C   0  0  0  0  0  0  0  0  0  0  0  0
    0.8279    0.3482    0.6773 C   0  0  0  0  0  0  0  0  0  0  0  0
   -1.4966    0.0048    0.7223 C   0  0  0  0  0  0  0  0  0  0  0  0
   -2.8498    0.5909    0.3692 C   0  0  0  0  0  0  0  0  0  0  0  0
   -1.3289   -1.4235    0.2471 C   0  0  0  0  0  0  0  0  0  0  0  0
   -3.9215    0.3649    1.2128 C   0  0  0  0  0  0  0  0  0  0  0  0
   -2.9785    1.3357   -0.7885 C   0  0  0  0  0  0  0  0  0  0  0  0
   -1.8016   -2.4568    1.0364 C   0  0  0  0  0  0  0  0  0  0  0  0
   -0.7068   -1.6623   -0.9654 C   0  0  0  0  0  0  0  0  0  0  0  0
   -5.1666    0.9029    0.8869 C   0  0  0  0  0  0  0  0  0  0  0  0
   -4.2236    1.8738   -1.1142 C   0  0  0  0  0  0  0  0  0  0  0  0
   -1.6468   -3.7723    0.5989 C   0  0  0  0  0  0  0  0  0  0  0  0
   -0.5522   -2.9776   -1.4029 C   0  0  0  0  0  0  0  0  0  0  0  0
   -5.3175    1.6574   -0.2765 C   0  0  0  0  0  0  0  0  0  0  0  0
   -1.0222   -4.0326   -0.6207 C   0  0  0  0  0  0  0  0  0  0  0  0
  1 24  1  0
  2 12  1  0
  2 13  1  0
  3  5  1  0
  3 10  1  0
  3 11  1  0
  4  6  1  0
  4  7  1  0
  4 10  1  0
  5  8  1  0
  5  9  1  0
  6  8  1  0
  7  9  1  0
 11 12  1  0
 13 14  1  0
 13 15  1  0
 14 16  2  0
 14 17  1  0
 15 18  2  0
 15 19  1  0
 16 20  1  0
 17 21  2  0
 18 22  1  0
 19 23  2  0
 20 24  2  0
 21 24  1  0
 22 25  2  0
 23 25  1  0
M  END
>  <PUBCHEM_COMPOUND_CID>  (1) 
21875

>  <PUBCHEM_CONFORMER_RMSD>  (1) 
0.8

>  <PUBCHEM_CONFORMER_DIVERSEORDER>  (1) 
1
35
50
37
11
33
24
52
48
54
47
3
18
42
39
31
23
19
21
13
27
5
29
17
12
30
34
25
20
6
14
4
2
40
53
10
7
26
8
9
44
16
45
15
46
49
36
43
51
32
41
28
55
38
22

>  <PUBCHEM_MMFF94_PARTIAL_CHARGES>  (1) 
29
1 -0.18
10 0.27
11 0.27
12 0.28
13 0.57
14 -0.14
15 -0.14
16 -0.15
17 -0.15
18 -0.15
19 -0.15
2 -0.56
20 -0.15
21 -0.15
22 -0.15
23 -0.15
24 0.18
25 -0.15
3 -0.81
43 0.15
44 0.15
45 0.15
46 0.15
47 0.15
48 0.15
49 0.15
5 0.27
50 0.15
51 0.15

>  <PUBCHEM_EFFECTIVE_ROTOR_COUNT>  (1) 
7.2

>  <PUBCHEM_PHARMACOPHORE_FEATURES>  (1) 
5
1 2 acceptor
1 3 cation
6 14 16 17 20 21 24 rings
6 15 18 19 22 23 25 rings
8 3 4 5 6 7 8 9 10 rings

>  <PUBCHEM_HEAVY_ATOM_COUNT>  (1) 
25

>  <PUBCHEM_ATOM_DEF_STEREO_COUNT>  (1) 
0

>  <PUBCHEM_ATOM_UDEF_STEREO_COUNT>  (1) 
1

>  <PUBCHEM_BOND_DEF_STEREO_COUNT>  (1) 
0

>  <PUBCHEM_BOND_UDEF_STEREO_COUNT>  (1) 
0

>  <PUBCHEM_ISOTOPIC_ATOM_COUNT>  (1) 
0

>  <PUBCHEM_COMPONENT_COUNT>  (1) 
1

>  <PUBCHEM_CACTVS_TAUTO_COUNT>  (1) 
1

>  <PUBCHEM_CONFORMER_ID>  (1) 
0000557300000001

>  <PUBCHEM_MMFF94_ENERGY>  (1) 
68.0781

>  <PUBCHEM_FEATURE_SELFOVERLAP>  (1) 
25.373

>  <PUBCHEM_SHAPE_FINGERPRINT>  (1) 
105312 117 18409446990344440021
107951 10 18186527608914651578
11405975 8 18339640152870737240
11524674 6 18343302565720063615
11991303 11 18334015021139201847
12516196 113 9007049171937070261
12597179 24 18343869896376902207
12616971 3 17385717046030408608
12643181 29 18341620300683182510
12788726 201 18122044658192420787
12969540 114 18337943520134067909
13257819 101 17604416394132180613
14251764 30 9871455514021895325
14790565 3 18339929199379431609
15131766 46 15070048860655232222
15183329 4 17561082479743331732
15664445 248 17194331374769907711
17349148 13 12607411022075225056
17980427 23 16950572082280200511
19141452 34 18409164446105728992
19315092 285 13326297988393435710
19958102 18 18340198682764929223
20197701 30 18411417285238209323
20554085 129 17986933211953300745
20567600 254 18337389349373140629
21033648 29 18339065038979823985
21033650 10 16772421481212047096
21236236 1 18342174518588217535
21344244 246 17987234443738128447
21521239 73 17489582325626631045
21859007 373 18189600671311479604
22224240 67 18412268329298370945
23559900 14 18131635625697351848
249057 3 18410012109894668470
268830 7 16588582140979061316
2838139 119 18113606860031875245
3298306 158 18340770355691381318
340366 18 18334863852478913252
3411729 13 18116993278767472817
345986 75 12396593888007241143
3729539 64 18125454011821601974
3759504 43 18409729577765458071
38695281 34 18270677567958326831
4015057 19 17131542955241987696
4058900 60 18264779753227191649
4371632 12 16558459894338390170
44062 13 18338803424358455938
497634 4 15575282119771027418
5104073 3 18267295607967806648
513202 73 18117851116702012659
5385378 56 18267028245931779305
559249 180 18410569600538851682
59755656 520 18408877443637912551
633830 44 17168144585561569216
6669772 16 18342176609662706967
6898599 12 18192157203085461540

>  <PUBCHEM_SHAPE_MULTIPOLES>  (1) 
505.51
14.97
3.74
1.3
4.72
5.03
0.21
-13.6
0.72
-3.49
0.76
0.27
0.07
0.91

>  <PUBCHEM_SHAPE_SELFOVERLAP>  (1) 
1078.589

>  <PUBCHEM_SHAPE_VOLUME>  (1) 
283.6

>  <PUBCHEM_COORDINATE_TYPE>  (1) 
2
5
10

$$$$
