21873
     RDKit          3D

  9  9  0  0  0  0  0  0  0  0999 V2000
   -0.1629    0.0003   -0.0448 C   0  0  0  0  0  0  0  0  0  0  0  0
    0.6353   -1.2634    0.3065 C   0  0  0  0  0  0  0  0  0  0  0  0
    0.6355    1.2639    0.3061 C   0  0  0  0  0  0  0  0  0  0  0  0
    2.0144   -1.2611   -0.3500 C   0  0  0  0  0  0  0  0  0  0  0  0
    2.0148    1.2608   -0.3499 C   0  0  0  0  0  0  0  0  0  0  0  0
    2.7999   -0.0003   -0.0042 C   0  0  0  0  0  0  0  0  0  0  0  0
   -1.4930    0.0002    0.6473 C   0  0  0  0  0  0  0  0  0  0  0  0
   -2.6464    0.0000    0.0447 C   0  0  0  0  0  0  0  0  0  0  0  0
   -3.7976   -0.0002   -0.5556 C   0  0  0  0  0  0  0  0  0  0  0  0
  1  2  1  0
  1  3  1  0
  1  7  1  0
  2  4  1  0
  3  5  1  0
  4  6  1  0
  5  6  1  0
  7  8  2  0
  8  9  2  0
M  END
>  <PUBCHEM_COMPOUND_CID>  (1) 
21873

>  <PUBCHEM_CONFORMER_RMSD>  (1) 
0.4

>  <PUBCHEM_CONFORMER_DIVERSEORDER>  (1) 
1
23
22
4
12
13
24
21
5
3
14
11
10
2
15
7
6
16
9
8
19
17
20
18

>  <PUBCHEM_MMFF94_PARTIAL_CHARGES>  (1) 
7
1 0.14
21 0.15
22 0.15
23 0.15
7 -0.22
8 -0.13
9 -0.24

>  <PUBCHEM_EFFECTIVE_ROTOR_COUNT>  (1) 
2.2

>  <PUBCHEM_PHARMACOPHORE_FEATURES>  (1) 
2
1 9 hydrophobe
6 1 2 3 4 5 6 rings

>  <PUBCHEM_HEAVY_ATOM_COUNT>  (1) 
9

>  <PUBCHEM_ATOM_DEF_STEREO_COUNT>  (1) 
0

>  <PUBCHEM_ATOM_UDEF_STEREO_COUNT>  (1) 
0

>  <PUBCHEM_BOND_DEF_STEREO_COUNT>  (1) 
0

>  <PUBCHEM_BOND_UDEF_STEREO_COUNT>  (1) 
0

>  <PUBCHEM_ISOTOPIC_ATOM_COUNT>  (1) 
0

>  <PUBCHEM_COMPONENT_COUNT>  (1) 
1

>  <PUBCHEM_CACTVS_TAUTO_COUNT>  (1) 
1

>  <PUBCHEM_CONFORMER_ID>  (1) 
0000557100000001

>  <PUBCHEM_MMFF94_ENERGY>  (1) 
3.3307

>  <PUBCHEM_FEATURE_SELFOVERLAP>  (1) 
10.148

>  <PUBCHEM_SHAPE_FINGERPRINT>  (1) 
10219947 1 18411138034853890098
11062470 55 18186519895273907719
12897270 3 18408886243709267197
12932741 1 17894642469249639523
12932764 1 17561361794804692609
14251717 144 18412258437186997119
14325111 11 18336548317134862809
14390081 3 17894628154308245085
14993402 34 18060701692970043686
20201158 50 18334296444048407195
20606313 2 18408319994967988965
20645477 70 18339357475255944615
20651381 32 18334576836814555037
21040471 1 18194126450149057096
23402655 69 18411411792201910965
23552423 10 18265624190451329515
2748010 2 18051144884267912520
29004967 10 18335992999285527234
3248919 1 18410859862759758355

>  <PUBCHEM_SHAPE_MULTIPOLES>  (1) 
185.22
5.11
1.32
0.75
4.2
0
-0.01
0
0.99
-0.94
0.01
0.13
0
0

>  <PUBCHEM_SHAPE_SELFOVERLAP>  (1) 
357.428

>  <PUBCHEM_SHAPE_VOLUME>  (1) 
110.6

>  <PUBCHEM_COORDINATE_TYPE>  (1) 
2
5
10

$$$$
