21871
     RDKit          3D

  9  8  0  0  0  0  0  0  0  0999 V2000
    4.8195   -0.6786    0.0000 N   0  0  0  0  0  0  0  0  0  0  0  0
   -2.5567    0.3920    0.0224 C   0  0  0  0  0  0  0  0  0  0  0  0
   -1.1057   -0.1009    0.0096 C   0  0  0  0  0  0  0  0  0  0  0  0
   -3.5394   -0.7795    0.0071 C   0  0  0  0  0  0  0  0  0  0  0  0
   -0.0896    1.0423   -0.0061 C   0  0  0  0  0  0  0  0  0  0  0  0
   -4.9809   -0.2973   -0.0229 C   0  0  0  0  0  0  0  0  0  0  0  0
    1.2971    0.5558   -0.0047 C   0  0  0  0  0  0  0  0  0  0  0  0
    2.4306    0.1603   -0.0037 C   0  0  0  0  0  0  0  0  0  0  0  0
    3.7251   -0.2942   -0.0016 C   0  0  0  0  0  0  0  0  0  0  0  0
  1  9  3  0
  2  3  1  0
  2  4  1  0
  3  5  1  0
  4  6  1  0
  5  7  1  0
  7  8  3  0
  8  9  1  0
M  END
>  <PUBCHEM_COMPOUND_CID>  (1) 
21871

>  <PUBCHEM_CONFORMER_RMSD>  (1) 
0.6

>  <PUBCHEM_CONFORMER_DIVERSEORDER>  (1) 
1
10
3
4
9
7
6
2
8
5

>  <PUBCHEM_MMFF94_PARTIAL_CHARGES>  (1) 
4
1 -0.56
5 0.2
7 -0.2
9 0.56

>  <PUBCHEM_EFFECTIVE_ROTOR_COUNT>  (1) 
3

>  <PUBCHEM_PHARMACOPHORE_FEATURES>  (1) 
3
1 1 acceptor
1 6 hydrophobe
5 2 3 4 5 7 hydrophobe

>  <PUBCHEM_HEAVY_ATOM_COUNT>  (1) 
9

>  <PUBCHEM_ATOM_DEF_STEREO_COUNT>  (1) 
0

>  <PUBCHEM_ATOM_UDEF_STEREO_COUNT>  (1) 
0

>  <PUBCHEM_BOND_DEF_STEREO_COUNT>  (1) 
0

>  <PUBCHEM_BOND_UDEF_STEREO_COUNT>  (1) 
0

>  <PUBCHEM_ISOTOPIC_ATOM_COUNT>  (1) 
0

>  <PUBCHEM_COMPONENT_COUNT>  (1) 
1

>  <PUBCHEM_CACTVS_TAUTO_COUNT>  (1) 
1

>  <PUBCHEM_CONFORMER_ID>  (1) 
0000556F00000001

>  <PUBCHEM_MMFF94_ENERGY>  (1) 
-2.4351

>  <PUBCHEM_FEATURE_SELFOVERLAP>  (1) 
15.223

>  <PUBCHEM_SHAPE_FINGERPRINT>  (1) 
11062470 55 11384117444616953121
114248 4 15502377837233707334
13690532 89 18408886239161170259
14123238 8 17561363993421629672
14252887 29 17418101992405010702
177051 138 18342177756602791860
18342897 14 11383830472045407762
20605781 2 8430313536940852278
20719005 15 18411138034632337474
20767249 213 10879988064762747571
20828058 44 16988841704764753735
21119208 17 15791731909984666294
21293036 1 13912322386712611205
22485316 2 18410007753901148418
23402539 116 17346874542873957133
23402655 69 12324230677049444115
42 15 18060421317620959513
42788 4 18410011039545822605
449060 50 10159702404143329993

>  <PUBCHEM_SHAPE_MULTIPOLES>  (1) 
180.23
10.2
0.92
0.61
0.16
0.07
0
-3.44
0.04
0.01
0
0.04
0.01
0

>  <PUBCHEM_SHAPE_SELFOVERLAP>  (1) 
327.737

>  <PUBCHEM_SHAPE_VOLUME>  (1) 
112.1

>  <PUBCHEM_COORDINATE_TYPE>  (1) 
2
5
10

$$$$
