21880
     RDKit          3D

 13 13  0  0  0  0  0  0  0  0999 V2000
    1.9761    1.7826   -0.5724 O   0  0  0  0  0  0  0  0  0  0  0  0
    1.9011    1.1705    1.5941 O   0  0  0  0  0  0  0  0  0  0  0  0
    1.7073   -0.5921   -0.0867 C   0  0  0  0  0  0  0  0  0  0  0  0
    0.5185   -0.7101   -1.0770 C   0  0  0  0  0  0  0  0  0  0  0  0
    1.6239   -1.6033    1.0707 C   0  0  0  0  0  0  0  0  0  0  0  0
    2.9991   -0.9352   -0.8704 C   0  0  0  0  0  0  0  0  0  0  0  0
   -0.8487   -0.3361   -0.5550 C   0  0  0  0  0  0  0  0  0  0  0  0
    1.8549    0.8557    0.4093 C   0  0  0  0  0  0  0  0  0  0  0  0
   -1.6411   -1.3102    0.0305 C   0  0  0  0  0  0  0  0  0  0  0  0
   -1.2843    0.9740   -0.6710 C   0  0  0  0  0  0  0  0  0  0  0  0
   -2.9036   -0.9650    0.5129 C   0  0  0  0  0  0  0  0  0  0  0  0
   -2.5467    1.3193   -0.1884 C   0  0  0  0  0  0  0  0  0  0  0  0
   -3.3563    0.3498    0.4035 C   0  0  0  0  0  0  0  0  0  0  0  0
  1  8  1  0
  2  8  2  0
  3  4  1  0
  3  5  1  0
  3  6  1  0
  3  8  1  0
  4  7  1  0
  7  9  2  0
  7 10  1  0
  9 11  1  0
 10 12  2  0
 11 13  2  0
 12 13  1  0
M  END
>  <PUBCHEM_COMPOUND_CID>  (1) 
21880

>  <PUBCHEM_CONFORMER_RMSD>  (1) 
0.6

>  <PUBCHEM_CONFORMER_DIVERSEORDER>  (1) 
1
2
4
5
3

>  <PUBCHEM_MMFF94_PARTIAL_CHARGES>  (1) 
17
1 -0.65
10 -0.15
11 -0.15
12 -0.15
13 -0.15
2 -0.57
22 0.15
23 0.15
24 0.15
25 0.15
26 0.15
27 0.5
3 0.06
4 0.14
7 -0.14
8 0.66
9 -0.15

>  <PUBCHEM_EFFECTIVE_ROTOR_COUNT>  (1) 
3

>  <PUBCHEM_PHARMACOPHORE_FEATURES>  (1) 
5
1 1 acceptor
1 2 acceptor
3 1 2 8 anion
3 3 5 6 hydrophobe
6 7 9 10 11 12 13 rings

>  <PUBCHEM_HEAVY_ATOM_COUNT>  (1) 
13

>  <PUBCHEM_ATOM_DEF_STEREO_COUNT>  (1) 
0

>  <PUBCHEM_ATOM_UDEF_STEREO_COUNT>  (1) 
0

>  <PUBCHEM_BOND_DEF_STEREO_COUNT>  (1) 
0

>  <PUBCHEM_BOND_UDEF_STEREO_COUNT>  (1) 
0

>  <PUBCHEM_ISOTOPIC_ATOM_COUNT>  (1) 
0

>  <PUBCHEM_COMPONENT_COUNT>  (1) 
1

>  <PUBCHEM_CACTVS_TAUTO_COUNT>  (1) 
1

>  <PUBCHEM_CONFORMER_ID>  (1) 
0000557800000001

>  <PUBCHEM_MMFF94_ENERGY>  (1) 
35.088

>  <PUBCHEM_FEATURE_SELFOVERLAP>  (1) 
25.435

>  <PUBCHEM_SHAPE_FINGERPRINT>  (1) 
10857977 72 18260551160265943935
12251169 10 18408322168411201787
124424 183 18268707203955060518
12500047 106 17822569404918762007
12696612 119 18335696173974621580
12932764 1 18334857190989593263
13380536 127 16588299454066945980
14648413 74 18272091586760485590
15775835 57 17988361588863154648
16945 1 18187356623617487543
17357990 137 15338572594996269387
18186145 218 18339634526416139061
19973954 147 18411702084261124845
20339313 130 17346049865749680846
20528008 55 18410853270370067687
21501502 16 18342458179223019735
21524375 3 17909819178782969288
22445834 79 17968096370056444083
230 275 18337660988389491984
23388829 49 17621315067227643655
23552423 10 18187086191086032551
2748010 2 18411132545822512525
369184 2 18335697235258668655
5084963 1 18412550915648159495
8030462 33 18113896048563854583

>  <PUBCHEM_SHAPE_MULTIPOLES>  (1) 
255.8
5.02
1.71
1.12
1.57
0.21
-0.18
0.02
-0.4
-0.32
-0.18
-0.59
0.01
0.33

>  <PUBCHEM_SHAPE_SELFOVERLAP>  (1) 
524.951

>  <PUBCHEM_SHAPE_VOLUME>  (1) 
147.9

>  <PUBCHEM_COORDINATE_TYPE>  (1) 
2
5
10

$$$$
