21888
     RDKit          3D

 18 18  0  0  0  0  0  0  0  0999 V2000
    3.4783    0.1256   -0.1886 O   0  0  0  0  0  0  0  0  0  0  0  0
    2.0130    2.4015    0.3976 O   0  0  0  0  0  0  0  0  0  0  0  0
    2.2163   -2.3391   -0.2518 O   0  0  0  0  0  0  0  0  0  0  0  0
   -5.4717   -0.3654    0.7773 N   0  0  0  0  0  0  0  0  0  0  0  0
   -2.5620    0.3023   -2.5429 N   0  0  0  0  0  0  0  0  0  0  0  0
    2.1423    0.0331    0.0677 C   0  0  0  0  0  0  0  0  0  0  0  0
   -0.5913   -0.1558    0.5914 C   0  0  0  0  0  0  0  0  0  0  0  0
    1.4076    1.1816    0.3623 C   0  0  0  0  0  0  0  0  0  0  0  0
    1.5102   -1.2098    0.0349 C   0  0  0  0  0  0  0  0  0  0  0  0
    0.0407    1.0872    0.6243 C   0  0  0  0  0  0  0  0  0  0  0  0
    0.1433   -1.3043    0.2968 C   0  0  0  0  0  0  0  0  0  0  0  0
   -2.0164   -0.2544    0.8647 C   0  0  0  0  0  0  0  0  0  0  0  0
    3.8641    0.3277   -1.5461 C   0  0  0  0  0  0  0  0  0  0  0  0
    1.1902    3.5247    0.7066 C   0  0  0  0  0  0  0  0  0  0  0  0
    2.8002   -3.0349    0.8479 C   0  0  0  0  0  0  0  0  0  0  0  0
   -3.0241   -0.1501   -0.0369 C   0  0  0  0  0  0  0  0  0  0  0  0
   -4.3738   -0.2687    0.4134 C   0  0  0  0  0  0  0  0  0  0  0  0
   -2.7669    0.0988   -1.4187 C   0  0  0  0  0  0  0  0  0  0  0  0
  1  6  1  0
  1 13  1  0
  2  8  1  0
  2 14  1  0
  3  9  1  0
  3 15  1  0
  4 17  3  0
  5 18  3  0
  6  8  2  0
  6  9  1  0
  7 10  2  0
  7 11  1  0
  7 12  1  0
  8 10  1  0
  9 11  2  0
 12 16  2  3
 16 17  1  0
 16 18  1  0
M  END
>  <PUBCHEM_COMPOUND_CID>  (1) 
21888

>  <PUBCHEM_CONFORMER_RMSD>  (1) 
0.6

>  <PUBCHEM_CONFORMER_DIVERSEORDER>  (1) 
4
12
7
8
2
11
3
6
10
1
9
5

>  <PUBCHEM_MMFF94_PARTIAL_CHARGES>  (1) 
21
1 -0.36
10 -0.15
11 -0.15
12 -0.18
13 0.28
14 0.28
15 0.28
16 0.13
17 0.49
18 0.49
19 0.15
2 -0.36
20 0.15
21 0.15
3 -0.36
4 -0.56
5 -0.56
6 0.08
7 0.03
8 0.08
9 0.08

>  <PUBCHEM_EFFECTIVE_ROTOR_COUNT>  (1) 
4

>  <PUBCHEM_PHARMACOPHORE_FEATURES>  (1) 
6
1 1 acceptor
1 2 acceptor
1 3 acceptor
1 4 acceptor
1 5 acceptor
6 6 7 8 9 10 11 rings

>  <PUBCHEM_HEAVY_ATOM_COUNT>  (1) 
18

>  <PUBCHEM_ATOM_DEF_STEREO_COUNT>  (1) 
0

>  <PUBCHEM_ATOM_UDEF_STEREO_COUNT>  (1) 
0

>  <PUBCHEM_BOND_DEF_STEREO_COUNT>  (1) 
0

>  <PUBCHEM_BOND_UDEF_STEREO_COUNT>  (1) 
0

>  <PUBCHEM_ISOTOPIC_ATOM_COUNT>  (1) 
0

>  <PUBCHEM_COMPONENT_COUNT>  (1) 
1

>  <PUBCHEM_CACTVS_TAUTO_COUNT>  (1) 
1

>  <PUBCHEM_CONFORMER_ID>  (1) 
0000558000000004

>  <PUBCHEM_MMFF94_ENERGY>  (1) 
73.1614

>  <PUBCHEM_FEATURE_SELFOVERLAP>  (1) 
30.459

>  <PUBCHEM_SHAPE_FINGERPRINT>  (1) 
10498660 4 16226318223676382631
11471102 20 18412548742521451409
12236239 1 17489877042177451483
12553582 1 18201151062071437134
12616999 72 18187654604259251994
12730499 353 18262530302681606563
13134695 92 18194941003402213084
13140716 1 18195521730241201032
14911166 2 18341063994347393796
16945 1 18411975884210184560
1813 80 17916594111408233454
18186145 218 18341324604114686525
19784866 140 18269291083700963798
20600515 1 16957280030384642850
20645476 183 17846218886599621535
20645477 70 18130514123261669279
21041028 32 18196370325526658681
21486144 27 18264203785164605377
21639500 275 18339630243674140797
22112679 90 17985551052754202522
22289505 5 18336543824667974509
2255824 54 18271525406949622072
22802520 49 18115853132106339565
23114952 82 17822577079883278710
2334 1 17836088149405962104
23402539 116 18131075896779037108
23419403 2 17033536728396696152
23526113 38 17894639127580363434
23557571 272 17240480325918427079
23559900 14 17095796629674357283
23598291 2 17771929146069883971
25 1 18336265734009123536
2748010 2 17978236281141394344
3060560 45 18059863865336785182
31174 14 18408039619929972507
3286 77 18334297526965747627
474 4 18198903806470548217
6049 1 17967803917454301445
621550 34 18116707603254970989
633830 44 18129102392938691861
77492 1 17489300910890257603
81228 2 17400349054155886938
9999458 23 18338524160741172813

>  <PUBCHEM_SHAPE_MULTIPOLES>  (1) 
342.86
7.56
2.75
1.37
7.87
0.96
1.02
-1.72
0.83
-3.68
-1.11
0.63
0.16
0.05

>  <PUBCHEM_SHAPE_SELFOVERLAP>  (1) 
711.887

>  <PUBCHEM_SHAPE_VOLUME>  (1) 
192.3

>  <PUBCHEM_COORDINATE_TYPE>  (1) 
2
5
10

$$$$
