21898
     RDKit          3D

 14 14  0  0  1  0  0  0  0  0999 V2000
    0.8365   -0.0799   -0.6164 O   0  0  0  0  0  0  0  0  0  0  0  0
   -0.2478    0.3283    1.4275 O   0  0  0  0  0  0  0  0  0  0  0  0
    3.6549   -0.0544   -1.0887 O   0  0  0  0  0  0  0  0  0  0  0  0
   -0.4365    0.1299    0.0166 C   0  0  0  0  0  0  0  0  0  0  0  0
   -1.2995   -1.1054   -0.2072 C   0  0  0  0  0  0  0  0  0  0  0  0
   -1.0906    1.3758   -0.5672 C   0  0  0  0  0  0  0  0  0  0  0  0
    1.7987    0.2886    0.3756 C   0  0  0  0  0  0  0  0  0  0  0  0
    1.1048   -0.0617    1.6693 C   0  0  0  0  0  0  0  0  0  0  0  0
   -2.1163   -0.9459   -1.5022 C   0  0  0  0  0  0  0  0  0  0  0  0
   -0.4063   -2.3535   -0.3270 C   0  0  0  0  0  0  0  0  0  0  0  0
   -2.2658   -1.2907    0.9766 C   0  0  0  0  0  0  0  0  0  0  0  0
   -2.4498    1.6283    0.0844 C   0  0  0  0  0  0  0  0  0  0  0  0
   -0.1824    2.5933   -0.3973 C   0  0  0  0  0  0  0  0  0  0  0  0
    3.1000   -0.4527    0.1559 C   0  0  0  0  0  0  0  0  0  0  0  0
  1  4  1  0
  1  7  1  0
  2  4  1  0
  2  8  1  0
  3 14  1  0
  4  5  1  0
  4  6  1  0
  5  9  1  0
  5 10  1  0
  5 11  1  0
  6 12  1  0
  6 13  1  0
  7  8  1  0
  7 14  1  0
M  END
>  <PUBCHEM_COMPOUND_CID>  (1) 
21898

>  <PUBCHEM_CONFORMER_RMSD>  (1) 
0.6

>  <PUBCHEM_CONFORMER_DIVERSEORDER>  (1) 
1
3
2

>  <PUBCHEM_MMFF94_PARTIAL_CHARGES>  (1) 
8
1 -0.56
14 0.28
2 -0.56
3 -0.68
36 0.4
4 0.56
7 0.28
8 0.28

>  <PUBCHEM_EFFECTIVE_ROTOR_COUNT>  (1) 
4

>  <PUBCHEM_PHARMACOPHORE_FEATURES>  (1) 
7
1 1 acceptor
1 2 acceptor
1 3 acceptor
1 3 donor
3 6 12 13 hydrophobe
4 5 9 10 11 hydrophobe
5 1 2 4 7 8 rings

>  <PUBCHEM_HEAVY_ATOM_COUNT>  (1) 
14

>  <PUBCHEM_ATOM_DEF_STEREO_COUNT>  (1) 
0

>  <PUBCHEM_ATOM_UDEF_STEREO_COUNT>  (1) 
2

>  <PUBCHEM_BOND_DEF_STEREO_COUNT>  (1) 
0

>  <PUBCHEM_BOND_UDEF_STEREO_COUNT>  (1) 
0

>  <PUBCHEM_ISOTOPIC_ATOM_COUNT>  (1) 
0

>  <PUBCHEM_COMPONENT_COUNT>  (1) 
1

>  <PUBCHEM_CACTVS_TAUTO_COUNT>  (1) 
1

>  <PUBCHEM_CONFORMER_ID>  (1) 
0000558A00000001

>  <PUBCHEM_MMFF94_ENERGY>  (1) 
64.0508

>  <PUBCHEM_FEATURE_SELFOVERLAP>  (1) 
35.564

>  <PUBCHEM_SHAPE_FINGERPRINT>  (1) 
10353120 184 18188765166821816043
12138202 97 18200306607018310613
12423570 1 12438969319575796793
12524768 44 17981024620753703507
12716758 59 18269546165987180002
13024252 1 15936417748842748048
13898156 1 17751612426040911696
14817 1 12525730158768401201
14993402 34 18335133168571825389
15557651 10 17914884353720979857
16945 1 18267295615718983338
19837323 101 18337106757145867432
19868273 325 18335417989000920908
20511035 2 16754062673479959477
20645477 70 17039773535991202503
20711985 344 18339909450908093257
20871998 184 18411426093915258327
21501502 16 18195519290684244391
21524375 3 17832414302763414693
21930827 45 18058145272648498681
22802520 49 18342457002370260598
228727 97 17749107811662259720
23236772 104 17676492747906878784
23419403 2 16326734580358092669
23557571 272 18271811263431550860
23559900 14 17988070077655902602
2748010 2 18266443459869109877
369184 2 13973965415392258882
430814 3 17534057471827511560
5084963 1 17774148127895950743
528886 8 18337389348766498353
535629 181 18186236247059699628
54276843 12 17895481448013618339
81228 2 18267283465409509897

>  <PUBCHEM_SHAPE_MULTIPOLES>  (1) 
270.51
3.87
2.19
1.3
3.22
0.57
0.21
-0.43
-0.76
-1.3
-0.33
0.02
-0.2
-0.02

>  <PUBCHEM_SHAPE_SELFOVERLAP>  (1) 
542.532

>  <PUBCHEM_SHAPE_VOLUME>  (1) 
161.6

>  <PUBCHEM_COORDINATE_TYPE>  (1) 
2
5
10

$$$$
