2189
     RDKit          3D

 20 21  0  0  0  0  0  0  0  0999 V2000
    0.4771   -3.9272   -0.2499 Cl  0  0  0  0  0  0  0  0  0  0  0  0
   -3.0463    1.5433    0.0726 S   0  0  0  0  0  0  0  0  0  0  0  0
    3.2401    1.4031   -0.3270 S   0  0  0  0  0  0  0  0  0  0  0  0
    2.3704    0.7107    0.8821 O   0  0  0  0  0  0  0  0  0  0  0  0
   -4.6793    1.4345   -0.1042 O   0  0  0  0  0  0  0  0  0  0  0  0
    2.7017   -1.9882    0.4757 O   0  0  0  0  0  0  0  0  0  0  0  0
   -2.7860    1.9732    1.4461 O   0  0  0  0  0  0  0  0  0  0  0  0
   -2.5236    2.3046   -1.0601 O   0  0  0  0  0  0  0  0  0  0  0  0
    4.4890    2.1150    0.4463 O   0  0  0  0  0  0  0  0  0  0  0  0
    3.7795    0.3602   -1.1801 O   0  0  0  0  0  0  0  0  0  0  0  0
    2.4271    2.4598   -0.9009 O   0  0  0  0  0  0  0  0  0  0  0  0
   -2.3717    0.0264   -0.0706 N   0  0  0  0  0  0  0  0  0  0  0  0
   -1.0429   -0.2852    0.1095 C   0  0  0  0  0  0  0  0  0  0  0  0
   -0.9103   -1.6589   -0.1039 C   0  0  0  0  0  0  0  0  0  0  0  0
    0.0408    0.5356    0.4417 C   0  0  0  0  0  0  0  0  0  0  0  0
   -2.2046   -2.1595   -0.4183 C   0  0  0  0  0  0  0  0  0  0  0  0
   -3.0817   -1.0999   -0.3896 C   0  0  0  0  0  0  0  0  0  0  0  0
    0.3654   -2.2443    0.0199 C   0  0  0  0  0  0  0  0  0  0  0  0
    1.2965   -0.0674    0.5590 C   0  0  0  0  0  0  0  0  0  0  0  0
    1.4585   -1.4358    0.3517 C   0  0  0  0  0  0  0  0  0  0  0  0
  1 18  1  0
  2  5  1  0
  2  7  2  0
  2  8  2  0
  2 12  1  0
  3  4  1  0
  3  9  1  0
  3 10  2  0
  3 11  2  0
  4 19  1  0
  6 20  1  0
 12 13  1  0
 12 17  1  0
 13 14  2  0
 13 15  1  0
 14 16  1  0
 14 18  1  0
 15 19  2  0
 16 17  2  0
 18 20  2  0
 19 20  1  0
M  END
>  <PUBCHEM_COMPOUND_CID>  (1) 
2189

>  <PUBCHEM_CONFORMER_RMSD>  (1) 
0.6

>  <PUBCHEM_CONFORMER_DIVERSEORDER>  (1) 
1
5
8
3
9
2
7
4
6

>  <PUBCHEM_MMFF94_PARTIAL_CHARGES>  (1) 
25
1 -0.18
10 -0.65
11 -0.65
12 0.32
13 -0.15
15 -0.15
16 -0.15
17 -0.3
18 0.18
19 0.08
2 1.47
20 0.08
21 0.15
22 0.15
23 0.15
24 0.45
25 0.5
26 0.5
3 1.67
4 -0.27
5 -0.68
6 -0.53
7 -0.65
8 -0.65
9 -0.68

>  <PUBCHEM_EFFECTIVE_ROTOR_COUNT>  (1) 
3

>  <PUBCHEM_PHARMACOPHORE_FEATURES>  (1) 
11
1 10 acceptor
1 11 acceptor
1 5 acceptor
1 6 donor
1 7 acceptor
1 8 acceptor
1 9 acceptor
4 2 5 7 8 anion
4 3 9 10 11 anion
5 12 13 14 16 17 rings
6 13 14 15 18 19 20 rings

>  <PUBCHEM_HEAVY_ATOM_COUNT>  (1) 
20

>  <PUBCHEM_ATOM_DEF_STEREO_COUNT>  (1) 
0

>  <PUBCHEM_ATOM_UDEF_STEREO_COUNT>  (1) 
0

>  <PUBCHEM_BOND_DEF_STEREO_COUNT>  (1) 
0

>  <PUBCHEM_BOND_UDEF_STEREO_COUNT>  (1) 
0

>  <PUBCHEM_ISOTOPIC_ATOM_COUNT>  (1) 
0

>  <PUBCHEM_COMPONENT_COUNT>  (1) 
1

>  <PUBCHEM_CACTVS_TAUTO_COUNT>  (1) 
3

>  <PUBCHEM_CONFORMER_ID>  (1) 
0000088D00000001

>  <PUBCHEM_MMFF94_ENERGY>  (1) 
41.3171

>  <PUBCHEM_FEATURE_SELFOVERLAP>  (1) 
56.026

>  <PUBCHEM_SHAPE_FINGERPRINT>  (1) 
10411042 1 17041757063715562490
10498660 4 18409162221144118237
10967382 1 18124027927865048771
12173636 292 18339640156458608383
13140716 1 18338231570436768018
13380535 21 18411985728322862083
13583140 156 17096638800062884369
14790565 3 18122637308250245457
15042514 8 17905046202880624226
16945 1 18124021596898761651
17134986 127 18409169900492584092
1741750 31 18412825819541256800
18186145 218 18271538554155751388
19591789 44 17617100647574648507
20510252 161 18198908204405756659
20600515 1 17409647653877944018
20671657 1 18196657302156015295
21501502 16 18411410692315866331
21524375 3 18261108629640622688
2334 1 18411694408980584603
23366157 5 18115867408235207595
23402539 116 18053374680642575782
23419403 2 15969001501260173098
23557571 272 17985551293483887000
23558518 356 18334572494656152618
23559900 14 18197489632442917754
238 59 17541059149252058229
2748010 2 18412821382671611563
3071541 12 18196937673347535210
3071541 158 17977382733395082190
3091708 16 9263621296488692050
350125 39 18410857650593488699
474 4 18336544915510234587
58051976 378 18339919445376313870
7364860 26 18267304231550161510
7832392 63 18408605863986432820
81228 2 17548692332344414282
9709674 26 18055925539698806102

>  <PUBCHEM_SHAPE_MULTIPOLES>  (1) 
369.22
6.83
3.74
0.91
1.16
2.2
-0.01
-5.74
0.59
0.16
0.36
0.1
-0.36
-0.53

>  <PUBCHEM_SHAPE_SELFOVERLAP>  (1) 
768.472

>  <PUBCHEM_SHAPE_VOLUME>  (1) 
213.7

>  <PUBCHEM_COORDINATE_TYPE>  (1) 
2
5
10

$$$$
