21896
     RDKit          3D

 15 16  0  0  1  0  0  0  0  0999 V2000
    1.2113   -0.2647   -0.3099 O   0  0  0  0  0  0  0  0  0  0  0  0
    1.9582    1.8663    0.3393 O   0  0  0  0  0  0  0  0  0  0  0  0
    2.8268   -2.5829   -0.7378 O   0  0  0  0  0  0  0  0  0  0  0  0
    0.8276    1.1072   -0.1201 C   0  0  0  0  0  0  0  0  0  0  0  0
    2.6401   -0.2527   -0.2453 C   0  0  0  0  0  0  0  0  0  0  0  0
   -0.2756    1.1619    0.9293 C   0  0  0  0  0  0  0  0  0  0  0  0
    2.9281    0.8837    0.7054 C   0  0  0  0  0  0  0  0  0  0  0  0
    0.3582    1.6878   -1.4480 C   0  0  0  0  0  0  0  0  0  0  0  0
    3.1628   -1.5936    0.2235 C   0  0  0  0  0  0  0  0  0  0  0  0
   -1.4901    0.3816    0.5029 C   0  0  0  0  0  0  0  0  0  0  0  0
   -2.4927    1.0167   -0.2171 C   0  0  0  0  0  0  0  0  0  0  0  0
   -1.5907   -0.9624    0.8350 C   0  0  0  0  0  0  0  0  0  0  0  0
   -3.6181    0.2937   -0.6125 C   0  0  0  0  0  0  0  0  0  0  0  0
   -2.7162   -1.6854    0.4395 C   0  0  0  0  0  0  0  0  0  0  0  0
   -3.7298   -1.0572   -0.2843 C   0  0  0  0  0  0  0  0  0  0  0  0
  1  4  1  0
  1  5  1  0
  2  4  1  0
  2  7  1  0
  3  9  1  0
  4  6  1  0
  4  8  1  0
  5  7  1  0
  5  9  1  0
  6 10  1  0
 10 11  2  0
 10 12  1  0
 11 13  1  0
 12 14  2  0
 13 15  2  0
 14 15  1  0
M  END
>  <PUBCHEM_COMPOUND_CID>  (1) 
21896

>  <PUBCHEM_CONFORMER_RMSD>  (1) 
0.6

>  <PUBCHEM_CONFORMER_DIVERSEORDER>  (1) 
3
10
23
13
2
7
4
9
16
12
14
20
15
8
18
1
19
5
17
21
22
11
6

>  <PUBCHEM_MMFF94_PARTIAL_CHARGES>  (1) 
20
1 -0.56
10 -0.14
11 -0.15
12 -0.15
13 -0.15
14 -0.15
15 -0.15
2 -0.56
26 0.15
27 0.15
28 0.4
29 0.15
3 -0.68
30 0.15
31 0.15
4 0.56
5 0.28
6 0.14
7 0.28
9 0.28

>  <PUBCHEM_EFFECTIVE_ROTOR_COUNT>  (1) 
4

>  <PUBCHEM_PHARMACOPHORE_FEATURES>  (1) 
6
1 1 acceptor
1 2 acceptor
1 3 acceptor
1 3 donor
5 1 2 4 5 7 rings
6 10 11 12 13 14 15 rings

>  <PUBCHEM_HEAVY_ATOM_COUNT>  (1) 
15

>  <PUBCHEM_ATOM_DEF_STEREO_COUNT>  (1) 
0

>  <PUBCHEM_ATOM_UDEF_STEREO_COUNT>  (1) 
2

>  <PUBCHEM_BOND_DEF_STEREO_COUNT>  (1) 
0

>  <PUBCHEM_BOND_UDEF_STEREO_COUNT>  (1) 
0

>  <PUBCHEM_ISOTOPIC_ATOM_COUNT>  (1) 
0

>  <PUBCHEM_COMPONENT_COUNT>  (1) 
1

>  <PUBCHEM_CACTVS_TAUTO_COUNT>  (1) 
1

>  <PUBCHEM_CONFORMER_ID>  (1) 
0000558800000003

>  <PUBCHEM_MMFF94_ENERGY>  (1) 
41.0596

>  <PUBCHEM_FEATURE_SELFOVERLAP>  (1) 
30.49

>  <PUBCHEM_SHAPE_FINGERPRINT>  (1) 
10465860 71 17603874394216825988
10922523 26 18260544563117056095
11137873 295 18409736123300853115
116883 192 18261106318674437292
11769659 78 18413666911513385323
13296908 3 18410293627003459083
13571099 22 18410572881603364397
13705890 14 18260264182998394224
13764800 53 11815311854429809644
14251705 54 18265904737879284219
14350558 41 18337957890878206277
16945 1 18339088201590082392
17834072 14 18340476798987186010
18186145 218 18113329800323131793
200 152 17917425453983642601
20201158 50 18410574019601003403
20279233 1 18336825385227208137
20645477 70 18411976979485224575
20671657 53 18340210691530021854
21069387 34 18131344185858022117
22169311 21 18411692214452483505
22802520 49 18114749347112360177
23559900 14 18412818088811445432
2748010 2 18333735731815158179
57812782 119 18337946887351361513
7364860 26 18118127110809667157
74978 22 16515967094023423105
81228 2 17822855260435800932
9709674 26 18335983172384990899

>  <PUBCHEM_SHAPE_MULTIPOLES>  (1) 
291.09
6.33
2.17
1
1.29
0.74
-0.09
2.65
-0.45
-1.18
-0.32
-0.06
-0.2
0.6

>  <PUBCHEM_SHAPE_SELFOVERLAP>  (1) 
609.363

>  <PUBCHEM_SHAPE_VOLUME>  (1) 
165.4

>  <PUBCHEM_COORDINATE_TYPE>  (1) 
2
5
10

$$$$
