21890
     RDKit          3D

 15 16  0  0  1  0  0  0  0  0999 V2000
   -1.9874    1.2009    0.4726 O   0  0  0  0  0  0  0  0  0  0  0  0
   -4.0963    0.2237   -0.0428 O   0  0  0  0  0  0  0  0  0  0  0  0
    4.2177    0.3187   -0.4099 O   0  0  0  0  0  0  0  0  0  0  0  0
   -2.0708   -1.0970   -0.3387 C   0  0  0  0  0  0  0  0  0  0  0  0
   -1.3489   -0.0792    0.5766 C   0  0  0  0  0  0  0  0  0  0  0  0
   -3.5618   -1.0986    0.0299 C   0  0  0  0  0  0  0  0  0  0  0  0
    0.1401    0.0271    0.3131 C   0  0  0  0  0  0  0  0  0  0  0  0
   -1.9144   -0.7653   -1.8303 C   0  0  0  0  0  0  0  0  0  0  0  0
   -3.3721    1.1113    0.8072 C   0  0  0  0  0  0  0  0  0  0  0  0
    1.0306   -0.8073    0.9894 C   0  0  0  0  0  0  0  0  0  0  0  0
    0.6207    0.9592   -0.6069 C   0  0  0  0  0  0  0  0  0  0  0  0
    2.4007   -0.7092    0.7463 C   0  0  0  0  0  0  0  0  0  0  0  0
    1.9907    1.0571   -0.8502 C   0  0  0  0  0  0  0  0  0  0  0  0
    2.8808    0.2230   -0.1735 C   0  0  0  0  0  0  0  0  0  0  0  0
    5.0705   -0.5644    0.3171 C   0  0  0  0  0  0  0  0  0  0  0  0
  1  5  1  0
  1  9  1  0
  2  6  1  0
  2  9  1  0
  3 14  1  0
  3 15  1  0
  4  5  1  0
  4  6  1  0
  4  8  1  0
  5  7  1  0
  7 10  2  0
  7 11  1  0
 10 12  1  0
 11 13  2  0
 12 14  2  0
 13 14  1  0
M  END
>  <PUBCHEM_COMPOUND_CID>  (1) 
21890

>  <PUBCHEM_CONFORMER_RMSD>  (1) 
0.6

>  <PUBCHEM_CONFORMER_DIVERSEORDER>  (1) 
5
15
9
19
12
6
17
13
14
8
4
10
11
3
7
18
2
1
16

>  <PUBCHEM_MMFF94_PARTIAL_CHARGES>  (1) 
17
1 -0.56
10 -0.15
11 -0.15
12 -0.15
13 -0.15
14 0.08
15 0.28
2 -0.56
25 0.15
26 0.15
27 0.15
28 0.15
3 -0.36
5 0.42
6 0.28
7 -0.14
9 0.56

>  <PUBCHEM_EFFECTIVE_ROTOR_COUNT>  (1) 
3.2

>  <PUBCHEM_PHARMACOPHORE_FEATURES>  (1) 
5
1 1 acceptor
1 2 acceptor
1 3 acceptor
6 1 2 4 5 6 9 rings
6 7 10 11 12 13 14 rings

>  <PUBCHEM_HEAVY_ATOM_COUNT>  (1) 
15

>  <PUBCHEM_ATOM_DEF_STEREO_COUNT>  (1) 
0

>  <PUBCHEM_ATOM_UDEF_STEREO_COUNT>  (1) 
2

>  <PUBCHEM_BOND_DEF_STEREO_COUNT>  (1) 
0

>  <PUBCHEM_BOND_UDEF_STEREO_COUNT>  (1) 
0

>  <PUBCHEM_ISOTOPIC_ATOM_COUNT>  (1) 
0

>  <PUBCHEM_COMPONENT_COUNT>  (1) 
1

>  <PUBCHEM_CACTVS_TAUTO_COUNT>  (1) 
1

>  <PUBCHEM_CONFORMER_ID>  (1) 
0000558200000005

>  <PUBCHEM_MMFF94_ENERGY>  (1) 
49.4485

>  <PUBCHEM_FEATURE_SELFOVERLAP>  (1) 
25.408

>  <PUBCHEM_SHAPE_FINGERPRINT>  (1) 
10465860 250 17060337409869602402
11401426 45 18187361047824095064
11471102 20 17603586339777498492
12236239 1 18409168813929044641
124424 183 15769774654404329374
12500047 106 17275099513879676535
12932764 1 17560793346797383683
13288520 33 18272373057864377966
13581323 91 17917993884083257583
13675066 3 18202566189576551314
13760787 5 17385729093212947382
14144814 61 18334857212332320641
14993402 34 18334855026009480423
15309172 13 17603871100108941195
15375358 24 15123793976573158710
15653759 3 16702018699212131730
15775835 57 18410579465793685985
16945 1 17458057183969469464
17844478 74 15864072057305037309
18175812 5 15913320325500643480
18186145 218 17749385996889141908
19026448 4 17418376887618248824
19422 9 18336551606847794071
200 152 18187642535469507667
20279233 1 15913331298967914004
20645464 45 15841555193197838879
20645476 183 18411416215949796695
20645477 70 17023448764403309626
21119208 17 18410856568229737167
21267235 1 18334586754052537587
22485316 2 17203325611543940214
23402539 116 17131827638775558457
23402655 69 17967808319458260565
23557571 272 17275114907485914944
23559900 14 16773802472574983662
465052 167 17912371124266206279
474 4 17972319779018831116
69090 78 15554443011865952757
77492 1 18409449193594136265
9981440 41 17327740007892937160

>  <PUBCHEM_SHAPE_MULTIPOLES>  (1) 
291.09
8.13
1.23
1.13
4.44
0.08
-0.36
-0.67
0.35
-0.37
0.01
-0.5
-0.08
-0.9

>  <PUBCHEM_SHAPE_SELFOVERLAP>  (1) 
606.389

>  <PUBCHEM_SHAPE_VOLUME>  (1) 
164.4

>  <PUBCHEM_COORDINATE_TYPE>  (1) 
2
5
10

$$$$
