21899
     RDKit          3D

 12 12  0  0  1  0  0  0  0  0999 V2000
    0.7261   -0.3248   -0.4038 O   0  0  0  0  0  0  0  0  0  0  0  0
    0.9598    1.8505    0.4528 O   0  0  0  0  0  0  0  0  0  0  0  0
    2.7536   -2.3345   -0.5359 O   0  0  0  0  0  0  0  0  0  0  0  0
    0.0912    0.9567   -0.2630 C   0  0  0  0  0  0  0  0  0  0  0  0
   -1.2015    0.7743    0.5224 C   0  0  0  0  0  0  0  0  0  0  0  0
    2.0877   -0.0968   -0.0297 C   0  0  0  0  0  0  0  0  0  0  0  0
    1.9790    1.0081    0.9929 C   0  0  0  0  0  0  0  0  0  0  0  0
   -2.1461   -0.2001   -0.1783 C   0  0  0  0  0  0  0  0  0  0  0  0
   -0.1775    1.5408   -1.6441 C   0  0  0  0  0  0  0  0  0  0  0  0
    2.7131   -1.3680    0.5032 C   0  0  0  0  0  0  0  0  0  0  0  0
   -3.4274   -0.4057    0.6293 C   0  0  0  0  0  0  0  0  0  0  0  0
   -4.3579   -1.4006   -0.0459 C   0  0  0  0  0  0  0  0  0  0  0  0
  1  4  1  0
  1  6  1  0
  2  4  1  0
  2  7  1  0
  3 10  1  0
  4  5  1  0
  4  9  1  0
  5  8  1  0
  6  7  1  0
  6 10  1  0
  8 11  1  0
 11 12  1  0
M  END
>  <PUBCHEM_COMPOUND_CID>  (1) 
21899

>  <PUBCHEM_CONFORMER_RMSD>  (1) 
0.6

>  <PUBCHEM_CONFORMER_DIVERSEORDER>  (1) 
2
65
58
47
62
34
12
60
52
45
6
59
17
51
64
8
4
32
61
49
54
7
55
50
13
3
48
42
21
35
63
22
39
26
53
37
9
23
40
10
44
27
41
36
57
19
11
56
31
38
43
33
1
18
14
20
25
16
15
46
5
28
30
24
29

>  <PUBCHEM_MMFF94_PARTIAL_CHARGES>  (1) 
8
1 -0.56
10 0.28
2 -0.56
3 -0.68
30 0.4
4 0.56
6 0.28
7 0.28

>  <PUBCHEM_EFFECTIVE_ROTOR_COUNT>  (1) 
5

>  <PUBCHEM_PHARMACOPHORE_FEATURES>  (1) 
6
1 1 acceptor
1 12 hydrophobe
1 2 acceptor
1 3 acceptor
1 3 donor
5 1 2 4 6 7 rings

>  <PUBCHEM_HEAVY_ATOM_COUNT>  (1) 
12

>  <PUBCHEM_ATOM_DEF_STEREO_COUNT>  (1) 
0

>  <PUBCHEM_ATOM_UDEF_STEREO_COUNT>  (1) 
2

>  <PUBCHEM_BOND_DEF_STEREO_COUNT>  (1) 
0

>  <PUBCHEM_BOND_UDEF_STEREO_COUNT>  (1) 
0

>  <PUBCHEM_ISOTOPIC_ATOM_COUNT>  (1) 
0

>  <PUBCHEM_COMPONENT_COUNT>  (1) 
1

>  <PUBCHEM_CACTVS_TAUTO_COUNT>  (1) 
1

>  <PUBCHEM_CONFORMER_ID>  (1) 
0000558B00000002

>  <PUBCHEM_MMFF94_ENERGY>  (1) 
21.0787

>  <PUBCHEM_FEATURE_SELFOVERLAP>  (1) 
30.489

>  <PUBCHEM_SHAPE_FINGERPRINT>  (1) 
11769659 78 18411980252308073027
12006461 19 18341335509063278227
12932764 1 17845933030492504893
13571099 52 9006761091073350354
14252887 29 18260267494634399217
14350558 41 18336551624412707067
15477762 27 18115309011394791735
15501101 241 18410574010968935577
16945 1 18269544095502083528
177051 138 18342459266108299363
20281407 28 18262521390112569090
20339313 130 17749400303446537829
20645477 70 18336820987814102383
20653085 51 8430306974204424172
20711985 344 17387124269904486141
20828058 19 18411980252471577251
20871998 22 18340768139693783450
21028194 46 10087626126707449034
230 275 13326586150206938121
23500284 214 10807636905193839070
449060 23 18261115132131678443
581208 293 18338230595605447771
58734985 102 17241059772203046116
94968 8 18334581247609233874

>  <PUBCHEM_SHAPE_MULTIPOLES>  (1) 
229.35
5.87
1.97
1.05
6.08
0.47
-0.21
4.27
0.74
-1.23
-0.38
-0.16
-0.38
0.38

>  <PUBCHEM_SHAPE_SELFOVERLAP>  (1) 
443.443

>  <PUBCHEM_SHAPE_VOLUME>  (1) 
141.1

>  <PUBCHEM_COORDINATE_TYPE>  (1) 
2
5
10

$$$$
