219
     RDKit          3D

  8  7  0  0  1  0  0  0  0  0999 V2000
    1.1431   -0.8082   -1.1973 O   0  0  0  0  0  0  0  0  0  0  0  0
   -1.3847   -1.4350    0.6204 O   0  0  0  0  0  0  0  0  0  0  0  0
   -2.2303    0.3627   -0.4728 O   0  0  0  0  0  0  0  0  0  0  0  0
    0.0038    1.8504   -0.0446 N   0  0  0  0  0  0  0  0  0  0  0  0
    0.0137    0.4844    0.4729 C   0  0  0  0  0  0  0  0  0  0  0  0
    1.2255   -0.2034   -0.1264 C   0  0  0  0  0  0  0  0  0  0  0  0
   -1.3161   -0.1605    0.1506 C   0  0  0  0  0  0  0  0  0  0  0  0
    2.5451   -0.0904    0.5972 C   0  0  0  0  0  0  0  0  0  0  0  0
  1  6  2  0
  2  7  1  0
  3  7  2  0
  4  5  1  0
  5  6  1  0
  5  7  1  0
  6  8  1  0
M  END
>  <PUBCHEM_COMPOUND_CID>  (1) 
219

>  <PUBCHEM_CONFORMER_RMSD>  (1) 
0.4

>  <PUBCHEM_CONFORMER_DIVERSEORDER>  (1) 
1
10
12
11
9
13
4
2
18
16
8
14
3
7
6
17
5
15

>  <PUBCHEM_MMFF94_PARTIAL_CHARGES>  (1) 
11
1 -0.57
13 0.36
14 0.36
15 0.5
2 -0.65
3 -0.57
4 -0.99
5 0.39
6 0.45
7 0.66
8 0.06

>  <PUBCHEM_EFFECTIVE_ROTOR_COUNT>  (1) 
2

>  <PUBCHEM_PHARMACOPHORE_FEATURES>  (1) 
7
1 1 acceptor
1 2 acceptor
1 3 acceptor
1 4 cation
1 4 donor
1 5 anion
3 2 3 7 anion

>  <PUBCHEM_HEAVY_ATOM_COUNT>  (1) 
8

>  <PUBCHEM_ATOM_DEF_STEREO_COUNT>  (1) 
0

>  <PUBCHEM_ATOM_UDEF_STEREO_COUNT>  (1) 
1

>  <PUBCHEM_BOND_DEF_STEREO_COUNT>  (1) 
0

>  <PUBCHEM_BOND_UDEF_STEREO_COUNT>  (1) 
0

>  <PUBCHEM_ISOTOPIC_ATOM_COUNT>  (1) 
0

>  <PUBCHEM_COMPONENT_COUNT>  (1) 
1

>  <PUBCHEM_CACTVS_TAUTO_COUNT>  (1) 
8

>  <PUBCHEM_CONFORMER_ID>  (1) 
000000DB00000001

>  <PUBCHEM_MMFF94_ENERGY>  (1) 
9.3759

>  <PUBCHEM_FEATURE_SELFOVERLAP>  (1) 
35.833

>  <PUBCHEM_SHAPE_FINGERPRINT>  (1) 
137420 1 13088219304737178952
20096714 4 12252188493037507255
21040471 1 18046635507598402993
24536 1 18201456795007318859
29004967 10 18202007641706035250

>  <PUBCHEM_SHAPE_MULTIPOLES>  (1) 
142.05
2.81
1.28
0.86
0.5
0.33
-0.11
-0.38
0.19
-0.28
0.03
0.18
-0.17
0.28

>  <PUBCHEM_SHAPE_SELFOVERLAP>  (1) 
268.596

>  <PUBCHEM_SHAPE_VOLUME>  (1) 
87.8

>  <PUBCHEM_COORDINATE_TYPE>  (1) 
2
5
10

$$$$
