21903
     RDKit          3D

 15 15  0  0  1  0  0  0  0  0999 V2000
    0.9164   -0.5203   -0.8100 O   0  0  0  0  0  0  0  0  0  0  0  0
   -0.4320   -0.3041    1.1019 O   0  0  0  0  0  0  0  0  0  0  0  0
    3.7421   -0.9442   -0.8671 O   0  0  0  0  0  0  0  0  0  0  0  0
   -0.3988   -0.1944   -0.3306 C   0  0  0  0  0  0  0  0  0  0  0  0
   -0.7352    1.2403   -0.7172 C   0  0  0  0  0  0  0  0  0  0  0  0
   -1.3930   -1.1783   -0.9343 C   0  0  0  0  0  0  0  0  0  0  0  0
    1.7351   -0.5354    0.3627 C   0  0  0  0  0  0  0  0  0  0  0  0
    0.1912    2.2840   -0.0704 C   0  0  0  0  0  0  0  0  0  0  0  0
   -2.8318   -0.9872   -0.4258 C   0  0  0  0  0  0  0  0  0  0  0  0
    0.7777   -0.9840    1.4401 C   0  0  0  0  0  0  0  0  0  0  0  0
    2.9210   -1.4564    0.1719 C   0  0  0  0  0  0  0  0  0  0  0  0
    0.1869    2.2009    1.4567 C   0  0  0  0  0  0  0  0  0  0  0  0
    1.6183    2.1057   -0.5939 C   0  0  0  0  0  0  0  0  0  0  0  0
   -2.9324   -1.0999    1.0960 C   0  0  0  0  0  0  0  0  0  0  0  0
   -3.3656    0.3734   -0.8800 C   0  0  0  0  0  0  0  0  0  0  0  0
  1  4  1  0
  1  7  1  0
  2  4  1  0
  2 10  1  0
  3 11  1  0
  4  5  1  0
  4  6  1  0
  5  8  1  0
  6  9  1  0
  7 10  1  0
  7 11  1  0
  8 12  1  0
  8 13  1  0
  9 14  1  0
  9 15  1  0
M  END
>  <PUBCHEM_COMPOUND_CID>  (1) 
21903

>  <PUBCHEM_CONFORMER_RMSD>  (1) 
0.6

>  <PUBCHEM_CONFORMER_DIVERSEORDER>  (1) 
1
2
3

>  <PUBCHEM_MMFF94_PARTIAL_CHARGES>  (1) 
8
1 -0.56
10 0.28
11 0.28
2 -0.56
3 -0.68
39 0.4
4 0.56
7 0.28

>  <PUBCHEM_EFFECTIVE_ROTOR_COUNT>  (1) 
6

>  <PUBCHEM_PHARMACOPHORE_FEATURES>  (1) 
7
1 1 acceptor
1 2 acceptor
1 3 acceptor
1 3 donor
3 8 12 13 hydrophobe
3 9 14 15 hydrophobe
5 1 2 4 7 10 rings

>  <PUBCHEM_HEAVY_ATOM_COUNT>  (1) 
15

>  <PUBCHEM_ATOM_DEF_STEREO_COUNT>  (1) 
0

>  <PUBCHEM_ATOM_UDEF_STEREO_COUNT>  (1) 
1

>  <PUBCHEM_BOND_DEF_STEREO_COUNT>  (1) 
0

>  <PUBCHEM_BOND_UDEF_STEREO_COUNT>  (1) 
0

>  <PUBCHEM_ISOTOPIC_ATOM_COUNT>  (1) 
0

>  <PUBCHEM_COMPONENT_COUNT>  (1) 
1

>  <PUBCHEM_CACTVS_TAUTO_COUNT>  (1) 
1

>  <PUBCHEM_CONFORMER_ID>  (1) 
0000558F00000001

>  <PUBCHEM_MMFF94_ENERGY>  (1) 
81.2793

>  <PUBCHEM_FEATURE_SELFOVERLAP>  (1) 
35.563

>  <PUBCHEM_SHAPE_FINGERPRINT>  (1) 
1 1 17834957846762294325
12423570 1 13389821172675470640
13024252 1 16807315522005813410
14817 1 8356248337713034081
14993402 34 18342449327406257639
15219456 202 18042404801766577109
15490181 8 17468466466454879965
161256 15 18262223521377818469
16945 1 17968928691647065557
18186145 218 17458341944279800214
18410436 195 18272360975593905624
19868273 325 18265330612525732588
20339313 130 18272940452502412590
20645477 70 18192416692715719903
20711985 344 18053654785466469139
207724 885 18201719574229091531
21041028 32 18340221747103169089
21130352 189 18341600517345989285
21296965 67 18411139121285619046
22112679 90 17844555294809054984
22344851 341 18260816116302977992
228727 97 18114747014839824586
23402539 116 18336816512468813894
23419403 2 15144106414340746221
23526113 38 17968084275602793627
23557571 272 18199741450232492010
23559900 14 18186795851982891506
2748010 2 18115292518662249165
305870 269 17767951396373629049
3250762 1 17683253820947225602
4663303 62 18268985573617662072
5845 1 12080722468063797548
58734987 51 18271242716639669345
63268167 104 18267868457182651353
7364860 26 18056750155554031285
81228 2 18123469375931511664

>  <PUBCHEM_SHAPE_MULTIPOLES>  (1) 
291.09
4.57
2.29
1.32
0.57
1.51
-0.38
-2.38
1.01
-0.99
-0.24
0.13
0.03
0.24

>  <PUBCHEM_SHAPE_SELFOVERLAP>  (1) 
576.59

>  <PUBCHEM_SHAPE_VOLUME>  (1) 
174

>  <PUBCHEM_COORDINATE_TYPE>  (1) 
2
5
10

$$$$
