21901
     RDKit          3D

 15 15  0  0  1  0  0  0  0  0999 V2000
    1.3758   -0.0392    0.4553 O   0  0  0  0  0  0  0  0  0  0  0  0
    0.4282   -1.2746   -1.3044 O   0  0  0  0  0  0  0  0  0  0  0  0
    4.1638    0.1392    1.0996 O   0  0  0  0  0  0  0  0  0  0  0  0
    0.1687   -0.3013   -0.2794 C   0  0  0  0  0  0  0  0  0  0  0  0
   -0.8760   -0.8506    0.6839 C   0  0  0  0  0  0  0  0  0  0  0  0
   -0.3091    0.9857   -0.9397 C   0  0  0  0  0  0  0  0  0  0  0  0
    2.4125   -0.6377   -0.3276 C   0  0  0  0  0  0  0  0  0  0  0  0
    1.7143   -1.8054   -0.9811 C   0  0  0  0  0  0  0  0  0  0  0  0
   -2.1744   -1.1980   -0.0415 C   0  0  0  0  0  0  0  0  0  0  0  0
   -0.5579    2.0828    0.0934 C   0  0  0  0  0  0  0  0  0  0  0  0
    3.5809   -1.0329    0.5500 C   0  0  0  0  0  0  0  0  0  0  0  0
   -3.2081   -1.7795    0.9225 C   0  0  0  0  0  0  0  0  0  0  0  0
   -1.0052    3.3820   -0.5760 C   0  0  0  0  0  0  0  0  0  0  0  0
   -4.4915   -2.1589    0.2009 C   0  0  0  0  0  0  0  0  0  0  0  0
   -1.2222    4.4883    0.4440 C   0  0  0  0  0  0  0  0  0  0  0  0
  1  4  1  0
  1  7  1  0
  2  4  1  0
  2  8  1  0
  3 11  1  0
  4  5  1  0
  4  6  1  0
  5  9  1  0
  6 10  1  0
  7  8  1  0
  7 11  1  0
  9 12  1  0
 10 13  1  0
 12 14  1  0
 13 15  1  0
M  END
>  <PUBCHEM_COMPOUND_CID>  (1) 
21901

>  <PUBCHEM_CONFORMER_RMSD>  (1) 
0.8

>  <PUBCHEM_CONFORMER_DIVERSEORDER>  (1) 
1
53
56
31
49
52
50
65
9
66
33
2
46
35
51
22
7
23
26
19
44
48
58
67
8
43
5
37
61
3
34
12
41
59
62
6
54
30
13
57
40
14
55
60
39
28
25
45
32
36
18
47
4
64
38
42
17
10
15
11
16
20
63
29
27
24
21

>  <PUBCHEM_MMFF94_PARTIAL_CHARGES>  (1) 
8
1 -0.56
11 0.28
2 -0.56
3 -0.68
39 0.4
4 0.56
7 0.28
8 0.28

>  <PUBCHEM_EFFECTIVE_ROTOR_COUNT>  (1) 
8

>  <PUBCHEM_PHARMACOPHORE_FEATURES>  (1) 
7
1 1 acceptor
1 14 hydrophobe
1 15 hydrophobe
1 2 acceptor
1 3 acceptor
1 3 donor
5 1 2 4 7 8 rings

>  <PUBCHEM_HEAVY_ATOM_COUNT>  (1) 
15

>  <PUBCHEM_ATOM_DEF_STEREO_COUNT>  (1) 
0

>  <PUBCHEM_ATOM_UDEF_STEREO_COUNT>  (1) 
1

>  <PUBCHEM_BOND_DEF_STEREO_COUNT>  (1) 
0

>  <PUBCHEM_BOND_UDEF_STEREO_COUNT>  (1) 
0

>  <PUBCHEM_ISOTOPIC_ATOM_COUNT>  (1) 
0

>  <PUBCHEM_COMPONENT_COUNT>  (1) 
1

>  <PUBCHEM_CACTVS_TAUTO_COUNT>  (1) 
1

>  <PUBCHEM_CONFORMER_ID>  (1) 
0000558D00000001

>  <PUBCHEM_MMFF94_ENERGY>  (1) 
22.1185

>  <PUBCHEM_FEATURE_SELFOVERLAP>  (1) 
35.564

>  <PUBCHEM_SHAPE_FINGERPRINT>  (1) 
1 1 17472428019987957469
10465860 250 18114736131160860947
12532896 13 17762333613615590533
13134695 92 18264484177746156663
136203 1 18264769870133007481
16945 1 18264780852195363862
17041 49 18265349455001233411
18186145 218 8286208210131546127
18380122 1 18202004300543615702
18410436 195 18263086668275836047
20097449 115 18337111271377944281
20388701 513 18338242561368555467
20600515 1 18113906004129313143
20671657 1 17834405896763248607
20711985 327 18338525256306272067
20711985 344 18118427071420324775
21041028 32 18337392746629188901
21524375 3 17548959080099695948
23402539 116 18340760516301289623
23419403 2 17986651831598187313
23530152 11 17399808094593231029
23557571 272 18408891706712762078
23558518 356 18117285757102645210
25 1 17335614211996449612
305870 269 17329715834613873413
3250762 1 17982174417985642982
57672749 33 18051410961512820545
6049 1 17987526909794183110
6442390 28 17691419507644997489
68521 5 18408326566294169685
7364860 26 17978239584060818055
81228 2 18189069598388109369
9981440 41 17483070949121538738

>  <PUBCHEM_SHAPE_MULTIPOLES>  (1) 
291.09
5.84
4.34
1.05
0.25
7.73
-0.07
-5.71
2.08
-3.99
0.16
0.33
-0.17
0.53

>  <PUBCHEM_SHAPE_SELFOVERLAP>  (1) 
559.408

>  <PUBCHEM_SHAPE_VOLUME>  (1) 
179

>  <PUBCHEM_COORDINATE_TYPE>  (1) 
2
5
10

$$$$
