21908
     RDKit          3D

 16 17  0  0  1  0  0  0  0  0999 V2000
   -0.6460    1.1105   -2.2489 O   0  0  0  0  0  0  0  0  0  0  0  0
   -3.0377   -1.9126    0.2260 O   0  0  0  0  0  0  0  0  0  0  0  0
   -1.2257   -0.5158    0.7818 N   0  0  0  0  0  0  0  0  0  0  0  0
   -2.0473   -0.4661   -1.2906 N   0  0  0  0  0  0  0  0  0  0  0  0
   -0.4031    0.5069    0.1171 C   0  0  0  0  0  0  0  0  0  0  0  0
   -0.5981    1.8976    0.7093 C   0  0  0  0  0  0  0  0  0  0  0  0
    1.0394    0.1240    0.0637 C   0  0  0  0  0  0  0  0  0  0  0  0
   -1.0187    0.4439   -1.2919 C   0  0  0  0  0  0  0  0  0  0  0  0
   -2.2026   -1.0644   -0.0595 C   0  0  0  0  0  0  0  0  0  0  0  0
   -2.0679    2.2664    0.7905 C   0  0  0  0  0  0  0  0  0  0  0  0
   -1.0648   -0.8662    2.1822 C   0  0  0  0  0  0  0  0  0  0  0  0
    1.4073   -1.1383   -0.3996 C   0  0  0  0  0  0  0  0  0  0  0  0
    2.0153    1.0293    0.4774 C   0  0  0  0  0  0  0  0  0  0  0  0
    2.7547   -1.4959   -0.4493 C   0  0  0  0  0  0  0  0  0  0  0  0
    3.3627    0.6716    0.4276 C   0  0  0  0  0  0  0  0  0  0  0  0
    3.7324   -0.5910   -0.0358 C   0  0  0  0  0  0  0  0  0  0  0  0
  1  8  2  0
  2  9  2  0
  3  5  1  0
  3  9  1  0
  3 11  1  0
  4  8  1  0
  4  9  1  0
  5  6  1  0
  5  7  1  0
  5  8  1  0
  6 10  1  0
  7 12  2  0
  7 13  1  0
 12 14  1  0
 13 15  2  0
 14 16  2  0
 15 16  1  0
M  END
>  <PUBCHEM_COMPOUND_CID>  (1) 
21908

>  <PUBCHEM_CONFORMER_RMSD>  (1) 
0.6

>  <PUBCHEM_CONFORMER_DIVERSEORDER>  (1) 
1
5
4
3
6
2

>  <PUBCHEM_MMFF94_PARTIAL_CHARGES>  (1) 
20
1 -0.57
11 0.3
12 -0.15
13 -0.15
14 -0.15
15 -0.15
16 -0.15
19 0.37
2 -0.57
26 0.15
27 0.15
28 0.15
29 0.15
3 -0.66
30 0.15
4 -0.49
5 0.5
7 -0.14
8 0.57
9 0.69

>  <PUBCHEM_EFFECTIVE_ROTOR_COUNT>  (1) 
2.6

>  <PUBCHEM_PHARMACOPHORE_FEATURES>  (1) 
6
1 1 acceptor
1 10 hydrophobe
1 2 acceptor
1 4 donor
5 3 4 5 8 9 rings
6 7 12 13 14 15 16 rings

>  <PUBCHEM_HEAVY_ATOM_COUNT>  (1) 
16

>  <PUBCHEM_ATOM_DEF_STEREO_COUNT>  (1) 
0

>  <PUBCHEM_ATOM_UDEF_STEREO_COUNT>  (1) 
1

>  <PUBCHEM_BOND_DEF_STEREO_COUNT>  (1) 
0

>  <PUBCHEM_BOND_UDEF_STEREO_COUNT>  (1) 
0

>  <PUBCHEM_ISOTOPIC_ATOM_COUNT>  (1) 
0

>  <PUBCHEM_COMPONENT_COUNT>  (1) 
1

>  <PUBCHEM_CACTVS_TAUTO_COUNT>  (1) 
3

>  <PUBCHEM_CONFORMER_ID>  (1) 
0000559400000001

>  <PUBCHEM_MMFF94_ENERGY>  (1) 
43.1279

>  <PUBCHEM_FEATURE_SELFOVERLAP>  (1) 
30.446

>  <PUBCHEM_SHAPE_FINGERPRINT>  (1) 
10922049 32 17840879468919404577
11578080 2 16270204212202194313
12423570 1 13433756227086805465
12932764 1 16845563228253274960
13024252 1 12540705807570207857
13299463 15 17967805042218904422
14817 1 11221520290754277137
15906896 17 17844527704266179733
16945 1 18410855464423129094
17844478 74 18272370905716445482
200 152 18200860842688894470
20201158 50 18334569178940899658
20525323 117 18271800207678958568
21296965 67 18342174531093051571
21501502 16 18411142394483124448
21524375 3 17268912377378052313
23402539 116 17096348653114809790
23419403 2 17901920244056773669
23559900 14 17313649539176137624
25610 137 18269836570121933452
2748010 2 18131064888514308052
298252 57 16768997434240717761
369184 2 18059855039089008816
69090 78 18127975204815980161
77492 1 16701458008311177366
81228 2 17894355470755114489

>  <PUBCHEM_SHAPE_MULTIPOLES>  (1) 
307.57
4.8
1.95
1.5
3.61
0.47
-0.15
-1.13
0.3
-1.04
0.3
-0.93
-0.01
0.26

>  <PUBCHEM_SHAPE_SELFOVERLAP>  (1) 
659.775

>  <PUBCHEM_SHAPE_VOLUME>  (1) 
172

>  <PUBCHEM_COORDINATE_TYPE>  (1) 
2
5
10

$$$$
