21904
     RDKit          3D

 14 14  0  0  1  0  0  0  0  0999 V2000
   -1.0298    0.3592   -0.4910 O   0  0  0  0  0  0  0  0  0  0  0  0
   -1.2805   -1.4012    1.0446 O   0  0  0  0  0  0  0  0  0  0  0  0
   -2.9924    2.3207   -1.1748 O   0  0  0  0  0  0  0  0  0  0  0  0
   -0.4307   -0.8380    0.0316 C   0  0  0  0  0  0  0  0  0  0  0  0
    0.9158   -0.4784    0.6468 C   0  0  0  0  0  0  0  0  0  0  0  0
   -2.3709    0.3389    0.0056 C   0  0  0  0  0  0  0  0  0  0  0  0
    1.8710    0.0930   -0.4027 C   0  0  0  0  0  0  0  0  0  0  0  0
   -0.2726   -1.8546   -1.0920 C   0  0  0  0  0  0  0  0  0  0  0  0
   -2.2332   -0.3754    1.3281 C   0  0  0  0  0  0  0  0  0  0  0  0
    3.2245    0.5396    0.1806 C   0  0  0  0  0  0  0  0  0  0  0  0
   -2.9169    1.7460    0.1212 C   0  0  0  0  0  0  0  0  0  0  0  0
    0.3585   -3.1418   -0.5934 C   0  0  0  0  0  0  0  0  0  0  0  0
    2.9975    1.5795    1.2806 C   0  0  0  0  0  0  0  0  0  0  0  0
    4.1597    1.1124   -0.8852 C   0  0  0  0  0  0  0  0  0  0  0  0
  1  4  1  0
  1  6  1  0
  2  4  1  0
  2  9  1  0
  3 11  1  0
  4  5  1  0
  4  8  1  0
  5  7  1  0
  6  9  1  0
  6 11  1  0
  7 10  1  0
  8 12  1  0
 10 13  1  0
 10 14  1  0
M  END
>  <PUBCHEM_COMPOUND_CID>  (1) 
21904

>  <PUBCHEM_CONFORMER_RMSD>  (1) 
0.6

>  <PUBCHEM_CONFORMER_DIVERSEORDER>  (1) 
1
30
14
32
36
40
2
5
37
26
12
31
4
18
13
25
33
35
16
24
39
19
11
29
8
20
22
15
34
38
6
9
3
10
41
17
21
23
7
28
27

>  <PUBCHEM_MMFF94_PARTIAL_CHARGES>  (1) 
8
1 -0.56
11 0.28
2 -0.56
3 -0.68
36 0.4
4 0.56
6 0.28
9 0.28

>  <PUBCHEM_EFFECTIVE_ROTOR_COUNT>  (1) 
6

>  <PUBCHEM_PHARMACOPHORE_FEATURES>  (1) 
7
1 1 acceptor
1 12 hydrophobe
1 2 acceptor
1 3 acceptor
1 3 donor
3 10 13 14 hydrophobe
5 1 2 4 6 9 rings

>  <PUBCHEM_HEAVY_ATOM_COUNT>  (1) 
14

>  <PUBCHEM_ATOM_DEF_STEREO_COUNT>  (1) 
0

>  <PUBCHEM_ATOM_UDEF_STEREO_COUNT>  (1) 
2

>  <PUBCHEM_BOND_DEF_STEREO_COUNT>  (1) 
0

>  <PUBCHEM_BOND_UDEF_STEREO_COUNT>  (1) 
0

>  <PUBCHEM_ISOTOPIC_ATOM_COUNT>  (1) 
0

>  <PUBCHEM_COMPONENT_COUNT>  (1) 
1

>  <PUBCHEM_CACTVS_TAUTO_COUNT>  (1) 
1

>  <PUBCHEM_CONFORMER_ID>  (1) 
0000559000000001

>  <PUBCHEM_MMFF94_ENERGY>  (1) 
28.8222

>  <PUBCHEM_FEATURE_SELFOVERLAP>  (1) 
35.564

>  <PUBCHEM_SHAPE_FINGERPRINT>  (1) 
1 1 18270681948350448886
12500047 106 18343017844064308892
12932764 1 18270121361208905850
13024252 1 16879057736395171323
13464514 151 17908997508204345636
13764800 53 18333456438708454673
13839132 238 18115033978742405079
14648413 74 18049446941772193323
15219456 202 18264784168126660395
15490181 7 18343021111928428758
15775835 57 18410294718062367288
16945 1 17969233380916970427
18186145 218 17775571944220209976
18380122 1 18264512662022323075
20645477 56 18200035191451235816
20871998 184 18265346173176837531
21028194 46 18410577266543427681
21296965 12 18410578396251890059
21486144 27 17417260977594463784
21524375 3 18336817602772782905
21639500 275 18129658569765292215
21947302 44 18122343476145890597
220403 375 18336822005293869283
25 1 17917724465317071648
2748010 2 18339373988771818110
305870 269 18410572847264965398
3250762 1 18264784159737621195
7364860 26 18053661369646273391
74978 22 17988364896647128306
81228 2 17695342964253565810

>  <PUBCHEM_SHAPE_MULTIPOLES>  (1) 
270.51
5.83
2.65
1.22
4.14
1.46
-0.12
-4.92
0.43
-1.03
0.72
-0.1
-0.18
0.84

>  <PUBCHEM_SHAPE_SELFOVERLAP>  (1) 
524.788

>  <PUBCHEM_SHAPE_VOLUME>  (1) 
165.5

>  <PUBCHEM_COORDINATE_TYPE>  (1) 
2
5
10

$$$$
