21907
     RDKit          3D

 13 14  0  0  1  0  0  0  0  0999 V2000
   -3.3641    0.9437    0.6279 O   0  0  0  0  0  0  0  0  0  0  0  0
   -1.5442    0.2729   -0.7075 N   0  0  0  0  0  0  0  0  0  0  0  0
    2.2129    1.2392    0.9758 N   0  0  0  0  0  0  0  0  0  0  0  0
   -0.5326   -0.7726   -0.6892 C   0  0  0  0  0  0  0  0  0  0  0  0
   -1.1240   -1.7941    0.2816 C   0  0  0  0  0  0  0  0  0  0  0  0
   -2.0063   -0.9732    1.2177 C   0  0  0  0  0  0  0  0  0  0  0  0
   -2.4310    0.1989    0.3662 C   0  0  0  0  0  0  0  0  0  0  0  0
    0.8488   -0.3055   -0.2791 C   0  0  0  0  0  0  0  0  0  0  0  0
   -1.5946    1.2712   -1.7575 C   0  0  0  0  0  0  0  0  0  0  0  0
    1.9851   -0.9478   -0.7499 C   0  0  0  0  0  0  0  0  0  0  0  0
    1.0102    0.7717    0.5727 C   0  0  0  0  0  0  0  0  0  0  0  0
    3.2402   -0.4960   -0.3575 C   0  0  0  0  0  0  0  0  0  0  0  0
    3.2995    0.5915    0.4990 C   0  0  0  0  0  0  0  0  0  0  0  0
  1  7  2  0
  2  4  1  0
  2  7  1  0
  2  9  1  0
  3 11  2  0
  3 13  1  0
  4  5  1  0
  4  8  1  0
  5  6  1  0
  6  7  1  0
  8 10  2  0
  8 11  1  0
 10 12  1  0
 12 13  2  0
M  END
>  <PUBCHEM_COMPOUND_CID>  (1) 
21907

>  <PUBCHEM_CONFORMER_RMSD>  (1) 
0.6

>  <PUBCHEM_CONFORMER_DIVERSEORDER>  (1) 
1
4
2
3

>  <PUBCHEM_MMFF94_PARTIAL_CHARGES>  (1) 
16
1 -0.57
10 -0.15
11 0.16
12 -0.15
13 0.16
2 -0.66
22 0.15
23 0.15
24 0.15
25 0.15
3 -0.62
4 0.44
6 0.06
7 0.57
8 -0.14
9 0.3

>  <PUBCHEM_EFFECTIVE_ROTOR_COUNT>  (1) 
1.8

>  <PUBCHEM_PHARMACOPHORE_FEATURES>  (1) 
4
1 1 acceptor
1 3 acceptor
5 2 4 5 6 7 rings
6 3 8 10 11 12 13 rings

>  <PUBCHEM_HEAVY_ATOM_COUNT>  (1) 
13

>  <PUBCHEM_ATOM_DEF_STEREO_COUNT>  (1) 
1

>  <PUBCHEM_ATOM_UDEF_STEREO_COUNT>  (1) 
0

>  <PUBCHEM_BOND_DEF_STEREO_COUNT>  (1) 
0

>  <PUBCHEM_BOND_UDEF_STEREO_COUNT>  (1) 
0

>  <PUBCHEM_ISOTOPIC_ATOM_COUNT>  (1) 
0

>  <PUBCHEM_COMPONENT_COUNT>  (1) 
1

>  <PUBCHEM_CACTVS_TAUTO_COUNT>  (1) 
2

>  <PUBCHEM_CONFORMER_ID>  (1) 
0000559300000001

>  <PUBCHEM_MMFF94_ENERGY>  (1) 
30.2701

>  <PUBCHEM_FEATURE_SELFOVERLAP>  (1) 
20.297

>  <PUBCHEM_SHAPE_FINGERPRINT>  (1) 
10130415 120 18270962337185593906
10857977 72 17967542302068789503
12423570 1 16269678456391008863
124424 183 18337658738269798954
12696612 119 18264773340529937940
12932764 1 18187076257006115706
13024252 1 15430024474990030727
13380536 127 16588020199767668828
13581323 91 17457781189112572146
13764800 53 17677323897209442581
15076042 46 16515957060874142569
15219456 202 18342461473621080818
15775835 57 18259987054454851282
15906896 17 14636242990277750327
16945 1 17530685398587877535
17844478 74 18334301971650140128
19049666 15 18191866712982711718
19422 9 15357981110115321018
20645464 45 18411135844241396466
20653085 51 17418377973870428265
21501502 16 18268709583556729526
25 1 18128820746247425385
2748010 2 18129378362167917862
369184 2 17846499270111176635
528886 8 17704349957386364522
63268167 104 17346883342602271546
74978 22 17417810686142508342
77492 1 15985105193283668102
8030462 33 12679191500417198702
81228 2 18045219594510295715

>  <PUBCHEM_SHAPE_MULTIPOLES>  (1) 
251.7
5.06
1.45
1.24
1.62
0.15
0.12
-0.75
-1.01
-0.64
0.13
-0.2
-0.28
0.82

>  <PUBCHEM_SHAPE_SELFOVERLAP>  (1) 
532.264

>  <PUBCHEM_SHAPE_VOLUME>  (1) 
142.1

>  <PUBCHEM_COORDINATE_TYPE>  (1) 
2
5
10

$$$$
