21900
     RDKit          3D

 14 15  0  0  1  0  0  0  0  0999 V2000
    1.3456   -0.4246    0.4689 O   0  0  0  0  0  0  0  0  0  0  0  0
    0.7763    1.7177   -0.3103 O   0  0  0  0  0  0  0  0  0  0  0  0
    3.6369   -1.9600   -0.2787 O   0  0  0  0  0  0  0  0  0  0  0  0
   -0.9323    0.0283   -0.1958 C   0  0  0  0  0  0  0  0  0  0  0  0
    0.3259    0.5881    0.4557 C   0  0  0  0  0  0  0  0  0  0  0  0
   -1.4489   -1.1900    0.5814 C   0  0  0  0  0  0  0  0  0  0  0  0
   -2.0160    1.1100   -0.2997 C   0  0  0  0  0  0  0  0  0  0  0  0
   -2.7405   -1.7372   -0.0219 C   0  0  0  0  0  0  0  0  0  0  0  0
   -3.3067    0.5589   -0.9014 C   0  0  0  0  0  0  0  0  0  0  0  0
   -3.8124   -0.6572   -0.1316 C   0  0  0  0  0  0  0  0  0  0  0  0
    2.2775   -0.0122   -0.5347 C   0  0  0  0  0  0  0  0  0  0  0  0
    0.0586    1.0267    1.8901 C   0  0  0  0  0  0  0  0  0  0  0  0
    2.1745    1.4931   -0.4968 C   0  0  0  0  0  0  0  0  0  0  0  0
    3.6615   -0.5415   -0.2252 C   0  0  0  0  0  0  0  0  0  0  0  0
  1  5  1  0
  1 11  1  0
  2  5  1  0
  2 13  1  0
  3 14  1  0
  4  5  1  0
  4  6  1  0
  4  7  1  0
  5 12  1  0
  6  8  1  0
  7  9  1  0
  8 10  1  0
  9 10  1  0
 11 13  1  0
 11 14  1  0
M  END
>  <PUBCHEM_COMPOUND_CID>  (1) 
21900

>  <PUBCHEM_CONFORMER_RMSD>  (1) 
0.6

>  <PUBCHEM_CONFORMER_DIVERSEORDER>  (1) 
3
39
35
7
37
34
36
18
22
8
2
31
15
20
32
30
26
17
5
16
23
33
27
24
28
10
25
38
29
21
4
19
6
1
11
13
12
9
14

>  <PUBCHEM_MMFF94_PARTIAL_CHARGES>  (1) 
8
1 -0.56
11 0.28
13 0.28
14 0.28
2 -0.56
3 -0.68
34 0.4
5 0.56

>  <PUBCHEM_EFFECTIVE_ROTOR_COUNT>  (1) 
4.2

>  <PUBCHEM_PHARMACOPHORE_FEATURES>  (1) 
6
1 1 acceptor
1 2 acceptor
1 3 acceptor
1 3 donor
5 1 2 5 11 13 rings
6 4 6 7 8 9 10 rings

>  <PUBCHEM_HEAVY_ATOM_COUNT>  (1) 
14

>  <PUBCHEM_ATOM_DEF_STEREO_COUNT>  (1) 
0

>  <PUBCHEM_ATOM_UDEF_STEREO_COUNT>  (1) 
2

>  <PUBCHEM_BOND_DEF_STEREO_COUNT>  (1) 
0

>  <PUBCHEM_BOND_UDEF_STEREO_COUNT>  (1) 
0

>  <PUBCHEM_ISOTOPIC_ATOM_COUNT>  (1) 
0

>  <PUBCHEM_COMPONENT_COUNT>  (1) 
1

>  <PUBCHEM_CACTVS_TAUTO_COUNT>  (1) 
1

>  <PUBCHEM_CONFORMER_ID>  (1) 
0000558C00000003

>  <PUBCHEM_MMFF94_ENERGY>  (1) 
29.4027

>  <PUBCHEM_FEATURE_SELFOVERLAP>  (1) 
30.49

>  <PUBCHEM_SHAPE_FINGERPRINT>  (1) 
10130415 120 17988931075888520009
10465860 250 17989199326697843114
10465860 71 18335149661151043286
10922523 26 18334293192794944647
11769659 78 18341894112340692110
12186901 62 17603300428363425983
12346645 44 9799683797101390862
12423570 1 14731999934370947584
12932764 1 17630606936830113861
13296909 8 12895073998745295931
13549 16 18261390005627389631
13571099 22 18413387635486109766
13705890 14 18408603682121719972
14350558 41 18342463633921124022
15219456 202 18338513161419656773
15775835 57 17023174999214226045
16945 1 18335134246228646001
17834072 14 18410848855053964680
18186145 218 16153427272327314980
18619055 16 18342460390920076614
19422 9 18340212980942665493
200 152 18202847643305161950
20201158 50 18341897376526633535
20281407 28 18271527588650577075
20281475 54 18271529805212553779
20361792 2 16773801423917401417
20645477 70 18411982485327427606
20653085 51 17531254975649625189
20671657 53 18411143506800597900
20711985 327 15626221338049905480
21501502 16 18339369659692703493
21524375 3 11025803106452448476
22485316 2 18201717383505516430
22802520 49 18116158937972249835
23419403 2 11737572967747410153
23559900 14 18340760465082818472
2748010 2 18189608522458039605
3286 77 17560230449074393439
7364860 26 18267865167216882832
81228 2 16915403020869220096
8809292 202 18260834834023719939
93112 12 18333731338132049823

>  <PUBCHEM_SHAPE_MULTIPOLES>  (1) 
270.51
6.26
1.76
1.05
0.49
0.3
-0.45
2.56
1.68
0.44
0.04
-0.07
-0.32
0.28

>  <PUBCHEM_SHAPE_SELFOVERLAP>  (1) 
548.286

>  <PUBCHEM_SHAPE_VOLUME>  (1) 
157.2

>  <PUBCHEM_COORDINATE_TYPE>  (1) 
2
5
10

$$$$
