21910
     RDKit          3D

 20 23  0  0  1  0  0  0  0  0999 V2000
    6.9686    0.6395    0.3167 O   0  0  0  0  0  0  0  0  0  0  0  0
   -6.9686    0.6395   -0.3167 O   0  0  0  0  0  0  0  0  0  0  0  0
    3.6088   -0.3816   -0.1416 N   0  0  0  0  0  0  0  0  0  0  0  0
   -3.6088   -0.3816    0.1417 N   0  0  0  0  0  0  0  0  0  0  0  0
    0.6837   -0.3973   -0.3387 C   0  0  0  0  0  0  0  0  0  0  0  0
   -0.6838   -0.3973    0.3387 C   0  0  0  0  0  0  0  0  0  0  0  0
    1.4888   -1.6433    0.0457 C   0  0  0  0  0  0  0  0  0  0  0  0
    1.4772    0.8632    0.0217 C   0  0  0  0  0  0  0  0  0  0  0  0
   -1.4772    0.8633   -0.0217 C   0  0  0  0  0  0  0  0  0  0  0  0
   -1.4888   -1.6432   -0.0457 C   0  0  0  0  0  0  0  0  0  0  0  0
    2.8980   -1.6008   -0.5493 C   0  0  0  0  0  0  0  0  0  0  0  0
    2.8864    0.8227   -0.5730 C   0  0  0  0  0  0  0  0  0  0  0  0
   -2.8864    0.8226    0.5730 C   0  0  0  0  0  0  0  0  0  0  0  0
   -2.8980   -1.6008    0.5492 C   0  0  0  0  0  0  0  0  0  0  0  0
    4.9706   -0.3804   -0.6757 C   0  0  0  0  0  0  0  0  0  0  0  0
   -4.9706   -0.3804    0.6756 C   0  0  0  0  0  0  0  0  0  0  0  0
    5.7008    0.8678   -0.2992 C   0  0  0  0  0  0  0  0  0  0  0  0
   -5.7007    0.8678    0.2992 C   0  0  0  0  0  0  0  0  0  0  0  0
    5.9398    1.2101    1.1356 C   0  0  0  0  0  0  0  0  0  0  0  0
   -5.9398    1.2101   -1.1356 C   0  0  0  0  0  0  0  0  0  0  0  0
  1 17  1  0
  1 19  1  0
  2 18  1  0
  2 20  1  0
  3 11  1  0
  3 12  1  0
  3 15  1  0
  4 13  1  0
  4 14  1  0
  4 16  1  0
  5  6  1  0
  5  7  1  0
  5  8  1  0
  6  9  1  0
  6 10  1  0
  7 11  1  0
  8 12  1  0
  9 13  1  0
 10 14  1  0
 15 17  1  0
 16 18  1  0
 17 19  1  0
 18 20  1  0
M  END
>  <PUBCHEM_COMPOUND_CID>  (1) 
21910

>  <PUBCHEM_CONFORMER_RMSD>  (1) 
0.8

>  <PUBCHEM_CONFORMER_DIVERSEORDER>  (1) 
1
35
73
10
6
37
57
66
29
25
77
72
71
51
39
24
4
74
15
26
5
16
20
81
75
23
55
46
38
7
45
27
47
34
8
40
65
14
31
58
2
52
30
80
56
68
79
60
70
13
62
28
3
19
63
42
17
41
59
49
76
61
54
11
22
67
12
64
78
18
44
50
43
33
21
69
9
53
32
48
36

>  <PUBCHEM_MMFF94_PARTIAL_CHARGES>  (1) 
20
1 -0.3
11 0.27
12 0.27
13 0.27
14 0.27
15 0.37
16 0.37
17 -0.05
18 -0.05
19 -0.05
2 -0.3
20 -0.05
3 -0.81
4 -0.81
43 0.1
44 0.1
45 0.1
46 0.1
47 0.1
48 0.1

>  <PUBCHEM_EFFECTIVE_ROTOR_COUNT>  (1) 
8.6

>  <PUBCHEM_PHARMACOPHORE_FEATURES>  (1) 
6
1 1 acceptor
1 2 acceptor
1 3 cation
1 4 cation
6 3 5 7 8 11 12 rings
6 4 6 9 10 13 14 rings

>  <PUBCHEM_HEAVY_ATOM_COUNT>  (1) 
20

>  <PUBCHEM_ATOM_DEF_STEREO_COUNT>  (1) 
0

>  <PUBCHEM_ATOM_UDEF_STEREO_COUNT>  (1) 
2

>  <PUBCHEM_BOND_DEF_STEREO_COUNT>  (1) 
0

>  <PUBCHEM_BOND_UDEF_STEREO_COUNT>  (1) 
0

>  <PUBCHEM_ISOTOPIC_ATOM_COUNT>  (1) 
0

>  <PUBCHEM_COMPONENT_COUNT>  (1) 
1

>  <PUBCHEM_CACTVS_TAUTO_COUNT>  (1) 
1

>  <PUBCHEM_CONFORMER_ID>  (1) 
0000559600000001

>  <PUBCHEM_MMFF94_ENERGY>  (1) 
34.4444

>  <PUBCHEM_FEATURE_SELFOVERLAP>  (1) 
30.446

>  <PUBCHEM_SHAPE_FINGERPRINT>  (1) 
10 15 18113620114358706272
10366900 7 14045744815613656151
10968037 39 18273496775964608013
11089746 13 17703789236304770120
117890 112 18408605850768948518
12166972 35 12535342411140546658
12236239 1 17240204356477872968
12616971 3 16443350917913743214
12838862 33 18338781377711128801
13533116 47 17703230607574018030
14123256 10 17988924470598233049
14123256 34 9439403548988720637
14251718 22 12679466382534804752
14251764 18 17603586356646209235
14729087 3 18407757036572449421
15048467 5 18410575088958046215
15142383 8 16515676728411526060
16079462 125 18410849966865172101
18222031 100 13758353358391591922
200 152 17632859694695825667
20281389 69 18113899342808876397
20554085 129 18270384049571825306
21150785 3 16415476069193210221
220451 1 15140682509978771874
22224240 67 18411975888964068226
23035841 295 8790885176925291557
23081809 10 16415487008359128347
23402539 116 18334856155643966711
23402655 69 18342739594270641831
23559900 14 18201152247714552161
2767999 5 18411136935105119297
29717793 49 17489595506702070102
300161 21 18410854360643239075
3009799 131 17989204849862580233
33382 64 12901533638496840280
34797466 226 16845579720833005868
34934 24 18410853265400438690
3545911 37 18411141333151390062
4072396 5 18334287665942310842
4073 2 18041005093758766082
4340502 62 16732703839840132114
5104073 3 18337118856084799306
542803 24 16298110890840473791
59755656 215 18410295783425123468
59755656 520 16081368583373550459

>  <PUBCHEM_SHAPE_MULTIPOLES>  (1) 
389.89
17.35
1.61
0.88
0
0.5
0
-7.69
0
0
0
0
-0.14
1.11

>  <PUBCHEM_SHAPE_SELFOVERLAP>  (1) 
793.757

>  <PUBCHEM_SHAPE_VOLUME>  (1) 
226.2

>  <PUBCHEM_COORDINATE_TYPE>  (1) 
2
5
10

$$$$
