2191
     RDKit          3D

 16 17  0  0  0  0  0  0  0  0999 V2000
    2.9955   -2.3346    0.0068 Cl  0  0  0  0  0  0  0  0  0  0  0  0
   -2.8722    0.4957   -0.0068 S   0  0  0  0  0  0  0  0  0  0  0  0
   -4.2047   -0.4634    0.1129 O   0  0  0  0  0  0  0  0  0  0  0  0
    2.1938    2.7379   -0.0017 O   0  0  0  0  0  0  0  0  0  0  0  0
    3.8855    0.5709    0.0017 O   0  0  0  0  0  0  0  0  0  0  0  0
   -2.8087    1.3044    1.2102 O   0  0  0  0  0  0  0  0  0  0  0  0
   -2.8939    1.1289   -1.3240 O   0  0  0  0  0  0  0  0  0  0  0  0
   -1.5037   -0.4545   -0.0003 N   0  0  0  0  0  0  0  0  0  0  0  0
   -0.2049    0.0022   -0.0003 C   0  0  0  0  0  0  0  0  0  0  0  0
    0.6254   -1.1207    0.0007 C   0  0  0  0  0  0  0  0  0  0  0  0
   -0.2199   -2.2653    0.0014 C   0  0  0  0  0  0  0  0  0  0  0  0
   -1.5230   -1.8234    0.0006 C   0  0  0  0  0  0  0  0  0  0  0  0
    0.2933    1.3098   -0.0010 C   0  0  0  0  0  0  0  0  0  0  0  0
    2.0217   -0.9315    0.0010 C   0  0  0  0  0  0  0  0  0  0  0  0
    1.6815    1.4728   -0.0010 C   0  0  0  0  0  0  0  0  0  0  0  0
    2.5343    0.3709   -0.0001 C   0  0  0  0  0  0  0  0  0  0  0  0
  1 14  1  0
  2  3  1  0
  2  6  2  0
  2  7  2  0
  2  8  1  0
  4 15  1  0
  5 16  1  0
  8  9  1  0
  8 12  1  0
  9 10  2  0
  9 13  1  0
 10 11  1  0
 10 14  1  0
 11 12  2  0
 13 15  2  0
 14 16  2  0
 15 16  1  0
M  END
>  <PUBCHEM_COMPOUND_CID>  (1) 
2191

>  <PUBCHEM_CONFORMER_RMSD>  (1) 
0.6

>  <PUBCHEM_CONFORMER_DIVERSEORDER>  (1) 
1

>  <PUBCHEM_MMFF94_PARTIAL_CHARGES>  (1) 
21
1 -0.18
11 -0.15
12 -0.3
13 -0.15
14 0.18
15 0.08
16 0.08
17 0.15
18 0.15
19 0.15
2 1.47
20 0.5
21 0.45
22 0.45
3 -0.68
4 -0.53
5 -0.53
6 -0.65
7 -0.65
8 0.32
9 -0.15

>  <PUBCHEM_EFFECTIVE_ROTOR_COUNT>  (1) 
1

>  <PUBCHEM_PHARMACOPHORE_FEATURES>  (1) 
8
1 3 acceptor
1 4 donor
1 5 donor
1 6 acceptor
1 7 acceptor
4 2 3 6 7 anion
5 8 9 10 11 12 rings
6 9 10 13 14 15 16 rings

>  <PUBCHEM_HEAVY_ATOM_COUNT>  (1) 
16

>  <PUBCHEM_ATOM_DEF_STEREO_COUNT>  (1) 
0

>  <PUBCHEM_ATOM_UDEF_STEREO_COUNT>  (1) 
0

>  <PUBCHEM_BOND_DEF_STEREO_COUNT>  (1) 
0

>  <PUBCHEM_BOND_UDEF_STEREO_COUNT>  (1) 
0

>  <PUBCHEM_ISOTOPIC_ATOM_COUNT>  (1) 
0

>  <PUBCHEM_COMPONENT_COUNT>  (1) 
1

>  <PUBCHEM_CACTVS_TAUTO_COUNT>  (1) 
6

>  <PUBCHEM_CONFORMER_ID>  (1) 
0000088F00000001

>  <PUBCHEM_MMFF94_ENERGY>  (1) 
33.8347

>  <PUBCHEM_FEATURE_SELFOVERLAP>  (1) 
40.744

>  <PUBCHEM_SHAPE_FINGERPRINT>  (1) 
10608611 8 18335698373113863237
10967382 1 18410856564203821194
10980938 120 18408042888220899138
11471102 20 18338230471178009725
11680986 33 18409455807717593954
12403259 226 18334289825809538397
12491281 212 18411710893059499713
12654215 9 18117547436284639676
13140716 1 18266735981886691632
13380535 21 18335712675349755566
13380535 76 18411418453131859622
13897977 150 18410571816240446046
14144814 61 18411982433782129345
14614273 12 18047177837550986509
14648413 74 18336829796480484906
15219456 202 18261107431318418799
15442244 35 18340771429448821690
15536298 74 18272089370805598882
15775835 57 18334861636006210645
16945 1 18410855469055732492
18186145 218 18341899536947560591
18219364 16 18334014960819371993
193761 8 18266741474880934882
200 152 18201428178442020583
20671657 1 18411426128491326476
21501502 16 18266455606004786086
21524375 3 18408604798555000811
21639500 275 18339630192319182277
2334 1 17978228593139586092
23402539 116 18131062771079522629
23402655 69 18342166744612749861
23463225 33 18337954476532420682
23559900 14 18270973440377836724
25 1 18409728434950482782
2748010 2 18410579491563717046
3071541 158 18261112916091856798
528886 8 18411695504408053274
53812653 166 18341047505967925072
63268167 104 18410855430084522385
69090 78 18340482374108106103
7364860 26 18413389852143018986
74978 22 18412266150837393326
81228 2 17688299510093296299

>  <PUBCHEM_SHAPE_MULTIPOLES>  (1) 
300.66
5.79
2.55
0.75
2.11
0.06
-0.03
-0.54
0.02
-1.5
0.02
0.45
-0.15
0

>  <PUBCHEM_SHAPE_SELFOVERLAP>  (1) 
638.228

>  <PUBCHEM_SHAPE_VOLUME>  (1) 
171.7

>  <PUBCHEM_COORDINATE_TYPE>  (1) 
2
5
10

$$$$
