21912
     RDKit          3D

 27 28  0  0  0  0  0  0  0  0999 V2000
    5.3563   -1.3666    1.0140 S   0  0  0  0  0  0  0  0  0  0  0  0
   -6.6656    0.2033   -0.4694 O   0  0  0  0  0  0  0  0  0  0  0  0
   -8.1571   -1.1262    0.6632 O   0  0  0  0  0  0  0  0  0  0  0  0
    0.6154    0.6514    0.7385 N   0  0  0  0  0  0  0  0  0  0  0  0
    3.4006    0.8653    0.1417 N   0  0  0  0  0  0  0  0  0  0  0  0
   -8.8422    0.2750   -1.0542 N   0  0  0  0  0  0  0  0  0  0  0  0
    1.6132    0.5673    1.8123 C   0  0  0  0  0  0  0  0  0  0  0  0
    1.1583    0.0682   -0.4943 C   0  0  0  0  0  0  0  0  0  0  0  0
    2.8879    1.3270    1.4378 C   0  0  0  0  0  0  0  0  0  0  0  0
    2.4187    0.8102   -0.9456 C   0  0  0  0  0  0  0  0  0  0  0  0
   -0.6174   -0.0310    1.1296 C   0  0  0  0  0  0  0  0  0  0  0  0
   -1.8016    0.5145    0.3332 C   0  0  0  0  0  0  0  0  0  0  0  0
    4.7492    1.0961   -0.1520 C   0  0  0  0  0  0  0  0  0  0  0  0
   -3.1069   -0.1720    0.7427 C   0  0  0  0  0  0  0  0  0  0  0  0
   -4.2900    0.3481   -0.0793 C   0  0  0  0  0  0  0  0  0  0  0  0
    5.7392    0.1730    0.1852 C   0  0  0  0  0  0  0  0  0  0  0  0
    5.0937    2.2835   -0.7979 C   0  0  0  0  0  0  0  0  0  0  0  0
   -5.6068   -0.2979    0.3337 C   0  0  0  0  0  0  0  0  0  0  0  0
    7.0735    0.4375   -0.1237 C   0  0  0  0  0  0  0  0  0  0  0  0
    6.4281    2.5478   -1.1066 C   0  0  0  0  0  0  0  0  0  0  0  0
    7.4179    1.6249   -0.7695 C   0  0  0  0  0  0  0  0  0  0  0  0
    5.0723   -2.4740   -0.3938 C   0  0  0  0  0  0  0  0  0  0  0  0
    4.7224   -3.8762    0.0916 C   0  0  0  0  0  0  0  0  0  0  0  0
   -7.9163   -0.2946   -0.2058 C   0  0  0  0  0  0  0  0  0  0  0  0
    4.4772   -4.8161   -1.0798 C   0  0  0  0  0  0  0  0  0  0  0  0
  -10.2520   -0.0402   -1.0308 C   0  0  0  0  0  0  0  0  0  0  0  0
  -10.9680    0.7016    0.0789 C   0  0  0  0  0  0  0  0  0  0  0  0
  1 16  1  0
  1 22  1  0
  2 18  1  0
  2 24  1  0
  3 24  2  0
  4  7  1  0
  4  8  1  0
  4 11  1  0
  5  9  1  0
  5 10  1  0
  5 13  1  0
  6 24  1  0
  6 26  1  0
  7  9  1  0
  8 10  1  0
 11 12  1  0
 12 14  1  0
 13 16  2  0
 13 17  1  0
 14 15  1  0
 15 18  1  0
 16 19  1  0
 17 20  2  0
 19 21  2  0
 20 21  1  0
 22 23  1  0
 23 25  1  0
 26 27  1  0
M  END
>  <PUBCHEM_COMPOUND_CID>  (1) 
21912

>  <PUBCHEM_CONFORMER_RMSD>  (1) 
1.2

>  <PUBCHEM_CONFORMER_DIVERSEORDER>  (1) 
1
11
58
52
53
46
49
35
41
43
44
10
38
57
36
40
48
50
3
56
32
26
31
23
45
2
27
54
39
14
16
19
12
4
28
7
47
25
5
51
34
22
15
20
59
9
33
42
8
17
21
6
29
13
55
30
37
24
18

>  <PUBCHEM_MMFF94_PARTIAL_CHARGES>  (1) 
26
1 -0.33
10 0.37
11 0.27
13 0.1
16 0.1
17 -0.15
18 0.28
19 -0.15
2 -0.43
20 -0.15
21 -0.15
22 0.23
24 0.78
26 0.3
3 -0.57
4 -0.81
44 0.15
47 0.15
48 0.15
49 0.15
5 -0.84
57 0.37
6 -0.73
7 0.27
8 0.27
9 0.37

>  <PUBCHEM_EFFECTIVE_ROTOR_COUNT>  (1) 
14.2

>  <PUBCHEM_PHARMACOPHORE_FEATURES>  (1) 
7
1 25 hydrophobe
1 3 acceptor
1 4 cation
1 5 cation
1 6 donor
6 13 16 17 19 20 21 rings
6 4 5 7 8 9 10 rings

>  <PUBCHEM_HEAVY_ATOM_COUNT>  (1) 
27

>  <PUBCHEM_ATOM_DEF_STEREO_COUNT>  (1) 
0

>  <PUBCHEM_ATOM_UDEF_STEREO_COUNT>  (1) 
0

>  <PUBCHEM_BOND_DEF_STEREO_COUNT>  (1) 
0

>  <PUBCHEM_BOND_UDEF_STEREO_COUNT>  (1) 
0

>  <PUBCHEM_ISOTOPIC_ATOM_COUNT>  (1) 
0

>  <PUBCHEM_COMPONENT_COUNT>  (1) 
1

>  <PUBCHEM_CACTVS_TAUTO_COUNT>  (1) 
2

>  <PUBCHEM_CONFORMER_ID>  (1) 
0000559800000001

>  <PUBCHEM_MMFF94_ENERGY>  (1) 
54.0742

>  <PUBCHEM_FEATURE_SELFOVERLAP>  (1) 
35.523

>  <PUBCHEM_SHAPE_FINGERPRINT>  (1) 
10951579 204 16879351108525881407
11135609 127 18264770042607660076
11181472 205 18339368474519600497
13533116 47 18271807891681646826
14118638 360 18202008698236666529
14251764 18 17846784005527046065
14251764 46 16298383574362222161
15152005 1 17624700055540790078
15183329 4 17561368391895408915
15328684 2 17202777981718298491
15510794 2 18113340826121736387
15690457 1 12823299009746176613
1577012 14 16805592712445743723
15840311 113 13695589975509642758
1754911 235 17821721767917634117
20157964 124 18335706048716065876
20721686 124 18040154025131724194
20771845 171 18408611349166013798
21360442 33 18189050894133622730
21360442 67 18334859433126766842
21362267 313 10809879879883667077
22956985 138 16770725918765805942
255183 451 18055644911258771886
2835820 82 18196654003996685319
34797466 226 17967249801900512984
3633792 109 18113901550343004097
3711267 37 14923943419542450231
57359948 33 17168150031532979014
59682541 52 18409730642853959778
6025842 7 18409172113223635098
67123 10 17894347809504071161

>  <PUBCHEM_SHAPE_MULTIPOLES>  (1) 
532.82
33.25
3.23
1.24
111.65
5.55
0.23
-2.53
-9.4
-11.32
-1.33
-0.56
-0.13
-0.33

>  <PUBCHEM_SHAPE_SELFOVERLAP>  (1) 
1045.537

>  <PUBCHEM_SHAPE_VOLUME>  (1) 
320.7

>  <PUBCHEM_COORDINATE_TYPE>  (1) 
2
5
10

$$$$
