21918
     RDKit          3D

 18 21  0  0  1  0  0  0  0  0999 V2000
    2.4220    1.1408   -0.4915 N   0  0  0  0  0  0  0  0  0  0  0  0
   -2.4580   -2.0214    0.2208 N   0  0  0  0  0  0  0  0  0  0  0  0
    3.5435   -0.8135    0.8053 C   0  0  0  0  0  0  0  0  0  0  0  0
    1.3864    0.1833   -0.0181 C   0  0  0  0  0  0  0  0  0  0  0  0
    2.0321   -1.0502    0.6520 C   0  0  0  0  0  0  0  0  0  0  0  0
    3.7505    0.5243    1.5318 C   0  0  0  0  0  0  0  0  0  0  0  0
    4.1312   -0.6801   -0.6069 C   0  0  0  0  0  0  0  0  0  0  0  0
    3.1386    1.6623    0.6973 C   0  0  0  0  0  0  0  0  0  0  0  0
    3.4131    0.4558   -1.3522 C   0  0  0  0  0  0  0  0  0  0  0  0
    0.4150   -0.2180   -1.1305 C   0  0  0  0  0  0  0  0  0  0  0  0
   -0.8938   -0.7004   -0.5714 C   0  0  0  0  0  0  0  0  0  0  0  0
   -2.0164    0.1034   -0.2963 C   0  0  0  0  0  0  0  0  0  0  0  0
   -1.1737   -1.9936   -0.2525 C   0  0  0  0  0  0  0  0  0  0  0  0
   -2.9972   -0.7548    0.2056 C   0  0  0  0  0  0  0  0  0  0  0  0
   -2.3133    1.4754   -0.4176 C   0  0  0  0  0  0  0  0  0  0  0  0
   -4.2653   -0.3077    0.5936 C   0  0  0  0  0  0  0  0  0  0  0  0
   -3.5776    1.9369   -0.0335 C   0  0  0  0  0  0  0  0  0  0  0  0
   -4.5371    1.0574    0.4641 C   0  0  0  0  0  0  0  0  0  0  0  0
  1  4  1  0
  1  8  1  0
  1  9  1  0
  2 13  1  0
  2 14  1  0
  3  5  1  0
  3  6  1  0
  3  7  1  0
  4  5  1  0
  4 10  1  0
  6  8  1  0
  7  9  1  0
 10 11  1  0
 11 12  1  0
 11 13  2  0
 12 14  2  0
 12 15  1  0
 14 16  1  0
 15 17  2  0
 16 18  2  0
 17 18  1  0
M  END
>  <PUBCHEM_COMPOUND_CID>  (1) 
21918

>  <PUBCHEM_CONFORMER_RMSD>  (1) 
0.6

>  <PUBCHEM_CONFORMER_DIVERSEORDER>  (1) 
2
10
9
13
11
8
14
12
3
4
6
5
7
1

>  <PUBCHEM_MMFF94_PARTIAL_CHARGES>  (1) 
19
1 -0.81
10 0.18
11 -0.18
13 -0.3
14 -0.15
15 -0.15
16 -0.15
17 -0.15
18 -0.15
2 0.03
33 0.15
34 0.27
35 0.15
36 0.15
37 0.15
38 0.15
4 0.27
8 0.27
9 0.27

>  <PUBCHEM_EFFECTIVE_ROTOR_COUNT>  (1) 
3.2

>  <PUBCHEM_PHARMACOPHORE_FEATURES>  (1) 
6
1 1 cation
1 2 cation
1 2 donor
5 2 11 12 13 14 rings
6 12 14 15 16 17 18 rings
8 1 3 4 5 6 7 8 9 rings

>  <PUBCHEM_HEAVY_ATOM_COUNT>  (1) 
18

>  <PUBCHEM_ATOM_DEF_STEREO_COUNT>  (1) 
0

>  <PUBCHEM_ATOM_UDEF_STEREO_COUNT>  (1) 
1

>  <PUBCHEM_BOND_DEF_STEREO_COUNT>  (1) 
0

>  <PUBCHEM_BOND_UDEF_STEREO_COUNT>  (1) 
0

>  <PUBCHEM_ISOTOPIC_ATOM_COUNT>  (1) 
0

>  <PUBCHEM_COMPONENT_COUNT>  (1) 
1

>  <PUBCHEM_CACTVS_TAUTO_COUNT>  (1) 
1

>  <PUBCHEM_CONFORMER_ID>  (1) 
0000559E00000002

>  <PUBCHEM_MMFF94_ENERGY>  (1) 
37.8112

>  <PUBCHEM_FEATURE_SELFOVERLAP>  (1) 
30.54

>  <PUBCHEM_SHAPE_FINGERPRINT>  (1) 
10366900 7 17967820469862556417
10608611 8 18343300396339481860
10646746 165 18342175570380113640
10799339 124 18333730199823323987
11132069 177 18412824694470841117
12107183 9 17537993667641402889
12173636 292 18411412934341464679
12236239 1 17676213476142701236
12251169 10 18333447634019820135
12403259 415 18272935998974858433
12507560 40 18272647978541503880
12633257 1 18408597046196800648
12670546 177 11167934783878097906
12670546 56 18409440406085877827
12788726 201 17536604262954530146
128620 24 8070023372212691986
13134695 92 16128379238459502896
13224815 77 17530962514183163358
13533116 47 18113614543897082011
13544653 18 12757155679657205855
13675066 3 18343863316338960402
14004511 7 18413103948595973335
14144814 61 18334290976602336710
14178342 30 18191573345510921834
14252887 29 14490477486750870870
14289901 80 18261675986045931890
14420673 8 18118401740051938218
14866123 147 16615624251148660126
15238133 3 18411420566698997992
15375462 189 17458617879096696194
1813 80 16515969160203509582
18186145 218 17632582647197478870
19050596 39 18114177562057841546
19078846 21 18260261932884105812
19107657 162 11241968174551878176
19422 9 17894914035673591990
20510252 161 18271529779584928259
20645477 56 18272367598380637561
20645477 70 16415488138256962918
21065199 12 18411696625352371626
21503847 285 18335144206701046956
21524375 3 18341329990378202719
23402539 116 18341043099880417647
23557571 272 17774154742193124426
23559900 14 18272099266383622366
2871803 45 8935000377791175304
351380 180 18272645732289672661
474 4 16734971161681605548
495365 180 17346590846935008838
5104073 3 18408603686168683754
5161694 15 17775292651039354502
5374978 207 18334856151565114761
57724786 102 17060066981506891240
633830 44 17703790288835469325
7097593 13 18115013117954704746
7808743 9 18124875913771585464
90316 7 17894627033295894797
9709674 26 18413392046412871775
9971528 1 14405191630139178886

>  <PUBCHEM_SHAPE_MULTIPOLES>  (1) 
360.47
9.32
1.85
1.11
1.09
0.04
0.01
-2.13
1.72
1.02
0.1
-1.04
-0.09
0.18

>  <PUBCHEM_SHAPE_SELFOVERLAP>  (1) 
794.282

>  <PUBCHEM_SHAPE_VOLUME>  (1) 
191.7

>  <PUBCHEM_COORDINATE_TYPE>  (1) 
2
5
10

$$$$
