21916
     RDKit          3D

 23 24  0  0  1  0  0  0  0  0999 V2000
    0.6671    0.7477   -0.5635 O   0  0  0  0  0  0  0  0  0  0  0  0
    4.0548    2.0899   -0.1262 N   0  0  0  0  0  0  0  0  0  0  0  0
   -2.1992    1.8572    0.9311 C   0  0  0  0  0  0  0  0  0  0  0  0
   -2.5343    0.7109   -0.0375 C   0  0  0  0  0  0  0  0  0  0  0  0
   -1.5633   -0.2042   -0.3598 C   0  0  0  0  0  0  0  0  0  0  0  0
   -0.1786   -0.1353    0.1954 C   0  0  0  0  0  0  0  0  0  0  0  0
   -3.4448    2.7466    1.1340 C   0  0  0  0  0  0  0  0  0  0  0  0
   -1.0540    2.7128    0.3473 C   0  0  0  0  0  0  0  0  0  0  0  0
   -1.7455    1.3813    2.3298 C   0  0  0  0  0  0  0  0  0  0  0  0
   -3.8119    0.6605   -0.5403 C   0  0  0  0  0  0  0  0  0  0  0  0
   -1.8892   -1.2357   -1.2404 C   0  0  0  0  0  0  0  0  0  0  0  0
    0.4989   -1.4941    0.3248 C   0  0  0  0  0  0  0  0  0  0  0  0
   -4.1379   -0.3710   -1.4209 C   0  0  0  0  0  0  0  0  0  0  0  0
   -3.1766   -1.3191   -1.7709 C   0  0  0  0  0  0  0  0  0  0  0  0
    1.9180    0.9195    0.0747 C   0  0  0  0  0  0  0  0  0  0  0  0
    2.7815    1.8546   -0.7522 C   0  0  0  0  0  0  0  0  0  0  0  0
    0.2482   -2.2585    1.4449 C   0  0  0  0  0  0  0  0  0  0  0  0
    1.3415   -1.9160   -0.6821 C   0  0  0  0  0  0  0  0  0  0  0  0
    0.8687   -3.5022    1.5636 C   0  0  0  0  0  0  0  0  0  0  0  0
    1.9618   -3.1597   -0.5635 C   0  0  0  0  0  0  0  0  0  0  0  0
    1.7255   -3.9528    0.5594 C   0  0  0  0  0  0  0  0  0  0  0  0
    4.8698    3.0324   -0.9084 C   0  0  0  0  0  0  0  0  0  0  0  0
    4.7995    0.8351    0.0609 C   0  0  0  0  0  0  0  0  0  0  0  0
  1  6  1  0
  1 15  1  0
  2 16  1  0
  2 22  1  0
  2 23  1  0
  3  4  1  0
  3  7  1  0
  3  8  1  0
  3  9  1  0
  4  5  2  0
  4 10  1  0
  5  6  1  0
  5 11  1  0
  6 12  1  0
 10 13  2  0
 11 14  2  0
 12 17  2  0
 12 18  1  0
 13 14  1  0
 15 16  1  0
 17 19  1  0
 18 20  2  0
 19 21  2  0
 20 21  1  0
M  END
>  <PUBCHEM_COMPOUND_CID>  (1) 
21916

>  <PUBCHEM_CONFORMER_RMSD>  (1) 
0.8

>  <PUBCHEM_CONFORMER_DIVERSEORDER>  (1) 
6
23
9
25
3
11
16
18
17
7
14
12
22
10
13
2
5
19
15
20
1
8
21
4
24

>  <PUBCHEM_MMFF94_PARTIAL_CHARGES>  (1) 
29
1 -0.56
10 -0.15
11 -0.15
12 -0.14
13 -0.15
14 -0.15
15 0.28
16 0.27
17 -0.15
18 -0.15
19 -0.15
2 -0.81
20 -0.15
21 -0.15
22 0.27
23 0.27
3 0.14
34 0.15
35 0.15
36 0.15
37 0.15
4 -0.14
42 0.15
43 0.15
44 0.15
45 0.15
46 0.15
5 -0.14
6 0.57

>  <PUBCHEM_EFFECTIVE_ROTOR_COUNT>  (1) 
7

>  <PUBCHEM_PHARMACOPHORE_FEATURES>  (1) 
5
1 1 acceptor
1 2 cation
4 3 7 8 9 hydrophobe
6 12 17 18 19 20 21 rings
6 4 5 10 11 13 14 rings

>  <PUBCHEM_HEAVY_ATOM_COUNT>  (1) 
23

>  <PUBCHEM_ATOM_DEF_STEREO_COUNT>  (1) 
0

>  <PUBCHEM_ATOM_UDEF_STEREO_COUNT>  (1) 
1

>  <PUBCHEM_BOND_DEF_STEREO_COUNT>  (1) 
0

>  <PUBCHEM_BOND_UDEF_STEREO_COUNT>  (1) 
0

>  <PUBCHEM_ISOTOPIC_ATOM_COUNT>  (1) 
0

>  <PUBCHEM_COMPONENT_COUNT>  (1) 
1

>  <PUBCHEM_CACTVS_TAUTO_COUNT>  (1) 
1

>  <PUBCHEM_CONFORMER_ID>  (1) 
0000559C00000006

>  <PUBCHEM_MMFF94_ENERGY>  (1) 
107.1615

>  <PUBCHEM_FEATURE_SELFOVERLAP>  (1) 
25.371

>  <PUBCHEM_SHAPE_FINGERPRINT>  (1) 
11135609 187 18265044919696686301
11578080 2 17606951789956030068
12035759 4 18342730802061019959
121448 382 18269837669533607464
12160290 23 17610368273521773486
12293681 160 18200026394941761553
12553582 1 17614842907641955283
12788726 201 17612865316226562538
13009979 54 17700125509142969819
13149001 5 17403719542430925197
133893 2 18188480260139920730
13540713 5 18129093430022388021
13583140 156 17682693813674065121
14787075 74 18265612281056059639
14943834 7 18270113492348764925
15420108 30 17049102364293300256
16945 1 18200866387871494453
20600515 1 14361791001949046587
21033650 10 17843436031334196468
21524375 3 18412543232389594836
22112679 90 17834953070843394991
2255824 54 18265329508487672006
22907989 373 17686643624170125292
23366157 5 18190462658203758742
23558518 356 18339659904712973406
23559900 14 16986021281298779206
23566358 27 18339367340257519215
25147074 1 18129935660213656205
266924 1 18271236145492440533
283562 15 18268993266157088857
3091708 16 8686597564604438754
352729 6 18120945168154655158
394222 165 17678431217023972154
4409770 3 17758117377497234906
474 4 18335700524997869578
6138700 20 18337387133645373534
6992083 37 17550948088044187235
90316 7 17256515323550136531
9981440 41 18337388348350316426

>  <PUBCHEM_SHAPE_MULTIPOLES>  (1) 
462.48
7.54
4.67
1.6
3.82
2.29
-0.42
-6.41
2.49
4.31
-1.12
-1.19
0.31
-2.59

>  <PUBCHEM_SHAPE_SELFOVERLAP>  (1) 
969.198

>  <PUBCHEM_SHAPE_VOLUME>  (1) 
263.8

>  <PUBCHEM_COORDINATE_TYPE>  (1) 
2
5
10

$$$$
