2192
     RDKit          3D

 21 24  0  0  1  0  0  0  0  0999 V2000
   -4.1523   -1.2263    1.1432 O   0  0  0  0  0  0  0  0  0  0  0  0
    5.4194   -0.1502   -0.9452 O   0  0  0  0  0  0  0  0  0  0  0  0
   -0.6740    0.8528    0.0328 C   0  0  0  0  0  0  0  0  0  0  0  0
   -1.9860    0.7977   -0.8078 C   0  0  0  0  0  0  0  0  0  0  0  0
    0.1850   -0.4353   -0.1151 C   0  0  0  0  0  0  0  0  0  0  0  0
   -2.7586   -0.5449   -0.7381 C   0  0  0  0  0  0  0  0  0  0  0  0
    1.5539   -0.3578    0.6639 C   0  0  0  0  0  0  0  0  0  0  0  0
   -0.6863   -1.6404    0.2837 C   0  0  0  0  0  0  0  0  0  0  0  0
   -1.8733   -1.7880   -0.6577 C   0  0  0  0  0  0  0  0  0  0  0  0
   -3.0181    1.8195   -0.2865 C   0  0  0  0  0  0  0  0  0  0  0  0
    0.1468    2.1022   -0.3496 C   0  0  0  0  0  0  0  0  0  0  0  0
   -3.6050   -0.3307    0.5115 C   0  0  0  0  0  0  0  0  0  0  0  0
   -3.7145    1.1270    0.8820 C   0  0  0  0  0  0  0  0  0  0  0  0
    2.2519    0.9464    0.2730 C   0  0  0  0  0  0  0  0  0  0  0  0
    1.4439    2.2051    0.4428 C   0  0  0  0  0  0  0  0  0  0  0  0
   -3.7338   -0.7059   -1.9192 C   0  0  0  0  0  0  0  0  0  0  0  0
    1.3612   -0.3882    2.1973 C   0  0  0  0  0  0  0  0  0  0  0  0
    2.4200   -1.5648    0.3240 C   0  0  0  0  0  0  0  0  0  0  0  0
    3.4886    1.0074   -0.2454 C   0  0  0  0  0  0  0  0  0  0  0  0
    3.6508   -1.5119   -0.1947 C   0  0  0  0  0  0  0  0  0  0  0  0
    4.2805   -0.2137   -0.4947 C   0  0  0  0  0  0  0  0  0  0  0  0
  1 12  2  0
  2 21  2  0
  3  4  1  0
  3  5  1  0
  3 11  1  0
  4  6  1  0
  4 10  1  0
  5  7  1  0
  5  8  1  0
  6  9  1  0
  6 12  1  0
  6 16  1  0
  7 14  1  0
  7 17  1  0
  7 18  1  0
  8  9  1  0
 10 13  1  0
 11 15  1  0
 12 13  1  0
 14 15  1  0
 14 19  2  0
 18 20  2  0
 19 21  1  0
 20 21  1  0
M  END
>  <PUBCHEM_COMPOUND_CID>  (1) 
2192

>  <PUBCHEM_CONFORMER_RMSD>  (1) 
0.6

>  <PUBCHEM_CONFORMER_DIVERSEORDER>  (1) 
1
25
16
18
7
23
24
14
26
8
10
15
6
12
13
9
19
21
20
28
4
11
17
3
27
22
2
5

>  <PUBCHEM_MMFF94_PARTIAL_CHARGES>  (1) 
15
1 -0.57
12 0.45
13 0.06
14 -0.28
15 0.14
18 -0.29
19 -0.14
2 -0.57
20 -0.14
21 0.54
43 0.15
44 0.15
45 0.15
6 0.06
7 0.28

>  <PUBCHEM_EFFECTIVE_ROTOR_COUNT>  (1) 
1.2

>  <PUBCHEM_PHARMACOPHORE_FEATURES>  (1) 
6
1 1 acceptor
1 2 acceptor
5 4 6 10 12 13 rings
6 3 4 5 6 8 9 rings
6 3 5 7 11 14 15 rings
6 7 14 18 19 20 21 rings

>  <PUBCHEM_HEAVY_ATOM_COUNT>  (1) 
21

>  <PUBCHEM_ATOM_DEF_STEREO_COUNT>  (1) 
0

>  <PUBCHEM_ATOM_UDEF_STEREO_COUNT>  (1) 
5

>  <PUBCHEM_BOND_DEF_STEREO_COUNT>  (1) 
0

>  <PUBCHEM_BOND_UDEF_STEREO_COUNT>  (1) 
0

>  <PUBCHEM_ISOTOPIC_ATOM_COUNT>  (1) 
0

>  <PUBCHEM_COMPONENT_COUNT>  (1) 
1

>  <PUBCHEM_CACTVS_TAUTO_COUNT>  (1) 
6

>  <PUBCHEM_CONFORMER_ID>  (1) 
0000089000000001

>  <PUBCHEM_MMFF94_ENERGY>  (1) 
55.9693

>  <PUBCHEM_FEATURE_SELFOVERLAP>  (1) 
30.662

>  <PUBCHEM_SHAPE_FINGERPRINT>  (1) 
10366900 7 17458626761110144091
10498660 4 17095512994122972669
11132069 177 18341037545691021112
11578080 2 17559365055555540097
12011746 2 18334294271422488551
121448 382 16370728166203345362
12236239 1 17846218899600197231
124424 183 15554446279930051681
12553582 1 18411130338188203536
12788726 201 17844821282729834416
128620 24 15068627079992346651
13134695 92 14333118685487501426
13140716 1 18265041440793833905
13221675 6 18335135410038013744
13224815 77 17676482843574981705
13296908 3 18113330903850119651
14787075 74 17531823465968160880
14790565 3 17980769233541204928
15196674 1 18409731733812381124
15209289 33 18333456455967081315
15309172 13 18412542119998476271
15375462 189 18261108530687641416
15536298 74 18272083941930033040
16752209 62 18267001921866303229
16945 1 18266445671866665249
17804303 29 18343024397541168557
18186145 218 17603584101856950634
19591789 44 18408606950370727930
19862831 5 18262223487012513109
200 152 18201725046349469738
20871999 31 18409445869247205934
21267235 1 18411147947496263830
23175994 123 16845579703468299744
2334 1 18337098012734955537
23402539 116 18410854326895079860
23493267 7 17968653796713363337
23559900 14 17988064699243758361
23566358 27 18047202026854322261
2748010 2 18263905714065231709
296302 2 14261343670211578112
312423 11 17130981135033392781
3286 77 16486678281739181327
3323516 105 18408325510085642712
350125 39 18411985750241005057
474 4 17386295410415694836
5104073 3 18409446951826962920
633830 44 17676492696504382252
7364860 26 18128245882271366752
74978 22 18341885337891194423
7832392 63 18341327863963280632
90525 40 18273209781643828983
9709674 26 18197208359355426750
9981440 41 17257930919449922984

>  <PUBCHEM_SHAPE_MULTIPOLES>  (1) 
420.43
8.46
2.09
1.3
2.95
0.46
0.24
-1.19
-1.59
-0.19
-0.03
-0.53
-0.25
-0.19

>  <PUBCHEM_SHAPE_SELFOVERLAP>  (1) 
914.385

>  <PUBCHEM_SHAPE_VOLUME>  (1) 
227.3

>  <PUBCHEM_COORDINATE_TYPE>  (1) 
2
5
10

$$$$
