21930
     RDKit          3D

 16 17  0  0  0  0  0  0  0  0999 V2000
   -4.5923   -2.0420   -0.2167 Cl  0  0  0  0  0  0  0  0  0  0  0  0
    4.1576    0.5372    0.0550 O   0  0  0  0  0  0  0  0  0  0  0  0
    2.5964    2.2216   -0.2148 O   0  0  0  0  0  0  0  0  0  0  0  0
    4.0032   -0.8314    0.1175 N   0  0  0  0  0  0  0  0  0  0  0  0
    0.6157    0.0521   -0.3821 N   0  0  0  0  0  0  0  0  0  0  0  0
   -0.0522    0.1536    0.6717 N   0  0  0  0  0  0  0  0  0  0  0  0
    2.7047   -1.1913   -0.0476 C   0  0  0  0  0  0  0  0  0  0  0  0
    1.9473   -0.1021   -0.1928 C   0  0  0  0  0  0  0  0  0  0  0  0
    2.3045   -2.6221   -0.0576 C   0  0  0  0  0  0  0  0  0  0  0  0
    2.8906    1.0428   -0.1240 C   0  0  0  0  0  0  0  0  0  0  0  0
   -1.4156    0.3093    0.3668 C   0  0  0  0  0  0  0  0  0  0  0  0
   -2.2280   -0.8132    0.2418 C   0  0  0  0  0  0  0  0  0  0  0  0
   -1.9423    1.5852    0.1919 C   0  0  0  0  0  0  0  0  0  0  0  0
   -3.5807   -0.6583   -0.0610 C   0  0  0  0  0  0  0  0  0  0  0  0
   -3.2948    1.7402   -0.1109 C   0  0  0  0  0  0  0  0  0  0  0  0
   -4.1142    0.6184   -0.2373 C   0  0  0  0  0  0  0  0  0  0  0  0
  1 14  1  0
  2  4  1  0
  2 10  1  0
  3 10  2  0
  4  7  1  0
  5  6  2  0
  5  8  1  0
  6 11  1  0
  7  8  2  0
  7  9  1  0
  8 10  1  0
 11 12  2  0
 11 13  1  0
 12 14  1  0
 13 15  2  0
 14 16  2  0
 15 16  1  0
M  END
>  <PUBCHEM_COMPOUND_CID>  (1) 
21930

>  <PUBCHEM_CONFORMER_RMSD>  (1) 
0.6

>  <PUBCHEM_CONFORMER_DIVERSEORDER>  (1) 
3
1
5
2
6
4

>  <PUBCHEM_MMFF94_PARTIAL_CHARGES>  (1) 
21
1 -0.18
10 0.71
11 0.18
12 -0.15
13 -0.15
14 0.18
15 -0.15
16 -0.15
2 -0.13
20 0.4
21 0.15
22 0.15
23 0.15
24 0.15
3 -0.57
4 -0.52
5 -0.17
6 -0.18
7 -0.04
8 0.19
9 0.14

>  <PUBCHEM_EFFECTIVE_ROTOR_COUNT>  (1) 
2

>  <PUBCHEM_PHARMACOPHORE_FEATURES>  (1) 
3
1 3 acceptor
5 2 4 7 8 10 rings
6 11 12 13 14 15 16 rings

>  <PUBCHEM_HEAVY_ATOM_COUNT>  (1) 
16

>  <PUBCHEM_ATOM_DEF_STEREO_COUNT>  (1) 
0

>  <PUBCHEM_ATOM_UDEF_STEREO_COUNT>  (1) 
0

>  <PUBCHEM_BOND_DEF_STEREO_COUNT>  (1) 
0

>  <PUBCHEM_BOND_UDEF_STEREO_COUNT>  (1) 
1

>  <PUBCHEM_ISOTOPIC_ATOM_COUNT>  (1) 
0

>  <PUBCHEM_COMPONENT_COUNT>  (1) 
1

>  <PUBCHEM_CACTVS_TAUTO_COUNT>  (1) 
3

>  <PUBCHEM_CONFORMER_ID>  (1) 
000055AA00000003

>  <PUBCHEM_MMFF94_ENERGY>  (1) 
40.2703

>  <PUBCHEM_FEATURE_SELFOVERLAP>  (1) 
15.223

>  <PUBCHEM_SHAPE_FINGERPRINT>  (1) 
10608611 8 18408602539418092365
10616163 171 18413672430784374367
11615757 297 17775011214432603929
12916754 54 18342745121703472233
13167823 11 18411698781436704879
14144814 61 18338519642467115424
14289901 80 18411983567917291681
14415576 193 18335425685803816092
15196674 1 18410856559645070830
15375462 6 18410576205728801053
15442244 35 18122908616511631424
17492 89 18411419479856481407
17834074 16 18411700971901498879
18186145 218 18341339881202445641
19050596 39 18413109454849587409
200 152 18272649056288196809
20281475 54 18272652355245190435
20645477 56 18188209797971339301
20645477 70 18341332188927016486
21267235 1 18411146843673870439
21618674 54 18410571773464943751
21709351 56 18408318895799058116
221490 88 18410019822949576554
22485316 2 18413387627260236903
23402539 116 18334287682620877165
23402655 69 18336828597894666836
23557571 272 18272941513728684373
23559900 14 18341325583419854178
2871803 45 18409726300673990143
3545911 37 18410857624881629109
4214541 1 18410573951166363101
5104073 3 18411981347181758513
573450 72 18261662684548027691
58051976 100 18411139100195820295
58051976 378 18413669119016085263
633830 44 16733276646511278061
67856867 119 18336258037676064832
7364860 26 18340487772997892234
77779 3 18411139121391016629
93112 12 18410013191398290957
9709674 26 18409174302692189715

>  <PUBCHEM_SHAPE_MULTIPOLES>  (1) 
304.46
9.24
2.3
0.65
1.04
0.57
0.01
1.64
-0.6
0.09
-0.13
0.11
0.01
-0.16

>  <PUBCHEM_SHAPE_SELFOVERLAP>  (1) 
644.54

>  <PUBCHEM_SHAPE_VOLUME>  (1) 
172

>  <PUBCHEM_COORDINATE_TYPE>  (1) 
2
5
10

$$$$
