21931
     RDKit          3D

 14 15  0  0  0  0  0  0  0  0999 V2000
    3.9769   -1.0863    0.0024 O   0  0  0  0  0  0  0  0  0  0  0  0
    3.9460    1.1086    0.0003 O   0  0  0  0  0  0  0  0  0  0  0  0
    1.1604    1.1100   -0.0003 N   0  0  0  0  0  0  0  0  0  0  0  0
    1.2064   -1.1121   -0.0012 N   0  0  0  0  0  0  0  0  0  0  0  0
    3.3308    0.0023    0.0007 N   0  0  0  0  0  0  0  0  0  0  0  0
   -0.1532    0.7167   -0.0006 C   0  0  0  0  0  0  0  0  0  0  0  0
   -0.0981   -0.6743   -0.0012 C   0  0  0  0  0  0  0  0  0  0  0  0
   -2.5321    0.6910   -0.0008 C   0  0  0  0  0  0  0  0  0  0  0  0
   -2.5091   -0.7058   -0.0011 C   0  0  0  0  0  0  0  0  0  0  0  0
   -1.3485    1.4364   -0.0003 C   0  0  0  0  0  0  0  0  0  0  0  0
   -1.2969   -1.4073   -0.0014 C   0  0  0  0  0  0  0  0  0  0  0  0
    1.9336   -0.0175   -0.0010 C   0  0  0  0  0  0  0  0  0  0  0  0
   -3.8339    1.4277    0.0020 C   0  0  0  0  0  0  0  0  0  0  0  0
   -3.7826   -1.4893    0.0024 C   0  0  0  0  0  0  0  0  0  0  0  0
  1  5  1  0
  2  5  2  0
  3  6  1  0
  3 12  1  0
  4  7  1  0
  4 12  2  0
  5 12  1  0
  6  7  2  0
  6 10  1  0
  7 11  1  0
  8  9  1  0
  8 10  2  0
  8 13  1  0
  9 11  2  0
  9 14  1  0
M  CHG  2   1  -1   5   1
M  END
>  <PUBCHEM_COMPOUND_CID>  (1) 
21931

>  <PUBCHEM_CONFORMER_RMSD>  (1) 
0.4

>  <PUBCHEM_CONFORMER_DIVERSEORDER>  (1) 
1
2

>  <PUBCHEM_MMFF94_PARTIAL_CHARGES>  (1) 
17
1 -0.52
10 -0.15
11 -0.15
12 0.27
13 0.14
14 0.14
15 0.15
16 0.15
17 0.27
2 -0.52
3 0.03
4 -0.57
5 0.96
6 -0.15
7 0.23
8 -0.14
9 -0.14

>  <PUBCHEM_EFFECTIVE_ROTOR_COUNT>  (1) 
1

>  <PUBCHEM_PHARMACOPHORE_FEATURES>  (1) 
6
1 1 acceptor
1 2 acceptor
1 3 donor
4 3 4 5 12 cation
5 3 4 6 7 12 rings
6 6 7 8 9 10 11 rings

>  <PUBCHEM_HEAVY_ATOM_COUNT>  (1) 
14

>  <PUBCHEM_ATOM_DEF_STEREO_COUNT>  (1) 
0

>  <PUBCHEM_ATOM_UDEF_STEREO_COUNT>  (1) 
0

>  <PUBCHEM_BOND_DEF_STEREO_COUNT>  (1) 
0

>  <PUBCHEM_BOND_UDEF_STEREO_COUNT>  (1) 
0

>  <PUBCHEM_ISOTOPIC_ATOM_COUNT>  (1) 
0

>  <PUBCHEM_COMPONENT_COUNT>  (1) 
1

>  <PUBCHEM_CACTVS_TAUTO_COUNT>  (1) 
1

>  <PUBCHEM_CONFORMER_ID>  (1) 
000055AB00000001

>  <PUBCHEM_MMFF94_ENERGY>  (1) 
29.9612

>  <PUBCHEM_FEATURE_SELFOVERLAP>  (1) 
30.635

>  <PUBCHEM_SHAPE_FINGERPRINT>  (1) 
10608611 8 18412822499442177824
11132069 177 18410569570062441896
11806522 49 18265049313621822455
12032990 46 18411141358947807939
12932764 1 17313375699949717524
13024252 1 15719393928176917833
13214271 11 18342453751111620733
13380535 76 18340486660474892031
14144814 61 18408884035932650810
14325111 11 18410856559850916068
15196674 1 18410856563955855876
15219456 202 18131078086553319471
15775835 57 18334296422863604121
16945 1 18266459811109948225
18186145 218 17894346666351706518
19422 9 18334016103064297454
200 152 17988353858639355839
20510252 161 18344149202289243489
20645477 70 17703229499229616358
20871998 184 18201721773421074591
21267235 1 18409739473016855571
23402539 116 18342448236125634423
23402655 69 18197764528521261349
23463225 33 18335700507855040534
23559900 14 18342453708662984050
2748010 2 18339635754576266909
3312278 4 18412265021545740297
43471831 8 18261387815163199947
474 4 17024317542420508620
5104073 3 18410855460365533112
528886 8 18411412878554102641
53812653 166 18342172245912013369
6333449 129 18413105057077298389
7364860 26 18124315166783134400
8809292 202 18115874168930216291
9709674 26 18411425011737136614

>  <PUBCHEM_SHAPE_MULTIPOLES>  (1) 
261.43
6.95
1.67
0.58
3.58
0.01
0
0.01
-0.01
-0.98
0
-0.1
0
0

>  <PUBCHEM_SHAPE_SELFOVERLAP>  (1) 
569.86

>  <PUBCHEM_SHAPE_VOLUME>  (1) 
144.4

>  <PUBCHEM_COORDINATE_TYPE>  (1) 
2
5
10

$$$$
