21937
     RDKit          3D

 13 14  0  0  1  0  0  0  0  0999 V2000
   -1.6780   -2.5459   -0.3857 Cl  0  0  0  0  0  0  0  0  0  0  0  0
    1.6279    0.2444   -0.9916 O   0  0  0  0  0  0  0  0  0  0  0  0
    1.3973   -1.0681    0.9321 N   0  0  0  0  0  0  0  0  0  0  0  0
    2.5114   -0.4944    0.9920 N   0  0  0  0  0  0  0  0  0  0  0  0
    3.7279    0.9996   -0.3460 N   0  0  0  0  0  0  0  0  0  0  0  0
    0.7757   -0.6674   -0.3323 C   0  0  0  0  0  0  0  0  0  0  0  0
   -0.5936   -0.0578   -0.1391 C   0  0  0  0  0  0  0  0  0  0  0  0
   -1.7502   -0.8376   -0.1499 C   0  0  0  0  0  0  0  0  0  0  0  0
   -0.6837    1.3207    0.0538 C   0  0  0  0  0  0  0  0  0  0  0  0
   -2.9968   -0.2387    0.0324 C   0  0  0  0  0  0  0  0  0  0  0  0
   -1.9304    1.9194    0.2360 C   0  0  0  0  0  0  0  0  0  0  0  0
   -3.0868    1.1398    0.2252 C   0  0  0  0  0  0  0  0  0  0  0  0
    2.6793    0.2859   -0.1268 C   0  0  0  0  0  0  0  0  0  0  0  0
  1  8  1  0
  2  6  1  0
  2 13  1  0
  3  4  2  0
  3  6  1  0
  4 13  1  0
  5 13  2  0
  6  7  1  0
  7  8  2  0
  7  9  1  0
  8 10  1  0
  9 11  2  0
 10 12  2  0
 11 12  1  0
M  END
>  <PUBCHEM_COMPOUND_CID>  (1) 
21937

>  <PUBCHEM_CONFORMER_RMSD>  (1) 
0.4

>  <PUBCHEM_CONFORMER_DIVERSEORDER>  (1) 
1
9
10
5
4
2
3
7
6
8

>  <PUBCHEM_MMFF94_PARTIAL_CHARGES>  (1) 
18
1 -0.18
10 -0.15
11 -0.15
12 -0.15
13 0.81
15 0.15
16 0.15
17 0.15
18 0.15
19 0.4
2 -0.43
3 -0.25
4 -0.21
5 -0.85
6 0.67
7 -0.14
8 0.18
9 -0.15

>  <PUBCHEM_EFFECTIVE_ROTOR_COUNT>  (1) 
1.4

>  <PUBCHEM_PHARMACOPHORE_FEATURES>  (1) 
4
1 5 donor
3 4 5 13 cation
5 2 3 4 6 13 rings
6 7 8 9 10 11 12 rings

>  <PUBCHEM_HEAVY_ATOM_COUNT>  (1) 
13

>  <PUBCHEM_ATOM_DEF_STEREO_COUNT>  (1) 
0

>  <PUBCHEM_ATOM_UDEF_STEREO_COUNT>  (1) 
1

>  <PUBCHEM_BOND_DEF_STEREO_COUNT>  (1) 
0

>  <PUBCHEM_BOND_UDEF_STEREO_COUNT>  (1) 
0

>  <PUBCHEM_ISOTOPIC_ATOM_COUNT>  (1) 
0

>  <PUBCHEM_COMPONENT_COUNT>  (1) 
1

>  <PUBCHEM_CACTVS_TAUTO_COUNT>  (1) 
1

>  <PUBCHEM_CONFORMER_ID>  (1) 
000055B100000001

>  <PUBCHEM_MMFF94_ENERGY>  (1) 
26.3466

>  <PUBCHEM_FEATURE_SELFOVERLAP>  (1) 
20.297

>  <PUBCHEM_SHAPE_FINGERPRINT>  (1) 
12251169 10 18262790766551548490
12716758 59 18272095958900289719
12932764 1 17676766479147056726
13538477 17 18335414690344653255
13764800 53 18201165381671581313
14144814 61 18335421240174956977
14325111 11 18338518534407900341
15279307 12 18333730204240013346
15669948 3 18412539946317776215
15775835 57 18335144158934180320
16945 1 18341891904985815269
193761 8 17836364118498479509
20510252 161 18202008690100360729
20525323 117 18412821404251514439
20871998 184 18201443631323356239
22445834 79 17969494922881940770
22802520 49 17915484738435202166
23236772 104 18186802508358923307
23402539 116 18272078423086799759
23552423 10 18045783656975901429
23557571 272 17986687054450537916
23559900 14 18202566151691998558
2748010 2 18123480384286047711
369184 2 17240765047426313033
53812653 8 18410014321127586131
6333449 129 18343302578441272653
7364860 26 18196655094859563654
75552 356 18411982494101581975
77492 1 18040996254230357974
81228 2 18270960258326613331

>  <PUBCHEM_SHAPE_MULTIPOLES>  (1) 
248.59
5.16
2
0.81
2.72
0.66
-0.05
-1.29
-0.09
-1.52
0.06
0.33
0.09
-0.48

>  <PUBCHEM_SHAPE_SELFOVERLAP>  (1) 
527.875

>  <PUBCHEM_SHAPE_VOLUME>  (1) 
140.3

>  <PUBCHEM_COORDINATE_TYPE>  (1) 
2
5
10

$$$$
