21943
     RDKit          3D

 34 37  0  0  0  0  0  0  0  0999 V2000
   -6.8929    0.2706    0.1105 N   0  0  0  0  0  0  0  0  0  0  0  0
    6.8876   -0.2708    0.0269 N   0  0  0  0  0  0  0  0  0  0  0  0
  -10.7223   -1.3536   -0.1580 N   0  0  0  0  0  0  0  0  0  0  0  0
   10.7170    1.3692   -0.1053 N   0  0  0  0  0  0  0  0  0  0  0  0
   -0.6059   -0.4805    0.3165 C   0  0  0  0  0  0  0  0  0  0  0  0
    0.6302    0.4209    0.2724 C   0  0  0  0  0  0  0  0  0  0  0  0
   -1.8936    0.3460    0.3304 C   0  0  0  0  0  0  0  0  0  0  0  0
    1.9180   -0.4029    0.2199 C   0  0  0  0  0  0  0  0  0  0  0  0
   -3.1651   -0.5077    0.3017 C   0  0  0  0  0  0  0  0  0  0  0  0
    3.1548    0.4979    0.2093 C   0  0  0  0  0  0  0  0  0  0  0  0
   -4.4521    0.3219    0.2356 C   0  0  0  0  0  0  0  0  0  0  0  0
    4.4423   -0.3280    0.1265 C   0  0  0  0  0  0  0  0  0  0  0  0
   -5.7083   -0.5464    0.2180 C   0  0  0  0  0  0  0  0  0  0  0  0
    5.6967    0.5416    0.1026 C   0  0  0  0  0  0  0  0  0  0  0  0
   -8.1771   -0.2435    0.0201 C   0  0  0  0  0  0  0  0  0  0  0  0
    8.1717    0.2485   -0.0181 C   0  0  0  0  0  0  0  0  0  0  0  0
   -9.2991    0.5897   -0.0832 C   0  0  0  0  0  0  0  0  0  0  0  0
    9.2997   -0.5799   -0.0915 C   0  0  0  0  0  0  0  0  0  0  0  0
   -8.3305   -1.6223    0.0338 C   0  0  0  0  0  0  0  0  0  0  0  0
    8.3194    1.6277    0.0114 C   0  0  0  0  0  0  0  0  0  0  0  0
  -10.5702   -0.0158   -0.1711 C   0  0  0  0  0  0  0  0  0  0  0  0
   10.5705    0.0310   -0.1337 C   0  0  0  0  0  0  0  0  0  0  0  0
   -9.6138   -2.1224   -0.0571 C   0  0  0  0  0  0  0  0  0  0  0  0
    9.6028    2.1331   -0.0342 C   0  0  0  0  0  0  0  0  0  0  0  0
   -9.1774    1.9895   -0.0999 C   0  0  0  0  0  0  0  0  0  0  0  0
    9.1839   -1.9799   -0.1232 C   0  0  0  0  0  0  0  0  0  0  0  0
  -11.6845    0.8124   -0.2737 C   0  0  0  0  0  0  0  0  0  0  0  0
   11.6907   -0.7924   -0.2068 C   0  0  0  0  0  0  0  0  0  0  0  0
  -10.3087    2.7938   -0.2033 C   0  0  0  0  0  0  0  0  0  0  0  0
   10.3211   -2.7792   -0.1963 C   0  0  0  0  0  0  0  0  0  0  0  0
   -9.8271   -3.5994   -0.0463 C   0  0  0  0  0  0  0  0  0  0  0  0
    9.8100    3.6108   -0.0052 C   0  0  0  0  0  0  0  0  0  0  0  0
  -11.5636    2.2041   -0.2903 C   0  0  0  0  0  0  0  0  0  0  0  0
   11.5759   -2.1843   -0.2381 C   0  0  0  0  0  0  0  0  0  0  0  0
  1 13  1  0
  1 15  1  0
  2 14  1  0
  2 16  1  0
  3 21  2  0
  3 23  1  0
  4 22  2  0
  4 24  1  0
  5  6  1  0
  5  7  1  0
  6  8  1  0
  7  9  1  0
  8 10  1  0
  9 11  1  0
 10 12  1  0
 11 13  1  0
 12 14  1  0
 15 17  2  0
 15 19  1  0
 16 18  2  0
 16 20  1  0
 17 21  1  0
 17 25  1  0
 18 22  1  0
 18 26  1  0
 19 23  2  0
 20 24  2  0
 21 27  1  0
 22 28  1  0
 23 31  1  0
 24 32  1  0
 25 29  2  0
 26 30  2  0
 27 33  2  0
 28 34  2  0
 29 33  1  0
 30 34  1  0
M  END
>  <PUBCHEM_COMPOUND_CID>  (1) 
21943

>  <PUBCHEM_CONFORMER_RMSD>  (1) 
1.6

>  <PUBCHEM_CONFORMER_DIVERSEORDER>  (1) 
1
20
10
88
15
76
71
82
69
57
73
113
9
4
38
62
41
49
112
21
3
90
52
72
48
29
46
102
34
92
94
24
43
80
54
22
31
85
114
13
6
98
89
65
55
93
87
2
64
59
95
66
26
108
74
18
51
111
96
106
99
56
103
5
63
12
11
105
16
23
39
33
78
107
100
40
110
75
44
7
83
17
91
36
77
19
8
109
47
81
53
27
70
97
37
45
84
86
61
32
42
115
14
28
25
79
50
68
104
35
58
101
60
67
30

>  <PUBCHEM_MMFF94_PARTIAL_CHARGES>  (1) 
36
1 -0.87
13 0.37
14 0.37
15 0.1
16 0.1
19 -0.15
2 -0.87
20 -0.15
21 0.31
22 0.31
23 0.17
24 0.17
25 -0.15
26 -0.15
27 -0.15
28 -0.15
29 -0.15
3 -0.62
30 -0.15
31 0.14
32 0.14
33 -0.15
34 -0.15
4 -0.62
55 0.4
56 0.4
57 0.15
58 0.15
59 0.15
60 0.15
61 0.15
62 0.15
63 0.15
64 0.15
71 0.15
72 0.15

>  <PUBCHEM_EFFECTIVE_ROTOR_COUNT>  (1) 
13

>  <PUBCHEM_PHARMACOPHORE_FEATURES>  (1) 
10
1 1 cation
1 1 donor
1 2 cation
1 2 donor
1 3 acceptor
1 4 acceptor
6 17 21 25 27 29 33 rings
6 18 22 26 28 30 34 rings
6 3 15 17 19 21 23 rings
6 4 16 18 20 22 24 rings

>  <PUBCHEM_HEAVY_ATOM_COUNT>  (1) 
34

>  <PUBCHEM_ATOM_DEF_STEREO_COUNT>  (1) 
0

>  <PUBCHEM_ATOM_UDEF_STEREO_COUNT>  (1) 
0

>  <PUBCHEM_BOND_DEF_STEREO_COUNT>  (1) 
0

>  <PUBCHEM_BOND_UDEF_STEREO_COUNT>  (1) 
0

>  <PUBCHEM_ISOTOPIC_ATOM_COUNT>  (1) 
0

>  <PUBCHEM_COMPONENT_COUNT>  (1) 
1

>  <PUBCHEM_CACTVS_TAUTO_COUNT>  (1) 
15

>  <PUBCHEM_CONFORMER_ID>  (1) 
000055B700000001

>  <PUBCHEM_MMFF94_ENERGY>  (1) 
99.2118

>  <PUBCHEM_FEATURE_SELFOVERLAP>  (1) 
50.809

>  <PUBCHEM_SHAPE_FINGERPRINT>  (1) 
11061554 47 17530677715050193364
11828042 53 18056482739140788633
12013929 2 18410575076099518400
12013929 94 18410012183157851099
12089408 11 18410575097547980818
12522641 33 18413390921585361034
12559415 86 18272097062759892125
12559415 90 18341894078071118169
131240 100 18411418453057682401
14251764 46 18410856563940031634
14344974 52 18410574028180362608
15061470 23 18411135844352569064
15065858 18 18411979178207449066
15510794 2 18411141341842116610
15890870 6 18344145895085999007
16728433 110 17988638619820235136
21133665 82 18409449194692376099
21362267 2 17703494589234037392
21362267 313 18261949635850673080
232437 2 18412545414169872538
3525247 94 18411419552785788847
42767 2 18334295361690541298
5028188 123 18409727383944407783
59520647 119 18410294757567457794
59521270 166 18334292051478602911
67123 10 18411138047501408714
9937071 3 17418096507763799222

>  <PUBCHEM_SHAPE_MULTIPOLES>  (1) 
679.78
71.66
3.04
0.64
0.07
0.04
0
0.31
7.64
0.03
0.23
0.05
0
0.87

>  <PUBCHEM_SHAPE_SELFOVERLAP>  (1) 
1438.611

>  <PUBCHEM_SHAPE_VOLUME>  (1) 
376.9

>  <PUBCHEM_COORDINATE_TYPE>  (1) 
2
5
10

$$$$
