21944
     RDKit          3D

  8  7  0  0  0  0  0  0  0  0999 V2000
    0.5140   -0.0563   -0.4936 O   0  0  0  0  0  0  0  0  0  0  0  0
   -0.4767   -0.7356    0.2652 C   0  0  0  0  0  0  0  0  0  0  0  0
   -1.8233   -0.3778   -0.2734 C   0  0  0  0  0  0  0  0  0  0  0  0
   -2.7885    0.1983    0.4576 C   0  0  0  0  0  0  0  0  0  0  0  0
   -4.1367    0.5525   -0.0762 C   0  0  0  0  0  0  0  0  0  0  0  0
    1.7657   -0.3379   -0.0554 C   0  0  0  0  0  0  0  0  0  0  0  0
    2.7813    0.5251   -0.1504 C   0  0  0  0  0  0  0  0  0  0  0  0
    4.1642    0.2316    0.3262 C   0  0  0  0  0  0  0  0  0  0  0  0
  1  2  1  0
  1  6  1  0
  2  3  1  0
  3  4  2  0
  4  5  1  0
  6  7  2  0
  7  8  1  0
M  END
>  <PUBCHEM_COMPOUND_CID>  (1) 
21944

>  <PUBCHEM_CONFORMER_RMSD>  (1) 
0.6

>  <PUBCHEM_CONFORMER_DIVERSEORDER>  (1) 
1
5
3
2
4

>  <PUBCHEM_MMFF94_PARTIAL_CHARGES>  (1) 
12
1 -0.36
11 0.15
12 0.15
16 0.15
17 0.15
2 0.42
3 -0.29
4 -0.29
5 0.14
6 -0.07
7 -0.29
8 0.14

>  <PUBCHEM_EFFECTIVE_ROTOR_COUNT>  (1) 
3

>  <PUBCHEM_PHARMACOPHORE_FEATURES>  (1) 
3
1 1 acceptor
1 5 hydrophobe
1 8 hydrophobe

>  <PUBCHEM_HEAVY_ATOM_COUNT>  (1) 
8

>  <PUBCHEM_ATOM_DEF_STEREO_COUNT>  (1) 
0

>  <PUBCHEM_ATOM_UDEF_STEREO_COUNT>  (1) 
0

>  <PUBCHEM_BOND_DEF_STEREO_COUNT>  (1) 
0

>  <PUBCHEM_BOND_UDEF_STEREO_COUNT>  (1) 
2

>  <PUBCHEM_ISOTOPIC_ATOM_COUNT>  (1) 
0

>  <PUBCHEM_COMPONENT_COUNT>  (1) 
1

>  <PUBCHEM_CACTVS_TAUTO_COUNT>  (1) 
1

>  <PUBCHEM_CONFORMER_ID>  (1) 
000055B800000001

>  <PUBCHEM_MMFF94_ENERGY>  (1) 
7.482

>  <PUBCHEM_FEATURE_SELFOVERLAP>  (1) 
15.223

>  <PUBCHEM_SHAPE_FINGERPRINT>  (1) 
11062470 55 17846780710680481304
12932764 1 15792000238398767302
14325111 11 18411139142855485503
14390081 3 18060139838291285409
18342897 14 17530965786959071852
20719005 15 18413388747967035367
21293036 1 14261350262543252618
22485316 2 8430317913549430665
23402539 116 18131343112116295365

>  <PUBCHEM_SHAPE_MULTIPOLES>  (1) 
158.77
7.97
0.8
0.69
0.49
0.02
-0.02
-2.13
-0.62
-0.09
-0.01
-0.03
0
-0.01

>  <PUBCHEM_SHAPE_SELFOVERLAP>  (1) 
284.879

>  <PUBCHEM_SHAPE_VOLUME>  (1) 
103

>  <PUBCHEM_COORDINATE_TYPE>  (1) 
2
5
10

$$$$
