21940
     RDKit          3D

 12 13  0  0  0  0  0  0  0  0999 V2000
    1.4413    0.8071   -0.0004 O   0  0  0  0  0  0  0  0  0  0  0  0
    1.3909   -1.4295   -0.0001 N   0  0  0  0  0  0  0  0  0  0  0  0
   -2.6114    1.3987    0.0001 N   0  0  0  0  0  0  0  0  0  0  0  0
    2.7150   -1.0320    0.0003 N   0  0  0  0  0  0  0  0  0  0  0  0
    3.7193    1.1624    0.0005 N   0  0  0  0  0  0  0  0  0  0  0  0
   -0.7370   -0.1282   -0.0002 C   0  0  0  0  0  0  0  0  0  0  0  0
    0.6896   -0.3246   -0.0002 C   0  0  0  0  0  0  0  0  0  0  0  0
   -1.6095   -1.2108   -0.0001 C   0  0  0  0  0  0  0  0  0  0  0  0
   -1.2836    1.1450   -0.0004 C   0  0  0  0  0  0  0  0  0  0  0  0
    2.6964    0.2804   -0.0002 C   0  0  0  0  0  0  0  0  0  0  0  0
   -2.9825   -0.9901    0.0002 C   0  0  0  0  0  0  0  0  0  0  0  0
   -3.4284    0.3216    0.0004 C   0  0  0  0  0  0  0  0  0  0  0  0
  1  7  1  0
  1 10  1  0
  2  4  1  0
  2  7  2  0
  3  9  2  0
  3 12  1  0
  4 10  2  0
  5 10  1  0
  6  7  1  0
  6  8  2  0
  6  9  1  0
  8 11  1  0
 11 12  2  0
M  END
>  <PUBCHEM_COMPOUND_CID>  (1) 
21940

>  <PUBCHEM_CONFORMER_RMSD>  (1) 
0.4

>  <PUBCHEM_CONFORMER_DIVERSEORDER>  (1) 
1
2

>  <PUBCHEM_MMFF94_PARTIAL_CHARGES>  (1) 
18
1 -0.28
10 0.56
11 -0.15
12 0.16
13 0.15
14 0.15
15 0.15
16 0.15
17 0.4
18 0.4
2 -0.34
3 -0.62
4 -0.34
5 -0.88
6 0.05
7 0.43
8 -0.15
9 0.16

>  <PUBCHEM_EFFECTIVE_ROTOR_COUNT>  (1) 
1

>  <PUBCHEM_PHARMACOPHORE_FEATURES>  (1) 
5
1 3 acceptor
1 5 donor
3 4 5 10 cation
5 1 2 4 7 10 rings
6 3 6 8 9 11 12 rings

>  <PUBCHEM_HEAVY_ATOM_COUNT>  (1) 
12

>  <PUBCHEM_ATOM_DEF_STEREO_COUNT>  (1) 
0

>  <PUBCHEM_ATOM_UDEF_STEREO_COUNT>  (1) 
0

>  <PUBCHEM_BOND_DEF_STEREO_COUNT>  (1) 
0

>  <PUBCHEM_BOND_UDEF_STEREO_COUNT>  (1) 
0

>  <PUBCHEM_ISOTOPIC_ATOM_COUNT>  (1) 
0

>  <PUBCHEM_COMPONENT_COUNT>  (1) 
1

>  <PUBCHEM_CACTVS_TAUTO_COUNT>  (1) 
2

>  <PUBCHEM_CONFORMER_ID>  (1) 
000055B400000001

>  <PUBCHEM_MMFF94_ENERGY>  (1) 
20.7359

>  <PUBCHEM_FEATURE_SELFOVERLAP>  (1) 
25.371

>  <PUBCHEM_SHAPE_FINGERPRINT>  (1) 
10608611 8 18410852135834426972
11062470 55 17821444685837781759
12897270 3 18411699902248725463
12932764 1 17603864438456318262
13380535 76 18409728469410837570
14144814 61 18409730642648055923
14325111 11 18410575071783490753
14445660 50 18271536337957836737
15442244 35 18122906421793925178
15775835 57 18342179976768593985
16945 1 18338517542396938567
19973954 147 18411421674288564973
20201158 50 18412261735711259291
20645477 70 18342173311159231759
20871998 184 18201162165015818399
21501502 16 18411416176751492675
23402655 69 18270669888683506245
23552423 10 18261112954567473835
2748010 2 18410857616244020591
3248919 1 17560521698779549711
3312278 4 18411421747582532067
369184 2 18410292489132511643
57096353 35 18339078306022102767
6333449 129 18412260653558660399
7364860 26 18269836428573012286

>  <PUBCHEM_SHAPE_MULTIPOLES>  (1) 
221.16
5.89
1.45
0.58
1.54
0.02
0
-0.88
0
-0.14
0
-0.06
0.01
0

>  <PUBCHEM_SHAPE_SELFOVERLAP>  (1) 
482.211

>  <PUBCHEM_SHAPE_VOLUME>  (1) 
120

>  <PUBCHEM_COORDINATE_TYPE>  (1) 
2
5
10

$$$$
