21957
     RDKit          3D

 10 11  0  0  0  0  0  0  0  0999 V2000
   -1.5625    1.0450   -0.5448 O   0  0  0  0  0  0  0  0  0  0  0  0
   -3.1468   -0.2380    0.5038 O   0  0  0  0  0  0  0  0  0  0  0  0
    0.3271   -0.2666   -0.0952 C   0  0  0  0  0  0  0  0  0  0  0  0
    0.9374    0.2834    1.2032 C   0  0  0  0  0  0  0  0  0  0  0  0
    1.5045   -1.0217   -0.7023 C   0  0  0  0  0  0  0  0  0  0  0  0
    2.3728    0.6587    0.8336 C   0  0  0  0  0  0  0  0  0  0  0  0
    2.7040   -0.1175   -0.4413 C   0  0  0  0  0  0  0  0  0  0  0  0
   -0.9139   -1.1052    0.1426 C   0  0  0  0  0  0  0  0  0  0  0  0
   -0.2123    0.8447   -0.9839 C   0  0  0  0  0  0  0  0  0  0  0  0
   -2.0105   -0.0828    0.0842 C   0  0  0  0  0  0  0  0  0  0  0  0
  1  9  1  0
  1 10  1  0
  2 10  2  0
  3  4  1  0
  3  5  1  0
  3  8  1  0
  3  9  1  0
  4  6  1  0
  5  7  1  0
  6  7  1  0
  8 10  1  0
M  END
>  <PUBCHEM_COMPOUND_CID>  (1) 
21957

>  <PUBCHEM_CONFORMER_RMSD>  (1) 
0.4

>  <PUBCHEM_CONFORMER_DIVERSEORDER>  (1) 
1
4
3
2

>  <PUBCHEM_MMFF94_PARTIAL_CHARGES>  (1) 
5
1 -0.43
10 0.66
2 -0.57
8 0.06
9 0.28

>  <PUBCHEM_EFFECTIVE_ROTOR_COUNT>  (1) 
1.4

>  <PUBCHEM_PHARMACOPHORE_FEATURES>  (1) 
3
1 2 acceptor
5 1 3 8 9 10 rings
5 3 4 5 6 7 rings

>  <PUBCHEM_HEAVY_ATOM_COUNT>  (1) 
10

>  <PUBCHEM_ATOM_DEF_STEREO_COUNT>  (1) 
0

>  <PUBCHEM_ATOM_UDEF_STEREO_COUNT>  (1) 
0

>  <PUBCHEM_BOND_DEF_STEREO_COUNT>  (1) 
0

>  <PUBCHEM_BOND_UDEF_STEREO_COUNT>  (1) 
0

>  <PUBCHEM_ISOTOPIC_ATOM_COUNT>  (1) 
0

>  <PUBCHEM_COMPONENT_COUNT>  (1) 
1

>  <PUBCHEM_CACTVS_TAUTO_COUNT>  (1) 
2

>  <PUBCHEM_CONFORMER_ID>  (1) 
000055C500000001

>  <PUBCHEM_MMFF94_ENERGY>  (1) 
19.9325

>  <PUBCHEM_FEATURE_SELFOVERLAP>  (1) 
15.243

>  <PUBCHEM_SHAPE_FINGERPRINT>  (1) 
10857977 72 18186518830211741097
11062470 55 13117997807822902735
12932764 1 18273209785595950126
16945 1 18335697269154144414
20645464 45 18271230699305097722
21040471 1 17608356957157846621
21922407 69 15936969622218119612
23552423 10 16661480688864304114
29004967 10 17703791396979151522
369184 2 16008740316666907932
5084963 1 18336270054561587502

>  <PUBCHEM_SHAPE_MULTIPOLES>  (1) 
194.06
3.75
1.08
1.03
0.83
0.08
-0.19
-0.27
0.34
-0.48
0.12
0.18
-0.11
0.32

>  <PUBCHEM_SHAPE_SELFOVERLAP>  (1) 
407.585

>  <PUBCHEM_SHAPE_VOLUME>  (1) 
113.3

>  <PUBCHEM_COORDINATE_TYPE>  (1) 
2
5
10

$$$$
