21961
     RDKit          3D

 24 25  0  0  0  0  0  0  0  0999 V2000
    0.0337   -0.4473    3.0986 Br  0  0  0  0  0  0  0  0  0  0  0  0
   -1.2124    2.6107   -0.0305 F   0  0  0  0  0  0  0  0  0  0  0  0
    2.1274    2.3788    1.0270 F   0  0  0  0  0  0  0  0  0  0  0  0
   -1.3357   -1.9514    1.2778 F   0  0  0  0  0  0  0  0  0  0  0  0
    0.4949   -1.9947    0.1628 F   0  0  0  0  0  0  0  0  0  0  0  0
   -3.6811   -2.2696   -0.0748 F   0  0  0  0  0  0  0  0  0  0  0  0
    2.7648   -2.5587   -1.2377 F   0  0  0  0  0  0  0  0  0  0  0  0
   -3.5574    2.2813   -1.3801 F   0  0  0  0  0  0  0  0  0  0  0  0
    4.3931    1.8042   -0.3749 F   0  0  0  0  0  0  0  0  0  0  0  0
   -4.7957   -0.1559   -1.4048 F   0  0  0  0  0  0  0  0  0  0  0  0
    4.7162   -0.6621   -1.5095 F   0  0  0  0  0  0  0  0  0  0  0  0
    0.0405    0.5110    1.3806 C   0  0  0  0  0  0  0  0  0  0  0  0
   -1.2432    0.3340    0.6419 C   0  0  0  0  0  0  0  0  0  0  0  0
    1.3044    0.1938    0.5987 C   0  0  0  0  0  0  0  0  0  0  0  0
   -1.8120    1.4120   -0.0361 C   0  0  0  0  0  0  0  0  0  0  0  0
    2.2761    1.1670    0.4741 C   0  0  0  0  0  0  0  0  0  0  0  0
   -1.8744   -0.9099    0.6286 C   0  0  0  0  0  0  0  0  0  0  0  0
    1.4461   -1.0590    0.0351 C   0  0  0  0  0  0  0  0  0  0  0  0
   -3.0746   -1.0757   -0.0626 C   0  0  0  0  0  0  0  0  0  0  0  0
    2.6065   -1.3504   -0.6821 C   0  0  0  0  0  0  0  0  0  0  0  0
   -3.0122    1.2464   -0.7272 C   0  0  0  0  0  0  0  0  0  0  0  0
    3.4365    0.8758   -0.2431 C   0  0  0  0  0  0  0  0  0  0  0  0
   -3.6435    0.0026   -0.7407 C   0  0  0  0  0  0  0  0  0  0  0  0
    3.6018   -0.3830   -0.8212 C   0  0  0  0  0  0  0  0  0  0  0  0
  1 12  1  0
  2 15  1  0
  3 16  1  0
  4 17  1  0
  5 18  1  0
  6 19  1  0
  7 20  1  0
  8 21  1  0
  9 22  1  0
 10 23  1  0
 11 24  1  0
 12 13  1  0
 12 14  1  0
 13 15  2  0
 13 17  1  0
 14 16  2  0
 14 18  1  0
 15 21  1  0
 16 22  1  0
 17 19  2  0
 18 20  2  0
 19 23  1  0
 20 24  1  0
 21 23  2  0
 22 24  2  0
M  END
>  <PUBCHEM_COMPOUND_CID>  (1) 
21961

>  <PUBCHEM_CONFORMER_RMSD>  (1) 
0.6

>  <PUBCHEM_CONFORMER_DIVERSEORDER>  (1) 
1
3
4
2
5

>  <PUBCHEM_MMFF94_PARTIAL_CHARGES>  (1) 
24
1 -0.23
10 -0.19
11 -0.19
12 0.52
13 -0.14
14 -0.14
15 0.19
16 0.19
17 0.19
18 0.19
19 0.19
2 -0.19
20 0.19
21 0.19
22 0.19
23 0.19
24 0.19
3 -0.19
4 -0.19
5 -0.19
6 -0.19
7 -0.19
8 -0.19
9 -0.19

>  <PUBCHEM_EFFECTIVE_ROTOR_COUNT>  (1) 
2

>  <PUBCHEM_PHARMACOPHORE_FEATURES>  (1) 
3
1 1 hydrophobe
6 13 15 17 19 21 23 rings
6 14 16 18 20 22 24 rings

>  <PUBCHEM_HEAVY_ATOM_COUNT>  (1) 
24

>  <PUBCHEM_ATOM_DEF_STEREO_COUNT>  (1) 
0

>  <PUBCHEM_ATOM_UDEF_STEREO_COUNT>  (1) 
0

>  <PUBCHEM_BOND_DEF_STEREO_COUNT>  (1) 
0

>  <PUBCHEM_BOND_UDEF_STEREO_COUNT>  (1) 
0

>  <PUBCHEM_ISOTOPIC_ATOM_COUNT>  (1) 
0

>  <PUBCHEM_COMPONENT_COUNT>  (1) 
1

>  <PUBCHEM_CACTVS_TAUTO_COUNT>  (1) 
1

>  <PUBCHEM_CONFORMER_ID>  (1) 
000055C900000001

>  <PUBCHEM_MMFF94_ENERGY>  (1) 
47.4372

>  <PUBCHEM_FEATURE_SELFOVERLAP>  (1) 
15.223

>  <PUBCHEM_SHAPE_FINGERPRINT>  (1) 
10498660 4 18040425573657752573
10863032 1 18412545375156152567
11640471 11 16008740325251593961
121448 382 17240766237026642795
12670546 177 18411981355777064807
12714826 92 14045473201949889866
12788726 201 16557355808401184769
13911987 19 17913500313917576424
14790565 3 17908145378668212097
16945 1 18268145345113041755
17349148 13 18131355164195701458
1813 80 14333124191213405856
18186145 218 18413390925383533995
19765921 60 17386001724541084457
200 152 17418380181499585602
20361792 2 15482664676211350441
20645477 70 17847065471697544540
20871999 31 18408039598576520485
21731228 192 11458430141066704937
21731516 1 15410888557102588801
221357 26 18342454807810816669
221490 88 18342464746396976286
22393880 68 18410577258439088886
22802520 49 18413669106352463121
23114952 82 18341334409477446774
23402539 116 18114732837057665984
23419403 2 12805876564750377585
23557571 272 18042688480314874259
23559900 14 18269267972613767026
238 59 18201708561774403646
2748010 2 17836934760495585818
2871803 45 18413386548827761511
3323516 105 18342454863402655081
3472631 163 17240479255828181029
4028521 119 18187362117001965581
4280585 95 17479467742333889742
4371632 12 13178508567861349064
474 4 16298104259226209371
5262128 65 17916877798287599206
7097593 13 9654992464600563230
9709674 26 18412825759227091839
9981440 41 17968659436232140514

>  <PUBCHEM_SHAPE_MULTIPOLES>  (1) 
427.11
7.78
2.4
1.76
0.45
0.24
1.42
0.52
-5.01
-0.21
-0.31
0.09
-0.36
1.22

>  <PUBCHEM_SHAPE_SELFOVERLAP>  (1) 
938.709

>  <PUBCHEM_SHAPE_VOLUME>  (1) 
233.4

>  <PUBCHEM_COORDINATE_TYPE>  (1) 
2
5
10

$$$$
