21960
     RDKit          3D

 11 11  0  0  0  0  0  0  0  0999 V2000
   -2.1507   -2.5927   -0.0013 Cl  0  0  0  0  0  0  0  0  0  0  0  0
    2.0891   -0.0694   -0.0036 N   0  0  0  0  0  0  0  0  0  0  0  0
    0.1291    1.2206   -0.0004 N   0  0  0  0  0  0  0  0  0  0  0  0
    0.0262   -1.1870   -0.0024 N   0  0  0  0  0  0  0  0  0  0  0  0
    0.6785   -0.0089   -0.0019 C   0  0  0  0  0  0  0  0  0  0  0  0
   -1.2200    1.2413    0.0011 C   0  0  0  0  0  0  0  0  0  0  0  0
    2.8744    1.1480   -0.0035 C   0  0  0  0  0  0  0  0  0  0  0  0
    2.7673   -1.3494    0.0088 C   0  0  0  0  0  0  0  0  0  0  0  0
   -2.0041    0.1059    0.0012 C   0  0  0  0  0  0  0  0  0  0  0  0
   -1.3197   -1.0924   -0.0009 C   0  0  0  0  0  0  0  0  0  0  0  0
   -1.8701    2.5840    0.0029 C   0  0  0  0  0  0  0  0  0  0  0  0
  1 10  1  0
  2  5  1  0
  2  7  1  0
  2  8  1  0
  3  5  2  0
  3  6  1  0
  4  5  1  0
  4 10  2  0
  6  9  2  0
  6 11  1  0
  9 10  1  0
M  END
>  <PUBCHEM_COMPOUND_CID>  (1) 
21960

>  <PUBCHEM_CONFORMER_RMSD>  (1) 
0.4

>  <PUBCHEM_CONFORMER_DIVERSEORDER>  (1) 
1
2
3

>  <PUBCHEM_MMFF94_PARTIAL_CHARGES>  (1) 
12
1 -0.18
10 0.49
11 0.14
18 0.15
2 -0.84
3 -0.62
4 -0.62
5 0.72
6 0.17
7 0.37
8 0.37
9 -0.15

>  <PUBCHEM_EFFECTIVE_ROTOR_COUNT>  (1) 
1

>  <PUBCHEM_PHARMACOPHORE_FEATURES>  (1) 
3
1 4 acceptor
4 2 3 4 5 cation
6 3 4 5 6 9 10 rings

>  <PUBCHEM_HEAVY_ATOM_COUNT>  (1) 
11

>  <PUBCHEM_ATOM_DEF_STEREO_COUNT>  (1) 
0

>  <PUBCHEM_ATOM_UDEF_STEREO_COUNT>  (1) 
0

>  <PUBCHEM_BOND_DEF_STEREO_COUNT>  (1) 
0

>  <PUBCHEM_BOND_UDEF_STEREO_COUNT>  (1) 
0

>  <PUBCHEM_ISOTOPIC_ATOM_COUNT>  (1) 
0

>  <PUBCHEM_COMPONENT_COUNT>  (1) 
1

>  <PUBCHEM_CACTVS_TAUTO_COUNT>  (1) 
1

>  <PUBCHEM_CONFORMER_ID>  (1) 
000055C800000001

>  <PUBCHEM_MMFF94_ENERGY>  (1) 
33.5948

>  <PUBCHEM_FEATURE_SELFOVERLAP>  (1) 
15.223

>  <PUBCHEM_SHAPE_FINGERPRINT>  (1) 
1 1 17689433785117644925
12716758 59 18340763732867232418
13380535 76 18124590877860421263
14325111 11 18266740182053522304
16945 1 18410856551060410981
193761 8 18410575084700008676
19973954 147 18411138035001726044
20645476 183 17827104830043260734
20711985 365 18410291384946335830
20871998 184 18201161047928435671
20871998 22 18124610922351946591
21040471 1 18266459793539825349
21501502 16 18410856555798483434
23552423 10 18260550043442805550
241688 4 18266457796670008073
2748010 2 18052248789510101837
369184 2 18412261722736550232
5084963 1 18058160631388161120
81228 2 18408601491688392649

>  <PUBCHEM_SHAPE_MULTIPOLES>  (1) 
213.3
4.02
2.73
0.6
2.78
0.15
0
-0.64
0
-2.03
0
-0.03
-0.01
-0.01

>  <PUBCHEM_SHAPE_SELFOVERLAP>  (1) 
423.183

>  <PUBCHEM_SHAPE_VOLUME>  (1) 
129.5

>  <PUBCHEM_COORDINATE_TYPE>  (1) 
2
5
10

$$$$
