2197
     RDKit          3D

 19 21  0  0  0  0  0  0  0  0999 V2000
    0.8474    2.3784    0.8405 O   0  0  0  0  0  0  0  0  0  0  0  0
    0.8475   -2.3673    0.8697 O   0  0  0  0  0  0  0  0  0  0  0  0
   -4.9686   -0.0040   -0.6565 O   0  0  0  0  0  0  0  0  0  0  0  0
    0.3430    0.0083    1.2455 C   0  0  0  0  0  0  0  0  0  0  0  0
    1.1317    1.2009    0.7258 C   0  0  0  0  0  0  0  0  0  0  0  0
    1.1313   -1.1912    0.7408 C   0  0  0  0  0  0  0  0  0  0  0  0
    2.3237    0.6963    0.0406 C   0  0  0  0  0  0  0  0  0  0  0  0
    2.3234   -0.6957    0.0494 C   0  0  0  0  0  0  0  0  0  0  0  0
   -1.0569    0.0054    0.7442 C   0  0  0  0  0  0  0  0  0  0  0  0
    3.3363    1.4182   -0.5607 C   0  0  0  0  0  0  0  0  0  0  0  0
    3.3357   -1.4256   -0.5425 C   0  0  0  0  0  0  0  0  0  0  0  0
   -2.1248    0.0117    1.6447 C   0  0  0  0  0  0  0  0  0  0  0  0
   -1.3099   -0.0043   -0.6297 C   0  0  0  0  0  0  0  0  0  0  0  0
    4.3705    0.6963   -1.1627 C   0  0  0  0  0  0  0  0  0  0  0  0
    4.3703   -0.7120   -1.1536 C   0  0  0  0  0  0  0  0  0  0  0  0
   -3.4380    0.0081    1.1741 C   0  0  0  0  0  0  0  0  0  0  0  0
   -2.6230   -0.0078   -1.1001 C   0  0  0  0  0  0  0  0  0  0  0  0
   -3.6871   -0.0016   -0.1983 C   0  0  0  0  0  0  0  0  0  0  0  0
   -5.1524   -0.0142   -2.0714 C   0  0  0  0  0  0  0  0  0  0  0  0
  1  5  2  0
  2  6  2  0
  3 18  1  0
  3 19  1  0
  4  5  1  0
  4  6  1  0
  4  9  1  0
  5  7  1  0
  6  8  1  0
  7  8  2  0
  7 10  1  0
  8 11  1  0
  9 12  2  0
  9 13  1  0
 10 14  2  0
 11 15  2  0
 12 16  1  0
 13 17  2  0
 14 15  1  0
 16 18  2  0
 17 18  1  0
M  END
>  <PUBCHEM_COMPOUND_CID>  (1) 
2197

>  <PUBCHEM_CONFORMER_RMSD>  (1) 
0.6

>  <PUBCHEM_CONFORMER_DIVERSEORDER>  (1) 
1
2
3

>  <PUBCHEM_MMFF94_PARTIAL_CHARGES>  (1) 
27
1 -0.57
10 -0.15
11 -0.15
12 -0.15
13 -0.15
14 -0.15
15 -0.15
16 -0.15
17 -0.15
18 0.08
19 0.28
2 -0.57
21 0.15
22 0.15
23 0.15
24 0.15
25 0.15
26 0.15
27 0.15
28 0.15
3 -0.36
4 0.27
5 0.42
6 0.42
7 0.09
8 0.09
9 -0.14

>  <PUBCHEM_EFFECTIVE_ROTOR_COUNT>  (1) 
2.2

>  <PUBCHEM_PHARMACOPHORE_FEATURES>  (1) 
7
1 1 acceptor
1 2 acceptor
1 3 acceptor
1 4 anion
5 4 5 6 7 8 rings
6 7 8 10 11 14 15 rings
6 9 12 13 16 17 18 rings

>  <PUBCHEM_HEAVY_ATOM_COUNT>  (1) 
19

>  <PUBCHEM_ATOM_DEF_STEREO_COUNT>  (1) 
0

>  <PUBCHEM_ATOM_UDEF_STEREO_COUNT>  (1) 
0

>  <PUBCHEM_BOND_DEF_STEREO_COUNT>  (1) 
0

>  <PUBCHEM_BOND_UDEF_STEREO_COUNT>  (1) 
0

>  <PUBCHEM_ISOTOPIC_ATOM_COUNT>  (1) 
0

>  <PUBCHEM_COMPONENT_COUNT>  (1) 
1

>  <PUBCHEM_CACTVS_TAUTO_COUNT>  (1) 
2

>  <PUBCHEM_CONFORMER_ID>  (1) 
0000089500000001

>  <PUBCHEM_MMFF94_ENERGY>  (1) 
61.0537

>  <PUBCHEM_FEATURE_SELFOVERLAP>  (1) 
35.603

>  <PUBCHEM_SHAPE_FINGERPRINT>  (1) 
10498660 4 16660358169444844269
10646746 165 15719113573854297294
11471102 20 18408893936238358928
11796584 16 15410621350191949413
12236239 1 17632305557287373649
12251169 10 10303806583922568056
12670546 177 18410576209992340999
12730499 353 17821732711040753715
12892183 10 11600010916338747134
12969540 114 17749379391282565375
13760787 5 18342470226479528568
14115302 16 16702017621201623453
14252887 29 10375880670930467756
14576447 43 17775003496603180814
15209294 21 13118002218590811423
15210252 30 17675922075444823076
15342816 4 17060062527783722692
15375358 24 17095239220423556391
16752209 62 17131824331951063559
16945 1 18410583885779003984
18186145 218 18260843600241413906
193927 3 16343707672530651287
19422 9 17775013366174191834
19862831 5 18273493485608293543
200 152 18272093772693162921
20645477 70 18335424530146708250
21637258 2 16271927069650067164
221357 26 18410569570511211829
22646028 28 17132115740649059847
231179 274 17458064880450650136
23402539 116 18271821073041467616
23402655 69 18334577931904576117
23557571 272 16515984617616552563
23559900 14 16153708674595939698
25 1 18333739013333657338
2748010 2 17836668666266390336
2838139 119 16589728970234917796
296302 2 12251904810721899975
3060560 45 18335413578148635814
3323516 105 18338241569073069146
3472631 163 15285360626280193607
4028521 119 17240201023810130781
465052 167 16343134866086163383
474 4 17772180066934568496
5104073 3 11891339789314524860
633830 44 18267325186521291736
7164475 11 18127700322951620268
7364860 26 15768917112538587656
77492 1 17703522020650871168
7808743 9 15574713599466458965

>  <PUBCHEM_SHAPE_MULTIPOLES>  (1) 
373.4
9.35
1.58
1.53
5.33
0.23
0.01
5.88
-0.06
1.37
-0.01
-1.63
-0.34
-0.03

>  <PUBCHEM_SHAPE_SELFOVERLAP>  (1) 
831.754

>  <PUBCHEM_SHAPE_VOLUME>  (1) 
201.3

>  <PUBCHEM_COORDINATE_TYPE>  (1) 
2
5
10

$$$$
