21979
     RDKit          3D

 13 13  0  0  1  0  0  0  0  0999 V2000
    0.9441    0.2305   -0.4807 O   0  0  0  0  0  0  0  0  0  0  0  0
    0.1069   -1.0066    1.3329 O   0  0  0  0  0  0  0  0  0  0  0  0
    3.6923    0.7445   -1.0730 O   0  0  0  0  0  0  0  0  0  0  0  0
   -0.2433   -0.1474    0.2353 C   0  0  0  0  0  0  0  0  0  0  0  0
   -0.9165    1.1016    0.7901 C   0  0  0  0  0  0  0  0  0  0  0  0
   -1.1662   -0.8975   -0.7168 C   0  0  0  0  0  0  0  0  0  0  0  0
    2.0220   -0.1677    0.3710 C   0  0  0  0  0  0  0  0  0  0  0  0
    1.4640   -1.3759    1.0834 C   0  0  0  0  0  0  0  0  0  0  0  0
   -1.3414    2.0486   -0.3288 C   0  0  0  0  0  0  0  0  0  0  0  0
   -2.4649   -1.3055   -0.0270 C   0  0  0  0  0  0  0  0  0  0  0  0
    3.2655   -0.4541   -0.4430 C   0  0  0  0  0  0  0  0  0  0  0  0
   -1.9884    3.3073    0.2261 C   0  0  0  0  0  0  0  0  0  0  0  0
   -3.3741   -2.0778   -0.9695 C   0  0  0  0  0  0  0  0  0  0  0  0
  1  4  1  0
  1  7  1  0
  2  4  1  0
  2  8  1  0
  3 11  1  0
  4  5  1  0
  4  6  1  0
  5  9  1  0
  6 10  1  0
  7  8  1  0
  7 11  1  0
  9 12  1  0
 10 13  1  0
M  END
>  <PUBCHEM_COMPOUND_CID>  (1) 
21979

>  <PUBCHEM_CONFORMER_RMSD>  (1) 
0.6

>  <PUBCHEM_CONFORMER_DIVERSEORDER>  (1) 
1
48
8
45
49
33
43
38
35
46
40
9
28
47
37
12
42
34
29
25
18
41
26
21
13
44
7
30
17
16
23
50
27
36
2
15
22
24
4
20
39
31
5
32
19
3
14
11
6
10

>  <PUBCHEM_MMFF94_PARTIAL_CHARGES>  (1) 
8
1 -0.56
11 0.28
2 -0.56
3 -0.68
33 0.4
4 0.56
7 0.28
8 0.28

>  <PUBCHEM_EFFECTIVE_ROTOR_COUNT>  (1) 
6

>  <PUBCHEM_PHARMACOPHORE_FEATURES>  (1) 
7
1 1 acceptor
1 12 hydrophobe
1 13 hydrophobe
1 2 acceptor
1 3 acceptor
1 3 donor
5 1 2 4 7 8 rings

>  <PUBCHEM_HEAVY_ATOM_COUNT>  (1) 
13

>  <PUBCHEM_ATOM_DEF_STEREO_COUNT>  (1) 
0

>  <PUBCHEM_ATOM_UDEF_STEREO_COUNT>  (1) 
1

>  <PUBCHEM_BOND_DEF_STEREO_COUNT>  (1) 
0

>  <PUBCHEM_BOND_UDEF_STEREO_COUNT>  (1) 
0

>  <PUBCHEM_ISOTOPIC_ATOM_COUNT>  (1) 
0

>  <PUBCHEM_COMPONENT_COUNT>  (1) 
1

>  <PUBCHEM_CACTVS_TAUTO_COUNT>  (1) 
1

>  <PUBCHEM_CONFORMER_ID>  (1) 
000055DB00000001

>  <PUBCHEM_MMFF94_ENERGY>  (1) 
22.6295

>  <PUBCHEM_FEATURE_SELFOVERLAP>  (1) 
35.564

>  <PUBCHEM_SHAPE_FINGERPRINT>  (1) 
1 1 17188399474792753549
12138202 97 18056764230146036285
12423570 1 18127159431406568137
13538477 17 18263630780365546985
14617773 55 18188478086738782475
15219459 52 17690270517587373683
15490181 8 17692524521104156829
15502708 8 18271807891359691917
15775835 57 18046072562082782996
15906896 17 18263651658502234051
161256 15 18128521855120450401
16945 1 18411689972352961027
17041 50 18124575717190538135
187816 3 18116151249981036686
20361792 2 18057027215679265719
20645476 183 17978791207800461975
20645477 70 17548396560155253343
20653085 51 18193010218139816216
20711985 344 18342167848171392131
21041028 32 18121801657959158145
21501502 16 18262518074851750578
21524375 3 17902518090371639368
22620623 9 17917714586992797605
228727 97 18260546757492065778
23402539 116 18336824286164148718
23530152 11 17765426553115549621
23557571 272 18059563664603103864
23559900 14 17771619058944628850
2748010 2 18126540526993929581
3060560 45 17257648920264921949
353137 74 18113896091249445494
53812653 217 18339366253625297843
68250623 7 18264489473108925754
7364860 26 17549534558715065903
81228 2 18411971447741147993
88987 49 18198326378239861440
9939556 21 18191584142963569810

>  <PUBCHEM_SHAPE_MULTIPOLES>  (1) 
249.93
4.93
2.78
1.09
2.69
2.24
0.1
-1.18
-1.84
-3.56
-0.1
0.31
-0.24
-0.97

>  <PUBCHEM_SHAPE_SELFOVERLAP>  (1) 
483.738

>  <PUBCHEM_SHAPE_VOLUME>  (1) 
152.8

>  <PUBCHEM_COORDINATE_TYPE>  (1) 
2
5
10

$$$$
