21972
     RDKit          3D

 13 15  0  0  1  0  0  0  0  0999 V2000
    0.4587   -0.3272   -0.6176 C   0  0  0  0  0  0  0  0  0  0  0  0
   -0.4586   -0.3272    0.6176 C   0  0  0  0  0  0  0  0  0  0  0  0
    1.1124    1.0667   -0.5368 C   0  0  0  0  0  0  0  0  0  0  0  0
   -1.1125    1.0667    0.5368 C   0  0  0  0  0  0  0  0  0  0  0  0
    0.0000    1.9899    0.0000 C   0  0  0  0  0  0  0  0  0  0  0  0
    1.4616   -1.4772   -0.7194 C   0  0  0  0  0  0  0  0  0  0  0  0
   -1.4614   -1.4774    0.7192 C   0  0  0  0  0  0  0  0  0  0  0  0
    2.3447    1.1222    0.3813 C   0  0  0  0  0  0  0  0  0  0  0  0
   -2.3447    1.1220   -0.3815 C   0  0  0  0  0  0  0  0  0  0  0  0
    2.6318   -1.3651    0.2493 C   0  0  0  0  0  0  0  0  0  0  0  0
   -2.6318   -1.3651   -0.2493 C   0  0  0  0  0  0  0  0  0  0  0  0
    3.3219   -0.0141    0.1150 C   0  0  0  0  0  0  0  0  0  0  0  0
   -3.3219   -0.0141   -0.1146 C   0  0  0  0  0  0  0  0  0  0  0  0
  1  2  1  0
  1  3  1  0
  1  6  1  0
  2  4  1  0
  2  7  1  0
  3  5  1  0
  3  8  1  0
  4  5  1  0
  4  9  1  0
  6 10  1  0
  7 11  1  0
  8 12  1  0
  9 13  1  0
 10 12  1  0
 11 13  1  0
M  END
>  <PUBCHEM_COMPOUND_CID>  (1) 
21972

>  <PUBCHEM_CONFORMER_RMSD>  (1) 
0.6

>  <PUBCHEM_CONFORMER_DIVERSEORDER>  (1) 
1
9
3
4
10
8
2
7
5
6
11

>  <PUBCHEM_MMFF94_PARTIAL_CHARGES>  (1) 
0

>  <PUBCHEM_EFFECTIVE_ROTOR_COUNT>  (1) 
1.8

>  <PUBCHEM_PHARMACOPHORE_FEATURES>  (1) 
3
5 1 2 3 4 5 rings
6 1 3 6 8 10 12 rings
6 2 4 7 9 11 13 rings

>  <PUBCHEM_HEAVY_ATOM_COUNT>  (1) 
13

>  <PUBCHEM_ATOM_DEF_STEREO_COUNT>  (1) 
0

>  <PUBCHEM_ATOM_UDEF_STEREO_COUNT>  (1) 
4

>  <PUBCHEM_BOND_DEF_STEREO_COUNT>  (1) 
0

>  <PUBCHEM_BOND_UDEF_STEREO_COUNT>  (1) 
0

>  <PUBCHEM_ISOTOPIC_ATOM_COUNT>  (1) 
0

>  <PUBCHEM_COMPONENT_COUNT>  (1) 
1

>  <PUBCHEM_CACTVS_TAUTO_COUNT>  (1) 
1

>  <PUBCHEM_CONFORMER_ID>  (1) 
000055D400000001

>  <PUBCHEM_MMFF94_ENERGY>  (1) 
25.7054

>  <PUBCHEM_FEATURE_SELFOVERLAP>  (1) 
15.487

>  <PUBCHEM_SHAPE_FINGERPRINT>  (1) 
10608611 8 18410569591400388032
10922523 26 18333730204471673749
11132069 177 18412536600865046960
11769659 78 18410565193353597606
12138202 97 18260820462888652141
12382932 28 18413392029163768218
12491281 212 18271536286033269761
12524768 44 18268721523291544743
12716758 59 18333729087737939681
12808571 1 11314298434767856167
13571099 22 18409163298980027039
15219456 202 18412260644604884873
16945 1 18410863156709757604
17990270 104 18410858771843404582
18186145 218 18262518074756590869
200 152 17917985075194991407
20201158 50 18411136943847982783
20525323 117 18272654540998318153
21501502 16 18410859858190705032
2334 1 18410579508479426282
23388829 49 18198619024263011028
23402539 116 18340756075315109645
23463225 33 18409166619137517756
23552423 10 18260553363077758095
23559900 14 18339072680374651786
2748010 2 18411425015778298734
369184 2 18410012108997889201
528886 8 18412538812467255699
57812782 119 18410849962570061888
69090 78 18341607097431085175
7364860 26 18267305524351434136
81228 2 18192443973688256512
8809292 202 18334018306229838498

>  <PUBCHEM_SHAPE_MULTIPOLES>  (1) 
267.53
4.78
1.93
0.83
0
0.12
0
-0.82
0
0
0
0
-0.08
0.17

>  <PUBCHEM_SHAPE_SELFOVERLAP>  (1) 
556.877

>  <PUBCHEM_SHAPE_VOLUME>  (1) 
146.6

>  <PUBCHEM_COORDINATE_TYPE>  (1) 
2
5
10

$$$$
