21978
     RDKit          3D

 20 19  0  0  0  0  0  0  0  0999 V2000
   -3.9353    1.9248    0.0649 S   0  0  0  0  0  0  0  0  0  0  0  0
   -2.1368   -1.7490   -2.3238 S   0  0  0  0  0  0  0  0  0  0  0  0
    3.9335    1.9255   -0.0668 S   0  0  0  0  0  0  0  0  0  0  0  0
    2.1354   -1.7443    2.3259 S   0  0  0  0  0  0  0  0  0  0  0  0
   -1.6810    0.5422   -0.8118 N   0  0  0  0  0  0  0  0  0  0  0  0
    1.6875    0.5440    0.8094 N   0  0  0  0  0  0  0  0  0  0  0  0
   -0.2244    0.5514   -0.7311 C   0  0  0  0  0  0  0  0  0  0  0  0
    0.2216    0.5527    0.7281 C   0  0  0  0  0  0  0  0  0  0  0  0
   -2.2036    1.8914   -0.5219 C   0  0  0  0  0  0  0  0  0  0  0  0
   -2.1405    0.0697   -2.1335 C   0  0  0  0  0  0  0  0  0  0  0  0
    2.2006    1.8928    0.5166 C   0  0  0  0  0  0  0  0  0  0  0  0
    2.1376    0.0740    2.1316 C   0  0  0  0  0  0  0  0  0  0  0  0
   -3.6815    1.3481    1.7618 C   0  0  0  0  0  0  0  0  0  0  0  0
   -3.3521   -2.1797   -1.0533 C   0  0  0  0  0  0  0  0  0  0  0  0
    3.6835    1.3434   -1.7624 C   0  0  0  0  0  0  0  0  0  0  0  0
    3.3515   -2.1769    1.0569 C   0  0  0  0  0  0  0  0  0  0  0  0
   -5.0025    1.2790    2.5042 C   0  0  0  0  0  0  0  0  0  0  0  0
   -3.5501   -3.6824   -0.9930 C   0  0  0  0  0  0  0  0  0  0  0  0
    5.0059    1.2729   -2.5020 C   0  0  0  0  0  0  0  0  0  0  0  0
    3.5508   -3.6796    1.0001 C   0  0  0  0  0  0  0  0  0  0  0  0
  1  9  1  0
  1 13  1  0
  2 10  1  0
  2 14  1  0
  3 11  1  0
  3 15  1  0
  4 12  1  0
  4 16  1  0
  5  7  1  0
  5  9  1  0
  5 10  1  0
  6  8  1  0
  6 11  1  0
  6 12  1  0
  7  8  1  0
 13 17  1  0
 14 18  1  0
 15 19  1  0
 16 20  1  0
M  END
>  <PUBCHEM_COMPOUND_CID>  (1) 
21978

>  <PUBCHEM_CONFORMER_RMSD>  (1) 
1.2

>  <PUBCHEM_CONFORMER_DIVERSEORDER>  (1) 
1
22
12
29
31
38
27
4
23
39
32
3
20
17
33
40
41
2
21
30
7
24
36
25
16
34
37
35
28
42
13
14
9
5
19
15
10
6
8
18
11
26

>  <PUBCHEM_MMFF94_PARTIAL_CHARGES>  (1) 
16
1 -0.46
10 0.5
11 0.5
12 0.5
13 0.23
14 0.23
15 0.23
16 0.23
2 -0.46
3 -0.46
4 -0.46
5 -0.81
6 -0.81
7 0.27
8 0.27
9 0.5

>  <PUBCHEM_EFFECTIVE_ROTOR_COUNT>  (1) 
15

>  <PUBCHEM_PHARMACOPHORE_FEATURES>  (1) 
6
1 17 hydrophobe
1 18 hydrophobe
1 19 hydrophobe
1 20 hydrophobe
1 5 cation
1 6 cation

>  <PUBCHEM_HEAVY_ATOM_COUNT>  (1) 
20

>  <PUBCHEM_ATOM_DEF_STEREO_COUNT>  (1) 
0

>  <PUBCHEM_ATOM_UDEF_STEREO_COUNT>  (1) 
0

>  <PUBCHEM_BOND_DEF_STEREO_COUNT>  (1) 
0

>  <PUBCHEM_BOND_UDEF_STEREO_COUNT>  (1) 
0

>  <PUBCHEM_ISOTOPIC_ATOM_COUNT>  (1) 
0

>  <PUBCHEM_COMPONENT_COUNT>  (1) 
1

>  <PUBCHEM_CACTVS_TAUTO_COUNT>  (1) 
1

>  <PUBCHEM_CONFORMER_ID>  (1) 
000055DA00000001

>  <PUBCHEM_MMFF94_ENERGY>  (1) 
31.2908

>  <PUBCHEM_FEATURE_SELFOVERLAP>  (1) 
30.449

>  <PUBCHEM_SHAPE_FINGERPRINT>  (1) 
10369192 42 17096954514651020988
12160290 23 17774420764442058909
12549972 3 15697996353246576518
12788726 201 17987503979169524471
13135754 10 18057619856999865639
13911882 115 17024621994770646225
15295992 7 15267072458091878249
1813 80 17828752951113427530
23566358 27 18187365402567596218
23598291 2 18263911185710927692
2818148 4 18410572889935011522
312423 11 18336250301991480815

>  <PUBCHEM_SHAPE_MULTIPOLES>  (1) 
417.03
10.28
3.97
2.97
0.01
4.5
0
-1.59
0
-0.01
0
0
0.27
-5.26

>  <PUBCHEM_SHAPE_SELFOVERLAP>  (1) 
705.412

>  <PUBCHEM_SHAPE_VOLUME>  (1) 
282.8

>  <PUBCHEM_COORDINATE_TYPE>  (1) 
2
5
10

$$$$
