21988
     RDKit          3D

 17 18  0  0  0  0  0  0  0  0999 V2000
    2.4118    2.6575    0.7546 O   0  0  0  0  0  0  0  0  0  0  0  0
    0.8215    2.2077   -0.8059 O   0  0  0  0  0  0  0  0  0  0  0  0
    0.1036   -0.4642   -0.6175 N   0  0  0  0  0  0  0  0  0  0  0  0
    1.4650   -0.6342   -0.3134 C   0  0  0  0  0  0  0  0  0  0  0  0
    2.2803    0.4655   -0.0577 C   0  0  0  0  0  0  0  0  0  0  0  0
   -2.1607   -0.2960    0.2302 C   0  0  0  0  0  0  0  0  0  0  0  0
    1.9899   -1.9236   -0.2710 C   0  0  0  0  0  0  0  0  0  0  0  0
    3.6291    0.2745    0.2424 C   0  0  0  0  0  0  0  0  0  0  0  0
   -0.7251   -0.4628    0.3905 C   0  0  0  0  0  0  0  0  0  0  0  0
    3.3386   -2.1144    0.0293 C   0  0  0  0  0  0  0  0  0  0  0  0
    4.1582   -1.0155    0.2859 C   0  0  0  0  0  0  0  0  0  0  0  0
   -2.9933   -0.3053    1.3494 C   0  0  0  0  0  0  0  0  0  0  0  0
   -2.7055   -0.1264   -1.0428 C   0  0  0  0  0  0  0  0  0  0  0  0
   -4.3704   -0.1451    1.1957 C   0  0  0  0  0  0  0  0  0  0  0  0
   -4.0826    0.0339   -1.1964 C   0  0  0  0  0  0  0  0  0  0  0  0
   -4.9150    0.0246   -0.0771 C   0  0  0  0  0  0  0  0  0  0  0  0
    1.7547    1.8238   -0.0962 C   0  0  0  0  0  0  0  0  0  0  0  0
  1 17  1  0
  2 17  2  0
  3  4  1  0
  3  9  2  0
  4  5  2  0
  4  7  1  0
  5  8  1  0
  5 17  1  0
  6  9  1  0
  6 12  2  0
  6 13  1  0
  7 10  2  0
  8 11  2  0
 10 11  1  0
 12 14  1  0
 13 15  2  0
 14 16  2  0
 15 16  1  0
M  END
>  <PUBCHEM_COMPOUND_CID>  (1) 
21988

>  <PUBCHEM_CONFORMER_RMSD>  (1) 
0.6

>  <PUBCHEM_CONFORMER_DIVERSEORDER>  (1) 
1
2
3
4

>  <PUBCHEM_MMFF94_PARTIAL_CHARGES>  (1) 
28
1 -0.65
10 -0.15
11 -0.15
12 -0.15
13 -0.15
14 -0.15
15 -0.15
16 -0.15
17 0.63
18 0.15
19 0.15
2 -0.57
20 0.06
21 0.15
22 0.15
23 0.15
24 0.15
25 0.15
26 0.15
27 0.15
28 0.5
3 -0.63
4 0.18
5 0.09
6 0.09
7 -0.15
8 -0.15
9 0.3

>  <PUBCHEM_EFFECTIVE_ROTOR_COUNT>  (1) 
3

>  <PUBCHEM_PHARMACOPHORE_FEATURES>  (1) 
6
1 1 acceptor
1 2 acceptor
1 3 acceptor
3 1 2 17 anion
6 4 5 7 8 10 11 rings
6 6 12 13 14 15 16 rings

>  <PUBCHEM_HEAVY_ATOM_COUNT>  (1) 
17

>  <PUBCHEM_ATOM_DEF_STEREO_COUNT>  (1) 
0

>  <PUBCHEM_ATOM_UDEF_STEREO_COUNT>  (1) 
0

>  <PUBCHEM_BOND_DEF_STEREO_COUNT>  (1) 
0

>  <PUBCHEM_BOND_UDEF_STEREO_COUNT>  (1) 
0

>  <PUBCHEM_ISOTOPIC_ATOM_COUNT>  (1) 
0

>  <PUBCHEM_COMPONENT_COUNT>  (1) 
1

>  <PUBCHEM_CACTVS_TAUTO_COUNT>  (1) 
1

>  <PUBCHEM_CONFORMER_ID>  (1) 
000055E400000001

>  <PUBCHEM_MMFF94_ENERGY>  (1) 
51.8244

>  <PUBCHEM_FEATURE_SELFOVERLAP>  (1) 
30.508

>  <PUBCHEM_SHAPE_FINGERPRINT>  (1) 
11471102 20 18410573989763001054
11615757 297 18343022198728766691
11796584 16 16588579799894909506
12236239 1 17632574946315998359
12507557 5 18411980282272578451
12760667 363 18046343033796724578
13134695 92 18410569574547384900
13140716 1 18267018552143145314
13922767 16 18408603660314561050
14252887 29 18341051809668138962
14386348 63 17822011999509806139
15653759 3 17458345255952630193
15848700 24 18339077095358341558
17357779 13 18188761760733656181
1813 80 17986687982353651134
18186145 218 18413113865960562799
19049666 15 17823126839965344125
200 152 18273208686669800223
20279233 1 17967536757313814523
20645477 70 18409164406976438727
21033648 29 17967520282030192429
21065201 7 16732699450462514091
21618674 57 17604147021851076785
21639500 275 18341324599803817045
21641784 216 18042707022031856220
22289505 5 18335693897536512013
2255824 54 18343305889861168414
22854114 111 18342178915990968593
23184049 59 18341895177566545038
23559900 14 17240484697493819631
26918003 58 18335422352782684931
3060560 45 18131074827137469726
474 4 18199461245938529168
5895379 119 15338580274361034592
602551 16 16371014052153796907
6049 1 17967254200142131701
7615 1 17775569740970545961
77492 1 17632578266583992671
84936 182 17700687630225764608
9971528 1 18060139804358977294

>  <PUBCHEM_SHAPE_MULTIPOLES>  (1) 
333.13
9.37
1.97
1.06
6.57
0.99
-0.06
-1.67
-0.84
-2.92
-0.02
1.13
0.04
0.31

>  <PUBCHEM_SHAPE_SELFOVERLAP>  (1) 
721.01

>  <PUBCHEM_SHAPE_VOLUME>  (1) 
181.3

>  <PUBCHEM_COORDINATE_TYPE>  (1) 
2
5
10

$$$$
