21986
     RDKit          3D

 15 15  0  0  0  0  0  0  0  0999 V2000
   -0.0005    4.2718    0.0019 Cl  0  0  0  0  0  0  0  0  0  0  0  0
    2.3452   -0.0845   -0.0236 N   0  0  0  0  0  0  0  0  0  0  0  0
   -2.3452   -0.0847    0.0231 N   0  0  0  0  0  0  0  0  0  0  0  0
    0.0000   -0.1172   -0.0002 N   0  0  0  0  0  0  0  0  0  0  0  0
   -1.1997    1.9608    0.0113 N   0  0  0  0  0  0  0  0  0  0  0  0
    1.1997    1.9609   -0.0125 N   0  0  0  0  0  0  0  0  0  0  0  0
    4.9030   -2.3600    0.0260 N   0  0  0  0  0  0  0  0  0  0  0  0
   -4.9028   -2.3603   -0.0254 N   0  0  0  0  0  0  0  0  0  0  0  0
    1.1221    0.6204   -0.0115 C   0  0  0  0  0  0  0  0  0  0  0  0
   -1.1221    0.6203    0.0107 C   0  0  0  0  0  0  0  0  0  0  0  0
    2.4174   -1.5122   -0.0240 C   0  0  0  0  0  0  0  0  0  0  0  0
   -2.4172   -1.5123    0.0244 C   0  0  0  0  0  0  0  0  0  0  0  0
   -0.0001    2.5638   -0.0008 C   0  0  0  0  0  0  0  0  0  0  0  0
    3.8057   -1.9833    0.0039 C   0  0  0  0  0  0  0  0  0  0  0  0
   -3.8054   -1.9835   -0.0034 C   0  0  0  0  0  0  0  0  0  0  0  0
  1 13  1  0
  2  9  1  0
  2 11  1  0
  3 10  1  0
  3 12  1  0
  4  9  2  0
  4 10  1  0
  5 10  2  0
  5 13  1  0
  6  9  1  0
  6 13  2  0
  7 14  3  0
  8 15  3  0
 11 14  1  0
 12 15  1  0
M  END
>  <PUBCHEM_COMPOUND_CID>  (1) 
21986

>  <PUBCHEM_CONFORMER_RMSD>  (1) 
0.6

>  <PUBCHEM_CONFORMER_DIVERSEORDER>  (1) 
1
11
33
21
3
26
27
16
29
24
28
20
12
19
14
17
4
23
30
25
6
9
32
15
2
31
10
13
34
18
8
22
5
7

>  <PUBCHEM_MMFF94_PARTIAL_CHARGES>  (1) 
17
1 -0.18
10 0.72
11 0.57
12 0.57
13 0.8
14 0.36
15 0.36
16 0.4
17 0.4
2 -0.87
3 -0.87
4 -0.62
5 -0.62
6 -0.62
7 -0.56
8 -0.56
9 0.72

>  <PUBCHEM_EFFECTIVE_ROTOR_COUNT>  (1) 
4

>  <PUBCHEM_PHARMACOPHORE_FEATURES>  (1) 
7
1 2 donor
1 3 donor
1 7 acceptor
1 8 acceptor
4 2 4 6 9 cation
4 3 4 5 10 cation
6 4 5 6 9 10 13 rings

>  <PUBCHEM_HEAVY_ATOM_COUNT>  (1) 
15

>  <PUBCHEM_ATOM_DEF_STEREO_COUNT>  (1) 
0

>  <PUBCHEM_ATOM_UDEF_STEREO_COUNT>  (1) 
0

>  <PUBCHEM_BOND_DEF_STEREO_COUNT>  (1) 
0

>  <PUBCHEM_BOND_UDEF_STEREO_COUNT>  (1) 
0

>  <PUBCHEM_ISOTOPIC_ATOM_COUNT>  (1) 
0

>  <PUBCHEM_COMPONENT_COUNT>  (1) 
1

>  <PUBCHEM_CACTVS_TAUTO_COUNT>  (1) 
5

>  <PUBCHEM_CONFORMER_ID>  (1) 
000055E200000001

>  <PUBCHEM_MMFF94_ENERGY>  (1) 
33.6188

>  <PUBCHEM_FEATURE_SELFOVERLAP>  (1) 
35.564

>  <PUBCHEM_SHAPE_FINGERPRINT>  (1) 
10411042 1 18410575088963977063
11056379 131 18195539090937237934
11265709 11 18410578374692748579
12107183 9 18341908376993017875
12500047 106 17690273816765562424
12841375 25 18410572898599000527
13955234 65 17980204415661125299
15042514 8 18194970647298144921
15442244 35 18340494447683071001
17539 30 18267011757056633125
20645477 70 18047180028496438863
20671657 53 18411985797089947919
20871998 184 18058162826417305414
20871998 22 18411415154501725585
21426921 1 18194403291046115318
21452121 199 18335696165680001768
21665056 4 17473542447762780878
2255824 54 17979922931767464469
23402539 116 18054215532429319581
23526113 38 18042123318210455883
23530152 11 17184754039305829693
23557571 272 17841715111041790718
23559900 14 17550661120627731286
257057 1 18410573985151840909
2748010 2 18340753901618955276
3091708 16 9137211561234276041
3421961 26 18339923843512560643
4416823 128 18410575088990181935
54173680 148 18266740181874141780
58779409 54 18191856834510484381
7364860 26 18123188175838138329
77188 2 18410855485903701653

>  <PUBCHEM_SHAPE_MULTIPOLES>  (1) 
275.7
7.31
4.61
0.58
0
4.8
0
-11.95
0
0
0
0
0.02
-0.03

>  <PUBCHEM_SHAPE_SELFOVERLAP>  (1) 
549.384

>  <PUBCHEM_SHAPE_VOLUME>  (1) 
155.3

>  <PUBCHEM_COORDINATE_TYPE>  (1) 
2
5
10

$$$$
