21981
     RDKit          3D

 11 11  0  0  0  0  0  0  0  0999 V2000
    3.2163    0.5759    0.0502 O   0  0  0  0  0  0  0  0  0  0  0  0
   -3.2160    0.5759   -0.0517 O   0  0  0  0  0  0  0  0  0  0  0  0
    2.4759   -1.5135    0.1124 O   0  0  0  0  0  0  0  0  0  0  0  0
   -2.4757   -1.5136   -0.1124 O   0  0  0  0  0  0  0  0  0  0  0  0
    1.1088    0.1338   -0.3629 N   0  0  0  0  0  0  0  0  0  0  0  0
   -1.1090    0.1338    0.3639 N   0  0  0  0  0  0  0  0  0  0  0  0
    2.3501   -0.2968   -0.0454 N   0  0  0  0  0  0  0  0  0  0  0  0
   -2.3501   -0.2969    0.0452 N   0  0  0  0  0  0  0  0  0  0  0  0
    0.7560    1.4748    0.0893 C   0  0  0  0  0  0  0  0  0  0  0  0
   -0.7562    1.4747   -0.0887 C   0  0  0  0  0  0  0  0  0  0  0  0
   -0.0001   -0.7481    0.0002 C   0  0  0  0  0  0  0  0  0  0  0  0
  1  7  1  0
  2  8  1  0
  3  7  2  0
  4  8  2  0
  5  7  1  0
  5  9  1  0
  5 11  1  0
  6  8  1  0
  6 10  1  0
  6 11  1  0
  9 10  1  0
M  CHG  4   1  -1   2  -1   7   1   8   1
M  END
>  <PUBCHEM_COMPOUND_CID>  (1) 
21981

>  <PUBCHEM_CONFORMER_RMSD>  (1) 
0.6

>  <PUBCHEM_CONFORMER_DIVERSEORDER>  (1) 
1
7
2
5
6
4
3

>  <PUBCHEM_MMFF94_PARTIAL_CHARGES>  (1) 
11
1 -0.52
10 0.27
11 0.54
2 -0.52
3 -0.52
4 -0.52
5 -0.53
6 -0.53
7 1.03
8 1.03
9 0.27

>  <PUBCHEM_EFFECTIVE_ROTOR_COUNT>  (1) 
3

>  <PUBCHEM_PHARMACOPHORE_FEATURES>  (1) 
5
1 1 acceptor
1 2 acceptor
1 3 acceptor
1 4 acceptor
5 5 6 9 10 11 rings

>  <PUBCHEM_HEAVY_ATOM_COUNT>  (1) 
11

>  <PUBCHEM_ATOM_DEF_STEREO_COUNT>  (1) 
0

>  <PUBCHEM_ATOM_UDEF_STEREO_COUNT>  (1) 
0

>  <PUBCHEM_BOND_DEF_STEREO_COUNT>  (1) 
0

>  <PUBCHEM_BOND_UDEF_STEREO_COUNT>  (1) 
0

>  <PUBCHEM_ISOTOPIC_ATOM_COUNT>  (1) 
0

>  <PUBCHEM_COMPONENT_COUNT>  (1) 
1

>  <PUBCHEM_CACTVS_TAUTO_COUNT>  (1) 
1

>  <PUBCHEM_CONFORMER_ID>  (1) 
000055DD00000001

>  <PUBCHEM_MMFF94_ENERGY>  (1) 
31.3556

>  <PUBCHEM_FEATURE_SELFOVERLAP>  (1) 
25.522

>  <PUBCHEM_SHAPE_FINGERPRINT>  (1) 
10857977 72 18342164596659557800
11062470 55 18410293609728761157
12897270 3 18410576175779963990
14128692 85 18340772657777696373
14325111 11 18410575088958046209
20201158 50 18409165519383270882
23552423 10 18261677085573435693
29004967 10 18409171029963409864
369184 2 18410855425773717689

>  <PUBCHEM_SHAPE_MULTIPOLES>  (1) 
182.97
4.47
1.53
0.57
0
0.02
0
-0.84
0
0
0
0
0.03
-0.03

>  <PUBCHEM_SHAPE_SELFOVERLAP>  (1) 
371.623

>  <PUBCHEM_SHAPE_VOLUME>  (1) 
108.9

>  <PUBCHEM_COORDINATE_TYPE>  (1) 
2
5
10

$$$$
