21982
     RDKit          3D

 12 12  0  0  0  0  0  0  0  0999 V2000
   -0.8821   -2.9469    0.2240 S   0  0  0  0  0  0  0  0  0  0  0  0
   -2.1115    2.2377    0.2231 S   0  0  0  0  0  0  0  0  0  0  0  0
    2.9935    0.7098    0.2259 S   0  0  0  0  0  0  0  0  0  0  0  0
   -1.3480   -0.3194    0.2192 N   0  0  0  0  0  0  0  0  0  0  0  0
    0.9509   -1.0073    0.2208 N   0  0  0  0  0  0  0  0  0  0  0  0
    0.3971    1.3275    0.2191 N   0  0  0  0  0  0  0  0  0  0  0  0
   -0.3714   -1.2411    0.2202 C   0  0  0  0  0  0  0  0  0  0  0  0
   -0.8894    0.9426    0.2186 C   0  0  0  0  0  0  0  0  0  0  0  0
    1.2607    0.2993    0.2200 C   0  0  0  0  0  0  0  0  0  0  0  0
    0.4853   -3.7451   -0.6642 C   0  0  0  0  0  0  0  0  0  0  0  0
   -3.4878    1.4515   -0.6618 C   0  0  0  0  0  0  0  0  0  0  0  0
    3.0027    2.2915   -0.6649 C   0  0  0  0  0  0  0  0  0  0  0  0
  1  7  1  0
  1 10  1  0
  2  8  1  0
  2 11  1  0
  3  9  1  0
  3 12  1  0
  4  7  2  0
  4  8  1  0
  5  7  1  0
  5  9  2  0
  6  8  2  0
  6  9  1  0
M  END
>  <PUBCHEM_COMPOUND_CID>  (1) 
21982

>  <PUBCHEM_CONFORMER_RMSD>  (1) 
0.6

>  <PUBCHEM_CONFORMER_DIVERSEORDER>  (1) 
7
5
4
6
1
2
3

>  <PUBCHEM_MMFF94_PARTIAL_CHARGES>  (1) 
12
1 -0.33
10 0.23
11 0.23
12 0.23
2 -0.33
3 -0.33
4 -0.62
5 -0.62
6 -0.62
7 0.72
8 0.72
9 0.72

>  <PUBCHEM_EFFECTIVE_ROTOR_COUNT>  (1) 
3

>  <PUBCHEM_PHARMACOPHORE_FEATURES>  (1) 
7
1 10 hydrophobe
1 11 hydrophobe
1 12 hydrophobe
3 4 5 7 cation
3 4 6 8 cation
3 5 6 9 cation
6 4 5 6 7 8 9 rings

>  <PUBCHEM_HEAVY_ATOM_COUNT>  (1) 
12

>  <PUBCHEM_ATOM_DEF_STEREO_COUNT>  (1) 
0

>  <PUBCHEM_ATOM_UDEF_STEREO_COUNT>  (1) 
0

>  <PUBCHEM_BOND_DEF_STEREO_COUNT>  (1) 
0

>  <PUBCHEM_BOND_UDEF_STEREO_COUNT>  (1) 
0

>  <PUBCHEM_ISOTOPIC_ATOM_COUNT>  (1) 
0

>  <PUBCHEM_COMPONENT_COUNT>  (1) 
1

>  <PUBCHEM_CACTVS_TAUTO_COUNT>  (1) 
1

>  <PUBCHEM_CONFORMER_ID>  (1) 
000055DE00000007

>  <PUBCHEM_MMFF94_ENERGY>  (1) 
19.2664

>  <PUBCHEM_FEATURE_SELFOVERLAP>  (1) 
38.293

>  <PUBCHEM_SHAPE_FINGERPRINT>  (1) 
1 1 18266457594500700228
13380535 76 18337104570949394257
15490181 8 18337670793857838203
16945 1 18195522829615684872
193761 8 18339081488714701107
20645477 70 17976809901497353493
20671657 53 17331390975001650343
20711985 344 17903905996241883786
20711985 365 18337953523244729834
20871998 184 18194697083345413843
21499 59 18336257964519267541
21524375 3 18260263036316349536
23526114 1 17546164099750067503
23530152 11 18411133623927790895
23552423 10 17980195280155111217
23557571 272 17839475714846353532
241688 4 16609415287057416715
2748010 2 18337403668176939786
3071541 12 17907582428059779601
3071541 250 17404031326902367543
352729 6 18410575088958046450
7364860 26 17909542861634342883
81228 2 18050567648852312506

>  <PUBCHEM_SHAPE_MULTIPOLES>  (1) 
243.56
4.25
4.25
0.77
0.28
4.59
0.06
-4.59
0.78
-0.28
0.78
0
0
0

>  <PUBCHEM_SHAPE_SELFOVERLAP>  (1) 
443.466

>  <PUBCHEM_SHAPE_VOLUME>  (1) 
158.6

>  <PUBCHEM_COORDINATE_TYPE>  (1) 
2
5
10

$$$$
