21993
     RDKit          3D

 14 15  0  0  0  0  0  0  0  0999 V2000
    1.3812    1.1865   -1.5813 S   0  0  0  0  0  0  0  0  0  0  0  0
    1.5854    0.6225    1.3622 S   0  0  0  0  0  0  0  0  0  0  0  0
    0.7741    0.0926   -0.2132 C   0  0  0  0  0  0  0  0  0  0  0  0
    1.3287   -1.3097   -0.5261 C   0  0  0  0  0  0  0  0  0  0  0  0
   -0.7476    0.1829   -0.0894 C   0  0  0  0  0  0  0  0  0  0  0  0
    2.3797    2.3079   -0.5648 C   0  0  0  0  0  0  0  0  0  0  0  0
    2.9536    1.5232    0.5957 C   0  0  0  0  0  0  0  0  0  0  0  0
    0.9187   -2.3187    0.5419 C   0  0  0  0  0  0  0  0  0  0  0  0
   -1.5588   -0.6852   -0.8195 C   0  0  0  0  0  0  0  0  0  0  0  0
   -1.3230    1.1335    0.7531 C   0  0  0  0  0  0  0  0  0  0  0  0
    1.4884   -3.6970    0.2470 C   0  0  0  0  0  0  0  0  0  0  0  0
   -2.9468   -0.6026   -0.7070 C   0  0  0  0  0  0  0  0  0  0  0  0
   -2.7109    1.2161    0.8656 C   0  0  0  0  0  0  0  0  0  0  0  0
   -3.5227    0.3481    0.1356 C   0  0  0  0  0  0  0  0  0  0  0  0
  1  3  1  0
  1  6  1  0
  2  3  1  0
  2  7  1  0
  3  4  1  0
  3  5  1  0
  4  8  1  0
  5  9  2  0
  5 10  1  0
  6  7  1  0
  8 11  1  0
  9 12  1  0
 10 13  2  0
 12 14  2  0
 13 14  1  0
M  END
>  <PUBCHEM_COMPOUND_CID>  (1) 
21993

>  <PUBCHEM_CONFORMER_RMSD>  (1) 
0.6

>  <PUBCHEM_CONFORMER_DIVERSEORDER>  (1) 
1
6
2
5
4
3

>  <PUBCHEM_MMFF94_PARTIAL_CHARGES>  (1) 
16
1 -0.46
10 -0.15
12 -0.15
13 -0.15
14 -0.15
2 -0.46
23 0.15
24 0.15
28 0.15
29 0.15
3 0.6
30 0.15
5 -0.14
6 0.23
7 0.23
9 -0.15

>  <PUBCHEM_EFFECTIVE_ROTOR_COUNT>  (1) 
4

>  <PUBCHEM_PHARMACOPHORE_FEATURES>  (1) 
3
1 11 hydrophobe
5 1 2 3 6 7 rings
6 5 9 10 12 13 14 rings

>  <PUBCHEM_HEAVY_ATOM_COUNT>  (1) 
14

>  <PUBCHEM_ATOM_DEF_STEREO_COUNT>  (1) 
0

>  <PUBCHEM_ATOM_UDEF_STEREO_COUNT>  (1) 
0

>  <PUBCHEM_BOND_DEF_STEREO_COUNT>  (1) 
0

>  <PUBCHEM_BOND_UDEF_STEREO_COUNT>  (1) 
0

>  <PUBCHEM_ISOTOPIC_ATOM_COUNT>  (1) 
0

>  <PUBCHEM_COMPONENT_COUNT>  (1) 
1

>  <PUBCHEM_CACTVS_TAUTO_COUNT>  (1) 
1

>  <PUBCHEM_CONFORMER_ID>  (1) 
000055E900000001

>  <PUBCHEM_MMFF94_ENERGY>  (1) 
36.6869

>  <PUBCHEM_FEATURE_SELFOVERLAP>  (1) 
15.223

>  <PUBCHEM_SHAPE_FINGERPRINT>  (1) 
108231 29 17623848337570110723
12326174 3 17748825194118805288
13132413 78 18054229821853435188
14817 1 12457869774286404652
15279307 12 18343864441778686599
15309172 13 18188767378677407884
15490181 8 18266466597121307414
15775835 57 18130792286528795241
15852999 172 17968650631259344547
16945 1 18338228254668949230
201361 129 18342462521181800481
20510252 161 17836370719240701954
20559304 39 18199753544311693427
20645476 183 18045780358382963372
21524375 3 18200311142725496300
22344851 341 18272095989091537866
22445834 79 18269837510762144811
2255824 54 18410300172539133334
23402539 116 17986383610684966396
23419403 2 17119398604404990024
23552423 10 18412545379809887351
23557571 272 17333660873839779948
2748010 2 18117862085647084998
305870 269 18410573985299365084
3071541 236 17905319976985448666
3250762 1 17757811361193322804
57177213 63 18413107285812144041
6992083 37 17478620009755699529
7364860 26 18271246014989910374
8030462 33 18201999937004269645
81228 2 17399526013794133498

>  <PUBCHEM_SHAPE_MULTIPOLES>  (1) 
295.81
4.68
3.01
1.26
3.21
3.4
-0.09
-1.96
0.25
-2.73
0.24
-0.32
-0.39
-0.66

>  <PUBCHEM_SHAPE_SELFOVERLAP>  (1) 
581.953

>  <PUBCHEM_SHAPE_VOLUME>  (1) 
176.1

>  <PUBCHEM_COORDINATE_TYPE>  (1) 
2
5
10

$$$$
