21996
     RDKit          3D

  7  7  0  0  1  0  0  0  0  0999 V2000
   -0.0459   -0.7364   -0.2248 N   0  0  0  0  0  0  0  0  0  0  0  0
    1.3100   -0.6493   -0.2276 N   0  0  0  0  0  0  0  0  0  0  0  0
   -0.6782    0.4490    0.3722 C   0  0  0  0  0  0  0  0  0  0  0  0
    0.4152    1.4921    0.1878 C   0  0  0  0  0  0  0  0  0  0  0  0
   -1.9716    0.8448   -0.3250 C   0  0  0  0  0  0  0  0  0  0  0  0
    1.5857    0.5935   -0.0203 C   0  0  0  0  0  0  0  0  0  0  0  0
   -0.6151   -1.9936    0.2378 C   0  0  0  0  0  0  0  0  0  0  0  0
  1  2  1  0
  1  3  1  0
  1  7  1  0
  2  6  2  0
  3  4  1  0
  3  5  1  0
  4  6  1  0
M  END
>  <PUBCHEM_COMPOUND_CID>  (1) 
21996

>  <PUBCHEM_CONFORMER_RMSD>  (1) 
0.4

>  <PUBCHEM_CONFORMER_DIVERSEORDER>  (1) 
1
2

>  <PUBCHEM_MMFF94_PARTIAL_CHARGES>  (1) 
7
1 -0.49
14 0.06
2 -0.5
3 0.27
4 0.06
6 0.33
7 0.27

>  <PUBCHEM_EFFECTIVE_ROTOR_COUNT>  (1) 
0.6

>  <PUBCHEM_PHARMACOPHORE_FEATURES>  (1) 
2
1 2 acceptor
5 1 2 3 4 6 rings

>  <PUBCHEM_HEAVY_ATOM_COUNT>  (1) 
7

>  <PUBCHEM_ATOM_DEF_STEREO_COUNT>  (1) 
0

>  <PUBCHEM_ATOM_UDEF_STEREO_COUNT>  (1) 
1

>  <PUBCHEM_BOND_DEF_STEREO_COUNT>  (1) 
0

>  <PUBCHEM_BOND_UDEF_STEREO_COUNT>  (1) 
0

>  <PUBCHEM_ISOTOPIC_ATOM_COUNT>  (1) 
0

>  <PUBCHEM_COMPONENT_COUNT>  (1) 
1

>  <PUBCHEM_CACTVS_TAUTO_COUNT>  (1) 
1

>  <PUBCHEM_CONFORMER_ID>  (1) 
000055EC00000001

>  <PUBCHEM_MMFF94_ENERGY>  (1) 
9.3315

>  <PUBCHEM_FEATURE_SELFOVERLAP>  (1) 
10.148

>  <PUBCHEM_SHAPE_FINGERPRINT>  (1) 
18185500 45 17547850755140531879
20096714 4 18411418401502425405
21040471 1 18410291423590459456
29004967 10 18048043973577833401
5943 1 16681249139169344369

>  <PUBCHEM_SHAPE_MULTIPOLES>  (1) 
134.09
1.94
1.84
0.66
0.14
0.23
-0.02
-0.15
0.08
-0.73
-0.01
-0.04
-0.04
0.22

>  <PUBCHEM_SHAPE_SELFOVERLAP>  (1) 
260.453

>  <PUBCHEM_SHAPE_VOLUME>  (1) 
84.5

>  <PUBCHEM_COORDINATE_TYPE>  (1) 
2
5
10

$$$$
