21994
     RDKit          3D

 23 25  0  0  0  0  0  0  0  0999 V2000
   -3.6778    0.2021   -0.0276 O   0  0  0  0  0  0  0  0  0  0  0  0
    3.7951    2.8494    1.2470 O   0  0  0  0  0  0  0  0  0  0  0  0
    3.9082    3.0423   -1.0056 O   0  0  0  0  0  0  0  0  0  0  0  0
   -7.1348    0.7140   -0.0082 O   0  0  0  0  0  0  0  0  0  0  0  0
   -5.4470    2.1208   -0.1094 O   0  0  0  0  0  0  0  0  0  0  0  0
    1.2580   -1.1574   -0.0267 N   0  0  0  0  0  0  0  0  0  0  0  0
   -5.8890    0.9368   -0.0381 N   0  0  0  0  0  0  0  0  0  0  0  0
    3.4177   -0.0883   -0.0235 C   0  0  0  0  0  0  0  0  0  0  0  0
    2.6020   -1.2392   -0.0264 C   0  0  0  0  0  0  0  0  0  0  0  0
    2.7905    1.1649   -0.0209 C   0  0  0  0  0  0  0  0  0  0  0  0
    0.6919    0.0712   -0.0242 C   0  0  0  0  0  0  0  0  0  0  0  0
    1.4058    1.2524   -0.0213 C   0  0  0  0  0  0  0  0  0  0  0  0
    4.8176   -0.2106   -0.0231 C   0  0  0  0  0  0  0  0  0  0  0  0
    3.2256   -2.4838   -0.0288 C   0  0  0  0  0  0  0  0  0  0  0  0
   -0.7618    0.0997   -0.0249 C   0  0  0  0  0  0  0  0  0  0  0  0
    5.4147   -1.4679   -0.0257 C   0  0  0  0  0  0  0  0  0  0  0  0
    4.6174   -2.6057   -0.0286 C   0  0  0  0  0  0  0  0  0  0  0  0
   -3.0377   -0.9605    0.0286 C   0  0  0  0  0  0  0  0  0  0  0  0
   -1.5646   -0.9905    0.0097 C   0  0  0  0  0  0  0  0  0  0  0  0
    3.5377    2.4191   -0.0178 C   0  0  0  0  0  0  0  0  0  0  0  0
   -3.8332   -2.0366    0.0992 C   0  0  0  0  0  0  0  0  0  0  0  0
   -4.9940   -0.1335    0.0090 C   0  0  0  0  0  0  0  0  0  0  0  0
   -5.1423   -1.4988    0.0871 C   0  0  0  0  0  0  0  0  0  0  0  0
  1 18  1  0
  1 22  1  0
  2 20  1  0
  3 20  2  0
  4  7  1  0
  5  7  2  0
  6  9  2  0
  6 11  1  0
  7 22  1  0
  8  9  1  0
  8 10  2  0
  8 13  1  0
  9 14  1  0
 10 12  1  0
 10 20  1  0
 11 12  2  0
 11 15  1  0
 13 16  2  0
 14 17  2  0
 15 19  2  0
 16 17  1  0
 18 19  1  0
 18 21  2  0
 21 23  1  0
 22 23  2  0
M  CHG  2   4  -1   7   1
M  END
>  <PUBCHEM_COMPOUND_CID>  (1) 
21994

>  <PUBCHEM_CONFORMER_RMSD>  (1) 
0.6

>  <PUBCHEM_CONFORMER_DIVERSEORDER>  (1) 
1
4
3
7
2
5
6

>  <PUBCHEM_MMFF94_PARTIAL_CHARGES>  (1) 
32
1 -0.28
10 0.09
11 0.34
12 -0.15
13 -0.15
14 -0.15
15 -0.18
16 -0.15
17 -0.15
18 0.09
19 -0.11
2 -0.65
20 0.63
21 -0.15
22 0.22
23 -0.15
24 0.15
25 0.15
26 0.15
27 0.15
28 0.15
29 0.15
3 -0.57
30 0.15
31 0.15
32 0.15
33 0.5
4 -0.52
5 -0.52
6 -0.62
7 0.96
9 0.31

>  <PUBCHEM_EFFECTIVE_ROTOR_COUNT>  (1) 
4

>  <PUBCHEM_PHARMACOPHORE_FEATURES>  (1) 
11
1 1 acceptor
1 2 acceptor
1 3 acceptor
1 4 acceptor
1 4 anion
1 5 acceptor
1 6 acceptor
3 2 3 20 anion
5 1 18 21 22 23 rings
6 6 8 9 10 11 12 rings
6 8 9 13 14 16 17 rings

>  <PUBCHEM_HEAVY_ATOM_COUNT>  (1) 
23

>  <PUBCHEM_ATOM_DEF_STEREO_COUNT>  (1) 
0

>  <PUBCHEM_ATOM_UDEF_STEREO_COUNT>  (1) 
0

>  <PUBCHEM_BOND_DEF_STEREO_COUNT>  (1) 
0

>  <PUBCHEM_BOND_UDEF_STEREO_COUNT>  (1) 
1

>  <PUBCHEM_ISOTOPIC_ATOM_COUNT>  (1) 
0

>  <PUBCHEM_COMPONENT_COUNT>  (1) 
1

>  <PUBCHEM_CACTVS_TAUTO_COUNT>  (1) 
1

>  <PUBCHEM_CONFORMER_ID>  (1) 
000055EA00000001

>  <PUBCHEM_MMFF94_ENERGY>  (1) 
69.1062

>  <PUBCHEM_FEATURE_SELFOVERLAP>  (1) 
56.007

>  <PUBCHEM_SHAPE_FINGERPRINT>  (1) 
10411042 1 18122344567849201982
10595046 47 18340485690070772047
11405975 8 18409167710149037875
12107183 9 18052825741146585947
12236239 1 17989767804105752367
12616971 3 18060414742068552663
12730499 353 18193286401890807218
13073987 5 18339926021535499499
13167372 99 18272375213980405729
13167823 11 18412261770203360223
13533116 47 18341614832071021355
13785724 45 17982458092344779662
13878862 14 18338778075155832261
13955234 65 18340768247479397050
14170010 4 18411979161818857568
14341114 176 18410578357591799239
14790565 3 17687471582301970604
15183329 4 18410856521486360851
15196674 1 18410293648815938031
17844677 252 18410019848998513419
1813 80 16515400794153559263
20281389 69 18334013874757161461
20554085 129 17772748515205829408
20612939 158 18410298020707588512
20645477 70 18335700581033131826
20832881 197 18188772738939297858
21033648 29 17458612407450773245
21065198 57 18409449215164288507
21267235 1 18411708668287987306
21315759 148 17749683994710744011
21315764 268 18408318878946820965
21452121 103 18340197596575715320
21859007 373 17751622291902999109
23559900 14 18341889675613322682
239999 70 18412830183645364966
29717793 49 17846502521332724839
3004659 81 18410009922907112426
335352 9 18410575063510535422
3411729 13 18336260262880457544
3421961 26 18410853261806682226
350125 39 18409730651681446508
4073 2 18041284369158365706
4214541 1 18410293597429369743
5104073 3 18409450314802355275
633830 44 18187639245377229739
67856867 119 18342735251789556850
77779 3 18409730694578280815
8272917 22 18410858793655909910
90127 26 18186526522724963467
9709674 26 18189620608264493379
9971528 1 18040435524748739845
9995097 60 18410570669684644581

>  <PUBCHEM_SHAPE_MULTIPOLES>  (1) 
434.02
15.72
3.02
0.68
21.82
1.15
-0.03
0.75
0.06
-3.78
-0.02
-0.37
0.22
0.21

>  <PUBCHEM_SHAPE_SELFOVERLAP>  (1) 
964.74

>  <PUBCHEM_SHAPE_VOLUME>  (1) 
231.3

>  <PUBCHEM_COORDINATE_TYPE>  (1) 
2
5
10

$$$$
