22008
     RDKit          3D

 17 19  0  0  0  0  0  0  0  0999 V2000
    0.2321   -1.3270   -0.2528 N   0  0  0  0  0  0  0  0  0  0  0  0
   -0.1649    2.8404   -0.1148 N   0  0  0  0  0  0  0  0  0  0  0  0
   -3.4930    0.9031    0.6268 C   0  0  0  0  0  0  0  0  0  0  0  0
   -4.1308   -0.4761    0.4646 C   0  0  0  0  0  0  0  0  0  0  0  0
   -2.5273    1.2769   -0.4979 C   0  0  0  0  0  0  0  0  0  0  0  0
   -3.1558   -1.6498    0.5512 C   0  0  0  0  0  0  0  0  0  0  0  0
   -1.1754    0.6349   -0.3501 C   0  0  0  0  0  0  0  0  0  0  0  0
   -2.1407   -1.6924   -0.5897 C   0  0  0  0  0  0  0  0  0  0  0  0
   -0.9885   -0.7440   -0.3902 C   0  0  0  0  0  0  0  0  0  0  0  0
   -0.0383    1.4263   -0.1666 C   0  0  0  0  0  0  0  0  0  0  0  0
    1.2281    0.8461   -0.0240 C   0  0  0  0  0  0  0  0  0  0  0  0
    1.3184   -0.5550   -0.0733 C   0  0  0  0  0  0  0  0  0  0  0  0
    2.5748   -1.1379    0.0689 C   0  0  0  0  0  0  0  0  0  0  0  0
    2.3825    1.6263    0.1642 C   0  0  0  0  0  0  0  0  0  0  0  0
    3.7234   -0.3651    0.2560 C   0  0  0  0  0  0  0  0  0  0  0  0
    3.6274    1.0199    0.3038 C   0  0  0  0  0  0  0  0  0  0  0  0
    2.7279   -2.6266    0.0240 C   0  0  0  0  0  0  0  0  0  0  0  0
  1  9  2  0
  1 12  1  0
  2 10  1  0
  3  4  1  0
  3  5  1  0
  4  6  1  0
  5  7  1  0
  6  8  1  0
  7  9  1  0
  7 10  2  0
  8  9  1  0
 10 11  1  0
 11 12  2  0
 11 14  1  0
 12 13  1  0
 13 15  2  0
 13 17  1  0
 14 16  2  0
 15 16  1  0
M  END
>  <PUBCHEM_COMPOUND_CID>  (1) 
22008

>  <PUBCHEM_CONFORMER_RMSD>  (1) 
0.6

>  <PUBCHEM_CONFORMER_DIVERSEORDER>  (1) 
2
1

>  <PUBCHEM_MMFF94_PARTIAL_CHARGES>  (1) 
18
1 -0.62
10 0.1
12 0.31
13 -0.14
14 -0.15
15 -0.15
16 -0.15
17 0.14
2 -0.9
28 0.15
29 0.4
30 0.4
31 0.15
32 0.15
5 0.14
7 -0.14
8 0.14
9 0.17

>  <PUBCHEM_EFFECTIVE_ROTOR_COUNT>  (1) 
1

>  <PUBCHEM_PHARMACOPHORE_FEATURES>  (1) 
6
1 1 acceptor
1 2 cation
1 2 donor
6 1 7 9 10 11 12 rings
6 11 12 13 14 15 16 rings
7 3 4 5 6 7 8 9 rings

>  <PUBCHEM_HEAVY_ATOM_COUNT>  (1) 
17

>  <PUBCHEM_ATOM_DEF_STEREO_COUNT>  (1) 
0

>  <PUBCHEM_ATOM_UDEF_STEREO_COUNT>  (1) 
0

>  <PUBCHEM_BOND_DEF_STEREO_COUNT>  (1) 
0

>  <PUBCHEM_BOND_UDEF_STEREO_COUNT>  (1) 
0

>  <PUBCHEM_ISOTOPIC_ATOM_COUNT>  (1) 
0

>  <PUBCHEM_COMPONENT_COUNT>  (1) 
1

>  <PUBCHEM_CACTVS_TAUTO_COUNT>  (1) 
5

>  <PUBCHEM_CONFORMER_ID>  (1) 
000055F800000002

>  <PUBCHEM_MMFF94_ENERGY>  (1) 
62.531

>  <PUBCHEM_FEATURE_SELFOVERLAP>  (1) 
30.486

>  <PUBCHEM_SHAPE_FINGERPRINT>  (1) 
10608611 8 18410006615724421437
10616163 171 18339364187625196294
10967382 1 18411135840025492022
10980938 120 18411139160098489314
1100329 8 15167705597706308083
11132069 177 18411131459048086857
11471102 20 18411131467780355342
11680986 33 18339355245814035182
12032990 46 18409452466116538246
12251169 10 18341334469860202771
12382932 28 18413107255726144049
12553582 1 18410567371234456094
13132413 78 18342178916059722269
13140716 1 18339077094830937850
13221675 6 18410009957192991014
13296908 3 18335419041120039883
13380535 21 18411422808328573894
14144814 61 18411418427430367843
14178342 30 18054492875557528290
14223421 5 18338231566341909556
14790565 3 18048889781614795212
15042514 8 17401203375018294522
15196674 1 18410855464433685113
15219456 202 18410571768969483959
15375462 189 18187361013031957290
15442244 35 18268712718656054290
15536298 74 18343585148661017502
16945 1 18267015055733739644
17804303 29 18267029344937251542
17834074 16 18410294704945376219
17844478 74 18113617867689799509
1813 80 17385448712746080852
19591789 44 18339364183757386518
200 152 18130778010822063311
20645477 70 18340475682412006767
21267235 1 18410865372949994014
21421861 104 18042400232122055858
21501502 16 18411978087275355646
221490 88 18408891707092784322
22445834 79 18340490087884992499
2334 1 18410851100794495742
23463225 33 18410293618302761156
23559900 14 18266171734969223546
2748010 2 18411410704978845700
335352 9 18050566240124151445
34934 24 18410284813614451575
5104073 3 18410854347747483346
53812653 166 18271803570569961536
69090 78 18341608214096286215
7364860 26 18341050821587972244
84936 31 15912209672527417831
8809292 202 18262241010384440363
9709674 26 18409171025579356339

>  <PUBCHEM_SHAPE_MULTIPOLES>  (1) 
339.89
6.82
2.53
0.73
1.12
0.03
0.01
1.21
1.38
-0.59
-0.08
0.26
0.03
0.14

>  <PUBCHEM_SHAPE_SELFOVERLAP>  (1) 
742.149

>  <PUBCHEM_SHAPE_VOLUME>  (1) 
183.4

>  <PUBCHEM_COORDINATE_TYPE>  (1) 
2
5
10

$$$$
