22002
     RDKit          3D

 17 19  0  0  0  0  0  0  0  0999 V2000
    2.8128   -2.8317   -0.0121 Cl  0  0  0  0  0  0  0  0  0  0  0  0
   -0.1651    2.7378    0.1148 O   0  0  0  0  0  0  0  0  0  0  0  0
    0.2219   -1.2787    0.2573 N   0  0  0  0  0  0  0  0  0  0  0  0
   -4.1766   -0.5017   -0.4787 C   0  0  0  0  0  0  0  0  0  0  0  0
   -3.1875   -1.6637   -0.5573 C   0  0  0  0  0  0  0  0  0  0  0  0
   -3.5580    0.8876   -0.6251 C   0  0  0  0  0  0  0  0  0  0  0  0
   -2.1700   -1.6911    0.5850 C   0  0  0  0  0  0  0  0  0  0  0  0
   -2.5966    1.2613    0.5044 C   0  0  0  0  0  0  0  0  0  0  0  0
   -1.0287   -0.7152    0.3970 C   0  0  0  0  0  0  0  0  0  0  0  0
   -1.2417    0.6183    0.3644 C   0  0  0  0  0  0  0  0  0  0  0  0
   -0.0538    1.5183    0.1626 C   0  0  0  0  0  0  0  0  0  0  0  0
    1.3742   -0.5114    0.0690 C   0  0  0  0  0  0  0  0  0  0  0  0
    1.2806    0.8857    0.0172 C   0  0  0  0  0  0  0  0  0  0  0  0
    2.6296   -1.1136   -0.0680 C   0  0  0  0  0  0  0  0  0  0  0  0
    2.4217    1.6718   -0.1699 C   0  0  0  0  0  0  0  0  0  0  0  0
    3.7706   -0.3316   -0.2549 C   0  0  0  0  0  0  0  0  0  0  0  0
    3.6664    1.0578   -0.3057 C   0  0  0  0  0  0  0  0  0  0  0  0
  1 14  1  0
  2 11  2  0
  3  9  1  0
  3 12  1  0
  4  5  1  0
  4  6  1  0
  5  7  1  0
  6  8  1  0
  7  9  1  0
  8 10  1  0
  9 10  2  0
 10 11  1  0
 11 13  1  0
 12 13  2  0
 12 14  1  0
 13 15  1  0
 14 16  2  0
 15 17  2  0
 16 17  1  0
M  END
>  <PUBCHEM_COMPOUND_CID>  (1) 
22002

>  <PUBCHEM_CONFORMER_RMSD>  (1) 
0.6

>  <PUBCHEM_CONFORMER_DIVERSEORDER>  (1) 
2
1

>  <PUBCHEM_MMFF94_PARTIAL_CHARGES>  (1) 
18
1 -0.18
10 -0.12
11 0.47
12 0.1
13 0.09
14 0.18
15 -0.15
16 -0.15
17 -0.15
2 -0.57
28 0.4
29 0.15
3 -0.6
30 0.15
31 0.15
7 0.14
8 0.14
9 -0.04

>  <PUBCHEM_EFFECTIVE_ROTOR_COUNT>  (1) 
1

>  <PUBCHEM_PHARMACOPHORE_FEATURES>  (1) 
6
1 2 acceptor
1 3 cation
1 3 donor
6 12 13 14 15 16 17 rings
6 3 9 10 11 12 13 rings
7 4 5 6 7 8 9 10 rings

>  <PUBCHEM_HEAVY_ATOM_COUNT>  (1) 
17

>  <PUBCHEM_ATOM_DEF_STEREO_COUNT>  (1) 
0

>  <PUBCHEM_ATOM_UDEF_STEREO_COUNT>  (1) 
0

>  <PUBCHEM_BOND_DEF_STEREO_COUNT>  (1) 
0

>  <PUBCHEM_BOND_UDEF_STEREO_COUNT>  (1) 
0

>  <PUBCHEM_ISOTOPIC_ATOM_COUNT>  (1) 
0

>  <PUBCHEM_COMPONENT_COUNT>  (1) 
1

>  <PUBCHEM_CACTVS_TAUTO_COUNT>  (1) 
12

>  <PUBCHEM_CONFORMER_ID>  (1) 
000055F200000002

>  <PUBCHEM_MMFF94_ENERGY>  (1) 
42.1598

>  <PUBCHEM_FEATURE_SELFOVERLAP>  (1) 
30.477

>  <PUBCHEM_SHAPE_FINGERPRINT>  (1) 
10062212 137 18271800182078076743
10608611 8 18336263534801478997
10616163 171 18342460343707442319
10967382 1 18410295808883853114
11132069 177 18411132541443220472
11471102 20 18409448111431150324
116883 192 18126004862709335678
12553582 1 18194413203509089074
13140716 1 18338241466004377874
13583140 156 13973116472051088486
14576447 43 18271516610993919127
15196674 1 18410575093258307765
15442244 35 18194966244898845642
15536298 74 18342739615645043498
16945 1 18337963268409330616
17492 89 18411418384592426103
18186145 218 17749385932227502519
19591789 44 15596407345992208345
200 152 18131349730217760623
20645477 70 18413672404645253606
21267235 1 18411429409503780431
21501502 16 18340773637156749466
21634736 98 18411420592173019502
221490 88 18264775535031327419
2334 1 18410298050751273682
23402539 116 18411130334146418028
23402655 69 18410854343669079005
23463225 33 18411702058412069806
23559900 14 18340199705420319250
2748010 2 18338243772607290352
2871803 45 18410857676753422822
335352 9 18050288063698161293
34934 24 18411412921261188874
5104073 3 18410856559671458563
7364860 26 18126282179989184505
81228 2 18263650575854393056
8809292 202 18189338034018481731
9709674 26 18410016532920264182

>  <PUBCHEM_SHAPE_MULTIPOLES>  (1) 
340.87
7.07
2.61
0.74
1.25
0.38
-0.01
1.32
-1.41
-0.91
0.07
0.26
0.04
-0.18

>  <PUBCHEM_SHAPE_SELFOVERLAP>  (1) 
731.67

>  <PUBCHEM_SHAPE_VOLUME>  (1) 
187.1

>  <PUBCHEM_COORDINATE_TYPE>  (1) 
2
5
10

$$$$
