22009
     RDKit          3D

 17 19  0  0  0  0  0  0  0  0999 V2000
    2.7923   -2.8155    0.0205 Cl  0  0  0  0  0  0  0  0  0  0  0  0
    0.2444   -1.3108   -0.2522 N   0  0  0  0  0  0  0  0  0  0  0  0
   -0.1980    2.8522   -0.1154 N   0  0  0  0  0  0  0  0  0  0  0  0
   -3.5050    0.8787    0.6265 C   0  0  0  0  0  0  0  0  0  0  0  0
   -4.1276   -0.5074    0.4645 C   0  0  0  0  0  0  0  0  0  0  0  0
   -2.5433    1.2628   -0.4982 C   0  0  0  0  0  0  0  0  0  0  0  0
   -3.1399   -1.6704    0.5514 C   0  0  0  0  0  0  0  0  0  0  0  0
   -1.1844    0.6356   -0.3501 C   0  0  0  0  0  0  0  0  0  0  0  0
   -2.1243   -1.7021   -0.5894 C   0  0  0  0  0  0  0  0  0  0  0  0
   -0.9825   -0.7411   -0.3899 C   0  0  0  0  0  0  0  0  0  0  0  0
   -0.0561    1.4394   -0.1666 C   0  0  0  0  0  0  0  0  0  0  0  0
    1.2166    0.8732   -0.0237 C   0  0  0  0  0  0  0  0  0  0  0  0
    1.3221   -0.5270   -0.0727 C   0  0  0  0  0  0  0  0  0  0  0  0
    2.3623    1.6659    0.1644 C   0  0  0  0  0  0  0  0  0  0  0  0
    2.5848   -1.0960    0.0698 C   0  0  0  0  0  0  0  0  0  0  0  0
    3.6138    1.0732    0.3043 C   0  0  0  0  0  0  0  0  0  0  0  0
    3.7249   -0.3107    0.2568 C   0  0  0  0  0  0  0  0  0  0  0  0
  1 15  1  0
  2 10  2  0
  2 13  1  0
  3 11  1  0
  4  5  1  0
  4  6  1  0
  5  7  1  0
  6  8  1  0
  7  9  1  0
  8 10  1  0
  8 11  2  0
  9 10  1  0
 11 12  1  0
 12 13  2  0
 12 14  1  0
 13 15  1  0
 14 16  2  0
 15 17  2  0
 16 17  1  0
M  END
>  <PUBCHEM_COMPOUND_CID>  (1) 
22009

>  <PUBCHEM_CONFORMER_RMSD>  (1) 
0.6

>  <PUBCHEM_CONFORMER_DIVERSEORDER>  (1) 
2
1

>  <PUBCHEM_MMFF94_PARTIAL_CHARGES>  (1) 
18
1 -0.18
10 0.17
11 0.1
13 0.31
14 -0.15
15 0.18
16 -0.15
17 -0.15
2 -0.62
28 0.15
29 0.4
3 -0.9
30 0.4
31 0.15
32 0.15
6 0.14
8 -0.14
9 0.14

>  <PUBCHEM_EFFECTIVE_ROTOR_COUNT>  (1) 
1

>  <PUBCHEM_PHARMACOPHORE_FEATURES>  (1) 
6
1 2 acceptor
1 3 cation
1 3 donor
6 12 13 14 15 16 17 rings
6 2 8 10 11 12 13 rings
7 4 5 6 7 8 9 10 rings

>  <PUBCHEM_HEAVY_ATOM_COUNT>  (1) 
17

>  <PUBCHEM_ATOM_DEF_STEREO_COUNT>  (1) 
0

>  <PUBCHEM_ATOM_UDEF_STEREO_COUNT>  (1) 
0

>  <PUBCHEM_BOND_DEF_STEREO_COUNT>  (1) 
0

>  <PUBCHEM_BOND_UDEF_STEREO_COUNT>  (1) 
0

>  <PUBCHEM_ISOTOPIC_ATOM_COUNT>  (1) 
0

>  <PUBCHEM_COMPONENT_COUNT>  (1) 
1

>  <PUBCHEM_CACTVS_TAUTO_COUNT>  (1) 
8

>  <PUBCHEM_CONFORMER_ID>  (1) 
000055F900000002

>  <PUBCHEM_MMFF94_ENERGY>  (1) 
60.5984

>  <PUBCHEM_FEATURE_SELFOVERLAP>  (1) 
30.486

>  <PUBCHEM_SHAPE_FINGERPRINT>  (1) 
10608611 8 18410288095006655389
10616163 171 18339082712674898366
10967382 1 18411135844325747070
10980938 120 18411139164398737866
1100329 8 15167706697170560539
11132069 177 18410849988371637729
11471102 20 18411131467775061102
11680986 33 18339073770816219022
12032990 46 18409452466116525254
12251169 10 18341054103032507779
12382932 28 18413107255752537297
12553582 1 18410567375550528878
13132413 78 18342460395336687957
13140716 1 18339358569791856722
13221675 6 18409728486495390918
13296908 3 18335419041120065859
13380535 21 18411140233840241958
14144814 61 18411417332224237371
14178342 30 18054774350550121642
14223421 5 18337950091365179382
14790565 3 18049171252307068588
15042514 8 17473260973330084250
15196674 1 18410855468728658897
15219456 202 18410571764674523159
15375462 189 18187079546597604522
15442244 35 18268431239405494834
15536298 74 18343585148650467998
16945 1 18267295448431497692
17804303 29 18194971746604356310
17834074 16 18410294704919028435
17844478 74 18113617876290303093
1813 80 17385449812262963900
19591789 44 18339364183762667758
200 152 18059001891755577775
20645477 70 18339630162249403015
21267235 1 18410865377244941822
21421861 104 18115020780429490882
21501502 16 18412259566541739358
221490 88 18336552633783184922
22445834 79 18340770463334257619
2334 1 18410851105100025518
23463225 33 18410293622608297460
23559900 14 18266171739248340602
2748010 2 18411410709273825988
335352 9 18050566240129432701
34934 24 18410284813614458079
5104073 3 18410854352037169394
53812653 166 18271803574828031544
69090 78 18341889693362689415
7364860 26 18342457011329674670
84936 31 15912209672506305831
8809292 202 18262242105606375579
9709674 26 18408888446864609410

>  <PUBCHEM_SHAPE_MULTIPOLES>  (1) 
341.76
6.84
2.64
0.73
1.18
0.25
0.01
1.33
1.36
-0.85
-0.07
0.25
0.04
0.17

>  <PUBCHEM_SHAPE_SELFOVERLAP>  (1) 
738.71

>  <PUBCHEM_SHAPE_VOLUME>  (1) 
185.5

>  <PUBCHEM_COORDINATE_TYPE>  (1) 
2
5
10

$$$$
