22006
     RDKit          3D

 16 18  0  0  0  0  0  0  0  0999 V2000
    0.2364   -1.5272   -0.2465 N   0  0  0  0  0  0  0  0  0  0  0  0
    0.2998    2.6593   -0.1216 N   0  0  0  0  0  0  0  0  0  0  0  0
   -3.2215    1.1017    0.6228 C   0  0  0  0  0  0  0  0  0  0  0  0
   -4.0070   -0.1994    0.4641 C   0  0  0  0  0  0  0  0  0  0  0  0
   -2.2198    1.3636   -0.5020 C   0  0  0  0  0  0  0  0  0  0  0  0
   -3.1670   -1.4730    0.5551 C   0  0  0  0  0  0  0  0  0  0  0  0
   -0.9468    0.5773   -0.3510 C   0  0  0  0  0  0  0  0  0  0  0  0
   -2.1620   -1.6304   -0.5847 C   0  0  0  0  0  0  0  0  0  0  0  0
   -0.9127   -0.8139   -0.3868 C   0  0  0  0  0  0  0  0  0  0  0  0
    0.2703    1.2394   -0.1686 C   0  0  0  0  0  0  0  0  0  0  0  0
    1.4652    0.5239   -0.0231 C   0  0  0  0  0  0  0  0  0  0  0  0
    1.4008   -0.8788   -0.0681 C   0  0  0  0  0  0  0  0  0  0  0  0
    2.6982    1.1730    0.1639 C   0  0  0  0  0  0  0  0  0  0  0  0
    2.5854   -1.5959    0.0771 C   0  0  0  0  0  0  0  0  0  0  0  0
    3.8688    0.4338    0.3066 C   0  0  0  0  0  0  0  0  0  0  0  0
    3.8119   -0.9535    0.2630 C   0  0  0  0  0  0  0  0  0  0  0  0
  1  9  2  0
  1 12  1  0
  2 10  1  0
  3  4  1  0
  3  5  1  0
  4  6  1  0
  5  7  1  0
  6  8  1  0
  7  9  1  0
  7 10  2  0
  8  9  1  0
 10 11  1  0
 11 12  2  0
 11 13  1  0
 12 14  1  0
 13 15  2  0
 14 16  2  0
 15 16  1  0
M  END
>  <PUBCHEM_COMPOUND_CID>  (1) 
22006

>  <PUBCHEM_CONFORMER_RMSD>  (1) 
0.6

>  <PUBCHEM_CONFORMER_DIVERSEORDER>  (1) 
2
1

>  <PUBCHEM_MMFF94_PARTIAL_CHARGES>  (1) 
18
1 -0.62
10 0.1
12 0.31
13 -0.15
14 -0.15
15 -0.15
16 -0.15
2 -0.9
27 0.15
28 0.4
29 0.4
30 0.15
31 0.15
32 0.15
5 0.14
7 -0.14
8 0.14
9 0.17

>  <PUBCHEM_EFFECTIVE_ROTOR_COUNT>  (1) 
1

>  <PUBCHEM_PHARMACOPHORE_FEATURES>  (1) 
6
1 1 acceptor
1 2 cation
1 2 donor
6 1 7 9 10 11 12 rings
6 11 12 13 14 15 16 rings
7 3 4 5 6 7 8 9 rings

>  <PUBCHEM_HEAVY_ATOM_COUNT>  (1) 
16

>  <PUBCHEM_ATOM_DEF_STEREO_COUNT>  (1) 
0

>  <PUBCHEM_ATOM_UDEF_STEREO_COUNT>  (1) 
0

>  <PUBCHEM_BOND_DEF_STEREO_COUNT>  (1) 
0

>  <PUBCHEM_BOND_UDEF_STEREO_COUNT>  (1) 
0

>  <PUBCHEM_ISOTOPIC_ATOM_COUNT>  (1) 
0

>  <PUBCHEM_COMPONENT_COUNT>  (1) 
1

>  <PUBCHEM_CACTVS_TAUTO_COUNT>  (1) 
5

>  <PUBCHEM_CONFORMER_ID>  (1) 
000055F600000002

>  <PUBCHEM_MMFF94_ENERGY>  (1) 
58.9817

>  <PUBCHEM_FEATURE_SELFOVERLAP>  (1) 
30.486

>  <PUBCHEM_SHAPE_FINGERPRINT>  (1) 
10608611 8 18411132515641839500
10967382 1 18411135809944942174
11132069 177 18410851062092206800
11471102 20 18410568504841863846
12032990 46 18409733937014682854
12251169 10 18412268358819751203
12382932 28 18341049627323138041
12696612 119 18338521936058798805
13132413 78 18341896328522997117
13140716 1 18339074900313555266
13214271 11 18412538803845672702
13221675 6 18409165523657178118
13296908 3 18408602543813013574
13581323 91 18334013878197287716
14144814 61 18411699898033002923
14790565 3 18048608306733036620
15196674 1 18410855460133449563
15219456 202 18341895156128599310
15309172 13 18272089392122199391
15375462 189 18114458976963194986
15442244 35 18412265016865657528
15536298 74 18343584049270683030
16945 1 18194677300768136046
17804303 29 18413113848437555412
17844478 74 18040998410224884405
19422 9 18333736839879589216
200 152 18130775790260654775
20510252 161 18272088236628303993
21267235 1 18410865360086230094
21501502 16 18338517546470281991
2334 1 18410851092341730662
23402539 116 18272357655494417830
23463225 33 18409167714275005068
23559900 14 18267016147183382110
2748010 2 18411692171513321302
335352 9 18050848819039338974
34934 24 18336537240139860859
5104073 3 18410855455864863482
53812653 166 18272085028414197840
69090 78 18342452626062421015
7364860 26 18196091264253314732
84936 31 15983703221569421726
8809292 202 18260553315912596691

>  <PUBCHEM_SHAPE_MULTIPOLES>  (1) 
319.31
6.76
2.13
0.74
0.41
0.43
0.01
-1.02
1.48
-0.21
-0.11
-0.25
-0.03
-0.01

>  <PUBCHEM_SHAPE_SELFOVERLAP>  (1) 
699.1

>  <PUBCHEM_SHAPE_VOLUME>  (1) 
171.2

>  <PUBCHEM_COORDINATE_TYPE>  (1) 
2
5
10

$$$$
