22014
     RDKit          3D

 20 24  0  0  0  0  0  0  0  0999 V2000
    2.2555   -0.1137    0.0001 C   0  0  0  0  0  0  0  0  0  0  0  0
    2.0586   -1.4660    0.0000 C   0  0  0  0  0  0  0  0  0  0  0  0
    3.3555   -2.2194   -0.0002 C   0  0  0  0  0  0  0  0  0  0  0  0
    4.4217   -1.0962   -0.0010 C   0  0  0  0  0  0  0  0  0  0  0  0
    3.6009    0.1594    0.0000 C   0  0  0  0  0  0  0  0  0  0  0  0
    1.2349    0.8430    0.0004 C   0  0  0  0  0  0  0  0  0  0  0  0
   -0.1094    0.3414    0.0003 C   0  0  0  0  0  0  0  0  0  0  0  0
   -0.3234   -1.0704    0.0003 C   0  0  0  0  0  0  0  0  0  0  0  0
    0.7685   -1.9626    0.0001 C   0  0  0  0  0  0  0  0  0  0  0  0
    4.0300    1.4738   -0.0001 C   0  0  0  0  0  0  0  0  0  0  0  0
    1.6910    2.1857    0.0004 C   0  0  0  0  0  0  0  0  0  0  0  0
   -1.2459    1.1797    0.0001 C   0  0  0  0  0  0  0  0  0  0  0  0
   -1.6335   -1.5757    0.0004 C   0  0  0  0  0  0  0  0  0  0  0  0
    3.0673    2.4894    0.0001 C   0  0  0  0  0  0  0  0  0  0  0  0
   -2.5558    0.6682   -0.0001 C   0  0  0  0  0  0  0  0  0  0  0  0
   -2.7514   -0.7275    0.0002 C   0  0  0  0  0  0  0  0  0  0  0  0
   -3.6751    1.5177   -0.0005 C   0  0  0  0  0  0  0  0  0  0  0  0
   -4.0601   -1.2393    0.0002 C   0  0  0  0  0  0  0  0  0  0  0  0
   -4.9686    0.9950   -0.0006 C   0  0  0  0  0  0  0  0  0  0  0  0
   -5.1608   -0.3825   -0.0002 C   0  0  0  0  0  0  0  0  0  0  0  0
  1  2  2  0
  1  5  1  0
  1  6  1  0
  2  3  1  0
  2  9  1  0
  3  4  1  0
  4  5  1  0
  5 10  2  0
  6  7  2  0
  6 11  1  0
  7  8  1  0
  7 12  1  0
  8  9  2  0
  8 13  1  0
 10 14  1  0
 11 14  2  0
 12 15  2  0
 13 16  2  0
 15 16  1  0
 15 17  1  0
 16 18  1  0
 17 19  2  0
 18 20  2  0
 19 20  1  0
M  END
>  <PUBCHEM_COMPOUND_CID>  (1) 
22014

>  <PUBCHEM_CONFORMER_RMSD>  (1) 
0.6

>  <PUBCHEM_CONFORMER_DIVERSEORDER>  (1) 
1

>  <PUBCHEM_MMFF94_PARTIAL_CHARGES>  (1) 
24
10 -0.15
11 -0.15
12 -0.15
13 -0.15
14 -0.15
17 -0.15
18 -0.15
19 -0.15
2 -0.14
20 -0.15
25 0.15
26 0.15
27 0.15
28 0.15
29 0.15
3 0.14
30 0.15
31 0.15
32 0.15
33 0.15
34 0.15
4 0.14
5 -0.14
9 -0.15

>  <PUBCHEM_EFFECTIVE_ROTOR_COUNT>  (1) 
0.4

>  <PUBCHEM_PHARMACOPHORE_FEATURES>  (1) 
5
5 1 2 3 4 5 rings
6 1 2 6 7 8 9 rings
6 1 5 6 10 11 14 rings
6 15 16 17 18 19 20 rings
6 7 8 12 13 15 16 rings

>  <PUBCHEM_HEAVY_ATOM_COUNT>  (1) 
20

>  <PUBCHEM_ATOM_DEF_STEREO_COUNT>  (1) 
0

>  <PUBCHEM_ATOM_UDEF_STEREO_COUNT>  (1) 
0

>  <PUBCHEM_BOND_DEF_STEREO_COUNT>  (1) 
0

>  <PUBCHEM_BOND_UDEF_STEREO_COUNT>  (1) 
0

>  <PUBCHEM_ISOTOPIC_ATOM_COUNT>  (1) 
0

>  <PUBCHEM_COMPONENT_COUNT>  (1) 
1

>  <PUBCHEM_CACTVS_TAUTO_COUNT>  (1) 
1

>  <PUBCHEM_CONFORMER_ID>  (1) 
000055FE00000001

>  <PUBCHEM_MMFF94_ENERGY>  (1) 
73.9947

>  <PUBCHEM_FEATURE_SELFOVERLAP>  (1) 
25.627

>  <PUBCHEM_SHAPE_FINGERPRINT>  (1) 
10411042 1 17978510837148168430
10608611 8 18409165519509916917
10616163 171 18268149940681004223
10967382 1 18410574032775964480
11471102 20 18410854360758991382
11578080 2 13769653099651683348
12107183 9 17836933295911887593
12236239 1 17847059973775421261
12403259 226 18335414608798479004
12403259 415 18113614556739597389
12788726 201 17632309946834277593
13140716 1 18337102458310898394
13167823 11 18413387644424366431
13675066 3 18113623399939765099
138480 1 18266741269002047046
14341114 176 18409738356836554977
14790565 3 17903363941743103940
14866123 147 17045990720067990986
15196674 1 18410573994026280807
15442244 35 18339925900791118464
15536298 74 18413389838730427532
1601671 61 18410857625250602006
16945 1 18194402427768088870
17492 89 18411701010583383855
1813 80 16950284009447993069
18186145 218 17821722832193927335
18681886 176 18273208703871060906
19591789 44 18410009944477147527
200 152 18131347505989086731
20028762 73 18273207595295427359
20645477 70 18341896277057080414
21033648 29 17458334222487849357
21065198 57 18409168805397268707
21267235 1 18411708659703282006
21452121 103 18341322379796355264
21709351 56 18411411787489933103
221490 88 18408611382734591027
22854114 111 18409167731328273668
23227448 37 18341330097504634407
23402539 116 18271799103856747303
23558518 356 17826795042779304202
23559900 14 18341328920720349362
3004659 81 18187934911780571766
335352 9 18338517426216531198
34934 24 18342452694776395572
350125 39 18410013217179008028
3545911 37 18410294739363234241
3886686 26 16316651625441240778
4214541 1 18410573955609140357
474 4 17895478149404966588
495365 180 17632005455538738256
5104073 3 18409731763924645339
543358 83 18411986832034407672
602551 16 15936987347690368075
633830 44 18187359943706503887
69090 78 18412260653500878495
7364860 26 18413108377145033932
77779 3 18410575089364234601
8272917 22 18341899575544458430
9709674 26 18409453617400375843
9981440 41 17761205922860724096

>  <PUBCHEM_SHAPE_MULTIPOLES>  (1) 
411.59
9.79
2.47
0.62
6.4
0.28
0
0.67
0
-1.85
0
0
0
0

>  <PUBCHEM_SHAPE_SELFOVERLAP>  (1) 
963.759

>  <PUBCHEM_SHAPE_VOLUME>  (1) 
190.2

>  <PUBCHEM_COORDINATE_TYPE>  (1) 
2
5
10

$$$$
