22019
     RDKit          3D

 33 36  0  0  0  0  0  0  0  0999 V2000
    1.5352    4.6387    0.5978 O   0  0  0  0  0  0  0  0  0  0  0  0
   -6.0813    2.1284   -0.0861 O   0  0  0  0  0  0  0  0  0  0  0  0
    0.5852   -1.7187    0.2769 N   0  0  0  0  0  0  0  0  0  0  0  0
    4.6015   -0.3047   -0.0315 N   0  0  0  0  0  0  0  0  0  0  0  0
    2.0279   -1.6344    0.3919 C   0  0  0  0  0  0  0  0  0  0  0  0
   -0.2716   -0.6510    0.2527 C   0  0  0  0  0  0  0  0  0  0  0  0
   -0.1206   -2.8963    0.1760 C   0  0  0  0  0  0  0  0  0  0  0  0
    2.7098   -1.5457   -0.9731 C   0  0  0  0  0  0  0  0  0  0  0  0
   -1.5526   -1.1387    0.1347 C   0  0  0  0  0  0  0  0  0  0  0  0
   -1.4727   -2.5586    0.0850 C   0  0  0  0  0  0  0  0  0  0  0  0
    4.2277   -1.4702   -0.8238 C   0  0  0  0  0  0  0  0  0  0  0  0
    0.1955    0.7185    0.3421 C   0  0  0  0  0  0  0  0  0  0  0  0
   -2.7174   -0.2977    0.0776 C   0  0  0  0  0  0  0  0  0  0  0  0
    0.3298   -4.2211    0.1586 C   0  0  0  0  0  0  0  0  0  0  0  0
   -2.4235   -3.5921   -0.0291 C   0  0  0  0  0  0  0  0  0  0  0  0
    5.9267   -0.4887    0.5630 C   0  0  0  0  0  0  0  0  0  0  0  0
    4.5780    0.9066   -0.8536 C   0  0  0  0  0  0  0  0  0  0  0  0
   -0.6317   -5.2293    0.0448 C   0  0  0  0  0  0  0  0  0  0  0  0
   -1.9877   -4.9219   -0.0476 C   0  0  0  0  0  0  0  0  0  0  0  0
    0.5144    1.4236   -0.8184 C   0  0  0  0  0  0  0  0  0  0  0  0
    0.3270    1.3308    1.5885 C   0  0  0  0  0  0  0  0  0  0  0  0
   -3.1896    0.1575   -1.1536 C   0  0  0  0  0  0  0  0  0  0  0  0
   -3.3754    0.0627    1.2534 C   0  0  0  0  0  0  0  0  0  0  0  0
    6.9954   -0.6221   -0.5086 C   0  0  0  0  0  0  0  0  0  0  0  0
    4.9014    2.1385   -0.0254 C   0  0  0  0  0  0  0  0  0  0  0  0
    0.9647    2.7410   -0.7326 C   0  0  0  0  0  0  0  0  0  0  0  0
    0.7773    2.6481    1.6745 C   0  0  0  0  0  0  0  0  0  0  0  0
   -4.3198    0.9730   -1.2086 C   0  0  0  0  0  0  0  0  0  0  0  0
   -4.5056    0.8782    1.1984 C   0  0  0  0  0  0  0  0  0  0  0  0
    1.0962    3.3532    0.5138 C   0  0  0  0  0  0  0  0  0  0  0  0
   -4.9778    1.3333   -0.0328 C   0  0  0  0  0  0  0  0  0  0  0  0
    1.8435    5.3010   -0.6277 C   0  0  0  0  0  0  0  0  0  0  0  0
   -6.5101    2.5582   -1.3773 C   0  0  0  0  0  0  0  0  0  0  0  0
  1 30  1  0
  1 32  1  0
  2 31  1  0
  2 33  1  0
  3  5  1  0
  3  6  1  0
  3  7  1  0
  4 11  1  0
  4 16  1  0
  4 17  1  0
  5  8  1  0
  6  9  2  0
  6 12  1  0
  7 10  2  0
  7 14  1  0
  8 11  1  0
  9 10  1  0
  9 13  1  0
 10 15  1  0
 12 20  2  0
 12 21  1  0
 13 22  2  0
 13 23  1  0
 14 18  2  0
 15 19  2  0
 16 24  1  0
 17 25  1  0
 18 19  1  0
 20 26  1  0
 21 27  2  0
 22 28  1  0
 23 29  2  0
 26 30  2  0
 27 30  1  0
 28 31  2  0
 29 31  1  0
M  END
>  <PUBCHEM_COMPOUND_CID>  (1) 
22019

>  <PUBCHEM_CONFORMER_RMSD>  (1) 
1

>  <PUBCHEM_CONFORMER_DIVERSEORDER>  (1) 
1
2
8
13
14
17
3
9
15
7
5
4
12
16
10
18
11
6

>  <PUBCHEM_MMFF94_PARTIAL_CHARGES>  (1) 
41
1 -0.36
11 0.27
12 0.05
13 0.05
14 -0.15
15 -0.15
16 0.27
17 0.27
18 -0.15
19 -0.15
2 -0.36
20 -0.15
21 -0.15
22 -0.15
23 -0.15
26 -0.15
27 -0.15
28 -0.15
29 -0.15
3 0.05
30 0.08
31 0.08
32 0.28
33 0.28
4 -0.81
40 0.15
41 0.15
46 0.15
47 0.15
48 0.15
49 0.15
5 0.26
50 0.15
51 0.15
58 0.15
59 0.15
6 -0.2
60 0.15
61 0.15
7 -0.15
9 -0.05

>  <PUBCHEM_EFFECTIVE_ROTOR_COUNT>  (1) 
10

>  <PUBCHEM_PHARMACOPHORE_FEATURES>  (1) 
8
1 1 acceptor
1 2 acceptor
1 3 cation
1 4 cation
5 3 6 7 9 10 rings
6 12 20 21 26 27 30 rings
6 13 22 23 28 29 31 rings
6 7 10 14 15 18 19 rings

>  <PUBCHEM_HEAVY_ATOM_COUNT>  (1) 
33

>  <PUBCHEM_ATOM_DEF_STEREO_COUNT>  (1) 
0

>  <PUBCHEM_ATOM_UDEF_STEREO_COUNT>  (1) 
0

>  <PUBCHEM_BOND_DEF_STEREO_COUNT>  (1) 
0

>  <PUBCHEM_BOND_UDEF_STEREO_COUNT>  (1) 
0

>  <PUBCHEM_ISOTOPIC_ATOM_COUNT>  (1) 
0

>  <PUBCHEM_COMPONENT_COUNT>  (1) 
1

>  <PUBCHEM_CACTVS_TAUTO_COUNT>  (1) 
1

>  <PUBCHEM_CONFORMER_ID>  (1) 
0000560300000001

>  <PUBCHEM_MMFF94_ENERGY>  (1) 
98.343

>  <PUBCHEM_FEATURE_SELFOVERLAP>  (1) 
40.689

>  <PUBCHEM_SHAPE_FINGERPRINT>  (1) 
10006869 2 18194110812073165366
10165383 225 18334576798708502005
10190108 129 17548739233566024491
102385 1 18050849124055895572
10675989 125 17977384932650283863
10930396 42 18196342911509856696
1100329 8 18411425050449280026
12058002 1 17486809378438677254
12788726 201 18189334585597554176
13642711 20 18193545671322173997
13911987 19 18264784176526645839
140371 6 18200893828338394820
14117953 113 18338802213435934092
14400156 413 17758664556837466541
14415360 78 18335684062578557637
14725015 67 18196925575268161682
14790565 3 18339649923304384273
14955137 171 18266200394874702483
15439362 3 18340480179074713809
18365409 1 16987696026923741855
20600515 1 18272105885028497356
20715895 44 18408603626440106588
22440779 20 16666878458186989450
23558518 356 17974004256274787987
23559900 14 17982445198567308354
283562 15 18054230930002769336
3178227 256 18339378400536726963
350125 39 18266465480709853043
38695281 34 18336828602511387463
9961470 85 18199459033893904192

>  <PUBCHEM_SHAPE_MULTIPOLES>  (1) 
657.42
11.86
6.91
1.19
3.41
2.31
-0.13
-6.37
3.03
-1.09
0.1
-0.51
-0.73
0.97

>  <PUBCHEM_SHAPE_SELFOVERLAP>  (1) 
1418.466

>  <PUBCHEM_SHAPE_VOLUME>  (1) 
366.7

>  <PUBCHEM_COORDINATE_TYPE>  (1) 
2
5
10

$$$$
