22015
     RDKit          3D

 10 10  0  0  0  0  0  0  0  0999 V2000
    2.2016    2.0787   -0.0003 O   0  0  0  0  0  0  0  0  0  0  0  0
    0.6096   -1.1689    0.0002 C   0  0  0  0  0  0  0  0  0  0  0  0
    0.7375    0.2200    0.0001 C   0  0  0  0  0  0  0  0  0  0  0  0
   -1.6683    0.4418    0.0000 C   0  0  0  0  0  0  0  0  0  0  0  0
   -0.4014    1.0254    0.0001 C   0  0  0  0  0  0  0  0  0  0  0  0
   -0.6573   -1.7526   -0.0001 C   0  0  0  0  0  0  0  0  0  0  0  0
   -1.7962   -0.9472   -0.0001 C   0  0  0  0  0  0  0  0  0  0  0  0
    1.8124   -2.0549   -0.0001 C   0  0  0  0  0  0  0  0  0  0  0  0
   -2.8863    1.3023    0.0000 C   0  0  0  0  0  0  0  0  0  0  0  0
    2.0484    0.8554    0.0002 C   0  0  0  0  0  0  0  0  0  0  0  0
  1 10  2  0
  2  3  2  0
  2  6  1  0
  2  8  1  0
  3  5  1  0
  3 10  1  0
  4  5  2  0
  4  7  1  0
  4  9  1  0
  6  7  2  0
M  END
>  <PUBCHEM_COMPOUND_CID>  (1) 
22015

>  <PUBCHEM_CONFORMER_RMSD>  (1) 
0.4

>  <PUBCHEM_CONFORMER_DIVERSEORDER>  (1) 
1
2

>  <PUBCHEM_MMFF94_PARTIAL_CHARGES>  (1) 
14
1 -0.57
10 0.42
11 0.15
12 0.15
13 0.15
2 -0.14
20 0.06
3 0.09
4 -0.14
5 -0.15
6 -0.15
7 -0.15
8 0.14
9 0.14

>  <PUBCHEM_EFFECTIVE_ROTOR_COUNT>  (1) 
1

>  <PUBCHEM_PHARMACOPHORE_FEATURES>  (1) 
2
1 1 acceptor
6 2 3 4 5 6 7 rings

>  <PUBCHEM_HEAVY_ATOM_COUNT>  (1) 
10

>  <PUBCHEM_ATOM_DEF_STEREO_COUNT>  (1) 
0

>  <PUBCHEM_ATOM_UDEF_STEREO_COUNT>  (1) 
0

>  <PUBCHEM_BOND_DEF_STEREO_COUNT>  (1) 
0

>  <PUBCHEM_BOND_UDEF_STEREO_COUNT>  (1) 
0

>  <PUBCHEM_ISOTOPIC_ATOM_COUNT>  (1) 
0

>  <PUBCHEM_COMPONENT_COUNT>  (1) 
1

>  <PUBCHEM_CACTVS_TAUTO_COUNT>  (1) 
1

>  <PUBCHEM_CONFORMER_ID>  (1) 
000055FF00000001

>  <PUBCHEM_MMFF94_ENERGY>  (1) 
25.7158

>  <PUBCHEM_FEATURE_SELFOVERLAP>  (1) 
10.148

>  <PUBCHEM_SHAPE_FINGERPRINT>  (1) 
12423570 1 8754620508902889589
13380535 21 18337408092193688683
13380535 76 18409721889494280499
16945 1 18122344584231817063
18185500 45 17762619486554370563
193761 8 18410856585547172135
20871998 184 17406283603779208670
21040471 1 18410856594025973153
21501502 16 18411134740651144135
23552423 10 18408603664641417238
23559900 14 18270978907834223084
241688 4 17115512835780924987
2748010 2 18409452483523416727
5084963 1 17842567511072141392

>  <PUBCHEM_SHAPE_MULTIPOLES>  (1) 
199.93
3.38
2.27
0.61
1.22
0.01
0
1
0
-1.18
0
0.02
-0.02
0

>  <PUBCHEM_SHAPE_SELFOVERLAP>  (1) 
414.758

>  <PUBCHEM_SHAPE_VOLUME>  (1) 
115.5

>  <PUBCHEM_COORDINATE_TYPE>  (1) 
2
5
10

$$$$
