22026
     RDKit          3D

 19 20  0  0  0  0  0  0  0  0999 V2000
    0.2088    2.6410   -0.2243 S   0  0  0  0  0  0  0  0  0  0  0  0
    4.6828   -2.1304    1.1828 O   0  0  0  0  0  0  0  0  0  0  0  0
    5.3820   -1.5599   -0.8184 O   0  0  0  0  0  0  0  0  0  0  0  0
   -4.6466   -0.8125    0.3115 N   0  0  0  0  0  0  0  0  0  0  0  0
    4.5881   -1.4318    0.1448 N   0  0  0  0  0  0  0  0  0  0  0  0
   -3.5019    0.0020    0.1849 C   0  0  0  0  0  0  0  0  0  0  0  0
   -1.2377    1.6125   -0.0648 C   0  0  0  0  0  0  0  0  0  0  0  0
   -4.9531   -1.8686   -0.6027 C   0  0  0  0  0  0  0  0  0  0  0  0
   -2.6104   -0.2064   -0.8675 C   0  0  0  0  0  0  0  0  0  0  0  0
   -3.2613    1.0158    1.1124 C   0  0  0  0  0  0  0  0  0  0  0  0
   -1.4782    0.5988   -0.9922 C   0  0  0  0  0  0  0  0  0  0  0  0
   -2.1292    1.8210    0.9875 C   0  0  0  0  0  0  0  0  0  0  0  0
    1.5149    1.4264   -0.1142 C   0  0  0  0  0  0  0  0  0  0  0  0
    1.6362    0.6415    1.0295 C   0  0  0  0  0  0  0  0  0  0  0  0
    2.4060    1.2698   -1.1726 C   0  0  0  0  0  0  0  0  0  0  0  0
   -6.2319   -2.5677   -0.1832 C   0  0  0  0  0  0  0  0  0  0  0  0
    3.5503   -0.4665    0.0575 C   0  0  0  0  0  0  0  0  0  0  0  0
    2.6558   -0.3066    1.1156 C   0  0  0  0  0  0  0  0  0  0  0  0
    3.4255    0.3215   -1.0867 C   0  0  0  0  0  0  0  0  0  0  0  0
  1  7  1  0
  1 13  1  0
  2  5  1  0
  3  5  2  0
  4  6  1  0
  4  8  1  0
  5 17  1  0
  6  9  2  0
  6 10  1  0
  7 11  2  0
  7 12  1  0
  8 16  1  0
  9 11  1  0
 10 12  2  0
 13 14  2  0
 13 15  1  0
 14 18  1  0
 15 19  2  0
 17 18  2  0
 17 19  1  0
M  CHG  2   2  -1   5   1
M  END
>  <PUBCHEM_COMPOUND_CID>  (1) 
22026

>  <PUBCHEM_CONFORMER_RMSD>  (1) 
0.6

>  <PUBCHEM_CONFORMER_DIVERSEORDER>  (1) 
1
26
7
23
24
2
22
8
16
10
21
25
13
15
5
9
14
18
17
12
6
4
19
3
20
11

>  <PUBCHEM_MMFF94_PARTIAL_CHARGES>  (1) 
27
1 -0.2
10 -0.15
11 -0.15
12 -0.15
13 0.1
14 -0.15
15 -0.15
17 0.13
18 -0.15
19 -0.15
2 -0.52
20 0.4
23 0.15
24 0.15
25 0.15
26 0.15
27 0.15
28 0.15
3 -0.52
32 0.15
33 0.15
4 -0.87
5 0.91
6 0.1
7 0.1
8 0.37
9 -0.15

>  <PUBCHEM_EFFECTIVE_ROTOR_COUNT>  (1) 
5

>  <PUBCHEM_PHARMACOPHORE_FEATURES>  (1) 
7
1 2 acceptor
1 2 anion
1 3 acceptor
1 4 cation
1 4 donor
6 13 14 15 17 18 19 rings
6 6 7 9 10 11 12 rings

>  <PUBCHEM_HEAVY_ATOM_COUNT>  (1) 
19

>  <PUBCHEM_ATOM_DEF_STEREO_COUNT>  (1) 
0

>  <PUBCHEM_ATOM_UDEF_STEREO_COUNT>  (1) 
0

>  <PUBCHEM_BOND_DEF_STEREO_COUNT>  (1) 
0

>  <PUBCHEM_BOND_UDEF_STEREO_COUNT>  (1) 
0

>  <PUBCHEM_ISOTOPIC_ATOM_COUNT>  (1) 
0

>  <PUBCHEM_COMPONENT_COUNT>  (1) 
1

>  <PUBCHEM_CACTVS_TAUTO_COUNT>  (1) 
1

>  <PUBCHEM_CONFORMER_ID>  (1) 
0000560A00000001

>  <PUBCHEM_MMFF94_ENERGY>  (1) 
59.1319

>  <PUBCHEM_FEATURE_SELFOVERLAP>  (1) 
35.602

>  <PUBCHEM_SHAPE_FINGERPRINT>  (1) 
11046707 91 18339359660924682688
11578080 2 18338500993720467216
11796584 16 18197499524163388012
12596602 18 17846781810398019970
12633257 1 15625934387105852173
12892183 10 16128384722357533125
12916754 54 18408039619824873853
13103583 49 18059023791150391385
13533116 47 18268148850296815995
13955234 65 17837494416484112361
13965767 371 11743845741855514744
14178342 30 17845387565372051125
1420 369 18412543219130224471
14251740 57 18341890848181442898
14251764 30 18200038335367706046
14576447 43 18187086131441806346
14848178 5 18410846664209466255
15188451 53 17489582399042235255
15342816 4 18339654407382071492
15475509 8 16877932838164755607
17834072 32 9367339345049060026
18915474 69 18260835899164747848
193927 3 18337114557270733299
19422 9 18409457968044075548
19784866 240 18408605868465769541
200 152 17749113253185733960
20028762 73 18201437021226906279
20281475 54 18409732858804220989
20291156 8 18409446977190921664
20388580 30 18260268585276952668
20621476 21 17916037750557383638
20645477 70 18041836345791864933
21315759 148 17489309629864097390
21713013 43 16660653967958119249
22646028 28 18408605833752791520
22950370 63 18411426085483748092
23503958 8 18201158754373565257
23559900 14 18339916130321184657
270888 7 10375860892495637738
2838139 119 10810502246209316126
2871803 45 17531242880995131537
3286 77 18272086114793127353
351380 3 18411983593840342447
4028521 119 12035736396336850036
4259306 186 17967818240574153859
44062 13 18334568024185385237
465052 167 18269281321414295295
5104073 3 17917998304137667729
59682541 52 14779810642694828090
6034566 193 9006769956118315383
76465 3 18410856585889829661
7808743 9 8718822081107811719
7970288 3 18411135840036769143
960060 61 17531244015209324413

>  <PUBCHEM_SHAPE_MULTIPOLES>  (1) 
373.16
12.3
2.63
1.2
5.3
0.3
0.06
13.13
-0.35
0.71
0.11
-0.51
-0.08
-1.28

>  <PUBCHEM_SHAPE_SELFOVERLAP>  (1) 
775.093

>  <PUBCHEM_SHAPE_VOLUME>  (1) 
213.5

>  <PUBCHEM_COORDINATE_TYPE>  (1) 
2
5
10

$$$$
