22023
     RDKit          3D

 27 30  0  0  0  0  0  0  0  0999 V2000
    4.0368    1.3768   -0.7119 O   0  0  0  0  0  0  0  0  0  0  0  0
    5.0256    0.1530    1.5796 O   0  0  0  0  0  0  0  0  0  0  0  0
   -0.5556   -0.7003   -1.2323 N   0  0  0  0  0  0  0  0  0  0  0  0
   -3.7167    1.2012    0.7649 N   0  0  0  0  0  0  0  0  0  0  0  0
   -2.7005   -0.8140   -0.1011 C   0  0  0  0  0  0  0  0  0  0  0  0
   -2.7004   -2.3073   -0.2792 C   0  0  0  0  0  0  0  0  0  0  0  0
   -4.0726   -2.9399   -0.0505 C   0  0  0  0  0  0  0  0  0  0  0  0
   -4.7153   -2.3808    1.2135 C   0  0  0  0  0  0  0  0  0  0  0  0
   -4.9348   -0.8760    1.0739 C   0  0  0  0  0  0  0  0  0  0  0  0
   -3.7195   -0.1426    0.5702 C   0  0  0  0  0  0  0  0  0  0  0  0
   -1.6241   -0.0533   -0.5576 C   0  0  0  0  0  0  0  0  0  0  0  0
   -1.5956    1.3330   -0.3622 C   0  0  0  0  0  0  0  0  0  0  0  0
   -2.6782    1.9270    0.3124 C   0  0  0  0  0  0  0  0  0  0  0  0
   -0.3046   -2.0979   -1.1094 C   0  0  0  0  0  0  0  0  0  0  0  0
   -0.5248    2.1206   -0.8188 C   0  0  0  0  0  0  0  0  0  0  0  0
    1.1181   -2.4435   -1.5563 C   0  0  0  0  0  0  0  0  0  0  0  0
   -2.6532    3.3054    0.5068 C   0  0  0  0  0  0  0  0  0  0  0  0
    2.1565   -1.7501   -0.7245 C   0  0  0  0  0  0  0  0  0  0  0  0
   -0.5238    3.4968   -0.6108 C   0  0  0  0  0  0  0  0  0  0  0  0
   -1.5902    4.0899    0.0527 C   0  0  0  0  0  0  0  0  0  0  0  0
    2.6203   -0.4963   -1.1068 C   0  0  0  0  0  0  0  0  0  0  0  0
    2.6463   -2.3681    0.4206 C   0  0  0  0  0  0  0  0  0  0  0  0
    3.5864    0.1479   -0.3340 C   0  0  0  0  0  0  0  0  0  0  0  0
    3.6125   -1.7239    1.1936 C   0  0  0  0  0  0  0  0  0  0  0  0
    4.0824   -0.4660    0.8163 C   0  0  0  0  0  0  0  0  0  0  0  0
    3.3340    2.5090   -0.2039 C   0  0  0  0  0  0  0  0  0  0  0  0
    6.3911   -0.1008    1.2549 C   0  0  0  0  0  0  0  0  0  0  0  0
  1 23  1  0
  1 26  1  0
  2 25  1  0
  2 27  1  0
  3 11  1  0
  3 14  1  0
  4 10  2  0
  4 13  1  0
  5  6  1  0
  5 10  1  0
  5 11  2  0
  6  7  1  0
  7  8  1  0
  8  9  1  0
  9 10  1  0
 11 12  1  0
 12 13  2  0
 12 15  1  0
 13 17  1  0
 14 16  1  0
 15 19  2  0
 16 18  1  0
 17 20  2  0
 18 21  2  0
 18 22  1  0
 19 20  1  0
 21 23  1  0
 22 24  2  0
 23 25  2  0
 24 25  1  0
M  END
>  <PUBCHEM_COMPOUND_CID>  (1) 
22023

>  <PUBCHEM_CONFORMER_RMSD>  (1) 
0.8

>  <PUBCHEM_CONFORMER_DIVERSEORDER>  (1) 
1
2
43
42
22
9
33
52
56
57
31
19
16
29
39
40
4
27
28
53
44
26
35
23
25
13
20
47
5
17
48
34
37
45
11
36
55
3
50
10
38
6
14
51
8
21
24
12
49
30
15
58
18
32
46
54
41
7

>  <PUBCHEM_MMFF94_PARTIAL_CHARGES>  (1) 
32
1 -0.36
10 0.17
11 0.1
13 0.31
14 0.37
15 -0.15
16 0.14
17 -0.15
18 -0.14
19 -0.15
2 -0.36
20 -0.15
21 -0.15
22 -0.15
23 0.08
24 -0.15
25 0.08
26 0.28
27 0.28
3 -0.87
36 0.4
39 0.15
4 -0.62
42 0.15
43 0.15
44 0.15
45 0.15
46 0.15
47 0.15
5 -0.14
6 0.14
9 0.14

>  <PUBCHEM_EFFECTIVE_ROTOR_COUNT>  (1) 
6.8

>  <PUBCHEM_PHARMACOPHORE_FEATURES>  (1) 
9
1 1 acceptor
1 2 acceptor
1 3 cation
1 3 donor
1 4 acceptor
6 12 13 15 17 19 20 rings
6 18 21 22 23 24 25 rings
6 4 5 10 11 12 13 rings
6 5 6 7 8 9 10 rings

>  <PUBCHEM_HEAVY_ATOM_COUNT>  (1) 
27

>  <PUBCHEM_ATOM_DEF_STEREO_COUNT>  (1) 
0

>  <PUBCHEM_ATOM_UDEF_STEREO_COUNT>  (1) 
0

>  <PUBCHEM_BOND_DEF_STEREO_COUNT>  (1) 
0

>  <PUBCHEM_BOND_UDEF_STEREO_COUNT>  (1) 
0

>  <PUBCHEM_ISOTOPIC_ATOM_COUNT>  (1) 
0

>  <PUBCHEM_COMPONENT_COUNT>  (1) 
1

>  <PUBCHEM_CACTVS_TAUTO_COUNT>  (1) 
4

>  <PUBCHEM_CONFORMER_ID>  (1) 
0000560700000001

>  <PUBCHEM_MMFF94_ENERGY>  (1) 
127.4988

>  <PUBCHEM_FEATURE_SELFOVERLAP>  (1) 
45.731

>  <PUBCHEM_SHAPE_FINGERPRINT>  (1) 
10006869 2 18267581497611675830
10319926 262 18267581296039032250
10369192 42 17059773446768161680
10616163 171 18411423886413143356
10670039 82 18339375114797068396
10721379 63 14389655917033308550
1100329 8 17547013386577981990
12035758 1 18337125467105058345
12422481 6 18125185778640326937
12553582 1 18339655528595207079
12596602 18 17676761033650752144
12633257 1 17975134245138111284
12788726 201 18262252087120609131
12892183 10 18335693893811542378
12978246 48 18411979157234233616
13004483 165 18408885118834296931
13140716 1 18411979204141179292
13583140 156 17968641753493482558
14081887 123 18339368465760392983
14178342 30 18335985251217493702
14341114 328 18334299794386791514
14787075 74 17969508293094215635
14840074 17 18058454364723910823
14849402 71 18117276064147753380
14950920 106 18040986346047203634
150020 26 17986384487064172418
15475509 35 17172395396420755787
19309040 13 14403205009595209570
19315092 285 16661743596860749762
19319366 153 17539417935027399076
23366157 5 17756720989640801845
23559900 14 18125459522122146767
24771293 8 18202289079098776225
3117164 225 17904188236150697370
3187 122 18408879638018190257
3729539 64 8646507222971851609
38570 142 17824280391779344772
3886686 26 17540523626601703362
392239 28 18261398883288315939
469060 322 18339655519525049459
474144 1 17898305036792090692
508706 21 18196653995215703788
5104073 3 18268995284654984290
5309563 4 18266746972591963729
6004065 56 18267021842574299899
6823239 73 18128838360330235238
7097593 13 17754452357196636370
9709674 26 18125444111747372175
9777508 108 17979366261383420381

>  <PUBCHEM_SHAPE_MULTIPOLES>  (1) 
533.95
10.96
4.56
1.3
8.42
3.45
0.06
-3.59
5.93
-3.6
-0.4
0.74
-0.51
0.04

>  <PUBCHEM_SHAPE_SELFOVERLAP>  (1) 
1163.38

>  <PUBCHEM_SHAPE_VOLUME>  (1) 
289.7

>  <PUBCHEM_COORDINATE_TYPE>  (1) 
2
5
10

$$$$
