22020
     RDKit          3D

 37 40  0  0  0  0  0  0  0  0999 V2000
    2.4826    2.3827   -0.3088 O   0  0  0  0  0  0  0  0  0  0  0  0
   -5.1753   -0.3103    0.0512 O   0  0  0  0  0  0  0  0  0  0  0  0
   -0.5069   -4.7050    0.1113 N   0  0  0  0  0  0  0  0  0  0  0  0
    5.6391    4.2447    0.0680 N   0  0  0  0  0  0  0  0  0  0  0  0
   -6.0792    3.2357    0.4764 N   0  0  0  0  0  0  0  0  0  0  0  0
    0.8515   -2.9539   -0.0111 C   0  0  0  0  0  0  0  0  0  0  0  0
   -0.4684   -3.3379    0.0470 C   0  0  0  0  0  0  0  0  0  0  0  0
    1.6475   -4.1330    0.0191 C   0  0  0  0  0  0  0  0  0  0  0  0
    0.7707   -5.2174    0.0960 C   0  0  0  0  0  0  0  0  0  0  0  0
    1.2713   -1.5812   -0.0882 C   0  0  0  0  0  0  0  0  0  0  0  0
   -1.6848   -2.5562    0.0485 C   0  0  0  0  0  0  0  0  0  0  0  0
    3.0338   -4.3828   -0.0118 C   0  0  0  0  0  0  0  0  0  0  0  0
    4.3556    3.8644   -0.5033 C   0  0  0  0  0  0  0  0  0  0  0  0
   -6.1008    1.8954   -0.0901 C   0  0  0  0  0  0  0  0  0  0  0  0
    1.2129   -6.5442    0.1438 C   0  0  0  0  0  0  0  0  0  0  0  0
    0.8650   -0.7865   -1.1601 C   0  0  0  0  0  0  0  0  0  0  0  0
    2.0850   -1.0439    0.9092 C   0  0  0  0  0  0  0  0  0  0  0  0
   -2.6290   -2.7336   -0.9628 C   0  0  0  0  0  0  0  0  0  0  0  0
   -1.9136   -1.6239    1.0605 C   0  0  0  0  0  0  0  0  0  0  0  0
    3.7433    2.7098    0.2737 C   0  0  0  0  0  0  0  0  0  0  0  0
   -5.1080    0.9938    0.6261 C   0  0  0  0  0  0  0  0  0  0  0  0
    5.4499    5.0536    1.2746 C   0  0  0  0  0  0  0  0  0  0  0  0
    6.4451    4.9783   -0.9109 C   0  0  0  0  0  0  0  0  0  0  0  0
   -4.9355    3.9958   -0.0339 C   0  0  0  0  0  0  0  0  0  0  0  0
   -7.3279    3.9429    0.1820 C   0  0  0  0  0  0  0  0  0  0  0  0
    2.0858    1.0828   -0.2371 C   0  0  0  0  0  0  0  0  0  0  0  0
    3.4906   -5.7048    0.0351 C   0  0  0  0  0  0  0  0  0  0  0  0
    2.5924   -6.7674    0.1118 C   0  0  0  0  0  0  0  0  0  0  0  0
   -4.0307   -1.0466    0.0501 C   0  0  0  0  0  0  0  0  0  0  0  0
    1.2722    0.5454   -1.2346 C   0  0  0  0  0  0  0  0  0  0  0  0
    2.4924    0.2880    0.8348 C   0  0  0  0  0  0  0  0  0  0  0  0
   -3.8019   -1.9789   -0.9620 C   0  0  0  0  0  0  0  0  0  0  0  0
   -3.0865   -0.8691    1.0614 C   0  0  0  0  0  0  0  0  0  0  0  0
    6.7819    5.3987    1.9185 C   0  0  0  0  0  0  0  0  0  0  0  0
    6.6556    4.1593   -2.1731 C   0  0  0  0  0  0  0  0  0  0  0  0
   -4.8635    5.3732    0.6031 C   0  0  0  0  0  0  0  0  0  0  0  0
   -7.5121    4.1320   -1.3142 C   0  0  0  0  0  0  0  0  0  0  0  0
  1 20  1  0
  1 26  1  0
  2 21  1  0
  2 29  1  0
  3  7  1  0
  3  9  1  0
  4 13  1  0
  4 22  1  0
  4 23  1  0
  5 14  1  0
  5 24  1  0
  5 25  1  0
  6  7  2  0
  6  8  1  0
  6 10  1  0
  7 11  1  0
  8  9  2  0
  8 12  1  0
  9 15  1  0
 10 16  2  0
 10 17  1  0
 11 18  2  0
 11 19  1  0
 12 27  2  0
 13 20  1  0
 14 21  1  0
 15 28  2  0
 16 30  1  0
 17 31  2  0
 18 32  1  0
 19 33  2  0
 22 34  1  0
 23 35  1  0
 24 36  1  0
 25 37  1  0
 26 30  2  0
 26 31  1  0
 27 28  1  0
 29 32  2  0
 29 33  1  0
M  END
>  <PUBCHEM_COMPOUND_CID>  (1) 
22020

>  <PUBCHEM_CONFORMER_RMSD>  (1) 
1.4

>  <PUBCHEM_CONFORMER_DIVERSEORDER>  (1) 
4
14
17
19
13
1
11
3
18
12
6
15
5
10
8
9
16
7
2

>  <PUBCHEM_MMFF94_PARTIAL_CHARGES>  (1) 
45
1 -0.36
10 0.05
11 0.05
12 -0.15
13 0.27
14 0.27
15 -0.15
16 -0.15
17 -0.15
18 -0.15
19 -0.15
2 -0.36
20 0.28
21 0.28
22 0.27
23 0.27
24 0.27
25 0.27
26 0.08
27 -0.15
28 -0.15
29 0.08
3 0.03
30 -0.15
31 -0.15
32 -0.15
33 -0.15
38 0.27
39 0.15
4 -0.81
44 0.15
45 0.15
46 0.15
47 0.15
48 0.15
5 -0.81
6 -0.05
61 0.15
62 0.15
63 0.15
64 0.15
65 0.15
66 0.15
7 -0.2
9 -0.15

>  <PUBCHEM_EFFECTIVE_ROTOR_COUNT>  (1) 
14

>  <PUBCHEM_PHARMACOPHORE_FEATURES>  (1) 
10
1 1 acceptor
1 2 acceptor
1 3 cation
1 3 donor
1 4 cation
1 5 cation
5 3 6 7 8 9 rings
6 10 16 17 26 30 31 rings
6 11 18 19 29 32 33 rings
6 8 9 12 15 27 28 rings

>  <PUBCHEM_HEAVY_ATOM_COUNT>  (1) 
37

>  <PUBCHEM_ATOM_DEF_STEREO_COUNT>  (1) 
0

>  <PUBCHEM_ATOM_UDEF_STEREO_COUNT>  (1) 
0

>  <PUBCHEM_BOND_DEF_STEREO_COUNT>  (1) 
0

>  <PUBCHEM_BOND_UDEF_STEREO_COUNT>  (1) 
0

>  <PUBCHEM_ISOTOPIC_ATOM_COUNT>  (1) 
0

>  <PUBCHEM_COMPONENT_COUNT>  (1) 
1

>  <PUBCHEM_CACTVS_TAUTO_COUNT>  (1) 
1

>  <PUBCHEM_CONFORMER_ID>  (1) 
0000560400000004

>  <PUBCHEM_MMFF94_ENERGY>  (1) 
101.0487

>  <PUBCHEM_FEATURE_SELFOVERLAP>  (1) 
50.839

>  <PUBCHEM_SHAPE_FINGERPRINT>  (1) 
10462674 296 17474947628256721569
10675989 125 18267024955987688145
10951579 204 18050301559214237652
11479125 193 18338527357131245993
11720765 8 18050005489273262723
11828422 8 18337119981624732550
13008946 267 18411417268317023960
13835254 42 17041197935982308795
14068700 675 17481695361306689411
14394314 77 17258781417442452257
14790565 3 18410294757097355158
14849402 71 18050852122359929653
15198563 99 17261328998901059990
15326921 28 18123461941491023480
15400415 2 18410576218667301353
15419008 42 17842859960603326436
15439362 3 18410013234417035890
15448158 71 18344146990840054283
15980000 95 17762622785448236190
16087824 20 17329993491517443789
16990350 14 18410577266670671320
17980427 26 18412816997552578102
19053607 189 18338786862960009585
19304671 126 17917165917933041221
19311894 1 17545607115828252928
20238998 120 17833552293177450818
21133410 127 18186520990866213445
21792938 324 17761750894112576018
21987440 362 18336836385139730764
23522609 53 17172648322850453124
23576562 1 18126279745550122591
3388396 114 18198605822388164213
563151 97 18339639057421812255
6700243 42 16610590154519378630
9981440 41 18192995043846994843

>  <PUBCHEM_SHAPE_MULTIPOLES>  (1) 
734.76
17.36
13.94
1.24
16.95
4.25
-0.15
-43.72
-0.95
-19.06
0.96
-1.33
-1.59
0.11

>  <PUBCHEM_SHAPE_SELFOVERLAP>  (1) 
1561.669

>  <PUBCHEM_SHAPE_VOLUME>  (1) 
416.2

>  <PUBCHEM_COORDINATE_TYPE>  (1) 
2
5
10

$$$$
