22021
     RDKit          3D

 20 23  0  0  0  0  0  0  0  0999 V2000
   -1.5452   -0.0165    0.0255 N   0  0  0  0  0  0  0  0  0  0  0  0
    2.6302   -0.0375   -0.0198 N   0  0  0  0  0  0  0  0  0  0  0  0
   -0.1449   -0.0273    0.0094 C   0  0  0  0  0  0  0  0  0  0  0  0
    0.5445    1.1846   -0.0330 C   0  0  0  0  0  0  0  0  0  0  0  0
   -2.2488    0.6529    1.1256 C   0  0  0  0  0  0  0  0  0  0  0  0
   -2.2373   -0.0443   -1.2708 C   0  0  0  0  0  0  0  0  0  0  0  0
   -3.6608    0.0902    1.2825 C   0  0  0  0  0  0  0  0  0  0  0  0
   -3.6456   -0.6141   -1.1152 C   0  0  0  0  0  0  0  0  0  0  0  0
   -4.4274    0.1220   -0.0339 C   0  0  0  0  0  0  0  0  0  0  0  0
   -0.2105    2.4850   -0.0109 C   0  0  0  0  0  0  0  0  0  0  0  0
    1.9362    1.1297   -0.0309 C   0  0  0  0  0  0  0  0  0  0  0  0
    0.6475    3.6851   -0.4101 C   0  0  0  0  0  0  0  0  0  0  0  0
    2.7649    2.3851   -0.1039 C   0  0  0  0  0  0  0  0  0  0  0  0
    1.9945    3.6398    0.3016 C   0  0  0  0  0  0  0  0  0  0  0  0
    0.5493   -1.2432    0.0288 C   0  0  0  0  0  0  0  0  0  0  0  0
    1.9556   -1.2011    0.0119 C   0  0  0  0  0  0  0  0  0  0  0  0
   -0.1239   -2.4765    0.0654 C   0  0  0  0  0  0  0  0  0  0  0  0
    2.6483   -2.4087    0.0296 C   0  0  0  0  0  0  0  0  0  0  0  0
    0.5924   -3.6698    0.0833 C   0  0  0  0  0  0  0  0  0  0  0  0
    1.9809   -3.6353    0.0649 C   0  0  0  0  0  0  0  0  0  0  0  0
  1  3  1  0
  1  5  1  0
  1  6  1  0
  2 11  2  0
  2 16  1  0
  3  4  2  0
  3 15  1  0
  4 10  1  0
  4 11  1  0
  5  7  1  0
  6  8  1  0
  7  9  1  0
  8  9  1  0
 10 12  1  0
 11 13  1  0
 12 14  1  0
 13 14  1  0
 15 16  2  0
 15 17  1  0
 16 18  1  0
 17 19  2  0
 18 20  2  0
 19 20  1  0
M  END
>  <PUBCHEM_COMPOUND_CID>  (1) 
22021

>  <PUBCHEM_CONFORMER_RMSD>  (1) 
0.6

>  <PUBCHEM_CONFORMER_DIVERSEORDER>  (1) 
1
2

>  <PUBCHEM_MMFF94_PARTIAL_CHARGES>  (1) 
18
1 -0.84
10 0.14
11 0.17
13 0.14
16 0.31
17 -0.15
18 -0.15
19 -0.15
2 -0.62
20 -0.15
3 0.1
39 0.15
4 -0.14
40 0.15
41 0.15
42 0.15
5 0.37
6 0.37

>  <PUBCHEM_EFFECTIVE_ROTOR_COUNT>  (1) 
3

>  <PUBCHEM_PHARMACOPHORE_FEATURES>  (1) 
6
1 1 cation
1 2 acceptor
6 1 5 6 7 8 9 rings
6 15 16 17 18 19 20 rings
6 2 3 4 11 15 16 rings
6 4 10 11 12 13 14 rings

>  <PUBCHEM_HEAVY_ATOM_COUNT>  (1) 
20

>  <PUBCHEM_ATOM_DEF_STEREO_COUNT>  (1) 
0

>  <PUBCHEM_ATOM_UDEF_STEREO_COUNT>  (1) 
0

>  <PUBCHEM_BOND_DEF_STEREO_COUNT>  (1) 
0

>  <PUBCHEM_BOND_UDEF_STEREO_COUNT>  (1) 
0

>  <PUBCHEM_ISOTOPIC_ATOM_COUNT>  (1) 
0

>  <PUBCHEM_COMPONENT_COUNT>  (1) 
1

>  <PUBCHEM_CACTVS_TAUTO_COUNT>  (1) 
1

>  <PUBCHEM_CONFORMER_ID>  (1) 
0000560500000001

>  <PUBCHEM_MMFF94_ENERGY>  (1) 
66.488

>  <PUBCHEM_FEATURE_SELFOVERLAP>  (1) 
30.503

>  <PUBCHEM_SHAPE_FINGERPRINT>  (1) 
10411042 1 18122343467445965719
10693767 8 18202562873909714398
10967382 1 18410575084953287722
1100329 8 18338513157610083722
116883 192 17690556390758061317
11725454 13 16882118742786580279
12553582 1 18195251009636271895
12643181 29 18122632915042800484
12730499 353 18263362646211424455
12788726 201 17325485506449019619
12954195 1 16751866437737986588
13004483 165 17689985744497909451
13009979 54 17775005635713464267
13140716 1 18265892639372454442
13149001 5 17836123248015959516
13583140 156 16809234401635352753
138480 1 18338516322457343508
14178342 30 18199172048631615411
14790565 3 18338253625664194380
14844126 61 17183047056189127395
15309172 13 18192997238696121049
16087824 20 17329992391996585357
16945 1 18410011022603304262
17138139 8 17124208259650492079
1813 80 17985278369264862670
19591789 44 18049170156852258074
20645477 70 18334564742682586791
20739085 24 18334871510168478232
21041028 32 18048887285968854859
21524375 3 17899688256689581376
21639500 275 18409721898342541671
2255824 54 18412827992615464263
22907989 373 16822776145545835853
2334 1 17977665639001720438
23419403 2 17173163748435699398
23598291 2 18131355176716314077
238 59 17757787373621172647
2748010 2 18335421304578237468
3060560 45 18337950202802435260
34934 24 17761212115918136643
350125 39 17760095415852451312
352729 6 17907863155880875376
3886686 26 17477730921957373896
404807 14 15332143605250396740
458136 41 18263940984331118797
474 4 18340768259984561817
54173680 148 17401206668840790434
6443956 14 18264490572788968925
6992083 37 17696766462723475305
7364860 26 18410575080399760155
77492 1 17846780706881308163
81228 2 17470997086960898248
8272917 22 18411987962138333645
84936 182 18129940203877963049

>  <PUBCHEM_SHAPE_MULTIPOLES>  (1) 
401.63
5.48
4.9
0.92
6.22
0.03
0
-0.01
0.08
-5.32
0.02
0.86
-0.06
-0.26

>  <PUBCHEM_SHAPE_SELFOVERLAP>  (1) 
878.332

>  <PUBCHEM_SHAPE_VOLUME>  (1) 
214.6

>  <PUBCHEM_COORDINATE_TYPE>  (1) 
2
5
10

$$$$
