22035
     RDKit          3D

 13 14  0  0  1  0  0  0  0  0999 V2000
    4.2947   -0.8780   -0.0485 Cl  0  0  0  0  0  0  0  0  0  0  0  0
   -1.1269    1.3804    0.1297 O   0  0  0  0  0  0  0  0  0  0  0  0
   -3.0821   -1.6337    0.1311 O   0  0  0  0  0  0  0  0  0  0  0  0
   -0.7983   -1.4148    0.0434 N   0  0  0  0  0  0  0  0  0  0  0  0
   -2.1604    0.5548   -0.3917 C   0  0  0  0  0  0  0  0  0  0  0  0
    0.3094   -0.5610    0.0022 C   0  0  0  0  0  0  0  0  0  0  0  0
    0.1172    0.8194    0.0404 C   0  0  0  0  0  0  0  0  0  0  0  0
   -2.0870   -0.9271   -0.0150 C   0  0  0  0  0  0  0  0  0  0  0  0
   -3.4890    1.1587    0.0489 C   0  0  0  0  0  0  0  0  0  0  0  0
    1.5998   -1.0922   -0.0204 C   0  0  0  0  0  0  0  0  0  0  0  0
    1.2163    1.6771    0.0654 C   0  0  0  0  0  0  0  0  0  0  0  0
    2.6988   -0.2328   -0.0145 C   0  0  0  0  0  0  0  0  0  0  0  0
    2.5075    1.1492    0.0291 C   0  0  0  0  0  0  0  0  0  0  0  0
  1 12  1  0
  2  5  1  0
  2  7  1  0
  3  8  2  0
  4  6  1  0
  4  8  1  0
  5  8  1  0
  5  9  1  0
  6  7  2  0
  6 10  1  0
  7 11  1  0
 10 12  2  0
 11 13  2  0
 12 13  1  0
M  END
>  <PUBCHEM_COMPOUND_CID>  (1) 
22035

>  <PUBCHEM_CONFORMER_RMSD>  (1) 
0.4

>  <PUBCHEM_CONFORMER_DIVERSEORDER>  (1) 
1

>  <PUBCHEM_MMFF94_PARTIAL_CHARGES>  (1) 
16
1 -0.18
10 -0.15
11 -0.15
12 0.18
13 -0.15
15 0.37
19 0.15
2 -0.36
20 0.15
21 0.15
3 -0.57
4 -0.55
5 0.34
6 0.12
7 0.08
8 0.57

>  <PUBCHEM_EFFECTIVE_ROTOR_COUNT>  (1) 
0.6

>  <PUBCHEM_PHARMACOPHORE_FEATURES>  (1) 
5
1 2 acceptor
1 3 acceptor
1 4 donor
6 2 4 5 6 7 8 rings
6 6 7 10 11 12 13 rings

>  <PUBCHEM_HEAVY_ATOM_COUNT>  (1) 
13

>  <PUBCHEM_ATOM_DEF_STEREO_COUNT>  (1) 
0

>  <PUBCHEM_ATOM_UDEF_STEREO_COUNT>  (1) 
1

>  <PUBCHEM_BOND_DEF_STEREO_COUNT>  (1) 
0

>  <PUBCHEM_BOND_UDEF_STEREO_COUNT>  (1) 
0

>  <PUBCHEM_ISOTOPIC_ATOM_COUNT>  (1) 
0

>  <PUBCHEM_COMPONENT_COUNT>  (1) 
1

>  <PUBCHEM_CACTVS_TAUTO_COUNT>  (1) 
2

>  <PUBCHEM_CONFORMER_ID>  (1) 
0000561300000001

>  <PUBCHEM_MMFF94_ENERGY>  (1) 
34.6676

>  <PUBCHEM_FEATURE_SELFOVERLAP>  (1) 
25.405

>  <PUBCHEM_SHAPE_FINGERPRINT>  (1) 
10130415 120 18409726231985726832
10608611 8 18411414050700801409
10967382 1 18266740186163574479
11132069 177 18411131412135691040
11471102 20 18411414016435703413
11769659 78 18410569621670556158
12032990 46 18412548708515199166
12932764 1 17313373517985044356
13296908 3 18412261765786482406
13380535 76 18340767035950459487
14325111 11 18410574019580047124
14911166 2 18338229362971114893
15196674 1 18410855481903724108
15219456 202 18341890835560246080
15375462 189 17968656012921834642
15536298 74 18342737455503561320
15775835 57 18114182986464314669
16945 1 18337103449978877484
17804303 29 18412829075321561268
17844478 74 18115598174336530211
18186145 218 17967245408080287094
193761 8 13655052535801607916
19973954 147 18337954596601470949
200 152 17917419956641866359
20201158 50 18341894052316697006
21267235 1 18410583889425585731
21501502 16 18337676420101569437
21501925 9 18338504344199789026
2334 1 18338515373259203477
23402539 116 18130214961762939493
23402655 69 18269541751183332405
23463225 33 18408603639309183966
23552423 10 18260829349102095236
23559900 14 18341610379255642978
25 1 18047177571579765749
2748010 2 18338793523910134629
3312278 4 18411139108500827130
5104073 3 18410855481887946296
528886 8 18411694348850776096
53812653 166 18340763763021732784
6333449 129 18411697682040816311
7364860 26 18197780105982567048
8809292 202 18334017198159833746

>  <PUBCHEM_SHAPE_MULTIPOLES>  (1) 
252.68
6.06
1.78
0.61
1.43
0.06
-0.01
-0.88
-0.06
-0.43
0.06
0.02
0.02
0.09

>  <PUBCHEM_SHAPE_SELFOVERLAP>  (1) 
534.98

>  <PUBCHEM_SHAPE_VOLUME>  (1) 
142.2

>  <PUBCHEM_COORDINATE_TYPE>  (1) 
2
5
10

$$$$
