22034
     RDKit          3D

 13 14  0  0  0  0  0  0  0  0999 V2000
   -3.8164   -1.4282    0.1070 Cl  0  0  0  0  0  0  0  0  0  0  0  0
    1.0332    1.8423   -0.1103 O   0  0  0  0  0  0  0  0  0  0  0  0
    3.1633    0.9921    0.1404 O   0  0  0  0  0  0  0  0  0  0  0  0
    1.2942   -0.4100    0.2465 N   0  0  0  0  0  0  0  0  0  0  0  0
   -0.0581   -0.1711    0.1324 C   0  0  0  0  0  0  0  0  0  0  0  0
    1.9126   -1.6912    0.4767 C   0  0  0  0  0  0  0  0  0  0  0  0
   -0.1883    1.1860   -0.0809 C   0  0  0  0  0  0  0  0  0  0  0  0
    1.9541    0.7995    0.1008 C   0  0  0  0  0  0  0  0  0  0  0  0
   -1.1472   -1.0149    0.1975 C   0  0  0  0  0  0  0  0  0  0  0  0
    2.2307   -2.3957   -0.8260 C   0  0  0  0  0  0  0  0  0  0  0  0
   -1.4230    1.7788   -0.2412 C   0  0  0  0  0  0  0  0  0  0  0  0
   -2.4091   -0.4364    0.0374 C   0  0  0  0  0  0  0  0  0  0  0  0
   -2.5460    0.9489   -0.1801 C   0  0  0  0  0  0  0  0  0  0  0  0
  1 12  1  0
  2  7  1  0
  2  8  1  0
  3  8  2  0
  4  5  1  0
  4  6  1  0
  4  8  1  0
  5  7  2  0
  5  9  1  0
  6 10  1  0
  7 11  1  0
  9 12  2  0
 11 13  2  0
 12 13  1  0
M  END
>  <PUBCHEM_COMPOUND_CID>  (1) 
22034

>  <PUBCHEM_CONFORMER_RMSD>  (1) 
0.4

>  <PUBCHEM_CONFORMER_DIVERSEORDER>  (1) 
2
3
1

>  <PUBCHEM_MMFF94_PARTIAL_CHARGES>  (1) 
15
1 -0.18
11 -0.15
12 0.18
13 -0.15
16 0.15
2 -0.23
20 0.15
21 0.15
3 -0.57
4 -0.48
5 0.12
6 0.3
7 0.08
8 0.78
9 -0.15

>  <PUBCHEM_EFFECTIVE_ROTOR_COUNT>  (1) 
1

>  <PUBCHEM_PHARMACOPHORE_FEATURES>  (1) 
3
1 3 acceptor
5 2 4 5 7 8 rings
6 5 7 9 11 12 13 rings

>  <PUBCHEM_HEAVY_ATOM_COUNT>  (1) 
13

>  <PUBCHEM_ATOM_DEF_STEREO_COUNT>  (1) 
0

>  <PUBCHEM_ATOM_UDEF_STEREO_COUNT>  (1) 
0

>  <PUBCHEM_BOND_DEF_STEREO_COUNT>  (1) 
0

>  <PUBCHEM_BOND_UDEF_STEREO_COUNT>  (1) 
0

>  <PUBCHEM_ISOTOPIC_ATOM_COUNT>  (1) 
0

>  <PUBCHEM_COMPONENT_COUNT>  (1) 
1

>  <PUBCHEM_CACTVS_TAUTO_COUNT>  (1) 
1

>  <PUBCHEM_CONFORMER_ID>  (1) 
0000561200000002

>  <PUBCHEM_MMFF94_ENERGY>  (1) 
30.4994

>  <PUBCHEM_FEATURE_SELFOVERLAP>  (1) 
15.336

>  <PUBCHEM_SHAPE_FINGERPRINT>  (1) 
10967382 1 18265614466692824595
12524768 44 18337670815137450167
12932764 1 17532655633298967721
13380535 21 18338527347575355169
13380535 76 18263360450771233178
14252887 29 18337403746030079699
14576447 43 17984124131870741335
15219456 202 18411981325675292087
161256 15 18410579469951399214
16945 1 18338234980703948169
17990270 104 18410292484484298378
193761 8 18337952273039988057
19973954 147 18338233765222876705
20201158 50 18261671588215847947
20588541 1 18263647431974943635
20645477 70 18411129247852514847
20871998 22 18411422782495810803
21501502 16 18338237067920715609
21501925 9 18336531755524932298
2334 1 18409165489439702203
23463225 33 18333442145489543760
23552423 10 18188212009156413739
23559900 14 17691964861566124654
2748010 2 18336823083219721885
528886 8 18193833966712205080
7364860 26 18343300349453375368

>  <PUBCHEM_SHAPE_MULTIPOLES>  (1) 
252.68
4.91
2.34
0.69
1.7
0.39
-0.04
1.79
-0.04
-0.7
-0.29
-0.11
0.17
0.41

>  <PUBCHEM_SHAPE_SELFOVERLAP>  (1) 
536.474

>  <PUBCHEM_SHAPE_VOLUME>  (1) 
145

>  <PUBCHEM_COORDINATE_TYPE>  (1) 
2
5
10

$$$$
