22046
     RDKit          3D

 12 12  0  0  0  0  0  0  0  0999 V2000
   -3.1944    2.2665   -0.1328 Br  0  0  0  0  0  0  0  0  0  0  0  0
    0.5142   -2.4949    0.1601 O   0  0  0  0  0  0  0  0  0  0  0  0
    2.3950   -0.7780   -0.6221 O   0  0  0  0  0  0  0  0  0  0  0  0
    3.5180    1.4996    0.2644 O   0  0  0  0  0  0  0  0  0  0  0  0
    2.1317    1.3011    0.3377 N   0  0  0  0  0  0  0  0  0  0  0  0
    0.2108   -0.1253   -0.0591 C   0  0  0  0  0  0  0  0  0  0  0  0
   -0.3090   -1.4111    0.0902 C   0  0  0  0  0  0  0  0  0  0  0  0
   -0.6490    0.9711   -0.1263 C   0  0  0  0  0  0  0  0  0  0  0  0
   -1.6884   -1.6007    0.1723 C   0  0  0  0  0  0  0  0  0  0  0  0
   -2.0285    0.7816   -0.0442 C   0  0  0  0  0  0  0  0  0  0  0  0
   -2.5482   -0.5043    0.1050 C   0  0  0  0  0  0  0  0  0  0  0  0
    1.6479    0.0944   -0.1451 C   0  0  0  0  0  0  0  0  0  0  0  0
  1 10  1  0
  2  7  1  0
  3 12  2  0
  4  5  1  0
  5 12  1  0
  6  7  2  0
  6  8  1  0
  6 12  1  0
  7  9  1  0
  8 10  2  0
  9 11  2  0
 10 11  1  0
M  END
>  <PUBCHEM_COMPOUND_CID>  (1) 
22046

>  <PUBCHEM_CONFORMER_RMSD>  (1) 
0.6

>  <PUBCHEM_CONFORMER_DIVERSEORDER>  (1) 
1
3
2

>  <PUBCHEM_MMFF94_PARTIAL_CHARGES>  (1) 
18
1 -0.11
10 0.11
11 -0.15
12 0.54
13 0.15
14 0.15
15 0.15
16 0.37
17 0.45
18 0.4
2 -0.53
3 -0.57
4 -0.44
5 -0.39
6 0.09
7 0.08
8 -0.15
9 -0.15

>  <PUBCHEM_EFFECTIVE_ROTOR_COUNT>  (1) 
2

>  <PUBCHEM_PHARMACOPHORE_FEATURES>  (1) 
5
1 1 hydrophobe
1 2 donor
1 3 acceptor
1 5 donor
6 6 7 8 9 10 11 rings

>  <PUBCHEM_HEAVY_ATOM_COUNT>  (1) 
12

>  <PUBCHEM_ATOM_DEF_STEREO_COUNT>  (1) 
0

>  <PUBCHEM_ATOM_UDEF_STEREO_COUNT>  (1) 
0

>  <PUBCHEM_BOND_DEF_STEREO_COUNT>  (1) 
0

>  <PUBCHEM_BOND_UDEF_STEREO_COUNT>  (1) 
0

>  <PUBCHEM_ISOTOPIC_ATOM_COUNT>  (1) 
0

>  <PUBCHEM_COMPONENT_COUNT>  (1) 
1

>  <PUBCHEM_CACTVS_TAUTO_COUNT>  (1) 
10

>  <PUBCHEM_CONFORMER_ID>  (1) 
0000561E00000001

>  <PUBCHEM_MMFF94_ENERGY>  (1) 
32.6436

>  <PUBCHEM_FEATURE_SELFOVERLAP>  (1) 
25.371

>  <PUBCHEM_SHAPE_FINGERPRINT>  (1) 
10608611 8 18341611563923175536
13024252 1 12252720652639551815
13380535 21 18191601752471615779
13380535 76 18336821975418826787
13839132 238 18412265042725359604
13897977 150 18265612087655664445
14325111 11 18410856555360873908
14614273 12 18187351130633884597
14897335 6 18338227147026439733
15219456 202 18272093807437951676
15775835 57 18261962829610527492
16945 1 18335147535042160527
18186145 218 18201730508983705584
193761 8 18337952281962426931
20510252 161 18341898549289984929
20653085 51 18341622468770838905
20871998 184 17982459491991927862
21040471 1 18335987475984062087
21501502 16 18410567362348985883
23402539 116 18125428967698266415
23552423 10 18334018293355408062
23559900 14 18270690745445752318
25 1 18194684761337572621
2748010 2 18410581681780331527
305870 269 18334851689004436490
3071541 12 18123470471095313861
369184 2 18271247217533189459
5084963 1 18273221918973487275
53812653 166 18266460901657140561
6333449 129 18339921644299127997
7364860 26 18124874555923453951

>  <PUBCHEM_SHAPE_MULTIPOLES>  (1) 
230.31
4.7
2.42
0.65
0.33
0.37
0.02
-3.39
0.03
-0.2
-0.18
-0.01
-0.03
0.35

>  <PUBCHEM_SHAPE_SELFOVERLAP>  (1) 
469.209

>  <PUBCHEM_SHAPE_VOLUME>  (1) 
137.3

>  <PUBCHEM_COORDINATE_TYPE>  (1) 
2
5
10

$$$$
