22043
     RDKit          3D

 12 12  0  0  0  0  0  0  0  0999 V2000
    4.5989   -0.7831   -0.0022 Br  0  0  0  0  0  0  0  0  0  0  0  0
   -2.1467   -0.3759    0.0007 O   0  0  0  0  0  0  0  0  0  0  0  0
   -1.7709    1.8952   -0.0009 O   0  0  0  0  0  0  0  0  0  0  0  0
    0.0645    0.3733    0.0016 C   0  0  0  0  0  0  0  0  0  0  0  0
    1.0388    1.3714    0.0005 C   0  0  0  0  0  0  0  0  0  0  0  0
    0.4416   -0.9697    0.0018 C   0  0  0  0  0  0  0  0  0  0  0  0
   -3.5607   -0.1515   -0.0014 C   0  0  0  0  0  0  0  0  0  0  0  0
   -1.3448    0.7327    0.0008 C   0  0  0  0  0  0  0  0  0  0  0  0
    2.3903    1.0265   -0.0005 C   0  0  0  0  0  0  0  0  0  0  0  0
    1.7932   -1.3146    0.0009 C   0  0  0  0  0  0  0  0  0  0  0  0
    2.7677   -0.3164   -0.0002 C   0  0  0  0  0  0  0  0  0  0  0  0
   -4.2719   -1.4878   -0.0011 C   0  0  0  0  0  0  0  0  0  0  0  0
  1 11  1  0
  2  7  1  0
  2  8  1  0
  3  8  2  0
  4  5  2  0
  4  6  1  0
  4  8  1  0
  5  9  1  0
  6 10  2  0
  7 12  1  0
  9 11  2  0
 10 11  1  0
M  END
>  <PUBCHEM_COMPOUND_CID>  (1) 
22043

>  <PUBCHEM_CONFORMER_RMSD>  (1) 
0.6

>  <PUBCHEM_CONFORMER_DIVERSEORDER>  (1) 
1
5
2
3
4
6
7

>  <PUBCHEM_MMFF94_PARTIAL_CHARGES>  (1) 
15
1 -0.11
10 -0.15
11 0.11
15 0.15
16 0.15
17 0.15
18 0.15
2 -0.43
3 -0.57
4 0.09
5 -0.15
6 -0.15
7 0.28
8 0.63
9 -0.15

>  <PUBCHEM_EFFECTIVE_ROTOR_COUNT>  (1) 
3

>  <PUBCHEM_PHARMACOPHORE_FEATURES>  (1) 
3
1 1 hydrophobe
1 3 acceptor
6 4 5 6 9 10 11 rings

>  <PUBCHEM_HEAVY_ATOM_COUNT>  (1) 
12

>  <PUBCHEM_ATOM_DEF_STEREO_COUNT>  (1) 
0

>  <PUBCHEM_ATOM_UDEF_STEREO_COUNT>  (1) 
0

>  <PUBCHEM_BOND_DEF_STEREO_COUNT>  (1) 
0

>  <PUBCHEM_BOND_UDEF_STEREO_COUNT>  (1) 
0

>  <PUBCHEM_ISOTOPIC_ATOM_COUNT>  (1) 
0

>  <PUBCHEM_COMPONENT_COUNT>  (1) 
1

>  <PUBCHEM_CACTVS_TAUTO_COUNT>  (1) 
1

>  <PUBCHEM_CONFORMER_ID>  (1) 
0000561B00000001

>  <PUBCHEM_MMFF94_ENERGY>  (1) 
26.3469

>  <PUBCHEM_FEATURE_SELFOVERLAP>  (1) 
15.223

>  <PUBCHEM_SHAPE_FINGERPRINT>  (1) 
11062470 55 11458424639355743934
11769659 78 18408881819629279723
11806522 49 18408885148487448910
12032990 46 18341615880570692062
13690532 89 18408322177265023362
14252887 29 17775293746377607078
14325111 11 18410855464439245664
14993402 34 15430037668865871938
15757776 16 18186515497238225570
16945 1 18410575097827562144
18186145 218 17385715933301290069
18522853 276 18341892978717232856
200 152 18273206496130867397
20201158 50 18334577949306309771
20645477 70 18411695500588236103
20871998 22 18200884959004205510
21267235 1 18410864278123749615
21501925 9 18409440384821901658
221490 88 18118409672502553595
22959321 4 18410293648346355185
23402539 116 18334007281080197775
23402655 69 18335979779508266901
25610 137 18410014381347039437
2748010 2 18196933262579217542
2871803 45 18334007307198323471
3312278 4 18269273461138820728
5104073 3 18412263938850102561
581208 293 18338794632069615257
7364860 26 18269837678524624440
8809292 202 18187369877897560995

>  <PUBCHEM_SHAPE_MULTIPOLES>  (1) 
241.16
7.69
1.64
0.61
1.54
0.26
0
-3.51
0.01
0.41
0
-0.09
-0.02
0

>  <PUBCHEM_SHAPE_SELFOVERLAP>  (1) 
480.916

>  <PUBCHEM_SHAPE_VOLUME>  (1) 
147.1

>  <PUBCHEM_COORDINATE_TYPE>  (1) 
2
5
10

$$$$
