22051
     RDKit          3D

 18 19  0  0  1  0  0  0  0  0999 V2000
    1.2964    1.0691   -1.8733 O   0  0  0  0  0  0  0  0  0  0  0  0
    3.3752    0.2654   -0.0474 N   0  0  0  0  0  0  0  0  0  0  0  0
   -2.3517   -0.4863   -0.2522 C   0  0  0  0  0  0  0  0  0  0  0  0
   -2.9891   -1.7916   -0.6584 C   0  0  0  0  0  0  0  0  0  0  0  0
   -4.3427   -2.0346    0.0066 C   0  0  0  0  0  0  0  0  0  0  0  0
   -5.2156   -0.7901   -0.0925 C   0  0  0  0  0  0  0  0  0  0  0  0
   -4.5684    0.3765    0.6513 C   0  0  0  0  0  0  0  0  0  0  0  0
   -3.1054    0.5508    0.3285 C   0  0  0  0  0  0  0  0  0  0  0  0
   -0.3722    0.9219   -0.1788 C   0  0  0  0  0  0  0  0  0  0  0  0
    1.0796    1.1198   -0.4568 C   0  0  0  0  0  0  0  0  0  0  0  0
   -0.9882   -0.2837   -0.5133 C   0  0  0  0  0  0  0  0  0  0  0  0
    1.9565    0.0554    0.2320 C   0  0  0  0  0  0  0  0  0  0  0  0
   -2.4714    1.7551    0.6694 C   0  0  0  0  0  0  0  0  0  0  0  0
    4.1858   -0.7537    0.6017 C   0  0  0  0  0  0  0  0  0  0  0  0
   -1.1130    1.9399    0.4142 C   0  0  0  0  0  0  0  0  0  0  0  0
    5.6767   -0.5756    0.2735 C   0  0  0  0  0  0  0  0  0  0  0  0
    3.9586   -0.6760    2.1107 C   0  0  0  0  0  0  0  0  0  0  0  0
    5.9889   -0.6623   -1.2151 C   0  0  0  0  0  0  0  0  0  0  0  0
  1 10  1  0
  2 12  1  0
  2 14  1  0
  3  4  1  0
  3  8  2  0
  3 11  1  0
  4  5  1  0
  5  6  1  0
  6  7  1  0
  7  8  1  0
  8 13  1  0
  9 10  1  0
  9 11  2  0
  9 15  1  0
 10 12  1  0
 13 15  2  0
 14 16  1  0
 14 17  1  0
 16 18  1  0
M  END
>  <PUBCHEM_COMPOUND_CID>  (1) 
22051

>  <PUBCHEM_CONFORMER_RMSD>  (1) 
0.8

>  <PUBCHEM_CONFORMER_DIVERSEORDER>  (1) 
3
32
14
9
23
34
22
41
11
16
17
33
19
24
31
21
2
6
38
35
4
36
8
27
26
37
39
10
20
13
30
29
1
15
28
25
18
12
5
40
7

>  <PUBCHEM_MMFF94_PARTIAL_CHARGES>  (1) 
18
1 -0.68
10 0.42
11 -0.15
12 0.27
13 -0.15
14 0.27
15 -0.15
2 -0.9
28 0.15
3 -0.14
31 0.15
33 0.15
34 0.36
4 0.14
40 0.4
7 0.14
8 -0.14
9 -0.14

>  <PUBCHEM_EFFECTIVE_ROTOR_COUNT>  (1) 
5.8

>  <PUBCHEM_PHARMACOPHORE_FEATURES>  (1) 
7
1 1 acceptor
1 1 donor
1 18 hydrophobe
1 2 cation
1 2 donor
6 3 4 5 6 7 8 rings
6 3 8 9 11 13 15 rings

>  <PUBCHEM_HEAVY_ATOM_COUNT>  (1) 
18

>  <PUBCHEM_ATOM_DEF_STEREO_COUNT>  (1) 
2

>  <PUBCHEM_ATOM_UDEF_STEREO_COUNT>  (1) 
0

>  <PUBCHEM_BOND_DEF_STEREO_COUNT>  (1) 
0

>  <PUBCHEM_BOND_UDEF_STEREO_COUNT>  (1) 
0

>  <PUBCHEM_ISOTOPIC_ATOM_COUNT>  (1) 
0

>  <PUBCHEM_COMPONENT_COUNT>  (1) 
1

>  <PUBCHEM_CACTVS_TAUTO_COUNT>  (1) 
1

>  <PUBCHEM_CONFORMER_ID>  (1) 
0000562300000003

>  <PUBCHEM_MMFF94_ENERGY>  (1) 
27.074

>  <PUBCHEM_FEATURE_SELFOVERLAP>  (1) 
35.544

>  <PUBCHEM_SHAPE_FINGERPRINT>  (1) 
10062212 137 18409164450580148323
11045977 3 17632570561090910664
11046707 91 18408318882560753792
11128504 68 17822298989852129646
12236239 1 18259708891209129492
12633257 1 16343420712574969027
13167823 11 18408322207044782456
13288520 33 18412546509206912173
13675066 3 17346591972411294240
13862211 1 18200312242954698431
13911987 19 15647353926536284526
14341114 176 17704071807046579352
14420673 8 17912652306879114198
15042514 8 18129662032084498287
15537594 2 18187083927622820442
17804303 29 18272932734446116776
17834072 33 18333735728084628340
17844677 252 18059862753425604088
17862501 102 18408884040311981737
17977361 122 18408597080952535195
1813 80 17894918390933824654
18186145 218 14346069871832646389
18222031 100 18113614586814742180
18927931 339 18131072640945991551
193927 3 18335710471868138842
19784866 240 18041000656719588055
200 152 17240482494101691721
20281475 54 18261104120336541914
204376 136 14117795846877953445
20645477 70 15574706946978790570
20871999 31 13262670422540230927
21033648 29 16414902055435573162
21267235 1 18411144671069278163
22079108 93 13398627298931114925
2297311 6 18059584563866681452
23035841 295 18410014312959989002
23366157 5 17976254956999488049
23402539 116 18060693992790183037
235170 7 14129335144545461842
23557571 272 17846225414316973201
23559900 14 18343296006957089960
23596394 208 14562521856711127680
2838139 119 13829854544233121555
3004659 81 18260829331980306967
314194 84 17676490532062333706
335352 9 18413108356161139493
351380 3 18187362129897696274
4325135 7 18336265722036948844
4340502 62 14261357989785504829
5104073 3 18057051409688590651
559249 180 18335698322012033995
573450 72 18410855456207929433
57724786 102 14476668767921488290
5924683 9 16629947958485286695
59755656 215 18271808982149893383
67856867 119 18264773332014317772

>  <PUBCHEM_SHAPE_MULTIPOLES>  (1) 
359.58
12.94
1.77
1.24
12.03
0.03
0.15
-6.15
1.01
-2.02
-0.02
1.64
-0.02
-0.65

>  <PUBCHEM_SHAPE_SELFOVERLAP>  (1) 
733.77

>  <PUBCHEM_SHAPE_VOLUME>  (1) 
208.7

>  <PUBCHEM_COORDINATE_TYPE>  (1) 
2
5
10

$$$$
