22053
     RDKit          3D

  8  7  0  0  0  0  0  0  0  0999 V2000
    1.4257    0.0060   -0.0016 Si  0  0  0  0  0  4  0  0  0  0  0  0
   -0.1273    0.6413   -0.0128 O   0  0  0  0  0  0  0  0  0  0  0  0
   -3.6720   -0.2998   -0.0082 N   0  0  0  0  0  0  0  0  0  0  0  0
    2.6876    1.4046   -0.0458 C   0  0  0  0  0  0  0  0  0  0  0  0
    1.7227   -1.0919   -1.4999 C   0  0  0  0  0  0  0  0  0  0  0  0
    1.7350   -1.0065    1.5532 C   0  0  0  0  0  0  0  0  0  0  0  0
   -1.2449   -0.2344    0.0162 C   0  0  0  0  0  0  0  0  0  0  0  0
   -2.5269    0.5806   -0.0011 C   0  0  0  0  0  0  0  0  0  0  0  0
  1  2  1  0
  1  4  1  0
  1  5  1  0
  1  6  1  0
  2  7  1  0
  3  8  1  0
  7  8  1  0
M  END
>  <PUBCHEM_COMPOUND_CID>  (1) 
22053

>  <PUBCHEM_CONFORMER_RMSD>  (1) 
0.6

>  <PUBCHEM_CONFORMER_DIVERSEORDER>  (1) 
1
2

>  <PUBCHEM_MMFF94_PARTIAL_CHARGES>  (1) 
10
1 0.54
2 -0.58
22 0.36
23 0.36
3 -0.99
4 -0.08
5 -0.08
6 -0.08
7 0.28
8 0.27

>  <PUBCHEM_EFFECTIVE_ROTOR_COUNT>  (1) 
3

>  <PUBCHEM_PHARMACOPHORE_FEATURES>  (1) 
2
1 3 cation
1 3 donor

>  <PUBCHEM_HEAVY_ATOM_COUNT>  (1) 
8

>  <PUBCHEM_ATOM_DEF_STEREO_COUNT>  (1) 
0

>  <PUBCHEM_ATOM_UDEF_STEREO_COUNT>  (1) 
0

>  <PUBCHEM_BOND_DEF_STEREO_COUNT>  (1) 
0

>  <PUBCHEM_BOND_UDEF_STEREO_COUNT>  (1) 
0

>  <PUBCHEM_ISOTOPIC_ATOM_COUNT>  (1) 
0

>  <PUBCHEM_COMPONENT_COUNT>  (1) 
1

>  <PUBCHEM_CACTVS_TAUTO_COUNT>  (1) 
1

>  <PUBCHEM_CONFORMER_ID>  (1) 
0000562500000001

>  <PUBCHEM_MMFF94_ENERGY>  (1) 
0.7919

>  <PUBCHEM_FEATURE_SELFOVERLAP>  (1) 
10.148

>  <PUBCHEM_SHAPE_FINGERPRINT>  (1) 
12932764 1 18041003891009277373
14390081 3 18259985980955795477
170605 34 18338238270775562420
23235685 24 17989483056469164860
23552333 60 18409164394318182520
23552423 10 17987247633371028119
23552449 11 18262230028305700946
3248919 1 18131344177283995721
5084963 1 17560244608906348055
8030462 33 17603875455332275637

>  <PUBCHEM_SHAPE_MULTIPOLES>  (1) 
172
4.81
1.26
1.23
5.34
0.13
-0.06
0.51
0.03
-0.92
0.04
-0.95
-0.57
-0.01

>  <PUBCHEM_SHAPE_SELFOVERLAP>  (1) 
288.272

>  <PUBCHEM_SHAPE_VOLUME>  (1) 
117.5

>  <PUBCHEM_COORDINATE_TYPE>  (1) 
2
5
10

$$$$
