22068
     RDKit          3D

 15 16  0  0  1  0  0  0  0  0999 V2000
    0.4386   -0.3842   -0.5152 C   0  0  0  0  0  0  0  0  0  0  0  0
   -0.4700   -0.1816    0.7277 C   0  0  0  0  0  0  0  0  0  0  0  0
    1.9000   -0.0897   -0.2163 C   0  0  0  0  0  0  0  0  0  0  0  0
    0.2712   -1.7954   -1.0920 C   0  0  0  0  0  0  0  0  0  0  0  0
   -1.9104    0.0247    0.3998 C   0  0  0  0  0  0  0  0  0  0  0  0
    2.4029   -0.3995    1.0317 C   0  0  0  0  0  0  0  0  0  0  0  0
    2.6825    0.4797   -1.2012 C   0  0  0  0  0  0  0  0  0  0  0  0
   -2.3998    1.3134    0.1871 C   0  0  0  0  0  0  0  0  0  0  0  0
   -2.7683   -1.0714    0.3062 C   0  0  0  0  0  0  0  0  0  0  0  0
    3.7435   -0.1291    1.3060 C   0  0  0  0  0  0  0  0  0  0  0  0
    4.0231    0.7499   -0.9270 C   0  0  0  0  0  0  0  0  0  0  0  0
   -3.7469    1.5061   -0.1194 C   0  0  0  0  0  0  0  0  0  0  0  0
   -4.1153   -0.8786   -0.0005 C   0  0  0  0  0  0  0  0  0  0  0  0
    4.5537    0.4456    0.3266 C   0  0  0  0  0  0  0  0  0  0  0  0
   -4.6047    0.4101   -0.2133 C   0  0  0  0  0  0  0  0  0  0  0  0
  1  2  1  0
  1  3  1  0
  1  4  1  0
  2  5  1  0
  3  6  2  0
  3  7  1  0
  5  8  2  0
  5  9  1  0
  6 10  1  0
  7 11  2  0
  8 12  1  0
  9 13  2  0
 10 14  2  0
 11 14  1  0
 12 15  2  0
 13 15  1  0
M  END
>  <PUBCHEM_COMPOUND_CID>  (1) 
22068

>  <PUBCHEM_CONFORMER_RMSD>  (1) 
0.6

>  <PUBCHEM_CONFORMER_DIVERSEORDER>  (1) 
1
7
2
6
9
4
3
5
8
10

>  <PUBCHEM_MMFF94_PARTIAL_CHARGES>  (1) 
24
1 0.14
10 -0.15
11 -0.15
12 -0.15
13 -0.15
14 -0.15
15 -0.15
2 0.14
22 0.15
23 0.15
24 0.15
25 0.15
26 0.15
27 0.15
28 0.15
29 0.15
3 -0.14
30 0.15
31 0.15
5 -0.14
6 -0.15
7 -0.15
8 -0.15
9 -0.15

>  <PUBCHEM_EFFECTIVE_ROTOR_COUNT>  (1) 
3

>  <PUBCHEM_PHARMACOPHORE_FEATURES>  (1) 
3
1 4 hydrophobe
6 3 6 7 10 11 14 rings
6 5 8 9 12 13 15 rings

>  <PUBCHEM_HEAVY_ATOM_COUNT>  (1) 
15

>  <PUBCHEM_ATOM_DEF_STEREO_COUNT>  (1) 
0

>  <PUBCHEM_ATOM_UDEF_STEREO_COUNT>  (1) 
1

>  <PUBCHEM_BOND_DEF_STEREO_COUNT>  (1) 
0

>  <PUBCHEM_BOND_UDEF_STEREO_COUNT>  (1) 
0

>  <PUBCHEM_ISOTOPIC_ATOM_COUNT>  (1) 
0

>  <PUBCHEM_COMPONENT_COUNT>  (1) 
1

>  <PUBCHEM_CACTVS_TAUTO_COUNT>  (1) 
1

>  <PUBCHEM_CONFORMER_ID>  (1) 
0000563400000001

>  <PUBCHEM_MMFF94_ENERGY>  (1) 
42.8835

>  <PUBCHEM_FEATURE_SELFOVERLAP>  (1) 
15.223

>  <PUBCHEM_SHAPE_FINGERPRINT>  (1) 
10498660 4 18201441337378439809
1100329 8 10898681025028730541
11132069 177 18409168788048672541
11471102 20 15339120156582905482
12107183 9 17246937550843453264
12162725 195 18113059337225966645
12236239 1 18186518826254305962
12251169 10 17312822675786939130
12507557 5 18113335340499089165
12670546 56 17676479553762083676
128620 24 17418093217480830653
13167823 11 17822008726586653379
14004511 7 16732703839739599361
14252887 29 13839982205686597360
17834072 33 17603868944030038122
18186145 218 16845576417617916410
19026448 5 17894347795537741290
19050596 39 17967252000691647137
19784866 240 11383572083013960900
200 152 17603862334339100611
20233049 118 18413671318514204848
20279233 1 17704072893188053559
20645477 70 15769505261460630476
22485316 2 8934998161730208896
23048698 100 17385443223941516888
23184049 59 15430036552016035170
23402539 116 18261104197603833271
23557571 272 18202016412546380869
23559900 14 18269560438021547614
265663 24 18186236238295724154
26918003 58 15285358422603306520
2838139 119 16299489601914056989
3268164 11 18272360976074025357
351380 180 18335417980305543148
4028521 119 17275103920679587301
42 15 15647053750491056713
474 4 16952263242427226996
4990 188 16343707625164561540
5281201 14 16271936995235559664
542803 24 18113338613084437189
573450 72 18186793678080242667
81539 233 18341049627371137174
8272917 22 17821727187438666786
9971528 1 17603302631723684140

>  <PUBCHEM_SHAPE_MULTIPOLES>  (1) 
308.69
9.77
1.33
1.12
0.66
0.1
-0.01
-2.3
0.35
0.97
-0.25
-1.07
0.11
-0.21

>  <PUBCHEM_SHAPE_SELFOVERLAP>  (1) 
653.783

>  <PUBCHEM_SHAPE_VOLUME>  (1) 
164.8

>  <PUBCHEM_COORDINATE_TYPE>  (1) 
2
5
10

$$$$
