22063
     RDKit          3D

  8  8  0  0  0  0  0  0  0  0999 V2000
    0.8296   -1.4160   -0.0047 S   0  0  0  0  0  0  0  0  0  0  0  0
   -2.1258   -1.1391    0.0083 O   0  0  0  0  0  0  0  0  0  0  0  0
   -2.2478    1.1507   -0.0029 N   0  0  0  0  0  0  0  0  0  0  0  0
   -0.0830    0.0329   -0.0017 C   0  0  0  0  0  0  0  0  0  0  0  0
    0.7221    1.1509    0.0026 C   0  0  0  0  0  0  0  0  0  0  0  0
    2.1063    0.8135    0.0033 C   0  0  0  0  0  0  0  0  0  0  0  0
    2.3066   -0.5495   -0.0004 C   0  0  0  0  0  0  0  0  0  0  0  0
   -1.5080   -0.0434   -0.0045 C   0  0  0  0  0  0  0  0  0  0  0  0
  1  4  1  0
  1  7  1  0
  2  8  2  0
  3  8  1  0
  4  5  2  0
  4  8  1  0
  5  6  1  0
  6  7  2  0
M  END
>  <PUBCHEM_COMPOUND_CID>  (1) 
22063

>  <PUBCHEM_CONFORMER_RMSD>  (1) 
0.4

>  <PUBCHEM_CONFORMER_DIVERSEORDER>  (1) 
1
3
2
4

>  <PUBCHEM_MMFF94_PARTIAL_CHARGES>  (1) 
13
1 -0.08
10 0.15
11 0.15
12 0.37
13 0.37
2 -0.57
3 -0.8
4 -0.05
5 -0.15
6 -0.15
7 -0.11
8 0.71
9 0.15

>  <PUBCHEM_EFFECTIVE_ROTOR_COUNT>  (1) 
1

>  <PUBCHEM_PHARMACOPHORE_FEATURES>  (1) 
3
1 2 acceptor
1 3 donor
5 1 4 5 6 7 rings

>  <PUBCHEM_HEAVY_ATOM_COUNT>  (1) 
8

>  <PUBCHEM_ATOM_DEF_STEREO_COUNT>  (1) 
0

>  <PUBCHEM_ATOM_UDEF_STEREO_COUNT>  (1) 
0

>  <PUBCHEM_BOND_DEF_STEREO_COUNT>  (1) 
0

>  <PUBCHEM_BOND_UDEF_STEREO_COUNT>  (1) 
0

>  <PUBCHEM_ISOTOPIC_ATOM_COUNT>  (1) 
0

>  <PUBCHEM_COMPONENT_COUNT>  (1) 
1

>  <PUBCHEM_CACTVS_TAUTO_COUNT>  (1) 
2

>  <PUBCHEM_CONFORMER_ID>  (1) 
0000562F00000001

>  <PUBCHEM_MMFF94_ENERGY>  (1) 
10.5078

>  <PUBCHEM_FEATURE_SELFOVERLAP>  (1) 
15.223

>  <PUBCHEM_SHAPE_FINGERPRINT>  (1) 
12897270 3 18338232777422538327
14325111 11 18410856590100316448
14390081 3 18343298175799334817
18185500 45 18339922615046204418
20096714 4 18411418440330989984
21040471 1 18338797943795277572
23552423 10 18333454226889694886
24536 1 18337375106755184589
29004967 10 18410014325396192818
5084963 1 18200599214602915242

>  <PUBCHEM_SHAPE_MULTIPOLES>  (1) 
157.64
3.25
1.47
0.61
0.69
0.15
0
-0.16
0
-0.02
0
-0.06
0.01
0

>  <PUBCHEM_SHAPE_SELFOVERLAP>  (1) 
313.099

>  <PUBCHEM_SHAPE_VOLUME>  (1) 
94.6

>  <PUBCHEM_COORDINATE_TYPE>  (1) 
2
5
10

$$$$
