22076
     RDKit          3D

 19 19  0  0  0  0  0  0  0  0999 V2000
    1.8666    0.0445    0.7646 P   0  0  0  0  0  0  0  0  0  0  0  0
    1.0747   -1.2512    0.2005 O   0  0  0  0  0  0  0  0  0  0  0  0
    1.7642    1.1236   -0.4404 O   0  0  0  0  0  0  0  0  0  0  0  0
    3.4208   -0.4189    0.7464 O   0  0  0  0  0  0  0  0  0  0  0  0
    1.4019    0.5353    2.1068 O   0  0  0  0  0  0  0  0  0  0  0  0
   -3.2642    0.9108    0.1751 N   0  0  0  0  0  0  0  0  0  0  0  0
   -2.3850   -0.3158   -0.0803 C   0  0  0  0  0  0  0  0  0  0  0  0
   -4.3267    0.5465    1.2081 C   0  0  0  0  0  0  0  0  0  0  0  0
   -3.9095    1.3350   -1.1412 C   0  0  0  0  0  0  0  0  0  0  0  0
   -2.4625    2.0938    0.7140 C   0  0  0  0  0  0  0  0  0  0  0  0
   -1.0630   -0.1895    0.1865 C   0  0  0  0  0  0  0  0  0  0  0  0
   -3.0034   -1.4246   -0.5528 C   0  0  0  0  0  0  0  0  0  0  0  0
   -0.2623   -1.3074   -0.0474 C   0  0  0  0  0  0  0  0  0  0  0  0
   -2.2027   -2.5425   -0.7868 C   0  0  0  0  0  0  0  0  0  0  0  0
   -0.8321   -2.4839   -0.5341 C   0  0  0  0  0  0  0  0  0  0  0  0
    2.4894    2.3354   -0.3241 C   0  0  0  0  0  0  0  0  0  0  0  0
    4.0021   -0.9059   -0.4510 C   0  0  0  0  0  0  0  0  0  0  0  0
    2.2424    3.1782   -1.5570 C   0  0  0  0  0  0  0  0  0  0  0  0
    5.4492   -1.2634   -0.1868 C   0  0  0  0  0  0  0  0  0  0  0  0
  1  2  1  0
  1  3  1  0
  1  4  1  0
  1  5  2  0
  2 13  1  0
  3 16  1  0
  4 17  1  0
  6  7  1  0
  6  8  1  0
  6  9  1  0
  6 10  1  0
  7 11  2  0
  7 12  1  0
 11 13  1  0
 12 14  2  0
 13 15  2  0
 14 15  1  0
 16 18  1  0
 17 19  1  0
M  CHG  1   6   1
M  END
>  <PUBCHEM_COMPOUND_CID>  (1) 
22076

>  <PUBCHEM_CONFORMER_RMSD>  (1) 
0.8

>  <PUBCHEM_CONFORMER_DIVERSEORDER>  (1) 
1
41
48
76
31
2
15
63
36
42
16
11
12
8
35
13
26
74
68
4
64
21
19
30
28
7
38
62
46
66
18
25
58
34
69
6
55
20
24
61
50
22
43
70
52
3
9
54
14
71
56
23
67
77
29
47
33
27
73
57
49
5
17
51
40
53
72
37
78
10
79
45
75
65
32
44
59
39
60

>  <PUBCHEM_MMFF94_PARTIAL_CHARGES>  (1) 
21
1 1.51
10 0.5
11 -0.15
12 -0.15
13 0.08
14 -0.15
15 -0.15
16 0.28
17 0.28
2 -0.35
29 0.15
3 -0.55
30 0.15
31 0.15
32 0.15
4 -0.55
5 -0.7
6 -0.87
7 0.36
8 0.5
9 0.5

>  <PUBCHEM_EFFECTIVE_ROTOR_COUNT>  (1) 
7

>  <PUBCHEM_PHARMACOPHORE_FEATURES>  (1) 
3
1 5 acceptor
1 6 cation
6 7 11 12 13 14 15 rings

>  <PUBCHEM_HEAVY_ATOM_COUNT>  (1) 
19

>  <PUBCHEM_ATOM_DEF_STEREO_COUNT>  (1) 
0

>  <PUBCHEM_ATOM_UDEF_STEREO_COUNT>  (1) 
0

>  <PUBCHEM_BOND_DEF_STEREO_COUNT>  (1) 
0

>  <PUBCHEM_BOND_UDEF_STEREO_COUNT>  (1) 
0

>  <PUBCHEM_ISOTOPIC_ATOM_COUNT>  (1) 
0

>  <PUBCHEM_COMPONENT_COUNT>  (1) 
1

>  <PUBCHEM_CACTVS_TAUTO_COUNT>  (1) 
1

>  <PUBCHEM_CONFORMER_ID>  (1) 
0000563C00000001

>  <PUBCHEM_MMFF94_ENERGY>  (1) 
55.1646

>  <PUBCHEM_FEATURE_SELFOVERLAP>  (1) 
15.223

>  <PUBCHEM_SHAPE_FINGERPRINT>  (1) 
10756046 5 18337393867494217108
13140716 1 18340210781645175059
13583140 156 17603582989956176523
14115302 16 18202286900579926112
14787075 74 16958727399977795627
14957384 54 18113887239712498749
15442244 35 18410574015733193524
17492 89 18266176321762706910
17804303 29 18201998837223791914
18186145 218 18341607114009678043
20671657 1 18336835293975697068
21069387 34 15985101899291847422
21501502 16 18268995460648110830
21503847 285 17967812760396610508
21524375 3 18202281382022015983
22094290 62 18410291415116400560
23402539 116 15338829824951230922
23419403 2 8634302884442741179
23557571 272 17844810489144385088
23558518 356 18264204901540091418
23559900 14 17846492639562614210
23598291 2 18335983168221463790
312423 11 18264212585120227543
350125 39 18341054098674574699
44154327 71 18411990173967675193
474 4 17533493701836225036
53777708 50 18194969762498166622
58051976 100 18408604772853879375
633830 44 17240483637011281476
7164475 11 18125711529132949975
74978 22 18336261335941649926
7832392 63 18335135414760326932
81228 2 17911218827126053619
9981440 41 17470448899338113920

>  <PUBCHEM_SHAPE_MULTIPOLES>  (1) 
366.4
8.65
3.06
1.26
4.78
1.03
0.23
0.03
-0.24
0.4
-1.35
-0.05
0.56
-1.1

>  <PUBCHEM_SHAPE_SELFOVERLAP>  (1) 
714.791

>  <PUBCHEM_SHAPE_VOLUME>  (1) 
224.6

>  <PUBCHEM_COORDINATE_TYPE>  (1) 
2
5
10

$$$$
