22084
     RDKit          3D

 10  9  0  0  0  0  0  0  0  0999 V2000
    1.3433    1.6456   -0.0031 O   0  0  0  0  0  0  0  0  0  0  0  0
    2.6107   -0.2967   -0.0094 N   0  0  0  0  0  0  0  0  0  0  0  0
   -1.1343    0.4331    0.0381 C   0  0  0  0  0  0  0  0  0  0  0  0
   -2.3934   -0.4349    0.0223 C   0  0  0  0  0  0  0  0  0  0  0  0
    0.1328   -0.4237    0.0254 C   0  0  0  0  0  0  0  0  0  0  0  0
   -3.6591    0.4216    0.0011 C   0  0  0  0  0  0  0  0  0  0  0  0
    1.4053    0.4133    0.0032 C   0  0  0  0  0  0  0  0  0  0  0  0
   -4.9123   -0.4378   -0.0482 C   0  0  0  0  0  0  0  0  0  0  0  0
    3.8731    0.4320   -0.0311 C   0  0  0  0  0  0  0  0  0  0  0  0
    2.7340   -1.7525    0.0018 C   0  0  0  0  0  0  0  0  0  0  0  0
  1  7  2  0
  2  7  1  0
  2  9  1  0
  2 10  1  0
  3  4  1  0
  3  5  1  0
  4  6  1  0
  5  7  1  0
  6  8  1  0
M  END
>  <PUBCHEM_COMPOUND_CID>  (1) 
22084

>  <PUBCHEM_CONFORMER_RMSD>  (1) 
0.6

>  <PUBCHEM_CONFORMER_DIVERSEORDER>  (1) 
1
31
45
27
48
44
11
40
15
3
8
7
19
46
13
22
43
39
20
47
4
14
30
28
37
41
10
38
34
5
35
18
23
25
29
26
36
9
42
24
21
12
33
16
2
32
17
6

>  <PUBCHEM_MMFF94_PARTIAL_CHARGES>  (1) 
6
1 -0.57
10 0.3
2 -0.66
5 0.06
7 0.57
9 0.3

>  <PUBCHEM_EFFECTIVE_ROTOR_COUNT>  (1) 
5

>  <PUBCHEM_PHARMACOPHORE_FEATURES>  (1) 
3
1 1 acceptor
1 8 hydrophobe
4 3 4 5 6 hydrophobe

>  <PUBCHEM_HEAVY_ATOM_COUNT>  (1) 
10

>  <PUBCHEM_ATOM_DEF_STEREO_COUNT>  (1) 
0

>  <PUBCHEM_ATOM_UDEF_STEREO_COUNT>  (1) 
0

>  <PUBCHEM_BOND_DEF_STEREO_COUNT>  (1) 
0

>  <PUBCHEM_BOND_UDEF_STEREO_COUNT>  (1) 
0

>  <PUBCHEM_ISOTOPIC_ATOM_COUNT>  (1) 
0

>  <PUBCHEM_COMPONENT_COUNT>  (1) 
1

>  <PUBCHEM_CACTVS_TAUTO_COUNT>  (1) 
1

>  <PUBCHEM_CONFORMER_ID>  (1) 
0000564400000001

>  <PUBCHEM_MMFF94_ENERGY>  (1) 
9.689

>  <PUBCHEM_FEATURE_SELFOVERLAP>  (1) 
15.223

>  <PUBCHEM_SHAPE_FINGERPRINT>  (1) 
10219947 1 18272091578112632630
11062470 55 17846498136192155857
11987891 38 18411139147614812843
12932764 1 17418078910775936544
14123238 8 18412544327526997567
14251717 144 18409728435030097611
14252887 29 18130512955015019766
14325111 11 18410575076358006923
15477762 27 18410293614060534878
177051 138 18130788932275199599
17834074 16 18334018319626573299
190213 19 13262398851821173961
20201158 50 18335141989970323738
20279233 1 17894919528699400050
20645477 70 18338516339622038214
20871998 22 18055637218433916870
22485316 2 18412259536914831111
23402655 69 18411413991056263893

>  <PUBCHEM_SHAPE_MULTIPOLES>  (1) 
194.94
8.55
1.27
0.6
6.63
0.16
0
1.03
-0.16
-1.06
0
0.04
0.01
-0.02

>  <PUBCHEM_SHAPE_SELFOVERLAP>  (1) 
351.527

>  <PUBCHEM_SHAPE_VOLUME>  (1) 
127

>  <PUBCHEM_COORDINATE_TYPE>  (1) 
2
5
10

$$$$
