22098
     RDKit          3D

 19 19  0  0  0  0  0  0  0  0999 V2000
    5.0524    2.2512    0.0553 Cl  0  0  0  0  0  0  0  0  0  0  0  0
    2.9981   -2.2718   -0.4682 Cl  0  0  0  0  0  0  0  0  0  0  0  0
    0.1685    1.1314   -0.7273 O   0  0  0  0  0  0  0  0  0  0  0  0
   -0.8258   -1.3146    0.7522 O   0  0  0  0  0  0  0  0  0  0  0  0
   -3.3483    1.0765   -0.0512 O   0  0  0  0  0  0  0  0  0  0  0  0
   -2.2378    2.7706   -1.1509 O   0  0  0  0  0  0  0  0  0  0  0  0
   -3.7304   -0.9014    1.0694 O   0  0  0  0  0  0  0  0  0  0  0  0
    0.8420    1.0568    1.4971 O   0  0  0  0  0  0  0  0  0  0  0  0
   -0.1917   -1.7522   -1.4416 O   0  0  0  0  0  0  0  0  0  0  0  0
   -1.1173    0.8230   -0.3271 C   0  0  0  0  0  0  0  0  0  0  0  0
   -1.5536   -0.2504    0.3222 C   0  0  0  0  0  0  0  0  0  0  0  0
    2.4186    1.6025   -0.2712 C   0  0  0  0  0  0  0  0  0  0  0  0
    0.5642   -3.1875    0.3692 C   0  0  0  0  0  0  0  0  0  0  0  0
   -2.2579    1.6963   -0.5796 C   0  0  0  0  0  0  0  0  0  0  0  0
   -2.9921   -0.1098    0.5134 C   0  0  0  0  0  0  0  0  0  0  0  0
    1.0703    1.2201    0.3056 C   0  0  0  0  0  0  0  0  0  0  0  0
   -0.1683   -2.0118   -0.2455 C   0  0  0  0  0  0  0  0  0  0  0  0
    3.5014    1.7672    0.7862 C   0  0  0  0  0  0  0  0  0  0  0  0
    1.8078   -3.5959   -0.4081 C   0  0  0  0  0  0  0  0  0  0  0  0
  1 18  1  0
  2 19  1  0
  3 10  1  0
  3 16  1  0
  4 11  1  0
  4 17  1  0
  5 14  1  0
  5 15  1  0
  6 14  2  0
  7 15  2  0
  8 16  2  0
  9 17  2  0
 10 11  2  0
 10 14  1  0
 11 15  1  0
 12 16  1  0
 12 18  1  0
 13 17  1  0
 13 19  1  0
M  END
>  <PUBCHEM_COMPOUND_CID>  (1) 
22098

>  <PUBCHEM_CONFORMER_RMSD>  (1) 
0.8

>  <PUBCHEM_CONFORMER_DIVERSEORDER>  (1) 
1
109
252
202
13
167
254
57
283
120
9
87
278
182
5
143
38
75
31
290
97
266
282
262
217
113
90
244
137
121
271
19
141
193
134
198
240
105
102
289
103
81
119
174
63
106
17
124
245
110
218
77
159
255
175
154
128
184
127
55
287
86
82
12
149
20
171
248
111
80
179
187
51
71
207
210
241
36
256
274
6
126
233
172
116
125
293
139
257
243
16
88
237
263
214
68
158
115
48
223
170
114
249
79
53
144
181
173
112
92
101
99
4
14
157
108
291
247
191
196
225
268
66
156
189
24
136
89
259
151
251
275
253
33
213
74
98
62
3
188
236
11
208
69
166
129
285
230
145
227
250
194
133
264
226
67
37
286
279
219
43
190
177
78
205
168
203
54
155
258
200
7
41
211
93
49
180
272
118
235
195
70
28
47
96
32
206
23
65
95
150
231
209
277
288
270
185
35
76
228
162
169
164
153
276
104
267
165
60
222
91
83
265
130
161
186
131
239
39
10
84
199
238
292
281
234
56
201
216
229
15
152
138
197
42
176
260
178
122
72
100
46
107
232
212
224
64
192
183
34
50
117
160
220
85
284
215
142
25
246
29
269
61
94
21
280
59
140
163
123
204
146
18
147
26
27
135
261
2
221
148
40
52
22
242
8
45
73
132
30
44
58
273

>  <PUBCHEM_MMFF94_PARTIAL_CHARGES>  (1) 
19
1 -0.29
10 0.09
11 0.09
12 0.06
13 0.06
14 0.71
15 0.71
16 0.66
17 0.66
18 0.29
19 0.29
2 -0.29
3 -0.23
4 -0.23
5 -0.3
6 -0.57
7 -0.57
8 -0.57
9 -0.57

>  <PUBCHEM_EFFECTIVE_ROTOR_COUNT>  (1) 
8.2

>  <PUBCHEM_PHARMACOPHORE_FEATURES>  (1) 
5
1 6 acceptor
1 7 acceptor
1 8 acceptor
1 9 acceptor
5 5 10 11 14 15 rings

>  <PUBCHEM_HEAVY_ATOM_COUNT>  (1) 
19

>  <PUBCHEM_ATOM_DEF_STEREO_COUNT>  (1) 
0

>  <PUBCHEM_ATOM_UDEF_STEREO_COUNT>  (1) 
0

>  <PUBCHEM_BOND_DEF_STEREO_COUNT>  (1) 
0

>  <PUBCHEM_BOND_UDEF_STEREO_COUNT>  (1) 
0

>  <PUBCHEM_ISOTOPIC_ATOM_COUNT>  (1) 
0

>  <PUBCHEM_COMPONENT_COUNT>  (1) 
1

>  <PUBCHEM_CACTVS_TAUTO_COUNT>  (1) 
1

>  <PUBCHEM_CONFORMER_ID>  (1) 
0000565200000001

>  <PUBCHEM_MMFF94_ENERGY>  (1) 
28.9628

>  <PUBCHEM_FEATURE_SELFOVERLAP>  (1) 
25.374

>  <PUBCHEM_SHAPE_FINGERPRINT>  (1) 
11112241 14 16986845009556504610
11578080 2 16300055802187497599
12553582 1 16536800894045037686
12592029 89 18410580595475495738
13004483 165 17116898770651986066
13140716 1 18265619788110091641
15006816 218 18411697652271515786
15042514 8 17974573803356115242
15309172 13 18339644559048318193
167882 2 18338227155579301724
16945 1 18262525930204334741
18785283 64 18264216811399799352
20871998 184 18191023602370698513
21339142 51 17832148216865457343
22182313 1 18041282059288529101
23402539 116 18195803196775767317
23559900 14 17398951574677465298
23728640 28 18122058973433728802
266924 87 18337657673149740477
2748010 2 18334573495335436053
3250762 1 18191024500277215717
3298306 158 18411980235465788164
43471831 8 18408885169814741835
465052 167 17317620017313893451
4663303 62 18340486643115486339
5265222 85 18193849352446089588
532947 4 18268702823626215934
7364860 26 18339921489685534649
81228 2 17405686555769051611
90525 40 18261663895829291368

>  <PUBCHEM_SHAPE_MULTIPOLES>  (1) 
353.67
6.42
4.14
1.04
4.29
3.48
-0.02
-4.76
-0.83
2.75
0.75
-0.2
-0.09
1.17

>  <PUBCHEM_SHAPE_SELFOVERLAP>  (1) 
712.58

>  <PUBCHEM_SHAPE_VOLUME>  (1) 
207.2

>  <PUBCHEM_COORDINATE_TYPE>  (1) 
2
5
10

$$$$
