22096
     RDKit          3D

 17 17  0  0  0  0  0  0  0  0999 V2000
    0.2003   -1.3162   -0.7463 O   0  0  0  0  0  0  0  0  0  0  0  0
    0.1559    1.3166    0.7457 O   0  0  0  0  0  0  0  0  0  0  0  0
   -3.0600   -0.0326   -0.0045 O   0  0  0  0  0  0  0  0  0  0  0  0
   -2.6359   -2.0017   -1.1248 O   0  0  0  0  0  0  0  0  0  0  0  0
   -2.7024    1.9503    1.1154 O   0  0  0  0  0  0  0  0  0  0  0  0
    0.9007   -1.4950    1.4642 O   0  0  0  0  0  0  0  0  0  0  0  0
    0.8670    1.5153   -1.4595 O   0  0  0  0  0  0  0  0  0  0  0  0
   -0.8876   -0.5776   -0.3232 C   0  0  0  0  0  0  0  0  0  0  0  0
   -0.9071    0.5779    0.3317 C   0  0  0  0  0  0  0  0  0  0  0  0
    2.1759   -2.5036   -0.3401 C   0  0  0  0  0  0  0  0  0  0  0  0
    2.1344    2.5389    0.3421 C   0  0  0  0  0  0  0  0  0  0  0  0
   -2.2668   -0.9929   -0.5529 C   0  0  0  0  0  0  0  0  0  0  0  0
   -2.2995    0.9517    0.5485 C   0  0  0  0  0  0  0  0  0  0  0  0
    1.0328   -1.7216    0.2686 C   0  0  0  0  0  0  0  0  0  0  0  0
    0.9993    1.7433   -0.2643 C   0  0  0  0  0  0  0  0  0  0  0  0
    3.1713   -2.9722    0.7070 C   0  0  0  0  0  0  0  0  0  0  0  0
    3.1217    3.0193   -0.7073 C   0  0  0  0  0  0  0  0  0  0  0  0
  1  8  1  0
  1 14  1  0
  2  9  1  0
  2 15  1  0
  3 12  1  0
  3 13  1  0
  4 12  2  0
  5 13  2  0
  6 14  2  0
  7 15  2  0
  8  9  2  0
  8 12  1  0
  9 13  1  0
 10 14  1  0
 10 16  1  0
 11 15  1  0
 11 17  1  0
M  END
>  <PUBCHEM_COMPOUND_CID>  (1) 
22096

>  <PUBCHEM_CONFORMER_RMSD>  (1) 
0.8

>  <PUBCHEM_CONFORMER_DIVERSEORDER>  (1) 
1
38
16
11
9
44
23
47
30
4
45
25
20
6
13
46
37
28
24
8
40
2
15
3
43
42
34
36
26
32
22
27
35
29
18
33
48
31
12
19
41
21
17
5
10
14
7
39

>  <PUBCHEM_MMFF94_PARTIAL_CHARGES>  (1) 
15
1 -0.23
10 0.06
11 0.06
12 0.71
13 0.71
14 0.66
15 0.66
2 -0.23
3 -0.3
4 -0.57
5 -0.57
6 -0.57
7 -0.57
8 0.09
9 0.09

>  <PUBCHEM_EFFECTIVE_ROTOR_COUNT>  (1) 
6.2

>  <PUBCHEM_PHARMACOPHORE_FEATURES>  (1) 
7
1 16 hydrophobe
1 17 hydrophobe
1 4 acceptor
1 5 acceptor
1 6 acceptor
1 7 acceptor
5 3 8 9 12 13 rings

>  <PUBCHEM_HEAVY_ATOM_COUNT>  (1) 
17

>  <PUBCHEM_ATOM_DEF_STEREO_COUNT>  (1) 
0

>  <PUBCHEM_ATOM_UDEF_STEREO_COUNT>  (1) 
0

>  <PUBCHEM_BOND_DEF_STEREO_COUNT>  (1) 
0

>  <PUBCHEM_BOND_UDEF_STEREO_COUNT>  (1) 
0

>  <PUBCHEM_ISOTOPIC_ATOM_COUNT>  (1) 
0

>  <PUBCHEM_COMPONENT_COUNT>  (1) 
1

>  <PUBCHEM_CACTVS_TAUTO_COUNT>  (1) 
1

>  <PUBCHEM_CONFORMER_ID>  (1) 
0000565000000001

>  <PUBCHEM_MMFF94_ENERGY>  (1) 
24.4725

>  <PUBCHEM_FEATURE_SELFOVERLAP>  (1) 
35.523

>  <PUBCHEM_SHAPE_FINGERPRINT>  (1) 
10989021 7 18337665309168991086
11578080 2 17604417505721608566
14181834 199 18338237063852790525
14955137 171 17765747661702119955
15490181 8 18117567433663036160
16945 1 18412544314373076805
19868273 325 17976533918960874878
20028762 73 16470948930291563830
20510252 161 17693385846303701136
20600515 1 17912364221461625998
20723712 36 17553228518088892553
21665056 4 17903642131195556476
23402539 116 17768529735247814525
23419403 2 17896868859915749204
23728640 28 17689426509954683760
25147074 1 18202565082049781007
2748010 2 16685715918554016221
305870 269 18337678614793226773
4175511 71 18122916330051394306
43471831 8 18194679491291153698
6992083 37 18055356829661692147
7364860 26 18413108363748442112
81228 2 17619352004795238106
90316 7 17760356704657087322

>  <PUBCHEM_SHAPE_MULTIPOLES>  (1) 
308.77
4.64
3.94
1.1
0.5
0.11
0
-0.07
-0.04
-4.58
0.03
0.04
0
-1.56

>  <PUBCHEM_SHAPE_SELFOVERLAP>  (1) 
641.43

>  <PUBCHEM_SHAPE_VOLUME>  (1) 
176.1

>  <PUBCHEM_COORDINATE_TYPE>  (1) 
2
5
10

$$$$
