22109
     RDKit          3D

 11 11  0  0  0  0  0  0  0  0999 V2000
   -2.5545    2.1614   -0.0011 Br  0  0  0  0  0  0  0  0  0  0  0  0
   -3.1230   -0.9057   -0.0005 O   0  0  0  0  0  0  0  0  0  0  0  0
    3.1464   -0.7680   -0.0004 O   0  0  0  0  0  0  0  0  0  0  0  0
    2.7275    1.3869   -0.0001 O   0  0  0  0  0  0  0  0  0  0  0  0
    2.3402    0.1935    0.0000 N   0  0  0  0  0  0  0  0  0  0  0  0
    0.9463   -0.0777    0.0000 C   0  0  0  0  0  0  0  0  0  0  0  0
    0.0305    0.9745    0.0008 C   0  0  0  0  0  0  0  0  0  0  0  0
    0.4930   -1.3969   -0.0005 C   0  0  0  0  0  0  0  0  0  0  0  0
   -1.7918   -0.6116    0.0008 C   0  0  0  0  0  0  0  0  0  0  0  0
   -1.3386    0.7075    0.0010 C   0  0  0  0  0  0  0  0  0  0  0  0
   -0.8760   -1.6638    0.0000 C   0  0  0  0  0  0  0  0  0  0  0  0
  1 10  1  0
  2  9  1  0
  3  5  1  0
  4  5  2  0
  5  6  1  0
  6  7  2  0
  6  8  1  0
  7 10  1  0
  8 11  2  0
  9 10  2  0
  9 11  1  0
M  CHG  2   3  -1   5   1
M  END
>  <PUBCHEM_COMPOUND_CID>  (1) 
22109

>  <PUBCHEM_CONFORMER_RMSD>  (1) 
0.4

>  <PUBCHEM_CONFORMER_DIVERSEORDER>  (1) 
1

>  <PUBCHEM_MMFF94_PARTIAL_CHARGES>  (1) 
15
1 -0.11
10 0.11
11 -0.15
12 0.15
13 0.15
14 0.15
15 0.45
2 -0.53
3 -0.52
4 -0.52
5 0.91
6 0.13
7 -0.15
8 -0.15
9 0.08

>  <PUBCHEM_EFFECTIVE_ROTOR_COUNT>  (1) 
1

>  <PUBCHEM_PHARMACOPHORE_FEATURES>  (1) 
6
1 1 hydrophobe
1 2 donor
1 3 acceptor
1 3 anion
1 4 acceptor
6 6 7 8 9 10 11 rings

>  <PUBCHEM_HEAVY_ATOM_COUNT>  (1) 
11

>  <PUBCHEM_ATOM_DEF_STEREO_COUNT>  (1) 
0

>  <PUBCHEM_ATOM_UDEF_STEREO_COUNT>  (1) 
0

>  <PUBCHEM_BOND_DEF_STEREO_COUNT>  (1) 
0

>  <PUBCHEM_BOND_UDEF_STEREO_COUNT>  (1) 
0

>  <PUBCHEM_ISOTOPIC_ATOM_COUNT>  (1) 
0

>  <PUBCHEM_COMPONENT_COUNT>  (1) 
1

>  <PUBCHEM_CACTVS_TAUTO_COUNT>  (1) 
5

>  <PUBCHEM_CONFORMER_ID>  (1) 
0000565D00000001

>  <PUBCHEM_MMFF94_ENERGY>  (1) 
29.4965

>  <PUBCHEM_FEATURE_SELFOVERLAP>  (1) 
30.527

>  <PUBCHEM_SHAPE_FINGERPRINT>  (1) 
11206711 2 18411134745062071973
12932764 1 17561077051115101060
13380535 21 18195540194342457807
13380535 76 18194960747504042119
14325111 11 18410575071941908704
14897335 6 18194957448985164933
15775835 57 18189060806579660796
16945 1 18338516459875314887
193761 8 18122344571468357891
19973954 147 18410576205892506604
20653085 51 18337684026562458272
20871998 184 18128542741736503335
21040471 1 18338798905535674977
21501502 16 18265328409202455795
23402539 116 18342163510222879023
23402655 69 18124860289113190245
23552423 10 18333733507233179702
23559900 14 18200035028817498126
241688 4 17979911932498702859
2748010 2 18339366240824811495
369184 2 18342738554513944706
5084963 1 18273496783953260002
528886 8 18266734684405498433
6333449 129 18411697643444334301

>  <PUBCHEM_SHAPE_MULTIPOLES>  (1) 
209.73
4.4
2.03
0.6
1.24
0.19
0
1.3
0
-0.99
0
-0.09
0.02
0

>  <PUBCHEM_SHAPE_SELFOVERLAP>  (1) 
426.823

>  <PUBCHEM_SHAPE_VOLUME>  (1) 
126.4

>  <PUBCHEM_COORDINATE_TYPE>  (1) 
2
5
10

$$$$
