22111
     RDKit          3D

 40 44  0  0  0  0  0  0  0  0999 V2000
    8.7119    1.7825    0.8725 S   0  0  0  0  0  0  0  0  0  0  0  0
   -8.8277    1.7064   -0.9034 S   0  0  0  0  0  0  0  0  0  0  0  0
    9.4938    2.0893   -0.5268 O   0  0  0  0  0  0  0  0  0  0  0  0
   -9.6172    2.0436    0.4845 O   0  0  0  0  0  0  0  0  0  0  0  0
    8.4332    3.0621    1.5002 O   0  0  0  0  0  0  0  0  0  0  0  0
    9.4318    0.7403    1.5808 O   0  0  0  0  0  0  0  0  0  0  0  0
   -8.5497    2.9715   -1.5598 O   0  0  0  0  0  0  0  0  0  0  0  0
   -9.5414    0.6456   -1.5903 O   0  0  0  0  0  0  0  0  0  0  0  0
   -0.0813    1.7687    0.0009 O   0  0  0  0  0  0  0  0  0  0  0  0
    2.2516   -2.2931   -0.4243 O   0  0  0  0  0  0  0  0  0  0  0  0
    3.3565   -0.3176   -0.6808 N   0  0  0  0  0  0  0  0  0  0  0  0
   -3.4740   -0.3411    0.7243 N   0  0  0  0  0  0  0  0  0  0  0  0
    2.2841    0.4692   -0.4694 N   0  0  0  0  0  0  0  0  0  0  0  0
   -2.4134    0.4470    0.4967 N   0  0  0  0  0  0  0  0  0  0  0  0
    7.0652   -0.1943   -0.1842 C   0  0  0  0  0  0  0  0  0  0  0  0
   -7.1806   -0.2403    0.2074 C   0  0  0  0  0  0  0  0  0  0  0  0
    5.7879   -0.6826   -0.5492 C   0  0  0  0  0  0  0  0  0  0  0  0
   -5.9039   -0.7162    0.5898 C   0  0  0  0  0  0  0  0  0  0  0  0
    7.1742    1.0849    0.3852 C   0  0  0  0  0  0  0  0  0  0  0  0
   -7.2905    1.0249   -0.3924 C   0  0  0  0  0  0  0  0  0  0  0  0
    4.6456    0.1185   -0.3371 C   0  0  0  0  0  0  0  0  0  0  0  0
   -4.7745    0.0869    0.3611 C   0  0  0  0  0  0  0  0  0  0  0  0
    6.0404    1.8714    0.5913 C   0  0  0  0  0  0  0  0  0  0  0  0
   -6.1579    1.8096   -0.6118 C   0  0  0  0  0  0  0  0  0  0  0  0
    4.7844    1.3910    0.2327 C   0  0  0  0  0  0  0  0  0  0  0  0
   -4.9023    1.3414   -0.2360 C   0  0  0  0  0  0  0  0  0  0  0  0
    8.1955   -0.9996   -0.3991 C   0  0  0  0  0  0  0  0  0  0  0  0
   -8.3097   -1.0437    0.4360 C   0  0  0  0  0  0  0  0  0  0  0  0
    5.6786   -1.9619   -1.1183 C   0  0  0  0  0  0  0  0  0  0  0  0
   -5.7938   -1.9813    1.1895 C   0  0  0  0  0  0  0  0  0  0  0  0
    8.0684   -2.2680   -0.9661 C   0  0  0  0  0  0  0  0  0  0  0  0
   -8.1818   -2.2979    1.0333 C   0  0  0  0  0  0  0  0  0  0  0  0
    6.8124   -2.7482   -1.3251 C   0  0  0  0  0  0  0  0  0  0  0  0
   -6.9262   -2.7659    1.4094 C   0  0  0  0  0  0  0  0  0  0  0  0
    1.2013   -0.1929   -0.2370 C   0  0  0  0  0  0  0  0  0  0  0  0
   -1.3298   -0.2177    0.2836 C   0  0  0  0  0  0  0  0  0  0  0  0
   -0.0701    0.5516    0.0148 C   0  0  0  0  0  0  0  0  0  0  0  0
    1.2119   -1.6897   -0.2195 C   0  0  0  0  0  0  0  0  0  0  0  0
   -1.2229   -1.6968    0.2813 C   0  0  0  0  0  0  0  0  0  0  0  0
   -0.0800   -2.3574    0.0550 C   0  0  0  0  0  0  0  0  0  0  0  0
  1  3  1  0
  1  5  2  0
  1  6  2  0
  1 19  1  0
  2  4  1  0
  2  7  2  0
  2  8  2  0
  2 20  1  0
  9 37  2  0
 10 38  2  0
 11 13  1  0
 11 21  1  0
 12 14  1  0
 12 22  1  0
 13 35  2  0
 14 36  2  0
 15 17  1  0
 15 19  2  0
 15 27  1  0
 16 18  1  0
 16 20  2  0
 16 28  1  0
 17 21  2  0
 17 29  1  0
 18 22  2  0
 18 30  1  0
 19 23  1  0
 20 24  1  0
 21 25  1  0
 22 26  1  0
 23 25  2  0
 24 26  2  0
 27 31  2  0
 28 32  2  0
 29 33  2  0
 30 34  2  0
 31 33  1  0
 32 34  1  0
 35 37  1  0
 35 38  1  0
 36 37  1  0
 36 39  1  0
 38 40  1  0
 39 40  2  0
M  END
>  <PUBCHEM_COMPOUND_CID>  (1) 
22111

>  <PUBCHEM_CONFORMER_RMSD>  (1) 
1

>  <PUBCHEM_CONFORMER_DIVERSEORDER>  (1) 
1
31
21
26
36
25
30
23
4
28
27
38
32
22
24
46
37
42
44
29
43
47
2
35
49
33
51
9
8
48
11
50
16
18
10
39
45
3
5
34
17
40
7
41
19
6
13
14
15
20
12

>  <PUBCHEM_MMFF94_PARTIAL_CHARGES>  (1) 
54
1 1.49
10 -0.57
11 -0.46
12 -0.46
13 -0.49
14 -0.49
19 -0.01
2 1.49
20 -0.01
21 0.1
22 0.1
23 -0.15
24 -0.15
25 -0.15
26 -0.15
27 -0.15
28 -0.15
29 -0.15
3 -0.68
30 -0.15
31 -0.15
32 -0.15
33 -0.15
34 -0.15
35 0.45
36 0.44
37 0.57
38 0.56
39 -0.14
4 -0.68
40 -0.14
41 0.15
42 0.15
43 0.15
44 0.15
45 0.15
46 0.15
47 0.15
48 0.15
49 0.15
5 -0.65
50 0.15
51 0.15
52 0.15
53 0.4
54 0.4
55 0.15
56 0.5
57 0.5
58 0.15
6 -0.65
7 -0.65
8 -0.65
9 -0.57

>  <PUBCHEM_EFFECTIVE_ROTOR_COUNT>  (1) 
6

>  <PUBCHEM_PHARMACOPHORE_FEATURES>  (1) 
20
1 10 acceptor
1 11 donor
1 12 donor
1 13 acceptor
1 14 acceptor
1 3 acceptor
1 35 anion
1 4 acceptor
1 5 acceptor
1 6 acceptor
1 7 acceptor
1 8 acceptor
1 9 acceptor
4 1 3 5 6 anion
4 2 4 7 8 anion
6 15 17 19 21 23 25 rings
6 15 17 27 29 31 33 rings
6 16 18 20 22 24 26 rings
6 16 18 28 30 32 34 rings
6 35 36 37 38 39 40 rings

>  <PUBCHEM_HEAVY_ATOM_COUNT>  (1) 
40

>  <PUBCHEM_ATOM_DEF_STEREO_COUNT>  (1) 
0

>  <PUBCHEM_ATOM_UDEF_STEREO_COUNT>  (1) 
0

>  <PUBCHEM_BOND_DEF_STEREO_COUNT>  (1) 
0

>  <PUBCHEM_BOND_UDEF_STEREO_COUNT>  (1) 
2

>  <PUBCHEM_ISOTOPIC_ATOM_COUNT>  (1) 
0

>  <PUBCHEM_COMPONENT_COUNT>  (1) 
1

>  <PUBCHEM_CACTVS_TAUTO_COUNT>  (1) 
17

>  <PUBCHEM_CONFORMER_ID>  (1) 
0000565F00000001

>  <PUBCHEM_MMFF94_ENERGY>  (1) 
143.5228

>  <PUBCHEM_FEATURE_SELFOVERLAP>  (1) 
101.691

>  <PUBCHEM_SHAPE_FINGERPRINT>  (1) 
10580692 12 18339927111882582434
10835480 77 18409166581300320717
11061554 47 18114456782472959493
11315181 36 18060140930347096001
12082328 90 18413109442508127957
12089408 11 16153709838262615882
12522641 33 17632300051456273278
12758862 11 18408605847112558033
13811026 1 18410294713492969834
14400156 413 18201997759804848824
14856354 85 14549016598653637589
14937079 2 18200877382809197648
150020 25 18410576158795442663
15065858 18 18410009939992107275
15289351 153 18271242725498467274
15419008 91 18335127704914911380
15510794 2 18410292510174753475
15554971 5 16988567861886821594
19315958 150 18272090531063583566
19841028 212 17968937484089602578
21792934 111 18408881820663319524
21792961 116 18272654507266561211
437795 160 18040997392412626571
44280117 145 18340770459873201687
4625314 4 18408324389173050919
58083652 198 16702297962670991681
6201320 215 15141223396848659975
6691757 9 15769777988053592319
99344 41 18187365432732893083

>  <PUBCHEM_SHAPE_MULTIPOLES>  (1) 
764
39.64
3.13
1.17
5.01
0.24
0.01
-13.03
0.05
-0.27
0.01
0.15
-0.01
6.57

>  <PUBCHEM_SHAPE_SELFOVERLAP>  (1) 
1679.401

>  <PUBCHEM_SHAPE_VOLUME>  (1) 
410.3

>  <PUBCHEM_COORDINATE_TYPE>  (1) 
2
5
10

$$$$
