22119
     RDKit          3D

 25 27  0  0  0  0  0  0  0  0999 V2000
    4.1347    2.9238   -1.5150 Cl  0  0  0  0  0  0  0  0  0  0  0  0
    1.8126   -2.2576    1.1350 S   0  0  0  0  0  0  0  0  0  0  0  0
   -1.3464    2.8728    1.5312 O   0  0  0  0  0  0  0  0  0  0  0  0
    0.8330   -2.9158    0.0051 O   0  0  0  0  0  0  0  0  0  0  0  0
    2.9210   -3.1792    1.3284 O   0  0  0  0  0  0  0  0  0  0  0  0
    0.9914   -1.8343    2.2569 O   0  0  0  0  0  0  0  0  0  0  0  0
    0.2745    0.2862    0.5086 N   0  0  0  0  0  0  0  0  0  0  0  0
   -0.3708    1.0200   -0.2730 N   0  0  0  0  0  0  0  0  0  0  0  0
   -2.6086    0.0565   -0.4778 C   0  0  0  0  0  0  0  0  0  0  0  0
    2.4475   -0.8034    0.3960 C   0  0  0  0  0  0  0  0  0  0  0  0
   -3.9724    0.0720   -0.1001 C   0  0  0  0  0  0  0  0  0  0  0  0
   -1.7318    1.0030    0.0767 C   0  0  0  0  0  0  0  0  0  0  0  0
    1.6356    0.3028    0.1590 C   0  0  0  0  0  0  0  0  0  0  0  0
    4.3273    0.3825   -0.5506 C   0  0  0  0  0  0  0  0  0  0  0  0
    3.7956   -0.7636    0.0406 C   0  0  0  0  0  0  0  0  0  0  0  0
    2.1626    1.4487   -0.4310 C   0  0  0  0  0  0  0  0  0  0  0  0
    3.5109    1.4886   -0.7866 C   0  0  0  0  0  0  0  0  0  0  0  0
   -2.1929    1.9515    0.9903 C   0  0  0  0  0  0  0  0  0  0  0  0
   -4.4192    1.0335    0.8211 C   0  0  0  0  0  0  0  0  0  0  0  0
   -2.1620   -0.9052   -1.3988 C   0  0  0  0  0  0  0  0  0  0  0  0
   -4.8495   -0.8745   -0.6544 C   0  0  0  0  0  0  0  0  0  0  0  0
   -3.5340    1.9665    1.3620 C   0  0  0  0  0  0  0  0  0  0  0  0
    5.7769    0.3857   -0.9156 C   0  0  0  0  0  0  0  0  0  0  0  0
   -3.0474   -1.8379   -1.9397 C   0  0  0  0  0  0  0  0  0  0  0  0
   -4.3887   -1.8226   -1.5682 C   0  0  0  0  0  0  0  0  0  0  0  0
  1 17  1  0
  2  4  1  0
  2  5  2  0
  2  6  2  0
  2 10  1  0
  3 18  1  0
  7  8  2  0
  7 13  1  0
  8 12  1  0
  9 11  2  0
  9 12  1  0
  9 20  1  0
 10 13  2  0
 10 15  1  0
 11 19  1  0
 11 21  1  0
 12 18  2  0
 13 16  1  0
 14 15  2  0
 14 17  1  0
 14 23  1  0
 16 17  2  0
 18 22  1  0
 19 22  2  0
 20 24  2  0
 21 25  2  0
 24 25  1  0
M  END
>  <PUBCHEM_COMPOUND_CID>  (1) 
22119

>  <PUBCHEM_CONFORMER_RMSD>  (1) 
0.6

>  <PUBCHEM_CONFORMER_DIVERSEORDER>  (1) 
1
2
13
8
14
15
12
10
6
11
3
4
5
7
9

>  <PUBCHEM_MMFF94_PARTIAL_CHARGES>  (1) 
33
1 -0.18
10 -0.01
12 0.18
13 0.18
14 -0.14
15 -0.15
16 -0.15
17 0.18
18 0.08
19 -0.15
2 1.49
20 -0.15
21 -0.15
22 -0.15
23 0.14
24 -0.15
25 -0.15
26 0.15
27 0.15
28 0.15
29 0.15
3 -0.53
30 0.15
31 0.15
35 0.15
36 0.15
37 0.5
38 0.45
4 -0.68
5 -0.65
6 -0.65
7 -0.18
8 -0.18

>  <PUBCHEM_EFFECTIVE_ROTOR_COUNT>  (1) 
3

>  <PUBCHEM_PHARMACOPHORE_FEATURES>  (1) 
8
1 3 donor
1 4 acceptor
1 5 acceptor
1 6 acceptor
4 2 4 5 6 anion
6 10 13 14 15 16 17 rings
6 9 11 12 18 19 22 rings
6 9 11 20 21 24 25 rings

>  <PUBCHEM_HEAVY_ATOM_COUNT>  (1) 
25

>  <PUBCHEM_ATOM_DEF_STEREO_COUNT>  (1) 
0

>  <PUBCHEM_ATOM_UDEF_STEREO_COUNT>  (1) 
0

>  <PUBCHEM_BOND_DEF_STEREO_COUNT>  (1) 
0

>  <PUBCHEM_BOND_UDEF_STEREO_COUNT>  (1) 
0

>  <PUBCHEM_ISOTOPIC_ATOM_COUNT>  (1) 
0

>  <PUBCHEM_COMPONENT_COUNT>  (1) 
1

>  <PUBCHEM_CACTVS_TAUTO_COUNT>  (1) 
3

>  <PUBCHEM_CONFORMER_ID>  (1) 
0000566700000001

>  <PUBCHEM_MMFF94_ENERGY>  (1) 
66.5792

>  <PUBCHEM_FEATURE_SELFOVERLAP>  (1) 
40.678

>  <PUBCHEM_SHAPE_FINGERPRINT>  (1) 
10090160 65 18114743832195354652
10616163 171 18202283597987666775
11135609 187 18116712022370604853
11578080 2 18050531193603518145
11725454 13 15719940449337320948
12107183 9 17690002228260651561
12236239 1 18413110563125483100
12553582 1 18058996389723357247
12788726 201 18201718436426547443
13009979 54 18126835007000173066
13167823 11 18413393124375355284
13383668 90 17986138252636751860
13583140 156 18114473266836710305
13631057 29 18265895946402787631
13726171 33 17489042542300335697
13911987 19 17168438150449153940
14251764 3 16225763038512076738
14289585 56 17967533433203937084
15537594 2 18413395323899601995
15842332 3 18340487764033541417
16752209 62 17774707698300752783
17138139 8 18124299769193509903
17349148 13 18186789275970983424
19319366 153 18264477558785549638
20511986 3 18339068320524293557
20645477 70 17458618987092795938
21033648 144 17604433028303400828
21033648 29 15647329788398231092
21033650 10 17842314486624243444
21054139 6 18410007780093120918
21709351 56 18260829263598752460
235170 7 17095509717480033831
23559900 14 17346591993585846937
23598288 3 18057311804364750165
23598291 2 18266175028633951346
25147074 1 18339637845840185827
266924 1 18411697664586692417
312423 11 18411697647486282327
4409770 3 15456760586157522981
474 4 18260274066145663500
602551 16 17418369207647225934
6034566 193 17027146632782691124
603831 33 18411696586718719201
633830 44 18334870428200067116
6823239 73 17131826603413835296
7097593 13 18053376600672467299
7970288 3 17630034099862894263
9981440 41 17263835284138066592

>  <PUBCHEM_SHAPE_MULTIPOLES>  (1) 
486.77
10.87
3.2
1.67
2.13
0.56
-0.09
-1.28
3.78
1.04
-0.83
-0.54
0.4
-3.96

>  <PUBCHEM_SHAPE_SELFOVERLAP>  (1) 
1052.066

>  <PUBCHEM_SHAPE_VOLUME>  (1) 
269.1

>  <PUBCHEM_COORDINATE_TYPE>  (1) 
2
5
10

$$$$
