22122
     RDKit          3D

 13 14  0  0  0  0  0  0  0  0999 V2000
   -0.1124    1.0635    0.4493 N   0  0  0  0  0  0  0  0  0  0  0  0
   -0.1009   -1.1585    0.3949 N   0  0  0  0  0  0  0  0  0  0  0  0
    2.0505   -0.0308    0.9619 C   0  0  0  0  0  0  0  0  0  0  0  0
    2.9724    0.0250   -0.2751 C   0  0  0  0  0  0  0  0  0  0  0  0
    0.6208   -0.0800    0.6033 C   0  0  0  0  0  0  0  0  0  0  0  0
    4.4539    0.0318    0.1020 C   0  0  0  0  0  0  0  0  0  0  0  0
   -1.3927    0.6988    0.1198 C   0  0  0  0  0  0  0  0  0  0  0  0
   -1.3597   -0.6927    0.0920 C   0  0  0  0  0  0  0  0  0  0  0  0
    5.3428    0.0466   -1.1314 C   0  0  0  0  0  0  0  0  0  0  0  0
   -2.5416    1.4438   -0.1482 C   0  0  0  0  0  0  0  0  0  0  0  0
   -2.5335   -1.3994   -0.2198 C   0  0  0  0  0  0  0  0  0  0  0  0
   -3.7007    0.7242   -0.4565 C   0  0  0  0  0  0  0  0  0  0  0  0
   -3.6988   -0.6721   -0.4923 C   0  0  0  0  0  0  0  0  0  0  0  0
  1  5  1  0
  1  7  1  0
  2  5  2  0
  2  8  1  0
  3  4  1  0
  3  5  1  0
  4  6  1  0
  6  9  1  0
  7  8  2  0
  7 10  1  0
  8 11  1  0
 10 12  2  0
 11 13  2  0
 12 13  1  0
M  END
>  <PUBCHEM_COMPOUND_CID>  (1) 
22122

>  <PUBCHEM_CONFORMER_RMSD>  (1) 
0.6

>  <PUBCHEM_CONFORMER_DIVERSEORDER>  (1) 
1
7
6
2
3
5
4

>  <PUBCHEM_MMFF94_PARTIAL_CHARGES>  (1) 
15
1 0.03
10 -0.15
11 -0.15
12 -0.15
13 -0.15
2 -0.57
20 0.27
24 0.15
25 0.15
26 0.15
27 0.15
3 0.18
5 0.01
7 -0.15
8 0.23

>  <PUBCHEM_EFFECTIVE_ROTOR_COUNT>  (1) 
3

>  <PUBCHEM_PHARMACOPHORE_FEATURES>  (1) 
5
1 1 donor
1 9 hydrophobe
3 1 2 5 cation
5 1 2 5 7 8 rings
6 7 8 10 11 12 13 rings

>  <PUBCHEM_HEAVY_ATOM_COUNT>  (1) 
13

>  <PUBCHEM_ATOM_DEF_STEREO_COUNT>  (1) 
0

>  <PUBCHEM_ATOM_UDEF_STEREO_COUNT>  (1) 
0

>  <PUBCHEM_BOND_DEF_STEREO_COUNT>  (1) 
0

>  <PUBCHEM_BOND_UDEF_STEREO_COUNT>  (1) 
0

>  <PUBCHEM_ISOTOPIC_ATOM_COUNT>  (1) 
0

>  <PUBCHEM_COMPONENT_COUNT>  (1) 
1

>  <PUBCHEM_CACTVS_TAUTO_COUNT>  (1) 
2

>  <PUBCHEM_CONFORMER_ID>  (1) 
0000566A00000001

>  <PUBCHEM_MMFF94_ENERGY>  (1) 
12.4231

>  <PUBCHEM_FEATURE_SELFOVERLAP>  (1) 
25.479

>  <PUBCHEM_SHAPE_FINGERPRINT>  (1) 
10465860 71 18412267254913163228
12032990 46 18059572533230521931
12119455 92 14129052625738139192
12186901 62 18413106143413939085
12251169 10 9367344838475599570
124424 183 12175619577537975411
13675066 3 10809341131469299000
14911166 2 18341040870280518861
14993402 34 18040711480639564853
16945 1 18339060650039192019
17870717 6 18129957714553989774
1813 80 14261084198685069816
18186145 218 18273207603884575720
1986462 14 18343584040427534404
200 152 15985104098299005618
20300324 65 18410856576872523316
20325693 3 18411705378532475143
204376 136 15213023756372888176
20645476 183 17967811673622373547
20645477 70 16773798091607972182
20871999 31 18410854373512005045
21119208 17 18334296470276945556
22485316 2 17489864951675831374
22926399 37 16588023523993189300
23175994 123 16917068875453287129
23402539 116 18409725154170481668
23403322 49 17703797985701726494
23557571 272 18201446852327204084
23559900 14 18272647953293920288
2748010 2 17978209875903946027
42 15 10952053355635173556
449060 50 13912325672705406120

>  <PUBCHEM_SHAPE_MULTIPOLES>  (1) 
257.57
9.06
1.23
0.88
10.83
0.01
-0.04
0.24
-3.33
-1.23
-0.02
0.59
0
-0.05

>  <PUBCHEM_SHAPE_SELFOVERLAP>  (1) 
542.363

>  <PUBCHEM_SHAPE_VOLUME>  (1) 
144.7

>  <PUBCHEM_COORDINATE_TYPE>  (1) 
2
5
10

$$$$
