2212
     RDKit          3D

 44 47  0  0  1  0  0  0  0  0999 V2000
   -0.2417    3.6120   -2.0263 O   0  0  0  0  0  0  0  0  0  0  0  0
    1.9506    0.0850   -0.7218 O   0  0  0  0  0  0  0  0  0  0  0  0
   -2.6054    1.6411   -0.7999 O   0  0  0  0  0  0  0  0  0  0  0  0
   -0.5045   -0.6179    3.1934 O   0  0  0  0  0  0  0  0  0  0  0  0
   -3.7181   -2.9318   -3.0079 O   0  0  0  0  0  0  0  0  0  0  0  0
    4.2844   -4.0600   -1.6335 O   0  0  0  0  0  0  0  0  0  0  0  0
    1.6537    2.8606   -0.9174 N   0  0  0  0  0  0  0  0  0  0  0  0
   -0.8778    2.0072    0.7052 N   0  0  0  0  0  0  0  0  0  0  0  0
    1.9921    0.2617    1.5913 N   0  0  0  0  0  0  0  0  0  0  0  0
   -0.6847   -0.7384    0.8776 N   0  0  0  0  0  0  0  0  0  0  0  0
   -3.6297   -2.3234   -1.7637 N   0  0  0  0  0  0  0  0  0  0  0  0
    2.3136    2.2752    0.2724 C   0  0  0  0  0  0  0  0  0  0  0  0
    3.8091    2.5966    0.3679 C   0  0  0  0  0  0  0  0  0  0  0  0
    2.3932    2.7907   -2.1874 C   0  0  0  0  0  0  0  0  0  0  0  0
    4.5417    2.3982   -0.9528 C   0  0  0  0  0  0  0  0  0  0  0  0
    3.8543    3.1953   -2.0505 C   0  0  0  0  0  0  0  0  0  0  0  0
   -0.4814    3.3628    0.3389 C   0  0  0  0  0  0  0  0  0  0  0  0
    0.3162    3.2981   -0.9680 C   0  0  0  0  0  0  0  0  0  0  0  0
   -1.6615    4.3297    0.2618 C   0  0  0  0  0  0  0  0  0  0  0  0
    2.0701    0.7637    0.2956 C   0  0  0  0  0  0  0  0  0  0  0  0
    1.4834   -1.0749    1.8834 C   0  0  0  0  0  0  0  0  0  0  0  0
   -2.4577    4.3940    1.5776 C   0  0  0  0  0  0  0  0  0  0  0  0
    2.1503   -1.6542    3.1193 C   0  0  0  0  0  0  0  0  0  0  0  0
   -1.1627    5.7296   -0.1065 C   0  0  0  0  0  0  0  0  0  0  0  0
   -2.0127   -0.1532    0.7251 C   0  0  0  0  0  0  0  0  0  0  0  0
   -1.8553    1.2357    0.0864 C   0  0  0  0  0  0  0  0  0  0  0  0
   -0.0088   -0.8309    2.0895 C   0  0  0  0  0  0  0  0  0  0  0  0
    3.6506   -1.8553    2.9054 C   0  0  0  0  0  0  0  0  0  0  0  0
   -2.8706   -1.0809   -0.0884 C   0  0  0  0  0  0  0  0  0  0  0  0
   -3.6399    5.3512    1.5270 C   0  0  0  0  0  0  0  0  0  0  0  0
    3.9250   -2.7879    1.7238 C   0  0  0  0  0  0  0  0  0  0  0  0
   -4.0817   -1.7000    0.3301 C   0  0  0  0  0  0  0  0  0  0  0  0
    5.4290   -2.9513    1.4832 C   0  0  0  0  0  0  0  0  0  0  0  0
   -2.6191   -1.4836   -1.3797 C   0  0  0  0  0  0  0  0  0  0  0  0
   -4.5371   -2.4739   -0.7394 C   0  0  0  0  0  0  0  0  0  0  0  0
    5.7331   -3.8512    0.2865 C   0  0  0  0  0  0  0  0  0  0  0  0
   -4.8363   -1.6761    1.5197 C   0  0  0  0  0  0  0  0  0  0  0  0
   -5.7143   -3.2282   -0.6784 C   0  0  0  0  0  0  0  0  0  0  0  0
   -6.0160   -2.4256    1.5952 C   0  0  0  0  0  0  0  0  0  0  0  0
    5.1011   -3.3794   -1.0150 C   0  0  0  0  0  0  0  0  0  0  0  0
   -6.4464   -3.1890    0.5117 C   0  0  0  0  0  0  0  0  0  0  0  0
    5.5761   -2.0272   -1.5209 C   0  0  0  0  0  0  0  0  0  0  0  0
   -4.4478   -2.0893   -3.9068 C   0  0  0  0  0  0  0  0  0  0  0  0
    4.8835   -1.6048   -2.8037 C   0  0  0  0  0  0  0  0  0  0  0  0
  1 18  2  0
  2 20  2  0
  3 26  2  0
  4 27  2  0
  5 11  1  0
  5 43  1  0
  6 40  2  0
  7 12  1  0
  7 14  1  0
  7 18  1  0
  8 17  1  0
  8 26  1  0
  9 20  1  0
  9 21  1  0
 10 25  1  0
 10 27  1  0
 11 34  1  0
 11 35  1  0
 12 13  1  0
 12 20  1  0
 13 15  1  0
 14 16  1  0
 15 16  1  0
 17 18  1  0
 17 19  1  0
 19 22  1  0
 19 24  1  0
 21 23  1  0
 21 27  1  0
 22 30  1  0
 23 28  1  0
 25 26  1  0
 25 29  1  0
 28 31  1  0
 29 32  1  0
 29 34  2  0
 31 33  1  0
 32 35  2  0
 32 37  1  0
 33 36  1  0
 35 38  1  0
 36 40  1  0
 37 39  2  0
 38 41  2  0
 39 41  1  0
 40 42  1  0
 42 44  1  0
M  END
>  <PUBCHEM_COMPOUND_CID>  (1) 
2212

>  <PUBCHEM_CONFORMER_RMSD>  (1) 
1.4

>  <PUBCHEM_CONFORMER_DIVERSEORDER>  (1) 
1
97
148
42
371
236
333
230
11
90
365
80
278
99
358
258
177
337
359
21
380
57
48
279
39
5
61
287
321
186
40
218
10
221
363
191
14
124
382
135
41
96
12
168
314
137
114
205
43
373
47
274
234
233
143
93
128
290
45
335
52
357
313
88
164
301
344
162
252
160
366
183
212
142
30
50
156
158
126
379
17
250
213
23
356
242
68
211
87
378
129
384
303
169
348
189
125
144
91
220
374
151
4
28
312
31
201
172
140
195
155
55
372
104
15
64
117
381
226
208
83
306
289
132
288
161
327
19
375
310
8
210
222
232
78
36
319
89
118
16
141
185
35
262
121
46
377
53
106
260
280
101
338
192
133
385
72
166
350
174
336
86
18
253
27
275
7
249
149
85
248
119
123
305
163
361
56
32
364
294
302
370
339
120
102
70
190
332
270
328
264
277
81
282
100
345
223
368
386
175
51
351
94
293
228
259
298
134
130
159
105
367
307
193
251
146
145
235
29
329
300
37
95
139
324
241
150
224
69
308
34
103
82
181
383
63
342
122
238
109
216
354
355
107
254
113
54
3
330
108
285
26
179
66
326
9
194
263
173
84
227
67
203
256
167
255
245
299
153
138
38
297
268
239
152
266
20
131
340
292
341
71
2
246
59
334
346
362
229
240
204
284
33
62
206
22
376
6
225
320
197
309
24
219
13
79
304
77
272
187
182
267
261
157
318
49
76
353
295
154
316
291
322
265
170
176
58
207
323
347
171
75
188
178
343
136
243
247
311
60
196
184
276
165
317
296
199
180
214
257
127
215
349
65
198
74
98
360
116
325
369
315
281
331
73
352
200
25
147
92
112
111
269
231
202
273
286
237
44
244
110
217
115
283
271
209

>  <PUBCHEM_MMFF94_PARTIAL_CHARGES>  (1) 
39
1 -0.57
10 -0.73
11 0.44
12 0.36
14 0.3
17 0.36
18 0.57
2 -0.57
20 0.57
21 0.36
25 0.54
26 0.57
27 0.57
29 -0.18
3 -0.57
34 -0.3
35 -0.15
36 0.06
37 -0.15
38 -0.15
39 -0.15
4 -0.57
40 0.45
41 -0.15
42 0.06
43 0.28
5 -0.42
57 0.37
6 -0.57
60 0.37
69 0.37
7 -0.66
77 0.15
8 -0.73
80 0.15
81 0.15
82 0.15
83 0.15
9 -0.73

>  <PUBCHEM_EFFECTIVE_ROTOR_COUNT>  (1) 
13

>  <PUBCHEM_PHARMACOPHORE_FEATURES>  (1) 
15
1 1 acceptor
1 10 donor
1 2 acceptor
1 24 hydrophobe
1 3 acceptor
1 30 hydrophobe
1 4 acceptor
1 44 hydrophobe
1 6 acceptor
1 8 donor
1 9 donor
5 11 29 32 34 35 rings
5 23 28 31 33 36 hydrophobe
6 32 35 37 38 39 41 rings
6 7 12 13 14 15 16 rings

>  <PUBCHEM_HEAVY_ATOM_COUNT>  (1) 
44

>  <PUBCHEM_ATOM_DEF_STEREO_COUNT>  (1) 
0

>  <PUBCHEM_ATOM_UDEF_STEREO_COUNT>  (1) 
5

>  <PUBCHEM_BOND_DEF_STEREO_COUNT>  (1) 
0

>  <PUBCHEM_BOND_UDEF_STEREO_COUNT>  (1) 
0

>  <PUBCHEM_ISOTOPIC_ATOM_COUNT>  (1) 
0

>  <PUBCHEM_COMPONENT_COUNT>  (1) 
1

>  <PUBCHEM_CACTVS_TAUTO_COUNT>  (1) 
24

>  <PUBCHEM_CONFORMER_ID>  (1) 
000008A400000001

>  <PUBCHEM_MMFF94_ENERGY>  (1) 
92.672

>  <PUBCHEM_FEATURE_SELFOVERLAP>  (1) 
76.222

>  <PUBCHEM_SHAPE_FINGERPRINT>  (1) 
11331351 85 18343295977466766913
11513181 2 18411138009717050056
11991303 11 17833833772659632115
12147406 95 18337940273149445926
13692115 46 17411646617830505558
13757389 114 17905046946083513560
15160629 131 18339930427660774967
15444296 8 18267316343294847583
19301679 30 18412271661174828642
19311894 1 18046630010457151396
19319366 153 17826224391838296482
20775530 9 18412265047241704526
3388396 114 18190198926175110204
354706 35 17826814817383540420
44344687 77 18045812162479121411
4461854 278 17762629387150938185
57527295 17 18191329129902628286
6700243 42 18055934103753656246
70251023 43 18410023147285600650

>  <PUBCHEM_SHAPE_MULTIPOLES>  (1) 
845.38
13.45
8.05
3.22
1.56
9.17
0.82
-19.12
3.05
1.34
0.63
-0.42
-2.24
-3.73

>  <PUBCHEM_SHAPE_SELFOVERLAP>  (1) 
1757.886

>  <PUBCHEM_SHAPE_VOLUME>  (1) 
475.6

>  <PUBCHEM_COORDINATE_TYPE>  (1) 
2
5
10

$$$$
