22120
     RDKit          3D

 11 10  0  0  0  0  0  0  0  0999 V2000
   -0.1140   -2.2167   -1.7386 S   0  0  0  0  0  0  0  0  0  0  0  0
    0.5650   -2.3362    1.6918 S   0  0  0  0  0  0  0  0  0  0  0  0
    0.0150   -1.2547    0.1530 P   0  0  0  0  0  0  0  0  0  0  0  0
   -1.4371   -0.5649    0.4502 O   0  0  0  0  0  0  0  0  0  0  0  0
    0.9269    0.0896   -0.0219 O   0  0  0  0  0  0  0  0  0  0  0  0
   -2.0373    0.3001   -0.4990 C   0  0  0  0  0  0  0  0  0  0  0  0
    2.3124   -0.0188   -0.3019 C   0  0  0  0  0  0  0  0  0  0  0  0
   -3.3453    0.7731    0.0426 C   0  0  0  0  0  0  0  0  0  0  0  0
    2.8891    1.3537   -0.4089 C   0  0  0  0  0  0  0  0  0  0  0  0
   -3.6439    2.0592    0.2571 C   0  0  0  0  0  0  0  0  0  0  0  0
    3.8692    1.8156    0.3755 C   0  0  0  0  0  0  0  0  0  0  0  0
  1  3  1  0
  2  3  2  0
  3  4  1  0
  3  5  1  0
  4  6  1  0
  5  7  1  0
  6  8  1  0
  7  9  1  0
  8 10  2  0
  9 11  2  0
M  END
>  <PUBCHEM_COMPOUND_CID>  (1) 
22120

>  <PUBCHEM_CONFORMER_RMSD>  (1) 
0.6

>  <PUBCHEM_CONFORMER_DIVERSEORDER>  (1) 
1
50
5
31
49
47
3
13
36
46
42
37
26
41
7
18
44
6
34
14
33
40
24
52
11
35
54
16
2
22
17
9
27
45
43
29
4
20
53
15
8
39
23
51
19
10
12
30
48
28
32
21
25
38

>  <PUBCHEM_MMFF94_PARTIAL_CHARGES>  (1) 
18
1 -0.43
10 -0.3
11 -0.3
16 0.15
17 0.15
18 0.18
19 0.15
2 -0.68
20 0.15
21 0.15
22 0.15
3 1.47
4 -0.55
5 -0.55
6 0.42
7 0.42
8 -0.29
9 -0.29

>  <PUBCHEM_EFFECTIVE_ROTOR_COUNT>  (1) 
6

>  <PUBCHEM_PHARMACOPHORE_FEATURES>  (1) 
2
1 10 hydrophobe
1 11 hydrophobe

>  <PUBCHEM_HEAVY_ATOM_COUNT>  (1) 
11

>  <PUBCHEM_ATOM_DEF_STEREO_COUNT>  (1) 
0

>  <PUBCHEM_ATOM_UDEF_STEREO_COUNT>  (1) 
0

>  <PUBCHEM_BOND_DEF_STEREO_COUNT>  (1) 
0

>  <PUBCHEM_BOND_UDEF_STEREO_COUNT>  (1) 
0

>  <PUBCHEM_ISOTOPIC_ATOM_COUNT>  (1) 
0

>  <PUBCHEM_COMPONENT_COUNT>  (1) 
1

>  <PUBCHEM_CACTVS_TAUTO_COUNT>  (1) 
1

>  <PUBCHEM_CONFORMER_ID>  (1) 
0000566800000001

>  <PUBCHEM_MMFF94_ENERGY>  (1) 
4.2653

>  <PUBCHEM_FEATURE_SELFOVERLAP>  (1) 
10.149

>  <PUBCHEM_SHAPE_FINGERPRINT>  (1) 
10149128 76 18413393128680716149
122479 349 18337393858851742564
14123255 52 18343018874303046205
14817 1 13137906995458861550
15775835 57 18411135844188765892
17041 49 17542222363924185321
170605 34 18338803312493828615
18186145 218 17845951674766045868
18342897 96 18339077219595868910
20645477 56 17844534511878839344
20653085 51 18342747333543265814
20671657 1 18190741934030886363
20671657 53 16982673221078892367
20711985 344 17627205077455030806
21061003 4 16882417594842852610
21524375 3 18410007758175036277
23211744 41 18337126625696545635
23382010 3 16845563257711371590
23500284 214 18336552706465196288
298252 57 18202281428754803822
305870 269 18114175320095391138
76951 1 17609806109167728046

>  <PUBCHEM_SHAPE_MULTIPOLES>  (1) 
226.18
6.06
2.84
1.34
0.69
0.71
-0.04
-7.14
0.39
-0.42
0.26
-0.17
1.37
-0.39

>  <PUBCHEM_SHAPE_SELFOVERLAP>  (1) 
380.555

>  <PUBCHEM_SHAPE_VOLUME>  (1) 
154.7

>  <PUBCHEM_COORDINATE_TYPE>  (1) 
2
5
10

$$$$
