22125
     RDKit          3D

 16 18  0  0  1  0  0  0  0  0999 V2000
    2.7119   -1.8794    0.7952 O   0  0  0  0  0  0  0  0  0  0  0  0
   -2.2410    0.2229    0.7244 N   0  0  0  0  0  0  0  0  0  0  0  0
    1.0567   -0.5372   -0.1746 N   0  0  0  0  0  0  0  0  0  0  0  0
   -1.2022   -1.4374   -0.9757 C   0  0  0  0  0  0  0  0  0  0  0  0
   -0.6899    0.9325   -1.2235 C   0  0  0  0  0  0  0  0  0  0  0  0
   -2.3099   -1.1544    0.0494 C   0  0  0  0  0  0  0  0  0  0  0  0
   -1.7844    1.3438   -0.2264 C   0  0  0  0  0  0  0  0  0  0  0  0
   -1.1135   -0.3118   -1.9871 C   0  0  0  0  0  0  0  0  0  0  0  0
    0.1828   -1.6981   -0.3754 C   0  0  0  0  0  0  0  0  0  0  0  0
    0.6663    0.7412   -0.5823 C   0  0  0  0  0  0  0  0  0  0  0  0
   -3.6709    0.5783    1.1924 C   0  0  0  0  0  0  0  0  0  0  0  0
   -1.3993    0.1811    2.0015 C   0  0  0  0  0  0  0  0  0  0  0  0
    1.4996    1.7838   -0.4217 C   0  0  0  0  0  0  0  0  0  0  0  0
    2.3089   -0.7782    0.4206 C   0  0  0  0  0  0  0  0  0  0  0  0
    2.7884    1.6081    0.1861 C   0  0  0  0  0  0  0  0  0  0  0  0
    3.1967    0.4048    0.5971 C   0  0  0  0  0  0  0  0  0  0  0  0
  1 14  2  0
  2  6  1  0
  2  7  1  0
  2 11  1  0
  2 12  1  0
  3  9  1  0
  3 10  1  0
  3 14  1  0
  4  6  1  0
  4  8  1  0
  4  9  1  0
  5  7  1  0
  5  8  1  0
  5 10  1  0
 10 13  2  0
 13 15  1  0
 14 16  1  0
 15 16  2  0
M  CHG  1   2   1
M  END
>  <PUBCHEM_COMPOUND_CID>  (1) 
22125

>  <PUBCHEM_CONFORMER_RMSD>  (1) 
0.6

>  <PUBCHEM_CONFORMER_DIVERSEORDER>  (1) 
1
3
4
2

>  <PUBCHEM_MMFF94_PARTIAL_CHARGES>  (1) 
17
1 -0.57
10 -0.03
11 0.5
12 0.5
13 -0.15
14 0.62
15 -0.15
16 -0.14
2 -1.01
3 -0.47
33 0.15
34 0.15
35 0.15
5 0.14
6 0.5
7 0.5
9 0.3

>  <PUBCHEM_EFFECTIVE_ROTOR_COUNT>  (1) 
1

>  <PUBCHEM_PHARMACOPHORE_FEATURES>  (1) 
5
1 1 acceptor
1 2 cation
6 2 4 5 6 7 8 rings
6 3 10 13 14 15 16 rings
6 3 4 5 8 9 10 rings

>  <PUBCHEM_HEAVY_ATOM_COUNT>  (1) 
16

>  <PUBCHEM_ATOM_DEF_STEREO_COUNT>  (1) 
0

>  <PUBCHEM_ATOM_UDEF_STEREO_COUNT>  (1) 
2

>  <PUBCHEM_BOND_DEF_STEREO_COUNT>  (1) 
0

>  <PUBCHEM_BOND_UDEF_STEREO_COUNT>  (1) 
0

>  <PUBCHEM_ISOTOPIC_ATOM_COUNT>  (1) 
0

>  <PUBCHEM_COMPONENT_COUNT>  (1) 
1

>  <PUBCHEM_CACTVS_TAUTO_COUNT>  (1) 
1

>  <PUBCHEM_CONFORMER_ID>  (1) 
0000566D00000001

>  <PUBCHEM_MMFF94_ENERGY>  (1) 
53.8138

>  <PUBCHEM_FEATURE_SELFOVERLAP>  (1) 
26.681

>  <PUBCHEM_SHAPE_FINGERPRINT>  (1) 
10863032 1 18412826919189976163
11471102 22 18259706696454396080
12202030 40 15936960839184008090
12251169 10 18409172107989612689
12382932 28 18412545448197171656
12423570 1 9211510969576862431
12491281 212 18199754798447392696
12696612 119 18407760352424079348
12808571 1 17418109722913490108
13024252 1 15430577524832682591
13172582 1 18342453691008510686
13538477 17 17775001318806711754
13764800 53 16773806934370673499
14617773 55 17986935518045030007
14787075 74 16615605069555093189
14817 1 12240861114169308101
15076042 46 18131356275758534177
15309172 13 18335700576490023798
15775835 57 18272658981825996168
15852999 172 11815597654638975950
15881359 60 18125141767455939601
15906896 17 17632294639913394591
16945 1 18041565848466485869
17844478 74 17603583023820172556
18981168 100 14547884195617533720
19837323 101 15985110716732826085
20361792 2 14057011563134873841
20653085 51 12031795764058943879
22445834 79 18338514243719656426
23236772 104 18056196005978095400
23419403 2 15586255942049112015
23557571 272 14835825352718495326
25 1 12678093096822653443
2748010 2 18190723259860924892
276578 36 17417265250875790059
430814 3 17703520921239502239
598444 67 17242730875242618251
63268167 104 18337375132677930286
77492 1 18060410343826563621
81228 2 14619086382462182253

>  <PUBCHEM_SHAPE_MULTIPOLES>  (1) 
313.44
4.75
1.86
1.52
0.64
0.29
-0.01
-0.8
-2
0.59
0.11
-0.86
-0.03
-0.69

>  <PUBCHEM_SHAPE_SELFOVERLAP>  (1) 
665.758

>  <PUBCHEM_SHAPE_VOLUME>  (1) 
170.7

>  <PUBCHEM_COORDINATE_TYPE>  (1) 
2
5
10

$$$$
