22130
     RDKit          3D

 11 12  0  0  1  0  0  0  0  0999 V2000
   -0.4850   -1.4775    0.8939 O   0  0  0  0  0  0  0  0  0  0  0  0
    0.0410   -1.0699   -0.3695 C   0  0  0  0  0  0  0  0  0  0  0  0
   -1.4440   -1.0754   -0.1059 C   0  0  0  0  0  0  0  0  0  0  0  0
    0.8122    0.2184   -0.3757 C   0  0  0  0  0  0  0  0  0  0  0  0
   -2.1811    0.1877    0.2564 C   0  0  0  0  0  0  0  0  0  0  0  0
    0.0636    1.3562    0.3347 C   0  0  0  0  0  0  0  0  0  0  0  0
   -1.3853    1.4397   -0.1450 C   0  0  0  0  0  0  0  0  0  0  0  0
    2.2005    0.0236    0.2298 C   0  0  0  0  0  0  0  0  0  0  0  0
   -3.5665    0.2183   -0.3889 C   0  0  0  0  0  0  0  0  0  0  0  0
    2.9278   -1.1310   -0.4556 C   0  0  0  0  0  0  0  0  0  0  0  0
    3.0169    1.3100    0.1257 C   0  0  0  0  0  0  0  0  0  0  0  0
  1  2  1  0
  1  3  1  0
  2  3  1  0
  2  4  1  0
  3  5  1  0
  4  6  1  0
  4  8  1  0
  5  7  1  0
  5  9  1  0
  6  7  1  0
  8 10  1  0
  8 11  1  0
M  END
>  <PUBCHEM_COMPOUND_CID>  (1) 
22130

>  <PUBCHEM_CONFORMER_RMSD>  (1) 
0.4

>  <PUBCHEM_CONFORMER_DIVERSEORDER>  (1) 
1
29
51
21
25
33
13
10
28
18
8
30
2
47
24
48
11
53
22
17
38
49
7
23
16
9
50
19
31
3
54
14
4
41
6
20
52
15
12
46
26
5
40
39
44
37
35
43
42
45
36
32
27
34

>  <PUBCHEM_MMFF94_PARTIAL_CHARGES>  (1) 
7
1 -0.3
12 0.1
13 0.1
2 -0.05
3 -0.05
4 0.09
5 0.09

>  <PUBCHEM_EFFECTIVE_ROTOR_COUNT>  (1) 
2

>  <PUBCHEM_PHARMACOPHORE_FEATURES>  (1) 
3
1 1 acceptor
3 8 10 11 hydrophobe
7 1 2 3 4 5 6 7 rings

>  <PUBCHEM_HEAVY_ATOM_COUNT>  (1) 
11

>  <PUBCHEM_ATOM_DEF_STEREO_COUNT>  (1) 
0

>  <PUBCHEM_ATOM_UDEF_STEREO_COUNT>  (1) 
4

>  <PUBCHEM_BOND_DEF_STEREO_COUNT>  (1) 
0

>  <PUBCHEM_BOND_UDEF_STEREO_COUNT>  (1) 
0

>  <PUBCHEM_ISOTOPIC_ATOM_COUNT>  (1) 
0

>  <PUBCHEM_COMPONENT_COUNT>  (1) 
1

>  <PUBCHEM_CACTVS_TAUTO_COUNT>  (1) 
1

>  <PUBCHEM_CONFORMER_ID>  (1) 
0000567200000001

>  <PUBCHEM_MMFF94_ENERGY>  (1) 
19.679

>  <PUBCHEM_FEATURE_SELFOVERLAP>  (1) 
15.223

>  <PUBCHEM_SHAPE_FINGERPRINT>  (1) 
12032990 46 18410301310963903475
12524768 44 18412267254802101092
12716758 59 18335423460678356346
13024252 1 17967249827490838791
13380535 76 18411415154976453146
14325111 11 18411418397334071661
14993402 34 17604160245897145206
15775835 57 18412546521944244353
16945 1 18338518538623622923
18186145 218 18335983077858527357
193761 8 17617940678710486365
19973954 147 18413112753585028128
20201158 50 18343021086311047078
20645476 183 17531544155866373142
20653085 51 18200324220710768289
20871998 184 18127417962615690815
21040471 1 18336550434268864172
23235685 24 18410287029997145237
23402539 116 18129930213741243197
23402655 69 18195226847231673941
23552423 10 18333735740721551798
2748010 2 18338805640002366078
369184 2 18413388747877338618
5084963 1 18342456985058535600
528886 8 18343294898834045043
63268167 104 18342176678418457105
7364860 26 18272369772404196572

>  <PUBCHEM_SHAPE_MULTIPOLES>  (1) 
220.51
4.79
1.63
0.74
0.05
0.08
0.03
0.43
-0.49
0.35
0.08
-0.02
-0.09
0.24

>  <PUBCHEM_SHAPE_SELFOVERLAP>  (1) 
440.283

>  <PUBCHEM_SHAPE_VOLUME>  (1) 
132.1

>  <PUBCHEM_COORDINATE_TYPE>  (1) 
2
5
10

$$$$
