22137
     RDKit          3D

 25 27  0  0  0  0  0  0  0  0999 V2000
   -3.2805   -2.4014    0.2221 S   0  0  0  0  0  0  0  0  0  0  0  0
    0.2239    2.2821   -0.6255 O   0  0  0  0  0  0  0  0  0  0  0  0
   -4.2016   -2.5153   -1.1203 O   0  0  0  0  0  0  0  0  0  0  0  0
   -2.3810   -3.5413    0.2260 O   0  0  0  0  0  0  0  0  0  0  0  0
   -4.1494   -2.1274    1.3520 O   0  0  0  0  0  0  0  0  0  0  0  0
    3.6417    1.8493    0.0117 O   0  0  0  0  0  0  0  0  0  0  0  0
    1.2606   -0.2825   -0.6673 N   0  0  0  0  0  0  0  0  0  0  0  0
    1.8751   -0.2882    0.4245 N   0  0  0  0  0  0  0  0  0  0  0  0
   -2.8483    0.3373    0.0034 C   0  0  0  0  0  0  0  0  0  0  0  0
   -1.9948    1.4476   -0.2010 C   0  0  0  0  0  0  0  0  0  0  0  0
   -2.3072   -0.9585   -0.0210 C   0  0  0  0  0  0  0  0  0  0  0  0
   -0.6255    1.2294   -0.4238 C   0  0  0  0  0  0  0  0  0  0  0  0
   -0.9441   -1.1567   -0.2436 C   0  0  0  0  0  0  0  0  0  0  0  0
   -0.1048   -0.0649   -0.4445 C   0  0  0  0  0  0  0  0  0  0  0  0
   -4.2177    0.5553    0.2257 C   0  0  0  0  0  0  0  0  0  0  0  0
   -2.5362    2.7432   -0.1770 C   0  0  0  0  0  0  0  0  0  0  0  0
   -4.7384    1.8496    0.2465 C   0  0  0  0  0  0  0  0  0  0  0  0
   -3.8991    2.9414    0.0456 C   0  0  0  0  0  0  0  0  0  0  0  0
    3.2453   -0.5068    0.2014 C   0  0  0  0  0  0  0  0  0  0  0  0
    4.1061    0.5683   -0.0009 C   0  0  0  0  0  0  0  0  0  0  0  0
    3.7318   -1.8112    0.1864 C   0  0  0  0  0  0  0  0  0  0  0  0
    5.4641    0.3374   -0.2200 C   0  0  0  0  0  0  0  0  0  0  0  0
    5.0899   -2.0420   -0.0329 C   0  0  0  0  0  0  0  0  0  0  0  0
    5.9561   -0.9677   -0.2361 C   0  0  0  0  0  0  0  0  0  0  0  0
    3.6339    2.5231    1.2686 C   0  0  0  0  0  0  0  0  0  0  0  0
  1  3  1  0
  1  4  2  0
  1  5  2  0
  1 11  1  0
  2 12  1  0
  6 20  1  0
  6 25  1  0
  7  8  2  0
  7 14  1  0
  8 19  1  0
  9 10  1  0
  9 11  2  0
  9 15  1  0
 10 12  2  0
 10 16  1  0
 11 13  1  0
 12 14  1  0
 13 14  2  0
 15 17  2  0
 16 18  2  0
 17 18  1  0
 19 20  2  0
 19 21  1  0
 20 22  1  0
 21 23  2  0
 22 24  2  0
 23 24  1  0
M  END
>  <PUBCHEM_COMPOUND_CID>  (1) 
22137

>  <PUBCHEM_CONFORMER_RMSD>  (1) 
0.8

>  <PUBCHEM_CONFORMER_DIVERSEORDER>  (1) 
1
10
11
3
6
9
8
5
7
4
2

>  <PUBCHEM_MMFF94_PARTIAL_CHARGES>  (1) 
34
1 1.49
11 -0.01
12 0.08
13 -0.15
14 0.18
15 -0.15
16 -0.15
17 -0.15
18 -0.15
19 0.18
2 -0.53
20 0.08
21 -0.15
22 -0.15
23 -0.15
24 -0.15
25 0.28
26 0.15
27 0.15
28 0.15
29 0.15
3 -0.68
30 0.15
31 0.45
32 0.5
33 0.15
34 0.15
35 0.15
36 0.15
4 -0.65
5 -0.65
6 -0.36
7 -0.18
8 -0.18

>  <PUBCHEM_EFFECTIVE_ROTOR_COUNT>  (1) 
4

>  <PUBCHEM_PHARMACOPHORE_FEATURES>  (1) 
9
1 2 donor
1 3 acceptor
1 4 acceptor
1 5 acceptor
1 6 acceptor
4 1 3 4 5 anion
6 19 20 21 22 23 24 rings
6 9 10 11 12 13 14 rings
6 9 10 15 16 17 18 rings

>  <PUBCHEM_HEAVY_ATOM_COUNT>  (1) 
25

>  <PUBCHEM_ATOM_DEF_STEREO_COUNT>  (1) 
0

>  <PUBCHEM_ATOM_UDEF_STEREO_COUNT>  (1) 
0

>  <PUBCHEM_BOND_DEF_STEREO_COUNT>  (1) 
0

>  <PUBCHEM_BOND_UDEF_STEREO_COUNT>  (1) 
0

>  <PUBCHEM_ISOTOPIC_ATOM_COUNT>  (1) 
0

>  <PUBCHEM_COMPONENT_COUNT>  (1) 
1

>  <PUBCHEM_CACTVS_TAUTO_COUNT>  (1) 
3

>  <PUBCHEM_CONFORMER_ID>  (1) 
0000567900000001

>  <PUBCHEM_MMFF94_ENERGY>  (1) 
82.5497

>  <PUBCHEM_FEATURE_SELFOVERLAP>  (1) 
45.754

>  <PUBCHEM_SHAPE_FINGERPRINT>  (1) 
10319926 262 18339911667817970370
10411042 1 18193841677028593723
10616163 171 18410575084938041710
11045977 3 18341610391217684144
11405975 8 18410853240036245504
11552529 35 18201718483106964451
12107183 9 17831293909389508162
12236239 1 17676495999381601860
13140716 1 18411700967453615744
13167823 11 18334576832831155458
13583140 156 18202279217046814246
14341114 176 18411424969013972600
14420673 8 18265618672036065254
14790565 3 17978231556488010105
14844126 61 18408325514507730691
15042514 8 18335427876637829691
15131766 46 15866923194288355965
15196674 1 18410855486394156092
15250474 111 18261943077557911962
16087824 20 18411417277845780205
17492 89 18336549433715940834
17844677 252 18412550937550231394
1813 80 17095239254556714772
18927931 339 18411989069855196831
19141452 34 18335985281050136612
21033648 144 18339629075928989588
21033648 29 17703208669028347978
21065198 57 18411418406187678912
21133410 171 17401988743895723810
21236236 1 18412824681786470847
21267235 1 18336273365933854468
221490 88 18411702110626800288
23557571 272 18343027700439311878
23559900 14 18412539903837569184
335352 9 18339079263989947556
3545911 37 18339924814612850380
4015057 19 18201141201090600621
4073 2 18187372034677921442
4214541 1 18410575054893765436
5104073 3 18410569587737956576
5364581 5 18269538598593038928
5924683 9 18341890818475549903
59755656 520 18263639581228284037
77779 3 18410012122468327494
9709674 26 18409450314696911362

>  <PUBCHEM_SHAPE_MULTIPOLES>  (1) 
479.03
12.7
3.64
0.83
11.9
0.62
-0.1
1.14
-0.74
-3.6
-0.36
-0.14
0.03
0.62

>  <PUBCHEM_SHAPE_SELFOVERLAP>  (1) 
1042.035

>  <PUBCHEM_SHAPE_VOLUME>  (1) 
262.4

>  <PUBCHEM_COORDINATE_TYPE>  (1) 
2
5
10

$$$$
