22135
     RDKit          3D

 31 34  0  0  0  0  0  0  0  0999 V2000
    1.1981   -4.2883   -0.0235 S   0  0  0  0  0  0  0  0  0  0  0  0
    5.5089    2.3042   -0.1816 S   0  0  0  0  0  0  0  0  0  0  0  0
   -1.0783   -2.3955    0.4127 O   0  0  0  0  0  0  0  0  0  0  0  0
    0.4434   -4.5957   -1.4398 O   0  0  0  0  0  0  0  0  0  0  0  0
    6.1037    2.3959    1.3387 O   0  0  0  0  0  0  0  0  0  0  0  0
    2.5566   -4.7933   -0.1457 O   0  0  0  0  0  0  0  0  0  0  0  0
    0.3332   -4.7323    1.0571 O   0  0  0  0  0  0  0  0  0  0  0  0
    6.3877    1.4159   -0.9282 O   0  0  0  0  0  0  0  0  0  0  0  0
    5.2520    3.6578   -0.6483 O   0  0  0  0  0  0  0  0  0  0  0  0
   -0.9558    0.3426    0.5755 N   0  0  0  0  0  0  0  0  0  0  0  0
   -1.4706    0.6417   -0.5256 N   0  0  0  0  0  0  0  0  0  0  0  0
    2.6295   -0.5191    0.0278 C   0  0  0  0  0  0  0  0  0  0  0  0
    1.4633    0.2546    0.2379 C   0  0  0  0  0  0  0  0  0  0  0  0
    0.2233   -0.3925    0.3649 C   0  0  0  0  0  0  0  0  0  0  0  0
    1.2814   -2.5437    0.0794 C   0  0  0  0  0  0  0  0  0  0  0  0
    2.5214   -1.9172   -0.0491 C   0  0  0  0  0  0  0  0  0  0  0  0
    3.8691    0.1283   -0.0995 C   0  0  0  0  0  0  0  0  0  0  0  0
    0.1345   -1.7827    0.2859 C   0  0  0  0  0  0  0  0  0  0  0  0
    3.9580    1.5184   -0.0205 C   0  0  0  0  0  0  0  0  0  0  0  0
    1.5712    1.6529    0.3145 C   0  0  0  0  0  0  0  0  0  0  0  0
    2.8111    2.2794    0.1860 C   0  0  0  0  0  0  0  0  0  0  0  0
   -3.8957    0.7431   -0.1873 C   0  0  0  0  0  0  0  0  0  0  0  0
   -2.6484    1.3756   -0.3157 C   0  0  0  0  0  0  0  0  0  0  0  0
   -5.0525    1.5306    0.0232 C   0  0  0  0  0  0  0  0  0  0  0  0
   -4.0204   -0.6537   -0.2629 C   0  0  0  0  0  0  0  0  0  0  0  0
   -2.5431    2.7647   -0.2378 C   0  0  0  0  0  0  0  0  0  0  0  0
   -4.9280    2.9273    0.0993 C   0  0  0  0  0  0  0  0  0  0  0  0
   -6.2999    0.8981    0.1520 C   0  0  0  0  0  0  0  0  0  0  0  0
   -3.6808    3.5391   -0.0307 C   0  0  0  0  0  0  0  0  0  0  0  0
   -5.2675   -1.2653   -0.1331 C   0  0  0  0  0  0  0  0  0  0  0  0
   -6.4053   -0.4909    0.0741 C   0  0  0  0  0  0  0  0  0  0  0  0
  1  4  1  0
  1  6  2  0
  1  7  2  0
  1 15  1  0
  2  5  1  0
  2  8  2  0
  2  9  2  0
  2 19  1  0
  3 18  1  0
 10 11  2  0
 10 14  1  0
 11 23  1  0
 12 13  2  0
 12 16  1  0
 12 17  1  0
 13 14  1  0
 13 20  1  0
 14 18  2  0
 15 16  2  0
 15 18  1  0
 17 19  2  0
 19 21  1  0
 20 21  2  0
 22 23  1  0
 22 24  1  0
 22 25  2  0
 23 26  2  0
 24 27  1  0
 24 28  2  0
 25 30  1  0
 26 29  1  0
 27 29  2  0
 28 31  1  0
 30 31  2  0
M  END
>  <PUBCHEM_COMPOUND_CID>  (1) 
22135

>  <PUBCHEM_CONFORMER_RMSD>  (1) 
0.8

>  <PUBCHEM_CONFORMER_DIVERSEORDER>  (1) 
1
10
6
9
2
7
3
8
4
5

>  <PUBCHEM_MMFF94_PARTIAL_CHARGES>  (1) 
41
1 1.49
10 -0.18
11 -0.18
14 0.18
15 -0.01
16 -0.15
17 -0.15
18 0.08
19 -0.01
2 1.49
20 -0.15
21 -0.15
23 0.18
25 -0.15
26 -0.15
27 -0.15
28 -0.15
29 -0.15
3 -0.53
30 -0.15
31 -0.15
32 0.15
33 0.15
34 0.15
35 0.15
36 0.15
37 0.15
38 0.15
39 0.45
4 -0.68
40 0.15
41 0.15
42 0.15
43 0.15
44 0.5
45 0.5
5 -0.68
6 -0.65
7 -0.65
8 -0.65
9 -0.65

>  <PUBCHEM_EFFECTIVE_ROTOR_COUNT>  (1) 
4

>  <PUBCHEM_PHARMACOPHORE_FEATURES>  (1) 
13
1 3 donor
1 4 acceptor
1 5 acceptor
1 6 acceptor
1 7 acceptor
1 8 acceptor
1 9 acceptor
4 1 4 6 7 anion
4 2 5 8 9 anion
6 12 13 14 15 16 18 rings
6 12 13 17 19 20 21 rings
6 22 23 24 26 27 29 rings
6 22 24 25 28 30 31 rings

>  <PUBCHEM_HEAVY_ATOM_COUNT>  (1) 
31

>  <PUBCHEM_ATOM_DEF_STEREO_COUNT>  (1) 
0

>  <PUBCHEM_ATOM_UDEF_STEREO_COUNT>  (1) 
0

>  <PUBCHEM_BOND_DEF_STEREO_COUNT>  (1) 
0

>  <PUBCHEM_BOND_UDEF_STEREO_COUNT>  (1) 
0

>  <PUBCHEM_ISOTOPIC_ATOM_COUNT>  (1) 
0

>  <PUBCHEM_COMPONENT_COUNT>  (1) 
1

>  <PUBCHEM_CACTVS_TAUTO_COUNT>  (1) 
3

>  <PUBCHEM_CONFORMER_ID>  (1) 
0000567700000001

>  <PUBCHEM_MMFF94_ENERGY>  (1) 
79.2078

>  <PUBCHEM_FEATURE_SELFOVERLAP>  (1) 
66.139

>  <PUBCHEM_SHAPE_FINGERPRINT>  (1) 
10050765 1 18265895745050884717
10074138 170 17762590169270990034
10190206 1 18126552651333432630
10411042 1 17473543551891882746
10595046 47 18412824656196118905
11135926 11 18410004447514997589
11136131 41 18261663797288163498
11719270 70 18410846647287806888
12107183 9 17549547306431546329
12293681 160 17846502551803938272
12730499 353 18410019818437863851
12788726 201 18050270768245324322
13631057 29 18271804696573761069
138480 1 17905888072452316746
14068700 686 18409451367174954045
14790565 3 18410294748243449172
14849402 71 18262800653904198698
15250474 111 18199732697152862455
15400415 2 18410855434965357257
15664445 248 17840316523345489958
15927050 60 18340767139283681342
16126227 98 18194404613759574488
16992752 21 17329433840074195158
16993438 75 18044664332648581163
17492 89 18266739078880059971
17844677 252 18196378014013919137
18608769 82 18340206422506778537
18681886 176 18263359355497128504
19315958 150 18336551513556460417
19319366 153 18342730819283184636
19611394 137 17679316405805553169
20286276 3 18194686952213842681
21033648 29 18270674398236215168
21065198 57 18050284770160131197
21133410 127 17968941868718923428
21133410 32 16452138103264573987
221490 88 18193562168872260427
22149856 69 18264231179030528897
23559900 14 18051685543478425683
239999 70 18129666283622041070
25019877 29 18341617069965423724
335352 9 18409733976677152356
350125 39 18410291445081438561
4058900 60 18335994099002876786
4073 2 18334301942503124337
4461854 278 18123206842473720419
5104073 3 18262238803404383561
5265222 85 18267030646724039284
59755656 215 18410577288071291101
6287921 2 18188500064450615237
6442390 28 18410008870772188388
6669772 16 18343588447554980950
6700243 42 17043776802340266950
6703917 75 18337967787005674276
9658208 31 18127687335065450072
9709674 26 18264774255969940763
9981440 41 18335702770949190017

>  <PUBCHEM_SHAPE_MULTIPOLES>  (1) 
594.62
14.29
5.98
0.8
5.06
6.89
-0.01
-13.33
-0.46
-5.01
-0.31
-0.45
0.16
0.03

>  <PUBCHEM_SHAPE_SELFOVERLAP>  (1) 
1305.093

>  <PUBCHEM_SHAPE_VOLUME>  (1) 
322.3

>  <PUBCHEM_COORDINATE_TYPE>  (1) 
2
5
10

$$$$
