22139
     RDKit          3D

 27 29  0  0  0  0  0  0  0  0999 V2000
   -2.8938   -1.2038   -1.7472 S   0  0  0  0  0  0  0  0  0  0  0  0
    1.4599    2.5714    0.0097 O   0  0  0  0  0  0  0  0  0  0  0  0
   -2.2353   -2.5035   -1.0076 O   0  0  0  0  0  0  0  0  0  0  0  0
   -4.1718   -1.6273   -2.2968 O   0  0  0  0  0  0  0  0  0  0  0  0
   -1.8796   -0.6030   -2.5973 O   0  0  0  0  0  0  0  0  0  0  0  0
    5.4799    2.0559   -0.3859 O   0  0  0  0  0  0  0  0  0  0  0  0
    3.7625    3.2144   -1.3212 O   0  0  0  0  0  0  0  0  0  0  0  0
   -0.1152    0.4942    0.8792 N   0  0  0  0  0  0  0  0  0  0  0  0
   -0.8390    0.3447   -0.1303 N   0  0  0  0  0  0  0  0  0  0  0  0
    1.7736   -1.0379    0.6396 C   0  0  0  0  0  0  0  0  0  0  0  0
    3.1291   -1.2440    0.2889 C   0  0  0  0  0  0  0  0  0  0  0  0
    1.2268    0.2518    0.5397 C   0  0  0  0  0  0  0  0  0  0  0  0
    3.8979   -0.1542   -0.1515 C   0  0  0  0  0  0  0  0  0  0  0  0
    2.0052    1.3232    0.1006 C   0  0  0  0  0  0  0  0  0  0  0  0
    3.3382    1.1205   -0.2445 C   0  0  0  0  0  0  0  0  0  0  0  0
   -3.2157   -0.0621   -0.4601 C   0  0  0  0  0  0  0  0  0  0  0  0
   -2.1812    0.5868    0.2088 C   0  0  0  0  0  0  0  0  0  0  0  0
    1.0050   -2.1279    1.0795 C   0  0  0  0  0  0  0  0  0  0  0  0
    3.6760   -2.5337    0.3882 C   0  0  0  0  0  0  0  0  0  0  0  0
   -4.8251    1.1015    0.9156 C   0  0  0  0  0  0  0  0  0  0  0  0
   -4.5399    0.1957   -0.1061 C   0  0  0  0  0  0  0  0  0  0  0  0
   -2.4615    1.4918    1.2294 C   0  0  0  0  0  0  0  0  0  0  0  0
   -3.7859    1.7495    1.5833 C   0  0  0  0  0  0  0  0  0  0  0  0
    1.5647   -3.4025    1.1725 C   0  0  0  0  0  0  0  0  0  0  0  0
    2.8976   -3.6051    0.8274 C   0  0  0  0  0  0  0  0  0  0  0  0
   -6.2410    1.3794    1.2928 C   0  0  0  0  0  0  0  0  0  0  0  0
    4.1686    2.2242   -0.7069 C   0  0  0  0  0  0  0  0  0  0  0  0
  1  3  1  0
  1  4  2  0
  1  5  2  0
  1 16  1  0
  2 14  1  0
  6 27  1  0
  7 27  2  0
  8  9  2  0
  8 12  1  0
  9 17  1  0
 10 11  1  0
 10 12  2  0
 10 18  1  0
 11 13  2  0
 11 19  1  0
 12 14  1  0
 13 15  1  0
 14 15  2  0
 15 27  1  0
 16 17  2  0
 16 21  1  0
 17 22  1  0
 18 24  2  0
 19 25  2  0
 20 21  2  0
 20 23  1  0
 20 26  1  0
 22 23  2  0
 24 25  1  0
M  END
>  <PUBCHEM_COMPOUND_CID>  (1) 
22139

>  <PUBCHEM_CONFORMER_RMSD>  (1) 
0.8

>  <PUBCHEM_CONFORMER_DIVERSEORDER>  (1) 
1
5
2
7
6
8
4
3

>  <PUBCHEM_MMFF94_PARTIAL_CHARGES>  (1) 
36
1 1.49
12 0.18
13 -0.15
14 0.08
15 0.09
16 -0.01
17 0.18
18 -0.15
19 -0.15
2 -0.53
20 -0.14
21 -0.15
22 -0.15
23 -0.15
24 -0.15
25 -0.15
26 0.14
27 0.63
28 0.15
29 0.15
3 -0.68
30 0.15
31 0.15
32 0.15
33 0.15
34 0.15
35 0.15
39 0.45
4 -0.65
40 0.5
41 0.5
5 -0.65
6 -0.65
7 -0.57
8 -0.18
9 -0.18

>  <PUBCHEM_EFFECTIVE_ROTOR_COUNT>  (1) 
4

>  <PUBCHEM_PHARMACOPHORE_FEATURES>  (1) 
11
1 2 donor
1 3 acceptor
1 4 acceptor
1 5 acceptor
1 6 acceptor
1 7 acceptor
3 6 7 27 anion
4 1 3 4 5 anion
6 10 11 12 13 14 15 rings
6 10 11 18 19 24 25 rings
6 16 17 20 21 22 23 rings

>  <PUBCHEM_HEAVY_ATOM_COUNT>  (1) 
27

>  <PUBCHEM_ATOM_DEF_STEREO_COUNT>  (1) 
0

>  <PUBCHEM_ATOM_UDEF_STEREO_COUNT>  (1) 
0

>  <PUBCHEM_BOND_DEF_STEREO_COUNT>  (1) 
0

>  <PUBCHEM_BOND_UDEF_STEREO_COUNT>  (1) 
0

>  <PUBCHEM_ISOTOPIC_ATOM_COUNT>  (1) 
0

>  <PUBCHEM_COMPONENT_COUNT>  (1) 
1

>  <PUBCHEM_CACTVS_TAUTO_COUNT>  (1) 
4

>  <PUBCHEM_CONFORMER_ID>  (1) 
0000567B00000001

>  <PUBCHEM_MMFF94_ENERGY>  (1) 
78.4477

>  <PUBCHEM_FEATURE_SELFOVERLAP>  (1) 
55.963

>  <PUBCHEM_SHAPE_FINGERPRINT>  (1) 
10369192 42 17314530290444092972
10411042 1 17757556253337730498
11049842 53 16698386827442723753
11135609 187 18118111692230242709
12107183 9 17690570680383904825
12236239 1 18273217486488317961
12553582 1 18120363260031622642
12730499 353 18115325430754052112
12788726 201 17917142918635872111
13533116 47 18410859820211246265
13583140 156 17970347002129225797
13631057 29 18124593339188294935
13726171 33 17345766316198485929
13782708 43 16589158121209359227
13785724 45 17476652983723243931
14790565 3 18190754213559072516
15250474 111 18271795835534685391
15537594 2 18341618092040882663
15842332 3 18272079483642989039
16752209 62 17346302830965654383
17818456 19 17700133201360721681
1813 80 17979643338250634734
19319366 153 18411989060943132080
20511986 3 18201991119004290520
20600515 1 16271632404691673465
20645477 70 18041280980613317696
21033648 144 17533213304949254844
21033648 29 16660359260150103463
21781055 127 16485585208578586491
2255824 54 18336548227157081034
23558518 356 17837494411508480700
23566358 27 18408888399551169942
23598291 2 18343294851594608287
24771293 8 18340754985221780234
25147074 1 18272363166248805135
266924 1 18271518788605368663
38570 142 18266200429561183116
4409770 3 15889939545570083745
469060 322 15936971984967610843
474 4 18334298699201773192
57527293 21 16154280549285478688
5912855 24 18270964652226201043
6034566 193 17534923071141832684
633830 44 18410301336754546790
8272917 22 18336273357549810760

>  <PUBCHEM_SHAPE_MULTIPOLES>  (1) 
514.32
11.34
3.72
1.65
7.78
1.2
-0.9
-4.46
0.7
-5.25
0.07
2.03
0.52
-3.87

>  <PUBCHEM_SHAPE_SELFOVERLAP>  (1) 
1125.397

>  <PUBCHEM_SHAPE_VOLUME>  (1) 
279

>  <PUBCHEM_COORDINATE_TYPE>  (1) 
2
5
10

$$$$
