22146
     RDKit          3D

 12 12  0  0  0  0  0  0  0  0999 V2000
   -3.0581   -1.4246    1.1715 Cl  0  0  0  0  0  0  0  0  0  0  0  0
    3.0590   -1.4230    1.1714 Cl  0  0  0  0  0  0  0  0  0  0  0  0
    0.0005   -2.1689   -0.6361 O   0  0  0  0  0  0  0  0  0  0  0  0
   -1.2080   -0.1348   -0.3029 C   0  0  0  0  0  0  0  0  0  0  0  0
    1.2081   -0.1344   -0.3028 C   0  0  0  0  0  0  0  0  0  0  0  0
   -0.0006    1.9303    0.0346 C   0  0  0  0  0  0  0  0  0  0  0  0
    0.0001   -0.8229   -0.4154 C   0  0  0  0  0  0  0  0  0  0  0  0
   -1.2084    1.2418   -0.0780 C   0  0  0  0  0  0  0  0  0  0  0  0
    1.2076    1.2423   -0.0777 C   0  0  0  0  0  0  0  0  0  0  0  0
   -2.5111   -0.8545   -0.4206 C   0  0  0  0  0  0  0  0  0  0  0  0
    2.5118   -0.8533   -0.4207 C   0  0  0  0  0  0  0  0  0  0  0  0
   -0.0009    3.4020    0.2766 C   0  0  0  0  0  0  0  0  0  0  0  0
  1 10  1  0
  2 11  1  0
  3  7  1  0
  4  7  2  0
  4  8  1  0
  4 10  1  0
  5  7  1  0
  5  9  2  0
  5 11  1  0
  6  8  2  0
  6  9  1  0
  6 12  1  0
M  END
>  <PUBCHEM_COMPOUND_CID>  (1) 
22146

>  <PUBCHEM_CONFORMER_RMSD>  (1) 
0.6

>  <PUBCHEM_CONFORMER_DIVERSEORDER>  (1) 
1
4
3
2

>  <PUBCHEM_MMFF94_PARTIAL_CHARGES>  (1) 
15
1 -0.29
10 0.43
11 0.43
12 0.14
13 0.15
14 0.15
2 -0.29
22 0.45
3 -0.53
4 -0.14
5 -0.14
6 -0.14
7 0.08
8 -0.15
9 -0.15

>  <PUBCHEM_EFFECTIVE_ROTOR_COUNT>  (1) 
2

>  <PUBCHEM_PHARMACOPHORE_FEATURES>  (1) 
2
1 3 donor
6 4 5 6 7 8 9 rings

>  <PUBCHEM_HEAVY_ATOM_COUNT>  (1) 
12

>  <PUBCHEM_ATOM_DEF_STEREO_COUNT>  (1) 
0

>  <PUBCHEM_ATOM_UDEF_STEREO_COUNT>  (1) 
0

>  <PUBCHEM_BOND_DEF_STEREO_COUNT>  (1) 
0

>  <PUBCHEM_BOND_UDEF_STEREO_COUNT>  (1) 
0

>  <PUBCHEM_ISOTOPIC_ATOM_COUNT>  (1) 
0

>  <PUBCHEM_COMPONENT_COUNT>  (1) 
1

>  <PUBCHEM_CACTVS_TAUTO_COUNT>  (1) 
2

>  <PUBCHEM_CONFORMER_ID>  (1) 
0000568200000001

>  <PUBCHEM_MMFF94_ENERGY>  (1) 
27.7708

>  <PUBCHEM_FEATURE_SELFOVERLAP>  (1) 
10.148

>  <PUBCHEM_SHAPE_FINGERPRINT>  (1) 
10130415 120 18334575733213720843
12423570 1 8987189981815236828
13140716 1 18339924822559479897
13380535 76 17620179941314181196
16945 1 18201719552432339566
17841504 4 18263367048041343043
19021347 4 17473823926997723936
20871998 184 18199741454036894542
21040471 1 16827276450980814309
21061003 4 18341898493339261259
21524375 3 16973070005007155620
2334 1 18412262869371869333
23559900 14 17265821621177610334
241688 4 18341050735351055368
2748010 2 18413100662919969172
3071541 236 17830162515807939296
528862 383 18122909999443523969
81228 2 18123471574854786993

>  <PUBCHEM_SHAPE_MULTIPOLES>  (1) 
244.82
3.88
3
0.96
0
2.71
0.23
-3.21
1.28
0
0.48
0
-0.41
0

>  <PUBCHEM_SHAPE_SELFOVERLAP>  (1) 
486.062

>  <PUBCHEM_SHAPE_VOLUME>  (1) 
149.9

>  <PUBCHEM_COORDINATE_TYPE>  (1) 
2
5
10

$$$$
