22141
     RDKit          3D

 31 34  0  0  0  0  0  0  0  0999 V2000
   -1.8179   -2.2065   -0.7355 S   0  0  0  0  0  0  0  0  0  0  0  0
    5.3078   -1.2851    0.4042 S   0  0  0  0  0  0  0  0  0  0  0  0
   -1.2948    2.8607    0.9583 O   0  0  0  0  0  0  0  0  0  0  0  0
   -1.1709   -2.4480    0.7422 O   0  0  0  0  0  0  0  0  0  0  0  0
    6.2893   -0.1804    1.0969 O   0  0  0  0  0  0  0  0  0  0  0  0
   -2.1774   -3.5071   -1.2690 O   0  0  0  0  0  0  0  0  0  0  0  0
   -0.9567   -1.3019   -1.4729 O   0  0  0  0  0  0  0  0  0  0  0  0
    5.3146   -2.4618    1.2552 O   0  0  0  0  0  0  0  0  0  0  0  0
    5.6434   -1.3764   -1.0050 O   0  0  0  0  0  0  0  0  0  0  0  0
   -0.9613    0.3121    0.1006 N   0  0  0  0  0  0  0  0  0  0  0  0
   -0.2017    0.8909    0.9100 N   0  0  0  0  0  0  0  0  0  0  0  0
   -3.4165   -0.0013    0.0146 C   0  0  0  0  0  0  0  0  0  0  0  0
   -4.6980    0.5649    0.2139 C   0  0  0  0  0  0  0  0  0  0  0  0
    3.3172    0.5340   -0.2774 C   0  0  0  0  0  0  0  0  0  0  0  0
    2.0032    1.0432   -0.1484 C   0  0  0  0  0  0  0  0  0  0  0  0
   -3.3143   -1.3293   -0.4305 C   0  0  0  0  0  0  0  0  0  0  0  0
   -2.2768    0.7778    0.2669 C   0  0  0  0  0  0  0  0  0  0  0  0
    3.7016   -0.5773    0.4905 C   0  0  0  0  0  0  0  0  0  0  0  0
    1.1120    0.4260    0.7445 C   0  0  0  0  0  0  0  0  0  0  0  0
   -5.8396   -0.2137   -0.0376 C   0  0  0  0  0  0  0  0  0  0  0  0
   -4.8004    1.8928    0.6596 C   0  0  0  0  0  0  0  0  0  0  0  0
   -4.4590   -2.0881   -0.6759 C   0  0  0  0  0  0  0  0  0  0  0  0
    2.8033   -1.1781    1.3729 C   0  0  0  0  0  0  0  0  0  0  0  0
   -2.3954    2.0949    0.7088 C   0  0  0  0  0  0  0  0  0  0  0  0
    1.5109   -0.6774    1.4996 C   0  0  0  0  0  0  0  0  0  0  0  0
    4.2080    1.1512   -1.1707 C   0  0  0  0  0  0  0  0  0  0  0  0
    1.6186    2.1543   -0.9165 C   0  0  0  0  0  0  0  0  0  0  0  0
   -5.7195   -1.5315   -0.4798 C   0  0  0  0  0  0  0  0  0  0  0  0
   -3.6557    2.6516    0.9050 C   0  0  0  0  0  0  0  0  0  0  0  0
    3.8093    2.2545   -1.9256 C   0  0  0  0  0  0  0  0  0  0  0  0
    2.5168    2.7552   -1.7990 C   0  0  0  0  0  0  0  0  0  0  0  0
  1  4  1  0
  1  6  2  0
  1  7  2  0
  1 16  1  0
  2  5  1  0
  2  8  2  0
  2  9  2  0
  2 18  1  0
  3 24  1  0
 10 11  2  0
 10 17  1  0
 11 19  1  0
 12 13  1  0
 12 16  2  0
 12 17  1  0
 13 20  2  0
 13 21  1  0
 14 15  1  0
 14 18  2  0
 14 26  1  0
 15 19  2  0
 15 27  1  0
 16 22  1  0
 17 24  2  0
 18 23  1  0
 19 25  1  0
 20 28  1  0
 21 29  2  0
 22 28  2  0
 23 25  2  0
 24 29  1  0
 26 30  2  0
 27 31  2  0
 30 31  1  0
M  END
>  <PUBCHEM_COMPOUND_CID>  (1) 
22141

>  <PUBCHEM_CONFORMER_RMSD>  (1) 
0.8

>  <PUBCHEM_CONFORMER_DIVERSEORDER>  (1) 
1
4
5
2
3

>  <PUBCHEM_MMFF94_PARTIAL_CHARGES>  (1) 
41
1 1.49
10 -0.18
11 -0.18
16 -0.01
17 0.18
18 -0.01
19 0.18
2 1.49
20 -0.15
21 -0.15
22 -0.15
23 -0.15
24 0.08
25 -0.15
26 -0.15
27 -0.15
28 -0.15
29 -0.15
3 -0.53
30 -0.15
31 -0.15
32 0.15
33 0.15
34 0.15
35 0.15
36 0.15
37 0.15
38 0.15
39 0.15
4 -0.68
40 0.15
41 0.15
42 0.15
43 0.45
44 0.5
45 0.5
5 -0.68
6 -0.65
7 -0.65
8 -0.65
9 -0.65

>  <PUBCHEM_EFFECTIVE_ROTOR_COUNT>  (1) 
4

>  <PUBCHEM_PHARMACOPHORE_FEATURES>  (1) 
13
1 3 donor
1 4 acceptor
1 5 acceptor
1 6 acceptor
1 7 acceptor
1 8 acceptor
1 9 acceptor
4 1 4 6 7 anion
4 2 5 8 9 anion
6 12 13 16 20 22 28 rings
6 12 13 17 21 24 29 rings
6 14 15 18 19 23 25 rings
6 14 15 26 27 30 31 rings

>  <PUBCHEM_HEAVY_ATOM_COUNT>  (1) 
31

>  <PUBCHEM_ATOM_DEF_STEREO_COUNT>  (1) 
0

>  <PUBCHEM_ATOM_UDEF_STEREO_COUNT>  (1) 
0

>  <PUBCHEM_BOND_DEF_STEREO_COUNT>  (1) 
0

>  <PUBCHEM_BOND_UDEF_STEREO_COUNT>  (1) 
0

>  <PUBCHEM_ISOTOPIC_ATOM_COUNT>  (1) 
0

>  <PUBCHEM_COMPONENT_COUNT>  (1) 
1

>  <PUBCHEM_CACTVS_TAUTO_COUNT>  (1) 
3

>  <PUBCHEM_CONFORMER_ID>  (1) 
0000567D00000001

>  <PUBCHEM_MMFF94_ENERGY>  (1) 
111.5654

>  <PUBCHEM_FEATURE_SELFOVERLAP>  (1) 
66.139

>  <PUBCHEM_SHAPE_FINGERPRINT>  (1) 
10369192 42 16698342082790823424
10622 236 18338504348347680599
11513181 2 17487045670513214815
11756154 67 17693384343730565598
12107183 9 18191588536541215825
12236239 1 18407760322074705456
12422481 6 18054495916890616186
12467345 10 18407761451761685772
12553582 1 18128251388819983495
12616971 3 18261403225848547825
12788726 201 18270691964446064353
13009979 54 18411419466939359696
13583140 156 17386573440923793705
13726171 33 17771934845291675273
13782708 43 16630526267320704327
14117953 113 18266176128863563157
14251757 5 18197506327486790415
14289585 56 17531526481948934588
15001296 14 18335421334790890156
15021287 119 18114181908538475176
15183329 4 18411426106747529926
15250474 111 18410572924363555766
15297060 5 17916867894462208883
15420108 30 17617098006011545280
15664445 248 15967915793541657582
16752209 62 18272368702719898177
17818456 19 18342175552936409356
1813 80 17968944072452551550
18681886 176 18410852162105150792
19319366 153 18188202225506276795
20511986 3 18334564759403968152
20612939 158 17822013129207673860
21033648 29 15769785632747335769
21781051 124 18340778143348284235
21781055 127 17558294058326203793
23559900 14 18202271524454854784
24771293 8 18333168376359934408
25147074 1 18408330985847626984
3004659 81 18410859867318638622
335352 9 18343013390547421229
3383291 50 18411134770922475611
338550 245 18412829053572853670
34797466 226 17489593402859516032
3633792 109 18041544915402644423
474 4 17605000388787626540
5265222 85 17917710249513626158
6034566 193 16157675944049993780
67856867 119 18409166649392842616
86090 222 15408960087028331357

>  <PUBCHEM_SHAPE_MULTIPOLES>  (1) 
594.62
13.59
3.4
1.45
3.18
0.05
-0.25
-3.66
-0.06
-0.8
-0.66
1.22
0.21
-3.57

>  <PUBCHEM_SHAPE_SELFOVERLAP>  (1) 
1315.779

>  <PUBCHEM_SHAPE_VOLUME>  (1) 
318

>  <PUBCHEM_COORDINATE_TYPE>  (1) 
2
5
10

$$$$
