22148
     RDKit          3D

  8  8  0  0  1  0  0  0  0  0999 V2000
    0.0999   -0.9247   -1.0954 S   0  0  0  0  0  0  0  0  0  0  0  0
   -0.2575    1.2463    0.9391 S   0  0  0  0  0  0  0  0  0  0  0  0
   -1.0946   -0.1051    0.0320 C   0  0  0  0  0  0  0  0  0  0  0  0
    1.6068   -0.0636   -0.5420 C   0  0  0  0  0  0  0  0  0  0  0  0
    1.2013    1.3441   -0.1286 C   0  0  0  0  0  0  0  0  0  0  0  0
   -1.6267   -1.1281    1.0349 C   0  0  0  0  0  0  0  0  0  0  0  0
   -2.2298    0.4858   -0.8050 C   0  0  0  0  0  0  0  0  0  0  0  0
    2.3005   -0.8547    0.5650 C   0  0  0  0  0  0  0  0  0  0  0  0
  1  3  1  0
  1  4  1  0
  2  3  1  0
  2  5  1  0
  3  6  1  0
  3  7  1  0
  4  5  1  0
  4  8  1  0
M  END
>  <PUBCHEM_COMPOUND_CID>  (1) 
22148

>  <PUBCHEM_CONFORMER_RMSD>  (1) 
0.4

>  <PUBCHEM_CONFORMER_DIVERSEORDER>  (1) 
2
3
1

>  <PUBCHEM_MMFF94_PARTIAL_CHARGES>  (1) 
5
1 -0.46
2 -0.46
3 0.46
4 0.23
5 0.23

>  <PUBCHEM_EFFECTIVE_ROTOR_COUNT>  (1) 
1

>  <PUBCHEM_PHARMACOPHORE_FEATURES>  (1) 
2
3 3 6 7 hydrophobe
5 1 2 3 4 5 rings

>  <PUBCHEM_HEAVY_ATOM_COUNT>  (1) 
8

>  <PUBCHEM_ATOM_DEF_STEREO_COUNT>  (1) 
0

>  <PUBCHEM_ATOM_UDEF_STEREO_COUNT>  (1) 
1

>  <PUBCHEM_BOND_DEF_STEREO_COUNT>  (1) 
0

>  <PUBCHEM_BOND_UDEF_STEREO_COUNT>  (1) 
0

>  <PUBCHEM_ISOTOPIC_ATOM_COUNT>  (1) 
0

>  <PUBCHEM_COMPONENT_COUNT>  (1) 
1

>  <PUBCHEM_CACTVS_TAUTO_COUNT>  (1) 
1

>  <PUBCHEM_CONFORMER_ID>  (1) 
0000568400000002

>  <PUBCHEM_MMFF94_ENERGY>  (1) 
15.6967

>  <PUBCHEM_FEATURE_SELFOVERLAP>  (1) 
10.148

>  <PUBCHEM_SHAPE_FINGERPRINT>  (1) 
137420 1 11879444357506941736
15310529 11 17968383458344121564
16945 1 18335698291293070317
18185500 45 17916298510283676678
21040471 1 17560808757197817172
21922407 69 16879941735005872919
23235685 24 17631752563126160028
23235687 12 16588299531618865812
241688 4 17334510301899818336
24536 1 18199770079693040444
29004967 10 18342747333448112402
5084963 1 18260814987063942485

>  <PUBCHEM_SHAPE_MULTIPOLES>  (1) 
172.34
2.81
1.47
1.2
0.19
0.31
0.1
-0.4
0.11
0.14
0.12
-0.29
-0.2
0.08

>  <PUBCHEM_SHAPE_SELFOVERLAP>  (1) 
303.237

>  <PUBCHEM_SHAPE_VOLUME>  (1) 
114

>  <PUBCHEM_COORDINATE_TYPE>  (1) 
2
5
10

$$$$
