22158
     RDKit          3D

 18 18  0  0  1  0  0  0  0  0999 V2000
   -3.6312   -0.3814   -0.2435 O   0  0  0  0  0  0  0  0  0  0  0  0
   -2.1949    2.0322    1.3147 O   0  0  0  0  0  0  0  0  0  0  0  0
   -1.9823   -1.5816    0.8308 O   0  0  0  0  0  0  0  0  0  0  0  0
   -0.0779    0.1404    0.0484 N   0  0  0  0  0  0  0  0  0  0  0  0
    0.6620   -0.0502   -0.9396 N   0  0  0  0  0  0  0  0  0  0  0  0
   -1.4448    0.4692   -0.3566 C   0  0  0  0  0  0  0  0  0  0  0  0
    4.1758    0.3508    0.1285 C   0  0  0  0  0  0  0  0  0  0  0  0
   -1.7201    1.8531    0.1931 C   0  0  0  0  0  0  0  0  0  0  0  0
    1.9613   -0.3609   -0.5047 C   0  0  0  0  0  0  0  0  0  0  0  0
   -2.3499   -0.6202    0.1680 C   0  0  0  0  0  0  0  0  0  0  0  0
    2.8860    0.6598   -0.3036 C   0  0  0  0  0  0  0  0  0  0  0  0
    4.5352   -0.9775    0.3574 C   0  0  0  0  0  0  0  0  0  0  0  0
    2.3152   -1.6877   -0.2778 C   0  0  0  0  0  0  0  0  0  0  0  0
    3.6049   -1.9966    0.1543 C   0  0  0  0  0  0  0  0  0  0  0  0
   -4.5992   -1.3585    0.1520 C   0  0  0  0  0  0  0  0  0  0  0  0
   -1.3540    3.0192   -0.6894 C   0  0  0  0  0  0  0  0  0  0  0  0
    5.1708    1.4403    0.3464 C   0  0  0  0  0  0  0  0  0  0  0  0
   -5.9570   -0.9504   -0.3786 C   0  0  0  0  0  0  0  0  0  0  0  0
  1 10  1  0
  1 15  1  0
  2  8  2  0
  3 10  2  0
  4  5  2  0
  4  6  1  0
  5  9  1  0
  6  8  1  0
  6 10  1  0
  7 11  2  0
  7 12  1  0
  7 17  1  0
  8 16  1  0
  9 11  1  0
  9 13  2  0
 12 14  2  0
 13 14  1  0
 15 18  1  0
M  END
>  <PUBCHEM_COMPOUND_CID>  (1) 
22158

>  <PUBCHEM_CONFORMER_RMSD>  (1) 
0.8

>  <PUBCHEM_CONFORMER_DIVERSEORDER>  (1) 
1
148
159
30
80
5
92
145
90
19
79
131
156
152
49
105
77
115
121
157
100
93
106
87
60
81
75
91
122
12
85
134
153
120
42
36
63
138
126
114
97
102
66
73
84
68
61
132
10
47
119
124
86
51
133
24
137
107
161
127
135
160
76
125
65
78
149
37
88
146
117
31
94
111
83
67
29
136
104
98
58
113
162
141
142
41
40
4
89
33
108
56
123
54
9
50
96
38
44
82
16
53
158
25
151
128
112
26
14
139
150
57
59
99
130
21
118
34
39
11
143
6
20
46
55
69
15
22
45
52
48
74
147
18
95
3
140
64
129
72
17
71
109
32
23
7
101
43
154
110
27
144
103
155
28
116
35
13
8
70
2
62

>  <PUBCHEM_MMFF94_PARTIAL_CHARGES>  (1) 
21
1 -0.43
10 0.66
11 -0.15
12 -0.15
13 -0.15
14 -0.15
15 0.28
16 0.06
17 0.14
2 -0.57
20 0.15
21 0.15
22 0.15
25 0.15
3 -0.57
4 -0.25
5 -0.18
6 0.37
7 -0.14
8 0.45
9 0.18

>  <PUBCHEM_EFFECTIVE_ROTOR_COUNT>  (1) 
6

>  <PUBCHEM_PHARMACOPHORE_FEATURES>  (1) 
4
1 2 acceptor
1 3 acceptor
1 6 anion
6 7 9 11 12 13 14 rings

>  <PUBCHEM_HEAVY_ATOM_COUNT>  (1) 
18

>  <PUBCHEM_ATOM_DEF_STEREO_COUNT>  (1) 
0

>  <PUBCHEM_ATOM_UDEF_STEREO_COUNT>  (1) 
1

>  <PUBCHEM_BOND_DEF_STEREO_COUNT>  (1) 
0

>  <PUBCHEM_BOND_UDEF_STEREO_COUNT>  (1) 
0

>  <PUBCHEM_ISOTOPIC_ATOM_COUNT>  (1) 
0

>  <PUBCHEM_COMPONENT_COUNT>  (1) 
1

>  <PUBCHEM_CACTVS_TAUTO_COUNT>  (1) 
5

>  <PUBCHEM_CONFORMER_ID>  (1) 
0000568E00000001

>  <PUBCHEM_MMFF94_ENERGY>  (1) 
32.3252

>  <PUBCHEM_FEATURE_SELFOVERLAP>  (1) 
20.297

>  <PUBCHEM_SHAPE_FINGERPRINT>  (1) 
10366900 7 18411426141513313690
10447042 23 18410846681347352263
10608611 8 18338514132604537668
11045515 52 18040713680201391317
12916754 54 18341052900309711630
13533116 47 18335699416891571882
14289901 80 18343016675580282722
15196674 1 18410856529585574516
17492 89 18267864986844399054
200 152 18411132546038790247
20279233 1 16008470928092113226
20510252 161 18412263895984753473
20645477 70 18409728431094002054
20681677 76 18337665322365324420
21065198 48 18411984620374124690
21065199 12 18339921516035600178
21267235 1 18412832365567599790
21652331 79 18342173397316591876
22079108 93 14045737140870750871
23402539 116 18412821387572928727
23419403 2 17987495127136893697
23557571 272 18272942595801928300
23559900 14 18262517121073501328
26918003 58 18040996284311148219
2838139 119 15338247162179148706
2871803 45 18333449828848705394
3009799 131 18336537284028459469
312423 11 18340218401133423014
347723 3 16732977635789544997
4214541 1 18338798892983088984
5104073 3 18269832034926503130
5283173 99 18114731643347376445
5374978 207 18411134749219875962
5486654 2 18339645662965579190
9709674 26 18338242561369205118

>  <PUBCHEM_SHAPE_MULTIPOLES>  (1) 
342.86
11.4
2.47
0.83
2.97
1.39
-0.06
-3.66
-0.65
0.54
-0.07
0.18
0.17
0.02

>  <PUBCHEM_SHAPE_SELFOVERLAP>  (1) 
697.609

>  <PUBCHEM_SHAPE_VOLUME>  (1) 
200.3

>  <PUBCHEM_COORDINATE_TYPE>  (1) 
2
5
10

$$$$
