22155
     RDKit          3D

 30 32  0  0  0  0  0  0  0  0999 V2000
   -1.2719   -3.0708    0.0474 S   0  0  0  0  0  0  0  0  0  0  0  0
    5.9472    1.3975    0.0548 S   0  0  0  0  0  0  0  0  0  0  0  0
    0.6555    1.6280    0.7019 O   0  0  0  0  0  0  0  0  0  0  0  0
   -2.1074   -2.6824   -1.3018 O   0  0  0  0  0  0  0  0  0  0  0  0
    6.1013    1.9590   -1.4728 O   0  0  0  0  0  0  0  0  0  0  0  0
   -0.7058   -4.3931   -0.1664 O   0  0  0  0  0  0  0  0  0  0  0  0
   -2.1158   -2.7985    1.1987 O   0  0  0  0  0  0  0  0  0  0  0  0
    5.5623    2.5287    0.8862 O   0  0  0  0  0  0  0  0  0  0  0  0
    7.1318    0.6144    0.3699 O   0  0  0  0  0  0  0  0  0  0  0  0
   -2.4893    2.9489    0.1035 O   0  0  0  0  0  0  0  0  0  0  0  0
   -1.4711   -0.1101    0.6216 N   0  0  0  0  0  0  0  0  0  0  0  0
   -1.9960    0.2463   -0.4578 N   0  0  0  0  0  0  0  0  0  0  0  0
    2.2137   -0.1357    0.1951 C   0  0  0  0  0  0  0  0  0  0  0  0
    2.4391   -1.5041   -0.0865 C   0  0  0  0  0  0  0  0  0  0  0  0
    0.0511   -1.9254    0.1087 C   0  0  0  0  0  0  0  0  0  0  0  0
    0.9027    0.3106    0.4285 C   0  0  0  0  0  0  0  0  0  0  0  0
    1.3469   -2.3860   -0.1262 C   0  0  0  0  0  0  0  0  0  0  0  0
   -0.1705   -0.5795    0.3854 C   0  0  0  0  0  0  0  0  0  0  0  0
    3.3058    0.7464    0.2350 C   0  0  0  0  0  0  0  0  0  0  0  0
    4.6018    0.2856    0.0010 C   0  0  0  0  0  0  0  0  0  0  0  0
    3.7500   -1.9504   -0.3199 C   0  0  0  0  0  0  0  0  0  0  0  0
    4.8234   -1.0601   -0.2761 C   0  0  0  0  0  0  0  0  0  0  0  0
   -3.2992    0.7165   -0.2216 C   0  0  0  0  0  0  0  0  0  0  0  0
   -5.6621    0.2738   -0.0338 C   0  0  0  0  0  0  0  0  0  0  0  0
   -4.3637   -0.1796   -0.2670 C   0  0  0  0  0  0  0  0  0  0  0  0
   -3.5229    2.0624    0.0551 C   0  0  0  0  0  0  0  0  0  0  0  0
   -5.8909    1.6214    0.2438 C   0  0  0  0  0  0  0  0  0  0  0  0
   -4.8212    2.5157    0.2883 C   0  0  0  0  0  0  0  0  0  0  0  0
   -6.8059   -0.6819   -0.0803 C   0  0  0  0  0  0  0  0  0  0  0  0
   -2.1388    3.6023   -1.1148 C   0  0  0  0  0  0  0  0  0  0  0  0
  1  4  1  0
  1  6  2  0
  1  7  2  0
  1 15  1  0
  2  5  1  0
  2  8  2  0
  2  9  2  0
  2 20  1  0
  3 16  1  0
 10 26  1  0
 10 30  1  0
 11 12  2  0
 11 18  1  0
 12 23  1  0
 13 14  2  0
 13 16  1  0
 13 19  1  0
 14 17  1  0
 14 21  1  0
 15 17  2  0
 15 18  1  0
 16 18  2  0
 19 20  2  0
 20 22  1  0
 21 22  2  0
 23 25  1  0
 23 26  2  0
 24 25  2  0
 24 27  1  0
 24 29  1  0
 26 28  1  0
 27 28  2  0
M  END
>  <PUBCHEM_COMPOUND_CID>  (1) 
22155

>  <PUBCHEM_CONFORMER_RMSD>  (1) 
0.8

>  <PUBCHEM_CONFORMER_DIVERSEORDER>  (1) 
1
11
5
12
3
10
6
2
8
9
7
4

>  <PUBCHEM_MMFF94_PARTIAL_CHARGES>  (1) 
38
1 1.49
10 -0.36
11 -0.18
12 -0.18
15 -0.01
16 0.08
17 -0.15
18 0.18
19 -0.15
2 1.49
20 -0.01
21 -0.15
22 -0.15
23 0.18
24 -0.14
25 -0.15
26 0.08
27 -0.15
28 -0.15
29 0.14
3 -0.53
30 0.28
31 0.15
32 0.15
33 0.15
34 0.15
35 0.45
36 0.15
37 0.5
38 0.15
39 0.15
4 -0.68
40 0.5
5 -0.68
6 -0.65
7 -0.65
8 -0.65
9 -0.65

>  <PUBCHEM_EFFECTIVE_ROTOR_COUNT>  (1) 
5

>  <PUBCHEM_PHARMACOPHORE_FEATURES>  (1) 
13
1 10 acceptor
1 3 donor
1 4 acceptor
1 5 acceptor
1 6 acceptor
1 7 acceptor
1 8 acceptor
1 9 acceptor
4 1 4 6 7 anion
4 2 5 8 9 anion
6 13 14 15 16 17 18 rings
6 13 14 19 20 21 22 rings
6 23 24 25 26 27 28 rings

>  <PUBCHEM_HEAVY_ATOM_COUNT>  (1) 
30

>  <PUBCHEM_ATOM_DEF_STEREO_COUNT>  (1) 
0

>  <PUBCHEM_ATOM_UDEF_STEREO_COUNT>  (1) 
0

>  <PUBCHEM_BOND_DEF_STEREO_COUNT>  (1) 
0

>  <PUBCHEM_BOND_UDEF_STEREO_COUNT>  (1) 
0

>  <PUBCHEM_ISOTOPIC_ATOM_COUNT>  (1) 
0

>  <PUBCHEM_COMPONENT_COUNT>  (1) 
1

>  <PUBCHEM_CACTVS_TAUTO_COUNT>  (1) 
3

>  <PUBCHEM_CONFORMER_ID>  (1) 
0000568B00000001

>  <PUBCHEM_MMFF94_ENERGY>  (1) 
82.3976

>  <PUBCHEM_FEATURE_SELFOVERLAP>  (1) 
66.115

>  <PUBCHEM_SHAPE_FINGERPRINT>  (1) 
10411042 1 17042326035034083491
10595046 47 18340767044645791609
10906281 52 18059029318593764546
11488393 25 17557437487724898751
11578080 2 16700591614497298235
12760667 363 8646771084097484995
12788726 201 18191294090573809347
13402501 40 18412544301609838705
1454969 45 18411976967269943567
14765038 42 18058746714790021177
14790565 3 18341334370886284889
15131766 46 15576707134723368366
15196674 1 18339923701905103841
15961568 22 18260551095583790748
18608769 82 18340768255995809571
19591789 44 18267862787868005551
19611394 137 17896897632249435155
21236236 1 18341047531342628975
21315764 268 18262232223303391436
21521721 280 18342182146281025459
23559900 14 18272369721150094698
23569914 152 17198565658472437404
25019877 29 18272091599619268071
335352 9 18411703158947363566
34797466 226 17561088024978549876
350125 39 18412544319169139169
4073 2 18259992577941316043
4258327 124 17823716324369593532
44249763 50 17773867783255255224
5104073 3 18262240997905415793
5171179 24 17557129920177383665
7808743 9 18410289229088868842

>  <PUBCHEM_SHAPE_MULTIPOLES>  (1) 
568.17
15.49
4.16
0.86
5.54
1.47
0.11
-9.98
0.37
-1.46
0.46
0.19
-0.12
0.18

>  <PUBCHEM_SHAPE_SELFOVERLAP>  (1) 
1218.639

>  <PUBCHEM_SHAPE_VOLUME>  (1) 
316.4

>  <PUBCHEM_COORDINATE_TYPE>  (1) 
2
5
10

$$$$
