22156
     RDKit          3D

 22 25  0  0  1  0  0  0  0  0999 V2000
   -1.9169    2.1440   -0.1121 O   0  0  0  0  0  0  0  0  0  0  0  0
   -3.9154    0.3542   -0.2001 O   0  0  0  0  0  0  0  0  0  0  0  0
    1.6008   -2.9330   -0.2568 N   0  0  0  0  0  0  0  0  0  0  0  0
    1.4469   -1.5223    0.1847 C   0  0  0  0  0  0  0  0  0  0  0  0
    0.0091   -1.0085    0.0533 C   0  0  0  0  0  0  0  0  0  0  0  0
    2.3861   -0.5776   -0.5993 C   0  0  0  0  0  0  0  0  0  0  0  0
   -1.0621   -1.9200   -0.0244 C   0  0  0  0  0  0  0  0  0  0  0  0
    0.5893   -3.7760    0.4004 C   0  0  0  0  0  0  0  0  0  0  0  0
   -0.2363    0.3883    0.0756 C   0  0  0  0  0  0  0  0  0  0  0  0
   -0.8062   -3.4000   -0.0890 C   0  0  0  0  0  0  0  0  0  0  0  0
    2.1977    0.8626   -0.1778 C   0  0  0  0  0  0  0  0  0  0  0  0
    0.9061    1.3276    0.1516 C   0  0  0  0  0  0  0  0  0  0  0  0
   -1.5703    0.8259   -0.0101 C   0  0  0  0  0  0  0  0  0  0  0  0
   -2.3750   -1.4471   -0.1103 C   0  0  0  0  0  0  0  0  0  0  0  0
    2.9342   -3.4662    0.0422 C   0  0  0  0  0  0  0  0  0  0  0  0
   -2.6271   -0.0809   -0.0998 C   0  0  0  0  0  0  0  0  0  0  0  0
    3.2993    1.7320   -0.1580 C   0  0  0  0  0  0  0  0  0  0  0  0
    0.7752    2.6727    0.5413 C   0  0  0  0  0  0  0  0  0  0  0  0
    3.1392    3.0611    0.2207 C   0  0  0  0  0  0  0  0  0  0  0  0
    1.8794    3.5293    0.5756 C   0  0  0  0  0  0  0  0  0  0  0  0
   -2.0263    2.6808   -1.4267 C   0  0  0  0  0  0  0  0  0  0  0  0
   -4.6277    0.5530    1.0188 C   0  0  0  0  0  0  0  0  0  0  0  0
  1 13  1  0
  1 21  1  0
  2 16  1  0
  2 22  1  0
  3  4  1  0
  3  8  1  0
  3 15  1  0
  4  5  1  0
  4  6  1  0
  5  7  2  0
  5  9  1  0
  6 11  1  0
  7 10  1  0
  7 14  1  0
  8 10  1  0
  9 12  1  0
  9 13  2  0
 11 12  2  0
 11 17  1  0
 12 18  1  0
 13 16  1  0
 14 16  2  0
 17 19  2  0
 18 20  2  0
 19 20  1  0
M  END
>  <PUBCHEM_COMPOUND_CID>  (1) 
22156

>  <PUBCHEM_CONFORMER_RMSD>  (1) 
0.6

>  <PUBCHEM_CONFORMER_DIVERSEORDER>  (1) 
1
3
2

>  <PUBCHEM_MMFF94_PARTIAL_CHARGES>  (1) 
25
1 -0.36
10 0.14
11 -0.14
13 0.08
14 -0.15
15 0.27
16 0.08
17 -0.15
18 -0.15
19 -0.15
2 -0.36
20 -0.15
21 0.28
22 0.28
3 -0.81
30 0.15
34 0.15
35 0.15
36 0.15
37 0.15
4 0.41
5 -0.14
6 0.14
7 -0.14
8 0.27

>  <PUBCHEM_EFFECTIVE_ROTOR_COUNT>  (1) 
2.8

>  <PUBCHEM_PHARMACOPHORE_FEATURES>  (1) 
7
1 1 acceptor
1 2 acceptor
1 3 cation
6 11 12 17 18 19 20 rings
6 3 4 5 7 8 10 rings
6 4 5 6 9 11 12 rings
6 5 7 9 13 14 16 rings

>  <PUBCHEM_HEAVY_ATOM_COUNT>  (1) 
22

>  <PUBCHEM_ATOM_DEF_STEREO_COUNT>  (1) 
1

>  <PUBCHEM_ATOM_UDEF_STEREO_COUNT>  (1) 
0

>  <PUBCHEM_BOND_DEF_STEREO_COUNT>  (1) 
0

>  <PUBCHEM_BOND_UDEF_STEREO_COUNT>  (1) 
0

>  <PUBCHEM_ISOTOPIC_ATOM_COUNT>  (1) 
0

>  <PUBCHEM_COMPONENT_COUNT>  (1) 
1

>  <PUBCHEM_CACTVS_TAUTO_COUNT>  (1) 
1

>  <PUBCHEM_CONFORMER_ID>  (1) 
0000568C00000001

>  <PUBCHEM_MMFF94_ENERGY>  (1) 
90.9081

>  <PUBCHEM_FEATURE_SELFOVERLAP>  (1) 
35.616

>  <PUBCHEM_SHAPE_FINGERPRINT>  (1) 
10165383 225 18263660582991185676
10319926 262 17479436286310081048
10411042 1 17979075972997285323
10493431 412 18124042479583396033
10967382 1 18411138013168069994
1100329 8 18411419514300206674
11578080 2 16951670399137175438
12173636 292 17907294708184647133
12403259 226 18190180079541727055
12553582 1 17692541017667384798
12788726 201 16966034801616355160
13027679 85 17762333609125509381
13140716 1 18266459999698125994
13583140 156 16663709626678082689
138480 1 18194966240414019690
14790565 3 18266194987558888281
14955137 171 17836108683434029955
15042514 8 17112690952368727202
16728300 4 17607771008176652560
16945 1 18410849984065971439
19591789 44 18266464402176981531
20510252 161 17622450866522264259
20739085 24 18191049849227444713
20775438 99 17543574922557106005
21041028 32 17979645532788414881
22182313 1 18041552551865422997
2334 1 17834112330920765246
23402539 116 17405699767325986934
23557571 272 17405443577080847284
23558518 356 17758958508250351706
23559900 14 18266731390070506851
238 59 17976502136524593341
23845131 108 18336272353161012411
2748010 2 18122613960053364431
283562 15 17693092281242160331
3091708 16 9185935323823432698
335352 9 18340208587212584828
350125 39 18336835169331851149
352729 6 18122904489100683968
45790113 53 18265335019267796749
5104073 3 17979914144634285952
58807428 26 18266454484960222056
7364860 26 18411418371622244646
81228 2 17254266242466158384
9709674 26 17622170483042428436

>  <PUBCHEM_SHAPE_MULTIPOLES>  (1) 
436.03
5.62
5.27
0.82
0.81
4.23
0.08
-4.38
-0.83
-0.63
0.09
-0.15
-0.44
0.27

>  <PUBCHEM_SHAPE_SELFOVERLAP>  (1) 
960.549

>  <PUBCHEM_SHAPE_VOLUME>  (1) 
234.8

>  <PUBCHEM_COORDINATE_TYPE>  (1) 
2
5
10

$$$$
