22168
     RDKit          3D

 15 15  0  0  1  0  0  0  0  0999 V2000
   -0.5567    0.5502    1.9817 O   0  0  0  0  0  0  0  0  0  0  0  0
   -2.8282   -0.2141    0.3864 N   0  0  0  0  0  0  0  0  0  0  0  0
   -0.4299   -0.3839    0.9104 C   0  0  0  0  0  0  0  0  0  0  0  0
   -1.4867   -0.1055   -0.1655 C   0  0  0  0  0  0  0  0  0  0  0  0
    0.9718   -0.2749    0.3515 C   0  0  0  0  0  0  0  0  0  0  0  0
   -3.8340    0.0539   -0.6404 C   0  0  0  0  0  0  0  0  0  0  0  0
    1.6151   -1.3974   -0.1430 C   0  0  0  0  0  0  0  0  0  0  0  0
    1.5855    0.9674    0.3511 C   0  0  0  0  0  0  0  0  0  0  0  0
    2.8785    1.0897   -0.1580 C   0  0  0  0  0  0  0  0  0  0  0  0
   -3.6493    1.4585   -1.2080 C   0  0  0  0  0  0  0  0  0  0  0  0
   -5.2273   -0.1168   -0.0434 C   0  0  0  0  0  0  0  0  0  0  0  0
    2.9080   -1.2751   -0.6518 C   0  0  0  0  0  0  0  0  0  0  0  0
    3.5397   -0.0316   -0.6595 C   0  0  0  0  0  0  0  0  0  0  0  0
    0.9591   -2.7394   -0.1447 C   0  0  0  0  0  0  0  0  0  0  0  0
    3.5543    2.4191   -0.1667 C   0  0  0  0  0  0  0  0  0  0  0  0
  1  3  1  0
  2  4  1  0
  2  6  1  0
  3  4  1  0
  3  5  1  0
  5  7  2  0
  5  8  1  0
  6 10  1  0
  6 11  1  0
  7 12  1  0
  7 14  1  0
  8  9  2  0
  9 13  1  0
  9 15  1  0
 12 13  2  0
M  END
>  <PUBCHEM_COMPOUND_CID>  (1) 
22168

>  <PUBCHEM_CONFORMER_RMSD>  (1) 
0.6

>  <PUBCHEM_CONFORMER_DIVERSEORDER>  (1) 
1
17
7
19
31
8
25
28
13
10
24
11
26
32
22
21
2
16
18
9
3
4
27
6
29
5
30
20
12
15
14
23

>  <PUBCHEM_MMFF94_PARTIAL_CHARGES>  (1) 
18
1 -0.68
12 -0.15
13 -0.15
14 0.14
15 0.14
2 -0.9
20 0.36
21 0.15
28 0.15
29 0.15
3 0.42
33 0.4
4 0.27
5 -0.14
6 0.27
7 -0.14
8 -0.15
9 -0.14

>  <PUBCHEM_EFFECTIVE_ROTOR_COUNT>  (1) 
4

>  <PUBCHEM_PHARMACOPHORE_FEATURES>  (1) 
6
1 1 acceptor
1 1 donor
1 2 cation
1 2 donor
3 6 10 11 hydrophobe
6 5 7 8 9 12 13 rings

>  <PUBCHEM_HEAVY_ATOM_COUNT>  (1) 
15

>  <PUBCHEM_ATOM_DEF_STEREO_COUNT>  (1) 
0

>  <PUBCHEM_ATOM_UDEF_STEREO_COUNT>  (1) 
1

>  <PUBCHEM_BOND_DEF_STEREO_COUNT>  (1) 
0

>  <PUBCHEM_BOND_UDEF_STEREO_COUNT>  (1) 
0

>  <PUBCHEM_ISOTOPIC_ATOM_COUNT>  (1) 
0

>  <PUBCHEM_COMPONENT_COUNT>  (1) 
1

>  <PUBCHEM_CACTVS_TAUTO_COUNT>  (1) 
1

>  <PUBCHEM_CONFORMER_ID>  (1) 
0000569800000001

>  <PUBCHEM_MMFF94_ENERGY>  (1) 
28.9266

>  <PUBCHEM_FEATURE_SELFOVERLAP>  (1) 
30.448

>  <PUBCHEM_SHAPE_FINGERPRINT>  (1) 
10498660 4 17604416394037683325
10608611 8 18261108569432193101
11287383 113 18334579079198959859
11471102 20 18411983546474097014
11543360 7 18412256268550116647
11715629 250 18113890555448168397
12251169 10 7997963574898674305
12616999 72 18272647969756604839
12730499 353 18334303067420870699
12824470 246 12750149561664062676
13081056 2 18260547827266093789
14251717 144 18342177752165588206
14415576 193 18335139790936466836
15502722 9 18410572847106768463
15885798 251 9943541703414016166
16752209 62 16414913020835232385
16945 1 18269579203297834746
18186145 218 18413396431499991146
200 152 17917713461399888738
20361792 2 16128362766917239385
20645477 70 18272655618903663183
20671657 53 18126571106866003118
20820808 20 18413105091199705634
21499 59 18340205301256336198
22096605 113 18409168822260509848
228727 97 17489599969035849672
23382010 3 18129372877109669346
23402539 116 17458339770968358327
23402655 69 18343021073246946709
23557571 272 17386587854575407531
23598291 2 17701840815874897313
25 1 18409451375305790218
2748010 2 17982475964056294382
3060560 45 18411981351809372510
4047638 21 18113900476421649752
43658 37 18269271446968132728
5281201 14 18337112267810506749
57096353 35 17632585967218001592
58051976 378 18342455941276059175
8272917 22 18200319805954198327

>  <PUBCHEM_SHAPE_MULTIPOLES>  (1) 
297.84
8.4
2.1
1.08
9.69
0.36
0.3
-2.86
-2.36
-2.17
-0.33
0.36
-0.17
0.6

>  <PUBCHEM_SHAPE_SELFOVERLAP>  (1) 
598.936

>  <PUBCHEM_SHAPE_VOLUME>  (1) 
177.5

>  <PUBCHEM_COORDINATE_TYPE>  (1) 
2
5
10

$$$$
