22170
     RDKit          3D

 12 11  0  0  0  0  0  0  0  0999 V2000
    0.6474   -0.3329    0.3270 C   0  0  0  0  0  0  0  0  0  0  0  0
   -0.6495   -0.1072   -0.4521 C   0  0  0  0  0  0  0  0  0  0  0  0
    1.8749   -0.0494   -0.5417 C   0  0  0  0  0  0  0  0  0  0  0  0
   -1.8771   -0.3581    0.4262 C   0  0  0  0  0  0  0  0  0  0  0  0
    3.1715   -0.2440    0.2502 C   0  0  0  0  0  0  0  0  0  0  0  0
   -3.1741   -0.0996   -0.3467 C   0  0  0  0  0  0  0  0  0  0  0  0
    4.4295    0.0021   -0.5887 C   0  0  0  0  0  0  0  0  0  0  0  0
   -4.4312   -0.3100    0.5031 C   0  0  0  0  0  0  0  0  0  0  0  0
    5.6990   -0.1666    0.1932 C   0  0  0  0  0  0  0  0  0  0  0  0
   -5.7006   -0.0344   -0.2480 C   0  0  0  0  0  0  0  0  0  0  0  0
    6.6028    0.8035    0.3703 C   0  0  0  0  0  0  0  0  0  0  0  0
   -6.5927    0.8967    0.1071 C   0  0  0  0  0  0  0  0  0  0  0  0
  1  2  1  0
  1  3  1  0
  2  4  1  0
  3  5  1  0
  4  6  1  0
  5  7  1  0
  6  8  1  0
  7  9  1  0
  8 10  1  0
  9 11  2  0
 10 12  2  0
M  END
>  <PUBCHEM_COMPOUND_CID>  (1) 
22170

>  <PUBCHEM_CONFORMER_RMSD>  (1) 
0.8

>  <PUBCHEM_CONFORMER_DIVERSEORDER>  (1) 
1
131
27
109
200
143
19
17
104
123
119
179
9
91
129
139
152
81
24
72
39
128
56
7
103
133
88
62
6
188
21
106
2
189
38
100
184
132
95
178
12
34
87
50
73
96
199
51
98
8
120
192
113
174
52
14
172
158
64
153
175
55
198
187
44
58
10
79
93
168
92
151
86
154
111
209
60
74
49
43
46
157
35
5
125
180
82
36
80
134
147
194
63
29
114
195
15
71
130
57
177
26
110
76
3
99
65
181
59
13
138
173
83
202
169
135
37
28
159
30
22
196
89
205
101
23
160
84
115
208
67
137
176
201
41
166
48
182
32
11
127
47
31
145
126
117
40
170
90
105
210
54
162
45
206
161
207
85
33
4
183
121
118
140
141
116
204
107
171
167
20
146
75
61
185
97
136
190
69
94
42
53
124
165
18
155
78
144
197
163
122
149
203
164
211
193
150
112
68
108
148
25
16
66
102
77
191
186
156
70
142

>  <PUBCHEM_MMFF94_PARTIAL_CHARGES>  (1) 
12
10 -0.29
11 -0.3
12 -0.3
29 0.15
30 0.15
31 0.15
32 0.15
33 0.15
34 0.15
7 0.14
8 0.14
9 -0.29

>  <PUBCHEM_EFFECTIVE_ROTOR_COUNT>  (1) 
9

>  <PUBCHEM_PHARMACOPHORE_FEATURES>  (1) 
2
1 11 hydrophobe
1 12 hydrophobe

>  <PUBCHEM_HEAVY_ATOM_COUNT>  (1) 
12

>  <PUBCHEM_ATOM_DEF_STEREO_COUNT>  (1) 
0

>  <PUBCHEM_ATOM_UDEF_STEREO_COUNT>  (1) 
0

>  <PUBCHEM_BOND_DEF_STEREO_COUNT>  (1) 
0

>  <PUBCHEM_BOND_UDEF_STEREO_COUNT>  (1) 
0

>  <PUBCHEM_ISOTOPIC_ATOM_COUNT>  (1) 
0

>  <PUBCHEM_COMPONENT_COUNT>  (1) 
1

>  <PUBCHEM_CACTVS_TAUTO_COUNT>  (1) 
1

>  <PUBCHEM_CONFORMER_ID>  (1) 
0000569A00000001

>  <PUBCHEM_MMFF94_ENERGY>  (1) 
-0.0428

>  <PUBCHEM_FEATURE_SELFOVERLAP>  (1) 
10.149

>  <PUBCHEM_SHAPE_FINGERPRINT>  (1) 
10968037 39 15770057237856986365
12091667 2 18272370884853577719
12714333 28 18131633382769251058
12815109 37 18272371974925873380
13533116 47 18338230467289815834
14123238 8 14764350431160761094
1420 363 12757151268367122672
14251718 22 14549019875154222863
14251764 46 14707208820892877505
14729087 3 18408600336685483989
15048467 5 18343301465733545577
15716309 27 12468646032248043425
17834072 8 15339116849004445721
17834076 25 18410292510185315971
187816 3 11527948958582320239
20281389 69 18334011670515973924
20621476 38 10665494224632080000
20621476 8 17604147034736004479
20645477 70 14907635454447254084
20767249 213 17917992788935142832
21130983 4 18408044026550834300
23035841 295 11674878896541346385
23402539 116 18113335336478227119
23521765 1 18341894090834070575
300161 21 18272366473073131159
33532 11 11530752705176432328
42788 4 18410575088963333975
4463277 17 18342175565821623128
8209 1 15195566801542133473

>  <PUBCHEM_SHAPE_MULTIPOLES>  (1) 
246.95
18.89
0.77
0.77
0.08
0.09
-0.02
4.69
1.33
-0.11
0.04
0.09
-0.01
0.14

>  <PUBCHEM_SHAPE_SELFOVERLAP>  (1) 
441.872

>  <PUBCHEM_SHAPE_VOLUME>  (1) 
159.5

>  <PUBCHEM_COORDINATE_TYPE>  (1) 
2
5
10

$$$$
