22185
     RDKit          3D

 18 21  0  0  1  0  0  0  0  0999 V2000
   -3.6478   -0.4879   -0.5315 O   0  0  0  0  0  0  0  0  0  0  0  0
   -3.7911    1.7196   -1.0196 O   0  0  0  0  0  0  0  0  0  0  0  0
    1.6769   -1.1948    0.3564 N   0  0  0  0  0  0  0  0  0  0  0  0
    1.2508   -0.0981   -0.5426 C   0  0  0  0  0  0  0  0  0  0  0  0
    0.1753    0.8493    0.0420 C   0  0  0  0  0  0  0  0  0  0  0  0
    2.5515    0.6250   -0.9328 C   0  0  0  0  0  0  0  0  0  0  0  0
   -1.0566    0.1307    0.6696 C   0  0  0  0  0  0  0  0  0  0  0  0
   -1.4027   -1.2199    0.0049 C   0  0  0  0  0  0  0  0  0  0  0  0
    0.7705    1.8399    1.0678 C   0  0  0  0  0  0  0  0  0  0  0  0
    3.5196   -0.5382   -1.0612 C   0  0  0  0  0  0  0  0  0  0  0  0
    3.0556    1.6459    0.0925 C   0  0  0  0  0  0  0  0  0  0  0  0
    3.1030   -1.4692    0.0672 C   0  0  0  0  0  0  0  0  0  0  0  0
    1.9548    2.6075    0.4988 C   0  0  0  0  0  0  0  0  0  0  0  0
    0.8873   -2.4179    0.1448 C   0  0  0  0  0  0  0  0  0  0  0  0
   -0.5728   -2.3628    0.6043 C   0  0  0  0  0  0  0  0  0  0  0  0
   -2.2892    1.0554    0.7348 C   0  0  0  0  0  0  0  0  0  0  0  0
   -2.8974   -1.4960    0.1719 C   0  0  0  0  0  0  0  0  0  0  0  0
   -3.2876    0.8115   -0.3672 C   0  0  0  0  0  0  0  0  0  0  0  0
  1 17  1  0
  1 18  1  0
  2 18  2  0
  3  4  1  0
  3 12  1  0
  3 14  1  0
  4  5  1  0
  4  6  1  0
  5  7  1  0
  5  9  1  0
  6 10  1  0
  6 11  1  0
  7  8  1  0
  7 16  1  0
  8 15  1  0
  8 17  1  0
  9 13  1  0
 10 12  1  0
 11 13  1  0
 14 15  1  0
 16 18  1  0
M  END
>  <PUBCHEM_COMPOUND_CID>  (1) 
22185

>  <PUBCHEM_CONFORMER_RMSD>  (1) 
0.6

>  <PUBCHEM_CONFORMER_DIVERSEORDER>  (1) 
2
44
4
37
22
36
24
43
23
7
14
17
40
38
27
11
6
35
5
34
39
25
20
12
28
41
8
33
21
13
32
1
42
30
31
19
15
3
16
9
29
26
18
10

>  <PUBCHEM_MMFF94_PARTIAL_CHARGES>  (1) 
9
1 -0.43
12 0.27
14 0.27
16 0.06
17 0.28
18 0.66
2 -0.57
3 -0.81
4 0.27

>  <PUBCHEM_EFFECTIVE_ROTOR_COUNT>  (1) 
2

>  <PUBCHEM_PHARMACOPHORE_FEATURES>  (1) 
6
1 2 acceptor
1 3 cation
5 3 4 6 10 12 rings
6 1 7 8 16 17 18 rings
6 4 5 6 9 11 13 rings
7 3 4 5 7 8 14 15 rings

>  <PUBCHEM_HEAVY_ATOM_COUNT>  (1) 
18

>  <PUBCHEM_ATOM_DEF_STEREO_COUNT>  (1) 
0

>  <PUBCHEM_ATOM_UDEF_STEREO_COUNT>  (1) 
5

>  <PUBCHEM_BOND_DEF_STEREO_COUNT>  (1) 
0

>  <PUBCHEM_BOND_UDEF_STEREO_COUNT>  (1) 
0

>  <PUBCHEM_ISOTOPIC_ATOM_COUNT>  (1) 
0

>  <PUBCHEM_COMPONENT_COUNT>  (1) 
1

>  <PUBCHEM_CACTVS_TAUTO_COUNT>  (1) 
1

>  <PUBCHEM_CONFORMER_ID>  (1) 
000056A900000002

>  <PUBCHEM_MMFF94_ENERGY>  (1) 
48.3612

>  <PUBCHEM_FEATURE_SELFOVERLAP>  (1) 
30.683

>  <PUBCHEM_SHAPE_FINGERPRINT>  (1) 
10062212 137 18336819793422947019
10608611 8 18337953509980019797
10967382 1 18268151044360524520
11370993 70 18337101379836354388
12403259 226 18409165541005741981
12500047 106 18334857263898470884
12553582 1 18197793102231318816
12654215 9 18410853252873888700
12730499 353 18261955155490504053
13140716 1 18411424998577240000
13294875 104 18263906818024457138
13464514 151 18266179427012986213
13897977 150 18410575097774853665
14223421 5 18194406825181746826
14251745 187 18340484590042212128
15279308 100 18407760347786175020
15536298 74 18272652372150596978
15775835 57 18334300838031962215
16945 1 18268156370061942834
18186145 218 18341338833272740341
18219364 16 18336561463934797769
18981168 100 17460005462681220605
19049666 15 18337957912242312186
19862831 5 18343306941816783237
20233049 118 18334858290601272438
20645477 70 18130788971030022029
21029758 11 18341896226108082386
21501502 16 18412829117944258201
21524375 3 18334579048644130355
21634736 98 18272654562536497316
21639500 275 18338507565208996205
221490 88 18339369668177363834
2334 1 18339929336659349856
23402539 116 18057327193622805854
23493267 7 17240776080959887512
23559900 14 18343024368309697958
238 59 17829853630734938517
25 1 18335424508850726063
2748010 2 18267595778193311978
2871803 45 18339354301238020711
3323516 105 18412266172570575731
350125 39 18336275621245482587
5262128 65 17702688595343104156
58051976 378 18195801001741699181
63268167 104 18337959991164745475
7364860 26 18342739632809218378
74978 22 18413392033622311145
81228 2 17686347872696073547
9709674 26 18268715093852272126

>  <PUBCHEM_SHAPE_MULTIPOLES>  (1) 
353.71
6.09
2.74
0.96
2.32
0.16
-0.05
-1.04
-1.78
-0.63
0.54
-0.04
-0.2
0.58

>  <PUBCHEM_SHAPE_SELFOVERLAP>  (1) 
753.258

>  <PUBCHEM_SHAPE_VOLUME>  (1) 
194.1

>  <PUBCHEM_COORDINATE_TYPE>  (1) 
2
5
10

$$$$
