22189
     RDKit          3D

 14 14  0  0  0  0  0  0  0  0999 V2000
   -0.4871   -2.7575   -0.2092 Cl  0  0  0  0  0  0  0  0  0  0  0  0
    2.9591    2.4476   -0.1389 Cl  0  0  0  0  0  0  0  0  0  0  0  0
    4.2256   -0.3945    0.7541 Cl  0  0  0  0  0  0  0  0  0  0  0  0
   -4.8566    0.6581    0.7775 Cl  0  0  0  0  0  0  0  0  0  0  0  0
   -1.3809    0.0075   -0.9771 O   0  0  0  0  0  0  0  0  0  0  0  0
   -1.9889    0.4065    1.2428 O   0  0  0  0  0  0  0  0  0  0  0  0
   -0.0822   -0.0930   -0.5743 C   0  0  0  0  0  0  0  0  0  0  0  0
    0.4633   -1.3179   -0.1897 C   0  0  0  0  0  0  0  0  0  0  0  0
    0.7043    1.0587   -0.5517 C   0  0  0  0  0  0  0  0  0  0  0  0
    2.0364    0.9855   -0.1446 C   0  0  0  0  0  0  0  0  0  0  0  0
    1.7954   -1.3911    0.2176 C   0  0  0  0  0  0  0  0  0  0  0  0
    2.5820   -0.2392    0.2402 C   0  0  0  0  0  0  0  0  0  0  0  0
   -2.2911    0.2715    0.0652 C   0  0  0  0  0  0  0  0  0  0  0  0
   -3.6794    0.3576   -0.5119 C   0  0  0  0  0  0  0  0  0  0  0  0
  1  8  1  0
  2 10  1  0
  3 12  1  0
  4 14  1  0
  5  7  1  0
  5 13  1  0
  6 13  2  0
  7  8  2  0
  7  9  1  0
  8 11  1  0
  9 10  2  0
 10 12  1  0
 11 12  2  0
 13 14  1  0
M  END
>  <PUBCHEM_COMPOUND_CID>  (1) 
22189

>  <PUBCHEM_CONFORMER_RMSD>  (1) 
0.6

>  <PUBCHEM_CONFORMER_DIVERSEORDER>  (1) 
1
26
25
12
19
29
23
28
5
20
11
30
24
31
10
17
6
21
9
7
18
8
4
27
22
32
3
14
2
13
16
15

>  <PUBCHEM_MMFF94_PARTIAL_CHARGES>  (1) 
16
1 -0.18
10 0.18
11 -0.15
12 0.18
13 0.66
14 0.35
15 0.15
16 0.15
2 -0.18
3 -0.18
4 -0.29
5 -0.23
6 -0.57
7 0.08
8 0.18
9 -0.15

>  <PUBCHEM_EFFECTIVE_ROTOR_COUNT>  (1) 
3

>  <PUBCHEM_PHARMACOPHORE_FEATURES>  (1) 
2
1 6 acceptor
6 7 8 9 10 11 12 rings

>  <PUBCHEM_HEAVY_ATOM_COUNT>  (1) 
14

>  <PUBCHEM_ATOM_DEF_STEREO_COUNT>  (1) 
0

>  <PUBCHEM_ATOM_UDEF_STEREO_COUNT>  (1) 
0

>  <PUBCHEM_BOND_DEF_STEREO_COUNT>  (1) 
0

>  <PUBCHEM_BOND_UDEF_STEREO_COUNT>  (1) 
0

>  <PUBCHEM_ISOTOPIC_ATOM_COUNT>  (1) 
0

>  <PUBCHEM_COMPONENT_COUNT>  (1) 
1

>  <PUBCHEM_CACTVS_TAUTO_COUNT>  (1) 
1

>  <PUBCHEM_CONFORMER_ID>  (1) 
000056AD00000001

>  <PUBCHEM_MMFF94_ENERGY>  (1) 
32.9472

>  <PUBCHEM_FEATURE_SELFOVERLAP>  (1) 
10.148

>  <PUBCHEM_SHAPE_FINGERPRINT>  (1) 
10219947 1 18335981978156884926
11471102 22 18260272906024153489
12119455 92 18260539009487121367
12251169 10 18335417954530269850
12390115 104 17905906016905411460
13140716 1 18263917899367154218
13380535 21 18190745430603451884
13922767 16 18409443665760444076
14251717 144 18410569561767841519
14993402 34 18411420588089042190
15309172 13 18408319973493119935
15775835 57 18342740766443467573
15906896 17 17986667288784857943
16945 1 18336818728581839206
18175812 5 17749111105696408455
18186145 218 18342455941439570149
204376 136 18411422842799153395
20510252 161 17259624167393107648
20645477 70 18263634070896318407
20671657 1 18262803007340639716
21501502 16 18192704773145837934
21524375 3 18202562886546130319
21637258 2 14996272605399425370
23184049 59 18334573538174241740
2334 1 18047464814808045126
23402539 116 15482376586916620105
23557571 272 16515962563354912455
23558518 356 17900820758494167786
25147074 1 18118955026565417094
2748010 2 18191579972834986806
474 4 18342461426281527657
633830 44 18202292398433600685
77492 1 17917700297662736941
8272917 22 18269562641655833159
9999458 23 18040436594585875934

>  <PUBCHEM_SHAPE_MULTIPOLES>  (1) 
283.85
7.33
2.18
0.92
5.25
0.68
0.09
-2.82
2.2
-1.31
-0.2
0.32
-0.06
-0.51

>  <PUBCHEM_SHAPE_SELFOVERLAP>  (1) 
553.788

>  <PUBCHEM_SHAPE_VOLUME>  (1) 
174.2

>  <PUBCHEM_COORDINATE_TYPE>  (1) 
2
5
10

$$$$
