22195
     RDKit          3D

 13 14  0  0  0  0  0  0  0  0999 V2000
    2.8205    0.5383    0.5888 O   0  0  0  0  0  0  0  0  0  0  0  0
   -0.3158    0.1706   -0.1736 C   0  0  0  0  0  0  0  0  0  0  0  0
    0.8982   -0.5177   -0.3310 C   0  0  0  0  0  0  0  0  0  0  0  0
   -1.4940   -0.5605    0.1098 C   0  0  0  0  0  0  0  0  0  0  0  0
    2.1813    0.1939   -0.6318 C   0  0  0  0  0  0  0  0  0  0  0  0
    0.9501   -1.9068   -0.2105 C   0  0  0  0  0  0  0  0  0  0  0  0
   -0.3866    1.5682   -0.2913 C   0  0  0  0  0  0  0  0  0  0  0  0
   -1.4235   -1.9583    0.2272 C   0  0  0  0  0  0  0  0  0  0  0  0
   -2.7081    0.1275    0.2670 C   0  0  0  0  0  0  0  0  0  0  0  0
   -0.2087   -2.6258    0.0679 C   0  0  0  0  0  0  0  0  0  0  0  0
   -1.6013    2.2355   -0.1317 C   0  0  0  0  0  0  0  0  0  0  0  0
   -2.7600    1.5165    0.1470 C   0  0  0  0  0  0  0  0  0  0  0  0
    4.0478    1.2187    0.3623 C   0  0  0  0  0  0  0  0  0  0  0  0
  1  5  1  0
  1 13  1  0
  2  3  2  0
  2  4  1  0
  2  7  1  0
  3  5  1  0
  3  6  1  0
  4  8  2  0
  4  9  1  0
  6 10  2  0
  7 11  2  0
  8 10  1  0
  9 12  2  0
 11 12  1  0
M  END
>  <PUBCHEM_COMPOUND_CID>  (1) 
22195

>  <PUBCHEM_CONFORMER_RMSD>  (1) 
0.6

>  <PUBCHEM_CONFORMER_DIVERSEORDER>  (1) 
2
1

>  <PUBCHEM_MMFF94_PARTIAL_CHARGES>  (1) 
18
1 -0.56
10 -0.15
11 -0.15
12 -0.15
13 0.28
16 0.15
17 0.15
18 0.15
19 0.15
20 0.15
21 0.15
22 0.15
3 -0.14
5 0.42
6 -0.15
7 -0.15
8 -0.15
9 -0.15

>  <PUBCHEM_EFFECTIVE_ROTOR_COUNT>  (1) 
2

>  <PUBCHEM_PHARMACOPHORE_FEATURES>  (1) 
3
1 1 acceptor
6 2 3 4 6 8 10 rings
6 2 4 7 9 11 12 rings

>  <PUBCHEM_HEAVY_ATOM_COUNT>  (1) 
13

>  <PUBCHEM_ATOM_DEF_STEREO_COUNT>  (1) 
0

>  <PUBCHEM_ATOM_UDEF_STEREO_COUNT>  (1) 
0

>  <PUBCHEM_BOND_DEF_STEREO_COUNT>  (1) 
0

>  <PUBCHEM_BOND_UDEF_STEREO_COUNT>  (1) 
0

>  <PUBCHEM_ISOTOPIC_ATOM_COUNT>  (1) 
0

>  <PUBCHEM_COMPONENT_COUNT>  (1) 
1

>  <PUBCHEM_CACTVS_TAUTO_COUNT>  (1) 
1

>  <PUBCHEM_CONFORMER_ID>  (1) 
000056B300000002

>  <PUBCHEM_MMFF94_ENERGY>  (1) 
41.2074

>  <PUBCHEM_FEATURE_SELFOVERLAP>  (1) 
15.249

>  <PUBCHEM_SHAPE_FINGERPRINT>  (1) 
10967382 1 18338238158947981837
12382932 28 18409735074969909481
12423570 1 8015536970208424230
13024252 1 14418397915043568247
13140716 1 17977675525932066203
13380535 76 18411133606521237262
13897977 150 18121500155143997845
14420673 8 18192701264775379378
14614273 12 18261104141368409925
14648413 74 17688874137915024321
15490181 7 18266461997016420879
16945 1 18336558195512177471
17846911 113 18411695495628389944
193761 8 18265899055737570399
20510252 161 18342462594359625520
20871998 184 18270124663369142238
21501502 16 18340480050251146091
21524375 3 18342731884588028542
220403 375 18117547444890404845
2334 1 18337116644360926077
23388829 49 16614755151272079844
23402539 116 18198895001850855831
23419403 2 16911978304611038371
23552423 10 17902521380775010767
23559900 14 18271260326907605342
257057 1 17332234802515103366
2748010 2 18191883235890626679
305870 269 18263359192451076498
3071541 236 18188203303294881523
43471831 8 18334293149914395618
5255222 1 17469331335445178413
53812653 166 18343021077563065025
5706482 22 18339065043326694098
6333449 129 18412543249152726076
7364860 26 17981044107083849838
81228 2 18194410110847675890

>  <PUBCHEM_SHAPE_MULTIPOLES>  (1) 
261.66
4.59
2.69
0.71
3.9
0.96
0.01
-2.88
-0.8
-0.74
-0.03
0.15
-0.03
0.3

>  <PUBCHEM_SHAPE_SELFOVERLAP>  (1) 
563.589

>  <PUBCHEM_SHAPE_VOLUME>  (1) 
145.7

>  <PUBCHEM_COORDINATE_TYPE>  (1) 
2
5
10

$$$$
