22196
     RDKit          3D

 16 17  0  0  0  0  0  0  0  0999 V2000
    1.7636    0.5170   -0.0011 O   0  0  0  0  0  0  0  0  0  0  0  0
   -1.7637   -0.5170   -0.0011 O   0  0  0  0  0  0  0  0  0  0  0  0
    5.1396   -0.3954    0.0041 O   0  0  0  0  0  0  0  0  0  0  0  0
   -5.1397    0.3954    0.0042 O   0  0  0  0  0  0  0  0  0  0  0  0
    4.1594    1.5688    0.0014 O   0  0  0  0  0  0  0  0  0  0  0  0
   -4.1595   -1.5689    0.0014 O   0  0  0  0  0  0  0  0  0  0  0  0
    4.0842    0.3046    0.0019 N   0  0  0  0  0  0  0  0  0  0  0  0
   -4.0841   -0.3045    0.0018 N   0  0  0  0  0  0  0  0  0  0  0  0
    0.6562   -0.2705   -0.0022 C   0  0  0  0  0  0  0  0  0  0  0  0
   -0.6562    0.2706   -0.0021 C   0  0  0  0  0  0  0  0  0  0  0  0
    1.0086   -1.6000   -0.0022 C   0  0  0  0  0  0  0  0  0  0  0  0
   -1.0086    1.6001   -0.0022 C   0  0  0  0  0  0  0  0  0  0  0  0
    2.8349   -0.3188   -0.0006 C   0  0  0  0  0  0  0  0  0  0  0  0
   -2.8349    0.3188   -0.0006 C   0  0  0  0  0  0  0  0  0  0  0  0
    2.4236   -1.6314   -0.0013 C   0  0  0  0  0  0  0  0  0  0  0  0
   -2.4236    1.6314   -0.0013 C   0  0  0  0  0  0  0  0  0  0  0  0
  1  9  1  0
  1 13  1  0
  2 10  1  0
  2 14  1  0
  3  7  1  0
  4  8  1  0
  5  7  2  0
  6  8  2  0
  7 13  1  0
  8 14  1  0
  9 10  1  0
  9 11  2  0
 10 12  2  0
 11 15  1  0
 12 16  1  0
 13 15  2  0
 14 16  2  0
M  CHG  4   3  -1   4  -1   7   1   8   1
M  END
>  <PUBCHEM_COMPOUND_CID>  (1) 
22196

>  <PUBCHEM_CONFORMER_RMSD>  (1) 
0.6

>  <PUBCHEM_CONFORMER_DIVERSEORDER>  (1) 
1
3
4
2

>  <PUBCHEM_MMFF94_PARTIAL_CHARGES>  (1) 
20
1 -0.28
10 0.14
11 -0.15
12 -0.15
13 0.22
14 0.22
15 -0.15
16 -0.15
17 0.15
18 0.15
19 0.15
2 -0.28
20 0.15
3 -0.52
4 -0.52
5 -0.52
6 -0.52
7 0.96
8 0.96
9 0.14

>  <PUBCHEM_EFFECTIVE_ROTOR_COUNT>  (1) 
3

>  <PUBCHEM_PHARMACOPHORE_FEATURES>  (1) 
10
1 1 acceptor
1 2 acceptor
1 3 acceptor
1 3 anion
1 4 acceptor
1 4 anion
1 5 acceptor
1 6 acceptor
5 1 9 11 13 15 rings
5 2 10 12 14 16 rings

>  <PUBCHEM_HEAVY_ATOM_COUNT>  (1) 
16

>  <PUBCHEM_ATOM_DEF_STEREO_COUNT>  (1) 
0

>  <PUBCHEM_ATOM_UDEF_STEREO_COUNT>  (1) 
0

>  <PUBCHEM_BOND_DEF_STEREO_COUNT>  (1) 
0

>  <PUBCHEM_BOND_UDEF_STEREO_COUNT>  (1) 
0

>  <PUBCHEM_ISOTOPIC_ATOM_COUNT>  (1) 
0

>  <PUBCHEM_COMPONENT_COUNT>  (1) 
1

>  <PUBCHEM_CACTVS_TAUTO_COUNT>  (1) 
1

>  <PUBCHEM_CONFORMER_ID>  (1) 
000056B400000001

>  <PUBCHEM_MMFF94_ENERGY>  (1) 
21.8415

>  <PUBCHEM_FEATURE_SELFOVERLAP>  (1) 
50.934

>  <PUBCHEM_SHAPE_FINGERPRINT>  (1) 
10608611 8 18265049141781075516
11401426 45 18259701203449596261
11615757 297 17846782909724933720
11806522 49 18335983150920242599
124424 183 10809348831997481575
13081056 2 18413388735520191252
13380535 76 18407762534320609426
13533116 47 17168133491006935978
14325111 11 18338516335489990404
14445660 50 18200602393253475257
15196674 1 18410855485897965573
15375358 24 18260550017694087955
200 152 18343016684127772237
20279233 1 17385733464893679451
20510252 161 18200032833261080353
20645477 56 17969500408083029749
20645477 70 18268989791418303063
21267235 1 18411146813603740166
22485316 2 18409446969096579919
23402539 116 18260823808779120711
23402655 69 18340200791793980549
23557571 272 18270405988006316324
23559900 14 18195801869551978738
25610 137 18412826871771463745
26918003 58 18040155119556333339
2871803 45 18335699412422167255
34934 24 18408879608428029951
4214541 1 18338797801681795520
4463277 17 18411139126466887625
474229 33 18410855490420227914
4990 188 18060428980333291390
5104073 3 18338797797370758074
58051976 378 18342738490042112214
6333272 397 18335983155574074896
7364860 26 18196653991337941638
77779 3 18341051826277750244
9709674 26 18337398149139313258

>  <PUBCHEM_SHAPE_MULTIPOLES>  (1) 
284.09
9.48
1.65
0.57
0
0
0
0
0.02
0
0
0
0
0

>  <PUBCHEM_SHAPE_SELFOVERLAP>  (1) 
621.585

>  <PUBCHEM_SHAPE_VOLUME>  (1) 
154.8

>  <PUBCHEM_COORDINATE_TYPE>  (1) 
2
5
10

$$$$
