22205
     RDKit          3D

 22 25  0  0  1  0  0  0  0  0999 V2000
   -5.1230    0.5187   -0.1405 O   0  0  0  0  0  0  0  0  0  0  0  0
    5.6799    0.2051    0.2398 O   0  0  0  0  0  0  0  0  0  0  0  0
   -2.8386   -0.2186    0.3581 C   0  0  0  0  0  0  0  0  0  0  0  0
   -2.2240    0.6265   -0.7834 C   0  0  0  0  0  0  0  0  0  0  0  0
   -0.6896    0.8018   -0.7721 C   0  0  0  0  0  0  0  0  0  0  0  0
    0.0727   -0.5039   -0.4411 C   0  0  0  0  0  0  0  0  0  0  0  0
   -4.2231   -0.5843   -0.2336 C   0  0  0  0  0  0  0  0  0  0  0  0
   -2.0092   -1.4956    0.6210 C   0  0  0  0  0  0  0  0  0  0  0  0
   -2.7071   -0.0739   -2.0729 C   0  0  0  0  0  0  0  0  0  0  0  0
   -0.5158   -1.2213    0.7871 C   0  0  0  0  0  0  0  0  0  0  0  0
   -3.9621   -0.8699   -1.7097 C   0  0  0  0  0  0  0  0  0  0  0  0
   -3.0072    0.5745    1.6656 C   0  0  0  0  0  0  0  0  0  0  0  0
   -0.2407    1.9317    0.1678 C   0  0  0  0  0  0  0  0  0  0  0  0
    1.5667   -0.2798   -0.2615 C   0  0  0  0  0  0  0  0  0  0  0  0
    1.2416    2.2350   -0.0343 C   0  0  0  0  0  0  0  0  0  0  0  0
    2.1050    1.0009   -0.0374 C   0  0  0  0  0  0  0  0  0  0  0  0
   -3.6899   -0.2635    2.7236 C   0  0  0  0  0  0  0  0  0  0  0  0
    2.4357   -1.3844   -0.3115 C   0  0  0  0  0  0  0  0  0  0  0  0
    3.4920    1.1502    0.1236 C   0  0  0  0  0  0  0  0  0  0  0  0
    3.8103   -1.2239   -0.1404 C   0  0  0  0  0  0  0  0  0  0  0  0
    4.3385    0.0437    0.0780 C   0  0  0  0  0  0  0  0  0  0  0  0
    6.4881   -0.9691    0.1738 C   0  0  0  0  0  0  0  0  0  0  0  0
  1  7  1  0
  2 21  1  0
  2 22  1  0
  3  4  1  0
  3  7  1  0
  3  8  1  0
  3 12  1  0
  4  5  1  0
  4  9  1  0
  5  6  1  0
  5 13  1  0
  6 10  1  0
  6 14  1  0
  7 11  1  0
  8 10  1  0
  9 11  1  0
 12 17  1  0
 13 15  1  0
 14 16  2  0
 14 18  1  0
 15 16  1  0
 16 19  1  0
 18 20  2  0
 19 21  2  0
 20 21  1  0
M  END
>  <PUBCHEM_COMPOUND_CID>  (1) 
22205

>  <PUBCHEM_CONFORMER_RMSD>  (1) 
0.6

>  <PUBCHEM_CONFORMER_DIVERSEORDER>  (1) 
3
21
57
25
74
80
49
19
33
20
48
84
45
78
89
75
83
31
85
16
60
73
65
2
10
64
42
52
40
51
88
32
11
22
90
66
9
7
55
72
6
24
27
61
54
69
63
62
77
14
39
67
58
81
34
8
15
23
18
12
30
70
36
82
68
35
4
47
29
13
1
71
53
86
50
79
43
37
56
41
44
87
59
17
26
5
38
46
76
28

>  <PUBCHEM_MMFF94_PARTIAL_CHARGES>  (1) 
16
1 -0.68
14 -0.14
15 0.14
16 -0.14
18 -0.15
19 -0.15
2 -0.36
20 -0.15
21 0.08
22 0.28
44 0.4
45 0.15
46 0.15
47 0.15
6 0.14
7 0.28

>  <PUBCHEM_EFFECTIVE_ROTOR_COUNT>  (1) 
3.4

>  <PUBCHEM_PHARMACOPHORE_FEATURES>  (1) 
8
1 1 acceptor
1 1 donor
1 17 hydrophobe
1 2 acceptor
5 3 4 7 9 11 rings
6 14 16 18 19 20 21 rings
6 3 4 5 6 8 10 rings
6 5 6 13 14 15 16 rings

>  <PUBCHEM_HEAVY_ATOM_COUNT>  (1) 
22

>  <PUBCHEM_ATOM_DEF_STEREO_COUNT>  (1) 
0

>  <PUBCHEM_ATOM_UDEF_STEREO_COUNT>  (1) 
5

>  <PUBCHEM_BOND_DEF_STEREO_COUNT>  (1) 
0

>  <PUBCHEM_BOND_UDEF_STEREO_COUNT>  (1) 
0

>  <PUBCHEM_ISOTOPIC_ATOM_COUNT>  (1) 
0

>  <PUBCHEM_COMPONENT_COUNT>  (1) 
1

>  <PUBCHEM_CACTVS_TAUTO_COUNT>  (1) 
1

>  <PUBCHEM_CONFORMER_ID>  (1) 
000056BD00000003

>  <PUBCHEM_MMFF94_ENERGY>  (1) 
81.9288

>  <PUBCHEM_FEATURE_SELFOVERLAP>  (1) 
40.827

>  <PUBCHEM_SHAPE_FINGERPRINT>  (1) 
10366900 7 17313093177232958931
10906281 52 18339098037597706316
11315181 36 17632577158540394178
11796584 16 16515396344804921394
12011746 2 17894903036394034135
12107183 9 16483059565697700794
12236239 1 17560798848776882542
12553582 1 18338533992280152308
12596602 18 17131541843019290290
12633257 1 18337685194814688050
12670546 56 17131833166071102760
12714826 92 17168150052427137305
12760667 363 18338231554074621490
12788726 201 18118952612129957513
13140716 1 18266185113649601266
13288520 33 18342736308319811236
13544653 18 18334861589088650564
13583140 156 14261346925628048398
13760787 5 18408888464408124900
13862211 1 18411410701464879310
13965767 371 16769053591322897897
14289901 80 16200154313158027494
14386348 63 18114181938687551206
14849402 71 17273966017310273160
15196674 1 18336264660341113596
15209294 21 17346324769294455896
15788980 27 18412543210893555572
15848702 151 17846224323643018398
16945 1 18335990856017978565
17349148 13 18341324561349467458
17357779 13 18334563642580408076
17980427 23 17060347331107426025
1813 80 18270696298147473596
18927931 339 18261961756338338422
19489759 90 15913329082801822843
200 152 18202558496994660303
21033648 29 17967798475135099644
21267235 1 18411141329399891318
21641784 216 18114477669305011260
23175994 123 18259706700580779260
23402539 116 18342733005600723836
23493267 7 16153416238888803157
23522609 53 17916051052329711280
23559900 14 18186798128188853664
26918003 58 18041000635160245064
3286 77 17274812610354571024
335352 9 18408321090142256884
34797466 226 14620517895515950424
3633792 109 17417249798158693229
4921388 177 15719398334507506241
5104073 3 18338801233808799010
542803 24 16486976206778219682
7495541 125 17386016108544664588

>  <PUBCHEM_SHAPE_MULTIPOLES>  (1) 
441.01
11.12
1.65
1.56
11.4
0.5
0.48
-2.62
0.81
0.74
0.04
-2.86
-0.17
-0.09

>  <PUBCHEM_SHAPE_SELFOVERLAP>  (1) 
951.63

>  <PUBCHEM_SHAPE_VOLUME>  (1) 
241.7

>  <PUBCHEM_COORDINATE_TYPE>  (1) 
2
5
10

$$$$
