22209
     RDKit          3D

 17 17  0  0  0  0  0  0  0  0999 V2000
    3.1962    1.2040   -0.3030 N   0  0  0  0  0  0  0  0  0  0  0  0
    3.2295   -1.1952   -0.2710 N   0  0  0  0  0  0  0  0  0  0  0  0
    5.0930    0.0422    0.5973 N   0  0  0  0  0  0  0  0  0  0  0  0
    5.0325    2.3860    0.5513 N   0  0  0  0  0  0  0  0  0  0  0  0
    5.0976   -2.3030    0.6133 N   0  0  0  0  0  0  0  0  0  0  0  0
   -2.3779   -0.0929    0.1463 C   0  0  0  0  0  0  0  0  0  0  0  0
   -3.7523   -0.0589   -0.5259 C   0  0  0  0  0  0  0  0  0  0  0  0
   -1.2141   -0.0782   -0.8499 C   0  0  0  0  0  0  0  0  0  0  0  0
   -4.8775   -0.0516    0.5128 C   0  0  0  0  0  0  0  0  0  0  0  0
    0.1610   -0.0372   -0.1747 C   0  0  0  0  0  0  0  0  0  0  0  0
   -6.2505    0.0215   -0.1591 C   0  0  0  0  0  0  0  0  0  0  0  0
    1.3193   -0.0336   -1.1798 C   0  0  0  0  0  0  0  0  0  0  0  0
   -7.4137    0.0008    0.8347 C   0  0  0  0  0  0  0  0  0  0  0  0
   -8.7773    0.1449    0.1766 C   0  0  0  0  0  0  0  0  0  0  0  0
    2.6829   -0.0063   -0.5362 C   0  0  0  0  0  0  0  0  0  0  0  0
    4.4101    1.1506    0.2687 C   0  0  0  0  0  0  0  0  0  0  0  0
    4.4413   -1.0931    0.2985 C   0  0  0  0  0  0  0  0  0  0  0  0
  1 15  2  0
  1 16  1  0
  2 15  1  0
  2 17  2  0
  3 16  2  0
  3 17  1  0
  4 16  1  0
  5 17  1  0
  6  7  1  0
  6  8  1  0
  7  9  1  0
  8 10  1  0
  9 11  1  0
 10 12  1  0
 11 13  1  0
 12 15  1  0
 13 14  1  0
M  END
>  <PUBCHEM_COMPOUND_CID>  (1) 
22209

>  <PUBCHEM_CONFORMER_RMSD>  (1) 
0.8

>  <PUBCHEM_CONFORMER_DIVERSEORDER>  (1) 
1
171
10
177
95
165
35
103
145
26
49
30
134
176
77
70
20
122
172
99
137
133
9
80
19
94
173
55
170
78
178
75
124
142
152
72
112
119
168
50
120
101
148
17
147
65
132
98
37
25
166
96
127
42
116
61
45
64
18
12
8
123
74
33
23
46
7
115
128
175
31
108
121
174
38
129
4
13
160
109
136
66
69
139
113
169
43
87
141
67
76
53
3
28
29
59
146
41
57
56
62
167
58
51
125
158
159
84
60
34
144
15
93
126
162
82
92
140
24
73
71
2
106
157
85
90
79
150
32
11
81
164
156
107
83
54
21
16
52
118
86
105
161
36
138
14
89
39
40
117
131
135
6
155
63
5
27
153
47
111
100
130
163
97
22
114
68
149
102
151
143
48
154
104
88
44
91
110

>  <PUBCHEM_MMFF94_PARTIAL_CHARGES>  (1) 
13
1 -0.62
12 0.14
15 0.48
16 0.72
17 0.72
2 -0.62
3 -0.62
37 0.4
38 0.4
39 0.4
4 -0.9
40 0.4
5 -0.9

>  <PUBCHEM_EFFECTIVE_ROTOR_COUNT>  (1) 
8

>  <PUBCHEM_PHARMACOPHORE_FEATURES>  (1) 
6
1 14 hydrophobe
1 4 donor
1 5 donor
4 1 3 4 16 cation
4 2 3 5 17 cation
6 1 2 3 15 16 17 rings

>  <PUBCHEM_HEAVY_ATOM_COUNT>  (1) 
17

>  <PUBCHEM_ATOM_DEF_STEREO_COUNT>  (1) 
0

>  <PUBCHEM_ATOM_UDEF_STEREO_COUNT>  (1) 
0

>  <PUBCHEM_BOND_DEF_STEREO_COUNT>  (1) 
0

>  <PUBCHEM_BOND_UDEF_STEREO_COUNT>  (1) 
0

>  <PUBCHEM_ISOTOPIC_ATOM_COUNT>  (1) 
0

>  <PUBCHEM_COMPONENT_COUNT>  (1) 
1

>  <PUBCHEM_CACTVS_TAUTO_COUNT>  (1) 
10

>  <PUBCHEM_CONFORMER_ID>  (1) 
000056C100000001

>  <PUBCHEM_MMFF94_ENERGY>  (1) 
23.5577

>  <PUBCHEM_FEATURE_SELFOVERLAP>  (1) 
30.489

>  <PUBCHEM_SHAPE_FINGERPRINT>  (1) 
10354089 29 18343582958491564132
10688039 33 18334012774396974501
11524674 6 16443353092148124251
11638347 137 18335425647671583747
125118 31 18131357380446578457
12596602 18 18412265060432814795
12616971 3 18059846260007129287
13167372 99 18201442433096078377
13533116 47 18335701611545792690
1420 363 16950284005733104855
14251764 18 17918273178192372205
14251764 46 16702303447127897950
15348495 7 17968384567089366337
15475509 35 17023447661519458874
15716309 27 18413669115717981063
17834076 25 15841554068048185229
18222031 100 15285362812128240951
20157964 124 18343585139738851575
20281389 69 18413390926206862729
20397935 70 18340491071274852190
21130983 4 17632864140050436449
21150785 3 8358251545526352163
220451 1 18410575114849494647
22224240 67 18408040728564700539
23035841 295 13767927936581084513
23081809 10 17846492656425796823
23424782 7 11671766192714890077
23536379 177 18410012122557946441
34797466 226 11024105451925169251
5104073 3 18262227816403377200
5374978 207 18413387635797469460
59755656 215 16226046661552996491
6025842 7 8718827605053173296
6438161 24 10015599272183820220

>  <PUBCHEM_SHAPE_MULTIPOLES>  (1) 
324.95
21.91
1.42
0.9
40.59
0.09
0.09
0.75
-5.96
-3.97
-0.34
0.02
-0.02
-0.05

>  <PUBCHEM_SHAPE_SELFOVERLAP>  (1) 
630.827

>  <PUBCHEM_SHAPE_VOLUME>  (1) 
188.7

>  <PUBCHEM_COORDINATE_TYPE>  (1) 
2
5
10

$$$$
