22215
     RDKit          3D

 22 24  0  0  0  0  0  0  0  0999 V2000
   -6.1714   -0.6129   -0.5895 O   0  0  0  0  0  0  0  0  0  0  0  0
    0.1920   -0.8923    0.1832 O   0  0  0  0  0  0  0  0  0  0  0  0
   -3.4762   -0.4408    0.3090 N   0  0  0  0  0  0  0  0  0  0  0  0
   -3.8037   -0.5797   -1.1168 C   0  0  0  0  0  0  0  0  0  0  0  0
   -4.5209   -1.0695    1.1292 C   0  0  0  0  0  0  0  0  0  0  0  0
   -2.1677   -1.0227    0.5999 C   0  0  0  0  0  0  0  0  0  0  0  0
   -5.1777    0.0239   -1.3934 C   0  0  0  0  0  0  0  0  0  0  0  0
   -5.8784   -0.4554    0.7993 C   0  0  0  0  0  0  0  0  0  0  0  0
   -1.0608   -0.3142   -0.1594 C   0  0  0  0  0  0  0  0  0  0  0  0
    1.2631   -0.2606   -0.5045 C   0  0  0  0  0  0  0  0  0  0  0  0
    1.3118    1.2114   -0.1516 C   0  0  0  0  0  0  0  0  0  0  0  0
    2.5822   -0.9690   -0.2635 C   0  0  0  0  0  0  0  0  0  0  0  0
    1.7921    2.1132   -1.0844 C   0  0  0  0  0  0  0  0  0  0  0  0
    3.5516   -0.9390   -1.2490 C   0  0  0  0  0  0  0  0  0  0  0  0
    0.8752    1.6207    1.0958 C   0  0  0  0  0  0  0  0  0  0  0  0
    2.7827   -1.6275    0.9355 C   0  0  0  0  0  0  0  0  0  0  0  0
    1.8372    3.4690   -0.7592 C   0  0  0  0  0  0  0  0  0  0  0  0
    4.7647   -1.5910   -1.0275 C   0  0  0  0  0  0  0  0  0  0  0  0
    0.9203    2.9764    1.4210 C   0  0  0  0  0  0  0  0  0  0  0  0
    3.9958   -2.2793    1.1570 C   0  0  0  0  0  0  0  0  0  0  0  0
    1.4013    3.9005    0.4935 C   0  0  0  0  0  0  0  0  0  0  0  0
    4.9868   -2.2611    0.1754 C   0  0  0  0  0  0  0  0  0  0  0  0
  1  7  1  0
  1  8  1  0
  2  9  1  0
  2 10  1  0
  3  4  1  0
  3  5  1  0
  3  6  1  0
  4  7  1  0
  5  8  1  0
  6  9  1  0
 10 11  1  0
 10 12  1  0
 11 13  2  0
 11 15  1  0
 12 14  2  0
 12 16  1  0
 13 17  1  0
 14 18  1  0
 15 19  2  0
 16 20  2  0
 17 21  2  0
 18 22  2  0
 19 21  1  0
 20 22  1  0
M  END
>  <PUBCHEM_COMPOUND_CID>  (1) 
22215

>  <PUBCHEM_CONFORMER_RMSD>  (1) 
0.8

>  <PUBCHEM_CONFORMER_DIVERSEORDER>  (1) 
1
31
24
26
11
20
15
32
3
22
29
27
12
2
4
23
6
5
19
21
28
7
8
30
18
10
14
25
9
16
13
17

>  <PUBCHEM_MMFF94_PARTIAL_CHARGES>  (1) 
32
1 -0.56
10 0.57
11 -0.14
12 -0.14
13 -0.15
14 -0.15
15 -0.15
16 -0.15
17 -0.15
18 -0.15
19 -0.15
2 -0.56
20 -0.15
21 -0.15
22 -0.15
3 -0.81
36 0.15
37 0.15
38 0.15
39 0.15
4 0.27
40 0.15
41 0.15
42 0.15
43 0.15
44 0.15
45 0.15
5 0.27
6 0.27
7 0.28
8 0.28
9 0.28

>  <PUBCHEM_EFFECTIVE_ROTOR_COUNT>  (1) 
7.2

>  <PUBCHEM_PHARMACOPHORE_FEATURES>  (1) 
6
1 1 acceptor
1 2 acceptor
1 3 cation
6 1 3 4 5 7 8 rings
6 11 13 15 17 19 21 rings
6 12 14 16 18 20 22 rings

>  <PUBCHEM_HEAVY_ATOM_COUNT>  (1) 
22

>  <PUBCHEM_ATOM_DEF_STEREO_COUNT>  (1) 
0

>  <PUBCHEM_ATOM_UDEF_STEREO_COUNT>  (1) 
0

>  <PUBCHEM_BOND_DEF_STEREO_COUNT>  (1) 
0

>  <PUBCHEM_BOND_UDEF_STEREO_COUNT>  (1) 
0

>  <PUBCHEM_ISOTOPIC_ATOM_COUNT>  (1) 
0

>  <PUBCHEM_COMPONENT_COUNT>  (1) 
1

>  <PUBCHEM_CACTVS_TAUTO_COUNT>  (1) 
1

>  <PUBCHEM_CONFORMER_ID>  (1) 
000056C700000001

>  <PUBCHEM_MMFF94_ENERGY>  (1) 
60.5245

>  <PUBCHEM_FEATURE_SELFOVERLAP>  (1) 
30.446

>  <PUBCHEM_SHAPE_FINGERPRINT>  (1) 
11265709 11 18340772542188008786
11405975 8 18337675317049582467
11475781 23 13613975336488386875
12166972 35 18131912663503081019
12516196 113 18411697660640281082
12549972 3 17895202168065656369
12553582 1 18412826850355032862
12616971 3 17917433155609259591
12633257 1 18273500083047670215
12730499 353 18121229937376511169
12788726 201 18190180075453020994
13004483 165 18339069377402727170
13134695 92 18341889710078510460
13294875 104 17771906305703166920
13533116 47 18338518659737171603
13590594 115 18339367366222904897
13955234 65 18265900344111637073
14170010 4 18340764935347474369
14347329 18 16227712352986342469
14950920 106 18194713504013027667
17349148 13 17704078391142065267
17868525 174 18336260163695348009
17980427 23 13541877141106673201
18006028 8 18411417268264373806
1813 80 18201444636187194542
18222031 100 18273215266285735542
192875 21 18060143141516872619
20369508 70 18408040723330671486
20832881 197 18261110734195982779
21033648 29 17202185349076738195
21065201 7 16877940581732580075
21304303 172 18129386990477952696
2132832 1 18059862744456024161
221357 26 18260263028184889965
23419403 2 18056731314023634104
23559900 14 17749390403731452511
283562 15 18119812409443997538
3004659 81 17313667036694346170
312423 11 18201731686479802873
314173 85 18272652294904950290
3411729 13 18270110357545281608
345986 75 17970895670884430626
5104073 3 18341059626951606755
5281201 14 18334010623187304925
5895379 119 16915409648336288081
6823239 73 17240197759703824333
7164475 11 18047756992975502878
7471813 234 18202563977536726625
7495541 125 18186526522524951171
81228 2 18051706447157829032
8863177 126 18115320002469986091
9841814 1 18408879646644840706
9971528 1 18131347509830542402
9981440 41 17548967210182449241

>  <PUBCHEM_SHAPE_MULTIPOLES>  (1) 
436.03
12.04
3.71
1.37
17.94
4.93
0.02
-9.91
1.41
-5.27
-0.76
0.13
0.12
-0.03

>  <PUBCHEM_SHAPE_SELFOVERLAP>  (1) 
922.319

>  <PUBCHEM_SHAPE_VOLUME>  (1) 
243.5

>  <PUBCHEM_COORDINATE_TYPE>  (1) 
2
5
10

$$$$
