22223
     RDKit          3D

  7  6  0  0  0  0  0  0  0  0999 V2000
   -1.5587    0.7642    0.0006 O   0  0  0  0  0  0  0  0  0  0  0  0
    1.8167   -0.3802    0.0091 O   0  0  0  0  0  0  0  0  0  0  0  0
   -0.6791   -1.3699   -0.0043 O   0  0  0  0  0  0  0  0  0  0  0  0
    3.0798    0.3457    0.0028 N   0  0  0  0  0  0  0  0  0  0  0  0
    0.7721    0.5721   -0.0108 C   0  0  0  0  0  0  0  0  0  0  0  0
   -0.5477   -0.1535   -0.0048 C   0  0  0  0  0  0  0  0  0  0  0  0
   -2.8831    0.2215    0.0074 C   0  0  0  0  0  0  0  0  0  0  0  0
  1  6  1  0
  1  7  1  0
  2  4  1  0
  2  5  1  0
  3  6  2  0
  5  6  1  0
M  END
>  <PUBCHEM_COMPOUND_CID>  (1) 
22223

>  <PUBCHEM_CONFORMER_RMSD>  (1) 
0.4

>  <PUBCHEM_CONFORMER_DIVERSEORDER>  (1) 
1
12
11
9
3
4
2
10
13
8
6
5
7

>  <PUBCHEM_MMFF94_PARTIAL_CHARGES>  (1) 
9
1 -0.43
13 0.36
14 0.36
2 -0.18
3 -0.57
4 -0.82
5 0.34
6 0.66
7 0.28

>  <PUBCHEM_EFFECTIVE_ROTOR_COUNT>  (1) 
3

>  <PUBCHEM_PHARMACOPHORE_FEATURES>  (1) 
1
1 3 acceptor

>  <PUBCHEM_HEAVY_ATOM_COUNT>  (1) 
7

>  <PUBCHEM_ATOM_DEF_STEREO_COUNT>  (1) 
0

>  <PUBCHEM_ATOM_UDEF_STEREO_COUNT>  (1) 
0

>  <PUBCHEM_BOND_DEF_STEREO_COUNT>  (1) 
0

>  <PUBCHEM_BOND_UDEF_STEREO_COUNT>  (1) 
0

>  <PUBCHEM_ISOTOPIC_ATOM_COUNT>  (1) 
0

>  <PUBCHEM_COMPONENT_COUNT>  (1) 
1

>  <PUBCHEM_CACTVS_TAUTO_COUNT>  (1) 
1

>  <PUBCHEM_CONFORMER_ID>  (1) 
000056CF00000001

>  <PUBCHEM_MMFF94_ENERGY>  (1) 
3.823

>  <PUBCHEM_FEATURE_SELFOVERLAP>  (1) 
5.074

>  <PUBCHEM_SHAPE_FINGERPRINT>  (1) 
14325111 11 18410856534065210081
14390081 3 18201434796359194456
16714656 1 18407759231168641589
20096714 4 18408885139649548985
21040471 1 18410856542475790119
29004967 10 15285359500792831684
5460574 1 9295287239842036896

>  <PUBCHEM_SHAPE_MULTIPOLES>  (1) 
121.47
4.07
0.96
0.56
0.97
0.23
0
-0.67
-0.02
-0.17
0
-0.04
-0.01
0

>  <PUBCHEM_SHAPE_SELFOVERLAP>  (1) 
218.077

>  <PUBCHEM_SHAPE_VOLUME>  (1) 
79.3

>  <PUBCHEM_COORDINATE_TYPE>  (1) 
2
5
10

$$$$
