22226
     RDKit          3D

 17 19  0  0  1  0  0  0  0  0999 V2000
    2.6236   -0.9594    0.8769 O   0  0  0  0  0  0  0  0  0  0  0  0
   -2.8954    2.4894   -0.1542 O   0  0  0  0  0  0  0  0  0  0  0  0
    4.4982   -0.0703   -0.1217 O   0  0  0  0  0  0  0  0  0  0  0  0
   -1.7278   -0.8379    0.4694 C   0  0  0  0  0  0  0  0  0  0  0  0
   -1.4489    0.6819    0.6069 C   0  0  0  0  0  0  0  0  0  0  0  0
   -0.8787   -1.5666   -0.6019 C   0  0  0  0  0  0  0  0  0  0  0  0
    1.0816    0.7724    0.5184 C   0  0  0  0  0  0  0  0  0  0  0  0
    1.1983   -0.7178    0.7943 C   0  0  0  0  0  0  0  0  0  0  0  0
   -0.2234    1.2413   -0.1140 C   0  0  0  0  0  0  0  0  0  0  0  0
    0.6214   -1.6849   -0.2446 C   0  0  0  0  0  0  0  0  0  0  0  0
   -3.2080   -0.8704    0.1753 C   0  0  0  0  0  0  0  0  0  0  0  0
   -2.7238    1.3022    0.0804 C   0  0  0  0  0  0  0  0  0  0  0  0
    2.3362    1.0044   -0.2529 C   0  0  0  0  0  0  0  0  0  0  0  0
   -1.4042   -2.9775   -0.9212 C   0  0  0  0  0  0  0  0  0  0  0  0
   -3.7846    0.3046   -0.0747 C   0  0  0  0  0  0  0  0  0  0  0  0
    3.3091   -0.0380    0.1372 C   0  0  0  0  0  0  0  0  0  0  0  0
    2.6265    1.9264   -1.1735 C   0  0  0  0  0  0  0  0  0  0  0  0
  1  8  1  0
  1 16  1  0
  2 12  2  0
  3 16  2  0
  4  5  1  0
  4  6  1  0
  4 11  1  0
  5  9  1  0
  5 12  1  0
  6 10  1  0
  6 14  1  0
  7  8  1  0
  7  9  1  0
  7 13  1  0
  8 10  1  0
 11 15  2  0
 12 15  1  0
 13 16  1  0
 13 17  2  0
M  END
>  <PUBCHEM_COMPOUND_CID>  (1) 
22226

>  <PUBCHEM_CONFORMER_RMSD>  (1) 
0.6

>  <PUBCHEM_CONFORMER_DIVERSEORDER>  (1) 
2
4
3
5
1

>  <PUBCHEM_MMFF94_PARTIAL_CHARGES>  (1) 
17
1 -0.43
11 -0.29
12 0.49
13 -0.12
15 -0.14
16 0.71
17 -0.3
2 -0.57
27 0.15
3 -0.57
31 0.15
32 0.15
33 0.15
4 0.14
5 0.06
7 0.14
8 0.28

>  <PUBCHEM_EFFECTIVE_ROTOR_COUNT>  (1) 
0.8

>  <PUBCHEM_PHARMACOPHORE_FEATURES>  (1) 
5
1 2 acceptor
1 3 acceptor
5 1 7 8 13 16 rings
5 4 5 11 12 15 rings
7 4 5 6 7 8 9 10 rings

>  <PUBCHEM_HEAVY_ATOM_COUNT>  (1) 
17

>  <PUBCHEM_ATOM_DEF_STEREO_COUNT>  (1) 
5

>  <PUBCHEM_ATOM_UDEF_STEREO_COUNT>  (1) 
0

>  <PUBCHEM_BOND_DEF_STEREO_COUNT>  (1) 
0

>  <PUBCHEM_BOND_UDEF_STEREO_COUNT>  (1) 
0

>  <PUBCHEM_ISOTOPIC_ATOM_COUNT>  (1) 
0

>  <PUBCHEM_COMPONENT_COUNT>  (1) 
1

>  <PUBCHEM_CACTVS_TAUTO_COUNT>  (1) 
10

>  <PUBCHEM_CONFORMER_ID>  (1) 
000056D200000002

>  <PUBCHEM_MMFF94_ENERGY>  (1) 
43.4714

>  <PUBCHEM_FEATURE_SELFOVERLAP>  (1) 
25.444

>  <PUBCHEM_SHAPE_FINGERPRINT>  (1) 
10922523 26 18342182171855760446
10967382 1 18411981325817820851
11132069 177 18341888632178622378
12173636 292 18413101771332728949
12202030 40 16199048269037917110
12553582 1 17548694539873500543
13140716 1 18054229001456952083
13221675 6 18409449227758845322
13380535 76 18338516327248176555
13538477 17 18337948012453529494
13583140 156 17385440999559725955
14115302 16 18343304790328428512
14993402 34 18411697681766451221
15196674 1 18337953393931312040
15309172 13 18343311357544343003
15342168 16 16662345132816422732
15442244 35 18190175694248197130
15669948 3 18269273628473636271
15775835 57 18409453612878204432
16752209 62 18342444955192717111
16945 1 18342166821542352707
19422 9 18260270784336676464
19868273 293 18341898540541703574
20233049 118 18343860000893279056
20261772 1 18198352938592498163
20510252 161 18131352994630542753
20645476 183 18408041814210270583
21267235 1 18335711545541248274
21501502 16 18335700494991244265
21524375 3 18410294692345317539
2334 1 17621032501118093531
23402539 116 18131624582449976461
23419403 2 15462869085923667931
23463225 33 18335419041125243288
23557571 272 17772472537106060386
23559900 14 17989205950465808832
2748010 2 18197787600410146911
465052 167 18191883429634205827
474 4 17387135484407117572
58051976 100 18333734619444982781
69090 78 18343298188858115019
7364860 26 17911240520678642511
74978 22 18271240641996275128
7832392 63 18409164441757916756
81228 2 17768230668338299291
90525 40 18411700971906663263
9981440 41 17324926353669473680

>  <PUBCHEM_SHAPE_MULTIPOLES>  (1) 
332.24
6.28
2.47
0.9
2.15
0.56
0.07
-1.44
0.21
-1.31
0.76
0.25
0.07
-0.71

>  <PUBCHEM_SHAPE_SELFOVERLAP>  (1) 
717.789

>  <PUBCHEM_SHAPE_VOLUME>  (1) 
180.8

>  <PUBCHEM_COORDINATE_TYPE>  (1) 
2
5
10

$$$$
