22224
     RDKit          3D

 17 17  0  0  0  0  0  0  0  0999 V2000
   -5.3741    3.2641    0.0158 O   0  0  0  0  0  0  0  0  0  0  0  0
    5.4290    3.2003   -0.0191 O   0  0  0  0  0  0  0  0  0  0  0  0
   -2.3573   -0.5068   -0.0093 N   0  0  0  0  0  0  0  0  0  0  0  0
    2.3325   -0.5202    0.0095 N   0  0  0  0  0  0  0  0  0  0  0  0
   -0.0124   -0.4819    0.0018 N   0  0  0  0  0  0  0  0  0  0  0  0
    1.1814   -2.5633    0.0051 N   0  0  0  0  0  0  0  0  0  0  0  0
   -1.2181   -2.5565   -0.0045 N   0  0  0  0  0  0  0  0  0  0  0  0
   -2.4243    0.9210   -0.0086 C   0  0  0  0  0  0  0  0  0  0  0  0
    2.4305    0.9200    0.0108 C   0  0  0  0  0  0  0  0  0  0  0  0
   -3.8718    1.3985   -0.0045 C   0  0  0  0  0  0  0  0  0  0  0  0
    3.8877    1.3668    0.0030 C   0  0  0  0  0  0  0  0  0  0  0  0
   -3.9957    2.9176   -0.0057 C   0  0  0  0  0  0  0  0  0  0  0  0
    4.0436    2.8829    0.0061 C   0  0  0  0  0  0  0  0  0  0  0  0
   -1.1366   -1.2162   -0.0031 C   0  0  0  0  0  0  0  0  0  0  0  0
    1.1301   -1.2096    0.0060 C   0  0  0  0  0  0  0  0  0  0  0  0
   -0.0201   -3.1629   -0.0001 C   0  0  0  0  0  0  0  0  0  0  0  0
   -0.0244   -4.6538   -0.0032 C   0  0  0  0  0  0  0  0  0  0  0  0
  1 12  1  0
  2 13  1  0
  3  8  1  0
  3 14  1  0
  4  9  1  0
  4 15  1  0
  5 14  2  0
  5 15  1  0
  6 15  2  0
  6 16  1  0
  7 14  1  0
  7 16  2  0
  8 10  1  0
  9 11  1  0
 10 12  1  0
 11 13  1  0
 16 17  1  0
M  END
>  <PUBCHEM_COMPOUND_CID>  (1) 
22224

>  <PUBCHEM_CONFORMER_RMSD>  (1) 
0.8

>  <PUBCHEM_CONFORMER_DIVERSEORDER>  (1) 
1
189
11
180
56
194
119
63
13
68
140
197
107
173
17
85
166
150
72
24
112
144
52
50
179
165
142
27
121
168
130
134
175
25
183
10
22
109
139
128
73
131
4
125
137
88
18
21
44
190
6
93
82
46
91
185
181
126
103
160
163
184
54
192
102
57
96
79
177
113
187
69
71
43
196
141
171
127
182
48
193
3
164
162
158
167
58
147
117
105
84
45
176
114
116
92
198
95
172
77
108
15
87
149
161
148
98
40
100
83
32
81
70
174
132
120
118
110
59
38
2
170
129
8
195
133
152
78
26
123
104
138
153
106
66
23
111
159
155
151
49
122
31
188
67
51
16
156
191
154
7
124
33
14
143
62
65
80
34
35
169
135
75
37
55
12
178
94
9
53
20
186
47
29
60
157
76
19
61
28
5
136
74
41
99
101
146
64
30
86
145
39
36
90
42
89
115
97

>  <PUBCHEM_MMFF94_PARTIAL_CHARGES>  (1) 
19
1 -0.68
12 0.28
13 0.28
14 0.72
15 0.72
16 0.48
17 0.14
2 -0.68
26 0.4
27 0.4
3 -0.87
35 0.4
36 0.4
4 -0.87
5 -0.62
6 -0.62
7 -0.62
8 0.37
9 0.37

>  <PUBCHEM_EFFECTIVE_ROTOR_COUNT>  (1) 
8

>  <PUBCHEM_PHARMACOPHORE_FEATURES>  (1) 
9
1 1 acceptor
1 1 donor
1 2 acceptor
1 2 donor
1 3 donor
1 4 donor
4 3 5 7 14 cation
4 4 5 6 15 cation
6 5 6 7 14 15 16 rings

>  <PUBCHEM_HEAVY_ATOM_COUNT>  (1) 
17

>  <PUBCHEM_ATOM_DEF_STEREO_COUNT>  (1) 
0

>  <PUBCHEM_ATOM_UDEF_STEREO_COUNT>  (1) 
0

>  <PUBCHEM_BOND_DEF_STEREO_COUNT>  (1) 
0

>  <PUBCHEM_BOND_UDEF_STEREO_COUNT>  (1) 
0

>  <PUBCHEM_ISOTOPIC_ATOM_COUNT>  (1) 
0

>  <PUBCHEM_COMPONENT_COUNT>  (1) 
1

>  <PUBCHEM_CACTVS_TAUTO_COUNT>  (1) 
5

>  <PUBCHEM_CONFORMER_ID>  (1) 
000056D000000001

>  <PUBCHEM_MMFF94_ENERGY>  (1) 
34.6326

>  <PUBCHEM_FEATURE_SELFOVERLAP>  (1) 
45.714

>  <PUBCHEM_SHAPE_FINGERPRINT>  (1) 
10411042 1 17185596261355932866
10937287 8 18411136935189677749
12107183 9 18335405873800220616
12173636 292 18338516472881705446
12390115 104 18269573760836006865
12769317 202 18268418045424821145
12788726 201 18123734620264227415
13134695 92 17544474155106231647
13590594 115 17042617409719565969
138480 1 17690279313590744545
13955234 65 18120662318920226907
14123255 52 18410575084663481664
14251764 75 18341905060550875529
14508225 48 17262429012596592239
15422964 175 9078821944770195670
17134986 127 18339364067513493302
1741750 31 18339078297759182832
17834072 32 18410012152159188772
18785283 64 18191866721467203379
20621476 13 18048026385708498413
21304253 13 17474679824287339211
21426921 1 17978511167843942526
2306618 200 17767701807608631714
3071541 12 18195529194631052111
394222 165 18261384512364452786
474 4 18267582412476795393
6327066 14 18335414703193281917
633830 44 18271240530332446293
77188 2 17329709821179961958
7808743 9 18265895946387171504
84936 182 18200025136489794897
9981440 41 18409444799853129713

>  <PUBCHEM_SHAPE_MULTIPOLES>  (1) 
313.21
9.06
5.99
0.58
0.43
3.55
0
-17.74
0.01
-0.21
0.01
0
0
-0.02

>  <PUBCHEM_SHAPE_SELFOVERLAP>  (1) 
613.248

>  <PUBCHEM_SHAPE_VOLUME>  (1) 
184.5

>  <PUBCHEM_COORDINATE_TYPE>  (1) 
2
5
10

$$$$
