22221
     RDKit          3D

 27 28  0  0  0  0  0  0  0  0999 V2000
    5.4548   -0.0419   -0.5127 O   0  0  0  0  0  0  0  0  0  0  0  0
   -3.7060   -1.1926   -1.7017 O   0  0  0  0  0  0  0  0  0  0  0  0
   -5.6136   -1.2955    0.3167 O   0  0  0  0  0  0  0  0  0  0  0  0
   -0.5539    2.0649    2.0887 O   0  0  0  0  0  0  0  0  0  0  0  0
   -0.4035    2.3262   -0.2104 N   0  0  0  0  0  0  0  0  0  0  0  0
    6.6740   -3.1646    1.0151 N   0  0  0  0  0  0  0  0  0  0  0  0
    0.7982    3.1290   -0.2096 C   0  0  0  0  0  0  0  0  0  0  0  0
    2.0376    2.2853   -0.2902 C   0  0  0  0  0  0  0  0  0  0  0  0
   -2.2025    1.0245    0.7856 C   0  0  0  0  0  0  0  0  0  0  0  0
    2.5663    1.9580   -1.5329 C   0  0  0  0  0  0  0  0  0  0  0  0
    2.6431    1.8404    0.8790 C   0  0  0  0  0  0  0  0  0  0  0  0
   -1.0098    1.8397    0.9536 C   0  0  0  0  0  0  0  0  0  0  0  0
   -3.5341   -0.4852   -0.5505 C   0  0  0  0  0  0  0  0  0  0  0  0
    4.3318    0.7232   -0.4392 C   0  0  0  0  0  0  0  0  0  0  0  0
   -2.3893    0.2953   -0.3888 C   0  0  0  0  0  0  0  0  0  0  0  0
   -4.4918   -0.5366    0.4625 C   0  0  0  0  0  0  0  0  0  0  0  0
    3.7175    1.1739   -1.6076 C   0  0  0  0  0  0  0  0  0  0  0  0
    3.7944    1.0564    0.8043 C   0  0  0  0  0  0  0  0  0  0  0  0
   -3.1603    0.9730    1.7983 C   0  0  0  0  0  0  0  0  0  0  0  0
   -4.3049    0.1926    1.6368 C   0  0  0  0  0  0  0  0  0  0  0  0
    5.6681   -0.9850    0.5366 C   0  0  0  0  0  0  0  0  0  0  0  0
    6.4183   -2.1813   -0.0268 C   0  0  0  0  0  0  0  0  0  0  0  0
   -3.1303   -0.6498   -2.8883 C   0  0  0  0  0  0  0  0  0  0  0  0
   -6.1884   -1.8375    1.5041 C   0  0  0  0  0  0  0  0  0  0  0  0
   -3.9593   -1.0795   -4.0798 C   0  0  0  0  0  0  0  0  0  0  0  0
   -6.8855   -3.1378    1.1653 C   0  0  0  0  0  0  0  0  0  0  0  0
    7.4292   -4.2955    0.4918 C   0  0  0  0  0  0  0  0  0  0  0  0
  1 14  1  0
  1 21  1  0
  2 13  1  0
  2 23  1  0
  3 16  1  0
  3 24  1  0
  4 12  2  0
  5  7  1  0
  5 12  1  0
  6 22  1  0
  6 27  1  0
  7  8  1  0
  8 10  2  0
  8 11  1  0
  9 12  1  0
  9 15  1  0
  9 19  2  0
 10 17  1  0
 11 18  2  0
 13 15  2  0
 13 16  1  0
 14 17  2  0
 14 18  1  0
 16 20  2  0
 19 20  1  0
 21 22  1  0
 23 25  1  0
 24 26  1  0
M  END
>  <PUBCHEM_COMPOUND_CID>  (1) 
22221

>  <PUBCHEM_CONFORMER_RMSD>  (1) 
1

>  <PUBCHEM_CONFORMER_DIVERSEORDER>  (1) 
8
7
27
26
14
19
18
15
31
21
5
11
22
17
3
20
28
10
1
24
12
29
6
30
23
4
25
13
9
2
16

>  <PUBCHEM_MMFF94_PARTIAL_CHARGES>  (1) 
34
1 -0.36
10 -0.15
11 -0.15
12 0.54
13 0.08
14 0.08
15 -0.15
16 0.08
17 -0.15
18 -0.15
19 -0.15
2 -0.36
20 -0.15
21 0.28
22 0.27
23 0.28
24 0.28
27 0.27
3 -0.36
30 0.37
31 0.15
32 0.15
33 0.15
34 0.15
35 0.15
36 0.15
37 0.15
4 -0.57
46 0.36
5 -0.73
6 -0.9
7 0.44
8 -0.14
9 0.09

>  <PUBCHEM_EFFECTIVE_ROTOR_COUNT>  (1) 
12

>  <PUBCHEM_PHARMACOPHORE_FEATURES>  (1) 
9
1 1 acceptor
1 2 acceptor
1 3 acceptor
1 4 acceptor
1 5 donor
1 6 cation
1 6 donor
6 8 10 11 14 17 18 rings
6 9 13 15 16 19 20 rings

>  <PUBCHEM_HEAVY_ATOM_COUNT>  (1) 
27

>  <PUBCHEM_ATOM_DEF_STEREO_COUNT>  (1) 
0

>  <PUBCHEM_ATOM_UDEF_STEREO_COUNT>  (1) 
0

>  <PUBCHEM_BOND_DEF_STEREO_COUNT>  (1) 
0

>  <PUBCHEM_BOND_UDEF_STEREO_COUNT>  (1) 
0

>  <PUBCHEM_ISOTOPIC_ATOM_COUNT>  (1) 
0

>  <PUBCHEM_COMPONENT_COUNT>  (1) 
1

>  <PUBCHEM_CACTVS_TAUTO_COUNT>  (1) 
2

>  <PUBCHEM_CONFORMER_ID>  (1) 
000056CD00000008

>  <PUBCHEM_MMFF94_ENERGY>  (1) 
79.508

>  <PUBCHEM_FEATURE_SELFOVERLAP>  (1) 
45.676

>  <PUBCHEM_SHAPE_FINGERPRINT>  (1) 
10280341 67 8357676436785124294
10498660 4 13262950888405829117
10556698 54 14634867582883462582
10740516 88 17461460284723771227
11112241 14 11959735975514196341
11828042 74 17680148469967403038
12166972 35 17967258610962788030
12633257 1 16343707676567525736
13782708 43 17677050273812627235
15064981 194 12468649326366542513
15163728 17 13262671474854944456
15320294 125 17918278662253745165
155225 6 9943807772586077706
16728300 4 18271814540538921047
1813 80 18340783635825777813
19303781 99 18336254649353375054
208703 8 18336543833384763234
21133410 221 16692178877877730766
221357 26 15792283929684559429
270888 7 9799402309545753120
2748736 6 9727338097137749874
406291 66 18336550430597201570
4258327 124 8790885173252485515
46194498 28 16951128516135679316
5104073 3 16342579646873375387
5718773 13 18408042892705842370
5874358 3 17202469165501916919
5924683 9 15984541238962294165
6712543 237 16486968445767548646
7970288 3 18335988635672919554

>  <PUBCHEM_SHAPE_MULTIPOLES>  (1) 
522.21
18.94
4.03
2.57
13.34
3.18
3.14
26.4
-3.92
6.44
-1.21
-4.77
0.51
-1.52

>  <PUBCHEM_SHAPE_SELFOVERLAP>  (1) 
1077.99

>  <PUBCHEM_SHAPE_VOLUME>  (1) 
300.6

>  <PUBCHEM_COORDINATE_TYPE>  (1) 
2
5
10

$$$$
