22220
     RDKit          3D

 22 22  0  0  0  0  0  0  0  0999 V2000
   10.4133   -1.7602    0.1175 I   0  0  0  0  0  0  0  0  0  0  0  0
   -8.8578   -0.8078    0.0097 O   0  0  0  0  0  0  0  0  0  0  0  0
   -7.9811    1.3241   -0.0733 O   0  0  0  0  0  0  0  0  0  0  0  0
   -0.2571    0.8516    0.0388 C   0  0  0  0  0  0  0  0  0  0  0  0
   -1.4363   -0.1196    0.1166 C   0  0  0  0  0  0  0  0  0  0  0  0
    1.0789    0.1072    0.0608 C   0  0  0  0  0  0  0  0  0  0  0  0
   -2.7736    0.6228    0.0606 C   0  0  0  0  0  0  0  0  0  0  0  0
    2.2577    1.0765   -0.0509 C   0  0  0  0  0  0  0  0  0  0  0  0
   -3.9509   -0.3538    0.1059 C   0  0  0  0  0  0  0  0  0  0  0  0
    3.5933    0.3263   -0.0623 C   0  0  0  0  0  0  0  0  0  0  0  0
   -5.3207    0.3354    0.0731 C   0  0  0  0  0  0  0  0  0  0  0  0
    4.8054    1.2607   -0.1471 C   0  0  0  0  0  0  0  0  0  0  0  0
   -6.5212   -0.6108    0.0967 C   0  0  0  0  0  0  0  0  0  0  0  0
    6.1321    0.5466   -0.0848 C   0  0  0  0  0  0  0  0  0  0  0  0
   -7.8474    0.1109    0.0124 C   0  0  0  0  0  0  0  0  0  0  0  0
    6.7466    0.3236    1.1474 C   0  0  0  0  0  0  0  0  0  0  0  0
    6.7445    0.1087   -1.2590 C   0  0  0  0  0  0  0  0  0  0  0  0
    7.9736   -0.3371    1.2055 C   0  0  0  0  0  0  0  0  0  0  0  0
    7.9716   -0.5521   -1.2011 C   0  0  0  0  0  0  0  0  0  0  0  0
    8.5861   -0.7749    0.0312 C   0  0  0  0  0  0  0  0  0  0  0  0
  -10.1793   -0.2701   -0.1049 C   0  0  0  0  0  0  0  0  0  0  0  0
  -11.1775   -1.4081   -0.0927 C   0  0  0  0  0  0  0  0  0  0  0  0
  1 20  1  0
  2 15  1  0
  2 21  1  0
  3 15  2  0
  4  5  1  0
  4  6  1  0
  5  7  1  0
  6  8  1  0
  7  9  1  0
  8 10  1  0
  9 11  1  0
 10 12  1  0
 11 13  1  0
 12 14  1  0
 13 15  1  0
 14 16  2  0
 14 17  1  0
 16 18  1  0
 17 19  2  0
 18 20  2  0
 19 20  1  0
 21 22  1  0
M  END
>  <PUBCHEM_COMPOUND_CID>  (1) 
22220

>  <PUBCHEM_CONFORMER_RMSD>  (1) 
1.2

>  <PUBCHEM_CONFORMER_DIVERSEORDER>  (1) 
1
101
23
48
113
91
106
29
26
17
84
7
8
110
10
60
24
6
98
79
78
129
22
119
55
63
97
67
105
90
70
100
130
124
52
41
81
75
39
128
65
57
35
92
103
74
50
117
88
13
96
14
69
102
62
47
114
58
25
68
122
30
86
116
72
76
32
59
89
12
111
120
107
19
20
21
64
127
112
27
37
82
46
45
126
104
38
94
42
121
4
99
83
36
108
2
118
18
15
87
131
43
28
53
44
85
54
95
49
93
123
33
125
61
51
66
5
109
56
115
40
16
9
80
11
31
3
73
34
77
71

>  <PUBCHEM_MMFF94_PARTIAL_CHARGES>  (1) 
17
1 -0.08
12 0.14
13 0.06
14 -0.14
15 0.66
16 -0.15
17 -0.15
18 -0.15
19 -0.15
2 -0.43
20 0.08
21 0.28
3 -0.57
43 0.15
44 0.15
45 0.15
46 0.15

>  <PUBCHEM_EFFECTIVE_ROTOR_COUNT>  (1) 
13

>  <PUBCHEM_PHARMACOPHORE_FEATURES>  (1) 
3
1 1 hydrophobe
1 3 acceptor
6 14 16 17 18 19 20 rings

>  <PUBCHEM_HEAVY_ATOM_COUNT>  (1) 
22

>  <PUBCHEM_ATOM_DEF_STEREO_COUNT>  (1) 
0

>  <PUBCHEM_ATOM_UDEF_STEREO_COUNT>  (1) 
0

>  <PUBCHEM_BOND_DEF_STEREO_COUNT>  (1) 
0

>  <PUBCHEM_BOND_UDEF_STEREO_COUNT>  (1) 
0

>  <PUBCHEM_ISOTOPIC_ATOM_COUNT>  (1) 
0

>  <PUBCHEM_COMPONENT_COUNT>  (1) 
1

>  <PUBCHEM_CACTVS_TAUTO_COUNT>  (1) 
1

>  <PUBCHEM_CONFORMER_ID>  (1) 
000056CC00000001

>  <PUBCHEM_MMFF94_ENERGY>  (1) 
21.4206

>  <PUBCHEM_FEATURE_SELFOVERLAP>  (1) 
15.223

>  <PUBCHEM_SHAPE_FINGERPRINT>  (1) 
10299344 5 17312821572117624128
106641 1 12751518478930223705
11315181 36 10953456320236232157
11638347 137 16988848259470241038
12498461 61 17704066335870778487
12522641 33 14707203310545140625
12559415 86 16226321505305755071
14202775 3 18409453591852650931
14251764 18 17675924283373847905
14251764 46 18060138743079893028
14344974 52 11314320454991277753
14428016 248 10809342226633530455
15247644 1 18341896285827214094
15510794 2 18272371992095530899
155225 1 9223226352561432870
1754911 235 13767925741446562371
20812841 46 15051729803167800842
21095086 128 18187364333299970677
21360442 33 11891870772839602400
21360442 67 13334735722435810576
21362267 313 11599465563061159445
22224240 67 13901908907986598412
232437 2 18409730664465920051
246663 6 18260831496965681280
28498 318 18333731304241790140
33684 2 18410856559639789569
5758199 1 9367350331528268453
57828716 72 15719404946066317334
59520757 100 17386579079984369290
59521099 67 17749113310228877980
59521120 56 17560227149923397846
59682541 35 12895350001537993366
67123 10 18409730677635541621
8209 1 12035446142816212465
9937071 3 17560807627595610039

>  <PUBCHEM_SHAPE_MULTIPOLES>  (1) 
452.95
47.23
1.29
0.89
61.52
0.26
-0.02
22.04
-0.64
-0.87
-0.01
-2.03
0.03
-0.1

>  <PUBCHEM_SHAPE_SELFOVERLAP>  (1) 
861.498

>  <PUBCHEM_SHAPE_VOLUME>  (1) 
281.1

>  <PUBCHEM_COORDINATE_TYPE>  (1) 
2
5
10

$$$$
