22234
     RDKit          3D

 12 11  0  0  1  0  0  0  0  0999 V2000
   -1.7109   -0.3192   -0.3326 O   0  0  0  0  0  0  0  0  0  0  0  0
    2.4519    0.5064   -0.2245 O   0  0  0  0  0  0  0  0  0  0  0  0
   -3.5190   -0.5361    1.0756 O   0  0  0  0  0  0  0  0  0  0  0  0
    3.3380   -1.4489    0.6070 O   0  0  0  0  0  0  0  0  0  0  0  0
   -3.5496   -1.4054   -1.0527 N   0  0  0  0  0  0  0  0  0  0  0  0
    4.6639    0.1127   -0.4374 N   0  0  0  0  0  0  0  0  0  0  0  0
   -1.2609    0.8750    0.3016 C   0  0  0  0  0  0  0  0  0  0  0  0
    0.1614    1.2064   -0.1531 C   0  0  0  0  0  0  0  0  0  0  0  0
    1.1590    0.1144    0.2172 C   0  0  0  0  0  0  0  0  0  0  0  0
   -2.2309    2.0006   -0.0306 C   0  0  0  0  0  0  0  0  0  0  0  0
   -2.9719   -0.7333   -0.0041 C   0  0  0  0  0  0  0  0  0  0  0  0
    3.4690   -0.3726    0.0335 C   0  0  0  0  0  0  0  0  0  0  0  0
  1  7  1  0
  1 11  1  0
  2  9  1  0
  2 12  1  0
  3 11  2  0
  4 12  2  0
  5 11  1  0
  6 12  1  0
  7  8  1  0
  7 10  1  0
  8  9  1  0
M  END
>  <PUBCHEM_COMPOUND_CID>  (1) 
22234

>  <PUBCHEM_CONFORMER_RMSD>  (1) 
0.6

>  <PUBCHEM_CONFORMER_DIVERSEORDER>  (1) 
1
113
118
66
171
39
45
238
240
126
260
85
90
228
150
31
223
119
196
226
217
116
93
266
134
247
194
69
92
213
7
135
164
281
189
244
156
23
139
157
124
10
191
100
28
208
103
29
158
71
198
2
166
205
306
9
258
72
249
161
101
13
95
232
267
305
163
186
51
169
91
278
277
98
233
35
142
75
300
174
77
104
282
47
229
130
138
38
251
230
144
16
11
68
102
79
207
200
170
225
296
105
271
44
128
297
37
6
141
183
63
155
216
97
78
52
107
295
110
250
151
303
129
197
41
173
248
286
146
5
193
123
187
76
143
27
60
263
57
201
220
133
243
56
43
94
168
120
272
177
86
252
33
227
21
259
137
237
122
195
40
246
30
8
262
276
210
3
53
291
74
211
302
114
62
46
159
83
273
148
203
289
188
292
4
279
185
192
290
160
154
245
80
96
49
274
285
82
190
20
218
234
88
14
184
264
178
115
149
224
125
117
127
214
167
254
111
64
58
26
87
256
32
255
147
209
294
84
73
55
108
61
268
242
19
235
165
172
106
219
153
204
25
199
179
304
181
54
301
212
36
269
270
257
206
34
17
175
202
132
145
65
18
112
293
109
50
265
70
215
152
280
180
81
176
59
299
48
253
182
241
89
162
140
275
222
67
261
12
288
99
42
283
22
236
131
287
121
284
136
298
239
24
221
15
231

>  <PUBCHEM_MMFF94_PARTIAL_CHARGES>  (1) 
14
1 -0.43
11 0.78
12 0.78
2 -0.43
21 0.37
22 0.37
23 0.37
24 0.37
3 -0.57
4 -0.57
5 -0.8
6 -0.8
7 0.28
9 0.28

>  <PUBCHEM_EFFECTIVE_ROTOR_COUNT>  (1) 
6

>  <PUBCHEM_PHARMACOPHORE_FEATURES>  (1) 
4
1 3 acceptor
1 4 acceptor
1 5 donor
1 6 donor

>  <PUBCHEM_HEAVY_ATOM_COUNT>  (1) 
12

>  <PUBCHEM_ATOM_DEF_STEREO_COUNT>  (1) 
0

>  <PUBCHEM_ATOM_UDEF_STEREO_COUNT>  (1) 
1

>  <PUBCHEM_BOND_DEF_STEREO_COUNT>  (1) 
0

>  <PUBCHEM_BOND_UDEF_STEREO_COUNT>  (1) 
0

>  <PUBCHEM_ISOTOPIC_ATOM_COUNT>  (1) 
0

>  <PUBCHEM_COMPONENT_COUNT>  (1) 
1

>  <PUBCHEM_CACTVS_TAUTO_COUNT>  (1) 
4

>  <PUBCHEM_CONFORMER_ID>  (1) 
000056DA00000001

>  <PUBCHEM_MMFF94_ENERGY>  (1) 
19.2838

>  <PUBCHEM_FEATURE_SELFOVERLAP>  (1) 
20.298

>  <PUBCHEM_SHAPE_FINGERPRINT>  (1) 
11046707 91 18060135474741851183
12932764 1 17988915670041360632
14123260 362 10881680157133578543
14325111 11 18335984169112484216
177051 138 18342457032640734014
18342897 69 18343580728849578185
20281407 28 18343298180130972089
21061003 4 16988560208123439057
21293036 1 16298387984924097232
22485316 2 18412822486546349608
3248919 1 17095534976214167840
57096353 35 18187372038634784908

>  <PUBCHEM_SHAPE_MULTIPOLES>  (1) 
213.52
8.09
1.56
0.79
5.77
0.35
0.02
-2.95
-0.34
-1.16
-0.08
-0.42
-0.17
-0.51

>  <PUBCHEM_SHAPE_SELFOVERLAP>  (1) 
406.932

>  <PUBCHEM_SHAPE_VOLUME>  (1) 
130.5

>  <PUBCHEM_COORDINATE_TYPE>  (1) 
2
5
10

$$$$
