22232
     RDKit          3D

 26 29  0  0  1  0  0  0  0  0999 V2000
   -0.3858   -0.1366    1.7868 O   0  0  0  0  0  0  0  0  0  0  0  0
    0.3858   -0.1366   -1.7869 O   0  0  0  0  0  0  0  0  0  0  0  0
   -1.4682    2.1581    1.1500 O   0  0  0  0  0  0  0  0  0  0  0  0
   -1.3027    1.7762   -1.1516 O   0  0  0  0  0  0  0  0  0  0  0  0
    1.4682    2.1581   -1.1500 O   0  0  0  0  0  0  0  0  0  0  0  0
    1.3027    1.7762    1.1516 O   0  0  0  0  0  0  0  0  0  0  0  0
   -1.1302   -2.3903   -0.0283 O   0  0  0  0  0  0  0  0  0  0  0  0
    1.1301   -2.3903    0.0283 O   0  0  0  0  0  0  0  0  0  0  0  0
   -0.6532   -0.0198    0.3898 C   0  0  0  0  0  0  0  0  0  0  0  0
    0.6531   -0.0198   -0.3899 C   0  0  0  0  0  0  0  0  0  0  0  0
   -1.5991    1.1911    0.1154 C   0  0  0  0  0  0  0  0  0  0  0  0
    1.5990    1.1911   -0.1154 C   0  0  0  0  0  0  0  0  0  0  0  0
   -1.5096   -1.2382    0.0818 C   0  0  0  0  0  0  0  0  0  0  0  0
    1.5096   -1.2382   -0.0818 C   0  0  0  0  0  0  0  0  0  0  0  0
   -2.9687    0.5550    0.0672 C   0  0  0  0  0  0  0  0  0  0  0  0
    2.9687    0.5550   -0.0671 C   0  0  0  0  0  0  0  0  0  0  0  0
   -2.9057   -0.8336   -0.0007 C   0  0  0  0  0  0  0  0  0  0  0  0
    2.9058   -0.8336    0.0008 C   0  0  0  0  0  0  0  0  0  0  0  0
   -4.2053    1.1832    0.0184 C   0  0  0  0  0  0  0  0  0  0  0  0
    4.2053    1.1832   -0.0183 C   0  0  0  0  0  0  0  0  0  0  0  0
   -4.0261   -1.6372   -0.1090 C   0  0  0  0  0  0  0  0  0  0  0  0
    4.0260   -1.6372    0.1090 C   0  0  0  0  0  0  0  0  0  0  0  0
   -5.3573    0.3962   -0.0853 C   0  0  0  0  0  0  0  0  0  0  0  0
    5.3574    0.3961    0.0852 C   0  0  0  0  0  0  0  0  0  0  0  0
   -5.2677   -1.0040   -0.1493 C   0  0  0  0  0  0  0  0  0  0  0  0
    5.2676   -1.0040    0.1494 C   0  0  0  0  0  0  0  0  0  0  0  0
  1  9  1  0
  2 10  1  0
  3 11  1  0
  4 11  1  0
  5 12  1  0
  6 12  1  0
  7 13  2  0
  8 14  2  0
  9 10  1  0
  9 11  1  0
  9 13  1  0
 10 12  1  0
 10 14  1  0
 11 15  1  0
 12 16  1  0
 13 17  1  0
 14 18  1  0
 15 17  2  0
 15 19  1  0
 16 18  2  0
 16 20  1  0
 17 21  1  0
 18 22  1  0
 19 23  2  0
 20 24  2  0
 21 25  2  0
 22 26  2  0
 23 25  1  0
 24 26  1  0
M  END
>  <PUBCHEM_COMPOUND_CID>  (1) 
22232

>  <PUBCHEM_CONFORMER_RMSD>  (1) 
0.6

>  <PUBCHEM_CONFORMER_DIVERSEORDER>  (1) 
5
7
11
3
15
9
4
10
14
2
13
1
8
12
6

>  <PUBCHEM_MMFF94_PARTIAL_CHARGES>  (1) 
40
1 -0.68
10 0.34
11 0.7
12 0.7
13 0.42
14 0.42
15 -0.14
16 -0.14
17 0.09
18 0.09
19 -0.15
2 -0.68
20 -0.15
21 -0.15
22 -0.15
23 -0.15
24 -0.15
25 -0.15
26 -0.15
27 0.4
28 0.4
29 0.15
3 -0.68
30 0.15
31 0.4
32 0.4
33 0.4
34 0.4
35 0.15
36 0.15
37 0.15
38 0.15
39 0.15
4 -0.68
40 0.15
5 -0.68
6 -0.68
7 -0.57
8 -0.57
9 0.34

>  <PUBCHEM_EFFECTIVE_ROTOR_COUNT>  (1) 
1.8

>  <PUBCHEM_PHARMACOPHORE_FEATURES>  (1) 
18
1 1 acceptor
1 1 donor
1 2 acceptor
1 2 donor
1 3 acceptor
1 3 donor
1 4 acceptor
1 4 donor
1 5 acceptor
1 5 donor
1 6 acceptor
1 6 donor
1 7 acceptor
1 8 acceptor
5 10 12 14 16 18 rings
5 9 11 13 15 17 rings
6 15 17 19 21 23 25 rings
6 16 18 20 22 24 26 rings

>  <PUBCHEM_HEAVY_ATOM_COUNT>  (1) 
26

>  <PUBCHEM_ATOM_DEF_STEREO_COUNT>  (1) 
0

>  <PUBCHEM_ATOM_UDEF_STEREO_COUNT>  (1) 
2

>  <PUBCHEM_BOND_DEF_STEREO_COUNT>  (1) 
0

>  <PUBCHEM_BOND_UDEF_STEREO_COUNT>  (1) 
0

>  <PUBCHEM_ISOTOPIC_ATOM_COUNT>  (1) 
0

>  <PUBCHEM_COMPONENT_COUNT>  (1) 
1

>  <PUBCHEM_CACTVS_TAUTO_COUNT>  (1) 
1

>  <PUBCHEM_CONFORMER_ID>  (1) 
000056D800000005

>  <PUBCHEM_MMFF94_ENERGY>  (1) 
84.4916

>  <PUBCHEM_FEATURE_SELFOVERLAP>  (1) 
91.84

>  <PUBCHEM_SHAPE_FINGERPRINT>  (1) 
10 15 18338223973763169856
10863032 1 18413107272826755464
10906281 52 18266480791603189547
11135609 12 17750531739787934171
12011746 2 18408605851127716374
12107183 9 17690843354676745938
12236239 1 18410856559639828555
12403259 415 18410564093847582372
12403814 3 18187080633498669221
12788726 201 17774735194075318321
13140716 1 18267025144417232939
13288520 33 18342459231452973439
13533116 47 18201438043771383386
13862211 1 18410852161593739687
14341114 176 18410862057208568922
14787075 74 18341610442736017378
14790565 3 18410860961981605761
15196674 1 18410573985151626535
15788980 27 18201998845919046095
16945 1 18338535082811201892
17349148 13 18410856559639828546
17980427 23 16702035191992258713
1813 80 16950564372381458998
18186145 218 16733260252974342237
18681886 176 18340764935901135066
19141452 34 18411136956801599503
200 152 18343862216916801985
20028762 73 18201432601425951430
21033648 29 18187911881496017533
21267235 1 18410864256221567267
21279426 13 18339642213716398583
21421861 104 17897159113742296347
23402539 116 18342452647452647277
23557571 272 17989211421389149489
23559900 14 18341327877111816392
296302 2 18411422816749761799
3004659 81 18335421249498212018
3286 77 18201437008098709177
335352 9 18410011013828896711
34797466 226 17489595601571333812
350125 39 18410575084668782428
404807 14 17121155563910251982
4214541 1 18410292488889983469
474 4 17822578312311863532
5104073 3 18411700984580562939
59755656 215 18410856521011860799
67856867 119 18336828713859037260
69090 78 18408602560908584203
7495541 125 17988360481125420459
9709674 26 18411427201922550711
9981440 41 17179690766933336536

>  <PUBCHEM_SHAPE_MULTIPOLES>  (1) 
488.11
10.42
2.18
0.96
0
0.12
0
1.43
0
0
0
0
-0.29
-0.19

>  <PUBCHEM_SHAPE_SELFOVERLAP>  (1) 
1120.398

>  <PUBCHEM_SHAPE_VOLUME>  (1) 
250.8

>  <PUBCHEM_COORDINATE_TYPE>  (1) 
2
5
10

$$$$
