22249
     RDKit          3D

 11 12  0  0  0  0  0  0  0  0999 V2000
    3.1021   -0.1849   -0.6864 N   0  0  0  0  0  0  0  0  0  0  0  0
    1.2499    0.0819    0.2738 C   0  0  0  0  0  0  0  0  0  0  0  0
    2.0624   -1.1284   -0.2077 C   0  0  0  0  0  0  0  0  0  0  0  0
    2.0542    0.8614   -0.7763 C   0  0  0  0  0  0  0  0  0  0  0  0
   -0.2865    0.0278    0.1064 C   0  0  0  0  0  0  0  0  0  0  0  0
    1.5620    0.4895    1.6954 C   0  0  0  0  0  0  0  0  0  0  0  0
   -0.9512   -1.1978    0.1476 C   0  0  0  0  0  0  0  0  0  0  0  0
   -1.0070    1.2058   -0.0910 C   0  0  0  0  0  0  0  0  0  0  0  0
   -2.3366   -1.2455   -0.0087 C   0  0  0  0  0  0  0  0  0  0  0  0
   -2.3923    1.1579   -0.2471 C   0  0  0  0  0  0  0  0  0  0  0  0
   -3.0570   -0.0678   -0.2060 C   0  0  0  0  0  0  0  0  0  0  0  0
  1  3  1  0
  1  4  1  0
  2  3  1  0
  2  4  1  0
  2  5  1  0
  2  6  1  0
  5  7  2  0
  5  8  1  0
  7  9  1  0
  8 10  2  0
  9 11  2  0
 10 11  1  0
M  END
>  <PUBCHEM_COMPOUND_CID>  (1) 
22249

>  <PUBCHEM_CONFORMER_RMSD>  (1) 
0.4

>  <PUBCHEM_CONFORMER_DIVERSEORDER>  (1) 
1
6
3
2
4
5

>  <PUBCHEM_MMFF94_PARTIAL_CHARGES>  (1) 
16
1 -0.78
10 -0.15
11 -0.15
16 0.36
2 0.11
20 0.15
21 0.15
22 0.15
23 0.15
24 0.15
3 0.21
4 0.21
5 -0.11
7 -0.15
8 -0.15
9 -0.15

>  <PUBCHEM_EFFECTIVE_ROTOR_COUNT>  (1) 
1.8

>  <PUBCHEM_PHARMACOPHORE_FEATURES>  (1) 
4
1 1 cation
1 1 donor
4 1 2 3 4 rings
6 5 7 8 9 10 11 rings

>  <PUBCHEM_HEAVY_ATOM_COUNT>  (1) 
11

>  <PUBCHEM_ATOM_DEF_STEREO_COUNT>  (1) 
0

>  <PUBCHEM_ATOM_UDEF_STEREO_COUNT>  (1) 
0

>  <PUBCHEM_BOND_DEF_STEREO_COUNT>  (1) 
0

>  <PUBCHEM_BOND_UDEF_STEREO_COUNT>  (1) 
0

>  <PUBCHEM_ISOTOPIC_ATOM_COUNT>  (1) 
0

>  <PUBCHEM_COMPONENT_COUNT>  (1) 
1

>  <PUBCHEM_CACTVS_TAUTO_COUNT>  (1) 
1

>  <PUBCHEM_CONFORMER_ID>  (1) 
000056E900000001

>  <PUBCHEM_MMFF94_ENERGY>  (1) 
34.3614

>  <PUBCHEM_FEATURE_SELFOVERLAP>  (1) 
20.297

>  <PUBCHEM_SHAPE_FINGERPRINT>  (1) 
10857977 72 18339350985243309977
12326174 3 15430586256643613962
12716758 59 18412538791293119107
12897270 3 18335989752184769366
12932741 1 17917704725441754929
12932764 1 17846495958796834575
14325111 11 18335986384993777709
15219456 202 17988634246525208000
15775835 57 17167861937267508901
16945 1 18408878555765247681
20201158 50 18060140903390693790
20645464 45 17987498433617386539
21040471 1 18337380531451905809
23552423 10 18259983747456770027
23559900 14 18128814158654057002
2748010 2 17832420170052237683
29004967 10 16415202256348393742
3248919 1 18260820514533812871
369184 2 16415474969744788403
5084963 1 18412262796504748009
528886 8 18334297556450062134
8030462 33 18336817641607031519

>  <PUBCHEM_SHAPE_MULTIPOLES>  (1) 
221.39
4.54
1.36
0.99
0.31
0.09
0.36
0.18
-0.77
0.44
-0.07
-0.66
-0.16
0.15

>  <PUBCHEM_SHAPE_SELFOVERLAP>  (1) 
466.764

>  <PUBCHEM_SHAPE_VOLUME>  (1) 
126.9

>  <PUBCHEM_COORDINATE_TYPE>  (1) 
2
5
10

$$$$
