22241
     RDKit          3D

 25 26  0  0  0  0  0  0  0  0999 V2000
   -3.9227    0.1637    1.5470 O   0  0  0  0  0  0  0  0  0  0  0  0
    0.1416    3.7747    0.4395 O   0  0  0  0  0  0  0  0  0  0  0  0
   -5.8327   -1.1516    0.0626 N   0  0  0  0  0  0  0  0  0  0  0  0
   -3.0731    1.0992   -0.3960 N   0  0  0  0  0  0  0  0  0  0  0  0
   -1.9414    1.5175    0.2146 N   0  0  0  0  0  0  0  0  0  0  0  0
   -7.0448   -1.5089   -0.6784 C   0  0  0  0  0  0  0  0  0  0  0  0
   -4.8771   -2.2615    0.0340 C   0  0  0  0  0  0  0  0  0  0  0  0
   -5.2336    0.0576   -0.4829 C   0  0  0  0  0  0  0  0  0  0  0  0
   -8.0800   -0.3992   -0.6052 C   0  0  0  0  0  0  0  0  0  0  0  0
   -5.4917   -3.5299    0.6012 C   0  0  0  0  0  0  0  0  0  0  0  0
   -4.0228    0.4227    0.3496 C   0  0  0  0  0  0  0  0  0  0  0  0
    3.6059    0.1747   -0.0379 C   0  0  0  0  0  0  0  0  0  0  0  0
    4.7844   -0.6648   -0.0465 C   0  0  0  0  0  0  0  0  0  0  0  0
    1.3542    1.7797   -0.0199 C   0  0  0  0  0  0  0  0  0  0  0  0
    2.4062   -0.3011   -0.5669 C   0  0  0  0  0  0  0  0  0  0  0  0
    3.6699    1.4600    0.5002 C   0  0  0  0  0  0  0  0  0  0  0  0
    1.2704    0.5085   -0.5580 C   0  0  0  0  0  0  0  0  0  0  0  0
    2.5341    2.2697    0.5093 C   0  0  0  0  0  0  0  0  0  0  0  0
    5.0478   -1.5080    1.0331 C   0  0  0  0  0  0  0  0  0  0  0  0
    5.6568   -0.6315   -1.1344 C   0  0  0  0  0  0  0  0  0  0  0  0
    0.1504    2.6385   -0.0099 C   0  0  0  0  0  0  0  0  0  0  0  0
    6.1836   -2.3176    1.0249 C   0  0  0  0  0  0  0  0  0  0  0  0
    6.7926   -1.4412   -1.1426 C   0  0  0  0  0  0  0  0  0  0  0  0
   -1.1336    2.1331   -0.5746 C   0  0  0  0  0  0  0  0  0  0  0  0
    7.0559   -2.2843   -0.0628 C   0  0  0  0  0  0  0  0  0  0  0  0
  1 11  2  0
  2 21  2  0
  3  6  1  0
  3  7  1  0
  3  8  1  0
  4  5  1  0
  4 11  1  0
  5 24  2  0
  6  9  1  0
  7 10  1  0
  8 11  1  0
 12 13  1  0
 12 15  2  0
 12 16  1  0
 13 19  2  0
 13 20  1  0
 14 17  2  0
 14 18  1  0
 14 21  1  0
 15 17  1  0
 16 18  2  0
 19 22  1  0
 20 23  2  0
 21 24  1  0
 22 25  2  0
 23 25  1  0
M  END
>  <PUBCHEM_COMPOUND_CID>  (1) 
22241

>  <PUBCHEM_CONFORMER_RMSD>  (1) 
1

>  <PUBCHEM_CONFORMER_DIVERSEORDER>  (1) 
1
10
13
15
8
5
14
9
3
12
6
2
7
4
11

>  <PUBCHEM_MMFF94_PARTIAL_CHARGES>  (1) 
32
1 -0.57
11 0.57
14 0.09
15 -0.15
16 -0.15
17 -0.15
18 -0.15
19 -0.15
2 -0.57
20 -0.15
21 0.48
22 -0.15
23 -0.15
24 0.39
25 -0.15
3 -0.81
38 0.15
39 0.15
4 -0.37
40 0.37
41 0.15
42 0.15
43 0.15
44 0.15
45 0.15
46 0.15
47 0.06
48 0.15
5 -0.51
6 0.27
7 0.27
8 0.33

>  <PUBCHEM_EFFECTIVE_ROTOR_COUNT>  (1) 
9

>  <PUBCHEM_PHARMACOPHORE_FEATURES>  (1) 
7
1 1 acceptor
1 2 acceptor
1 3 cation
1 4 donor
1 5 acceptor
6 12 14 15 16 17 18 rings
6 13 19 20 22 23 25 rings

>  <PUBCHEM_HEAVY_ATOM_COUNT>  (1) 
25

>  <PUBCHEM_ATOM_DEF_STEREO_COUNT>  (1) 
0

>  <PUBCHEM_ATOM_UDEF_STEREO_COUNT>  (1) 
0

>  <PUBCHEM_BOND_DEF_STEREO_COUNT>  (1) 
0

>  <PUBCHEM_BOND_UDEF_STEREO_COUNT>  (1) 
1

>  <PUBCHEM_ISOTOPIC_ATOM_COUNT>  (1) 
0

>  <PUBCHEM_COMPONENT_COUNT>  (1) 
1

>  <PUBCHEM_CACTVS_TAUTO_COUNT>  (1) 
4

>  <PUBCHEM_CONFORMER_ID>  (1) 
000056E100000001

>  <PUBCHEM_MMFF94_ENERGY>  (1) 
64.7236

>  <PUBCHEM_FEATURE_SELFOVERLAP>  (1) 
35.527

>  <PUBCHEM_SHAPE_FINGERPRINT>  (1) 
10 15 11671778291189097071
10050765 1 18411136922405931584
10622 236 17628056113083734415
10917259 69 18195520404236692181
10981352 41 18131060558923458190
11273773 46 18335139817888399523
12166972 35 18040156227325742692
12293681 160 12540698110978609180
12988421 55 12391511936705315261
13248334 5 18122905596992672349
13540713 4 18267282301769947376
1361 87 17604440711905013259
13631057 29 18263362504271833888
13690498 29 17967811613956977557
13862211 1 18410856529986475182
13885169 86 10231745721515229099
14117953 113 18342454829713265647
14123256 34 18412268328301403463
14216079 64 18411697686610116343
14251764 30 18334292067671755772
14420673 8 18408887352428287447
14931854 50 17676766487689882587
15183329 4 18334014986246823915
15188451 53 17917710197604694929
15510800 12 18201165385998619623
15519825 34 15338257074467847487
16126227 98 8574709118410623173
17138139 8 17968094197203698754
17627616 140 17895184447036855283
20028762 73 18201719548396452494
21304304 249 18342739624219518271
21307412 95 17894633678084782307
21585481 104 16081645556966176079
21585483 132 17460302258350700034
229767 8 17972328575370693499
23522609 53 18122379859089356948
23559900 14 18266170820573888281
23569914 152 12470567884142041232
2838139 119 8358248212373098732
3004659 81 18113334219385777405
316301 35 18410290358580780768
32027 91 18339920536957110657
3627633 1 18268712718768012864
406291 66 18343298206566154879
4107672 100 17459464464818015045
439807 62 18260830384500580023
444769 64 18409454670722008921
465052 167 18272934916954187188
5104073 3 18060421317526696889
5385378 56 10231763271168416484
5470011 282 17386016082569269270
559249 180 18342175554033843669
5718773 13 18410853248241421714
59682541 35 18201706376691150192
59682541 52 14346069777453941144
636775 72 8717955658004958790
636775 8 18270409274890765598
6700243 42 17910985473221625316
7808743 9 9655569699757687877
7970288 3 18409727331439722042
8863177 126 18410854395240113930

>  <PUBCHEM_SHAPE_MULTIPOLES>  (1) 
487.81
22.4
3.64
1.01
15.95
0.46
-0.05
-22.66
2.56
0.42
-0.75
-0.58
-0.24
0.23

>  <PUBCHEM_SHAPE_SELFOVERLAP>  (1) 
1022.749

>  <PUBCHEM_SHAPE_VOLUME>  (1) 
276.5

>  <PUBCHEM_COORDINATE_TYPE>  (1) 
2
5
10

$$$$
