22243
     RDKit          3D

 16 17  0  0  1  0  0  0  0  0999 V2000
    1.4116   -2.7184   -0.3059 O   0  0  0  0  0  0  0  0  0  0  0  0
   -1.3140   -2.8334    0.3293 N   0  0  0  0  0  0  0  0  0  0  0  0
   -0.6062   -1.5394    0.4684 C   0  0  0  0  0  0  0  0  0  0  0  0
    0.6179   -1.5437   -0.5020 C   0  0  0  0  0  0  0  0  0  0  0  0
   -1.5238   -0.3767    0.2916 C   0  0  0  0  0  0  0  0  0  0  0  0
    1.5330   -0.3525   -0.3041 C   0  0  0  0  0  0  0  0  0  0  0  0
   -1.3112    0.7962    1.0160 C   0  0  0  0  0  0  0  0  0  0  0  0
   -2.5948   -0.4624   -0.5981 C   0  0  0  0  0  0  0  0  0  0  0  0
    1.3000    0.8038   -1.0267 C   0  0  0  0  0  0  0  0  0  0  0  0
    2.5803   -0.4492    0.5944 C   0  0  0  0  0  0  0  0  0  0  0  0
   -2.1695    1.8833    0.8507 C   0  0  0  0  0  0  0  0  0  0  0  0
   -3.4529    0.6247   -0.7636 C   0  0  0  0  0  0  0  0  0  0  0  0
    2.1428    1.9003   -0.8446 C   0  0  0  0  0  0  0  0  0  0  0  0
    3.4229    0.6475    0.7767 C   0  0  0  0  0  0  0  0  0  0  0  0
   -3.2403    1.7976   -0.0392 C   0  0  0  0  0  0  0  0  0  0  0  0
    3.2041    1.8222    0.0572 C   0  0  0  0  0  0  0  0  0  0  0  0
  1  4  1  0
  2  3  1  0
  3  4  1  0
  3  5  1  0
  4  6  1  0
  5  7  2  0
  5  8  1  0
  6  9  2  0
  6 10  1  0
  7 11  1  0
  8 12  2  0
  9 13  1  0
 10 14  2  0
 11 15  2  0
 12 15  1  0
 13 16  2  0
 14 16  1  0
M  END
>  <PUBCHEM_COMPOUND_CID>  (1) 
22243

>  <PUBCHEM_CONFORMER_RMSD>  (1) 
0.6

>  <PUBCHEM_CONFORMER_DIVERSEORDER>  (1) 
1
7
2
10
11
8
4
6
5
9
3

>  <PUBCHEM_MMFF94_PARTIAL_CHARGES>  (1) 
29
1 -0.68
10 -0.15
11 -0.15
12 -0.15
13 -0.15
14 -0.15
15 -0.15
16 -0.15
19 0.36
2 -0.99
20 0.36
21 0.15
22 0.15
23 0.15
24 0.15
25 0.4
26 0.15
27 0.15
28 0.15
29 0.15
3 0.41
30 0.15
31 0.15
4 0.42
5 -0.14
6 -0.14
7 -0.15
8 -0.15
9 -0.15

>  <PUBCHEM_EFFECTIVE_ROTOR_COUNT>  (1) 
3

>  <PUBCHEM_PHARMACOPHORE_FEATURES>  (1) 
6
1 1 acceptor
1 1 donor
1 2 cation
1 2 donor
6 5 7 8 11 12 15 rings
6 6 9 10 13 14 16 rings

>  <PUBCHEM_HEAVY_ATOM_COUNT>  (1) 
16

>  <PUBCHEM_ATOM_DEF_STEREO_COUNT>  (1) 
0

>  <PUBCHEM_ATOM_UDEF_STEREO_COUNT>  (1) 
2

>  <PUBCHEM_BOND_DEF_STEREO_COUNT>  (1) 
0

>  <PUBCHEM_BOND_UDEF_STEREO_COUNT>  (1) 
0

>  <PUBCHEM_ISOTOPIC_ATOM_COUNT>  (1) 
0

>  <PUBCHEM_COMPONENT_COUNT>  (1) 
1

>  <PUBCHEM_CACTVS_TAUTO_COUNT>  (1) 
1

>  <PUBCHEM_CONFORMER_ID>  (1) 
000056E300000001

>  <PUBCHEM_MMFF94_ENERGY>  (1) 
46.7671

>  <PUBCHEM_FEATURE_SELFOVERLAP>  (1) 
30.45

>  <PUBCHEM_SHAPE_FINGERPRINT>  (1) 
11370993 70 18338503201285203685
13380535 76 18411133640875694310
13583140 156 17095235943284524953
13618510 140 18409453591535470724
13764800 53 18266473159599266163
14250199 8 18198345044262655789
15276787 5 15791724183296510632
15490181 8 18410864251931809782
15775835 57 18413390929684269433
15852999 172 18410847763557466355
16945 1 18410866463834536546
18186145 218 18340491041336129357
18522851 12 9295289481825937165
18981168 100 18194433093169885602
192875 21 18339343245348758861
20510252 161 18052828236427599922
20671657 1 18337959978374938526
21524375 3 18410852165893643951
21947302 44 18341054012447941015
230 275 18341901757514243732
23402539 116 18268977834476738191
23419403 2 16906048243265626994
23557571 272 17916026947954633919
23559900 14 18202564008445464656
2748010 2 18264509320310841671
305870 269 18336827485466267714
474 4 18336828576752165713
49207404 50 18119280331604470713
526903 126 18272367607313795009
6333272 397 18408323285176454435
6992083 37 18040992994529697516
7364860 26 18128537055041365782
74978 22 18335146409813197254
7832392 63 17548136628280233521
84936 182 18200868457428786984
9981440 41 18340757243351224218

>  <PUBCHEM_SHAPE_MULTIPOLES>  (1) 
318.42
5.69
2.7
1.01
0.04
1.3
0
-3.19
0.01
0.04
0.02
0
-0.23
-0.24

>  <PUBCHEM_SHAPE_SELFOVERLAP>  (1) 
679.664

>  <PUBCHEM_SHAPE_VOLUME>  (1) 
175.3

>  <PUBCHEM_COORDINATE_TYPE>  (1) 
2
5
10

$$$$
