2224
     RDKit          3D

 25 24  0  0  0  0  0  0  0  0999 V2000
    2.9662   -0.2795    2.2104 F   0  0  0  0  0  0  0  0  0  0  0  0
    3.5773   -1.3784    0.4309 F   0  0  0  0  0  0  0  0  0  0  0  0
    4.9513    0.0342    1.3628 F   0  0  0  0  0  0  0  0  0  0  0  0
    3.6318    1.2104   -0.8964 O   0  0  0  0  0  0  0  0  0  0  0  0
    0.9656   -1.3940   -2.3780 C   0  0  0  0  0  0  0  0  0  0  0  0
   -0.4899   -0.9634   -2.5881 C   0  0  0  0  0  0  0  0  0  0  0  0
    1.0922   -2.7675   -1.7098 C   0  0  0  0  0  0  0  0  0  0  0  0
   -0.6219    0.4344   -3.1979 C   0  0  0  0  0  0  0  0  0  0  0  0
    1.4807    2.8793   -0.1412 C   0  0  0  0  0  0  0  0  0  0  0  0
    0.3910   -2.8372   -0.3844 C   0  0  0  0  0  0  0  0  0  0  0  0
   -2.0628    0.9004   -3.3398 C   0  0  0  0  0  0  0  0  0  0  0  0
    0.3677    3.7382    0.4746 C   0  0  0  0  0  0  0  0  0  0  0  0
    1.9301    1.7140    0.7425 C   0  0  0  0  0  0  0  0  0  0  0  0
   -0.6029   -3.6956   -0.1130 C   0  0  0  0  0  0  0  0  0  0  0  0
   -0.9314    3.0076    0.6561 C   0  0  0  0  0  0  0  0  0  0  0  0
   -1.3002   -3.7713    1.2142 C   0  0  0  0  0  0  0  0  0  0  0  0
    3.1076    0.9348    0.1818 C   0  0  0  0  0  0  0  0  0  0  0  0
   -2.0635    3.3468    0.0197 C   0  0  0  0  0  0  0  0  0  0  0  0
   -3.4204    2.7083    0.1417 C   0  0  0  0  0  0  0  0  0  0  0  0
   -2.5579   -2.9524    1.2196 C   0  0  0  0  0  0  0  0  0  0  0  0
   -3.9652   -0.8625    1.6379 C   0  0  0  0  0  0  0  0  0  0  0  0
   -3.5139    1.5414    1.0818 C   0  0  0  0  0  0  0  0  0  0  0  0
   -2.7093   -1.6838    1.6313 C   0  0  0  0  0  0  0  0  0  0  0  0
   -3.8711    0.3055    0.7002 C   0  0  0  0  0  0  0  0  0  0  0  0
    3.6488   -0.1696    1.0432 C   0  0  0  0  0  0  0  0  0  0  0  0
  1 25  1  0
  2 25  1  0
  3 25  1  0
  4 17  2  0
  5  6  1  0
  5  7  1  0
  6  8  1  0
  7 10  1  0
  8 11  1  0
  9 12  1  0
  9 13  1  0
 10 14  2  0
 12 15  1  0
 13 17  1  0
 14 16  1  0
 15 18  2  0
 16 20  1  0
 17 25  1  0
 18 19  1  0
 19 22  1  0
 20 23  2  0
 21 23  1  0
 21 24  1  0
 22 24  2  0
M  END
>  <PUBCHEM_COMPOUND_CID>  (1) 
2224

>  <PUBCHEM_CONFORMER_RMSD>  (1) 
1.6

>  <PUBCHEM_CONFORMER_DIVERSEORDER>  (1) 
4
27
47
34
93
20
82
99
103
78
53
14
10
109
28
67
50
22
75
112
60
117
80
92
76
81
69
37
11
62
38
57
107
88
115
6
19
49
5
85
40
29
26
24
63
68
41
71
87
66
79
118
12
106
77
101
114
121
44
3
46
83
55
51
73
122
39
42
65
52
36
58
21
100
102
18
31
84
9
116
98
97
35
59
8
105
104
25
74
86
119
16
56
48
15
120
33
2
1
30
23
61
17
43
72
108
7
96
70
95
110
54
91
111
89
45
90
64
32
94
13
113

>  <PUBCHEM_MMFF94_PARTIAL_CHARGES>  (1) 
28
1 -0.34
10 -0.29
12 0.14
13 0.06
14 -0.29
15 -0.29
16 0.28
17 0.45
18 -0.29
19 0.28
2 -0.34
20 -0.29
21 0.28
22 -0.29
23 -0.29
24 -0.29
25 1.08
3 -0.34
36 0.15
4 -0.57
44 0.15
45 0.15
48 0.15
51 0.15
54 0.15
55 0.15
56 0.15
7 0.14

>  <PUBCHEM_EFFECTIVE_ROTOR_COUNT>  (1) 
15

>  <PUBCHEM_PHARMACOPHORE_FEATURES>  (1) 
4
1 11 hydrophobe
1 4 acceptor
4 9 12 13 15 hydrophobe
5 5 6 7 8 10 hydrophobe

>  <PUBCHEM_HEAVY_ATOM_COUNT>  (1) 
25

>  <PUBCHEM_ATOM_DEF_STEREO_COUNT>  (1) 
0

>  <PUBCHEM_ATOM_UDEF_STEREO_COUNT>  (1) 
0

>  <PUBCHEM_BOND_DEF_STEREO_COUNT>  (1) 
0

>  <PUBCHEM_BOND_UDEF_STEREO_COUNT>  (1) 
4

>  <PUBCHEM_ISOTOPIC_ATOM_COUNT>  (1) 
0

>  <PUBCHEM_COMPONENT_COUNT>  (1) 
1

>  <PUBCHEM_CACTVS_TAUTO_COUNT>  (1) 
2

>  <PUBCHEM_CONFORMER_ID>  (1) 
000008B000000004

>  <PUBCHEM_MMFF94_ENERGY>  (1) 
7.1749

>  <PUBCHEM_FEATURE_SELFOVERLAP>  (1) 
20.297

>  <PUBCHEM_SHAPE_FINGERPRINT>  (1) 
12633257 1 18338527438180891611
13122387 1 17257379539958068065
13165054 49 17323458230716037272
14647877 51 17908988699585572818
15403338 16 16180727377447119471
17921350 177 18124614208101609088
20531524 4 18196115277278043942
20764821 26 18121515561033134555
20766409 102 12999791019074436875
238918 7 18201436926831914834
35225 105 18187911928566168799
445580 42 18120061053547798624
469060 322 17916567852268160701

>  <PUBCHEM_SHAPE_MULTIPOLES>  (1) 
486.8
6.96
5.6
2.88
2.89
0.45
3.22
-1.27
-4.73
-2.45
-1.02
-0.36
0.81
1.32

>  <PUBCHEM_SHAPE_SELFOVERLAP>  (1) 
927.005

>  <PUBCHEM_SHAPE_VOLUME>  (1) 
297.8

>  <PUBCHEM_COORDINATE_TYPE>  (1) 
2
5
10

$$$$
