22252
     RDKit          3D

 11 11  0  0  0  0  0  0  0  0999 V2000
    0.1085    1.1975   -0.2418 N   0  0  0  0  0  0  0  0  0  0  0  0
    0.1178   -1.2020   -0.2407 N   0  0  0  0  0  0  0  0  0  0  0  0
    2.1442    0.0058    0.1983 N   0  0  0  0  0  0  0  0  0  0  0  0
    2.1036    2.3507    0.1922 N   0  0  0  0  0  0  0  0  0  0  0  0
    2.1219   -2.3391    0.1945 N   0  0  0  0  0  0  0  0  0  0  0  0
   -1.9337   -0.0105   -0.6824 C   0  0  0  0  0  0  0  0  0  0  0  0
   -2.7818   -0.0142    0.5912 C   0  0  0  0  0  0  0  0  0  0  0  0
   -0.4596   -0.0045   -0.3653 C   0  0  0  0  0  0  0  0  0  0  0  0
   -4.2677    0.0102    0.2696 C   0  0  0  0  0  0  0  0  0  0  0  0
    1.4190    1.1251    0.0416 C   0  0  0  0  0  0  0  0  0  0  0  0
    1.4277   -1.1191    0.0427 C   0  0  0  0  0  0  0  0  0  0  0  0
  1  8  2  0
  1 10  1  0
  2  8  1  0
  2 11  2  0
  3 10  2  0
  3 11  1  0
  4 10  1  0
  5 11  1  0
  6  7  1  0
  6  8  1  0
  7  9  1  0
M  END
>  <PUBCHEM_COMPOUND_CID>  (1) 
22252

>  <PUBCHEM_CONFORMER_RMSD>  (1) 
0.4

>  <PUBCHEM_CONFORMER_DIVERSEORDER>  (1) 
1
5
6
2
4
3

>  <PUBCHEM_MMFF94_PARTIAL_CHARGES>  (1) 
13
1 -0.62
10 0.72
11 0.72
19 0.4
2 -0.62
20 0.4
21 0.4
22 0.4
3 -0.62
4 -0.9
5 -0.9
6 0.14
8 0.48

>  <PUBCHEM_EFFECTIVE_ROTOR_COUNT>  (1) 
2

>  <PUBCHEM_PHARMACOPHORE_FEATURES>  (1) 
6
1 4 donor
1 5 donor
1 9 hydrophobe
4 1 3 4 10 cation
4 2 3 5 11 cation
6 1 2 3 8 10 11 rings

>  <PUBCHEM_HEAVY_ATOM_COUNT>  (1) 
11

>  <PUBCHEM_ATOM_DEF_STEREO_COUNT>  (1) 
0

>  <PUBCHEM_ATOM_UDEF_STEREO_COUNT>  (1) 
0

>  <PUBCHEM_BOND_DEF_STEREO_COUNT>  (1) 
0

>  <PUBCHEM_BOND_UDEF_STEREO_COUNT>  (1) 
0

>  <PUBCHEM_ISOTOPIC_ATOM_COUNT>  (1) 
0

>  <PUBCHEM_COMPONENT_COUNT>  (1) 
1

>  <PUBCHEM_CACTVS_TAUTO_COUNT>  (1) 
10

>  <PUBCHEM_CONFORMER_ID>  (1) 
000056EC00000001

>  <PUBCHEM_MMFF94_ENERGY>  (1) 
24.0659

>  <PUBCHEM_FEATURE_SELFOVERLAP>  (1) 
30.489

>  <PUBCHEM_SHAPE_FINGERPRINT>  (1) 
12346645 6 18341894103871933949
12932764 1 18410578388067884375
14325111 11 18340207500712173277
15501101 241 18260833682998475213
15775835 57 18058734735746456289
161256 15 18335420132068237028
16945 1 18410562994498932918
170605 34 18058739133655700453
17841504 4 18336829676100009875
20645477 70 18410005512677624759
20653091 64 18340211782245954488
20871998 22 18054793879729675094
21040471 1 17977660141359419476
2748010 2 17979899541602242006
29004967 10 18334010562413982867
528862 383 18409725183676063883

>  <PUBCHEM_SHAPE_MULTIPOLES>  (1) 
201.47
5.07
1.91
0.7
6.07
0.02
0.02
0
-0.88
-2.35
-0.14
0.24
0
0

>  <PUBCHEM_SHAPE_SELFOVERLAP>  (1) 
405.012

>  <PUBCHEM_SHAPE_VOLUME>  (1) 
110.6

>  <PUBCHEM_COORDINATE_TYPE>  (1) 
2
5
10

$$$$
