2225
     RDKit          3D

 28 29  0  0  1  0  0  0  0  0999 V2000
    2.1687    1.0011    0.0774 O   0  0  0  0  0  0  0  0  0  0  0  0
   -3.8927   -0.4609    1.3356 O   0  0  0  0  0  0  0  0  0  0  0  0
    1.3905    1.6700    2.1525 O   0  0  0  0  0  0  0  0  0  0  0  0
   -3.5523   -1.5614   -0.6724 O   0  0  0  0  0  0  0  0  0  0  0  0
    1.8549   -2.3826    2.0680 O   0  0  0  0  0  0  0  0  0  0  0  0
    0.4847   -0.6755    2.2341 O   0  0  0  0  0  0  0  0  0  0  0  0
    4.0919    0.2307   -1.6471 O   0  0  0  0  0  0  0  0  0  0  0  0
   -1.7901    2.5961   -0.8567 N   0  0  0  0  0  0  0  0  0  0  0  0
    1.0112   -1.5999    1.5706 N   0  0  0  0  0  0  0  0  0  0  0  0
   -0.9381    0.1916    0.3762 C   0  0  0  0  0  0  0  0  0  0  0  0
   -0.0695    1.4524    0.2983 C   0  0  0  0  0  0  0  0  0  0  0  0
   -2.3652    0.4179   -0.1327 C   0  0  0  0  0  0  0  0  0  0  0  0
   -0.2908   -0.9239   -0.3933 C   0  0  0  0  0  0  0  0  0  0  0  0
   -0.5151    2.5734   -0.3135 C   0  0  0  0  0  0  0  0  0  0  0  0
   -2.7175    1.5735   -0.7398 C   0  0  0  0  0  0  0  0  0  0  0  0
    0.6392   -1.7659    0.2080 C   0  0  0  0  0  0  0  0  0  0  0  0
   -0.6426   -1.0988   -1.7282 C   0  0  0  0  0  0  0  0  0  0  0  0
    1.2356    1.3963    0.9767 C   0  0  0  0  0  0  0  0  0  0  0  0
    0.2686    3.8476   -0.4779 C   0  0  0  0  0  0  0  0  0  0  0  0
   -3.3331   -0.6625    0.1184 C   0  0  0  0  0  0  0  0  0  0  0  0
   -4.0727    1.8770   -1.3194 C   0  0  0  0  0  0  0  0  0  0  0  0
    1.2235   -2.7932   -0.5329 C   0  0  0  0  0  0  0  0  0  0  0  0
   -0.0582   -2.1261   -2.4690 C   0  0  0  0  0  0  0  0  0  0  0  0
    0.8749   -2.9733   -1.8714 C   0  0  0  0  0  0  0  0  0  0  0  0
    3.5007    0.8972    0.5907 C   0  0  0  0  0  0  0  0  0  0  0  0
   -4.8631   -1.4378    1.7268 C   0  0  0  0  0  0  0  0  0  0  0  0
    4.4582    0.4504   -0.4935 C   0  0  0  0  0  0  0  0  0  0  0  0
    5.8983    0.2866   -0.0853 C   0  0  0  0  0  0  0  0  0  0  0  0
  1 18  1  0
  1 25  1  0
  2 20  1  0
  2 26  1  0
  3 18  2  0
  4 20  2  0
  5  9  1  0
  6  9  2  0
  7 27  2  0
  8 14  1  0
  8 15  1  0
  9 16  1  0
 10 11  1  0
 10 12  1  0
 10 13  1  0
 11 14  2  0
 11 18  1  0
 12 15  2  0
 12 20  1  0
 13 16  2  0
 13 17  1  0
 14 19  1  0
 15 21  1  0
 16 22  1  0
 17 23  2  0
 22 24  2  0
 23 24  1  0
 25 27  1  0
 27 28  1  0
M  CHG  2   5  -1   9   1
M  END
>  <PUBCHEM_COMPOUND_CID>  (1) 
2225

>  <PUBCHEM_CONFORMER_RMSD>  (1) 
1

>  <PUBCHEM_CONFORMER_DIVERSEORDER>  (1) 
1
11
5
24
32
17
33
22
28
15
27
9
29
21
3
37
4
16
6
26
34
8
35
38
39
7
30
12
2
41
23
13
10
14
36
25
20
31
40
19
18

>  <PUBCHEM_MMFF94_PARTIAL_CHARGES>  (1) 
33
1 -0.43
10 0.42
11 -0.12
12 -0.12
13 -0.14
14 -0.04
15 -0.04
16 0.13
17 -0.15
18 0.71
19 0.14
2 -0.43
20 0.71
21 0.14
22 -0.15
23 -0.15
24 -0.15
25 0.34
26 0.28
27 0.45
28 0.06
3 -0.57
30 0.4
31 0.15
38 0.15
39 0.15
4 -0.57
40 0.15
5 -0.52
6 -0.52
7 -0.57
8 -0.6
9 0.91

>  <PUBCHEM_EFFECTIVE_ROTOR_COUNT>  (1) 
8.4

>  <PUBCHEM_PHARMACOPHORE_FEATURES>  (1) 
10
1 3 acceptor
1 4 acceptor
1 5 acceptor
1 5 anion
1 6 acceptor
1 7 acceptor
1 8 cation
1 8 donor
6 13 16 17 22 23 24 rings
6 8 10 11 12 14 15 rings

>  <PUBCHEM_HEAVY_ATOM_COUNT>  (1) 
28

>  <PUBCHEM_ATOM_DEF_STEREO_COUNT>  (1) 
0

>  <PUBCHEM_ATOM_UDEF_STEREO_COUNT>  (1) 
1

>  <PUBCHEM_BOND_DEF_STEREO_COUNT>  (1) 
0

>  <PUBCHEM_BOND_UDEF_STEREO_COUNT>  (1) 
0

>  <PUBCHEM_ISOTOPIC_ATOM_COUNT>  (1) 
0

>  <PUBCHEM_COMPONENT_COUNT>  (1) 
1

>  <PUBCHEM_CACTVS_TAUTO_COUNT>  (1) 
9

>  <PUBCHEM_CONFORMER_ID>  (1) 
000008B100000001

>  <PUBCHEM_MMFF94_ENERGY>  (1) 
99.251

>  <PUBCHEM_FEATURE_SELFOVERLAP>  (1) 
50.847

>  <PUBCHEM_SHAPE_FINGERPRINT>  (1) 
10863032 1 17968654895934782136
10906281 52 18124587592606598421
11488393 25 18057333790334415630
11578080 2 16662318490975900143
12035758 1 18200041771035184962
12156800 1 15293842507963355391
12422481 6 18128263276946775882
12592029 89 18272101491145545818
13140716 1 17902800991883536843
14251751 93 18341887515418553766
14713325 29 18267313040623388592
14787075 74 17823147880762590667
14955137 171 18200329834486251369
15209289 33 17632301223755055509
15210252 30 15309579156994933412
16945 1 18116417332042625145
17980427 23 17328832445830096432
19591789 44 18271801388642120782
20905425 154 18265895765744674812
21330990 113 18200894918727312204
22182313 1 18339934710185709373
23419403 2 17187344076689562360
23559900 14 17833827175242199263
2748010 2 18268972285231681661
2818148 4 18268411572998822278
465052 167 18044672020766160403
5265222 85 18341613751037027356
58260988 521 18268453362909202306
59755656 215 18412547617830726927
81228 2 17334752662683438331

>  <PUBCHEM_SHAPE_MULTIPOLES>  (1) 
525.18
7.62
3.63
2
3.24
0.66
0.33
0.64
0.57
-0.21
-1.18
-0.23
-1.1
1.14

>  <PUBCHEM_SHAPE_SELFOVERLAP>  (1) 
1121.15

>  <PUBCHEM_SHAPE_VOLUME>  (1) 
289.8

>  <PUBCHEM_COORDINATE_TYPE>  (1) 
2
5
10

$$$$
