22251
     RDKit          3D

 16 18  0  0  1  0  0  0  0  0999 V2000
    0.2922    1.2144    0.2358 S   0  0  0  0  0  0  0  0  0  0  0  0
   -0.6377   -0.1976   -0.4676 C   0  0  0  0  0  0  0  0  0  0  0  0
   -0.0776   -1.5189    0.0654 C   0  0  0  0  0  0  0  0  0  0  0  0
    1.3270   -1.7837   -0.4706 C   0  0  0  0  0  0  0  0  0  0  0  0
    2.3318   -0.7018   -0.1673 C   0  0  0  0  0  0  0  0  0  0  0  0
   -2.1229   -0.0315   -0.2062 C   0  0  0  0  0  0  0  0  0  0  0  0
    1.9780    0.6253    0.1278 C   0  0  0  0  0  0  0  0  0  0  0  0
    3.6952   -1.0442   -0.2354 C   0  0  0  0  0  0  0  0  0  0  0  0
    2.9896    1.5682    0.3782 C   0  0  0  0  0  0  0  0  0  0  0  0
   -2.9059    0.7127   -1.0876 C   0  0  0  0  0  0  0  0  0  0  0  0
   -2.7027   -0.6230    0.9152 C   0  0  0  0  0  0  0  0  0  0  0  0
    4.6893   -0.0986    0.0096 C   0  0  0  0  0  0  0  0  0  0  0  0
    4.3358    1.2083    0.3195 C   0  0  0  0  0  0  0  0  0  0  0  0
   -4.2714    0.8658   -0.8471 C   0  0  0  0  0  0  0  0  0  0  0  0
   -4.0682   -0.4700    1.1557 C   0  0  0  0  0  0  0  0  0  0  0  0
   -4.8525    0.2744    0.2746 C   0  0  0  0  0  0  0  0  0  0  0  0
  1  2  1  0
  1  7  1  0
  2  3  1  0
  2  6  1  0
  3  4  1  0
  4  5  1  0
  5  7  2  0
  5  8  1  0
  6 10  2  0
  6 11  1  0
  7  9  1  0
  8 12  2  0
  9 13  2  0
 10 14  1  0
 11 15  2  0
 12 13  1  0
 14 16  2  0
 15 16  1  0
M  END
>  <PUBCHEM_COMPOUND_CID>  (1) 
22251

>  <PUBCHEM_CONFORMER_RMSD>  (1) 
0.6

>  <PUBCHEM_CONFORMER_DIVERSEORDER>  (1) 
1
2
3

>  <PUBCHEM_MMFF94_PARTIAL_CHARGES>  (1) 
24
1 -0.33
10 -0.15
11 -0.15
12 -0.15
13 -0.15
14 -0.15
15 -0.15
16 -0.15
2 0.37
22 0.15
23 0.15
24 0.15
25 0.15
26 0.15
27 0.15
28 0.15
29 0.15
30 0.15
4 0.14
5 -0.14
6 -0.14
7 0.1
8 -0.15
9 -0.15

>  <PUBCHEM_EFFECTIVE_ROTOR_COUNT>  (1) 
1.8

>  <PUBCHEM_PHARMACOPHORE_FEATURES>  (1) 
3
6 1 2 3 4 5 7 rings
6 5 7 8 9 12 13 rings
6 6 10 11 14 15 16 rings

>  <PUBCHEM_HEAVY_ATOM_COUNT>  (1) 
16

>  <PUBCHEM_ATOM_DEF_STEREO_COUNT>  (1) 
0

>  <PUBCHEM_ATOM_UDEF_STEREO_COUNT>  (1) 
1

>  <PUBCHEM_BOND_DEF_STEREO_COUNT>  (1) 
0

>  <PUBCHEM_BOND_UDEF_STEREO_COUNT>  (1) 
0

>  <PUBCHEM_ISOTOPIC_ATOM_COUNT>  (1) 
0

>  <PUBCHEM_COMPONENT_COUNT>  (1) 
1

>  <PUBCHEM_CACTVS_TAUTO_COUNT>  (1) 
1

>  <PUBCHEM_CONFORMER_ID>  (1) 
000056EB00000001

>  <PUBCHEM_MMFF94_ENERGY>  (1) 
43.0951

>  <PUBCHEM_FEATURE_SELFOVERLAP>  (1) 
15.237

>  <PUBCHEM_SHAPE_FINGERPRINT>  (1) 
10608611 8 18334290933964121125
11132069 177 18408884070165833983
11471102 20 18343018883082417062
11543360 7 14692286300404161336
11615757 297 18131914853772773915
12236239 1 17132115728117514191
12403259 415 18261110755370119317
13214271 11 18260265265852411903
13583140 156 16806703218498882236
13675066 3 18333452070652432528
13760787 5 18060700584921332468
14386348 63 18187650193390778787
15196674 1 18340767138966344958
15219456 202 18334295353443043151
15309172 13 18343585148545161463
15375358 24 18334011683643124699
15653759 3 17821447967198096577
15848702 151 17489034738549999638
16988056 13 13455848864758399555
17834072 33 17917987308899823255
18186145 218 18202004347761466366
200 152 18060696187375818861
20279233 1 18259989262489975771
204376 136 18342739641088241551
20645477 70 18271522001030221534
21033648 29 18336813251987405433
21065201 7 17168144507619174507
21267235 1 18342465803164509934
22854114 59 18409450297326904291
231179 274 18335416859508690654
23402539 116 18334004012641695118
23402655 69 18059855082260305980
23557571 272 17386006113934104269
23559900 14 17604431778083055134
26918003 58 18408322185411690704
4047638 21 18341895203874204426
474 4 18202001066232495864
5104073 3 18410292544592722923
542803 24 14707211006604002309
573450 72 15357695288710802093
602551 16 16950572128659963378
633830 44 17846513512169761973
69090 78 18343016722292257414
77492 1 17060337401343016463
8272917 22 17987805098756922119

>  <PUBCHEM_SHAPE_MULTIPOLES>  (1) 
333.12
10.11
1.56
0.93
1.88
0.14
0.02
-1.83
0.69
-1.07
-0.03
0.83
-0.02
0.9

>  <PUBCHEM_SHAPE_SELFOVERLAP>  (1) 
708.496

>  <PUBCHEM_SHAPE_VOLUME>  (1) 
183

>  <PUBCHEM_COORDINATE_TYPE>  (1) 
2
5
10

$$$$
