22262
     RDKit          3D

 22 23  0  0  0  0  0  0  0  0999 V2000
   -2.8574    0.4721   -0.5667 N   0  0  0  0  0  0  0  0  0  0  0  0
   -1.7051   -0.0767    0.1402 C   0  0  0  0  0  0  0  0  0  0  0  0
   -0.4405    0.7135   -0.2156 C   0  0  0  0  0  0  0  0  0  0  0  0
   -3.0661    1.8737   -0.2005 C   0  0  0  0  0  0  0  0  0  0  0  0
   -4.0589   -0.3128   -0.2792 C   0  0  0  0  0  0  0  0  0  0  0  0
    0.8238    0.1640    0.4959 C   0  0  0  0  0  0  0  0  0  0  0  0
    1.0847   -1.3101    0.2004 C   0  0  0  0  0  0  0  0  0  0  0  0
    2.0727    1.0035    0.2586 C   0  0  0  0  0  0  0  0  0  0  0  0
   -3.3151    1.9970    1.3001 C   0  0  0  0  0  0  0  0  0  0  0  0
   -4.2372    2.4380   -0.9985 C   0  0  0  0  0  0  0  0  0  0  0  0
   -4.3562   -0.2962    1.2175 C   0  0  0  0  0  0  0  0  0  0  0  0
   -3.8662   -1.7395   -0.7838 C   0  0  0  0  0  0  0  0  0  0  0  0
    0.5265   -2.2611    1.0268 C   0  0  0  0  0  0  0  0  0  0  0  0
    3.0429    1.0449    1.2381 C   0  0  0  0  0  0  0  0  0  0  0  0
    1.8704   -1.6404   -0.8825 C   0  0  0  0  0  0  0  0  0  0  0  0
    2.1937    1.6959   -0.9280 C   0  0  0  0  0  0  0  0  0  0  0  0
    0.7655   -3.6087    0.7570 C   0  0  0  0  0  0  0  0  0  0  0  0
    4.1862    1.8140    1.0211 C   0  0  0  0  0  0  0  0  0  0  0  0
    2.1092   -2.9878   -1.1524 C   0  0  0  0  0  0  0  0  0  0  0  0
    3.3371    2.4649   -1.1451 C   0  0  0  0  0  0  0  0  0  0  0  0
    1.5568   -3.9719   -0.3326 C   0  0  0  0  0  0  0  0  0  0  0  0
    4.3333    2.5238   -0.1706 C   0  0  0  0  0  0  0  0  0  0  0  0
  1  2  1  0
  1  4  1  0
  1  5  1  0
  2  3  1  0
  3  6  1  0
  4  9  1  0
  4 10  1  0
  5 11  1  0
  5 12  1  0
  6  7  1  0
  6  8  1  0
  7 13  2  0
  7 15  1  0
  8 14  2  0
  8 16  1  0
 13 17  1  0
 14 18  1  0
 15 19  2  0
 16 20  2  0
 17 21  2  0
 18 22  2  0
 19 21  1  0
 20 22  1  0
M  END
>  <PUBCHEM_COMPOUND_CID>  (1) 
22262

>  <PUBCHEM_CONFORMER_RMSD>  (1) 
0.8

>  <PUBCHEM_CONFORMER_DIVERSEORDER>  (1) 
2
10
1
3
8
9
5
6
4
7

>  <PUBCHEM_MMFF94_PARTIAL_CHARGES>  (1) 
27
1 -0.81
13 -0.15
14 -0.15
15 -0.15
16 -0.15
17 -0.15
18 -0.15
19 -0.15
2 0.27
20 -0.15
21 -0.15
22 -0.15
4 0.27
42 0.15
43 0.15
44 0.15
45 0.15
46 0.15
47 0.15
48 0.15
49 0.15
5 0.27
50 0.15
51 0.15
6 0.29
7 -0.14
8 -0.14

>  <PUBCHEM_EFFECTIVE_ROTOR_COUNT>  (1) 
7

>  <PUBCHEM_PHARMACOPHORE_FEATURES>  (1) 
5
1 1 cation
3 4 9 10 hydrophobe
3 5 11 12 hydrophobe
6 7 13 15 17 19 21 rings
6 8 14 16 18 20 22 rings

>  <PUBCHEM_HEAVY_ATOM_COUNT>  (1) 
22

>  <PUBCHEM_ATOM_DEF_STEREO_COUNT>  (1) 
0

>  <PUBCHEM_ATOM_UDEF_STEREO_COUNT>  (1) 
0

>  <PUBCHEM_BOND_DEF_STEREO_COUNT>  (1) 
0

>  <PUBCHEM_BOND_UDEF_STEREO_COUNT>  (1) 
0

>  <PUBCHEM_ISOTOPIC_ATOM_COUNT>  (1) 
0

>  <PUBCHEM_COMPONENT_COUNT>  (1) 
1

>  <PUBCHEM_CACTVS_TAUTO_COUNT>  (1) 
1

>  <PUBCHEM_CONFORMER_ID>  (1) 
000056F600000002

>  <PUBCHEM_MMFF94_ENERGY>  (1) 
91.1945

>  <PUBCHEM_FEATURE_SELFOVERLAP>  (1) 
25.373

>  <PUBCHEM_SHAPE_FINGERPRINT>  (1) 
10090160 65 18263353849775666943
11578080 2 17461715091593386292
12422481 6 18122313849952347426
12553582 1 17690001133175969755
12788726 201 17469041520190741426
12839892 36 18338216254725600842
13140716 1 18266461997427611377
13533116 47 18271804559145681961
15502722 9 18411984628615971030
15906896 17 17901664092597467842
16752209 62 17835234928641705802
18222031 100 11314296274494628944
20197701 30 18342162402363779688
20286276 3 18339085861571338719
20567600 347 18339359768262039342
20587220 46 12883802200400386438
20645477 70 18270670949387259159
20739085 24 18261106332181726992
21524375 3 18263075681775970608
22393880 68 18342179938156086982
2255824 54 18338802186927911270
22907989 373 17616827960089891788
23366157 5 18261674749111460538
23559900 14 18267578001149522449
23566358 27 18339936908945395735
23598288 3 17395306067013574606
3091708 16 9261933546413972618
312423 11 18130508510119175941
314173 41 17907586826349312663
352729 6 17975424820918368142
4280585 95 17980196384009757542
458136 41 18339938076880990962
474 4 18407759226826350960
474229 33 18192709166480728283
5486654 2 18193839477635391143
58051976 378 18336824307475298895
59755656 215 18411982446682901140
6138700 20 18339646612897429446
6287921 2 18335714831428424919
6443956 14 18196088842434656576
7364860 26 18270114591855202386
74978 22 18124593090148406191
81228 2 17331665259892118066
84936 182 18273216365813122936
9709674 26 18335419016046743811
9981440 41 18336260249172382987

>  <PUBCHEM_SHAPE_MULTIPOLES>  (1) 
447.77
8.74
4.53
1.26
5.71
3.95
0.1
-6.76
-0.05
-3.22
-0.57
-0.05
-0.13
0.26

>  <PUBCHEM_SHAPE_SELFOVERLAP>  (1) 
933.56

>  <PUBCHEM_SHAPE_VOLUME>  (1) 
255.9

>  <PUBCHEM_COORDINATE_TYPE>  (1) 
2
5
10

$$$$
