22261
     RDKit          3D

 19 20  0  0  1  0  0  0  0  0999 V2000
   -4.5624   -2.2146    0.5380 Cl  0  0  0  0  0  0  0  0  0  0  0  0
   -0.6479   -1.2990    0.2896 N   0  0  0  0  0  0  0  0  0  0  0  0
    0.0535   -0.2463   -0.4444 C   0  0  0  0  0  0  0  0  0  0  0  0
    1.5476   -0.2356   -0.1570 C   0  0  0  0  0  0  0  0  0  0  0  0
   -0.5739    1.1237   -0.2333 C   0  0  0  0  0  0  0  0  0  0  0  0
   -2.0854   -1.2335    0.0287 C   0  0  0  0  0  0  0  0  0  0  0  0
   -0.1217   -2.6139   -0.0751 C   0  0  0  0  0  0  0  0  0  0  0  0
   -2.8138   -2.2747    0.8642 C   0  0  0  0  0  0  0  0  0  0  0  0
   -0.3474   -2.9060   -1.5489 C   0  0  0  0  0  0  0  0  0  0  0  0
    2.4132    0.1993   -1.1400 C   0  0  0  0  0  0  0  0  0  0  0  0
   -1.5697    1.5413   -1.0929 C   0  0  0  0  0  0  0  0  0  0  0  0
    1.9930   -0.6612    1.0780 C   0  0  0  0  0  0  0  0  0  0  0  0
   -0.1284    1.9083    0.8110 C   0  0  0  0  0  0  0  0  0  0  0  0
    3.7829    0.2091   -0.8768 C   0  0  0  0  0  0  0  0  0  0  0  0
   -2.1448    2.7972   -0.8995 C   0  0  0  0  0  0  0  0  0  0  0  0
    3.3627   -0.6513    1.3412 C   0  0  0  0  0  0  0  0  0  0  0  0
   -0.7036    3.1642    1.0043 C   0  0  0  0  0  0  0  0  0  0  0  0
    4.2578   -0.2161    0.3639 C   0  0  0  0  0  0  0  0  0  0  0  0
   -1.7117    3.6088    0.1490 C   0  0  0  0  0  0  0  0  0  0  0  0
  1  8  1  0
  2  3  1  0
  2  6  1  0
  2  7  1  0
  3  4  1  0
  3  5  1  0
  4 10  2  0
  4 12  1  0
  5 11  2  0
  5 13  1  0
  6  8  1  0
  7  9  1  0
 10 14  1  0
 11 15  1  0
 12 16  2  0
 13 17  2  0
 14 18  2  0
 15 19  2  0
 16 18  1  0
 17 19  1  0
M  END
>  <PUBCHEM_COMPOUND_CID>  (1) 
22261

>  <PUBCHEM_CONFORMER_RMSD>  (1) 
0.8

>  <PUBCHEM_CONFORMER_DIVERSEORDER>  (1) 
1
4
2
6
5
3

>  <PUBCHEM_MMFF94_PARTIAL_CHARGES>  (1) 
28
1 -0.29
10 -0.15
11 -0.15
12 -0.15
13 -0.15
14 -0.15
15 -0.15
16 -0.15
17 -0.15
18 -0.15
19 -0.15
2 -0.81
3 0.56
30 0.15
31 0.15
32 0.15
33 0.15
34 0.15
35 0.15
36 0.15
37 0.15
38 0.15
39 0.15
4 -0.14
5 -0.14
6 0.27
7 0.27
8 0.29

>  <PUBCHEM_EFFECTIVE_ROTOR_COUNT>  (1) 
6

>  <PUBCHEM_PHARMACOPHORE_FEATURES>  (1) 
3
1 2 cation
6 4 10 12 14 16 18 rings
6 5 11 13 15 17 19 rings

>  <PUBCHEM_HEAVY_ATOM_COUNT>  (1) 
19

>  <PUBCHEM_ATOM_DEF_STEREO_COUNT>  (1) 
0

>  <PUBCHEM_ATOM_UDEF_STEREO_COUNT>  (1) 
0

>  <PUBCHEM_BOND_DEF_STEREO_COUNT>  (1) 
0

>  <PUBCHEM_BOND_UDEF_STEREO_COUNT>  (1) 
0

>  <PUBCHEM_ISOTOPIC_ATOM_COUNT>  (1) 
0

>  <PUBCHEM_COMPONENT_COUNT>  (1) 
1

>  <PUBCHEM_CACTVS_TAUTO_COUNT>  (1) 
1

>  <PUBCHEM_CONFORMER_ID>  (1) 
000056F500000001

>  <PUBCHEM_MMFF94_ENERGY>  (1) 
65.6346

>  <PUBCHEM_FEATURE_SELFOVERLAP>  (1) 
15.223

>  <PUBCHEM_SHAPE_FINGERPRINT>  (1) 
10162869 55 18199203931588221979
104564 63 18408889525143539039
11582403 64 15361049731173373653
12553582 1 18267297823543624854
12788726 201 18261398875067561722
13134695 92 18119248613260407079
13140716 1 18411419540170113921
13538477 17 18261386694640328952
13583140 156 17630014171820801706
13764800 53 18269556048549049320
14022347 108 18194704745878696126
14955137 171 17834992971237365419
15420108 30 17267219554709364800
15490181 8 17979349755391351326
15852999 172 18049429349517362908
1601671 61 18341062890746910403
16752209 62 18409440376084572846
16945 1 18260266326134242935
17357779 13 18342448283897730359
18981168 100 17907880417285814144
19765921 60 17694204591772323121
20097449 115 18265615575015874683
20510252 161 18411700989234147616
20600515 1 17843424004797162506
21029758 27 18192722352135893443
21285901 2 17986700175296494670
21330990 113 18129118774138936483
21524375 3 17980184293496782380
22907989 373 18410019822986247116
23419403 2 16050916612209719431
23557571 272 18341617057692437444
23558518 356 18117002082786343546
23598288 3 18336812114179638434
2748010 2 18196352909566356445
3071541 236 18264198111022333352
3091708 16 9420387461095259177
3250762 1 17981905037721357327
34934 24 17907024220045386052
350125 39 17978807713365321555
352729 6 18268142055115371100
4340502 62 17976539404309832421
4409770 3 18337096917534269119
474 4 17545034905640842680
68521 5 18408327708813427645
7164475 11 18334016081890251822
7364860 26 17405156608471063003
81228 2 18337127712275376640
84936 182 17335608722949442504
9981440 41 17769907148660699874

>  <PUBCHEM_SHAPE_MULTIPOLES>  (1) 
387.9
6.04
4.21
1.29
2.15
2.5
-0.1
-3.23
1.07
-4.82
-0.02
0.33
-0.13
0.45

>  <PUBCHEM_SHAPE_SELFOVERLAP>  (1) 
807.004

>  <PUBCHEM_SHAPE_VOLUME>  (1) 
220.6

>  <PUBCHEM_COORDINATE_TYPE>  (1) 
2
5
10

$$$$
