22272
     RDKit          3D

 23 24  0  0  1  0  0  0  0  0999 V2000
    0.1618    0.7241    1.2915 O   0  0  0  0  0  0  0  0  0  0  0  0
   -1.9415   -2.3262   -1.0411 O   0  0  0  0  0  0  0  0  0  0  0  0
   -1.0281    2.5202    2.1355 O   0  0  0  0  0  0  0  0  0  0  0  0
   -4.6223   -1.6567   -1.2281 O   0  0  0  0  0  0  0  0  0  0  0  0
   -5.5670    0.6436   -0.0152 O   0  0  0  0  0  0  0  0  0  0  0  0
    2.1699   -0.5642   -0.4111 N   0  0  0  0  0  0  0  0  0  0  0  0
    0.7583   -0.4226   -0.7453 C   0  0  0  0  0  0  0  0  0  0  0  0
   -0.1081   -0.4656    0.5020 C   0  0  0  0  0  0  0  0  0  0  0  0
    2.9934   -0.5213   -1.6210 C   0  0  0  0  0  0  0  0  0  0  0  0
    2.4048   -1.8119    0.3182 C   0  0  0  0  0  0  0  0  0  0  0  0
   -1.5605   -0.3516    0.2433 C   0  0  0  0  0  0  0  0  0  0  0  0
    2.8263    0.8221   -2.3293 C   0  0  0  0  0  0  0  0  0  0  0  0
    3.8802   -1.9366    0.6951 C   0  0  0  0  0  0  0  0  0  0  0  0
   -2.0518    0.7897    0.8457 C   0  0  0  0  0  0  0  0  0  0  0  0
    3.2281    1.9815   -1.4168 C   0  0  0  0  0  0  0  0  0  0  0  0
    4.3290   -0.7630    1.5665 C   0  0  0  0  0  0  0  0  0  0  0  0
   -2.4081   -1.1907   -0.4586 C   0  0  0  0  0  0  0  0  0  0  0  0
   -0.9588    1.4810    1.5103 C   0  0  0  0  0  0  0  0  0  0  0  0
   -3.3836    1.1562    0.7803 C   0  0  0  0  0  0  0  0  0  0  0  0
   -3.7614   -0.8483   -0.5432 C   0  0  0  0  0  0  0  0  0  0  0  0
   -4.2458    0.3183    0.0722 C   0  0  0  0  0  0  0  0  0  0  0  0
    3.0982    3.3199   -2.1263 C   0  0  0  0  0  0  0  0  0  0  0  0
    5.7871   -0.8979    1.9754 C   0  0  0  0  0  0  0  0  0  0  0  0
  1  8  1  0
  1 18  1  0
  2 17  1  0
  3 18  2  0
  4 20  1  0
  5 21  1  0
  6  7  1  0
  6  9  1  0
  6 10  1  0
  7  8  1  0
  8 11  1  0
  9 12  1  0
 10 13  1  0
 11 14  2  0
 11 17  1  0
 12 15  1  0
 13 16  1  0
 14 18  1  0
 14 19  1  0
 15 22  1  0
 16 23  1  0
 17 20  2  0
 19 21  2  0
 20 21  1  0
M  END
>  <PUBCHEM_COMPOUND_CID>  (1) 
22272

>  <PUBCHEM_CONFORMER_RMSD>  (1) 
0.8

>  <PUBCHEM_CONFORMER_DIVERSEORDER>  (1) 
2
43
22
20
18
42
5
36
24
33
39
23
35
41
28
16
14
26
31
44
32
11
3
40
1
29
27
15
21
12
17
34
10
25
30
37
7
9
19
13
8
4
38
6

>  <PUBCHEM_MMFF94_PARTIAL_CHARGES>  (1) 
21
1 -0.43
10 0.27
11 -0.14
14 0.09
17 0.08
18 0.63
19 -0.15
2 -0.53
20 0.08
21 0.08
3 -0.57
39 0.15
4 -0.53
46 0.45
47 0.45
48 0.45
5 -0.53
6 -0.81
7 0.27
8 0.42
9 0.27

>  <PUBCHEM_EFFECTIVE_ROTOR_COUNT>  (1) 
8.4

>  <PUBCHEM_PHARMACOPHORE_FEATURES>  (1) 
9
1 2 donor
1 22 hydrophobe
1 23 hydrophobe
1 3 acceptor
1 4 donor
1 5 donor
1 6 cation
5 1 8 11 14 18 rings
6 11 14 17 19 20 21 rings

>  <PUBCHEM_HEAVY_ATOM_COUNT>  (1) 
23

>  <PUBCHEM_ATOM_DEF_STEREO_COUNT>  (1) 
0

>  <PUBCHEM_ATOM_UDEF_STEREO_COUNT>  (1) 
1

>  <PUBCHEM_BOND_DEF_STEREO_COUNT>  (1) 
0

>  <PUBCHEM_BOND_UDEF_STEREO_COUNT>  (1) 
0

>  <PUBCHEM_ISOTOPIC_ATOM_COUNT>  (1) 
0

>  <PUBCHEM_COMPONENT_COUNT>  (1) 
1

>  <PUBCHEM_CACTVS_TAUTO_COUNT>  (1) 
23

>  <PUBCHEM_CONFORMER_ID>  (1) 
0000570000000002

>  <PUBCHEM_MMFF94_ENERGY>  (1) 
47.1154

>  <PUBCHEM_FEATURE_SELFOVERLAP>  (1) 
45.768

>  <PUBCHEM_SHAPE_FINGERPRINT>  (1) 
10319926 262 17487037978738509730
10366900 7 12463277124879591935
10369192 42 14979379790724009888
11578080 2 18191840414729764044
12166972 35 18334852801738550280
12236239 1 18334574590678892075
12549972 3 15502672498161586536
12553582 1 17845950601298483043
12616971 3 18260552208264415911
12788726 201 17916324787184166545
13134695 92 17385443203136463766
13583140 156 17750539392691492433
13965767 371 17330848915769579520
14790565 3 17628949784203847105
15375358 24 16988837263589468191
16752209 62 17916600721531290889
17349148 13 18408605838285155362
17980427 23 18339632417586988766
1813 80 17969221136561561570
18186145 218 15574716893621913439
18222031 100 18040997272955719970
192875 21 18187651254295323264
20600515 1 17846491552023115729
20645477 70 16733277754956089394
20693207 138 16127831651097963836
20715895 44 18122059798210374621
2132832 1 18335137562233951572
23402539 116 17703491230436845415
23557571 272 17417818292566668968
23559900 14 17702962326572927734
2838139 119 17604980435245127069
3004659 81 18413395327777922463
394222 165 18189905399445943318
474 4 17970359311184171924
495365 180 16370447773790533976
5104073 3 17677064511528817961
633830 44 14562805577856052855
67856867 119 18334855073618182572
7471813 234 18114742638452818428
7615 1 18337687321018710476
81228 2 17488201317368050659
9971528 1 18261392183851535458
9981440 41 17682407193205396464

>  <PUBCHEM_SHAPE_MULTIPOLES>  (1) 
439
10.51
2.63
2.09
0.87
2.29
-0.51
-2.32
-0.56
-3.8
0.78
-0.66
0.57
-3.37

>  <PUBCHEM_SHAPE_SELFOVERLAP>  (1) 
912.817

>  <PUBCHEM_SHAPE_VOLUME>  (1) 
253.2

>  <PUBCHEM_COORDINATE_TYPE>  (1) 
2
5
10

$$$$
