2227
     RDKit          3D

 12 11  0  0  0  0  0  0  0  0999 V2000
    2.5796   -0.2815    0.2214 N   0  0  0  0  0  0  0  0  0  0  0  0
   -2.5940    0.2925   -0.2241 N   0  0  0  0  0  0  0  0  0  0  0  0
    4.7107   -1.1801    0.0702 N   0  0  0  0  0  0  0  0  0  0  0  0
    4.5093    1.0666   -0.2570 N   0  0  0  0  0  0  0  0  0  0  0  0
   -4.7430    1.1326   -0.0043 N   0  0  0  0  0  0  0  0  0  0  0  0
   -4.4752   -1.1124    0.2834 N   0  0  0  0  0  0  0  0  0  0  0  0
    0.2880    0.5411    0.4637 C   0  0  0  0  0  0  0  0  0  0  0  0
   -0.2891   -0.4664   -0.5380 C   0  0  0  0  0  0  0  0  0  0  0  0
    1.7338    0.9110    0.1492 C   0  0  0  0  0  0  0  0  0  0  0  0
   -1.7162   -0.8783   -0.1921 C   0  0  0  0  0  0  0  0  0  0  0  0
    3.8489   -0.1098    0.0197 C   0  0  0  0  0  0  0  0  0  0  0  0
   -3.8529    0.0847    0.0077 C   0  0  0  0  0  0  0  0  0  0  0  0
  1  9  1  0
  1 11  2  3
  2 10  1  0
  2 12  2  3
  3 11  1  0
  4 11  1  0
  5 12  1  0
  6 12  1  0
  7  8  1  0
  7  9  1  0
  8 10  1  0
M  END
>  <PUBCHEM_COMPOUND_CID>  (1) 
2227

>  <PUBCHEM_CONFORMER_RMSD>  (1) 
0.6

>  <PUBCHEM_CONFORMER_DIVERSEORDER>  (1) 
1
23
89
2
102
6
38
80
12
101
83
59
14
75
72
106
45
36
53
77
3
97
73
17
52
103
48
79
21
71
4
88
49
95
61
99
51
84
11
5
86
40
93
69
43
20
65
70
39
98
57
63
42
108
29
32
100
34
33
68
60
81
16
24
90
96
22
15
85
10
35
67
76
19
91
58
62
56
92
64
55
66
50
9
7
82
54
8
107
104
78
105
44
47
25
37
26
74
41
46
27
30
18
28
94
13
87
31

>  <PUBCHEM_MMFF94_PARTIAL_CHARGES>  (1) 
18
1 -0.7
10 0.25
11 0.55
12 0.55
2 -0.7
21 0.4
22 0.4
23 0.4
24 0.4
25 0.4
26 0.4
27 0.4
28 0.4
3 -0.85
4 -0.85
5 -0.85
6 -0.85
9 0.25

>  <PUBCHEM_EFFECTIVE_ROTOR_COUNT>  (1) 
5

>  <PUBCHEM_PHARMACOPHORE_FEATURES>  (1) 
6
1 3 donor
1 4 donor
1 5 donor
1 6 donor
4 1 3 4 11 cation
4 2 5 6 12 cation

>  <PUBCHEM_HEAVY_ATOM_COUNT>  (1) 
12

>  <PUBCHEM_ATOM_DEF_STEREO_COUNT>  (1) 
0

>  <PUBCHEM_ATOM_UDEF_STEREO_COUNT>  (1) 
0

>  <PUBCHEM_BOND_DEF_STEREO_COUNT>  (1) 
0

>  <PUBCHEM_BOND_UDEF_STEREO_COUNT>  (1) 
0

>  <PUBCHEM_ISOTOPIC_ATOM_COUNT>  (1) 
0

>  <PUBCHEM_COMPONENT_COUNT>  (1) 
1

>  <PUBCHEM_CACTVS_TAUTO_COUNT>  (1) 
3

>  <PUBCHEM_CONFORMER_ID>  (1) 
000008B300000001

>  <PUBCHEM_MMFF94_ENERGY>  (1) 
28.4366

>  <PUBCHEM_FEATURE_SELFOVERLAP>  (1) 
30.56

>  <PUBCHEM_SHAPE_FINGERPRINT>  (1) 
10680689 15 16805322184918683231
11062470 55 12319739171886299407
11401426 45 16200428061620356849
124424 183 18130785668331981361
13675066 3 18201716275382699131
13690532 89 18343021086110606514
14123238 8 18335421295988309460
15242433 33 18412546531109107582
17834072 33 18338517555186830140
17834072 8 18342176630968023708
17834076 25 14764633027202966340
18342897 14 18343021090479576225
190213 19 16805322201581639694
20645477 70 18411983534011643078
20719005 15 18410855464650079842
22485316 2 18413105087068346314
23402539 116 17346591963842686133
42 15 18409449176213865494
42788 4 18410292514474995533
522135 26 18410292510834084508
6430166 295 18343299249810034661
77779 3 18335421300246366373

>  <PUBCHEM_SHAPE_MULTIPOLES>  (1) 
217.07
11.04
1.15
0.64
0.04
0.01
-0.01
0.12
0.19
-0.02
0.01
0.01
0
-0.02

>  <PUBCHEM_SHAPE_SELFOVERLAP>  (1) 
405.905

>  <PUBCHEM_SHAPE_VOLUME>  (1) 
130.1

>  <PUBCHEM_COORDINATE_TYPE>  (1) 
2
5
10

$$$$
