22281
     RDKit          3D

 34 37  0  0  1  0  0  0  0  0999 V2000
    3.7227    2.4828    0.4602 N   0  0  0  0  0  0  0  0  0  0  0  0
   -6.2006    2.9036   -0.2749 N   0  0  0  0  0  0  0  0  0  0  0  0
   -1.5811   -5.4334    0.0954 N   0  0  0  0  0  0  0  0  0  0  0  0
   -1.3523    0.0172    0.0919 C   0  0  0  0  0  0  0  0  0  0  0  0
   -0.0181    0.6654    0.1885 C   0  0  0  0  0  0  0  0  0  0  0  0
   -2.6271    0.7761   -0.0043 C   0  0  0  0  0  0  0  0  0  0  0  0
   -1.4086   -1.3249    0.0923 C   0  0  0  0  0  0  0  0  0  0  0  0
    2.4572    1.8677    0.3679 C   0  0  0  0  0  0  0  0  0  0  0  0
    4.6599    2.4033   -0.6428 C   0  0  0  0  0  0  0  0  0  0  0  0
    0.4902    0.9590    1.4365 C   0  0  0  0  0  0  0  0  0  0  0  0
    0.6681    0.9520   -0.9729 C   0  0  0  0  0  0  0  0  0  0  0  0
    1.7422    1.5671    1.5271 C   0  0  0  0  0  0  0  0  0  0  0  0
    1.9202    1.5601   -0.8822 C   0  0  0  0  0  0  0  0  0  0  0  0
   -3.1086    1.1123   -1.2520 C   0  0  0  0  0  0  0  0  0  0  0  0
   -3.2865    1.1191    1.1572 C   0  0  0  0  0  0  0  0  0  0  0  0
   -2.6926   -2.0034    0.0006 C   0  0  0  0  0  0  0  0  0  0  0  0
   -0.1860   -2.1085    0.1848 C   0  0  0  0  0  0  0  0  0  0  0  0
    5.5212    1.1747   -0.5338 C   0  0  0  0  0  0  0  0  0  0  0  0
   -4.9917    2.1836   -0.1829 C   0  0  0  0  0  0  0  0  0  0  0  0
   -1.5274   -4.1505    0.0949 C   0  0  0  0  0  0  0  0  0  0  0  0
    4.1087    3.1910    1.6646 C   0  0  0  0  0  0  0  0  0  0  0  0
   -4.3047    1.8241   -1.3424 C   0  0  0  0  0  0  0  0  0  0  0  0
   -4.4827    1.8310    1.0669 C   0  0  0  0  0  0  0  0  0  0  0  0
   -2.7711   -3.3412    0.0006 C   0  0  0  0  0  0  0  0  0  0  0  0
   -0.2202   -3.4482    0.1877 C   0  0  0  0  0  0  0  0  0  0  0  0
    6.7229    1.2405    0.1586 C   0  0  0  0  0  0  0  0  0  0  0  0
    5.1037   -0.0091   -1.1271 C   0  0  0  0  0  0  0  0  0  0  0  0
   -7.2343    2.7339    0.7271 C   0  0  0  0  0  0  0  0  0  0  0  0
   -6.4316    3.8126   -1.3801 C   0  0  0  0  0  0  0  0  0  0  0  0
   -2.8756   -6.1564    0.0036 C   0  0  0  0  0  0  0  0  0  0  0  0
   -0.3517   -6.2621    0.1877 C   0  0  0  0  0  0  0  0  0  0  0  0
    7.5217    0.1014    0.2597 C   0  0  0  0  0  0  0  0  0  0  0  0
    5.9025   -1.1481   -1.0261 C   0  0  0  0  0  0  0  0  0  0  0  0
    7.1115   -1.0930   -0.3327 C   0  0  0  0  0  0  0  0  0  0  0  0
  1  8  1  0
  1  9  1  0
  1 21  1  0
  2 19  1  0
  2 28  1  0
  2 29  1  0
  3 20  2  3
  3 30  1  0
  3 31  1  0
  4  5  1  0
  4  6  1  0
  4  7  2  3
  5 10  2  0
  5 11  1  0
  6 14  2  0
  6 15  1  0
  7 16  1  0
  7 17  1  0
  8 12  2  0
  8 13  1  0
  9 18  1  0
 10 12  1  0
 11 13  2  0
 14 22  1  0
 15 23  2  0
 16 24  2  0
 17 25  2  0
 18 26  2  0
 18 27  1  0
 19 22  2  0
 19 23  1  0
 20 24  1  0
 20 25  1  0
 26 32  1  0
 27 33  2  0
 32 34  2  0
 33 34  1  0
M  CHG  1   3   1
M  END
>  <PUBCHEM_COMPOUND_CID>  (1) 
22281

>  <PUBCHEM_CONFORMER_RMSD>  (1) 
0.8

>  <PUBCHEM_CONFORMER_DIVERSEORDER>  (1) 
1
11
10
6
4
8
12
3
2
13
7
5
9

>  <PUBCHEM_MMFF94_PARTIAL_CHARGES>  (1) 
50
1 -0.84
10 -0.15
11 -0.15
12 -0.15
13 -0.15
14 -0.15
15 -0.15
16 -0.15
17 -0.15
18 -0.14
19 0.1
2 -0.84
20 0.37
21 0.37
22 -0.15
23 -0.15
24 -0.14
25 -0.14
26 -0.15
27 -0.15
28 0.37
29 0.37
3 -0.09
30 0.35
31 0.35
32 -0.15
33 -0.15
34 -0.15
37 0.15
38 0.15
39 0.15
4 -0.06
40 0.15
41 0.15
42 0.15
43 0.15
44 0.15
48 0.15
49 0.15
5 0.03
50 0.15
51 0.15
52 0.15
53 0.15
6 0.03
66 0.15
67 0.15
68 0.15
8 0.1
9 0.51

>  <PUBCHEM_EFFECTIVE_ROTOR_COUNT>  (1) 
6

>  <PUBCHEM_PHARMACOPHORE_FEATURES>  (1) 
6
1 1 cation
1 2 cation
6 18 26 27 32 33 34 rings
6 5 8 10 11 12 13 rings
6 6 14 15 19 22 23 rings
6 7 16 17 20 24 25 rings

>  <PUBCHEM_HEAVY_ATOM_COUNT>  (1) 
34

>  <PUBCHEM_ATOM_DEF_STEREO_COUNT>  (1) 
0

>  <PUBCHEM_ATOM_UDEF_STEREO_COUNT>  (1) 
0

>  <PUBCHEM_BOND_DEF_STEREO_COUNT>  (1) 
0

>  <PUBCHEM_BOND_UDEF_STEREO_COUNT>  (1) 
0

>  <PUBCHEM_ISOTOPIC_ATOM_COUNT>  (1) 
0

>  <PUBCHEM_COMPONENT_COUNT>  (1) 
1

>  <PUBCHEM_CACTVS_TAUTO_COUNT>  (1) 
1

>  <PUBCHEM_CONFORMER_ID>  (1) 
0000570900000001

>  <PUBCHEM_MMFF94_ENERGY>  (1) 
160.3512

>  <PUBCHEM_FEATURE_SELFOVERLAP>  (1) 
30.449

>  <PUBCHEM_SHAPE_FINGERPRINT>  (1) 
10050765 1 18194403518838072788
10165383 225 18409732816524701397
10254770 206 18047743807790668058
10835480 77 18272646892474850464
10864689 126 18265907852437423390
10940486 97 18188782763598656420
11297750 10 17768810115234101129
11331351 85 17691128553997497031
11763715 3 17396721138246511493
11796584 16 18411420631608498664
11991303 11 18261681449402581311
12202916 173 17916585320417346038
12516196 113 9727625099231293093
12549972 3 17702655708957919336
12643181 29 18410855448372271238
12788726 201 17901086835981532939
12925494 130 18413387640256084186
1361 87 17914366574772308190
14068700 686 17693094476366236992
14117953 113 18195244409121000662
14347332 77 18121500425769388862
14400156 350 17973991861621988725
14725015 67 17979640027353167398
14790565 3 18123758547611117904
14866123 147 18339932639790699507
15183329 4 18343305830059303820
15230672 131 18335701612215919938
15324884 4 17389688302052954121
15347591 1 18266458901226390536
15361156 5 17901116527195671706
15439362 3 18120372048098926701
15927050 60 18412822469963281167
19301676 85 18126858105762085222
19301679 30 17905049505715847154
19311894 1 18337388356676980680
19958102 18 18338228379333939903
21033648 29 18410566310061770105
21987440 362 17608366839978400492
22121540 332 17388526117149319293
23559900 14 18272366512577409976
23572383 38 18202570588340676030
249057 3 18410015412524650284
2747138 104 9583224064107468572
32027 91 18343301453956348376
340366 18 18260838120043103308
3534868 343 17252313501199225805
354706 109 18200293516855284658
38695281 34 18336549308976870098
4046055 4 17832698346842329031
4058900 60 18267871584420438321
4073 2 18340484595170876048
4144715 1 18197211671198056632
44062 13 18337957900064265854
513202 73 18045234970551264307
59755656 520 18411979161655769181
6009941 240 18343862247599297408
6371380 46 18341891862363774672
6376802 90 18268699696827403424
6669772 16 18268434538336381383
6698420 124 18273222984479422417
7399639 24 17192063567370516984
7970288 3 17329994006782780846
9961470 85 18341332185555747726

>  <PUBCHEM_SHAPE_MULTIPOLES>  (1) 
684.76
17.18
7.51
1.24
15.21
17.28
-0.09
-17.43
2.58
-10.51
-0.39
-0.07
-1.04
1.77

>  <PUBCHEM_SHAPE_SELFOVERLAP>  (1) 
1482.827

>  <PUBCHEM_SHAPE_VOLUME>  (1) 
375.8

>  <PUBCHEM_COORDINATE_TYPE>  (1) 
2
5
10

$$$$
