22286
     RDKit          3D

 24 27  0  0  1  0  0  0  0  0999 V2000
   -4.8220    0.9830   -0.4967 O   0  0  0  0  0  0  0  0  0  0  0  0
    4.8014   -2.1401    0.7947 O   0  0  0  0  0  0  0  0  0  0  0  0
   -2.6818    0.1752    0.3821 C   0  0  0  0  0  0  0  0  0  0  0  0
   -1.9211    0.9053   -0.7581 C   0  0  0  0  0  0  0  0  0  0  0  0
   -0.3929    1.0648   -0.6021 C   0  0  0  0  0  0  0  0  0  0  0  0
    0.3084   -0.2071   -0.0689 C   0  0  0  0  0  0  0  0  0  0  0  0
   -4.0193   -0.1923   -0.3394 C   0  0  0  0  0  0  0  0  0  0  0  0
   -1.8945   -1.0760    0.8483 C   0  0  0  0  0  0  0  0  0  0  0  0
   -2.2787    0.0982   -2.0267 C   0  0  0  0  0  0  0  0  0  0  0  0
   -0.4218   -0.7982    1.1472 C   0  0  0  0  0  0  0  0  0  0  0  0
   -3.5815   -0.6506   -1.7340 C   0  0  0  0  0  0  0  0  0  0  0  0
   -0.0156    2.2816    0.2531 C   0  0  0  0  0  0  0  0  0  0  0  0
    1.7827    0.0239    0.2467 C   0  0  0  0  0  0  0  0  0  0  0  0
   -2.9514    1.0977    1.5883 C   0  0  0  0  0  0  0  0  0  0  0  0
    1.4938    2.5162    0.2305 C   0  0  0  0  0  0  0  0  0  0  0  0
    2.3136    1.2585    0.3779 C   0  0  0  0  0  0  0  0  0  0  0  0
    2.6321   -1.2273    0.3606 C   0  0  0  0  0  0  0  0  0  0  0  0
    3.7781    1.4909    0.6655 C   0  0  0  0  0  0  0  0  0  0  0  0
   -4.8109   -1.2175    0.3546 C   0  0  0  0  0  0  0  0  0  0  0  0
    4.1475   -0.9922    0.2488 C   0  0  0  0  0  0  0  0  0  0  0  0
    4.5453    0.2330    1.0751 C   0  0  0  0  0  0  0  0  0  0  0  0
    4.5566   -0.8457   -1.1609 C   0  0  0  0  0  0  0  0  0  0  0  0
   -5.4581   -2.0550    0.9212 C   0  0  0  0  0  0  0  0  0  0  0  0
    4.8899   -0.7264   -2.3079 C   0  0  0  0  0  0  0  0  0  0  0  0
  1  7  1  0
  2 20  1  0
  3  4  1  0
  3  7  1  0
  3  8  1  0
  3 14  1  0
  4  5  1  0
  4  9  1  0
  5  6  1  0
  5 12  1  0
  6 10  1  0
  6 13  1  0
  7 11  1  0
  7 19  1  0
  8 10  1  0
  9 11  1  0
 12 15  1  0
 13 16  2  0
 13 17  1  0
 15 16  1  0
 16 18  1  0
 17 20  1  0
 18 21  1  0
 19 23  3  0
 20 21  1  0
 20 22  1  0
 22 24  3  0
M  END
>  <PUBCHEM_COMPOUND_CID>  (1) 
22286

>  <PUBCHEM_CONFORMER_RMSD>  (1) 
0.6

>  <PUBCHEM_CONFORMER_DIVERSEORDER>  (1) 
3
14
21
32
27
36
42
28
35
26
2
7
12
10
39
23
29
40
17
41
24
5
15
9
8
13
43
30
4
11
25
19
1
18
37
33
34
20
6
16
31
22
38

>  <PUBCHEM_MMFF94_PARTIAL_CHARGES>  (1) 
18
1 -0.68
13 -0.28
15 0.14
16 -0.28
17 0.14
18 0.14
19 -0.2
2 -0.68
20 0.48
22 -0.2
23 -0.18
24 -0.18
47 0.4
50 0.18
51 0.4
52 0.18
6 0.14
7 0.48

>  <PUBCHEM_EFFECTIVE_ROTOR_COUNT>  (1) 
2.2

>  <PUBCHEM_PHARMACOPHORE_FEATURES>  (1) 
10
1 1 acceptor
1 1 donor
1 2 acceptor
1 2 donor
1 23 hydrophobe
1 24 hydrophobe
5 3 4 7 9 11 rings
6 13 16 17 18 20 21 rings
6 3 4 5 6 8 10 rings
6 5 6 12 13 15 16 rings

>  <PUBCHEM_HEAVY_ATOM_COUNT>  (1) 
24

>  <PUBCHEM_ATOM_DEF_STEREO_COUNT>  (1) 
2

>  <PUBCHEM_ATOM_UDEF_STEREO_COUNT>  (1) 
4

>  <PUBCHEM_BOND_DEF_STEREO_COUNT>  (1) 
0

>  <PUBCHEM_BOND_UDEF_STEREO_COUNT>  (1) 
0

>  <PUBCHEM_ISOTOPIC_ATOM_COUNT>  (1) 
0

>  <PUBCHEM_COMPONENT_COUNT>  (1) 
1

>  <PUBCHEM_CACTVS_TAUTO_COUNT>  (1) 
1

>  <PUBCHEM_CONFORMER_ID>  (1) 
0000570E00000003

>  <PUBCHEM_MMFF94_ENERGY>  (1) 
59.6005

>  <PUBCHEM_FEATURE_SELFOVERLAP>  (1) 
50.965

>  <PUBCHEM_SHAPE_FINGERPRINT>  (1) 
10366900 7 16588021333829004265
10928967 22 18341612573314700854
11128504 68 15430037664412564838
11595378 159 15554182418514171051
12166972 35 17530962450528839278
12236239 1 17775000215638452545
12403259 226 18261385685265290821
12403259 415 17895186736364452413
12403814 3 17060339643632449809
12422481 6 17131010706094183409
12553582 1 18339367370659640538
12670546 177 17240489121378751926
12670546 56 14979952541117579598
13009979 54 17917728884543637912
13167823 11 17560798840197607854
13224815 77 18260829315164395556
13533116 47 18200315553693852377
13544653 18 18334295340510882880
13583140 156 14692273007680742962
13631057 29 11531353077127136745
13675066 3 17989483030657312577
13782708 43 18113897221570156555
14251764 30 18200328636370321798
14341114 176 18202008758708716643
14386348 63 18261106396384339808
14739800 52 13840540830734812932
15196674 1 18334853930966951929
15209289 33 18335138687525406667
15788980 27 17275386495183724083
15848702 151 17989489602136441588
16752209 62 18042396946440327920
17349148 13 18131635594651249226
17818456 19 17202497601636241072
17844677 252 18411139147250718697
17980427 23 13326846764759516945
1813 80 18343026575327166228
18186145 218 17968083227419458397
18222031 100 18131066026353425196
18785283 64 18044370771502179316
193927 3 18202289099471286646
200 152 18272642468003543673
20028762 73 18059010708955269487
20645477 70 18342461478079526412
21267235 1 18411986866679080186
22950370 63 18338807727614746374
23402539 116 18339634555805390890
23522609 53 17679050169272964885
23559900 14 18040151808490079858
2838139 119 13118818013839343399
3004659 81 17676767574955002834
312423 11 18129958852330400472
3286 77 18334858372353454445
465052 167 18343871017532073854
5104073 3 18272087184224089057
59755656 215 17748816428787204955
7495541 125 18114180856503531202
8863177 126 18262807405276549971
9709674 26 18189053269033291507
9981440 41 17048490429599792425

>  <PUBCHEM_SHAPE_MULTIPOLES>  (1) 
482.17
11.64
2.07
1.6
0.26
0.59
-0.75
-5.78
-0.37
0.66
0.41
0.09
-0.37
0.81

>  <PUBCHEM_SHAPE_SELFOVERLAP>  (1) 
1034.733

>  <PUBCHEM_SHAPE_VOLUME>  (1) 
262.7

>  <PUBCHEM_COORDINATE_TYPE>  (1) 
2
5
10

$$$$
