22285
     RDKit          3D

 18 18  0  0  0  0  0  0  0  0999 V2000
    2.6729   -2.5681   -2.8617 Cl  0  0  0  0  0  0  0  0  0  0  0  0
    3.7814   -0.5941    3.0736 Cl  0  0  0  0  0  0  0  0  0  0  0  0
   -4.4692   -0.9053    0.4540 O   0  0  0  0  0  0  0  0  0  0  0  0
   -2.8877   -2.4754    0.9013 O   0  0  0  0  0  0  0  0  0  0  0  0
    1.4366    0.1370   -0.1311 N   0  0  0  0  0  0  0  0  0  0  0  0
    0.0544    0.4252   -0.1688 C   0  0  0  0  0  0  0  0  0  0  0  0
   -0.4016    1.6834   -0.5619 C   0  0  0  0  0  0  0  0  0  0  0  0
    2.1042   -0.4008   -1.2985 C   0  0  0  0  0  0  0  0  0  0  0  0
    2.2043    0.3892    1.0709 C   0  0  0  0  0  0  0  0  0  0  0  0
    0.5534    2.7631   -0.9555 C   0  0  0  0  0  0  0  0  0  0  0  0
   -0.8582   -0.5656    0.1929 C   0  0  0  0  0  0  0  0  0  0  0  0
   -1.7702    1.9509   -0.5933 C   0  0  0  0  0  0  0  0  0  0  0  0
   -2.2269   -0.2983    0.1613 C   0  0  0  0  0  0  0  0  0  0  0  0
    1.8648   -1.8972   -1.4230 C   0  0  0  0  0  0  0  0  0  0  0  0
    2.8257   -0.8937    1.6004 C   0  0  0  0  0  0  0  0  0  0  0  0
   -2.6828    0.9600   -0.2318 C   0  0  0  0  0  0  0  0  0  0  0  0
    0.9780    3.6205    0.2326 C   0  0  0  0  0  0  0  0  0  0  0  0
   -3.1790   -1.3308    0.5386 C   0  0  0  0  0  0  0  0  0  0  0  0
  1 14  1  0
  2 15  1  0
  3 18  1  0
  4 18  2  0
  5  6  1  0
  5  8  1  0
  5  9  1  0
  6  7  2  0
  6 11  1  0
  7 10  1  0
  7 12  1  0
  8 14  1  0
  9 15  1  0
 10 17  1  0
 11 13  2  0
 12 16  2  0
 13 16  1  0
 13 18  1  0
M  END
>  <PUBCHEM_COMPOUND_CID>  (1) 
22285

>  <PUBCHEM_CONFORMER_RMSD>  (1) 
0.8

>  <PUBCHEM_CONFORMER_DIVERSEORDER>  (1) 
1
19
18
21
10
27
11
2
7
5
13
25
20
22
29
14
15
30
31
17
12
32
24
9
8
3
28
23
6
26
16
4

>  <PUBCHEM_MMFF94_PARTIAL_CHARGES>  (1) 
21
1 -0.29
10 0.14
11 -0.15
12 -0.15
13 0.09
14 0.29
15 0.29
16 -0.15
18 0.63
2 -0.29
25 0.15
26 0.15
3 -0.65
31 0.15
35 0.5
4 -0.57
5 -0.84
6 0.1
7 -0.14
8 0.37
9 0.37

>  <PUBCHEM_EFFECTIVE_ROTOR_COUNT>  (1) 
7

>  <PUBCHEM_PHARMACOPHORE_FEATURES>  (1) 
6
1 17 hydrophobe
1 3 acceptor
1 4 acceptor
1 5 cation
3 3 4 18 anion
6 6 7 11 12 13 16 rings

>  <PUBCHEM_HEAVY_ATOM_COUNT>  (1) 
18

>  <PUBCHEM_ATOM_DEF_STEREO_COUNT>  (1) 
0

>  <PUBCHEM_ATOM_UDEF_STEREO_COUNT>  (1) 
0

>  <PUBCHEM_BOND_DEF_STEREO_COUNT>  (1) 
0

>  <PUBCHEM_BOND_UDEF_STEREO_COUNT>  (1) 
0

>  <PUBCHEM_ISOTOPIC_ATOM_COUNT>  (1) 
0

>  <PUBCHEM_COMPONENT_COUNT>  (1) 
1

>  <PUBCHEM_CACTVS_TAUTO_COUNT>  (1) 
1

>  <PUBCHEM_CONFORMER_ID>  (1) 
0000570D00000001

>  <PUBCHEM_MMFF94_ENERGY>  (1) 
62.0523

>  <PUBCHEM_FEATURE_SELFOVERLAP>  (1) 
30.503

>  <PUBCHEM_SHAPE_FINGERPRINT>  (1) 
10610426 29 16444443755467939136
10906281 52 18268410365896780028
11582403 64 16322801322486286256
12202030 40 18058460810979302438
12553582 1 18260839193631692827
13083527 12 18048854575608743827
14022347 108 18118138982336175721
14115302 16 17241034406358232693
14787075 74 17750513061038382488
14817 1 12475595009885693124
16945 1 18272651289840255893
19049666 15 17409075908157775020
20600515 1 18117544137845448940
20645477 70 18121225543894401887
21524375 3 17400930089953276085
21650355 55 17971446568943211288
21665056 4 16897112451651696734
22112679 90 17170688674731437324
22802520 49 18055643819233804308
232386 152 17967806128776993794
23419403 2 12952111323381789780
23557571 272 18268146461873168644
23559900 14 18340778065099330877
2748010 2 18270962319541325935
394222 165 17832989725259750769
43471831 8 17610332019307364552
474 4 15337970114496328042
568465 68 17916848197394127000
57003041 14 17484826826067350574
5902787 121 18260826007670552977
621550 5 17558013670176347710
7364860 26 18197514019451607069
81228 2 18053380998508286993
9841814 1 18187936122311918241

>  <PUBCHEM_SHAPE_MULTIPOLES>  (1) 
357.45
6
3.35
2.29
1.7
1.83
-0.45
-3.96
-3.06
0.04
1.55
-3.91
-1.45
2.33

>  <PUBCHEM_SHAPE_SELFOVERLAP>  (1) 
706.443

>  <PUBCHEM_SHAPE_VOLUME>  (1) 
216.1

>  <PUBCHEM_COORDINATE_TYPE>  (1) 
2
5
10

$$$$
