22284
     RDKit          3D

 22 25  0  0  1  0  0  0  0  0999 V2000
   -5.4534   -0.8584   -0.6802 O   0  0  0  0  0  0  0  0  0  0  0  0
    3.9355    1.8774   -0.2246 O   0  0  0  0  0  0  0  0  0  0  0  0
    5.3378   -0.4444    0.2256 O   0  0  0  0  0  0  0  0  0  0  0  0
   -2.5383    0.8349    0.4567 C   0  0  0  0  0  0  0  0  0  0  0  0
   -3.1385   -0.0893   -0.6320 C   0  0  0  0  0  0  0  0  0  0  0  0
   -0.9991    0.8565    0.5718 C   0  0  0  0  0  0  0  0  0  0  0  0
   -0.3510   -0.5398    0.4223 C   0  0  0  0  0  0  0  0  0  0  0  0
   -2.4120   -1.4367   -0.7460 C   0  0  0  0  0  0  0  0  0  0  0  0
   -3.2003    0.3425    1.7556 C   0  0  0  0  0  0  0  0  0  0  0  0
   -0.8956   -1.2960   -0.8023 C   0  0  0  0  0  0  0  0  0  0  0  0
   -0.3662    1.8411   -0.4252 C   0  0  0  0  0  0  0  0  0  0  0  0
   -4.5302   -0.3471   -0.0571 C   0  0  0  0  0  0  0  0  0  0  0  0
   -4.6530    0.1016    1.3749 C   0  0  0  0  0  0  0  0  0  0  0  0
   -3.2685    0.6062   -1.9884 C   0  0  0  0  0  0  0  0  0  0  0  0
    1.1677   -0.4748    0.3698 C   0  0  0  0  0  0  0  0  0  0  0  0
    1.1206    2.0211   -0.1292 C   0  0  0  0  0  0  0  0  0  0  0  0
    1.8505    0.7196    0.0757 C   0  0  0  0  0  0  0  0  0  0  0  0
    1.9114   -1.6441    0.6090 C   0  0  0  0  0  0  0  0  0  0  0  0
    3.2542    0.7218    0.0348 C   0  0  0  0  0  0  0  0  0  0  0  0
    3.3047   -1.6305    0.5560 C   0  0  0  0  0  0  0  0  0  0  0  0
    3.9762   -0.4474    0.2680 C   0  0  0  0  0  0  0  0  0  0  0  0
    5.9476   -0.7142   -1.0353 C   0  0  0  0  0  0  0  0  0  0  0  0
  1 12  2  0
  2 19  1  0
  3 21  1  0
  3 22  1  0
  4  5  1  0
  4  6  1  0
  4  9  1  0
  5  8  1  0
  5 12  1  0
  5 14  1  0
  6  7  1  0
  6 11  1  0
  7 10  1  0
  7 15  1  0
  8 10  1  0
  9 13  1  0
 11 16  1  0
 12 13  1  0
 15 17  2  0
 15 18  1  0
 16 17  1  0
 17 19  1  0
 18 20  2  0
 19 21  2  0
 20 21  1  0
M  END
>  <PUBCHEM_COMPOUND_CID>  (1) 
22284

>  <PUBCHEM_CONFORMER_RMSD>  (1) 
0.6

>  <PUBCHEM_CONFORMER_DIVERSEORDER>  (1) 
2
5
38
7
36
19
12
24
25
32
31
17
8
15
33
26
14
18
23
29
20
4
28
34
37
30
22
6
35
21
9
11
13
27
1
10
16
3

>  <PUBCHEM_MMFF94_PARTIAL_CHARGES>  (1) 
18
1 -0.57
12 0.45
13 0.06
15 -0.14
16 0.14
17 -0.14
18 -0.15
19 0.08
2 -0.53
20 -0.15
21 0.08
22 0.28
3 -0.36
41 0.15
42 0.15
43 0.45
5 0.06
7 0.14

>  <PUBCHEM_EFFECTIVE_ROTOR_COUNT>  (1) 
2.2

>  <PUBCHEM_PHARMACOPHORE_FEATURES>  (1) 
7
1 1 acceptor
1 2 donor
1 3 acceptor
5 4 5 9 12 13 rings
6 15 17 18 19 20 21 rings
6 4 5 6 7 8 10 rings
6 6 7 11 15 16 17 rings

>  <PUBCHEM_HEAVY_ATOM_COUNT>  (1) 
22

>  <PUBCHEM_ATOM_DEF_STEREO_COUNT>  (1) 
0

>  <PUBCHEM_ATOM_UDEF_STEREO_COUNT>  (1) 
4

>  <PUBCHEM_BOND_DEF_STEREO_COUNT>  (1) 
0

>  <PUBCHEM_BOND_UDEF_STEREO_COUNT>  (1) 
0

>  <PUBCHEM_ISOTOPIC_ATOM_COUNT>  (1) 
0

>  <PUBCHEM_COMPONENT_COUNT>  (1) 
1

>  <PUBCHEM_CACTVS_TAUTO_COUNT>  (1) 
18

>  <PUBCHEM_CONFORMER_ID>  (1) 
0000570C00000002

>  <PUBCHEM_MMFF94_ENERGY>  (1) 
72.9216

>  <PUBCHEM_FEATURE_SELFOVERLAP>  (1) 
35.722

>  <PUBCHEM_SHAPE_FINGERPRINT>  (1) 
10366900 7 17313097566831973337
11796584 16 15482677845119202510
12011746 2 18113899360057252271
12236239 1 18059858367509328329
12403259 415 17967248710868336076
12403814 3 18261107478958691493
12553582 1 18411693266909394624
12596602 18 17703788154125836843
12670546 56 17917708023950479113
13140716 1 18266178512163632640
13224815 77 18408598171504625536
13288520 33 17846780693490043077
13583140 156 17748824107502817411
13760787 5 18410015454746069488
13862211 1 18408601436212734802
14294032 229 17130717064140587401
14386348 63 17385728001890392833
15196674 1 18411417357825223041
15375462 189 18413389830188187024
15536298 74 18271240612395786264
15537594 2 18409731742529474886
15788980 27 18333448733489301744
15848702 151 18059862718770284614
15961568 22 15358270406311940092
16945 1 18411129255851332753
17349148 13 18060698390092817591
1813 80 18339092505527102060
18186145 218 18408880759125765930
19489759 90 15719390620529880065
200 152 18412820270264194593
20612939 158 18335424607957006804
20645477 70 18335414651900976646
21033648 29 17895180121624518053
21267235 1 18412552010981137314
21641784 216 17677349207857945940
23402539 116 17704070668347658017
23557571 272 14692569936002629587
23559900 14 17917142918651378040
2871803 45 18260264131949312608
34797466 226 16128100074091256424
474 4 18191303982241758936
5104073 3 18342174530992955498
542803 24 17418376895733436362
602551 16 15769484426126027436
6034566 193 17248940174146360124
7495541 125 16153715353348757684
9981440 41 17118588711207571488

>  <PUBCHEM_SHAPE_MULTIPOLES>  (1) 
435.14
11.12
1.74
1.26
5.09
0.36
-0.11
-2.22
-0.9
0.95
-0.14
-1.35
0
-0.42

>  <PUBCHEM_SHAPE_SELFOVERLAP>  (1) 
950.197

>  <PUBCHEM_SHAPE_VOLUME>  (1) 
235.7

>  <PUBCHEM_COORDINATE_TYPE>  (1) 
2
5
10

$$$$
