22290
     RDKit          3D

 11 11  0  0  0  0  0  0  0  0999 V2000
    1.7046   -2.2335    0.0024 Cl  0  0  0  0  0  0  0  0  0  0  0  0
   -3.3395    1.4342   -0.0007 Cl  0  0  0  0  0  0  0  0  0  0  0  0
    2.3442    1.0956    1.1187 O   0  0  0  0  0  0  0  0  0  0  0  0
    2.3615    1.1438   -1.1740 N   0  0  0  0  0  0  0  0  0  0  0  0
    0.4635    0.1953    0.0235 C   0  0  0  0  0  0  0  0  0  0  0  0
    0.3269   -1.1926    0.0017 C   0  0  0  0  0  0  0  0  0  0  0  0
   -0.6703    1.0079    0.0230 C   0  0  0  0  0  0  0  0  0  0  0  0
   -1.9408    0.4324    0.0005 C   0  0  0  0  0  0  0  0  0  0  0  0
   -0.9435   -1.7681   -0.0210 C   0  0  0  0  0  0  0  0  0  0  0  0
   -2.0773   -0.9555   -0.0215 C   0  0  0  0  0  0  0  0  0  0  0  0
    1.7706    0.8406    0.0474 C   0  0  0  0  0  0  0  0  0  0  0  0
  1  6  1  0
  2  8  1  0
  3 11  2  0
  4 11  1  0
  5  6  2  0
  5  7  1  0
  5 11  1  0
  6  9  1  0
  7  8  2  0
  8 10  1  0
  9 10  2  0
M  END
>  <PUBCHEM_COMPOUND_CID>  (1) 
22290

>  <PUBCHEM_CONFORMER_RMSD>  (1) 
0.4

>  <PUBCHEM_CONFORMER_DIVERSEORDER>  (1) 
2
3
1
4

>  <PUBCHEM_MMFF94_PARTIAL_CHARGES>  (1) 
16
1 -0.18
10 -0.15
11 0.54
12 0.15
13 0.15
14 0.15
15 0.37
16 0.37
2 -0.18
3 -0.57
4 -0.8
5 0.09
6 0.18
7 -0.15
8 0.18
9 -0.15

>  <PUBCHEM_EFFECTIVE_ROTOR_COUNT>  (1) 
1

>  <PUBCHEM_PHARMACOPHORE_FEATURES>  (1) 
3
1 3 acceptor
1 4 donor
6 5 6 7 8 9 10 rings

>  <PUBCHEM_HEAVY_ATOM_COUNT>  (1) 
11

>  <PUBCHEM_ATOM_DEF_STEREO_COUNT>  (1) 
0

>  <PUBCHEM_ATOM_UDEF_STEREO_COUNT>  (1) 
0

>  <PUBCHEM_BOND_DEF_STEREO_COUNT>  (1) 
0

>  <PUBCHEM_BOND_UDEF_STEREO_COUNT>  (1) 
0

>  <PUBCHEM_ISOTOPIC_ATOM_COUNT>  (1) 
0

>  <PUBCHEM_COMPONENT_COUNT>  (1) 
1

>  <PUBCHEM_CACTVS_TAUTO_COUNT>  (1) 
2

>  <PUBCHEM_CONFORMER_ID>  (1) 
0000571200000002

>  <PUBCHEM_MMFF94_ENERGY>  (1) 
30.6176

>  <PUBCHEM_FEATURE_SELFOVERLAP>  (1) 
15.223

>  <PUBCHEM_SHAPE_FINGERPRINT>  (1) 
12423570 1 8324616526348167024
12932764 1 18060423546877849655
13380535 21 18337968830413136323
13380535 76 18410283714382639043
14897335 6 18340757179058394421
16945 1 18194682789958016163
193761 8 18410855456134427011
20511035 2 18412261696961829095
21040471 1 18410855490224607377
21501502 16 18410855443333719847
23211744 41 17557978721842668136
2334 1 18410575093696397999
23552423 10 18334296456901874871
23559900 14 18201167620283511476
241688 4 16827846483509185275
2748010 2 18410016511698323599
3071541 158 17902514787535974975
5084963 1 18408042909489838314
7364860 26 18200590285461157586

>  <PUBCHEM_SHAPE_MULTIPOLES>  (1) 
219.26
4.03
2.17
0.79
2
0.81
-0.02
-1.54
-0.03
-0.82
-0.03
-0.38
-0.24
-0.03

>  <PUBCHEM_SHAPE_SELFOVERLAP>  (1) 
442.402

>  <PUBCHEM_SHAPE_VOLUME>  (1) 
130.2

>  <PUBCHEM_COORDINATE_TYPE>  (1) 
2
5
10

$$$$
