22308
     RDKit          3D

 26 27  0  0  1  0  0  0  0  0999 V2000
    1.2281    0.4888    1.7585 O   0  0  0  0  0  0  0  0  0  0  0  0
    0.7436   -0.0912    3.9414 O   0  0  0  0  0  0  0  0  0  0  0  0
   -3.5614   -1.9079   -0.3010 N   0  0  0  0  0  0  0  0  0  0  0  0
   -0.0353   -0.1023   -0.3199 C   0  0  0  0  0  0  0  0  0  0  0  0
   -1.2718   -1.0140   -0.7189 C   0  0  0  0  0  0  0  0  0  0  0  0
    0.2658   -0.4246    1.2191 C   0  0  0  0  0  0  0  0  0  0  0  0
   -2.5653   -0.9259    0.1326 C   0  0  0  0  0  0  0  0  0  0  0  0
   -0.4932    1.3788   -0.5059 C   0  0  0  0  0  0  0  0  0  0  0  0
    1.2653   -0.4298   -1.1144 C   0  0  0  0  0  0  0  0  0  0  0  0
    0.7223   -1.8662    1.5379 C   0  0  0  0  0  0  0  0  0  0  0  0
   -3.1854    0.4698    0.0144 C   0  0  0  0  0  0  0  0  0  0  0  0
   -0.7811    1.7925   -1.7704 C   0  0  0  0  0  0  0  0  0  0  0  0
    2.3842    0.2874   -0.8145 C   0  0  0  0  0  0  0  0  0  0  0  0
   -0.5739    2.1555    0.6092 C   0  0  0  0  0  0  0  0  0  0  0  0
    1.1980   -1.4120   -2.0563 C   0  0  0  0  0  0  0  0  0  0  0  0
    2.0031   -2.2373    0.7958 C   0  0  0  0  0  0  0  0  0  0  0  0
   -4.7547   -1.8275    0.5395 C   0  0  0  0  0  0  0  0  0  0  0  0
   -2.9975   -3.2560   -0.2630 C   0  0  0  0  0  0  0  0  0  0  0  0
   -1.1904    3.1155   -1.9367 C   0  0  0  0  0  0  0  0  0  0  0  0
    3.5481   -0.0055   -1.5252 C   0  0  0  0  0  0  0  0  0  0  0  0
   -0.9833    3.4786    0.4429 C   0  0  0  0  0  0  0  0  0  0  0  0
    2.3620   -1.7050   -2.7670 C   0  0  0  0  0  0  0  0  0  0  0  0
    1.5072    0.3293    3.0829 C   0  0  0  0  0  0  0  0  0  0  0  0
   -1.2915    3.9586   -0.8302 C   0  0  0  0  0  0  0  0  0  0  0  0
    3.5370   -1.0017   -2.5013 C   0  0  0  0  0  0  0  0  0  0  0  0
    2.9200    0.7519    3.3506 C   0  0  0  0  0  0  0  0  0  0  0  0
  1  6  1  0
  1 23  1  0
  2 23  2  0
  3  7  1  0
  3 17  1  0
  3 18  1  0
  4  5  1  0
  4  6  1  0
  4  8  1  0
  4  9  1  0
  5  7  1  0
  6 10  1  0
  7 11  1  0
  8 12  2  0
  8 14  1  0
  9 13  2  0
  9 15  1  0
 10 16  1  0
 12 19  1  0
 13 20  1  0
 14 21  2  0
 15 22  2  0
 19 24  2  0
 20 25  2  0
 21 24  1  0
 22 25  1  0
 23 26  1  0
M  END
>  <PUBCHEM_COMPOUND_CID>  (1) 
22308

>  <PUBCHEM_CONFORMER_RMSD>  (1) 
1

>  <PUBCHEM_CONFORMER_DIVERSEORDER>  (1) 
1
4
2
5
6
3

>  <PUBCHEM_MMFF94_PARTIAL_CHARGES>  (1) 
32
1 -0.43
12 -0.15
13 -0.15
14 -0.15
15 -0.15
17 0.27
18 0.27
19 -0.15
2 -0.57
20 -0.15
21 -0.15
22 -0.15
23 0.66
24 -0.15
25 -0.15
26 0.06
3 -0.81
36 0.15
37 0.15
38 0.15
39 0.15
4 0.29
49 0.15
50 0.15
51 0.15
52 0.15
53 0.15
54 0.15
6 0.28
7 0.27
8 -0.14
9 -0.14

>  <PUBCHEM_EFFECTIVE_ROTOR_COUNT>  (1) 
9

>  <PUBCHEM_PHARMACOPHORE_FEATURES>  (1) 
5
1 16 hydrophobe
1 2 acceptor
1 3 cation
6 8 12 14 19 21 24 rings
6 9 13 15 20 22 25 rings

>  <PUBCHEM_HEAVY_ATOM_COUNT>  (1) 
26

>  <PUBCHEM_ATOM_DEF_STEREO_COUNT>  (1) 
2

>  <PUBCHEM_ATOM_UDEF_STEREO_COUNT>  (1) 
0

>  <PUBCHEM_BOND_DEF_STEREO_COUNT>  (1) 
0

>  <PUBCHEM_BOND_UDEF_STEREO_COUNT>  (1) 
0

>  <PUBCHEM_ISOTOPIC_ATOM_COUNT>  (1) 
0

>  <PUBCHEM_COMPONENT_COUNT>  (1) 
1

>  <PUBCHEM_CACTVS_TAUTO_COUNT>  (1) 
1

>  <PUBCHEM_CONFORMER_ID>  (1) 
0000572400000001

>  <PUBCHEM_MMFF94_ENERGY>  (1) 
130.8637

>  <PUBCHEM_FEATURE_SELFOVERLAP>  (1) 
25.371

>  <PUBCHEM_SHAPE_FINGERPRINT>  (1) 
11421498 54 17531543022369098739
11578080 2 18060422386973455808
12082328 90 15837655088880387540
12553582 1 18261387910337976943
12788726 201 18189637010860154334
13009979 54 17169246205290345955
13681431 1 17977975662341309021
14817 1 11937932672451151517
14863182 85 16982078806480078711
15664445 248 18335707203577264493
16945 1 17115520541005079612
17980427 23 17622696015335653843
19765921 60 16733276715188459431
20600515 1 18121200233192983283
21330990 113 17487894729881246160
21452121 99 17978785714558525925
21756936 100 16449594924679150286
229495 10 17418379082035742916
23352939 185 17843433844942018340
23419403 2 17632573825318939064
23559900 14 17987246715029482839
25222932 49 15737108529079960323
266924 78 15286210449920600663
298252 57 17323828576653837076
3493558 16 17845397550781118648
394222 165 16226051097657860400
484985 159 16765397641940792758
497634 4 17199149610868735612
68419 9 17678171594651205804
70251023 43 18192742031771184686
7364860 26 17910127037817320845
81228 2 18045535008117677956

>  <PUBCHEM_SHAPE_MULTIPOLES>  (1) 
518.35
5.42
3.85
3.39
2.19
2.63
-3.11
-3.91
1.52
3.88
1.15
-4.12
0.09
1.19

>  <PUBCHEM_SHAPE_SELFOVERLAP>  (1) 
1088.167

>  <PUBCHEM_SHAPE_VOLUME>  (1) 
291.3

>  <PUBCHEM_COORDINATE_TYPE>  (1) 
2
5
10

$$$$
