22306
     RDKit          3D

 19 19  0  0  0  0  0  0  0  0999 V2000
   -0.1374   -0.5346    0.4387 O   0  0  0  0  0  0  0  0  0  0  0  0
   -0.4231    1.7430    0.2642 O   0  0  0  0  0  0  0  0  0  0  0  0
    3.3762   -0.1794   -0.6612 N   0  0  0  0  0  0  0  0  0  0  0  0
   -6.3614   -0.5915   -0.3047 N   0  0  0  0  0  0  0  0  0  0  0  0
    3.9862   -1.2258    0.1582 C   0  0  0  0  0  0  0  0  0  0  0  0
    3.6619    1.1408   -0.1004 C   0  0  0  0  0  0  0  0  0  0  0  0
    1.9326   -0.3885   -0.7661 C   0  0  0  0  0  0  0  0  0  0  0  0
    3.7381   -2.5970   -0.4639 C   0  0  0  0  0  0  0  0  0  0  0  0
    3.4216   -1.1560    1.5736 C   0  0  0  0  0  0  0  0  0  0  0  0
    3.0764    2.2323   -0.9919 C   0  0  0  0  0  0  0  0  0  0  0  0
    5.1697    1.3108    0.0555 C   0  0  0  0  0  0  0  0  0  0  0  0
    1.2649   -0.3623    0.5966 C   0  0  0  0  0  0  0  0  0  0  0  0
   -0.8660    0.6050    0.2811 C   0  0  0  0  0  0  0  0  0  0  0  0
   -2.3089    0.2904    0.1285 C   0  0  0  0  0  0  0  0  0  0  0  0
   -3.2417    1.2059    0.5709 C   0  0  0  0  0  0  0  0  0  0  0  0
   -2.6727   -0.9076   -0.4521 C   0  0  0  0  0  0  0  0  0  0  0  0
   -4.5973    0.9108    0.4265 C   0  0  0  0  0  0  0  0  0  0  0  0
   -4.0283   -1.2026   -0.5964 C   0  0  0  0  0  0  0  0  0  0  0  0
   -4.9907   -0.2935   -0.1571 C   0  0  0  0  0  0  0  0  0  0  0  0
  1 12  1  0
  1 13  1  0
  2 13  2  0
  3  5  1  0
  3  6  1  0
  3  7  1  0
  4 19  1  0
  5  8  1  0
  5  9  1  0
  6 10  1  0
  6 11  1  0
  7 12  1  0
 13 14  1  0
 14 15  2  0
 14 16  1  0
 15 17  1  0
 16 18  2  0
 17 19  2  0
 18 19  1  0
M  END
>  <PUBCHEM_COMPOUND_CID>  (1) 
22306

>  <PUBCHEM_CONFORMER_RMSD>  (1) 
0.8

>  <PUBCHEM_CONFORMER_DIVERSEORDER>  (1) 
3
8
15
10
6
11
19
9
17
21
18
20
16
14
1
12
7
4
13
2
5

>  <PUBCHEM_MMFF94_PARTIAL_CHARGES>  (1) 
21
1 -0.43
12 0.28
13 0.63
14 0.09
15 -0.15
16 -0.15
17 -0.15
18 -0.15
19 0.1
2 -0.57
3 -0.81
38 0.15
39 0.15
4 -0.9
40 0.15
41 0.15
42 0.4
43 0.4
5 0.27
6 0.27
7 0.27

>  <PUBCHEM_EFFECTIVE_ROTOR_COUNT>  (1) 
7

>  <PUBCHEM_PHARMACOPHORE_FEATURES>  (1) 
7
1 2 acceptor
1 3 cation
1 4 cation
1 4 donor
3 5 8 9 hydrophobe
3 6 10 11 hydrophobe
6 14 15 16 17 18 19 rings

>  <PUBCHEM_HEAVY_ATOM_COUNT>  (1) 
19

>  <PUBCHEM_ATOM_DEF_STEREO_COUNT>  (1) 
0

>  <PUBCHEM_ATOM_UDEF_STEREO_COUNT>  (1) 
0

>  <PUBCHEM_BOND_DEF_STEREO_COUNT>  (1) 
0

>  <PUBCHEM_BOND_UDEF_STEREO_COUNT>  (1) 
0

>  <PUBCHEM_ISOTOPIC_ATOM_COUNT>  (1) 
0

>  <PUBCHEM_COMPONENT_COUNT>  (1) 
1

>  <PUBCHEM_CACTVS_TAUTO_COUNT>  (1) 
2

>  <PUBCHEM_CONFORMER_ID>  (1) 
0000572200000003

>  <PUBCHEM_MMFF94_ENERGY>  (1) 
89.9874

>  <PUBCHEM_FEATURE_SELFOVERLAP>  (1) 
35.52

>  <PUBCHEM_SHAPE_FINGERPRINT>  (1) 
10595046 47 18342176695503335125
10912923 1 18272092677824629841
11287383 113 17894915178393121841
12107183 9 17765723416369063281
12236239 1 18410292506486421697
12616999 72 17203619181169473820
12916754 54 18340489945845103704
13073987 5 18341898476518088441
13167823 11 18411418384528427451
13533116 47 18342174449251581915
14251764 18 18131636699750009267
14528608 73 18340771536991919668
15196674 1 18341333314482358085
15242433 33 18341895207863366183
15788980 27 18261112941798350201
15848702 151 18333169457710017789
17492 89 18340206263445620206
17834072 33 18341893021872575597
17844677 252 18337397041353774729
18186145 218 17531249443631397802
18681886 176 18202282541852739108
20281475 54 18201438043243427587
20645477 70 18335702719758059646
21267235 1 18340776961282484719
22646028 1 18413106139182275171
23402539 116 18410852118664711150
23557571 272 17560810891818168880
23559900 14 18129665188595069982
239999 70 18334860511237008202
29717793 49 18340764854249413687
300161 21 18410849979802711117
3004659 81 18410857629345369054
312423 11 18337687325065829520
314194 84 18272088335908456051
34797466 226 16773522173665418665
3545911 37 18409732880695334164
4214541 1 18341614763742161929
42630746 31 18187080672337828760
4325135 7 18412825810803726565
474 4 17968663847047937012
5104073 3 18341335517789934913
5281201 14 18041278781484690572
5374978 207 18342452638688671856
542803 24 18410856555692969003
573450 72 18343299228519645841
59755656 215 18410582782236172662
633830 44 18114184107598628131
67856867 119 18411132576283123640
7164475 11 18268995293492883592
7495541 125 17846492655798068834
77779 3 18413390917004615147
90127 26 18113908113148010153
9709674 26 18409175393740366514
9971528 1 18040438776455590868
9981440 41 17255683517603692377

>  <PUBCHEM_SHAPE_MULTIPOLES>  (1) 
369.31
12.96
2.03
0.96
9.44
0.08
0.13
0.97
-0.72
-2.47
-0.3
-0.57
0.1
-1

>  <PUBCHEM_SHAPE_SELFOVERLAP>  (1) 
752.516

>  <PUBCHEM_SHAPE_VOLUME>  (1) 
216.5

>  <PUBCHEM_COORDINATE_TYPE>  (1) 
2
5
10

$$$$
