22301
     RDKit          3D

 14 16  0  0  1  0  0  0  0  0999 V2000
    3.2029    1.0316   -0.0629 O   0  0  0  0  0  0  0  0  0  0  0  0
    2.9901   -1.3663    0.0370 O   0  0  0  0  0  0  0  0  0  0  0  0
   -3.0537   -0.3047   -0.3284 N   0  0  0  0  0  0  0  0  0  0  0  0
   -1.7031    1.7272   -0.0550 C   0  0  0  0  0  0  0  0  0  0  0  0
   -0.4704    0.8610   -0.0014 C   0  0  0  0  0  0  0  0  0  0  0  0
   -0.5970   -0.5502    0.0353 C   0  0  0  0  0  0  0  0  0  0  0  0
   -2.9739    0.9846    0.3686 C   0  0  0  0  0  0  0  0  0  0  0  0
   -1.9645   -1.1917    0.1162 C   0  0  0  0  0  0  0  0  0  0  0  0
    0.7997    1.4555   -0.0477 C   0  0  0  0  0  0  0  0  0  0  0  0
    0.5499   -1.3591    0.0619 C   0  0  0  0  0  0  0  0  0  0  0  0
    1.9034    0.6283   -0.0304 C   0  0  0  0  0  0  0  0  0  0  0  0
    1.7820   -0.7397    0.0245 C   0  0  0  0  0  0  0  0  0  0  0  0
   -4.3516   -0.9388   -0.0989 C   0  0  0  0  0  0  0  0  0  0  0  0
    3.8861   -0.2377   -0.0187 C   0  0  0  0  0  0  0  0  0  0  0  0
  1 11  1  0
  1 14  1  0
  2 12  1  0
  2 14  1  0
  3  7  1  0
  3  8  1  0
  3 13  1  0
  4  5  1  0
  4  7  1  0
  5  6  2  0
  5  9  1  0
  6  8  1  0
  6 10  1  0
  9 11  2  0
 10 12  2  0
 11 12  1  0
M  END
>  <PUBCHEM_COMPOUND_CID>  (1) 
22301

>  <PUBCHEM_CONFORMER_RMSD>  (1) 
0.6

>  <PUBCHEM_CONFORMER_DIVERSEORDER>  (1) 
1

>  <PUBCHEM_MMFF94_PARTIAL_CHARGES>  (1) 
16
1 -0.36
10 -0.15
11 0.08
12 0.08
13 0.27
14 0.56
2 -0.36
21 0.15
22 0.15
3 -0.81
4 0.14
5 -0.14
6 -0.14
7 0.27
8 0.41
9 -0.15

>  <PUBCHEM_EFFECTIVE_ROTOR_COUNT>  (1) 
1.4

>  <PUBCHEM_PHARMACOPHORE_FEATURES>  (1) 
6
1 1 acceptor
1 2 acceptor
1 3 cation
5 1 2 11 12 14 rings
6 3 4 5 6 7 8 rings
6 5 6 9 10 11 12 rings

>  <PUBCHEM_HEAVY_ATOM_COUNT>  (1) 
14

>  <PUBCHEM_ATOM_DEF_STEREO_COUNT>  (1) 
0

>  <PUBCHEM_ATOM_UDEF_STEREO_COUNT>  (1) 
0

>  <PUBCHEM_BOND_DEF_STEREO_COUNT>  (1) 
0

>  <PUBCHEM_BOND_UDEF_STEREO_COUNT>  (1) 
0

>  <PUBCHEM_ISOTOPIC_ATOM_COUNT>  (1) 
0

>  <PUBCHEM_COMPONENT_COUNT>  (1) 
1

>  <PUBCHEM_CACTVS_TAUTO_COUNT>  (1) 
1

>  <PUBCHEM_CONFORMER_ID>  (1) 
0000571D00000001

>  <PUBCHEM_MMFF94_ENERGY>  (1) 
33.82

>  <PUBCHEM_FEATURE_SELFOVERLAP>  (1) 
30.623

>  <PUBCHEM_SHAPE_FINGERPRINT>  (1) 
10608611 8 18411133619543568472
10967382 1 18338516446963941802
11132069 177 18411976927660553040
11471102 20 18409443713252802935
11543360 7 15647064805837337195
11769659 78 18410288082089903571
11806522 49 18338514248315330159
12032990 46 18411423890507514006
13221675 6 18411136943816321247
13380535 76 18409449193420498210
13690532 89 18408039615197285211
14115302 16 17822300131738735743
14144814 61 18410293596822598019
14325111 11 18411138013226313144
14576447 43 18056183907541000575
15196674 1 18410856542470502369
15442244 35 18194402182575268466
15536298 74 18343021095032843920
15775835 57 18411424977171202177
16945 1 18336554901045421000
17802600 8 18411412921118835537
17844478 74 18040723554167297069
18186145 218 18114180796115552310
18522853 276 18413387644239607217
193761 8 17545602713191128515
19422 9 18413112736051555689
200 152 18202273715626237909
20201158 50 18408886243503779267
20510252 161 18273215270390701593
20645477 70 18410569557388907023
21267235 1 18410865360054568598
21501502 16 18338518534318093208
21501925 9 18409439280909883026
221490 88 17903357353431660851
23402539 116 18271517667877542807
23402655 69 18412256221400500021
23463225 33 18336547131718555902
23559900 14 18270113501577132954
2748010 2 18338797801776559380
2871803 45 18334570240035068735
5104073 3 18411418388622623849
528886 8 18410569612906496458
53812653 166 18271801371794664976
57096353 35 18410013277170991404
69090 78 18272365395199805207
7364860 26 18269273641670229128
8809292 202 18187651357301049267
9709674 26 18411706469317602830

>  <PUBCHEM_SHAPE_MULTIPOLES>  (1) 
271.39
6.56
1.69
0.62
0.85
0.23
-0.01
-1.22
0.13
0.26
-0.01
0.08
0.01
-0.13

>  <PUBCHEM_SHAPE_SELFOVERLAP>  (1) 
593.614

>  <PUBCHEM_SHAPE_VOLUME>  (1) 
147.8

>  <PUBCHEM_COORDINATE_TYPE>  (1) 
2
5
10

$$$$
