2232
     RDKit          3D

 35 37  0  0  1  0  0  0  0  0999 V2000
    0.5464   -3.0945   -0.2310 S   0  0  0  0  0  0  0  0  0  0  0  0
    0.1242    0.2079    1.9684 O   0  0  0  0  0  0  0  0  0  0  0  0
    0.3842    4.4202    1.9899 O   0  0  0  0  0  0  0  0  0  0  0  0
   -1.4971    3.1798    1.6462 O   0  0  0  0  0  0  0  0  0  0  0  0
   -0.3182   -3.5662   -1.2958 O   0  0  0  0  0  0  0  0  0  0  0  0
    1.2743   -4.0416    0.5915 O   0  0  0  0  0  0  0  0  0  0  0  0
   -0.2129    1.4498    0.0296 N   0  0  0  0  0  0  0  0  0  0  0  0
   -0.3283   -2.0407    0.7792 N   0  0  0  0  0  0  0  0  0  0  0  0
    2.9170   -1.7928    1.1591 N   0  0  0  0  0  0  0  0  0  0  0  0
   -5.3750   -0.8953   -0.1305 N   0  0  0  0  0  0  0  0  0  0  0  0
   -7.3292    0.3416   -0.2827 N   0  0  0  0  0  0  0  0  0  0  0  0
   -7.4585   -1.6713    0.7786 N   0  0  0  0  0  0  0  0  0  0  0  0
    0.1921    3.8748   -1.6723 C   0  0  0  0  0  0  0  0  0  0  0  0
    1.1798    3.4400   -0.5736 C   0  0  0  0  0  0  0  0  0  0  0  0
    0.5668    2.5835    0.5341 C   0  0  0  0  0  0  0  0  0  0  0  0
   -1.0528    2.9816   -1.7403 C   0  0  0  0  0  0  0  0  0  0  0  0
   -0.7451    1.5463   -1.3369 C   0  0  0  0  0  0  0  0  0  0  0  0
   -1.0308   -0.8781    0.2027 C   0  0  0  0  0  0  0  0  0  0  0  0
   -0.3186    0.2998    0.8207 C   0  0  0  0  0  0  0  0  0  0  0  0
   -0.2084    5.3439   -1.5290 C   0  0  0  0  0  0  0  0  0  0  0  0
   -0.3132    3.3984    1.4360 C   0  0  0  0  0  0  0  0  0  0  0  0
   -2.5005   -0.9081    0.5915 C   0  0  0  0  0  0  0  0  0  0  0  0
    5.1836   -0.8622    1.2094 C   0  0  0  0  0  0  0  0  0  0  0  0
    4.8808   -0.0479   -0.0584 C   0  0  0  0  0  0  0  0  0  0  0  0
    2.7896   -1.4693   -0.1862 C   0  0  0  0  0  0  0  0  0  0  0  0
    3.7287   -0.6416   -0.8332 C   0  0  0  0  0  0  0  0  0  0  0  0
    3.8856   -1.1005    1.9879 C   0  0  0  0  0  0  0  0  0  0  0  0
    1.7368   -2.0092   -0.9392 C   0  0  0  0  0  0  0  0  0  0  0  0
   -3.2431   -2.0918   -0.0412 C   0  0  0  0  0  0  0  0  0  0  0  0
    6.2201   -0.1527    2.0764 C   0  0  0  0  0  0  0  0  0  0  0  0
    3.5746   -0.3326   -2.1922 C   0  0  0  0  0  0  0  0  0  0  0  0
    1.5971   -1.7076   -2.2949 C   0  0  0  0  0  0  0  0  0  0  0  0
   -4.7208   -2.1193    0.3346 C   0  0  0  0  0  0  0  0  0  0  0  0
    2.5127   -0.8662   -2.9197 C   0  0  0  0  0  0  0  0  0  0  0  0
   -6.6416   -0.7786    0.1212 C   0  0  0  0  0  0  0  0  0  0  0  0
  1  5  2  0
  1  6  2  0
  1  8  1  0
  1 28  1  0
  2 19  2  0
  3 21  1  0
  4 21  2  0
  7 15  1  0
  7 17  1  0
  7 19  1  0
  8 18  1  0
  9 25  1  0
  9 27  1  0
 10 33  1  0
 10 35  2  3
 11 35  1  0
 12 35  1  0
 13 14  1  0
 13 16  1  0
 13 20  1  0
 14 15  1  0
 15 21  1  0
 16 17  1  0
 18 19  1  0
 18 22  1  0
 22 29  1  0
 23 24  1  0
 23 27  1  0
 23 30  1  0
 24 26  1  0
 25 26  2  0
 25 28  1  0
 26 31  1  0
 28 32  2  0
 29 33  1  0
 31 34  2  0
 32 34  1  0
M  END
>  <PUBCHEM_COMPOUND_CID>  (1) 
2232

>  <PUBCHEM_CONFORMER_RMSD>  (1) 
1.4

>  <PUBCHEM_CONFORMER_DIVERSEORDER>  (1) 
1
352
140
127
568
121
202
281
158
219
274
81
286
170
192
244
11
216
399
106
489
531
217
351
362
308
36
317
330
570
283
55
346
540
365
556
63
146
471
149
132
443
364
415
34
83
482
263
547
576
404
524
395
95
235
470
107
122
71
171
278
458
347
134
207
449
571
269
400
49
229
422
47
389
113
96
252
501
559
557
250
133
513
5
575
466
160
151
511
326
119
79
213
412
468
452
469
345
550
118
544
519
480
168
25
66
338
32
211
295
560
555
270
387
298
481
371
100
528
522
510
124
45
200
334
51
321
398
145
227
512
104
260
428
78
128
285
529
417
183
44
59
72
60
53
181
73
56
333
197
117
33
379
131
19
376
520
74
257
135
139
291
447
490
381
247
87
27
28
14
116
84
35
4
42
67
418
48
497
388
450
551
191
359
532
141
167
9
221
499
553
401
8
249
496
65
241
293
153
514
255
26
209
538
231
186
125
108
172
37
7
109
161
50
103
509
18
427
561
210
10
311
215
88
223
57
369
138
184
38
12
360
64
324
212
16
82
93
68
408
41
15
86
402
488
102
61
20
13
195
22
238
515
527
385
246
525
23
268
120
150
30
2
58
43
105
17
521

>  <PUBCHEM_MMFF94_PARTIAL_CHARGES>  (1) 
37
1 1.45
10 -0.7
11 -0.85
12 -0.85
15 0.36
17 0.3
18 0.42
19 0.57
2 -0.57
21 0.66
24 0.14
25 0.1
26 -0.14
27 0.37
28 -0.01
3 -0.65
31 -0.15
32 -0.15
33 0.25
34 -0.15
35 0.55
4 -0.57
5 -0.65
51 0.42
58 0.4
6 -0.65
62 0.15
63 0.15
66 0.15
67 0.5
68 0.4
69 0.4
7 -0.66
70 0.4
71 0.4
8 -0.91
9 -0.87

>  <PUBCHEM_EFFECTIVE_ROTOR_COUNT>  (1) 
12

>  <PUBCHEM_PHARMACOPHORE_FEATURES>  (1) 
15
1 11 donor
1 12 donor
1 2 acceptor
1 3 acceptor
1 4 acceptor
1 5 acceptor
1 6 acceptor
1 8 donor
1 9 cation
1 9 donor
3 3 4 21 anion
4 10 11 12 35 cation
6 25 26 28 31 32 34 rings
6 7 13 14 15 16 17 rings
6 9 23 24 25 26 27 rings

>  <PUBCHEM_HEAVY_ATOM_COUNT>  (1) 
35

>  <PUBCHEM_ATOM_DEF_STEREO_COUNT>  (1) 
0

>  <PUBCHEM_ATOM_UDEF_STEREO_COUNT>  (1) 
4

>  <PUBCHEM_BOND_DEF_STEREO_COUNT>  (1) 
0

>  <PUBCHEM_BOND_UDEF_STEREO_COUNT>  (1) 
0

>  <PUBCHEM_ISOTOPIC_ATOM_COUNT>  (1) 
0

>  <PUBCHEM_COMPONENT_COUNT>  (1) 
1

>  <PUBCHEM_CACTVS_TAUTO_COUNT>  (1) 
2

>  <PUBCHEM_CONFORMER_ID>  (1) 
000008B800000001

>  <PUBCHEM_MMFF94_ENERGY>  (1) 
77.9625

>  <PUBCHEM_FEATURE_SELFOVERLAP>  (1) 
76.277

>  <PUBCHEM_SHAPE_FINGERPRINT>  (1) 
10165383 225 16774078514523748338
10930396 42 18195500771465305416
12160290 23 17903381228468823673
12788726 201 18339659892144647368
133893 2 17690830585770986974
15210252 30 18337405906081930047
15439362 3 18047758392707749061
17492 54 18119557528582485062
17980427 23 17700964694323731630
18365409 1 16772659096320328791
20600515 1 18339364179483537918
20642791 239 17826543202950023916
22121540 332 17559662946223725097
23559900 14 18271806865669967683
24771293 8 18201147875121184019
24771750 20 17975992161087852837
3380486 77 18114757004902151986
469060 322 18263372403538805936
57527306 92 18269566082109377684
6004065 56 18200589315210167739
6443956 14 18271252719702845733

>  <PUBCHEM_SHAPE_MULTIPOLES>  (1) 
664.9
11.51
5.91
2.28
18.51
7.76
0.55
-8.86
-4
1.22
0.84
-2.67
0.78
0.31

>  <PUBCHEM_SHAPE_SELFOVERLAP>  (1) 
1369.255

>  <PUBCHEM_SHAPE_VOLUME>  (1) 
380.7

>  <PUBCHEM_COORDINATE_TYPE>  (1) 
2
5
10

$$$$
