22321
     RDKit          3D

  7  6  0  0  0  0  0  0  0  0999 V2000
    3.4403   -0.4042   -0.0189 Cl  0  0  0  0  0  0  0  0  0  0  0  0
   -1.6175   -0.7864    0.0048 O   0  0  0  0  0  0  0  0  0  0  0  0
   -0.8161    1.3766    0.0106 O   0  0  0  0  0  0  0  0  0  0  0  0
    0.7114   -0.5178    0.0430 C   0  0  0  0  0  0  0  0  0  0  0  0
    1.8800    0.4558   -0.0261 C   0  0  0  0  0  0  0  0  0  0  0  0
   -0.6386    0.1664    0.0259 C   0  0  0  0  0  0  0  0  0  0  0  0
   -2.9594   -0.2904   -0.0393 C   0  0  0  0  0  0  0  0  0  0  0  0
  1  5  1  0
  2  6  1  0
  2  7  1  0
  3  6  2  0
  4  5  1  0
  4  6  1  0
M  END
>  <PUBCHEM_COMPOUND_CID>  (1) 
22321

>  <PUBCHEM_CONFORMER_RMSD>  (1) 
0.4

>  <PUBCHEM_CONFORMER_DIVERSEORDER>  (1) 
1
12
9
8
11
13
3
6
2
5
10
4
7

>  <PUBCHEM_MMFF94_PARTIAL_CHARGES>  (1) 
7
1 -0.29
2 -0.43
3 -0.57
4 0.06
5 0.29
6 0.66
7 0.28

>  <PUBCHEM_EFFECTIVE_ROTOR_COUNT>  (1) 
3

>  <PUBCHEM_PHARMACOPHORE_FEATURES>  (1) 
1
1 3 acceptor

>  <PUBCHEM_HEAVY_ATOM_COUNT>  (1) 
7

>  <PUBCHEM_ATOM_DEF_STEREO_COUNT>  (1) 
0

>  <PUBCHEM_ATOM_UDEF_STEREO_COUNT>  (1) 
0

>  <PUBCHEM_BOND_DEF_STEREO_COUNT>  (1) 
0

>  <PUBCHEM_BOND_UDEF_STEREO_COUNT>  (1) 
0

>  <PUBCHEM_ISOTOPIC_ATOM_COUNT>  (1) 
0

>  <PUBCHEM_COMPONENT_COUNT>  (1) 
1

>  <PUBCHEM_CACTVS_TAUTO_COUNT>  (1) 
1

>  <PUBCHEM_CONFORMER_ID>  (1) 
0000573100000001

>  <PUBCHEM_MMFF94_ENERGY>  (1) 
5.7687

>  <PUBCHEM_FEATURE_SELFOVERLAP>  (1) 
5.074

>  <PUBCHEM_SHAPE_FINGERPRINT>  (1) 
11062470 55 15647051568721555902
14325111 11 18410856547171599586
16714656 1 18341894108072066039
23552423 10 18188495644881748754
29004967 10 18336551611358967771
5460574 1 9223232944702937194

>  <PUBCHEM_SHAPE_MULTIPOLES>  (1) 
134.19
4.94
0.99
0.6
1.52
0.21
0
-0.96
-0.09
-0.15
0
0.06
-0.01
-0.01

>  <PUBCHEM_SHAPE_SELFOVERLAP>  (1) 
233.069

>  <PUBCHEM_SHAPE_VOLUME>  (1) 
90

>  <PUBCHEM_COORDINATE_TYPE>  (1) 
2
5
10

$$$$
