22328
     RDKit          3D

 21 21  0  0  0  0  0  0  0  0999 V2000
   -6.8894    0.1815    0.1737 C   0  0  0  0  0  0  0  0  0  0  0  0
   -8.0551    1.1658    0.0078 C   0  0  0  0  0  0  0  0  0  0  0  0
   -7.1910   -1.1467   -0.5333 C   0  0  0  0  0  0  0  0  0  0  0  0
   -5.5907    0.7898   -0.3522 C   0  0  0  0  0  0  0  0  0  0  0  0
   -9.3756    0.5601    0.4780 C   0  0  0  0  0  0  0  0  0  0  0  0
   -8.5130   -1.7486   -0.0624 C   0  0  0  0  0  0  0  0  0  0  0  0
   -9.6677   -0.7642   -0.2207 C   0  0  0  0  0  0  0  0  0  0  0  0
   -4.3673    0.1016    0.2546 C   0  0  0  0  0  0  0  0  0  0  0  0
   -3.0368    0.6837   -0.2312 C   0  0  0  0  0  0  0  0  0  0  0  0
   -1.8122   -0.0527    0.3192 C   0  0  0  0  0  0  0  0  0  0  0  0
   -0.5138    0.5910   -0.1752 C   0  0  0  0  0  0  0  0  0  0  0  0
    0.7472   -0.0991    0.3553 C   0  0  0  0  0  0  0  0  0  0  0  0
    2.0442    0.5618   -0.1195 C   0  0  0  0  0  0  0  0  0  0  0  0
    3.3048   -0.1637    0.3627 C   0  0  0  0  0  0  0  0  0  0  0  0
    4.6007    0.4532   -0.1706 C   0  0  0  0  0  0  0  0  0  0  0  0
    5.8223   -0.3505    0.2818 C   0  0  0  0  0  0  0  0  0  0  0  0
    7.1526    0.2396   -0.1969 C   0  0  0  0  0  0  0  0  0  0  0  0
    8.4136   -0.5099    0.2470 C   0  0  0  0  0  0  0  0  0  0  0  0
    9.7050    0.0914   -0.3131 C   0  0  0  0  0  0  0  0  0  0  0  0
   10.9666   -0.6112    0.1951 C   0  0  0  0  0  0  0  0  0  0  0  0
   12.2555    0.0270   -0.3000 C   0  0  0  0  0  0  0  0  0  0  0  0
  1  2  1  0
  1  3  1  0
  1  4  1  0
  2  5  1  0
  3  6  1  0
  4  8  1  0
  5  7  1  0
  6  7  1  0
  8  9  1  0
  9 10  1  0
 10 11  1  0
 11 12  1  0
 12 13  1  0
 13 14  1  0
 14 15  1  0
 15 16  1  0
 16 17  1  0
 17 18  1  0
 18 19  1  0
 19 20  1  0
 20 21  1  0
M  END
>  <PUBCHEM_COMPOUND_CID>  (1) 
22328

>  <PUBCHEM_CONFORMER_RMSD>  (1) 
1.4

>  <PUBCHEM_CONFORMER_DIVERSEORDER>  (1) 
1
49
64
36
15
3
29
12
2
50
63
34
8
74
7
31
16
48
56
6
17
57
44
27
21
35
46
14
60
39
66
78
42
38
68
30
20
23
43
41
22
52
13
67
51
26
53
37
45
69
54
47
28
4
73
55
10
32
75
11
61
25
58
79
77
24
33
71
5
62
65
81
19
70
40
72
59
76
18
80
9

>  <PUBCHEM_MMFF94_PARTIAL_CHARGES>  (1) 
0

>  <PUBCHEM_EFFECTIVE_ROTOR_COUNT>  (1) 
15.2

>  <PUBCHEM_PHARMACOPHORE_FEATURES>  (1) 
2
1 21 hydrophobe
6 1 2 3 5 6 7 rings

>  <PUBCHEM_HEAVY_ATOM_COUNT>  (1) 
21

>  <PUBCHEM_ATOM_DEF_STEREO_COUNT>  (1) 
0

>  <PUBCHEM_ATOM_UDEF_STEREO_COUNT>  (1) 
0

>  <PUBCHEM_BOND_DEF_STEREO_COUNT>  (1) 
0

>  <PUBCHEM_BOND_UDEF_STEREO_COUNT>  (1) 
0

>  <PUBCHEM_ISOTOPIC_ATOM_COUNT>  (1) 
0

>  <PUBCHEM_COMPONENT_COUNT>  (1) 
1

>  <PUBCHEM_CACTVS_TAUTO_COUNT>  (1) 
1

>  <PUBCHEM_CONFORMER_ID>  (1) 
0000573800000001

>  <PUBCHEM_MMFF94_ENERGY>  (1) 
1.3222

>  <PUBCHEM_FEATURE_SELFOVERLAP>  (1) 
10.148

>  <PUBCHEM_SHAPE_FINGERPRINT>  (1) 
10299344 5 18334293172084973003
12498461 61 16988275478595785871
14251764 46 18186521003855518000
14251920 1 18410575080368118121
14251920 17 18410293649897807916
14344974 52 14851893586267754100
15061470 23 18410291398427693900
15510794 2 18272655636579436942
155225 1 8574715702115615302
21362267 20 18343299292550127727
21362267 313 18042398029178294720
21792934 111 12251908114691689030
232437 2 18409166606785365826
23521765 1 18342175561906321025
23528940 14 17561078169036662199
23581129 1 18409449184756242784
246663 6 17989208153029683393
335352 9 17603588539169921724
33684 2 18408604756137824496
57676310 188 18040148510051084771
59520647 208 10737581539353852727
59521270 166 17822005394725759647
59521660 218 15285904850255352323
67123 10 18410573989451699680
8209 1 18040716961381902736
9663363 56 16200432460410783833

>  <PUBCHEM_SHAPE_MULTIPOLES>  (1) 
432.17
50.06
1.07
0.7
72.23
0.22
0
8.45
2.06
-2.44
0.05
-0.09
0.01
-0.58

>  <PUBCHEM_SHAPE_SELFOVERLAP>  (1) 
799.923

>  <PUBCHEM_SHAPE_VOLUME>  (1) 
270.8

>  <PUBCHEM_COORDINATE_TYPE>  (1) 
2
5
10

$$$$
