22329
     RDKit          3D

  7  7  0  0  0  0  0  0  0  0999 V2000
    0.3670   -1.5124   -0.7368 S   0  0  0  0  0  0  0  0  0  0  0  0
    0.3668    1.5126   -0.7364 S   0  0  0  0  0  0  0  0  0  0  0  0
   -1.8325   -0.0002    0.0824 C   0  0  0  0  0  0  0  0  0  0  0  0
    1.3148    0.0001   -0.3754 C   0  0  0  0  0  0  0  0  0  0  0  0
   -1.0585   -1.2822    0.3672 C   0  0  0  0  0  0  0  0  0  0  0  0
   -1.0589    1.2821    0.3669 C   0  0  0  0  0  0  0  0  0  0  0  0
    1.9013    0.0000    1.0321 C   0  0  0  0  0  0  0  0  0  0  0  0
  1  4  1  0
  1  5  1  0
  2  4  1  0
  2  6  1  0
  3  5  1  0
  3  6  1  0
  4  7  1  0
M  END
>  <PUBCHEM_COMPOUND_CID>  (1) 
22329

>  <PUBCHEM_CONFORMER_RMSD>  (1) 
0.4

>  <PUBCHEM_CONFORMER_DIVERSEORDER>  (1) 
1
5
3
6
4
2

>  <PUBCHEM_MMFF94_PARTIAL_CHARGES>  (1) 
5
1 -0.46
2 -0.46
4 0.46
5 0.23
6 0.23

>  <PUBCHEM_EFFECTIVE_ROTOR_COUNT>  (1) 
1.2

>  <PUBCHEM_PHARMACOPHORE_FEATURES>  (1) 
1
6 1 2 3 4 5 6 rings

>  <PUBCHEM_HEAVY_ATOM_COUNT>  (1) 
7

>  <PUBCHEM_ATOM_DEF_STEREO_COUNT>  (1) 
0

>  <PUBCHEM_ATOM_UDEF_STEREO_COUNT>  (1) 
0

>  <PUBCHEM_BOND_DEF_STEREO_COUNT>  (1) 
0

>  <PUBCHEM_BOND_UDEF_STEREO_COUNT>  (1) 
0

>  <PUBCHEM_ISOTOPIC_ATOM_COUNT>  (1) 
0

>  <PUBCHEM_COMPONENT_COUNT>  (1) 
1

>  <PUBCHEM_CACTVS_TAUTO_COUNT>  (1) 
1

>  <PUBCHEM_CONFORMER_ID>  (1) 
0000573900000001

>  <PUBCHEM_MMFF94_ENERGY>  (1) 
6.4808

>  <PUBCHEM_FEATURE_SELFOVERLAP>  (1) 
5.074

>  <PUBCHEM_SHAPE_FINGERPRINT>  (1) 
16714656 1 18338811064857050596
18185500 45 17689996064860885126
20711978 78 17342650063805512517
21040471 1 18267031552555508373
23235685 24 18411709759299078525
241688 4 17905060148485628419
24536 1 18338811060366910821
29004967 10 14056724530364921996
5084963 1 18269560446373754295
5943 1 17832964415227782860

>  <PUBCHEM_SHAPE_MULTIPOLES>  (1) 
151.76
2.17
1.82
1.01
0.02
0
0.03
0
0.57
-0.21
-0.35
0.34
0
0

>  <PUBCHEM_SHAPE_SELFOVERLAP>  (1) 
258.352

>  <PUBCHEM_SHAPE_VOLUME>  (1) 
99.6

>  <PUBCHEM_COORDINATE_TYPE>  (1) 
2
5
10

$$$$
