22326
     RDKit          3D

  8  8  0  0  0  0  0  0  0  0999 V2000
    1.3574    1.1326    0.7917 O   0  0  0  0  0  0  0  0  0  0  0  0
    0.1155   -0.3121   -0.6188 C   0  0  0  0  0  0  0  0  0  0  0  0
   -0.8167    0.8672   -0.9063 C   0  0  0  0  0  0  0  0  0  0  0  0
   -0.6806   -1.2783    0.2675 C   0  0  0  0  0  0  0  0  0  0  0  0
   -1.8599    0.8097    0.1995 C   0  0  0  0  0  0  0  0  0  0  0  0
   -2.0788   -0.6808    0.3841 C   0  0  0  0  0  0  0  0  0  0  0  0
    1.3680    0.1430    0.0701 C   0  0  0  0  0  0  0  0  0  0  0  0
    2.5950   -0.6813   -0.1879 C   0  0  0  0  0  0  0  0  0  0  0  0
  1  7  2  0
  2  3  1  0
  2  4  1  0
  2  7  1  0
  3  5  1  0
  4  6  1  0
  5  6  1  0
  7  8  1  0
M  END
>  <PUBCHEM_COMPOUND_CID>  (1) 
22326

>  <PUBCHEM_CONFORMER_RMSD>  (1) 
0.4

>  <PUBCHEM_CONFORMER_DIVERSEORDER>  (1) 
1
6
2
3
5
4

>  <PUBCHEM_MMFF94_PARTIAL_CHARGES>  (1) 
4
1 -0.57
2 0.06
7 0.45
8 0.06

>  <PUBCHEM_EFFECTIVE_ROTOR_COUNT>  (1) 
2

>  <PUBCHEM_PHARMACOPHORE_FEATURES>  (1) 
2
1 1 acceptor
5 2 3 4 5 6 rings

>  <PUBCHEM_HEAVY_ATOM_COUNT>  (1) 
8

>  <PUBCHEM_ATOM_DEF_STEREO_COUNT>  (1) 
0

>  <PUBCHEM_ATOM_UDEF_STEREO_COUNT>  (1) 
0

>  <PUBCHEM_BOND_DEF_STEREO_COUNT>  (1) 
0

>  <PUBCHEM_BOND_UDEF_STEREO_COUNT>  (1) 
0

>  <PUBCHEM_ISOTOPIC_ATOM_COUNT>  (1) 
0

>  <PUBCHEM_COMPONENT_COUNT>  (1) 
1

>  <PUBCHEM_CACTVS_TAUTO_COUNT>  (1) 
3

>  <PUBCHEM_CONFORMER_ID>  (1) 
0000573600000001

>  <PUBCHEM_MMFF94_ENERGY>  (1) 
9.6058

>  <PUBCHEM_FEATURE_SELFOVERLAP>  (1) 
10.148

>  <PUBCHEM_SHAPE_FINGERPRINT>  (1) 
10857977 72 18114461283349836321
16714656 1 17968102992605636702
20645464 45 18342443855733772090
21040471 1 18042959870396988125
23552423 10 17967256416097537774
24536 1 18267004210846507980
29004967 10 17846222116108903670
369184 2 13183016302576249486
5084963 1 18335421261686599805

>  <PUBCHEM_SHAPE_MULTIPOLES>  (1) 
158.77
3.05
1.25
0.85
1.05
0.07
0.04
0.29
-0.26
-0.24
-0.08
0.01
-0.15
0.28

>  <PUBCHEM_SHAPE_SELFOVERLAP>  (1) 
311.659

>  <PUBCHEM_SHAPE_VOLUME>  (1) 
97.2

>  <PUBCHEM_COORDINATE_TYPE>  (1) 
2
5
10

$$$$
