22330
     RDKit          3D

  8  8  0  0  1  0  0  0  0  0999 V2000
    0.9116   -0.0104   -0.0199 S   0  0  0  0  0  0  0  0  0  0  0  0
    1.7698   -0.1551   -1.1790 O   0  0  0  0  0  0  0  0  0  0  0  0
    1.3885    0.6059    1.2026 O   0  0  0  0  0  0  0  0  0  0  0  0
   -0.6107    0.7865   -0.5417 C   0  0  0  0  0  0  0  0  0  0  0  0
    0.2576   -1.6159    0.3980 C   0  0  0  0  0  0  0  0  0  0  0  0
   -1.6365   -0.2617   -0.2527 C   0  0  0  0  0  0  0  0  0  0  0  0
   -1.2066   -1.4418    0.2066 C   0  0  0  0  0  0  0  0  0  0  0  0
   -0.8738    2.0925    0.1860 C   0  0  0  0  0  0  0  0  0  0  0  0
  1  2  2  0
  1  3  2  0
  1  4  1  0
  1  5  1  0
  4  6  1  0
  4  8  1  0
  5  7  1  0
  6  7  2  0
M  END
>  <PUBCHEM_COMPOUND_CID>  (1) 
22330

>  <PUBCHEM_CONFORMER_RMSD>  (1) 
0.4

>  <PUBCHEM_CONFORMER_DIVERSEORDER>  (1) 
2
1

>  <PUBCHEM_MMFF94_PARTIAL_CHARGES>  (1) 
9
1 1.09
12 0.15
13 0.15
2 -0.65
3 -0.65
4 0.24
5 0.24
6 -0.29
7 -0.29

>  <PUBCHEM_EFFECTIVE_ROTOR_COUNT>  (1) 
0.4

>  <PUBCHEM_PHARMACOPHORE_FEATURES>  (1) 
3
1 2 acceptor
1 3 acceptor
5 1 4 5 6 7 rings

>  <PUBCHEM_HEAVY_ATOM_COUNT>  (1) 
8

>  <PUBCHEM_ATOM_DEF_STEREO_COUNT>  (1) 
0

>  <PUBCHEM_ATOM_UDEF_STEREO_COUNT>  (1) 
1

>  <PUBCHEM_BOND_DEF_STEREO_COUNT>  (1) 
0

>  <PUBCHEM_BOND_UDEF_STEREO_COUNT>  (1) 
0

>  <PUBCHEM_ISOTOPIC_ATOM_COUNT>  (1) 
0

>  <PUBCHEM_COMPONENT_COUNT>  (1) 
1

>  <PUBCHEM_CACTVS_TAUTO_COUNT>  (1) 
1

>  <PUBCHEM_CONFORMER_ID>  (1) 
0000573A00000002

>  <PUBCHEM_MMFF94_ENERGY>  (1) 
2.5343

>  <PUBCHEM_FEATURE_SELFOVERLAP>  (1) 
15.24

>  <PUBCHEM_SHAPE_FINGERPRINT>  (1) 
12423570 1 10115852140749583991
137420 1 15600236730174653167
16714656 1 18263662773371330134
21040471 1 18120932802564073125
24536 1 17823132315858787815
29004967 10 16917082052713696190
5084963 1 17682392551323799781
5943 1 17096067143814997892

>  <PUBCHEM_SHAPE_MULTIPOLES>  (1) 
156.75
1.94
1.89
0.95
0.9
0.33
-0.01
-0.15
0.09
-0.42
0.04
-0.15
-0.37
-0.26

>  <PUBCHEM_SHAPE_SELFOVERLAP>  (1) 
300.172

>  <PUBCHEM_SHAPE_VOLUME>  (1) 
97.5

>  <PUBCHEM_COORDINATE_TYPE>  (1) 
2
5
10

$$$$
