22335
     RDKit          3D

 10 11  0  0  0  0  0  0  0  0999 V2000
    1.5435   -1.4459   -0.4299 S   0  0  0  0  0  0  0  0  0  0  0  0
    1.5289    1.2328    0.9015 S   0  0  0  0  0  0  0  0  0  0  0  0
   -1.8096   -0.4854    0.9620 O   0  0  0  0  0  0  0  0  0  0  0  0
    0.6000   -0.3183    0.6500 C   0  0  0  0  0  0  0  0  0  0  0  0
    3.1190   -0.5600   -0.3295 C   0  0  0  0  0  0  0  0  0  0  0  0
    2.8110    0.9232   -0.3406 C   0  0  0  0  0  0  0  0  0  0  0  0
   -0.8052   -0.0772    0.1467 C   0  0  0  0  0  0  0  0  0  0  0  0
   -1.3041    0.4865   -1.0004 C   0  0  0  0  0  0  0  0  0  0  0  0
   -2.7133    0.4217   -0.8854 C   0  0  0  0  0  0  0  0  0  0  0  0
   -2.9703   -0.1775    0.3257 C   0  0  0  0  0  0  0  0  0  0  0  0
  1  4  1  0
  1  5  1  0
  2  4  1  0
  2  6  1  0
  3  7  1  0
  3 10  1  0
  4  7  1  0
  5  6  1  0
  7  8  2  0
  8  9  1  0
  9 10  2  0
M  END
>  <PUBCHEM_COMPOUND_CID>  (1) 
22335

>  <PUBCHEM_CONFORMER_RMSD>  (1) 
0.4

>  <PUBCHEM_CONFORMER_DIVERSEORDER>  (1) 
1
2
6
4
5
3

>  <PUBCHEM_MMFF94_PARTIAL_CHARGES>  (1) 
13
1 -0.46
10 -0.01
16 0.15
17 0.15
18 0.15
2 -0.46
3 -0.28
4 0.64
5 0.23
6 0.23
7 -0.04
8 -0.15
9 -0.15

>  <PUBCHEM_EFFECTIVE_ROTOR_COUNT>  (1) 
2

>  <PUBCHEM_PHARMACOPHORE_FEATURES>  (1) 
3
1 3 acceptor
5 1 2 4 5 6 rings
5 3 7 8 9 10 rings

>  <PUBCHEM_HEAVY_ATOM_COUNT>  (1) 
10

>  <PUBCHEM_ATOM_DEF_STEREO_COUNT>  (1) 
0

>  <PUBCHEM_ATOM_UDEF_STEREO_COUNT>  (1) 
0

>  <PUBCHEM_BOND_DEF_STEREO_COUNT>  (1) 
0

>  <PUBCHEM_BOND_UDEF_STEREO_COUNT>  (1) 
0

>  <PUBCHEM_ISOTOPIC_ATOM_COUNT>  (1) 
0

>  <PUBCHEM_COMPONENT_COUNT>  (1) 
1

>  <PUBCHEM_CACTVS_TAUTO_COUNT>  (1) 
1

>  <PUBCHEM_CONFORMER_ID>  (1) 
0000573F00000001

>  <PUBCHEM_MMFF94_ENERGY>  (1) 
5.6066

>  <PUBCHEM_FEATURE_SELFOVERLAP>  (1) 
15.223

>  <PUBCHEM_SHAPE_FINGERPRINT>  (1) 
10857977 72 17386008411725756713
11031198 65 18412830196028496300
11062470 55 9655580703337000739
12716758 59 17240767246191118971
12897270 3 18333450924033295198
12932741 1 18260826003480866179
12932764 1 18186796976478183579
13839132 238 17531799139283939485
14325111 11 17748826319384289028
14390081 3 17531241747097365685
15310529 11 18202562852276056229
15775835 57 18201718500481772292
16945 1 18131350812686617330
17844478 74 18187938278222093729
20201158 50 18336829701896375614
20645464 45 18040429992988935857
20711985 327 16988269903221228610
23552423 10 16414616302560743057
29004967 10 18343586209407208946
3248919 1 18411695474179634985
369184 2 8142084264880396821
5084963 1 18113904874636920392
8030462 33 17632576041495501801

>  <PUBCHEM_SHAPE_MULTIPOLES>  (1) 
207.62
5.02
1.25
1.05
0.52
0.03
-0.05
-0.02
-0.7
-1.03
0.06
0.37
-0.09
0.2

>  <PUBCHEM_SHAPE_SELFOVERLAP>  (1) 
404.83

>  <PUBCHEM_SHAPE_VOLUME>  (1) 
126.7

>  <PUBCHEM_COORDINATE_TYPE>  (1) 
2
5
10

$$$$
