22339
     RDKit          3D

 16 16  0  0  0  0  0  0  0  0999 V2000
    0.7447    0.9887   -1.5239 O   0  0  0  0  0  0  0  0  0  0  0  0
   -3.4768    0.0615   -0.0370 N   0  0  0  0  0  0  0  0  0  0  0  0
    0.1371   -0.7856   -0.1598 N   0  0  0  0  0  0  0  0  0  0  0  0
    5.0349   -0.1550    0.7007 N   0  0  0  0  0  0  0  0  0  0  0  0
   -2.0699    0.0735    0.3623 C   0  0  0  0  0  0  0  0  0  0  0  0
   -4.2573    0.9588    0.8141 C   0  0  0  0  0  0  0  0  0  0  0  0
   -4.0141   -1.2972    0.0246 C   0  0  0  0  0  0  0  0  0  0  0  0
   -1.2517   -0.8306   -0.5508 C   0  0  0  0  0  0  0  0  0  0  0  0
   -3.6941    2.3653    0.7449 C   0  0  0  0  0  0  0  0  0  0  0  0
   -5.4547   -1.3111   -0.4494 C   0  0  0  0  0  0  0  0  0  0  0  0
    1.0297    0.1347   -0.6884 C   0  0  0  0  0  0  0  0  0  0  0  0
    2.4300    0.0335   -0.2027 C   0  0  0  0  0  0  0  0  0  0  0  0
    3.4502    0.4683   -1.0154 C   0  0  0  0  0  0  0  0  0  0  0  0
    2.6658   -0.4920    1.0456 C   0  0  0  0  0  0  0  0  0  0  0  0
    4.7376    0.3523   -0.5168 C   0  0  0  0  0  0  0  0  0  0  0  0
    3.9886   -0.5651    1.4519 C   0  0  0  0  0  0  0  0  0  0  0  0
  1 11  2  0
  2  5  1  0
  2  6  1  0
  2  7  1  0
  3  8  1  0
  3 11  1  0
  4 15  2  0
  4 16  1  0
  5  8  1  0
  6  9  1  0
  7 10  1  0
 11 12  1  0
 12 13  2  0
 12 14  1  0
 13 15  1  0
 14 16  2  0
M  END
>  <PUBCHEM_COMPOUND_CID>  (1) 
22339

>  <PUBCHEM_CONFORMER_RMSD>  (1) 
0.8

>  <PUBCHEM_CONFORMER_DIVERSEORDER>  (1) 
2
5
24
27
13
1
14
19
16
21
15
9
22
25
7
26
8
4
11
6
10
20
3
18
17
12
23

>  <PUBCHEM_MMFF94_PARTIAL_CHARGES>  (1) 
19
1 -0.57
11 0.54
12 0.09
13 -0.15
14 -0.15
15 0.16
16 0.16
2 -0.81
3 -0.73
31 0.37
32 0.15
33 0.15
34 0.15
35 0.15
4 -0.62
5 0.27
6 0.27
7 0.27
8 0.3

>  <PUBCHEM_EFFECTIVE_ROTOR_COUNT>  (1) 
7

>  <PUBCHEM_PHARMACOPHORE_FEATURES>  (1) 
5
1 1 acceptor
1 2 cation
1 3 donor
1 4 acceptor
6 4 12 13 14 15 16 rings

>  <PUBCHEM_HEAVY_ATOM_COUNT>  (1) 
16

>  <PUBCHEM_ATOM_DEF_STEREO_COUNT>  (1) 
0

>  <PUBCHEM_ATOM_UDEF_STEREO_COUNT>  (1) 
0

>  <PUBCHEM_BOND_DEF_STEREO_COUNT>  (1) 
0

>  <PUBCHEM_BOND_UDEF_STEREO_COUNT>  (1) 
0

>  <PUBCHEM_ISOTOPIC_ATOM_COUNT>  (1) 
0

>  <PUBCHEM_COMPONENT_COUNT>  (1) 
1

>  <PUBCHEM_CACTVS_TAUTO_COUNT>  (1) 
2

>  <PUBCHEM_CONFORMER_ID>  (1) 
0000574300000002

>  <PUBCHEM_MMFF94_ENERGY>  (1) 
31.3915

>  <PUBCHEM_FEATURE_SELFOVERLAP>  (1) 
25.371

>  <PUBCHEM_SHAPE_FINGERPRINT>  (1) 
10680689 15 17275384317978222503
10912923 1 18259705605337459072
11287383 113 15410895197270052711
11471102 20 16732982050810281438
12107183 9 17758954818493526563
12236239 1 18260546740296378847
12403259 415 16845576417480662536
124424 183 15864069880009812863
12500047 106 17561079220158319878
12596602 18 18335979848027283792
12670546 56 18187080671842320348
13675066 3 17775567537335766494
13760787 5 17095529495360956342
14123238 8 18334294287943169526
14252887 29 16588024580987654242
14573314 32 17989213611832909758
17834072 33 17894911883668240343
17862501 102 18334855047959180999
19433438 28 17632857538010456491
19489759 90 18272087193315000835
200 152 17821721763237668215
20432913 95 16370728118921846361
20645477 56 16845568751037963743
20645477 70 16443331066617190186
21033648 29 16773787078673665011
21065198 48 18334293145618895634
21065201 7 18131078116533687951
22485316 2 11674874506836661649
2306618 200 18113612366628003853
231179 274 16702018656446958106
23402539 116 18341889719348764871
23557571 272 17632308869308694773
23559900 14 17774172197340973518
26918003 58 15068336822023832364
2871803 45 15430305915638586770
3268164 11 17917704700278690789
341906 21 18273213062661460352
4028521 119 16773515477848022457
573450 72 18408319973825241107

>  <PUBCHEM_SHAPE_MULTIPOLES>  (1) 
308.46
12.38
1.45
1.19
2.26
0.68
-0.03
-0.54
-1.82
2.77
-0.14
-1.19
0.09
-1.06

>  <PUBCHEM_SHAPE_SELFOVERLAP>  (1) 
617.827

>  <PUBCHEM_SHAPE_VOLUME>  (1) 
181.9

>  <PUBCHEM_COORDINATE_TYPE>  (1) 
2
5
10

$$$$
