22348
     RDKit          3D

 14 14  0  0  0  0  0  0  0  0999 V2000
   -1.2281   -2.5157   -0.2992 Cl  0  0  0  0  0  0  0  0  0  0  0  0
    0.1262    0.1309   -0.9030 N   0  0  0  0  0  0  0  0  0  0  0  0
    0.9386    0.1470    0.0476 N   0  0  0  0  0  0  0  0  0  0  0  0
    3.5243    2.2673    0.3630 N   0  0  0  0  0  0  0  0  0  0  0  0
    3.3474   -2.1300    0.5892 N   0  0  0  0  0  0  0  0  0  0  0  0
   -1.1836    0.2076   -0.4114 C   0  0  0  0  0  0  0  0  0  0  0  0
   -1.9087   -0.9419   -0.0969 C   0  0  0  0  0  0  0  0  0  0  0  0
   -1.7611    1.4655   -0.2384 C   0  0  0  0  0  0  0  0  0  0  0  0
   -3.2112   -0.8332    0.3904 C   0  0  0  0  0  0  0  0  0  0  0  0
   -3.0637    1.5739    0.2488 C   0  0  0  0  0  0  0  0  0  0  0  0
   -3.7887    0.4246    0.5632 C   0  0  0  0  0  0  0  0  0  0  0  0
    2.3225    0.0674   -0.4185 C   0  0  0  0  0  0  0  0  0  0  0  0
    2.9924    1.2946    0.0195 C   0  0  0  0  0  0  0  0  0  0  0  0
    2.8937   -1.1581    0.1457 C   0  0  0  0  0  0  0  0  0  0  0  0
  1  7  1  0
  2  3  2  0
  2  6  1  0
  3 12  1  0
  4 13  3  0
  5 14  3  0
  6  7  2  0
  6  8  1  0
  7  9  1  0
  8 10  2  0
  9 11  2  0
 10 11  1  0
 12 13  1  0
 12 14  1  0
M  END
>  <PUBCHEM_COMPOUND_CID>  (1) 
22348

>  <PUBCHEM_CONFORMER_RMSD>  (1) 
0.6

>  <PUBCHEM_CONFORMER_DIVERSEORDER>  (1) 
1
5
3
8
10
6
11
9
4
7
2

>  <PUBCHEM_MMFF94_PARTIAL_CHARGES>  (1) 
18
1 -0.18
10 -0.15
11 -0.15
12 0.65
13 0.36
14 0.36
15 0.15
16 0.15
17 0.15
18 0.15
2 -0.18
3 -0.25
4 -0.56
5 -0.56
6 0.18
7 0.18
8 -0.15
9 -0.15

>  <PUBCHEM_EFFECTIVE_ROTOR_COUNT>  (1) 
2

>  <PUBCHEM_PHARMACOPHORE_FEATURES>  (1) 
3
1 4 acceptor
1 5 acceptor
6 6 7 8 9 10 11 rings

>  <PUBCHEM_HEAVY_ATOM_COUNT>  (1) 
14

>  <PUBCHEM_ATOM_DEF_STEREO_COUNT>  (1) 
0

>  <PUBCHEM_ATOM_UDEF_STEREO_COUNT>  (1) 
0

>  <PUBCHEM_BOND_DEF_STEREO_COUNT>  (1) 
0

>  <PUBCHEM_BOND_UDEF_STEREO_COUNT>  (1) 
0

>  <PUBCHEM_ISOTOPIC_ATOM_COUNT>  (1) 
0

>  <PUBCHEM_COMPONENT_COUNT>  (1) 
1

>  <PUBCHEM_CACTVS_TAUTO_COUNT>  (1) 
1

>  <PUBCHEM_CONFORMER_ID>  (1) 
0000574C00000001

>  <PUBCHEM_MMFF94_ENERGY>  (1) 
22.8358

>  <PUBCHEM_FEATURE_SELFOVERLAP>  (1) 
15.223

>  <PUBCHEM_SHAPE_FINGERPRINT>  (1) 
10608611 8 18411699872179114949
12251169 10 18411133615469815998
12932764 1 18409173207548739332
13296908 3 17458059343974035645
13380535 21 18339365261698797012
14144814 61 18409731763587060277
14178342 30 18191017005427292146
14325111 11 18410577271002016141
14445660 50 18341057422783829745
15442244 35 18338798892946250248
15669948 3 18130504248868293887
17804303 29 18264215703292806366
18186145 218 18271250430105533836
19050596 39 18337951289766699528
19422 9 18041008310161457203
20510252 161 18272941539682955257
20528008 55 18412543240916271421
20671657 1 18335994137768774660
20871998 184 18128546044830150111
21501502 16 18342733052660988062
2255824 54 17894919507905071190
23402539 116 18272362041621404173
23463225 33 18262241014732122671
23559900 14 18411978053153007024
45790113 53 18264203617259908692
5104073 3 18409453570361062049
69090 78 18411697686478351319
7364860 26 18412826876593756878
74978 22 18412544280266650078
9709674 26 18412549816274370526

>  <PUBCHEM_SHAPE_MULTIPOLES>  (1) 
270.06
7.06
2.4
0.75
2.3
0.62
0.03
-1.32
-1.53
0.96
-0.17
-0.04
0.04
-0.22

>  <PUBCHEM_SHAPE_SELFOVERLAP>  (1) 
550.214

>  <PUBCHEM_SHAPE_VOLUME>  (1) 
152.1

>  <PUBCHEM_COORDINATE_TYPE>  (1) 
2
5
10

$$$$
