22342
     RDKit          3D

 20 21  0  0  0  0  0  0  0  0999 V2000
   -3.7687    3.8368   -0.5665 Cl  0  0  0  0  0  0  0  0  0  0  0  0
    5.7297    0.8631   -0.4529 Cl  0  0  0  0  0  0  0  0  0  0  0  0
   -0.0471   -1.1646    1.8388 O   0  0  0  0  0  0  0  0  0  0  0  0
   -1.6923   -2.4214    0.0606 O   0  0  0  0  0  0  0  0  0  0  0  0
    0.0099   -0.7136    0.4550 C   0  0  0  0  0  0  0  0  0  0  0  0
   -0.3957   -1.9909   -0.3518 C   0  0  0  0  0  0  0  0  0  0  0  0
   -0.9300    0.4163    0.2005 C   0  0  0  0  0  0  0  0  0  0  0  0
    1.4883   -0.3070    0.2215 C   0  0  0  0  0  0  0  0  0  0  0  0
   -0.9811    1.0107   -1.0602 C   0  0  0  0  0  0  0  0  0  0  0  0
    1.9979    0.7090    0.9791 C   0  0  0  0  0  0  0  0  0  0  0  0
   -1.7570    0.8791    1.2241 C   0  0  0  0  0  0  0  0  0  0  0  0
    2.1945   -0.9880   -0.7293 C   0  0  0  0  0  0  0  0  0  0  0  0
   -1.8592    2.0682   -1.2974 C   0  0  0  0  0  0  0  0  0  0  0  0
    3.3271    1.0754    0.7680 C   0  0  0  0  0  0  0  0  0  0  0  0
   -2.6352    1.9365    0.9866 C   0  0  0  0  0  0  0  0  0  0  0  0
    3.5237   -0.6216   -0.9403 C   0  0  0  0  0  0  0  0  0  0  0  0
   -2.1160   -3.5592   -0.6740 C   0  0  0  0  0  0  0  0  0  0  0  0
   -2.6863    2.5312   -0.2741 C   0  0  0  0  0  0  0  0  0  0  0  0
    4.0901    0.4101   -0.1916 C   0  0  0  0  0  0  0  0  0  0  0  0
   -3.4924   -3.9702   -0.1960 C   0  0  0  0  0  0  0  0  0  0  0  0
  1 18  1  0
  2 19  1  0
  3  5  1  0
  4  6  1  0
  4 17  1  0
  5  6  1  0
  5  7  1  0
  5  8  1  0
  7  9  2  0
  7 11  1  0
  8 10  2  0
  8 12  1  0
  9 13  1  0
 10 14  1  0
 11 15  2  0
 12 16  2  0
 13 18  2  0
 14 19  2  0
 15 18  1  0
 16 19  1  0
 17 20  1  0
M  END
>  <PUBCHEM_COMPOUND_CID>  (1) 
22342

>  <PUBCHEM_CONFORMER_RMSD>  (1) 
0.8

>  <PUBCHEM_CONFORMER_DIVERSEORDER>  (1) 
1
6
3
4
2
5

>  <PUBCHEM_MMFF94_PARTIAL_CHARGES>  (1) 
28
1 -0.18
10 -0.15
11 -0.15
12 -0.15
13 -0.15
14 -0.15
15 -0.15
16 -0.15
17 0.28
18 0.18
19 0.18
2 -0.18
23 0.15
24 0.15
25 0.15
26 0.15
27 0.4
3 -0.68
30 0.15
31 0.15
32 0.15
33 0.15
4 -0.56
5 0.57
6 0.28
7 -0.14
8 -0.14
9 -0.15

>  <PUBCHEM_EFFECTIVE_ROTOR_COUNT>  (1) 
5

>  <PUBCHEM_PHARMACOPHORE_FEATURES>  (1) 
5
1 3 acceptor
1 3 donor
1 4 acceptor
6 7 9 11 13 15 18 rings
6 8 10 12 14 16 19 rings

>  <PUBCHEM_HEAVY_ATOM_COUNT>  (1) 
20

>  <PUBCHEM_ATOM_DEF_STEREO_COUNT>  (1) 
0

>  <PUBCHEM_ATOM_UDEF_STEREO_COUNT>  (1) 
0

>  <PUBCHEM_BOND_DEF_STEREO_COUNT>  (1) 
0

>  <PUBCHEM_BOND_UDEF_STEREO_COUNT>  (1) 
0

>  <PUBCHEM_ISOTOPIC_ATOM_COUNT>  (1) 
0

>  <PUBCHEM_COMPONENT_COUNT>  (1) 
1

>  <PUBCHEM_CACTVS_TAUTO_COUNT>  (1) 
1

>  <PUBCHEM_CONFORMER_ID>  (1) 
0000574600000001

>  <PUBCHEM_MMFF94_ENERGY>  (1) 
60.6432

>  <PUBCHEM_FEATURE_SELFOVERLAP>  (1) 
25.377

>  <PUBCHEM_SHAPE_FINGERPRINT>  (1) 
10165383 225 18268727038251443392
11045515 52 18049156975687511943
11101153 10 17975421536181659844
11265709 11 18050011283316403335
11578080 2 12238477673408275059
11833330 49 18265047123235876723
12173636 292 18340204064422273877
12730499 353 17977955588150009481
12788726 201 18190169260203169274
13004483 165 18124588940735777358
13134695 92 17617651502973881135
13590594 115 18048039855437673059
13681431 1 17472421427091981643
13911987 19 17186469853040071623
13955234 65 17474110900250043753
14341114 328 15358850828087500940
14508225 48 18124028194194914047
16945 1 18410847797991031875
17134986 127 18193554454598949556
17357779 13 18056181712670157439
17539 30 18341042034037490143
1813 80 17978234081897144591
18186145 218 18127979607173230592
20600515 1 17837503207633275062
21041028 32 17973738166509442995
21202864 24 18341346551729742411
21285901 2 18059300984166599063
21426921 1 18410575136661667958
21524375 3 18044095657165493912
22112679 90 17975720559797927919
2255824 54 17548971162084980863
22907989 373 18339358690230296036
23227448 37 18411141367881024028
23402539 116 18191585457155269858
23419403 2 17272840155224211595
23557571 272 18267303321080547974
23558518 356 18261671575320318480
25 1 18057044614549434016
283562 15 18263075686039737746
3060560 45 17907572528239050037
350125 39 18127698343008594208
3729539 64 17547879364140127486
394222 165 17826511059277864776
458136 41 17908147581943327465
495365 180 17905030461841120073
5486654 2 18411411805292593069
57262259 84 18268425909556925951
59755656 520 18335697183249517580
6025842 7 17762610691168470853
633830 44 17485380979695965473
6442390 28 18267308634250290557
68521 5 18266738163440031295
70251023 43 18121782991757359962
7164475 11 18265335182444977262
7364860 26 17472696927832129671
7399639 24 17841702213154865024
77188 2 17834394901552051399
7808743 9 18335140886813107812
81228 2 18263084481879312075
8272917 22 17548696284231258533
9925002 15 18118985791189591165

>  <PUBCHEM_SHAPE_MULTIPOLES>  (1) 
403.59
7.95
4.41
1.24
9.7
3.14
-0.2
-3.99
1.48
-8.71
1.05
-0.15
-0.24
0.4

>  <PUBCHEM_SHAPE_SELFOVERLAP>  (1) 
837.923

>  <PUBCHEM_SHAPE_VOLUME>  (1) 
233.2

>  <PUBCHEM_COORDINATE_TYPE>  (1) 
2
5
10

$$$$
