22346
     RDKit          3D

 40 45  0  0  1  0  0  0  0  0999 V2000
   -4.3011    1.3788   -0.3610 O   0  0  0  0  0  0  0  0  0  0  0  0
    1.9747    2.2052    0.7953 O   0  0  0  0  0  0  0  0  0  0  0  0
    3.7529    0.3301   -0.4072 O   0  0  0  0  0  0  0  0  0  0  0  0
    0.2771    2.0759    2.7438 O   0  0  0  0  0  0  0  0  0  0  0  0
   -8.5542   -0.5157    0.3136 O   0  0  0  0  0  0  0  0  0  0  0  0
    5.4927   -1.1415   -1.0599 O   0  0  0  0  0  0  0  0  0  0  0  0
   -8.9279    1.3130   -1.0325 O   0  0  0  0  0  0  0  0  0  0  0  0
    6.7832    1.2609   -2.1881 O   0  0  0  0  0  0  0  0  0  0  0  0
    5.8449    1.5740    1.3164 O   0  0  0  0  0  0  0  0  0  0  0  0
    8.2776   -0.4937   -0.4014 O   0  0  0  0  0  0  0  0  0  0  0  0
    5.4914   -3.6114    0.1122 O   0  0  0  0  0  0  0  0  0  0  0  0
   -3.3631    0.2927   -0.3170 C   0  0  0  0  0  0  0  0  0  0  0  0
   -2.0091    0.8445    0.2080 C   0  0  0  0  0  0  0  0  0  0  0  0
   -3.9386   -0.8771    0.5258 C   0  0  0  0  0  0  0  0  0  0  0  0
   -0.9503   -0.2581    0.4868 C   0  0  0  0  0  0  0  0  0  0  0  0
    0.3891    0.3397    1.0598 C   0  0  0  0  0  0  0  0  0  0  0  0
    0.9304    1.4763    0.1288 C   0  0  0  0  0  0  0  0  0  0  0  0
   -5.0261   -1.4857   -0.4153 C   0  0  0  0  0  0  0  0  0  0  0  0
   -2.8401   -1.9451    0.7750 C   0  0  0  0  0  0  0  0  0  0  0  0
   -1.5539   -1.3722    1.3664 C   0  0  0  0  0  0  0  0  0  0  0  0
   -3.3141   -0.2853   -1.7436 C   0  0  0  0  0  0  0  0  0  0  0  0
   -1.4446    1.9274   -0.7295 C   0  0  0  0  0  0  0  0  0  0  0  0
   -0.1486    2.5244   -0.1999 C   0  0  0  0  0  0  0  0  0  0  0  0
   -4.4395   -1.3263   -1.8306 C   0  0  0  0  0  0  0  0  0  0  0  0
    1.4894   -0.7406    1.2561 C   0  0  0  0  0  0  0  0  0  0  0  0
    1.5256    0.9051   -1.1869 C   0  0  0  0  0  0  0  0  0  0  0  0
   -4.5145   -0.4331    1.8855 C   0  0  0  0  0  0  0  0  0  0  0  0
    2.0321   -1.3035   -0.0564 C   0  0  0  0  0  0  0  0  0  0  0  0
    2.5591   -0.2056   -0.9731 C   0  0  0  0  0  0  0  0  0  0  0  0
    0.1212    0.8961    2.4468 C   0  0  0  0  0  0  0  0  0  0  0  0
   -6.3879   -0.8565   -0.3436 C   0  0  0  0  0  0  0  0  0  0  0  0
   -7.4409   -1.3848    0.5473 C   0  0  0  0  0  0  0  0  0  0  0  0
   -6.8209    0.1996   -1.0268 C   0  0  0  0  0  0  0  0  0  0  0  0
    4.8707    0.1295   -1.2662 C   0  0  0  0  0  0  0  0  0  0  0  0
   -8.2067    0.4246   -0.6127 C   0  0  0  0  0  0  0  0  0  0  0  0
    5.8760    1.2718   -1.0869 C   0  0  0  0  0  0  0  0  0  0  0  0
    6.6649    1.1636    0.2245 C   0  0  0  0  0  0  0  0  0  0  0  0
    6.0716   -1.3013    0.2399 C   0  0  0  0  0  0  0  0  0  0  0  0
    7.1766   -0.2597    0.4752 C   0  0  0  0  0  0  0  0  0  0  0  0
    6.5808   -2.7360    0.3315 C   0  0  0  0  0  0  0  0  0  0  0  0
  1 12  1  0
  2 17  1  0
  3 29  1  0
  3 34  1  0
  4 30  2  0
  5 32  1  0
  5 35  1  0
  6 34  1  0
  6 38  1  0
  7 35  2  0
  8 36  1  0
  9 37  1  0
 10 39  1  0
 11 40  1  0
 12 13  1  0
 12 14  1  0
 12 21  1  0
 13 15  1  0
 13 22  1  0
 14 18  1  0
 14 19  1  0
 14 27  1  0
 15 16  1  0
 15 20  1  0
 16 17  1  0
 16 25  1  0
 16 30  1  0
 17 23  1  0
 17 26  1  0
 18 24  1  0
 18 31  1  0
 19 20  1  0
 21 24  1  0
 22 23  1  0
 25 28  1  0
 26 29  1  0
 28 29  1  0
 31 32  1  0
 31 33  2  0
 33 35  1  0
 34 36  1  0
 36 37  1  0
 37 39  1  0
 38 39  1  0
 38 40  1  0
M  END
>  <PUBCHEM_COMPOUND_CID>  (1) 
22346

>  <PUBCHEM_CONFORMER_RMSD>  (1) 
1

>  <PUBCHEM_CONFORMER_DIVERSEORDER>  (1) 
4
280
221
110
122
127
242
297
272
254
123
290
261
417
64
361
266
262
301
366
352
192
305
407
178
181
96
376
88
231
224
79
239
273
67
165
104
389
316
106
218
250
328
409
246
380
102
230
222
77
320
277
220
392
33
255
11
212
405
167
58
285
233
125
408
241
375
162
138
374
391
226
105
177
300
117
238
274
214
196
109
343
240
338
160
364
235
213
184
258
194
108
124
293
34
22
227
131
329
363
418
50
414
65
340
21
66
253
341
152
396
424
286
208
325
403
415
40
332
331
264
73
85
398
319
209
416
132
370
413
155
268
383
139
379
26
393
299
113
200
269
135
295
308
323
151
278
70
164
234
173
388
158
395
143
202
179
174
153
223
342
137
60
402
307
80
6
229
166
175
406
378
419
357
78
318
188
62
203
358
248
98
115
397
163
97
150
236
330
317
13
133
54
377
119
185
288
360
356
384
142
303
232
48
193
74
228
394
83
382
103
101
372
217
171
337
3
321
52
183
93
182
100
61
344
17
420
118
148
310
283
422
130
247
91
43
82
271
362
368
176
190
354
401
134
16
129
400
146
9
252
145
251
90
294
216
116
335
84
205
336
381
306
55
69
313
327
350
10
15
302
120
38
157
168
18
256
147
111
292
46
369
225
373
311
41
281
237
87
204
259
282
59
49
276
244
140
32
128
315
197
28
180
186
267
114
215
8
199
312
425
270
263
257
287
367
53
399
2
56
161
351
404
29
76
44
12
211
86
5
348
169
390
39
149
187
121
51
284
249
7
126
95
201
191
24
265
75
304
198
25
195
136
71
410
45
94
23
189
347
279
81
346
27
107
353
371
333
359
20
326
207
92
355
89
206
296
210
243
260
14
339
99
387
57
324
19
170
309
154
421
291
37
314
159
386
72
298
156
365
411
42
1
30
322
141
423
245
68
112
35
219
144
412
385
172
334
31
47
349
63
289
36
275
345

>  <PUBCHEM_MMFF94_PARTIAL_CHARGES>  (1) 
35
1 -0.68
10 -0.68
11 -0.68
12 0.28
16 0.06
17 0.28
18 0.14
2 -0.68
29 0.28
3 -0.56
30 0.45
31 -0.28
32 0.42
33 -0.14
34 0.56
35 0.71
36 0.28
37 0.28
38 0.28
39 0.28
4 -0.57
40 0.28
5 -0.43
6 -0.56
66 0.4
67 0.06
68 0.4
7 -0.57
71 0.15
77 0.4
8 -0.68
80 0.4
81 0.4
82 0.4
9 -0.68

>  <PUBCHEM_EFFECTIVE_ROTOR_COUNT>  (1) 
8.8

>  <PUBCHEM_PHARMACOPHORE_FEATURES>  (1) 
22
1 1 acceptor
1 1 donor
1 10 acceptor
1 10 donor
1 11 acceptor
1 11 donor
1 2 acceptor
1 2 donor
1 3 acceptor
1 4 acceptor
1 6 acceptor
1 7 acceptor
1 8 acceptor
1 8 donor
1 9 acceptor
1 9 donor
5 12 14 18 21 24 rings
5 5 31 32 33 35 rings
6 12 13 14 15 19 20 rings
6 13 15 16 17 22 23 rings
6 16 17 25 26 28 29 rings
6 6 34 36 37 38 39 rings

>  <PUBCHEM_HEAVY_ATOM_COUNT>  (1) 
40

>  <PUBCHEM_ATOM_DEF_STEREO_COUNT>  (1) 
8

>  <PUBCHEM_ATOM_UDEF_STEREO_COUNT>  (1) 
5

>  <PUBCHEM_BOND_DEF_STEREO_COUNT>  (1) 
0

>  <PUBCHEM_BOND_UDEF_STEREO_COUNT>  (1) 
0

>  <PUBCHEM_ISOTOPIC_ATOM_COUNT>  (1) 
0

>  <PUBCHEM_COMPONENT_COUNT>  (1) 
1

>  <PUBCHEM_CACTVS_TAUTO_COUNT>  (1) 
1

>  <PUBCHEM_CONFORMER_ID>  (1) 
0000574A00000004

>  <PUBCHEM_MMFF94_ENERGY>  (1) 
138.2658

>  <PUBCHEM_FEATURE_SELFOVERLAP>  (1) 
111.963

>  <PUBCHEM_SHAPE_FINGERPRINT>  (1) 
10 15 11312058746872689661
10165383 225 14923943449401498489
10670039 82 18187358814979645869
10674148 151 18186517705178645257
11135926 11 17895180117793988663
11991303 11 11891344161464710008
12516196 113 16988567909078785416
13533116 47 18411140213294184114
13782708 43 18272645791954880794
13811026 1 18334574620859317718
14068700 675 17632296795717886801
14150023 79 12035719907989770952
14251764 18 13542466475302617237
14294032 229 17241318054779183541
14856354 85 16630245895791879325
15064986 266 18188503384016891460
15082195 135 17895489102452683036
15131766 46 16125532778385303832
15183329 4 16370723730003235836
15439362 3 17974572699513396036
15849732 13 14979960276506907245
18608769 82 17822010943691708275
19611394 137 10737583700333351541
19841028 212 18261388898312824562
19958102 18 17603866672377869550
20105231 36 18188775072272792435
21033648 29 11819570289282720404
22224240 67 11959731572856479557
23559900 14 18339073917262052945
24771293 8 10015591618989662539
24771750 20 17391655636490417660
2838139 119 13045939139980101054
3009799 131 18412265064163051768
3633792 109 17675930902588065260
4098825 35 18040712533386529079
4325135 7 17561083622789545478
439807 62 18411417293938673462
45266715 3 17385444281321689250
5219985 9 17847059978044327057
59755656 520 14562809997503624755
6081469 158 16702026361264969821
6523845 18 14996278158813237549
6691757 9 16056603197077606047
9962374 69 16844999226449487439

>  <PUBCHEM_SHAPE_MULTIPOLES>  (1) 
758.62
24.07
2.37
1.74
3.95
0.66
0.54
4.87
-6.63
-2.57
0.19
-0.02
-0.45
0.31

>  <PUBCHEM_SHAPE_SELFOVERLAP>  (1) 
1641.936

>  <PUBCHEM_SHAPE_VOLUME>  (1) 
409.5

>  <PUBCHEM_COORDINATE_TYPE>  (1) 
2
5
10

$$$$
