22351
     RDKit          3D

 15 15  0  0  0  0  0  0  0  0999 V2000
    5.2467    0.3547    0.8529 Br  0  0  0  0  0  0  0  0  0  0  0  0
   -0.5508    0.0845   -0.9585 N   0  0  0  0  0  0  0  0  0  0  0  0
   -1.3101    0.1382    0.0339 N   0  0  0  0  0  0  0  0  0  0  0  0
   -3.7503   -2.0588    0.7407 N   0  0  0  0  0  0  0  0  0  0  0  0
   -3.8128    2.3381    0.4551 N   0  0  0  0  0  0  0  0  0  0  0  0
    1.4838   -1.0397   -0.2490 C   0  0  0  0  0  0  0  0  0  0  0  0
    0.7848    0.1319   -0.5399 C   0  0  0  0  0  0  0  0  0  0  0  0
    2.8140   -0.9735    0.1658 C   0  0  0  0  0  0  0  0  0  0  0  0
    1.4159    1.3696   -0.4162 C   0  0  0  0  0  0  0  0  0  0  0  0
    0.8288   -2.3764   -0.3745 C   0  0  0  0  0  0  0  0  0  0  0  0
    3.4451    0.2643    0.2896 C   0  0  0  0  0  0  0  0  0  0  0  0
    2.7460    1.4358   -0.0015 C   0  0  0  0  0  0  0  0  0  0  0  0
   -2.7190    0.0929   -0.3554 C   0  0  0  0  0  0  0  0  0  0  0  0
   -3.2936   -1.1071    0.2580 C   0  0  0  0  0  0  0  0  0  0  0  0
   -3.3285    1.3454    0.0987 C   0  0  0  0  0  0  0  0  0  0  0  0
  1 11  1  0
  2  3  2  0
  2  7  1  0
  3 13  1  0
  4 14  3  0
  5 15  3  0
  6  7  2  0
  6  8  1  0
  6 10  1  0
  7  9  1  0
  8 11  2  0
  9 12  2  0
 11 12  1  0
 13 14  1  0
 13 15  1  0
M  END
>  <PUBCHEM_COMPOUND_CID>  (1) 
22351

>  <PUBCHEM_CONFORMER_RMSD>  (1) 
0.6

>  <PUBCHEM_CONFORMER_DIVERSEORDER>  (1) 
1
3
9
4
11
10
7
5
6
2
8

>  <PUBCHEM_MMFF94_PARTIAL_CHARGES>  (1) 
18
1 -0.11
10 0.14
11 0.11
12 -0.15
13 0.65
14 0.36
15 0.36
16 0.15
17 0.15
2 -0.18
21 0.15
3 -0.25
4 -0.56
5 -0.56
6 -0.14
7 0.18
8 -0.15
9 -0.15

>  <PUBCHEM_EFFECTIVE_ROTOR_COUNT>  (1) 
2

>  <PUBCHEM_PHARMACOPHORE_FEATURES>  (1) 
4
1 1 hydrophobe
1 4 acceptor
1 5 acceptor
6 6 7 8 9 11 12 rings

>  <PUBCHEM_HEAVY_ATOM_COUNT>  (1) 
15

>  <PUBCHEM_ATOM_DEF_STEREO_COUNT>  (1) 
0

>  <PUBCHEM_ATOM_UDEF_STEREO_COUNT>  (1) 
0

>  <PUBCHEM_BOND_DEF_STEREO_COUNT>  (1) 
0

>  <PUBCHEM_BOND_UDEF_STEREO_COUNT>  (1) 
0

>  <PUBCHEM_ISOTOPIC_ATOM_COUNT>  (1) 
0

>  <PUBCHEM_COMPONENT_COUNT>  (1) 
1

>  <PUBCHEM_CACTVS_TAUTO_COUNT>  (1) 
1

>  <PUBCHEM_CONFORMER_ID>  (1) 
0000574F00000001

>  <PUBCHEM_MMFF94_ENERGY>  (1) 
25.5902

>  <PUBCHEM_FEATURE_SELFOVERLAP>  (1) 
20.297

>  <PUBCHEM_SHAPE_FINGERPRINT>  (1) 
10465860 228 18271248192622647500
10608611 8 18411419488456218461
11132069 177 18261391118055684732
12251169 10 18335700576226351255
12382932 28 18339081493119911923
12500047 106 18337387141622994981
12507560 40 18201160970555564743
13214271 11 18412820283180745181
13675066 3 18131630097657365772
14178342 30 18261398827796229043
19050596 39 18409453621853156969
200 152 18270387395773101319
20281475 54 17967814925149623190
20645477 70 17488461875669517686
21637258 2 15575534926690181656
23402539 116 16443055097883017596
23559900 14 18269554940737617594
26918003 58 18188205511440815059
2748010 2 18049702046345740292
2916195 48 17774707775763430992
3286 77 18188769581985022796
3545911 37 18412547574559521397
5104073 3 18411416181294387130
9709674 26 18341055121151150039

>  <PUBCHEM_SHAPE_MULTIPOLES>  (1) 
294.71
8.98
2.16
0.82
0.91
0.34
-0.02
-1.75
-3.08
-1.7
-0.15
0.12
0.03
0.23

>  <PUBCHEM_SHAPE_SELFOVERLAP>  (1) 
595.077

>  <PUBCHEM_SHAPE_VOLUME>  (1) 
174.7

>  <PUBCHEM_COORDINATE_TYPE>  (1) 
2
5
10

$$$$
