22354
     RDKit          3D

 15 15  0  0  0  0  0  0  0  0999 V2000
   -0.7306   -2.7349   -0.3613 Br  0  0  0  0  0  0  0  0  0  0  0  0
    0.5096    0.0969   -0.9535 N   0  0  0  0  0  0  0  0  0  0  0  0
    1.2758    0.1591    0.0327 N   0  0  0  0  0  0  0  0  0  0  0  0
    3.7774    2.3669    0.4178 N   0  0  0  0  0  0  0  0  0  0  0  0
    3.7260   -2.0278    0.7355 N   0  0  0  0  0  0  0  0  0  0  0  0
   -3.4766    0.3053    0.3233 C   0  0  0  0  0  0  0  0  0  0  0  0
   -0.8237    0.1422   -0.5240 C   0  0  0  0  0  0  0  0  0  0  0  0
   -2.8569   -0.9390    0.2071 C   0  0  0  0  0  0  0  0  0  0  0  0
   -2.7698    1.4680    0.0159 C   0  0  0  0  0  0  0  0  0  0  0  0
   -1.5304   -1.0205   -0.2166 C   0  0  0  0  0  0  0  0  0  0  0  0
   -1.4434    1.3865   -0.4077 C   0  0  0  0  0  0  0  0  0  0  0  0
   -4.8950    0.3933    0.7760 C   0  0  0  0  0  0  0  0  0  0  0  0
    2.6817    0.1138   -0.3676 C   0  0  0  0  0  0  0  0  0  0  0  0
    3.2922    1.3708    0.0725 C   0  0  0  0  0  0  0  0  0  0  0  0
    3.2636   -1.0806    0.2498 C   0  0  0  0  0  0  0  0  0  0  0  0
  1 10  1  0
  2  3  2  0
  2  7  1  0
  3 13  1  0
  4 14  3  0
  5 15  3  0
  6  8  2  0
  6  9  1  0
  6 12  1  0
  7 10  2  0
  7 11  1  0
  8 10  1  0
  9 11  2  0
 13 14  1  0
 13 15  1  0
M  END
>  <PUBCHEM_COMPOUND_CID>  (1) 
22354

>  <PUBCHEM_CONFORMER_RMSD>  (1) 
0.6

>  <PUBCHEM_CONFORMER_DIVERSEORDER>  (1) 
1
3
4
11
9
7
8
5
6
2
10

>  <PUBCHEM_MMFF94_PARTIAL_CHARGES>  (1) 
18
1 -0.11
10 0.11
11 -0.15
12 0.14
13 0.65
14 0.36
15 0.36
16 0.15
17 0.15
18 0.15
2 -0.18
3 -0.25
4 -0.56
5 -0.56
6 -0.14
7 0.18
8 -0.15
9 -0.15

>  <PUBCHEM_EFFECTIVE_ROTOR_COUNT>  (1) 
2

>  <PUBCHEM_PHARMACOPHORE_FEATURES>  (1) 
4
1 1 hydrophobe
1 4 acceptor
1 5 acceptor
6 6 7 8 9 10 11 rings

>  <PUBCHEM_HEAVY_ATOM_COUNT>  (1) 
15

>  <PUBCHEM_ATOM_DEF_STEREO_COUNT>  (1) 
0

>  <PUBCHEM_ATOM_UDEF_STEREO_COUNT>  (1) 
0

>  <PUBCHEM_BOND_DEF_STEREO_COUNT>  (1) 
0

>  <PUBCHEM_BOND_UDEF_STEREO_COUNT>  (1) 
0

>  <PUBCHEM_ISOTOPIC_ATOM_COUNT>  (1) 
0

>  <PUBCHEM_COMPONENT_COUNT>  (1) 
1

>  <PUBCHEM_CACTVS_TAUTO_COUNT>  (1) 
1

>  <PUBCHEM_CONFORMER_ID>  (1) 
0000575200000001

>  <PUBCHEM_MMFF94_ENERGY>  (1) 
25.7474

>  <PUBCHEM_FEATURE_SELFOVERLAP>  (1) 
20.297

>  <PUBCHEM_SHAPE_FINGERPRINT>  (1) 
12251169 10 18410851049676900734
12507560 40 18187079529370541685
12592029 89 18266184941703866131
13675066 3 17894916230665513873
14178342 30 18119801663187428658
14445660 50 18339926033819072996
15669948 3 18129940212224882174
17804303 29 18263367984280974966
18186145 218 18343303643445547092
19050596 39 18337386145190478472
20510252 161 18272376369131455425
20528008 55 18412543240805527629
21501502 16 18270953656729693022
23402539 116 18343294839479930781
23463225 33 18261395503096124110
23559900 14 18060149721380370510
2748010 2 17902247619965654965
42 15 18187651262663685619
45790113 53 18264200331773438084
5104073 3 18410298012444689403
5374978 207 18408603660425571369
633830 44 17988370277924931637
69090 78 18411697699247247655
7364860 26 18412262831508045134

>  <PUBCHEM_SHAPE_MULTIPOLES>  (1) 
294.71
8.2
2.44
0.8
0.87
0.94
0.02
-2.2
-2.49
1.41
-0.07
-0.06
0.06
-0.27

>  <PUBCHEM_SHAPE_SELFOVERLAP>  (1) 
594.858

>  <PUBCHEM_SHAPE_VOLUME>  (1) 
175.2

>  <PUBCHEM_COORDINATE_TYPE>  (1) 
2
5
10

$$$$
