22359
     RDKit          3D

 16 16  0  0  0  0  0  0  0  0999 V2000
   -0.5723    2.8805   -0.5484 Br  0  0  0  0  0  0  0  0  0  0  0  0
   -0.5711   -2.8795   -0.5502 Br  0  0  0  0  0  0  0  0  0  0  0  0
   -5.2247   -0.0007    0.9263 Br  0  0  0  0  0  0  0  0  0  0  0  0
    0.5749    0.0009   -0.9128 N   0  0  0  0  0  0  0  0  0  0  0  0
    1.3327    0.0006    0.0807 N   0  0  0  0  0  0  0  0  0  0  0  0
    3.8067    2.2027    0.6384 N   0  0  0  0  0  0  0  0  0  0  0  0
    3.8041   -2.2039    0.6398 N   0  0  0  0  0  0  0  0  0  0  0  0
   -0.7635    0.0005   -0.4884 C   0  0  0  0  0  0  0  0  0  0  0  0
   -1.4287    1.2083   -0.2772 C   0  0  0  0  0  0  0  0  0  0  0  0
   -1.4282   -1.2078   -0.2780 C   0  0  0  0  0  0  0  0  0  0  0  0
   -2.7583    1.2078    0.1445 C   0  0  0  0  0  0  0  0  0  0  0  0
   -2.7579   -1.2080    0.1437 C   0  0  0  0  0  0  0  0  0  0  0  0
   -3.4230   -0.0003    0.3548 C   0  0  0  0  0  0  0  0  0  0  0  0
    2.7410   -0.0003   -0.3132 C   0  0  0  0  0  0  0  0  0  0  0  0
    3.3348    1.2286    0.2196 C   0  0  0  0  0  0  0  0  0  0  0  0
    3.3334   -1.2294    0.2203 C   0  0  0  0  0  0  0  0  0  0  0  0
  1  9  1  0
  2 10  1  0
  3 13  1  0
  4  5  2  0
  4  8  1  0
  5 14  1  0
  6 15  3  0
  7 16  3  0
  8  9  2  0
  8 10  1  0
  9 11  1  0
 10 12  2  0
 11 13  2  0
 12 13  1  0
 14 15  1  0
 14 16  1  0
M  END
>  <PUBCHEM_COMPOUND_CID>  (1) 
22359

>  <PUBCHEM_CONFORMER_RMSD>  (1) 
0.6

>  <PUBCHEM_CONFORMER_DIVERSEORDER>  (1) 
1
2
3
5
6
4

>  <PUBCHEM_MMFF94_PARTIAL_CHARGES>  (1) 
18
1 -0.11
10 0.11
11 -0.15
12 -0.15
13 0.11
14 0.65
15 0.36
16 0.36
17 0.15
18 0.15
2 -0.11
3 -0.11
4 -0.18
5 -0.25
6 -0.56
7 -0.56
8 0.18
9 0.11

>  <PUBCHEM_EFFECTIVE_ROTOR_COUNT>  (1) 
2

>  <PUBCHEM_PHARMACOPHORE_FEATURES>  (1) 
6
1 1 hydrophobe
1 2 hydrophobe
1 3 hydrophobe
1 6 acceptor
1 7 acceptor
6 8 9 10 11 12 13 rings

>  <PUBCHEM_HEAVY_ATOM_COUNT>  (1) 
16

>  <PUBCHEM_ATOM_DEF_STEREO_COUNT>  (1) 
0

>  <PUBCHEM_ATOM_UDEF_STEREO_COUNT>  (1) 
0

>  <PUBCHEM_BOND_DEF_STEREO_COUNT>  (1) 
0

>  <PUBCHEM_BOND_UDEF_STEREO_COUNT>  (1) 
0

>  <PUBCHEM_ISOTOPIC_ATOM_COUNT>  (1) 
0

>  <PUBCHEM_COMPONENT_COUNT>  (1) 
1

>  <PUBCHEM_CACTVS_TAUTO_COUNT>  (1) 
1

>  <PUBCHEM_CONFORMER_ID>  (1) 
0000575700000001

>  <PUBCHEM_MMFF94_ENERGY>  (1) 
26.1596

>  <PUBCHEM_FEATURE_SELFOVERLAP>  (1) 
30.446

>  <PUBCHEM_SHAPE_FINGERPRINT>  (1) 
11132069 177 18336266825094477021
12251169 10 18411982502628407916
12507560 40 18260827072753857557
12633257 1 18202285775303951090
13140716 1 18410578344743768755
13675066 3 18040157322964161779
14178342 30 18051681445937044666
17804303 29 18265338304907397790
20510252 161 18272092673551229161
21501502 16 18200302333821509774
23184049 59 18410863170037602287
23402539 116 18342450410159769031
23463225 33 18335424542994362207
23559900 14 18408599241225925012
2748010 2 18049178670194584517
34934 24 18337667645472710820
350125 39 18338239250112489012
45790113 53 18339073775153312804
5104073 3 18410299094850171121
5374978 207 18408602560824149424
633830 44 17917720067333961869

>  <PUBCHEM_SHAPE_MULTIPOLES>  (1) 
327.18
8.16
2.99
0.87
0.42
0
0
0
-3.36
-1.38
0.38
0.15
0
0

>  <PUBCHEM_SHAPE_SELFOVERLAP>  (1) 
636.737

>  <PUBCHEM_SHAPE_VOLUME>  (1) 
202.5

>  <PUBCHEM_COORDINATE_TYPE>  (1) 
2
5
10

$$$$
