22355
     RDKit          3D

 17 17  0  0  0  0  0  0  0  0999 V2000
   -0.2835    2.9362   -0.1964 Br  0  0  0  0  0  0  0  0  0  0  0  0
    4.1403    0.1718    0.0384 O   0  0  0  0  0  0  0  0  0  0  0  0
   -1.3073    0.0784   -1.0272 N   0  0  0  0  0  0  0  0  0  0  0  0
   -1.9411   -0.1875    0.0175 N   0  0  0  0  0  0  0  0  0  0  0  0
   -4.1556   -2.6883    0.3680 N   0  0  0  0  0  0  0  0  0  0  0  0
   -4.4883    1.6139    1.2613 N   0  0  0  0  0  0  0  0  0  0  0  0
    2.8039    0.1581   -0.2195 C   0  0  0  0  0  0  0  0  0  0  0  0
    2.0580    1.3310   -0.1026 C   0  0  0  0  0  0  0  0  0  0  0  0
    2.1806   -1.0295   -0.6024 C   0  0  0  0  0  0  0  0  0  0  0  0
    0.0656    0.1286   -0.7515 C   0  0  0  0  0  0  0  0  0  0  0  0
    0.6889    1.3163   -0.3686 C   0  0  0  0  0  0  0  0  0  0  0  0
    0.8114   -1.0444   -0.8682 C   0  0  0  0  0  0  0  0  0  0  0  0
    4.7166   -1.0320    0.5428 C   0  0  0  0  0  0  0  0  0  0  0  0
    5.9044   -0.6828    1.4140 C   0  0  0  0  0  0  0  0  0  0  0  0
   -3.3825   -0.2493   -0.2218 C   0  0  0  0  0  0  0  0  0  0  0  0
   -3.8129   -1.6101    0.1091 C   0  0  0  0  0  0  0  0  0  0  0  0
   -3.9984    0.7896    0.6074 C   0  0  0  0  0  0  0  0  0  0  0  0
  1 11  1  0
  2  7  1  0
  2 13  1  0
  3  4  2  0
  3 10  1  0
  4 15  1  0
  5 16  3  0
  6 17  3  0
  7  8  2  0
  7  9  1  0
  8 11  1  0
  9 12  2  0
 10 11  2  0
 10 12  1  0
 13 14  1  0
 15 16  1  0
 15 17  1  0
M  END
>  <PUBCHEM_COMPOUND_CID>  (1) 
22355

>  <PUBCHEM_CONFORMER_RMSD>  (1) 
0.6

>  <PUBCHEM_CONFORMER_DIVERSEORDER>  (1) 
1
19
57
28
33
37
14
58
3
42
36
31
23
9
40
59
39
61
11
5
15
35
29
24
25
7
60
53
38
55
10
51
8
56
45
22
18
49
32
20
54
30
27
6
48
21
17
52
46
26
44
41
47
34
12
43
2
16
50
4
13

>  <PUBCHEM_MMFF94_PARTIAL_CHARGES>  (1) 
19
1 -0.11
10 0.18
11 0.11
12 -0.15
13 0.28
15 0.65
16 0.36
17 0.36
18 0.15
19 0.15
2 -0.36
20 0.15
3 -0.18
4 -0.25
5 -0.56
6 -0.56
7 0.08
8 -0.15
9 -0.15

>  <PUBCHEM_EFFECTIVE_ROTOR_COUNT>  (1) 
4

>  <PUBCHEM_PHARMACOPHORE_FEATURES>  (1) 
5
1 1 hydrophobe
1 2 acceptor
1 5 acceptor
1 6 acceptor
6 7 8 9 10 11 12 rings

>  <PUBCHEM_HEAVY_ATOM_COUNT>  (1) 
17

>  <PUBCHEM_ATOM_DEF_STEREO_COUNT>  (1) 
0

>  <PUBCHEM_ATOM_UDEF_STEREO_COUNT>  (1) 
0

>  <PUBCHEM_BOND_DEF_STEREO_COUNT>  (1) 
0

>  <PUBCHEM_BOND_UDEF_STEREO_COUNT>  (1) 
0

>  <PUBCHEM_ISOTOPIC_ATOM_COUNT>  (1) 
0

>  <PUBCHEM_COMPONENT_COUNT>  (1) 
1

>  <PUBCHEM_CACTVS_TAUTO_COUNT>  (1) 
1

>  <PUBCHEM_CONFORMER_ID>  (1) 
0000575300000001

>  <PUBCHEM_MMFF94_ENERGY>  (1) 
35.5666

>  <PUBCHEM_FEATURE_SELFOVERLAP>  (1) 
25.373

>  <PUBCHEM_SHAPE_FINGERPRINT>  (1) 
10912923 1 18260272979333957636
12251169 10 18340498815638391701
12596602 18 18271800242487266098
12633257 1 18408328774234569809
12670543 26 8646499556945520506
12670546 177 10737296722812158522
13140716 1 18413389856042756713
13214271 11 18273493464207226045
13583140 156 15051719902629704399
13675066 3 17632580452601046630
14178342 30 18341342123697795463
14252887 29 17988650692203105686
14911166 2 7997682130403479134
15209294 21 17418087690021379600
15375462 189 17894910706841699402
1813 80 17604161336903143724
19784866 170 18201723907803282956
200 152 16008749070374733620
20028762 73 18057320802132312591
20281475 54 18187087290439391909
20645477 70 14273745010770127074
20681677 274 18121784095663967131
21421861 104 17898574168069403922
21637258 2 16805868651083268754
22182313 1 17915460485387787252
23402539 116 18335695031528950238
26918003 58 18410288103585813103
2748010 2 17913205356948015268
2838139 119 12535623895398236378
3286 77 18263645233025463279
3759504 43 12103551022765192052
4409770 3 17970333829164726165
4990 188 12035448324754408114
5104073 3 18339927111829608201
5486654 36 18113909298817453595
56616090 284 12901548997204769680
76465 3 18113892809910632386

>  <PUBCHEM_SHAPE_MULTIPOLES>  (1) 
330
10.69
2.41
1.02
4.56
0.79
0.15
-4.81
5.48
-2.2
0.15
0.27
0
-0.68

>  <PUBCHEM_SHAPE_SELFOVERLAP>  (1) 
662.843

>  <PUBCHEM_SHAPE_VOLUME>  (1) 
196.8

>  <PUBCHEM_COORDINATE_TYPE>  (1) 
2
5
10

$$$$
