22363
     RDKit          3D

 19 19  0  0  0  0  0  0  0  0999 V2000
    4.0701    0.9133    0.0668 O   0  0  0  0  0  0  0  0  0  0  0  0
    1.0981   -2.9897   -0.5448 O   0  0  0  0  0  0  0  0  0  0  0  0
   -0.9084   -2.1620   -0.8733 O   0  0  0  0  0  0  0  0  0  0  0  0
    0.3174   -2.0154   -0.6566 N   0  0  0  0  0  0  0  0  0  0  0  0
   -1.3608    0.2780   -0.8959 N   0  0  0  0  0  0  0  0  0  0  0  0
   -1.9808    0.2095    0.1878 N   0  0  0  0  0  0  0  0  0  0  0  0
   -4.3457   -1.3534    1.9893 N   0  0  0  0  0  0  0  0  0  0  0  0
   -4.4240    2.4856   -0.1725 N   0  0  0  0  0  0  0  0  0  0  0  0
    2.7394    0.7503   -0.1676 C   0  0  0  0  0  0  0  0  0  0  0  0
    0.8406   -0.6982   -0.5325 C   0  0  0  0  0  0  0  0  0  0  0  0
    2.2042   -0.5318   -0.2908 C   0  0  0  0  0  0  0  0  0  0  0  0
    0.0121    0.4177   -0.6510 C   0  0  0  0  0  0  0  0  0  0  0  0
    1.9109    1.8662   -0.2861 C   0  0  0  0  0  0  0  0  0  0  0  0
    0.5471    1.6999   -0.5276 C   0  0  0  0  0  0  0  0  0  0  0  0
    4.7306   -0.1152    0.8030 C   0  0  0  0  0  0  0  0  0  0  0  0
    5.8864    0.4915    1.5696 C   0  0  0  0  0  0  0  0  0  0  0  0
   -3.4213    0.0638   -0.0184 C   0  0  0  0  0  0  0  0  0  0  0  0
   -3.9360   -0.7257    1.1032 C   0  0  0  0  0  0  0  0  0  0  0  0
   -3.9798    1.4157   -0.1027 C   0  0  0  0  0  0  0  0  0  0  0  0
  1  9  1  0
  1 15  1  0
  2  4  1  0
  3  4  2  0
  4 10  1  0
  5  6  2  0
  5 12  1  0
  6 17  1  0
  7 18  3  0
  8 19  3  0
  9 11  2  0
  9 13  1  0
 10 11  1  0
 10 12  2  0
 12 14  1  0
 13 14  2  0
 15 16  1  0
 17 18  1  0
 17 19  1  0
M  CHG  2   2  -1   4   1
M  END
>  <PUBCHEM_COMPOUND_CID>  (1) 
22363

>  <PUBCHEM_CONFORMER_RMSD>  (1) 
0.8

>  <PUBCHEM_CONFORMER_DIVERSEORDER>  (1) 
1
9
18
8
16
3
10
15
5
2
13
14
7
4
6
17
12
11

>  <PUBCHEM_MMFF94_PARTIAL_CHARGES>  (1) 
21
1 -0.36
10 0.13
11 -0.15
12 0.18
13 -0.15
14 -0.15
15 0.28
17 0.65
18 0.36
19 0.36
2 -0.52
20 0.15
21 0.15
22 0.15
3 -0.52
4 0.91
5 -0.18
6 -0.25
7 -0.56
8 -0.56
9 0.08

>  <PUBCHEM_EFFECTIVE_ROTOR_COUNT>  (1) 
5

>  <PUBCHEM_PHARMACOPHORE_FEATURES>  (1) 
7
1 1 acceptor
1 2 acceptor
1 2 anion
1 3 acceptor
1 7 acceptor
1 8 acceptor
6 9 10 11 12 13 14 rings

>  <PUBCHEM_HEAVY_ATOM_COUNT>  (1) 
19

>  <PUBCHEM_ATOM_DEF_STEREO_COUNT>  (1) 
0

>  <PUBCHEM_ATOM_UDEF_STEREO_COUNT>  (1) 
0

>  <PUBCHEM_BOND_DEF_STEREO_COUNT>  (1) 
0

>  <PUBCHEM_BOND_UDEF_STEREO_COUNT>  (1) 
0

>  <PUBCHEM_ISOTOPIC_ATOM_COUNT>  (1) 
0

>  <PUBCHEM_COMPONENT_COUNT>  (1) 
1

>  <PUBCHEM_CACTVS_TAUTO_COUNT>  (1) 
1

>  <PUBCHEM_CONFORMER_ID>  (1) 
0000575B00000001

>  <PUBCHEM_MMFF94_ENERGY>  (1) 
51.1421

>  <PUBCHEM_FEATURE_SELFOVERLAP>  (1) 
35.606

>  <PUBCHEM_SHAPE_FINGERPRINT>  (1) 
10493431 412 18342166800441952106
11132069 177 18272650164505778046
12403259 118 18334293184226537613
12403260 363 18338512066598713429
13140716 1 18267295629178976080
13583140 156 17604132805393295199
13675066 3 18343021099122310332
14178342 30 17895206467602205883
14466204 15 18341887442452420600
17959699 21 12823294624315243626
18186145 218 17775019989156226229
19784866 170 18337954489264289948
19784866 240 14779555634055395747
20261772 1 18338802328756667154
20645477 70 17987519204464339207
21452121 103 18199462178241551910
21637258 2 15719660044361179992
22182313 1 18266734672042830092
23402539 116 18059278929625168988
23559900 14 17971487199397407750
25147074 1 18050281772235905916
2748010 2 18122900924499485412
2838139 119 15051729824563243448
465052 167 17822863090076220514
5104073 3 18266186028746700137
58807428 26 18412535527519446418
9709674 26 18336274440546188079
9862522 239 18341886411633220167

>  <PUBCHEM_SHAPE_MULTIPOLES>  (1) 
348.5
10.25
2.36
1.18
3.31
0.75
-0.53
-2.72
-6.28
-1.26
0.54
-0.13
0.41
0.94

>  <PUBCHEM_SHAPE_SELFOVERLAP>  (1) 
722.844

>  <PUBCHEM_SHAPE_VOLUME>  (1) 
195.3

>  <PUBCHEM_COORDINATE_TYPE>  (1) 
2
5
10

$$$$
