22362
     RDKit          3D

 17 17  0  0  0  0  0  0  0  0999 V2000
    4.5725    1.4733    0.5366 O   0  0  0  0  0  0  0  0  0  0  0  0
    4.7037   -0.7179    0.5439 O   0  0  0  0  0  0  0  0  0  0  0  0
    4.0531    0.3422    0.3868 N   0  0  0  0  0  0  0  0  0  0  0  0
   -1.3681    0.0844   -1.0342 N   0  0  0  0  0  0  0  0  0  0  0  0
   -2.0793    0.0521   -0.0048 N   0  0  0  0  0  0  0  0  0  0  0  0
   -4.4246   -2.2543    0.6737 N   0  0  0  0  0  0  0  0  0  0  0  0
   -4.6116    2.1484    0.6829 N   0  0  0  0  0  0  0  0  0  0  0  0
    2.0582   -0.9774   -0.1514 C   0  0  0  0  0  0  0  0  0  0  0  0
    2.6797    0.2587    0.0270 C   0  0  0  0  0  0  0  0  0  0  0  0
    0.7100   -1.0355   -0.5048 C   0  0  0  0  0  0  0  0  0  0  0  0
   -0.0166    0.1424   -0.6797 C   0  0  0  0  0  0  0  0  0  0  0  0
    1.9529    1.4364   -0.1481 C   0  0  0  0  0  0  0  0  0  0  0  0
    0.6048    1.3783   -0.5013 C   0  0  0  0  0  0  0  0  0  0  0  0
    2.8084   -2.2575    0.0283 C   0  0  0  0  0  0  0  0  0  0  0  0
   -3.5045   -0.0078   -0.3268 C   0  0  0  0  0  0  0  0  0  0  0  0
   -4.0170   -1.2608    0.2333 C   0  0  0  0  0  0  0  0  0  0  0  0
   -4.1214    1.1949    0.2385 C   0  0  0  0  0  0  0  0  0  0  0  0
  1  3  1  0
  2  3  2  0
  3  9  1  0
  4  5  2  0
  4 11  1  0
  5 15  1  0
  6 16  3  0
  7 17  3  0
  8  9  2  0
  8 10  1  0
  8 14  1  0
  9 12  1  0
 10 11  2  0
 11 13  1  0
 12 13  2  0
 15 16  1  0
 15 17  1  0
M  CHG  2   1  -1   3   1
M  END
>  <PUBCHEM_COMPOUND_CID>  (1) 
22362

>  <PUBCHEM_CONFORMER_RMSD>  (1) 
0.6

>  <PUBCHEM_CONFORMER_DIVERSEORDER>  (1) 
1
3
4
9
2
7
10
8
5
6

>  <PUBCHEM_MMFF94_PARTIAL_CHARGES>  (1) 
20
1 -0.52
10 -0.15
11 0.18
12 -0.15
13 -0.15
14 0.14
15 0.65
16 0.36
17 0.36
18 0.15
19 0.15
2 -0.52
20 0.15
3 0.91
4 -0.18
5 -0.25
6 -0.56
7 -0.56
8 -0.14
9 0.13

>  <PUBCHEM_EFFECTIVE_ROTOR_COUNT>  (1) 
3

>  <PUBCHEM_PHARMACOPHORE_FEATURES>  (1) 
6
1 1 acceptor
1 1 anion
1 2 acceptor
1 6 acceptor
1 7 acceptor
6 8 9 10 11 12 13 rings

>  <PUBCHEM_HEAVY_ATOM_COUNT>  (1) 
17

>  <PUBCHEM_ATOM_DEF_STEREO_COUNT>  (1) 
0

>  <PUBCHEM_ATOM_UDEF_STEREO_COUNT>  (1) 
0

>  <PUBCHEM_BOND_DEF_STEREO_COUNT>  (1) 
0

>  <PUBCHEM_BOND_UDEF_STEREO_COUNT>  (1) 
0

>  <PUBCHEM_ISOTOPIC_ATOM_COUNT>  (1) 
0

>  <PUBCHEM_COMPONENT_COUNT>  (1) 
1

>  <PUBCHEM_CACTVS_TAUTO_COUNT>  (1) 
1

>  <PUBCHEM_CONFORMER_ID>  (1) 
0000575A00000001

>  <PUBCHEM_MMFF94_ENERGY>  (1) 
44.2145

>  <PUBCHEM_FEATURE_SELFOVERLAP>  (1) 
30.53

>  <PUBCHEM_SHAPE_FINGERPRINT>  (1) 
11089746 13 17346020200305312472
11543360 7 8934990469628352789
12107183 9 17835804097522688265
12251169 10 18340205288514086671
12507560 40 18272657831212448279
12892183 10 18342173392641887885
13583140 156 18060695113565449201
13675066 3 18131632291905671228
14178342 30 18261402135232419799
14252887 29 18334014982288875322
14289901 80 18339645645917455315
14341114 176 18411708677368012801
14790565 3 18265621060059416372
15196674 1 18410292514633368010
1813 80 16950572051508664669
19050596 39 18409171012999902909
200 152 18270669978988524415
20281475 54 18114186319570089215
20645477 70 18130782296445453807
20871999 31 8935001443749900337
21065198 57 18410857616523562759
21065199 12 18411985758551098491
21421861 104 17679297464714603178
21637258 2 15647593603033409960
21673915 165 18335419131483781931
23402539 116 15502366816374025903
23559900 14 18270118989949550070
26918003 58 18410288099528209649
3545911 37 18412548682829823861
4214541 1 18409449172499179317
5104073 3 18410571777548843810
5924683 9 18341331176179793707
77779 3 18411983546373902615
90127 26 17988650674616710045

>  <PUBCHEM_SHAPE_MULTIPOLES>  (1) 
313.21
10.32
2.13
0.79
3.87
0.44
-0.06
-0.25
3.13
0.86
0.36
0.12
-0.03
0.11

>  <PUBCHEM_SHAPE_SELFOVERLAP>  (1) 
654.529

>  <PUBCHEM_SHAPE_VOLUME>  (1) 
174.1

>  <PUBCHEM_COORDINATE_TYPE>  (1) 
2
5
10

$$$$
