22366
     RDKit          3D

 17 18  0  0  0  0  0  0  0  0999 V2000
    0.8696    0.4513   -0.9311 N   0  0  0  0  0  0  0  0  0  0  0  0
    1.6177    0.2080    0.0401 N   0  0  0  0  0  0  0  0  0  0  0  0
    4.6555    1.5511    0.5386 N   0  0  0  0  0  0  0  0  0  0  0  0
    3.3196   -2.6481    0.5156 N   0  0  0  0  0  0  0  0  0  0  0  0
   -1.4184   -0.0826   -0.2342 C   0  0  0  0  0  0  0  0  0  0  0  0
   -2.6749    0.3726    0.2316 C   0  0  0  0  0  0  0  0  0  0  0  0
   -0.3943    0.8494   -0.4687 C   0  0  0  0  0  0  0  0  0  0  0  0
   -2.8701    1.7463    0.4495 C   0  0  0  0  0  0  0  0  0  0  0  0
   -1.2233   -1.4562   -0.4517 C   0  0  0  0  0  0  0  0  0  0  0  0
   -3.6990   -0.5592    0.4663 C   0  0  0  0  0  0  0  0  0  0  0  0
   -0.6059    2.2107   -0.2474 C   0  0  0  0  0  0  0  0  0  0  0  0
   -1.8414    2.6582    0.2111 C   0  0  0  0  0  0  0  0  0  0  0  0
   -2.2521   -2.3680   -0.2136 C   0  0  0  0  0  0  0  0  0  0  0  0
   -3.4877   -1.9203    0.2446 C   0  0  0  0  0  0  0  0  0  0  0  0
    2.9491   -0.2131   -0.3942 C   0  0  0  0  0  0  0  0  0  0  0  0
    3.9003    0.7711    0.1282 C   0  0  0  0  0  0  0  0  0  0  0  0
    3.1552   -1.5712    0.1153 C   0  0  0  0  0  0  0  0  0  0  0  0
  1  2  2  0
  1  7  1  0
  2 15  1  0
  3 16  3  0
  4 17  3  0
  5  6  1  0
  5  7  2  0
  5  9  1  0
  6  8  2  0
  6 10  1  0
  7 11  1  0
  8 12  1  0
  9 13  2  0
 10 14  2  0
 11 12  2  0
 13 14  1  0
 15 16  1  0
 15 17  1  0
M  END
>  <PUBCHEM_COMPOUND_CID>  (1) 
22366

>  <PUBCHEM_CONFORMER_RMSD>  (1) 
0.6

>  <PUBCHEM_CONFORMER_DIVERSEORDER>  (1) 
1
11
5
2
6
7
4
9
3
8
10

>  <PUBCHEM_MMFF94_PARTIAL_CHARGES>  (1) 
22
1 -0.18
10 -0.15
11 -0.15
12 -0.15
13 -0.15
14 -0.15
15 0.65
16 0.36
17 0.36
18 0.15
19 0.15
2 -0.25
20 0.15
21 0.15
22 0.15
23 0.15
24 0.15
3 -0.56
4 -0.56
7 0.18
8 -0.15
9 -0.15

>  <PUBCHEM_EFFECTIVE_ROTOR_COUNT>  (1) 
2

>  <PUBCHEM_PHARMACOPHORE_FEATURES>  (1) 
4
1 3 acceptor
1 4 acceptor
6 5 6 7 8 11 12 rings
6 5 6 9 10 13 14 rings

>  <PUBCHEM_HEAVY_ATOM_COUNT>  (1) 
17

>  <PUBCHEM_ATOM_DEF_STEREO_COUNT>  (1) 
0

>  <PUBCHEM_ATOM_UDEF_STEREO_COUNT>  (1) 
0

>  <PUBCHEM_BOND_DEF_STEREO_COUNT>  (1) 
0

>  <PUBCHEM_BOND_UDEF_STEREO_COUNT>  (1) 
0

>  <PUBCHEM_ISOTOPIC_ATOM_COUNT>  (1) 
0

>  <PUBCHEM_COMPONENT_COUNT>  (1) 
1

>  <PUBCHEM_CACTVS_TAUTO_COUNT>  (1) 
1

>  <PUBCHEM_CONFORMER_ID>  (1) 
0000575E00000001

>  <PUBCHEM_MMFF94_ENERGY>  (1) 
38.1591

>  <PUBCHEM_FEATURE_SELFOVERLAP>  (1) 
20.324

>  <PUBCHEM_SHAPE_FINGERPRINT>  (1) 
10366900 7 18129089186151269888
10616163 171 18411423903672315686
12173636 292 18339641114294837773
12251169 10 18342180006828324228
12553582 1 18194414504805052135
12633257 1 18056486045240836034
13140716 1 18266464200170905523
14081887 123 18270107019896483776
14178342 30 18335974303741585808
14289901 80 18409451392812824248
14420673 8 17833834872361962570
15442244 35 18265333915524641570
16945 1 18269012976210442229
17804303 29 18195535783442979422
1813 80 17385448729994489367
19050596 39 18410289207983258392
20442098 301 18411415094731210722
20510252 161 18272656718636681073
20871998 184 18273500082757091021
21637258 2 16082219674572811355
21650355 55 18339923817927353537
2297311 6 18199486492051661804
23402539 116 18272928337243397423
23463225 33 18408891732514220751
23557571 272 18200607972442528908
23559900 14 18340482279840306600
2748010 2 17906197065669550053
3009799 131 18338502149919842015
34934 24 18410850001462280959
4214541 1 18339643339493571952
5104073 3 18411700950579429704
58051976 100 18264772052065980046
58807428 26 17979089188848129489
7097593 13 18335702676903052916
90316 7 18337121089816153317
9709674 26 18199188395319621390

>  <PUBCHEM_SHAPE_MULTIPOLES>  (1) 
329.93
7.74
2.97
0.75
7.29
0.19
0.03
1.31
-1.65
-0.8
-0.26
0.02
-0.01
-0.2

>  <PUBCHEM_SHAPE_SELFOVERLAP>  (1) 
712.16

>  <PUBCHEM_SHAPE_VOLUME>  (1) 
176.3

>  <PUBCHEM_COORDINATE_TYPE>  (1) 
2
5
10

$$$$
