22385
     RDKit          3D

 12 12  0  0  1  0  0  0  0  0999 V2000
   -0.1864    1.5035    0.2411 C   0  0  0  0  0  0  0  0  0  0  0  0
   -1.5393    1.0684   -0.3617 C   0  0  0  0  0  0  0  0  0  0  0  0
   -2.1465   -0.1484    0.3473 C   0  0  0  0  0  0  0  0  0  0  0  0
    0.8961    0.4463    0.1075 C   0  0  0  0  0  0  0  0  0  0  0  0
   -3.5258   -0.4874   -0.2194 C   0  0  0  0  0  0  0  0  0  0  0  0
    0.2752    2.8250   -0.3855 C   0  0  0  0  0  0  0  0  0  0  0  0
    0.9095   -0.3609   -1.0134 C   0  0  0  0  0  0  0  0  0  0  0  0
    1.8379    0.3212    1.1103 C   0  0  0  0  0  0  0  0  0  0  0  0
   -4.1212   -1.7108    0.4591 C   0  0  0  0  0  0  0  0  0  0  0  0
    1.9036   -1.3316   -1.1363 C   0  0  0  0  0  0  0  0  0  0  0  0
    2.8321   -0.6495    0.9873 C   0  0  0  0  0  0  0  0  0  0  0  0
    2.8649   -1.4758   -0.1362 C   0  0  0  0  0  0  0  0  0  0  0  0
  1  2  1  0
  1  4  1  0
  1  6  1  0
  2  3  1  0
  3  5  1  0
  4  7  2  0
  4  8  1  0
  5  9  1  0
  7 10  1  0
  8 11  2  0
 10 12  2  0
 11 12  1  0
M  END
>  <PUBCHEM_COMPOUND_CID>  (1) 
22385

>  <PUBCHEM_CONFORMER_RMSD>  (1) 
0.6

>  <PUBCHEM_CONFORMER_DIVERSEORDER>  (1) 
1
6
7
17
15
14
10
9
8
5
13
3
11
16
12
4
2

>  <PUBCHEM_MMFF94_PARTIAL_CHARGES>  (1) 
12
1 0.14
10 -0.15
11 -0.15
12 -0.15
23 0.15
24 0.15
28 0.15
29 0.15
30 0.15
4 -0.14
7 -0.15
8 -0.15

>  <PUBCHEM_EFFECTIVE_ROTOR_COUNT>  (1) 
4

>  <PUBCHEM_PHARMACOPHORE_FEATURES>  (1) 
4
1 6 hydrophobe
1 9 hydrophobe
4 1 2 3 5 hydrophobe
6 4 7 8 10 11 12 rings

>  <PUBCHEM_HEAVY_ATOM_COUNT>  (1) 
12

>  <PUBCHEM_ATOM_DEF_STEREO_COUNT>  (1) 
0

>  <PUBCHEM_ATOM_UDEF_STEREO_COUNT>  (1) 
1

>  <PUBCHEM_BOND_DEF_STEREO_COUNT>  (1) 
0

>  <PUBCHEM_BOND_UDEF_STEREO_COUNT>  (1) 
0

>  <PUBCHEM_ISOTOPIC_ATOM_COUNT>  (1) 
0

>  <PUBCHEM_COMPONENT_COUNT>  (1) 
1

>  <PUBCHEM_CACTVS_TAUTO_COUNT>  (1) 
1

>  <PUBCHEM_CONFORMER_ID>  (1) 
0000577100000001

>  <PUBCHEM_MMFF94_ENERGY>  (1) 
22.2559

>  <PUBCHEM_FEATURE_SELFOVERLAP>  (1) 
20.298

>  <PUBCHEM_SHAPE_FINGERPRINT>  (1) 
10610426 29 16661742441641185984
11471102 22 17703783700218474050
14252887 29 18342178885942106563
15501101 241 17846493738161475632
16945 1 17560785633315584316
17357990 137 12679166216008245130
17844478 74 18059568028047211596
17990270 104 18338520845337610949
18186145 218 11242252909503607967
18380122 1 18129929088623400144
20281407 28 18341336578362090979
20361792 2 18334019380361714613
20645477 70 18191861443722750623
20711985 344 18119247251297007185
20871998 22 18411983554969099001
21061003 4 17059201545691289536
21501925 9 18341889736243673635
230 275 10881674749964678391
23402655 69 12901543533721753355
23532345 42 18412538834100438738
2748010 2 18200584792023796141
276578 36 11455891355901567156
549884 4 12396293768598116287
568465 68 17416952955245782274
5902787 121 18333728031165428899
7364860 26 18195531612855843313
81228 2 18123191203906503385
81539 233 17827077616866833029

>  <PUBCHEM_SHAPE_MULTIPOLES>  (1) 
246.95
5.73
2.23
1.06
5.55
1.36
0.01
-4.5
-0.96
0.14
0.29
-0.58
-0.18
0.49

>  <PUBCHEM_SHAPE_SELFOVERLAP>  (1) 
489.917

>  <PUBCHEM_SHAPE_VOLUME>  (1) 
144.1

>  <PUBCHEM_COORDINATE_TYPE>  (1) 
2
5
10

$$$$
