2238
     RDKit          3D

 24 27  0  0  0  0  0  0  0  0999 V2000
    0.5216    0.9917    0.6855 O   0  0  0  0  0  0  0  0  0  0  0  0
   -3.2570    0.1001   -0.6063 O   0  0  0  0  0  0  0  0  0  0  0  0
   -3.6608   -2.7011    0.4706 O   0  0  0  0  0  0  0  0  0  0  0  0
   -2.9388   -2.7449   -1.6021 O   0  0  0  0  0  0  0  0  0  0  0  0
    3.3618   -0.5002    0.2663 N   0  0  0  0  0  0  0  0  0  0  0  0
   -2.7594   -2.5247   -0.3818 N   0  0  0  0  0  0  0  0  0  0  0  0
    4.7671    0.7439   -0.9207 N   0  0  0  0  0  0  0  0  0  0  0  0
    1.0582   -1.2895    0.9186 C   0  0  0  0  0  0  0  0  0  0  0  0
    0.1186   -0.3161    0.5725 C   0  0  0  0  0  0  0  0  0  0  0  0
   -1.1496   -0.7039    0.1407 C   0  0  0  0  0  0  0  0  0  0  0  0
    2.4262   -0.9103    1.3843 C   0  0  0  0  0  0  0  0  0  0  0  0
   -1.4865   -2.0570    0.0518 C   0  0  0  0  0  0  0  0  0  0  0  0
   -2.1227    0.3389   -0.2190 C   0  0  0  0  0  0  0  0  0  0  0  0
   -1.6720    1.7331   -0.0912 C   0  0  0  0  0  0  0  0  0  0  0  0
    0.7265   -2.6421    0.8309 C   0  0  0  0  0  0  0  0  0  0  0  0
   -0.3735    1.9791    0.3542 C   0  0  0  0  0  0  0  0  0  0  0  0
   -0.5435   -3.0248    0.3983 C   0  0  0  0  0  0  0  0  0  0  0  0
   -2.5260    2.7922   -0.4100 C   0  0  0  0  0  0  0  0  0  0  0  0
    0.0754    3.2951    0.4821 C   0  0  0  0  0  0  0  0  0  0  0  0
    3.6892   -1.2478   -0.8298 C   0  0  0  0  0  0  0  0  0  0  0  0
    4.0329    0.6869    0.1680 C   0  0  0  0  0  0  0  0  0  0  0  0
   -2.0715    4.1047   -0.2804 C   0  0  0  0  0  0  0  0  0  0  0  0
   -0.7734    4.3560    0.1647 C   0  0  0  0  0  0  0  0  0  0  0  0
    4.5572   -0.4591   -1.5473 C   0  0  0  0  0  0  0  0  0  0  0  0
  1  9  1  0
  1 16  1  0
  2 13  2  0
  3  6  1  0
  4  6  2  0
  5 11  1  0
  5 20  1  0
  5 21  1  0
  6 12  1  0
  7 21  2  0
  7 24  1  0
  8  9  2  0
  8 11  1  0
  8 15  1  0
  9 10  1  0
 10 12  2  0
 10 13  1  0
 12 17  1  0
 13 14  1  0
 14 16  2  0
 14 18  1  0
 15 17  2  0
 16 19  1  0
 18 22  2  0
 19 23  2  0
 20 24  2  0
 22 23  1  0
M  CHG  2   3  -1   6   1
M  END
>  <PUBCHEM_COMPOUND_CID>  (1) 
2238

>  <PUBCHEM_CONFORMER_RMSD>  (1) 
0.6

>  <PUBCHEM_CONFORMER_DIVERSEORDER>  (1) 
2
14
13
4
15
1
3
11
8
12
5
9
7
6
10

>  <PUBCHEM_MMFF94_PARTIAL_CHARGES>  (1) 
33
1 -0.17
10 0.09
11 0.4
12 0.13
13 0.4
14 0.09
15 -0.15
16 0.08
17 -0.15
18 -0.15
19 -0.15
2 -0.57
20 -0.3
21 0.04
22 -0.15
23 -0.15
24 0.08
27 0.15
28 0.15
29 0.15
3 -0.52
30 0.15
31 0.15
32 0.15
33 0.15
34 0.15
35 0.15
4 -0.52
5 0.05
6 0.91
7 -0.57
8 -0.14
9 0.08

>  <PUBCHEM_EFFECTIVE_ROTOR_COUNT>  (1) 
3

>  <PUBCHEM_PHARMACOPHORE_FEATURES>  (1) 
10
1 1 acceptor
1 2 acceptor
1 3 acceptor
1 3 anion
1 4 acceptor
3 5 7 21 cation
5 5 7 20 21 24 rings
6 1 9 10 13 14 16 rings
6 14 16 18 19 22 23 rings
6 8 9 10 12 15 17 rings

>  <PUBCHEM_HEAVY_ATOM_COUNT>  (1) 
24

>  <PUBCHEM_ATOM_DEF_STEREO_COUNT>  (1) 
0

>  <PUBCHEM_ATOM_UDEF_STEREO_COUNT>  (1) 
0

>  <PUBCHEM_BOND_DEF_STEREO_COUNT>  (1) 
0

>  <PUBCHEM_BOND_UDEF_STEREO_COUNT>  (1) 
0

>  <PUBCHEM_ISOTOPIC_ATOM_COUNT>  (1) 
0

>  <PUBCHEM_COMPONENT_COUNT>  (1) 
1

>  <PUBCHEM_CACTVS_TAUTO_COUNT>  (1) 
1

>  <PUBCHEM_CONFORMER_ID>  (1) 
000008BE00000002

>  <PUBCHEM_MMFF94_ENERGY>  (1) 
72.254

>  <PUBCHEM_FEATURE_SELFOVERLAP>  (1) 
50.887

>  <PUBCHEM_SHAPE_FINGERPRINT>  (1) 
10411042 1 18265887141366734595
10498660 4 18408880746140728214
10871710 139 18335150786195292668
1100329 8 18337958995212543089
11582403 64 16118733162534613674
11640471 11 17823148830445943036
12160290 23 18128803180036998011
12173636 292 18122616163482935484
12553582 1 18337664338580456395
12788726 201 18334861657919169890
13140716 1 18337092571301367033
13583140 156 16160188994224585441
138480 1 16248564336891892672
14787075 74 17967258598341831899
14790565 3 18267873778837821313
14955137 171 18192737706934257395
15475509 8 18200611275372755575
16752209 62 18266732498356848040
16945 1 18267004099309188459
17134986 127 17831868949781004908
1813 80 18199196276426405607
18681886 176 17617366287085670802
18785283 64 17399526013636060147
19591789 44 18410296904375223145
21285901 2 18059307533933560174
21524375 3 17755870714580012808
22149856 69 17406263340805268105
22182313 1 18122320631383641857
22907989 373 18409162199399905997
2334 1 18048861177247615587
23352939 185 18126580139002495491
23419403 2 17488732505864420304
23557571 272 18342174518666890954
23558518 356 18116708509013724754
23559900 14 16753247441285146961
23566358 2 18121771991892362596
26353 1 17984682665869405478
2748010 2 18122881369397257339
350125 39 17762055437036346817
352729 6 17619615892202651073
394222 165 17538285038122550017
458136 41 17406561303395705545
46194498 28 17260428962671030815
474 4 17539132744597807424
5048184 11 18120098273634567868
5312544 6 17688302396432950253
532947 4 17546162368883671253
7164475 11 18410291394174820738
7364860 26 17619064370740303985
81228 2 18340493373524516074
9981440 41 18189616043019544354

>  <PUBCHEM_SHAPE_MULTIPOLES>  (1) 
455.49
6.8
5.21
1.09
7.81
0.65
-0.17
2.43
-2.65
-5.85
-0.09
0.71
-0.32
-0.82

>  <PUBCHEM_SHAPE_SELFOVERLAP>  (1) 
1027.074

>  <PUBCHEM_SHAPE_VOLUME>  (1) 
239.2

>  <PUBCHEM_COORDINATE_TYPE>  (1) 
2
5
10

$$$$
