22384
     RDKit          3D

 21 22  0  0  1  0  0  0  0  0999 V2000
   -3.0056   -1.2916   -1.6500 O   0  0  0  0  0  0  0  0  0  0  0  0
    0.5915    0.4169   -0.3927 O   0  0  0  0  0  0  0  0  0  0  0  0
    4.0435   -0.3990   -0.8287 O   0  0  0  0  0  0  0  0  0  0  0  0
    2.0492    1.3542    1.6895 O   0  0  0  0  0  0  0  0  0  0  0  0
    1.9775    0.3907   -2.2274 O   0  0  0  0  0  0  0  0  0  0  0  0
   -3.5019    0.3914    1.1009 N   0  0  0  0  0  0  0  0  0  0  0  0
   -2.2909   -0.1652    0.4245 C   0  0  0  0  0  0  0  0  0  0  0  0
   -2.7455   -1.4592   -0.2609 C   0  0  0  0  0  0  0  0  0  0  0  0
   -4.6508   -0.4397    0.7231 C   0  0  0  0  0  0  0  0  0  0  0  0
   -4.0392   -1.8069    0.4602 C   0  0  0  0  0  0  0  0  0  0  0  0
   -1.7432    0.9382   -0.4227 C   0  0  0  0  0  0  0  0  0  0  0  0
   -3.6264    1.7950    0.6569 C   0  0  0  0  0  0  0  0  0  0  0  0
   -2.4959    2.0336   -0.2887 C   0  0  0  0  0  0  0  0  0  0  0  0
   -0.5070    0.7882   -1.2314 C   0  0  0  0  0  0  0  0  0  0  0  0
    2.8829   -0.1392   -0.0223 C   0  0  0  0  0  0  0  0  0  0  0  0
    2.5494   -1.4748    0.7082 C   0  0  0  0  0  0  0  0  0  0  0  0
    3.2172    1.0466    0.9184 C   0  0  0  0  0  0  0  0  0  0  0  0
    1.7887    0.2486   -1.0248 C   0  0  0  0  0  0  0  0  0  0  0  0
    3.5851   -1.9166    1.7463 C   0  0  0  0  0  0  0  0  0  0  0  0
    2.2864   -2.6331   -0.2686 C   0  0  0  0  0  0  0  0  0  0  0  0
    3.6351    2.3219    0.1902 C   0  0  0  0  0  0  0  0  0  0  0  0
  1  8  1  0
  2 14  1  0
  2 18  1  0
  3 15  1  0
  4 17  1  0
  5 18  2  0
  6  7  1  0
  6  9  1  0
  6 12  1  0
  7  8  1  0
  7 11  1  0
  8 10  1  0
  9 10  1  0
 11 13  2  0
 11 14  1  0
 12 13  1  0
 15 16  1  0
 15 17  1  0
 15 18  1  0
 16 19  1  0
 16 20  1  0
 17 21  1  0
M  END
>  <PUBCHEM_COMPOUND_CID>  (1) 
22384

>  <PUBCHEM_CONFORMER_RMSD>  (1) 
1.2

>  <PUBCHEM_CONFORMER_DIVERSEORDER>  (1) 
1
44
89
121
73
36
30
99
52
100
42
50
115
77
46
58
132
117
72
84
112
6
43
20
11
33
63
93
136
57
122
133
48
110
138
9
37
118
38
120
129
107
34
95
130
102
21
22
23
111
70
68
97
61
109
105
116
124
10
78
8
51
15
3
65
12
26
139
39
74
62
87
41
123
66
75
56
108
79
29
96
64
28
85
17
2
18
60
14
126
101
91
76
31
114
90
45
98
35
82
71
27
13
103
47
59
32
54
104
128
24
67
49
80
5
7
134
137
4
53
131
88
69
25
16
127
55
19
119
106
92
125
81
113
83
40
94
86
135

>  <PUBCHEM_MMFF94_PARTIAL_CHARGES>  (1) 
20
1 -0.68
11 -0.28
12 0.41
13 -0.29
14 0.42
15 0.34
17 0.28
18 0.66
2 -0.43
3 -0.68
30 0.15
33 0.4
4 -0.68
45 0.4
46 0.4
5 -0.57
6 -0.81
7 0.41
8 0.28
9 0.27

>  <PUBCHEM_EFFECTIVE_ROTOR_COUNT>  (1) 
6.8

>  <PUBCHEM_PHARMACOPHORE_FEATURES>  (1) 
11
1 1 acceptor
1 1 donor
1 3 acceptor
1 3 donor
1 4 acceptor
1 4 donor
1 5 acceptor
1 6 cation
3 16 19 20 hydrophobe
5 6 7 11 12 13 rings
5 6 7 8 9 10 rings

>  <PUBCHEM_HEAVY_ATOM_COUNT>  (1) 
21

>  <PUBCHEM_ATOM_DEF_STEREO_COUNT>  (1) 
0

>  <PUBCHEM_ATOM_UDEF_STEREO_COUNT>  (1) 
4

>  <PUBCHEM_BOND_DEF_STEREO_COUNT>  (1) 
0

>  <PUBCHEM_BOND_UDEF_STEREO_COUNT>  (1) 
0

>  <PUBCHEM_ISOTOPIC_ATOM_COUNT>  (1) 
0

>  <PUBCHEM_COMPONENT_COUNT>  (1) 
1

>  <PUBCHEM_CACTVS_TAUTO_COUNT>  (1) 
1

>  <PUBCHEM_CONFORMER_ID>  (1) 
0000577000000001

>  <PUBCHEM_MMFF94_ENERGY>  (1) 
43.5931

>  <PUBCHEM_FEATURE_SELFOVERLAP>  (1) 
56.163

>  <PUBCHEM_SHAPE_FINGERPRINT>  (1) 
10366900 7 18198335354515885729
10616163 171 18335712662502121175
11552529 35 17346317158850128471
11578080 2 17968079950412939533
12363563 72 15791724209145293076
12553582 1 18041573541090542693
12596602 18 17844268400311870931
12633257 1 18270961224261316457
12670545 47 16200431403326439723
13224815 77 18260826007665057163
13533116 47 18339921520420660399
13583140 156 18341321224017824205
14178342 30 18334008380586674080
14223421 5 18411698785551947335
14289901 80 18411134766199551561
14787075 74 18055070132010251552
14866123 147 16037186516397496610
15163728 17 14115237391590983754
17349148 13 17458620176561288512
1813 80 17022628589348608389
18981168 100 14836111212883195558
19050596 39 18411417306343618400
19862831 5 10159697988769139647
20281475 54 18040155106286315975
20442098 301 18336265660789120183
21065199 12 18412263921802257369
21756936 100 17770767212136890896
2255824 54 17751379484047433860
22646028 28 17967536770151022715
23559900 14 18200605695645508573
3797600 57 17559675221034294720
5104073 3 18335426733886580825
6442390 28 18196092359991669074
7097593 13 18337390431093001684
8988823 20 18270952540401946021
90316 7 18335713715228129229
9709674 26 18335147483328733275
9882013 296 18129380560869653805

>  <PUBCHEM_SHAPE_MULTIPOLES>  (1) 
397.84
9.2
2.5
1.51
2.82
0.41
-0.24
1.26
2.33
-0.79
0.37
-0.69
0.03
-0.44

>  <PUBCHEM_SHAPE_SELFOVERLAP>  (1) 
816.562

>  <PUBCHEM_SHAPE_VOLUME>  (1) 
231

>  <PUBCHEM_COORDINATE_TYPE>  (1) 
2
5
10

$$$$
