22383
     RDKit          3D

  9  8  0  0  0  0  0  0  0  0999 V2000
    1.2553   -0.4657    1.0424 S   0  0  0  0  0  0  0  0  0  0  0  0
   -1.2567   -0.4520   -1.0409 S   0  0  0  0  0  0  0  0  0  0  0  0
    0.0005   -1.7053   -0.0077 S   0  0  0  0  0  0  0  0  0  0  0  0
    3.6850    0.6750    0.4473 C   0  0  0  0  0  0  0  0  0  0  0  0
   -3.6834    0.6805   -0.4421 C   0  0  0  0  0  0  0  0  0  0  0  0
    2.6130   -0.2358   -0.1405 C   0  0  0  0  0  0  0  0  0  0  0  0
   -2.6128   -0.2375    0.1370 C   0  0  0  0  0  0  0  0  0  0  0  0
    4.8323    0.8738   -0.5325 C   0  0  0  0  0  0  0  0  0  0  0  0
   -4.8332    0.8670    0.5369 C   0  0  0  0  0  0  0  0  0  0  0  0
  1  3  1  0
  1  6  1  0
  2  3  1  0
  2  7  1  0
  4  6  1  0
  4  8  1  0
  5  7  1  0
  5  9  1  0
M  END
>  <PUBCHEM_COMPOUND_CID>  (1) 
22383

>  <PUBCHEM_CONFORMER_RMSD>  (1) 
0.6

>  <PUBCHEM_CONFORMER_DIVERSEORDER>  (1) 
2
190
184
27
57
226
261
215
95
116
247
51
125
49
222
193
149
225
22
1
238
167
204
144
130
212
165
187
236
239
175
92
136
66
223
5
74
124
178
176
83
271
141
214
264
227
196
94
93
82
97
128
270
268
25
301
265
143
13
56
211
118
114
58
161
14
129
135
62
20
233
283
229
60
79
171
207
219
147
148
101
208
123
257
87
262
228
168
24
198
98
15
96
232
107
259
185
77
99
244
282
8
278
217
142
18
137
115
4
133
299
9
209
16
218
273
298
216
246
102
64
286
210
195
3
288
252
151
152
41
284
287
205
183
237
260
280
36
303
231
267
131
154
241
296
52
105
78
134
155
146
68
266
220
245
177
54
45
88
274
170
203
43
251
291
19
302
263
103
108
86
243
249
90
81
169
290
30
47
145
89
253
182
100
213
276
174
140
158
242
163
294
53
71
281
91
202
159
250
29
32
67
84
138
127
201
248
112
150
85
65
34
55
28
119
132
106
76
37
269
126
46
72
206
172
73
21
153
139
31
186
113
23
192
240
157
277
293
285
258
181
221
173
289
164
191
117
104
166
11
255
120
188
297
10
234
189
6
256
75
160
254
110
63
295
199
111
48
44
180
40
17
7
80
179
224
194
279
61
12
39
109
121
122
59
200
300
275
42
35
38
156
230
292
162
50
197
70
69
33
272
235
26

>  <PUBCHEM_MMFF94_PARTIAL_CHARGES>  (1) 
4
1 -0.23
2 -0.23
6 0.23
7 0.23

>  <PUBCHEM_EFFECTIVE_ROTOR_COUNT>  (1) 
6

>  <PUBCHEM_PHARMACOPHORE_FEATURES>  (1) 
2
1 8 hydrophobe
1 9 hydrophobe

>  <PUBCHEM_HEAVY_ATOM_COUNT>  (1) 
9

>  <PUBCHEM_ATOM_DEF_STEREO_COUNT>  (1) 
0

>  <PUBCHEM_ATOM_UDEF_STEREO_COUNT>  (1) 
0

>  <PUBCHEM_BOND_DEF_STEREO_COUNT>  (1) 
0

>  <PUBCHEM_BOND_UDEF_STEREO_COUNT>  (1) 
0

>  <PUBCHEM_ISOTOPIC_ATOM_COUNT>  (1) 
0

>  <PUBCHEM_COMPONENT_COUNT>  (1) 
1

>  <PUBCHEM_CACTVS_TAUTO_COUNT>  (1) 
1

>  <PUBCHEM_CONFORMER_ID>  (1) 
0000576F00000002

>  <PUBCHEM_MMFF94_ENERGY>  (1) 
-14.7987

>  <PUBCHEM_FEATURE_SELFOVERLAP>  (1) 
10.149

>  <PUBCHEM_SHAPE_FINGERPRINT>  (1) 
100836 57 18410860966508512812
114248 4 15697993067585876675
13549 16 15626225710258027686
14123255 52 18410849962570035908
15501527 16 18335422404564826784
15775835 57 18410569591399998274
177051 138 8214146274118370298
17834072 14 9223231840548455330
17834072 8 17703799106788164196
18342897 14 17967533493191215780
20211469 26 8286204958882903518
20605781 2 18412545418137603829
20671657 53 12391515312559886962
20711983 171 18342451569242139902
20711985 327 11458429007459141215
20724930 69 18411980278188588018
21119208 17 16200432476794028612
22959321 60 17168137897875385741
23402655 69 17846780719634438700
449060 50 18113620062729187463

>  <PUBCHEM_SHAPE_MULTIPOLES>  (1) 
196.76
10.19
1.32
1.02
0
0.4
0
-6.12
0.02
-0.01
0
0
0.04
-0.4

>  <PUBCHEM_SHAPE_SELFOVERLAP>  (1) 
308.725

>  <PUBCHEM_SHAPE_VOLUME>  (1) 
140.1

>  <PUBCHEM_COORDINATE_TYPE>  (1) 
2
5
10

$$$$
