22395
     RDKit          3D

 17 18  0  0  0  0  0  0  0  0999 V2000
    1.0687    0.4658    0.8256 O   0  0  0  0  0  0  0  0  0  0  0  0
    4.3823   -0.4110   -0.1947 O   0  0  0  0  0  0  0  0  0  0  0  0
    3.4050    1.6432    0.1971 O   0  0  0  0  0  0  0  0  0  0  0  0
   -2.5098    0.5780    0.0055 C   0  0  0  0  0  0  0  0  0  0  0  0
   -2.8128   -0.8042   -0.0148 C   0  0  0  0  0  0  0  0  0  0  0  0
   -1.1974    0.9892    0.2899 C   0  0  0  0  0  0  0  0  0  0  0  0
   -0.1983    0.0511    0.5510 C   0  0  0  0  0  0  0  0  0  0  0  0
   -1.7945   -1.7345    0.2498 C   0  0  0  0  0  0  0  0  0  0  0  0
   -0.4963   -1.3082    0.5309 C   0  0  0  0  0  0  0  0  0  0  0  0
   -3.5279    1.5082   -0.2591 C   0  0  0  0  0  0  0  0  0  0  0  0
   -4.1251   -1.2156   -0.2991 C   0  0  0  0  0  0  0  0  0  0  0  0
   -4.8265    1.0817   -0.5395 C   0  0  0  0  0  0  0  0  0  0  0  0
   -5.1245   -0.2775   -0.5592 C   0  0  0  0  0  0  0  0  0  0  0  0
    2.1334   -0.4055    0.4472 C   0  0  0  0  0  0  0  0  0  0  0  0
    3.3547    0.4219    0.1440 C   0  0  0  0  0  0  0  0  0  0  0  0
    5.6196    0.2349   -0.5117 C   0  0  0  0  0  0  0  0  0  0  0  0
    6.6493   -0.8176   -0.8631 C   0  0  0  0  0  0  0  0  0  0  0  0
  1  7  1  0
  1 14  1  0
  2 15  1  0
  2 16  1  0
  3 15  2  0
  4  5  1  0
  4  6  2  0
  4 10  1  0
  5  8  2  0
  5 11  1  0
  6  7  1  0
  7  9  2  0
  8  9  1  0
 10 12  2  0
 11 13  2  0
 12 13  1  0
 14 15  1  0
 16 17  1  0
M  END
>  <PUBCHEM_COMPOUND_CID>  (1) 
22395

>  <PUBCHEM_CONFORMER_RMSD>  (1) 
0.6

>  <PUBCHEM_CONFORMER_DIVERSEORDER>  (1) 
1
19
27
5
7
172
165
22
119
134
177
170
168
80
78
163
72
143
28
34
120
20
145
87
153
16
24
33
81
110
9
123
159
18
99
140
42
149
122
97
130
38
176
59
104
35
56
93
39
161
17
26
11
126
31
106
64
54
47
76
95
46
124
146
90
29
52
36
92
175
114
113
117
127
10
148
152
82
101
23
45
44
118
37
32
85
40
3
65
48
86
137
4
66
105
151
61
69
6
129
94
115
133
13
15
49
174
25
128
21
169
103
62
154
121
141
73
107
116
96
139
166
50
53
109
8
171
68
111
51
89
88
167
57
91
55
173
100
160
135
14
162
98
157
136
147
83
84
2
77
108
75
79
155
132
150
158
144
138
58
74
30
63
142
67
41
125
70
102
43
156
60
164
131
12
112
71

>  <PUBCHEM_MMFF94_PARTIAL_CHARGES>  (1) 
21
1 -0.36
10 -0.15
11 -0.15
12 -0.15
13 -0.15
14 0.34
15 0.66
16 0.28
18 0.15
19 0.15
2 -0.43
20 0.15
21 0.15
22 0.15
23 0.15
24 0.15
3 -0.57
6 -0.15
7 0.08
8 -0.15
9 -0.15

>  <PUBCHEM_EFFECTIVE_ROTOR_COUNT>  (1) 
5

>  <PUBCHEM_PHARMACOPHORE_FEATURES>  (1) 
4
1 1 acceptor
1 3 acceptor
6 4 5 10 11 12 13 rings
6 4 5 6 7 8 9 rings

>  <PUBCHEM_HEAVY_ATOM_COUNT>  (1) 
17

>  <PUBCHEM_ATOM_DEF_STEREO_COUNT>  (1) 
0

>  <PUBCHEM_ATOM_UDEF_STEREO_COUNT>  (1) 
0

>  <PUBCHEM_BOND_DEF_STEREO_COUNT>  (1) 
0

>  <PUBCHEM_BOND_UDEF_STEREO_COUNT>  (1) 
0

>  <PUBCHEM_ISOTOPIC_ATOM_COUNT>  (1) 
0

>  <PUBCHEM_COMPONENT_COUNT>  (1) 
1

>  <PUBCHEM_CACTVS_TAUTO_COUNT>  (1) 
1

>  <PUBCHEM_CONFORMER_ID>  (1) 
0000577B00000001

>  <PUBCHEM_MMFF94_ENERGY>  (1) 
44.3939

>  <PUBCHEM_FEATURE_SELFOVERLAP>  (1) 
20.331

>  <PUBCHEM_SHAPE_FINGERPRINT>  (1) 
11315181 36 17989210352264033328
12236239 1 17458060460771047026
12251169 10 8646766703230836634
12390115 104 18269841913657888049
12596602 18 10879995740249153318
12616971 3 14045741559964629090
12670543 26 18411983533779203166
12954195 1 18129384812760884409
13288520 33 18273216404451601103
13668630 136 16917353640844484054
14251731 8 18412826876229727502
14251732 16 9655281641070632390
14251752 14 18260265205823076878
15048467 5 13479130181604942847
15183329 4 18335703798153456142
15242439 84 18413388743909471000
17834072 8 18410573981056989580
17870717 6 18272379662922757782
1813 80 13973692762220424128
200 152 16774080661226453602
20325693 3 18408604760353586045
204376 136 14851603284479278857
20645477 56 18260266339367271893
20645477 70 17632583751668679990
21267235 1 18409451427626139043
21637258 2 15410600541660832959
22224240 67 12685096986229378801
22854114 59 12035445034392740904
2297311 6 18413392042528873685
23175994 123 17274822480236851369
23198884 109 17894915126663792046
23402539 116 18412541007216825028
23402655 69 18335137566401811616
23557571 272 18413111640824729261
23559900 14 18271519896818051824
26918003 58 12535342411282503125
3004659 81 18334296423649944834
32948 21 18408042905775171772
3545911 37 18334013886861159715
4214541 1 18411136939436957912
474 4 16950566609811525692
4990 188 18273214187990039502
542803 24 16805322193376774864
559249 180 18410008802427446434
59755656 520 16805323301178131890

>  <PUBCHEM_SHAPE_MULTIPOLES>  (1) 
332.24
13.74
1.53
0.8
18.51
0.05
0.03
-0.06
5.09
-1
-0.03
0.21
0.03
0.42

>  <PUBCHEM_SHAPE_SELFOVERLAP>  (1) 
705.616

>  <PUBCHEM_SHAPE_VOLUME>  (1) 
186.3

>  <PUBCHEM_COORDINATE_TYPE>  (1) 
2
5
10

$$$$
