22391
     RDKit          3D

 25 27  0  0  0  0  0  0  0  0999 V2000
    1.6036    0.0237    2.5539 O   0  0  0  0  0  0  0  0  0  0  0  0
   -3.0454    0.1482   -0.4259 N   0  0  0  0  0  0  0  0  0  0  0  0
    0.7913   -0.0567    0.2329 C   0  0  0  0  0  0  0  0  0  0  0  0
   -0.6330   -0.3235   -0.3743 C   0  0  0  0  0  0  0  0  0  0  0  0
   -1.7901    0.4738    0.2506 C   0  0  0  0  0  0  0  0  0  0  0  0
   -3.3323   -1.2888   -0.3135 C   0  0  0  0  0  0  0  0  0  0  0  0
   -4.1470    0.9541    0.1191 C   0  0  0  0  0  0  0  0  0  0  0  0
   -4.6173   -1.6548   -1.0577 C   0  0  0  0  0  0  0  0  0  0  0  0
   -5.4587    0.6615   -0.6113 C   0  0  0  0  0  0  0  0  0  0  0  0
   -5.7980   -0.8240   -0.5678 C   0  0  0  0  0  0  0  0  0  0  0  0
    1.0903    1.4542    0.0044 C   0  0  0  0  0  0  0  0  0  0  0  0
    1.9004   -0.9332   -0.4250 C   0  0  0  0  0  0  0  0  0  0  0  0
    0.8177   -0.4810    1.7476 C   0  0  0  0  0  0  0  0  0  0  0  0
   -0.0832   -1.6379    2.1814 C   0  0  0  0  0  0  0  0  0  0  0  0
    1.7625    1.8010   -1.1297 C   0  0  0  0  0  0  0  0  0  0  0  0
    3.1797   -0.7619    0.0107 C   0  0  0  0  0  0  0  0  0  0  0  0
    0.6611    2.3339    0.9534 C   0  0  0  0  0  0  0  0  0  0  0  0
    1.5171   -1.8122   -1.3925 C   0  0  0  0  0  0  0  0  0  0  0  0
    0.4891   -2.4117    3.3581 C   0  0  0  0  0  0  0  0  0  0  0  0
    2.0307    3.1545   -1.3343 C   0  0  0  0  0  0  0  0  0  0  0  0
    4.1720   -1.5456   -0.5783 C   0  0  0  0  0  0  0  0  0  0  0  0
    0.9292    3.6874    0.7488 C   0  0  0  0  0  0  0  0  0  0  0  0
    2.5093   -2.5961   -1.9814 C   0  0  0  0  0  0  0  0  0  0  0  0
    1.6141    4.0977   -0.3950 C   0  0  0  0  0  0  0  0  0  0  0  0
    3.8368   -2.4626   -1.5743 C   0  0  0  0  0  0  0  0  0  0  0  0
  1 13  2  0
  2  5  1  0
  2  6  1  0
  2  7  1  0
  3  4  1  0
  3 11  1  0
  3 12  1  0
  3 13  1  0
  4  5  1  0
  6  8  1  0
  7  9  1  0
  8 10  1  0
  9 10  1  0
 11 15  2  0
 11 17  1  0
 12 16  2  0
 12 18  1  0
 13 14  1  0
 14 19  1  0
 15 20  1  0
 16 21  1  0
 17 22  2  0
 18 23  2  0
 20 24  2  0
 21 25  2  0
 22 24  1  0
 23 25  1  0
M  END
>  <PUBCHEM_COMPOUND_CID>  (1) 
22391

>  <PUBCHEM_CONFORMER_RMSD>  (1) 
0.8

>  <PUBCHEM_CONFORMER_DIVERSEORDER>  (1) 
1
30
37
20
38
22
5
13
27
39
31
24
6
17
11
12
26
29
3
18
28
10
7
34
16
8
25
23
4
19
35
32
36
2
33
14
21
15
9

>  <PUBCHEM_MMFF94_PARTIAL_CHARGES>  (1) 
30
1 -0.57
11 -0.14
12 -0.14
13 0.45
14 0.06
15 -0.15
16 -0.15
17 -0.15
18 -0.15
2 -0.81
20 -0.15
21 -0.15
22 -0.15
23 -0.15
24 -0.15
25 -0.15
3 0.35
42 0.15
43 0.15
44 0.15
45 0.15
49 0.15
5 0.27
50 0.15
51 0.15
52 0.15
53 0.15
54 0.15
6 0.27
7 0.27

>  <PUBCHEM_EFFECTIVE_ROTOR_COUNT>  (1) 
8.2

>  <PUBCHEM_PHARMACOPHORE_FEATURES>  (1) 
6
1 1 acceptor
1 19 hydrophobe
1 2 cation
6 11 15 17 20 22 24 rings
6 12 16 18 21 23 25 rings
6 2 6 7 8 9 10 rings

>  <PUBCHEM_HEAVY_ATOM_COUNT>  (1) 
25

>  <PUBCHEM_ATOM_DEF_STEREO_COUNT>  (1) 
0

>  <PUBCHEM_ATOM_UDEF_STEREO_COUNT>  (1) 
0

>  <PUBCHEM_BOND_DEF_STEREO_COUNT>  (1) 
0

>  <PUBCHEM_BOND_UDEF_STEREO_COUNT>  (1) 
0

>  <PUBCHEM_ISOTOPIC_ATOM_COUNT>  (1) 
0

>  <PUBCHEM_COMPONENT_COUNT>  (1) 
1

>  <PUBCHEM_CACTVS_TAUTO_COUNT>  (1) 
2

>  <PUBCHEM_CONFORMER_ID>  (1) 
0000577700000001

>  <PUBCHEM_MMFF94_ENERGY>  (1) 
76.9475

>  <PUBCHEM_FEATURE_SELFOVERLAP>  (1) 
30.446

>  <PUBCHEM_SHAPE_FINGERPRINT>  (1) 
10906281 52 18263383476729307748
10930396 42 18265587989438296826
11421498 54 17387133057386163009
11443803 9 17547547727796975224
12617007 42 18411982433856014828
12730499 353 18051987101780072213
12788726 201 18047485421992721850
13004483 165 18125720084924198470
13009979 54 17631188415156652737
13149001 5 17969243250809864986
13681431 1 18339939168203701588
13955234 65 18200315562404872171
15664445 248 18337668625052431930
15775530 1 17754762711685939074
17909252 39 18202291315737948712
17980427 23 17907822392182778176
17980427 26 17824518980505440094
1813 80 18340486655979276294
18681886 176 18271796935077682167
20388580 30 18342463620698560284
20567600 347 17977091685099656145
20600515 1 17981297037961307737
20645477 70 18337946904910909221
21033648 29 17201896169292305259
21524375 3 17902499729428783213
22393880 68 18041271141492348631
2255824 54 18041549317480229025
23419403 2 17537202277146646792
23559900 14 18201429269353313639
238 59 18053398865608557660
239999 70 18335976571457944291
376196 1 17902500824961922409
44802255 64 16819992144235961988
46194498 28 18408885161636024173
484985 159 15832292610861790278
54040823 5 18410573964004246934
57527452 28 16443334340078128376
6086070 43 18045193017895545237
633830 44 18187640345532117471
6443956 14 18342459214083291524
70251023 43 18410296896090684963
7364860 26 18270398407399503805
81228 2 17975720302479795704
9709674 26 18340768251816932359
9841814 1 18261097570041910865
9981440 41 17691964182095830232
9999458 23 16444450459838548208

>  <PUBCHEM_SHAPE_MULTIPOLES>  (1) 
503.64
8.53
4.15
2.23
15.66
4.26
-2.04
-4.03
4.73
-4.24
0.51
-1.36
-1.87
0.41

>  <PUBCHEM_SHAPE_SELFOVERLAP>  (1) 
1066.351

>  <PUBCHEM_SHAPE_VOLUME>  (1) 
280

>  <PUBCHEM_COORDINATE_TYPE>  (1) 
2
5
10

$$$$
