22397
     RDKit          3D

 24 24  0  0  1  0  0  0  0  0999 V2000
    1.2520   -1.0767   -0.2955 O   0  0  0  0  0  0  0  0  0  0  0  0
   -3.0272   -2.8005   -0.6613 O   0  0  0  0  0  0  0  0  0  0  0  0
    0.3983   -2.1915    1.5271 O   0  0  0  0  0  0  0  0  0  0  0  0
   -2.4243   -2.4012    1.5256 O   0  0  0  0  0  0  0  0  0  0  0  0
    4.8935   -0.5197   -0.1182 N   0  0  0  0  0  0  0  0  0  0  0  0
   -1.0690   -1.5315   -0.3097 C   0  0  0  0  0  0  0  0  0  0  0  0
   -1.4642   -0.0709   -0.6095 C   0  0  0  0  0  0  0  0  0  0  0  0
   -1.5453    0.8707    0.6040 C   0  0  0  0  0  0  0  0  0  0  0  0
    3.5466   -0.4814   -0.6682 C   0  0  0  0  0  0  0  0  0  0  0  0
    2.5620   -1.1529    0.2759 C   0  0  0  0  0  0  0  0  0  0  0  0
    5.8907   -0.3406   -1.1763 C   0  0  0  0  0  0  0  0  0  0  0  0
    5.0613    0.5068    0.9134 C   0  0  0  0  0  0  0  0  0  0  0  0
    0.2505   -1.6422    0.4433 C   0  0  0  0  0  0  0  0  0  0  0  0
   -2.0564    2.2557    0.3026 C   0  0  0  0  0  0  0  0  0  0  0  0
   -2.2310   -2.2840    0.3231 C   0  0  0  0  0  0  0  0  0  0  0  0
    5.7541    1.0219   -1.8345 C   0  0  0  0  0  0  0  0  0  0  0  0
    6.4418    0.4315    1.5433 C   0  0  0  0  0  0  0  0  0  0  0  0
   -1.1630    3.2674   -0.0495 C   0  0  0  0  0  0  0  0  0  0  0  0
   -3.4229    2.5262    0.3752 C   0  0  0  0  0  0  0  0  0  0  0  0
   -1.6360    4.5496   -0.3286 C   0  0  0  0  0  0  0  0  0  0  0  0
   -3.8958    3.8084    0.0959 C   0  0  0  0  0  0  0  0  0  0  0  0
   -4.1713   -3.5319   -0.2098 C   0  0  0  0  0  0  0  0  0  0  0  0
   -3.0023    4.8200   -0.2560 C   0  0  0  0  0  0  0  0  0  0  0  0
   -4.9421   -4.0332   -1.4125 C   0  0  0  0  0  0  0  0  0  0  0  0
  1 10  1  0
  1 13  1  0
  2 15  1  0
  2 22  1  0
  3 13  2  0
  4 15  2  0
  5  9  1  0
  5 11  1  0
  5 12  1  0
  6  7  1  0
  6 13  1  0
  6 15  1  0
  7  8  1  0
  8 14  1  0
  9 10  1  0
 11 16  1  0
 12 17  1  0
 14 18  2  0
 14 19  1  0
 18 20  1  0
 19 21  2  0
 20 23  2  0
 21 23  1  0
 22 24  1  0
M  END
>  <PUBCHEM_COMPOUND_CID>  (1) 
22397

>  <PUBCHEM_CONFORMER_RMSD>  (1) 
1.4

>  <PUBCHEM_CONFORMER_DIVERSEORDER>  (1) 
1
50
46
22
8
17
15
31
37
38
42
28
45
24
35
53
7
51
32
16
13
55
10
36
44
27
9
29
41
54
12
33
34
23
25
48
4
39
49
6
18
11
30
2
40
19
14
43
47
3
5
26
52
20
21

>  <PUBCHEM_MMFF94_PARTIAL_CHARGES>  (1) 
25
1 -0.43
10 0.28
11 0.27
12 0.27
13 0.66
14 -0.14
15 0.66
18 -0.15
19 -0.15
2 -0.43
20 -0.15
21 -0.15
22 0.28
23 -0.15
3 -0.57
4 -0.57
44 0.15
45 0.15
46 0.15
47 0.15
5 -0.81
50 0.15
6 0.12
8 0.14
9 0.27

>  <PUBCHEM_EFFECTIVE_ROTOR_COUNT>  (1) 
13

>  <PUBCHEM_PHARMACOPHORE_FEATURES>  (1) 
5
1 3 acceptor
1 4 acceptor
1 5 cation
1 6 anion
6 14 18 19 20 21 23 rings

>  <PUBCHEM_HEAVY_ATOM_COUNT>  (1) 
24

>  <PUBCHEM_ATOM_DEF_STEREO_COUNT>  (1) 
0

>  <PUBCHEM_ATOM_UDEF_STEREO_COUNT>  (1) 
1

>  <PUBCHEM_BOND_DEF_STEREO_COUNT>  (1) 
0

>  <PUBCHEM_BOND_UDEF_STEREO_COUNT>  (1) 
0

>  <PUBCHEM_ISOTOPIC_ATOM_COUNT>  (1) 
0

>  <PUBCHEM_COMPONENT_COUNT>  (1) 
1

>  <PUBCHEM_CACTVS_TAUTO_COUNT>  (1) 
1

>  <PUBCHEM_CONFORMER_ID>  (1) 
0000577D00000001

>  <PUBCHEM_MMFF94_ENERGY>  (1) 
38.7937

>  <PUBCHEM_FEATURE_SELFOVERLAP>  (1) 
25.375

>  <PUBCHEM_SHAPE_FINGERPRINT>  (1) 
10411042 1 18195244644916797399
10670039 82 18336560399690386892
10937287 8 18049722910405846473
12107183 9 17900255305028604498
12293681 160 18041826424644777803
12788726 201 18334288799017728899
13540713 5 18115298978457391898
13590594 115 18338240492075618507
14114211 80 17910408194429355624
14251764 75 17907591224422749856
14508225 48 18269270343440943879
14556957 393 18190758602798651308
15198563 99 18413107286418501077
15961568 22 17979633765164235792
16087824 20 18411418385804644725
20101258 96 18338807830862805771
21033650 10 18191331363233069782
2132832 1 18115875264051691284
23227448 37 18412546474932063580
23929065 36 18339623616681982896
255183 451 17840023276180198415
283562 15 18334288798986086595
3610482 184 17897755140024698438
376196 1 17394173123302727793
508706 21 18342162363672748496
5969126 39 18200018668269170503
7808743 9 18336831879724525504
9981440 41 17974576792917487465

>  <PUBCHEM_SHAPE_MULTIPOLES>  (1) 
465.45
13.02
6.67
1.29
25
4.17
-0.03
-0.9
-2.05
-16.14
-1.04
1.47
-0.5
-1.16

>  <PUBCHEM_SHAPE_SELFOVERLAP>  (1) 
923.482

>  <PUBCHEM_SHAPE_VOLUME>  (1) 
276.9

>  <PUBCHEM_COORDINATE_TYPE>  (1) 
2
5
10

$$$$
