22403
     RDKit          3D

 20 23  0  0  1  0  0  0  0  0999 V2000
   -3.3418    1.5941   -0.9940 O   0  0  0  0  0  0  0  0  0  0  0  0
    3.3468    1.4109   -0.2573 O   0  0  0  0  0  0  0  0  0  0  0  0
    2.4183    3.1440    1.0320 O   0  0  0  0  0  0  0  0  0  0  0  0
   -0.4484   -2.1628   -0.3688 N   0  0  0  0  0  0  0  0  0  0  0  0
   -0.5168   -0.7119   -0.0104 C   0  0  0  0  0  0  0  0  0  0  0  0
   -1.5680   -0.0187   -0.9100 C   0  0  0  0  0  0  0  0  0  0  0  0
   -1.0800   -0.8171    1.3964 C   0  0  0  0  0  0  0  0  0  0  0  0
    0.8696   -0.0297   -0.0656 C   0  0  0  0  0  0  0  0  0  0  0  0
    0.4439   -2.4865   -1.4685 C   0  0  0  0  0  0  0  0  0  0  0  0
   -0.1987   -2.8941    0.8898 C   0  0  0  0  0  0  0  0  0  0  0  0
    1.9363   -0.6197   -0.6427 C   0  0  0  0  0  0  0  0  0  0  0  0
    1.8697   -1.9830   -1.2731 C   0  0  0  0  0  0  0  0  0  0  0  0
   -2.1261    1.2886   -0.3108 C   0  0  0  0  0  0  0  0  0  0  0  0
   -0.8386   -2.0230    1.9225 C   0  0  0  0  0  0  0  0  0  0  0  0
   -1.9055    0.2204    1.9509 C   0  0  0  0  0  0  0  0  0  0  0  0
   -2.3914    1.2007    1.1729 C   0  0  0  0  0  0  0  0  0  0  0  0
    1.1033    1.2575    0.5574 C   0  0  0  0  0  0  0  0  0  0  0  0
    3.2943    0.0378   -0.6636 C   0  0  0  0  0  0  0  0  0  0  0  0
    2.2704    1.9062    0.4381 C   0  0  0  0  0  0  0  0  0  0  0  0
   -3.1373    1.6863   -2.3953 C   0  0  0  0  0  0  0  0  0  0  0  0
  1 13  1  0
  1 20  1  0
  2 18  1  0
  2 19  1  0
  3 19  1  0
  4  5  1  0
  4  9  1  0
  4 10  1  0
  5  6  1  0
  5  7  1  0
  5  8  1  0
  6 13  1  0
  7 14  2  0
  7 15  1  0
  8 11  2  0
  8 17  1  0
  9 12  1  0
 10 14  1  0
 11 12  1  0
 11 18  1  0
 13 16  1  0
 15 16  2  0
 17 19  2  0
M  END
>  <PUBCHEM_COMPOUND_CID>  (1) 
22403

>  <PUBCHEM_CONFORMER_RMSD>  (1) 
0.6

>  <PUBCHEM_CONFORMER_DIVERSEORDER>  (1) 
1

>  <PUBCHEM_MMFF94_PARTIAL_CHARGES>  (1) 
24
1 -0.56
10 0.41
11 -0.28
12 0.14
13 0.42
14 -0.29
15 -0.15
16 -0.29
17 -0.15
18 0.42
19 0.15
2 -0.36
20 0.28
3 -0.53
30 0.15
31 0.15
32 0.15
33 0.15
39 0.45
4 -0.81
5 0.55
7 -0.14
8 -0.14
9 0.27

>  <PUBCHEM_EFFECTIVE_ROTOR_COUNT>  (1) 
2.4

>  <PUBCHEM_PHARMACOPHORE_FEATURES>  (1) 
8
1 1 acceptor
1 2 acceptor
1 3 donor
1 4 cation
5 4 5 7 10 14 rings
6 2 8 11 17 18 19 rings
6 4 5 8 9 11 12 rings
6 5 6 7 13 15 16 rings

>  <PUBCHEM_HEAVY_ATOM_COUNT>  (1) 
20

>  <PUBCHEM_ATOM_DEF_STEREO_COUNT>  (1) 
2

>  <PUBCHEM_ATOM_UDEF_STEREO_COUNT>  (1) 
0

>  <PUBCHEM_BOND_DEF_STEREO_COUNT>  (1) 
0

>  <PUBCHEM_BOND_UDEF_STEREO_COUNT>  (1) 
0

>  <PUBCHEM_ISOTOPIC_ATOM_COUNT>  (1) 
0

>  <PUBCHEM_COMPONENT_COUNT>  (1) 
1

>  <PUBCHEM_CACTVS_TAUTO_COUNT>  (1) 
1

>  <PUBCHEM_CONFORMER_ID>  (1) 
0000578300000001

>  <PUBCHEM_MMFF94_ENERGY>  (1) 
53.9316

>  <PUBCHEM_FEATURE_SELFOVERLAP>  (1) 
40.927

>  <PUBCHEM_SHAPE_FINGERPRINT>  (1) 
10165383 225 17464578262795445885
10863032 1 16083366258277740474
10871710 139 16819407224744144757
11640471 11 16198488441372758714
11725454 13 17969199197298694045
12423570 1 10442519712600185059
12716301 132 17313683563242392305
12730499 353 18043814187359917989
13009979 54 16699481945598778119
13134695 92 16960660977121609887
13140716 1 18200045074192083216
13294875 104 17897709973336125802
13464514 151 17611465233590627733
14142880 1 17623577857445966609
14614273 12 17838897384250522000
14817 1 9992478170142907539
15848702 105 18123157321067352111
15852999 172 18340190973335243952
16945 1 18055643819218025247
18219364 16 18338812159868248920
18981168 100 17701827811204438168
21041028 32 17187026197290475713
21296965 12 18336551624017074627
21304303 282 16965697079399892973
21524375 3 18335126579696075101
21623110 236 15392035626295821944
21639500 275 18271527494182356645
22112679 90 16536233983588548019
22907989 373 18048323537077937004
2306618 200 17481981650757232704
23419403 2 18048630073368076231
23526113 38 18192722141423948670
238 59 18339913827680455589
25 1 18267594519667771428
2748010 2 18127424547248694940
350125 39 17983595266555643224
4175511 376 18047175372334768895
427121 178 16807014221682065277
5895379 119 16902959672053895213
7832392 63 17481146700446145961
81228 2 17898868004099174747
9981440 41 17556834117522440512

>  <PUBCHEM_SHAPE_MULTIPOLES>  (1) 
389
4.53
3.19
1.92
0.15
0.35
-0.19
-3.51
-1.6
-1.33
0.45
1.47
0.15
1.72

>  <PUBCHEM_SHAPE_SELFOVERLAP>  (1) 
852.367

>  <PUBCHEM_SHAPE_VOLUME>  (1) 
207.5

>  <PUBCHEM_COORDINATE_TYPE>  (1) 
2
5
10

$$$$
