22413
     RDKit          3D

 18 21  0  0  0  0  0  0  0  0999 V2000
    2.2427   -2.7155    0.0002 O   0  0  0  0  0  0  0  0  0  0  0  0
   -0.0625   -0.0598   -0.0003 C   0  0  0  0  0  0  0  0  0  0  0  0
    1.2294    0.6347   -0.0004 C   0  0  0  0  0  0  0  0  0  0  0  0
    0.2009   -1.4483   -0.0003 C   0  0  0  0  0  0  0  0  0  0  0  0
   -1.4068    0.3739   -0.0001 C   0  0  0  0  0  0  0  0  0  0  0  0
    2.2681   -0.3170   -0.0004 C   0  0  0  0  0  0  0  0  0  0  0  0
    1.6589   -1.6538   -0.0006 C   0  0  0  0  0  0  0  0  0  0  0  0
   -2.4232   -0.6303    0.0003 C   0  0  0  0  0  0  0  0  0  0  0  0
   -0.7679   -2.4275    0.0000 C   0  0  0  0  0  0  0  0  0  0  0  0
   -2.0894   -2.0022    0.0004 C   0  0  0  0  0  0  0  0  0  0  0  0
    1.5870    1.9737   -0.0001 C   0  0  0  0  0  0  0  0  0  0  0  0
   -1.8319    1.7223   -0.0005 C   0  0  0  0  0  0  0  0  0  0  0  0
    3.6160   -0.0058    0.0003 C   0  0  0  0  0  0  0  0  0  0  0  0
   -3.7775   -0.2593    0.0007 C   0  0  0  0  0  0  0  0  0  0  0  0
    2.9475    2.3231    0.0005 C   0  0  0  0  0  0  0  0  0  0  0  0
    3.9520    1.3432    0.0005 C   0  0  0  0  0  0  0  0  0  0  0  0
   -3.1858    2.0689   -0.0004 C   0  0  0  0  0  0  0  0  0  0  0  0
   -4.1575    1.0797    0.0002 C   0  0  0  0  0  0  0  0  0  0  0  0
  1  7  2  0
  2  3  1  0
  2  4  2  0
  2  5  1  0
  3  6  2  0
  3 11  1  0
  4  7  1  0
  4  9  1  0
  5  8  2  0
  5 12  1  0
  6  7  1  0
  6 13  1  0
  8 10  1  0
  8 14  1  0
  9 10  2  0
 11 15  2  0
 12 17  2  0
 13 16  2  0
 14 18  2  0
 15 16  1  0
 17 18  1  0
M  END
>  <PUBCHEM_COMPOUND_CID>  (1) 
22413

>  <PUBCHEM_CONFORMER_RMSD>  (1) 
0.4

>  <PUBCHEM_CONFORMER_DIVERSEORDER>  (1) 
1

>  <PUBCHEM_MMFF94_PARTIAL_CHARGES>  (1) 
24
1 -0.57
10 -0.15
11 -0.15
12 -0.15
13 -0.15
14 -0.15
15 -0.15
16 -0.15
17 -0.15
18 -0.15
19 0.15
20 0.15
21 0.15
22 0.15
23 0.15
24 0.15
25 0.15
26 0.15
27 0.15
28 0.15
4 0.09
6 0.09
7 0.4
9 -0.15

>  <PUBCHEM_EFFECTIVE_ROTOR_COUNT>  (1) 
0

>  <PUBCHEM_PHARMACOPHORE_FEATURES>  (1) 
5
1 1 acceptor
5 2 3 4 6 7 rings
6 2 4 5 8 9 10 rings
6 3 6 11 13 15 16 rings
6 5 8 12 14 17 18 rings

>  <PUBCHEM_HEAVY_ATOM_COUNT>  (1) 
18

>  <PUBCHEM_ATOM_DEF_STEREO_COUNT>  (1) 
0

>  <PUBCHEM_ATOM_UDEF_STEREO_COUNT>  (1) 
0

>  <PUBCHEM_BOND_DEF_STEREO_COUNT>  (1) 
0

>  <PUBCHEM_BOND_UDEF_STEREO_COUNT>  (1) 
0

>  <PUBCHEM_ISOTOPIC_ATOM_COUNT>  (1) 
0

>  <PUBCHEM_COMPONENT_COUNT>  (1) 
1

>  <PUBCHEM_CACTVS_TAUTO_COUNT>  (1) 
1

>  <PUBCHEM_CONFORMER_ID>  (1) 
0000578D00000001

>  <PUBCHEM_MMFF94_ENERGY>  (1) 
69.3151

>  <PUBCHEM_FEATURE_SELFOVERLAP>  (1) 
25.56

>  <PUBCHEM_SHAPE_FINGERPRINT>  (1) 
10411042 1 16969704387620747791
10608611 8 18410574002336614565
10616163 171 18338518663193674198
10646746 165 18339080492587977116
10967382 1 18410855438669298980
10980938 120 18409167684273556992
1100329 8 17260471371140719488
11132069 177 18338229478866783328
11370993 70 18410848880275499425
11471102 20 18411133606568606172
11680986 33 18336837415409829931
12173636 292 18267300017992065668
12390115 104 18053401052180129552
12403259 226 18046061562787108501
12403260 363 18194670682587471156
13140716 1 18122064479080460504
13380535 76 18410572907146516234
13583140 156 16950549013462616793
138480 1 17906170646598218530
14223421 5 18408891745509820811
14790565 3 16253088845306686056
14897335 6 18411416211137500839
15196674 1 18410574002336608069
15442244 35 18195526987075338626
15475509 35 16661497186144775915
15475509 8 17052767078722312278
15536298 74 18342458097391683774
16945 1 18410574019569517094
17492 89 18411135818846957535
18186145 218 18200039434430453213
19591789 44 18339645662585699378
20510252 161 18053669353979797553
21267235 1 18410864264832509923
21501502 16 18410567400987997187
21524375 3 18410854377806965703
22094290 62 18338233760806544675
221490 88 18337400348262607291
22854114 111 18408887321429755236
2334 1 17762056944522459658
23366157 5 18113621153772524762
23402539 116 18342166817057579037
23558518 356 18116153444461411754
23559900 14 18272936055447775688
238 59 17322914912798929501
25 1 18409446985991495644
2748010 2 18265896847870757039
3091708 16 9261933537713671026
335352 9 18338516340038146238
350125 39 18409735066385236401
474 4 17749393723329910628
5104073 3 18409730676918130843
58051976 378 18413385427936359709
5939293 188 18050844416581848036
6333272 397 18409449193536237465
69090 78 18411696608383342837
7097593 13 17969762130309863706
7364860 26 18341051818009828966
7832392 63 18411698772904415766
9709674 26 18411985766793354239
9981440 41 18264762349808692602

>  <PUBCHEM_SHAPE_MULTIPOLES>  (1) 
364.56
6.87
2.9
0.61
0.59
0.65
0
-3.15
0
-0.37
0
0.01
-0.01
0

>  <PUBCHEM_SHAPE_SELFOVERLAP>  (1) 
843.82

>  <PUBCHEM_SHAPE_VOLUME>  (1) 
188.3

>  <PUBCHEM_COORDINATE_TYPE>  (1) 
2
5
10

$$$$
