22412
     RDKit          3D

 12 13  0  0  0  0  0  0  0  0999 V2000
   -2.5653    0.2138   -0.2522 O   0  0  0  0  0  0  0  0  0  0  0  0
   -2.4093   -1.9611    0.2985 O   0  0  0  0  0  0  0  0  0  0  0  0
    0.2721    0.5376    0.1787 C   0  0  0  0  0  0  0  0  0  0  0  0
    0.7446    0.1492   -1.2464 C   0  0  0  0  0  0  0  0  0  0  0  0
    1.5087    0.8972    1.0413 C   0  0  0  0  0  0  0  0  0  0  0  0
   -0.6606    1.7580    0.1361 C   0  0  0  0  0  0  0  0  0  0  0  0
   -0.5297   -0.5932    0.8405 C   0  0  0  0  0  0  0  0  0  0  0  0
    1.8466   -0.9115   -1.2630 C   0  0  0  0  0  0  0  0  0  0  0  0
    2.5918   -0.1800    1.0324 C   0  0  0  0  0  0  0  0  0  0  0  0
    3.0295   -0.5187   -0.3871 C   0  0  0  0  0  0  0  0  0  0  0  0
   -1.9376    1.4563   -0.6220 C   0  0  0  0  0  0  0  0  0  0  0  0
   -1.8908   -0.8477    0.2433 C   0  0  0  0  0  0  0  0  0  0  0  0
  1 11  1  0
  1 12  1  0
  2 12  2  0
  3  4  1  0
  3  5  1  0
  3  6  1  0
  3  7  1  0
  4  8  1  0
  5  9  1  0
  6 11  1  0
  7 12  1  0
  8 10  1  0
  9 10  1  0
M  END
>  <PUBCHEM_COMPOUND_CID>  (1) 
22412

>  <PUBCHEM_CONFORMER_RMSD>  (1) 
0.4

>  <PUBCHEM_CONFORMER_DIVERSEORDER>  (1) 
1
12
13
5
6
3
4
2
11
14
8
7
10
9

>  <PUBCHEM_MMFF94_PARTIAL_CHARGES>  (1) 
5
1 -0.43
11 0.28
12 0.66
2 -0.57
7 0.06

>  <PUBCHEM_EFFECTIVE_ROTOR_COUNT>  (1) 
1.8

>  <PUBCHEM_PHARMACOPHORE_FEATURES>  (1) 
3
1 2 acceptor
6 1 3 6 7 11 12 rings
6 3 4 5 8 9 10 rings

>  <PUBCHEM_HEAVY_ATOM_COUNT>  (1) 
12

>  <PUBCHEM_ATOM_DEF_STEREO_COUNT>  (1) 
0

>  <PUBCHEM_ATOM_UDEF_STEREO_COUNT>  (1) 
0

>  <PUBCHEM_BOND_DEF_STEREO_COUNT>  (1) 
0

>  <PUBCHEM_BOND_UDEF_STEREO_COUNT>  (1) 
0

>  <PUBCHEM_ISOTOPIC_ATOM_COUNT>  (1) 
0

>  <PUBCHEM_COMPONENT_COUNT>  (1) 
1

>  <PUBCHEM_CACTVS_TAUTO_COUNT>  (1) 
1

>  <PUBCHEM_CONFORMER_ID>  (1) 
0000578C00000001

>  <PUBCHEM_MMFF94_ENERGY>  (1) 
23.7241

>  <PUBCHEM_FEATURE_SELFOVERLAP>  (1) 
15.225

>  <PUBCHEM_SHAPE_FINGERPRINT>  (1) 
10857977 72 18271803549042136994
11471102 22 17203325589931797606
12138202 97 18337664200903703924
12716758 59 18266741268516373605
12932764 1 17749112162411616892
14128692 85 17677051351231908234
14993402 34 17022903402350975278
15207287 21 18057584508743786302
15219456 202 18201716275583341176
15219459 28 18271517594282921431
15775835 57 16950570930427371532
16945 1 18335978658163099752
18534176 82 18340488863576746236
20201158 50 18059292067581746806
20653085 51 13984659269784224559
21061003 4 17346329176015271346
21501502 16 18339084885912343952
21930827 45 18268153058600245361
23402539 116 18268973329040538749
23552423 10 17967816105938471456
23559900 14 18267298734809739234
2748010 2 18264198296032883641
29004967 10 17632296757115687776
369184 2 18341046324524942392
5084963 1 17704069599232863752
528886 8 15574716884937163200
77492 1 17022621944664961968

>  <PUBCHEM_SHAPE_MULTIPOLES>  (1) 
235.22
4.01
1.58
1.19
0.64
0.02
0.12
0.95
0.04
-1.05
-0.06
0.57
0.04
0.67

>  <PUBCHEM_SHAPE_SELFOVERLAP>  (1) 
481.247

>  <PUBCHEM_SHAPE_VOLUME>  (1) 
132.8

>  <PUBCHEM_COORDINATE_TYPE>  (1) 
2
5
10

$$$$
