22416
     RDKit          3D

 20 22  0  0  0  0  0  0  0  0999 V2000
    5.0232   -1.5658   -0.2801 N   0  0  0  0  0  0  0  0  0  0  0  0
   -0.4191   -0.5002    0.5436 N   0  0  0  0  0  0  0  0  0  0  0  0
   -1.0116   -0.4440   -0.5578 N   0  0  0  0  0  0  0  0  0  0  0  0
   -6.4844    0.3948    0.2733 N   0  0  0  0  0  0  0  0  0  0  0  0
    1.8483    0.3609    0.1917 C   0  0  0  0  0  0  0  0  0  0  0  0
    3.2221    0.0921   -0.0162 C   0  0  0  0  0  0  0  0  0  0  0  0
    0.9525   -0.7114    0.3346 C   0  0  0  0  0  0  0  0  0  0  0  0
    3.6597   -1.2411   -0.0748 C   0  0  0  0  0  0  0  0  0  0  0  0
    1.4104    1.6939    0.2501 C   0  0  0  0  0  0  0  0  0  0  0  0
    4.1176    1.1644   -0.1593 C   0  0  0  0  0  0  0  0  0  0  0  0
    1.4048   -2.0299    0.2737 C   0  0  0  0  0  0  0  0  0  0  0  0
    2.7559   -2.2943    0.0697 C   0  0  0  0  0  0  0  0  0  0  0  0
    2.3141    2.7471    0.1062 C   0  0  0  0  0  0  0  0  0  0  0  0
    3.6652    2.4828   -0.0983 C   0  0  0  0  0  0  0  0  0  0  0  0
   -2.3852   -0.2327   -0.3490 C   0  0  0  0  0  0  0  0  0  0  0  0
   -2.8825    1.0648   -0.2812 C   0  0  0  0  0  0  0  0  0  0  0  0
   -3.2378   -1.3238   -0.2117 C   0  0  0  0  0  0  0  0  0  0  0  0
   -5.1056    0.1837    0.0641 C   0  0  0  0  0  0  0  0  0  0  0  0
   -4.2460    1.2737   -0.0741 C   0  0  0  0  0  0  0  0  0  0  0  0
   -4.6014   -1.1150   -0.0047 C   0  0  0  0  0  0  0  0  0  0  0  0
  1  8  1  0
  2  3  2  0
  2  7  1  0
  3 15  1  0
  4 18  1  0
  5  6  1  0
  5  7  2  0
  5  9  1  0
  6  8  2  0
  6 10  1  0
  7 11  1  0
  8 12  1  0
  9 13  2  0
 10 14  2  0
 11 12  2  0
 13 14  1  0
 15 16  2  0
 15 17  1  0
 16 19  1  0
 17 20  2  0
 18 19  2  0
 18 20  1  0
M  END
>  <PUBCHEM_COMPOUND_CID>  (1) 
22416

>  <PUBCHEM_CONFORMER_RMSD>  (1) 
0.6

>  <PUBCHEM_CONFORMER_DIVERSEORDER>  (1) 
1
2
3

>  <PUBCHEM_MMFF94_PARTIAL_CHARGES>  (1) 
32
1 -0.9
10 -0.15
11 -0.15
12 -0.15
13 -0.15
14 -0.15
15 0.18
16 -0.15
17 -0.15
18 0.1
19 -0.15
2 -0.18
20 -0.15
21 0.15
22 0.15
23 0.15
24 0.15
25 0.15
26 0.15
27 0.4
28 0.4
29 0.15
3 -0.18
30 0.15
31 0.15
32 0.15
33 0.4
34 0.4
4 -0.9
7 0.18
8 0.1
9 -0.15

>  <PUBCHEM_EFFECTIVE_ROTOR_COUNT>  (1) 
2

>  <PUBCHEM_PHARMACOPHORE_FEATURES>  (1) 
7
1 1 cation
1 1 donor
1 4 cation
1 4 donor
6 15 16 17 18 19 20 rings
6 5 6 7 8 11 12 rings
6 5 6 9 10 13 14 rings

>  <PUBCHEM_HEAVY_ATOM_COUNT>  (1) 
20

>  <PUBCHEM_ATOM_DEF_STEREO_COUNT>  (1) 
0

>  <PUBCHEM_ATOM_UDEF_STEREO_COUNT>  (1) 
0

>  <PUBCHEM_BOND_DEF_STEREO_COUNT>  (1) 
0

>  <PUBCHEM_BOND_UDEF_STEREO_COUNT>  (1) 
0

>  <PUBCHEM_ISOTOPIC_ATOM_COUNT>  (1) 
0

>  <PUBCHEM_COMPONENT_COUNT>  (1) 
1

>  <PUBCHEM_CACTVS_TAUTO_COUNT>  (1) 
3

>  <PUBCHEM_CONFORMER_ID>  (1) 
0000579000000001

>  <PUBCHEM_MMFF94_ENERGY>  (1) 
83.6681

>  <PUBCHEM_FEATURE_SELFOVERLAP>  (1) 
35.547

>  <PUBCHEM_SHAPE_FINGERPRINT>  (1) 
10366900 7 17603872165434702595
10411042 1 18050285865493414410
10693767 8 18130795508545916126
11045977 3 18114187449557970675
11405975 8 18410009944656495915
11471102 20 18410292514870614928
12107183 9 17836650725892466313
12236239 1 17846498127623450235
12403259 415 17894906313675750669
12730499 353 18335148634279358610
12788726 201 17346611742214752673
13009979 54 17630051447092779762
13167372 99 18200881673876736481
13167823 11 18342173384442545015
14341114 176 18409736162150568585
14528608 73 18340203093975501095
15196674 1 18410574002637515821
15442244 35 18268430135609514248
15536298 74 18411980277729814541
16992752 21 17687748238853480402
17834072 33 18413386562277276183
17844677 252 18411426081489435177
18186145 218 17968087625191597958
18681886 176 18273489074988597898
20612939 158 18410578387593325224
20645477 70 18343303652019800462
21033648 29 17458333127366082485
21065198 57 18409166606505940371
21267235 1 18340494369640579366
21452121 103 18341321284706386272
21478907 32 17834114144115038546
21503847 285 18408039606559852009
21652331 79 18408884053555962909
21709351 56 18412535501068855791
221357 26 18410009905822461557
221490 88 18336834172804545050
22289505 5 18337102363431429124
23402655 69 18342738563066871716
23558518 356 17683519916115508642
23559900 14 18412257333385754811
239999 70 18341617001425696934
245318 6 16882459728324808028
25 1 18336542828462116116
3004659 81 18409448059728044928
335352 9 18410575089749584214
350125 39 18409450254340613469
3545911 37 18408886252447050765
4073 2 18041003989461547619
4214541 1 18410855426401439165
474 4 18115025332656987053
5104073 3 18408603686548667291
5281201 14 18409729547341737837
543358 83 18412548682455063282
602551 16 16009326412357304841
633830 44 18334850649543567287
7364860 26 18411980273766994180
7495541 125 18186805764086935090
77779 3 18410855469203510007
8272917 22 18413111662483967646
9709674 26 18335705000312035851
9981440 41 17692239060377301456
9999458 23 18333731325658916454

>  <PUBCHEM_SHAPE_MULTIPOLES>  (1) 
391.67
12.01
2.58
0.66
13.93
0.6
0
0.73
0.24
-3.23
-0.04
0.02
-0.01
0

>  <PUBCHEM_SHAPE_SELFOVERLAP>  (1) 
868.622

>  <PUBCHEM_SHAPE_VOLUME>  (1) 
208

>  <PUBCHEM_COORDINATE_TYPE>  (1) 
2
5
10

$$$$
