22415
     RDKit          3D

 21 23  0  0  1  0  0  0  0  0999 V2000
    0.0040   -0.0124    1.5798 O   0  0  0  0  0  0  0  0  0  0  0  0
    5.9186   -0.4074   -0.8574 O   0  0  0  0  0  0  0  0  0  0  0  0
   -5.9230    0.4224   -0.8496 O   0  0  0  0  0  0  0  0  0  0  0  0
    0.4962    0.5541    0.3644 C   0  0  0  0  0  0  0  0  0  0  0  0
   -0.5006   -0.5606    0.3554 C   0  0  0  0  0  0  0  0  0  0  0  0
    0.0493    1.9565    0.1596 C   0  0  0  0  0  0  0  0  0  0  0  0
   -0.0445   -1.9624    0.1337 C   0  0  0  0  0  0  0  0  0  0  0  0
    1.9285    0.3001    0.0417 C   0  0  0  0  0  0  0  0  0  0  0  0
   -1.9224   -0.3029    0.0394 C   0  0  0  0  0  0  0  0  0  0  0  0
    0.7060    2.9379    1.1354 C   0  0  0  0  0  0  0  0  0  0  0  0
   -0.6901   -2.9530    1.1048 C   0  0  0  0  0  0  0  0  0  0  0  0
    2.3734    0.3925   -1.2771 C   0  0  0  0  0  0  0  0  0  0  0  0
   -2.3780   -0.3714   -1.2830 C   0  0  0  0  0  0  0  0  0  0  0  0
    2.8247   -0.0300    1.0583 C   0  0  0  0  0  0  0  0  0  0  0  0
   -2.8289    0.0125    1.0591 C   0  0  0  0  0  0  0  0  0  0  0  0
    3.7142    0.1546   -1.5793 C   0  0  0  0  0  0  0  0  0  0  0  0
   -3.7188   -0.1283   -1.5810 C   0  0  0  0  0  0  0  0  0  0  0  0
    4.1655   -0.2677    0.7562 C   0  0  0  0  0  0  0  0  0  0  0  0
   -4.1697    0.2556    0.7612 C   0  0  0  0  0  0  0  0  0  0  0  0
    4.6103   -0.1755   -0.5626 C   0  0  0  0  0  0  0  0  0  0  0  0
   -4.6146    0.1853   -0.5589 C   0  0  0  0  0  0  0  0  0  0  0  0
  1  4  1  0
  1  5  1  0
  2 20  1  0
  3 21  1  0
  4  5  1  0
  4  6  1  0
  4  8  1  0
  5  7  1  0
  5  9  1  0
  6 10  1  0
  7 11  1  0
  8 12  2  0
  8 14  1  0
  9 13  2  0
  9 15  1  0
 12 16  1  0
 13 17  1  0
 14 18  2  0
 15 19  2  0
 16 20  2  0
 17 21  2  0
 18 20  1  0
 19 21  1  0
M  END
>  <PUBCHEM_COMPOUND_CID>  (1) 
22415

>  <PUBCHEM_CONFORMER_RMSD>  (1) 
0.8

>  <PUBCHEM_CONFORMER_DIVERSEORDER>  (1) 
1
4
2
3
5

>  <PUBCHEM_MMFF94_PARTIAL_CHARGES>  (1) 
29
1 -0.3
12 -0.15
13 -0.15
14 -0.15
15 -0.15
16 -0.15
17 -0.15
18 -0.15
19 -0.15
2 -0.53
20 0.08
21 0.08
3 -0.53
32 0.15
33 0.15
34 0.15
35 0.15
36 0.15
37 0.15
38 0.15
39 0.15
4 0.09
40 0.45
41 0.45
5 0.09
6 0.09
7 0.09
8 -0.03
9 -0.03

>  <PUBCHEM_EFFECTIVE_ROTOR_COUNT>  (1) 
4.6

>  <PUBCHEM_PHARMACOPHORE_FEATURES>  (1) 
7
1 1 acceptor
1 10 hydrophobe
1 11 hydrophobe
1 2 donor
1 3 donor
6 8 12 14 16 18 20 rings
6 9 13 15 17 19 21 rings

>  <PUBCHEM_HEAVY_ATOM_COUNT>  (1) 
21

>  <PUBCHEM_ATOM_DEF_STEREO_COUNT>  (1) 
0

>  <PUBCHEM_ATOM_UDEF_STEREO_COUNT>  (1) 
2

>  <PUBCHEM_BOND_DEF_STEREO_COUNT>  (1) 
0

>  <PUBCHEM_BOND_UDEF_STEREO_COUNT>  (1) 
0

>  <PUBCHEM_ISOTOPIC_ATOM_COUNT>  (1) 
0

>  <PUBCHEM_COMPONENT_COUNT>  (1) 
1

>  <PUBCHEM_CACTVS_TAUTO_COUNT>  (1) 
3

>  <PUBCHEM_CONFORMER_ID>  (1) 
0000578F00000001

>  <PUBCHEM_MMFF94_ENERGY>  (1) 
48.2995

>  <PUBCHEM_FEATURE_SELFOVERLAP>  (1) 
35.52

>  <PUBCHEM_SHAPE_FINGERPRINT>  (1) 
10165383 225 18040719152136879911
10366900 7 18186510009040102469
10906281 52 18129395920131783240
11578080 2 17899141782574073308
12592029 89 17168141200520867090
12788726 201 18340772533714489312
12969540 114 18260257577333327406
13149001 5 18267022945340768712
13288520 33 16056880230440342693
13533116 47 18341611457219107490
13544653 18 13686303490962542471
13583140 156 16515980236333101312
14115302 16 18187933914872742694
14341114 328 13839980015047736837
14911166 2 18410855473013063680
15048467 5 15791451525924257310
15099037 51 18408041822799906398
15788980 27 16487255486810318823
15848700 24 18131631179794237944
15848702 151 17489869332189220797
1601671 61 18337387133049170533
16752209 62 18335700490696368032
16945 1 18410856576819659010
1813 80 18060423508128711644
18186145 218 18339917212135588665
187816 3 18411140225303022294
19141452 34 17060620001500938741
19784866 9 17895186663001725555
200 152 18408888408641952748
20600515 1 18339381733072970436
21069387 34 17561086959362001414
21267235 1 15913333515265997535
21285901 2 17917157100090213724
22713019 99 18201999932334833782
22854114 59 11386362647128776351
23227448 37 16516826920732652430
23402539 116 18272937089922788964
23419403 2 17487586737682115704
23557571 272 17703512099640849160
23559900 14 15841259432996521146
23569943 247 17772765865739990710
266924 87 18194120707566896260
2748010 2 17978228584132641075
3060560 45 18340752806845075183
347723 3 18411138017441912328
3545911 37 15791451521592366901
3759504 43 17530969115448301091
465052 167 11599718510591043077
633830 44 18271518780168518613
7495541 125 17895481435418776049
74978 22 18266740370836553979
81228 2 17986134958043445856
8272917 22 16660918877156363754
9709674 26 15482681185960154549
9971528 1 17846774135249555928

>  <PUBCHEM_SHAPE_MULTIPOLES>  (1) 
414.56
10.09
1.92
1.49
0.05
0.02
-0.22
-0.04
-3.98
0
1
0
-0.01
0.19

>  <PUBCHEM_SHAPE_SELFOVERLAP>  (1) 
894.569

>  <PUBCHEM_SHAPE_VOLUME>  (1) 
229.9

>  <PUBCHEM_COORDINATE_TYPE>  (1) 
2
5
10

$$$$
