22410
     RDKit          3D

 17 18  0  0  0  0  0  0  0  0999 V2000
    1.4924    2.4535   -0.5856 O   0  0  0  0  0  0  0  0  0  0  0  0
   -0.2511    1.5064    1.6776 O   0  0  0  0  0  0  0  0  0  0  0  0
   -2.1049    0.1532    0.0296 N   0  0  0  0  0  0  0  0  0  0  0  0
    2.3097    0.4093    0.2380 N   0  0  0  0  0  0  0  0  0  0  0  0
   -0.8111    0.4634   -0.3472 N   0  0  0  0  0  0  0  0  0  0  0  0
   -4.7517   -1.0080   -0.3682 C   0  0  0  0  0  0  0  0  0  0  0  0
   -4.5018    0.4935   -0.4630 C   0  0  0  0  0  0  0  0  0  0  0  0
   -3.6987   -1.6709    0.5136 C   0  0  0  0  0  0  0  0  0  0  0  0
    3.9333   -1.9164   -0.3028 C   0  0  0  0  0  0  0  0  0  0  0  0
    4.1197   -0.6144   -1.0806 C   0  0  0  0  0  0  0  0  0  0  0  0
    2.4984   -2.0480    0.2067 C   0  0  0  0  0  0  0  0  0  0  0  0
   -3.0612    0.7923   -0.8817 C   0  0  0  0  0  0  0  0  0  0  0  0
   -2.2842   -1.3028    0.0631 C   0  0  0  0  0  0  0  0  0  0  0  0
    3.6738    0.5899   -0.2564 C   0  0  0  0  0  0  0  0  0  0  0  0
    2.0782   -0.8180    1.0079 C   0  0  0  0  0  0  0  0  0  0  0  0
    1.3571    1.3910    0.0069 C   0  0  0  0  0  0  0  0  0  0  0  0
    0.0018    1.1260    0.5420 C   0  0  0  0  0  0  0  0  0  0  0  0
  1 16  2  0
  2 17  2  0
  3  5  1  0
  3 12  1  0
  3 13  1  0
  4 14  1  0
  4 15  1  0
  4 16  1  0
  5 17  1  0
  6  7  1  0
  6  8  1  0
  7 12  1  0
  8 13  1  0
  9 10  1  0
  9 11  1  0
 10 14  1  0
 11 15  1  0
 16 17  1  0
M  END
>  <PUBCHEM_COMPOUND_CID>  (1) 
22410

>  <PUBCHEM_CONFORMER_RMSD>  (1) 
0.8

>  <PUBCHEM_CONFORMER_DIVERSEORDER>  (1) 
1
20
18
10
9
8
15
17
5
19
11
4
6
13
12
21
14
2
16
7
3

>  <PUBCHEM_MMFF94_PARTIAL_CHARGES>  (1) 
12
1 -0.57
12 0.27
13 0.27
14 0.3
15 0.3
16 0.63
17 0.63
2 -0.57
3 -0.55
38 0.37
4 -0.66
5 -0.42

>  <PUBCHEM_EFFECTIVE_ROTOR_COUNT>  (1) 
6.4

>  <PUBCHEM_PHARMACOPHORE_FEATURES>  (1) 
5
1 1 acceptor
1 2 acceptor
1 5 donor
6 3 6 7 8 12 13 rings
6 4 9 10 11 14 15 rings

>  <PUBCHEM_HEAVY_ATOM_COUNT>  (1) 
17

>  <PUBCHEM_ATOM_DEF_STEREO_COUNT>  (1) 
0

>  <PUBCHEM_ATOM_UDEF_STEREO_COUNT>  (1) 
0

>  <PUBCHEM_BOND_DEF_STEREO_COUNT>  (1) 
0

>  <PUBCHEM_BOND_UDEF_STEREO_COUNT>  (1) 
0

>  <PUBCHEM_ISOTOPIC_ATOM_COUNT>  (1) 
0

>  <PUBCHEM_COMPONENT_COUNT>  (1) 
1

>  <PUBCHEM_CACTVS_TAUTO_COUNT>  (1) 
2

>  <PUBCHEM_CONFORMER_ID>  (1) 
0000578A00000001

>  <PUBCHEM_MMFF94_ENERGY>  (1) 
6.8419

>  <PUBCHEM_FEATURE_SELFOVERLAP>  (1) 
25.373

>  <PUBCHEM_SHAPE_FINGERPRINT>  (1) 
11543360 7 17603874415712767974
12186901 62 17676478429113421413
12616999 72 18186241727749264086
12670546 177 17749396978920051732
12707595 3 18059852882841430872
13533116 47 18200311164833329019
14252887 29 17704356571947080958
14576447 43 18410296887395560542
15188451 53 15194984086587021357
15196674 1 18409729555953141423
15477762 27 18408886256684041316
15635459 17 18412267224590260654
17834074 16 18335419114540763263
1798214 20 18413106143371896902
18186145 218 18186794786334863401
193927 3 18059585646013849990
200 152 18272651238026146658
20281475 54 18410293571047649337
20291156 8 18342739598264909110
20388580 30 18412548721188961740
20645477 70 18337950203002791175
20671657 53 18411141316177548140
20871999 31 18187087213035034879
21250096 35 18202280290588314531
21713013 43 18114179713768132175
221490 88 18261962967081272538
2215653 11 18411129222119205807
22646028 28 18273497857668820487
22854114 59 9655574119247114095
23557571 272 17603575327207389828
23559900 14 18411130359547294408
23596394 208 17968923254445595423
2838139 119 15358276990887441646
2871803 45 18408888408573504390
3004659 81 18114461150559849482
314173 41 18409452483417778790
3323516 105 18259704518721471107
4047638 21 12612756804896980860
465052 167 18202286939583109927
4921388 177 16371019528622351099
543358 83 18335141959884362529
58051976 100 18334012822215653247
633830 44 14418406621248245353
7364860 26 18268145529760166600
94968 8 18411419505794317190
9709674 26 18189335839290323323

>  <PUBCHEM_SHAPE_MULTIPOLES>  (1) 
323.17
9.44
2.18
1
4.54
0.05
0.16
4.01
-2.42
-0.93
0.1
-0.18
-0.16
0.3

>  <PUBCHEM_SHAPE_SELFOVERLAP>  (1) 
650.116

>  <PUBCHEM_SHAPE_VOLUME>  (1) 
186.3

>  <PUBCHEM_COORDINATE_TYPE>  (1) 
2
5
10

$$$$
