22414
     RDKit          3D

 13 13  0  0  0  0  0  0  0  0999 V2000
    4.4319    0.8301   -0.1927 O   0  0  0  0  0  0  0  0  0  0  0  0
    3.4604   -0.4757    1.3962 O   0  0  0  0  0  0  0  0  0  0  0  0
   -0.1262   -0.0119   -1.4093 C   0  0  0  0  0  0  0  0  0  0  0  0
   -1.4096    0.0709   -0.6162 C   0  0  0  0  0  0  0  0  0  0  0  0
    1.0934   -0.2947   -0.5578 C   0  0  0  0  0  0  0  0  0  0  0  0
   -2.1556   -1.0783   -0.4113 C   0  0  0  0  0  0  0  0  0  0  0  0
   -1.8158    1.2946   -0.1095 C   0  0  0  0  0  0  0  0  0  0  0  0
    1.0804   -1.6406    0.1299 C   0  0  0  0  0  0  0  0  0  0  0  0
    2.1661    0.5047   -0.4029 C   0  0  0  0  0  0  0  0  0  0  0  0
   -3.3405   -1.0015    0.3207 C   0  0  0  0  0  0  0  0  0  0  0  0
   -3.0006    1.3713    0.6227 C   0  0  0  0  0  0  0  0  0  0  0  0
   -3.7630    0.2232    0.8379 C   0  0  0  0  0  0  0  0  0  0  0  0
    3.3791    0.2079    0.3922 C   0  0  0  0  0  0  0  0  0  0  0  0
  1 13  1  0
  2 13  2  0
  3  4  1  0
  3  5  1  0
  4  6  2  0
  4  7  1  0
  5  8  1  0
  5  9  2  0
  6 10  1  0
  7 11  2  0
  9 13  1  0
 10 12  2  0
 11 12  1  0
M  END
>  <PUBCHEM_COMPOUND_CID>  (1) 
22414

>  <PUBCHEM_CONFORMER_RMSD>  (1) 
0.6

>  <PUBCHEM_CONFORMER_DIVERSEORDER>  (1) 
1
12
11
7
4
6
13
9
8
5
2
3
10

>  <PUBCHEM_MMFF94_PARTIAL_CHARGES>  (1) 
20
1 -0.65
10 -0.15
11 -0.15
12 -0.15
13 0.71
16 0.15
17 0.15
2 -0.57
21 0.15
22 0.15
23 0.15
24 0.15
25 0.5
3 0.28
4 -0.14
5 -0.28
6 -0.15
7 -0.15
8 0.14
9 -0.14

>  <PUBCHEM_EFFECTIVE_ROTOR_COUNT>  (1) 
3

>  <PUBCHEM_PHARMACOPHORE_FEATURES>  (1) 
5
1 1 acceptor
1 2 acceptor
1 8 hydrophobe
3 1 2 13 anion
6 4 6 7 10 11 12 rings

>  <PUBCHEM_HEAVY_ATOM_COUNT>  (1) 
13

>  <PUBCHEM_ATOM_DEF_STEREO_COUNT>  (1) 
0

>  <PUBCHEM_ATOM_UDEF_STEREO_COUNT>  (1) 
0

>  <PUBCHEM_BOND_DEF_STEREO_COUNT>  (1) 
0

>  <PUBCHEM_BOND_UDEF_STEREO_COUNT>  (1) 
1

>  <PUBCHEM_ISOTOPIC_ATOM_COUNT>  (1) 
0

>  <PUBCHEM_COMPONENT_COUNT>  (1) 
1

>  <PUBCHEM_CACTVS_TAUTO_COUNT>  (1) 
1

>  <PUBCHEM_CONFORMER_ID>  (1) 
0000578E00000001

>  <PUBCHEM_MMFF94_ENERGY>  (1) 
32.0228

>  <PUBCHEM_FEATURE_SELFOVERLAP>  (1) 
25.429

>  <PUBCHEM_SHAPE_FINGERPRINT>  (1) 
11031198 65 14764354812180345205
11127187 94 11386371456629037345
11132069 177 18272093798879691573
12251169 10 18260832613277305285
12346645 44 18412545414016794326
12382932 28 18409450245845331957
12932764 1 17060049354976678894
13214271 11 18202846569494837821
13549 16 9943533998237184893
13693222 15 17531242855183038756
13764800 53 17632302241947174073
13897977 58 18341900739538747740
14250199 8 11095583611820030075
14350558 41 13334742310139440906
15219456 202 17632027355149680311
15775835 57 18202004317374941891
17834072 14 13912321304444162870
18186145 218 14907900496451620230
19107657 162 14490191592110517840
200 152 16805599304756461527
201361 129 18341897338177694522
20201158 50 12829204473128049673
20279233 1 13695864831340551472
20281407 28 15864069853812760486
20361792 2 15647060356361917287
20645464 45 17703796907559180199
20645476 183 11312057613191760101
20645477 70 16806426081508173746
20671657 53 11746937581506249022
20871999 31 9295285032698202425
21061003 4 15936414442092496357
21119208 17 10159701278645549129
22485316 2 16153704332003811649
23402539 116 18131062780033629759
23402655 69 11311784963913666682
23403322 49 13117992292990235312
23557571 272 17346328136770277519
25 1 14405193858472961582
27216 239 17418085555380331769
57812782 119 14056719062570906370
7364860 26 17986680259517422358
74978 22 10375577205425614095
81228 2 16196738242231586326
90316 7 18260551078472441021
93112 12 9367337128851015219
9882013 296 17894912944830799194

>  <PUBCHEM_SHAPE_MULTIPOLES>  (1) 
255.8
7.44
1.37
1.07
3.95
0.1
0.01
-1.35
-2.45
-0.61
-0.1
0.21
0.04
-0.33

>  <PUBCHEM_SHAPE_SELFOVERLAP>  (1) 
525.452

>  <PUBCHEM_SHAPE_VOLUME>  (1) 
147

>  <PUBCHEM_COORDINATE_TYPE>  (1) 
2
5
10

$$$$
