22432
     RDKit          3D

 18 19  0  0  1  0  0  0  0  0999 V2000
    1.7119    2.8702   -1.0265 N   0  0  0  0  0  0  0  0  0  0  0  0
    5.2770   -2.2391    0.1647 N   0  0  0  0  0  0  0  0  0  0  0  0
   -6.1964   -0.9903   -0.3413 N   0  0  0  0  0  0  0  0  0  0  0  0
    1.3019    1.8271   -0.0739 C   0  0  0  0  0  0  0  0  0  0  0  0
   -0.1168    1.3253   -0.4356 C   0  0  0  0  0  0  0  0  0  0  0  0
   -0.7669    0.4172    0.6238 C   0  0  0  0  0  0  0  0  0  0  0  0
    2.3619    0.7440   -0.0105 C   0  0  0  0  0  0  0  0  0  0  0  0
   -2.2049    0.0440    0.3689 C   0  0  0  0  0  0  0  0  0  0  0  0
    3.0424    0.5385    1.1748 C   0  0  0  0  0  0  0  0  0  0  0  0
    2.6195   -0.0108   -1.1395 C   0  0  0  0  0  0  0  0  0  0  0  0
   -3.2167    0.8512    0.8668 C   0  0  0  0  0  0  0  0  0  0  0  0
   -2.4929   -1.1001   -0.3604 C   0  0  0  0  0  0  0  0  0  0  0  0
    4.0165   -0.4581    1.2334 C   0  0  0  0  0  0  0  0  0  0  0  0
    3.5935   -1.0076   -1.0810 C   0  0  0  0  0  0  0  0  0  0  0  0
    4.2921   -1.2314    0.1055 C   0  0  0  0  0  0  0  0  0  0  0  0
   -4.5475    0.5064    0.6301 C   0  0  0  0  0  0  0  0  0  0  0  0
   -3.8236   -1.4449   -0.5972 C   0  0  0  0  0  0  0  0  0  0  0  0
   -4.8509   -0.6416   -0.1021 C   0  0  0  0  0  0  0  0  0  0  0  0
  1  4  1  0
  2 15  1  0
  3 18  1  0
  4  5  1  0
  4  7  1  0
  5  6  1  0
  6  8  1  0
  7  9  2  0
  7 10  1  0
  8 11  2  0
  8 12  1  0
  9 13  1  0
 10 14  2  0
 11 16  1  0
 12 17  2  0
 13 15  2  0
 14 15  1  0
 16 18  2  0
 17 18  1  0
M  END
>  <PUBCHEM_COMPOUND_CID>  (1) 
22432

>  <PUBCHEM_CONFORMER_RMSD>  (1) 
0.6

>  <PUBCHEM_CONFORMER_DIVERSEORDER>  (1) 
2
19
11
21
30
22
16
13
9
5
1
17
12
27
29
4
26
6
7
23
3
8
24
25
14
18
15
20
28
10

>  <PUBCHEM_MMFF94_PARTIAL_CHARGES>  (1) 
31
1 -0.99
10 -0.15
11 -0.15
12 -0.15
13 -0.15
14 -0.15
15 0.1
16 -0.15
17 -0.15
18 0.1
2 -0.9
24 0.36
25 0.36
26 0.15
27 0.15
28 0.15
29 0.15
3 -0.9
30 0.15
31 0.15
32 0.15
33 0.15
34 0.4
35 0.4
36 0.4
37 0.4
4 0.41
6 0.14
7 -0.14
8 -0.14
9 -0.15

>  <PUBCHEM_EFFECTIVE_ROTOR_COUNT>  (1) 
4

>  <PUBCHEM_PHARMACOPHORE_FEATURES>  (1) 
8
1 1 cation
1 1 donor
1 2 cation
1 2 donor
1 3 cation
1 3 donor
6 7 9 10 13 14 15 rings
6 8 11 12 16 17 18 rings

>  <PUBCHEM_HEAVY_ATOM_COUNT>  (1) 
18

>  <PUBCHEM_ATOM_DEF_STEREO_COUNT>  (1) 
0

>  <PUBCHEM_ATOM_UDEF_STEREO_COUNT>  (1) 
1

>  <PUBCHEM_BOND_DEF_STEREO_COUNT>  (1) 
0

>  <PUBCHEM_BOND_UDEF_STEREO_COUNT>  (1) 
0

>  <PUBCHEM_ISOTOPIC_ATOM_COUNT>  (1) 
0

>  <PUBCHEM_COMPONENT_COUNT>  (1) 
1

>  <PUBCHEM_CACTVS_TAUTO_COUNT>  (1) 
1

>  <PUBCHEM_CONFORMER_ID>  (1) 
000057A000000002

>  <PUBCHEM_MMFF94_ENERGY>  (1) 
63.8935

>  <PUBCHEM_FEATURE_SELFOVERLAP>  (1) 
40.597

>  <PUBCHEM_SHAPE_FINGERPRINT>  (1) 
12107183 9 18197507216402882081
12363563 72 18333455318022300136
12553582 1 18040714736477970088
12555020 224 18335414686778017567
12892183 10 16271648863138206634
13167823 11 18413107290444533107
13533116 47 18270960253973273201
13583140 156 16486681472789404985
13675066 3 17846498140782593673
1420 369 18343303669199565387
14341114 328 15195278759465722202
14366163 111 12468356851350839492
14528608 73 10809343360599510739
15183329 4 18187357698092573797
15188451 53 17846489336321332599
15210252 30 8502365646791632958
15848700 24 18334575724729352712
15885798 251 18410575067520633233
16752209 62 17531518793905083809
17349148 13 18060424629404748317
17492 89 18194123138624458859
1813 80 18259705584031739652
18186145 218 17240482554563556313
18222031 100 18407759222837143856
20369508 70 17967808379566846568
20388580 30 18333735719357732076
204376 136 12175618477652229997
20645477 70 18187082909535943329
21618674 25 11383833779075325941
21652331 79 8502382126527834455
21728266 224 17417800808066121487
21756936 100 15408612693515786920
221357 26 13623524645413201422
22224240 67 18058435660542140016
2255824 54 18188495799447843484
22646028 1 18413390942895796809
22646028 28 18412263951724389015
22854114 59 11527951153336728721
23253445 4 16917340459373412146
23557571 272 15338575885136650633
23559900 14 17274838955578683964
23590187 198 18342738516376268811
2637199 183 10881396513430478872
26918003 58 17489585628060900882
270888 7 9511159855930934090
29717793 49 18411414038617350277
3004659 81 18342746238321343693
312423 11 18261688046652254617
32948 21 17240473694188475717
351380 3 18334294232451739594
42 15 17989489610583964417
465052 167 18408611378587420687
5104073 3 18059865003877457483
5207 123 18409728430782096693
5374978 207 16630529548343233251
543368 44 10809349940605816319
559249 180 18340767040567193083
573450 72 18060140946941513097
5924683 9 16702007730356366295
633830 44 17531242911571728905
6442390 28 10087630533550311788
67856867 119 18199183082302846089
76465 3 18410011013812909700
7808743 9 9654990266141810014
7970288 3 18262234426558941066
8988823 20 17131824417507700289
960060 61 17603309271073282422
9709674 26 18264491874201190779
9841814 1 17894903062354385200
9971528 1 18408882953754191288
9981440 41 17257364675145731625

>  <PUBCHEM_SHAPE_MULTIPOLES>  (1) 
355.49
12.42
2.01
1.1
7.6
0.54
-0.02
-7.19
-0.86
-1.51
0.51
-0.79
0.13
-0.78

>  <PUBCHEM_SHAPE_SELFOVERLAP>  (1) 
750.496

>  <PUBCHEM_SHAPE_VOLUME>  (1) 
200.5

>  <PUBCHEM_COORDINATE_TYPE>  (1) 
2
5
10

$$$$
