22433
     RDKit          3D

 12 11  0  0  0  0  0  0  0  0999 V2000
   -0.1533    1.5605   -0.0457 O   0  0  0  0  0  0  0  0  0  0  0  0
   -5.1306    0.5920    0.0567 O   0  0  0  0  0  0  0  0  0  0  0  0
   -4.1865   -1.4705   -0.0442 O   0  0  0  0  0  0  0  0  0  0  0  0
    2.3196    0.3280    0.0599 C   0  0  0  0  0  0  0  0  0  0  0  0
    3.6209   -0.4824    0.0721 C   0  0  0  0  0  0  0  0  0  0  0  0
    1.0422   -0.5060    0.0831 C   0  0  0  0  0  0  0  0  0  0  0  0
    4.9127    0.3338   -0.0178 C   0  0  0  0  0  0  0  0  0  0  0  0
   -0.2199    0.3319   -0.0054 C   0  0  0  0  0  0  0  0  0  0  0  0
   -1.5445   -0.4180   -0.0315 C   0  0  0  0  0  0  0  0  0  0  0  0
    6.1684   -0.5212   -0.0799 C   0  0  0  0  0  0  0  0  0  0  0  0
   -2.7602    0.5056   -0.0383 C   0  0  0  0  0  0  0  0  0  0  0  0
   -4.0688   -0.2536   -0.0090 C   0  0  0  0  0  0  0  0  0  0  0  0
  1  8  2  0
  2 12  1  0
  3 12  2  0
  4  5  1  0
  4  6  1  0
  5  7  1  0
  6  8  1  0
  7 10  1  0
  8  9  1  0
  9 11  1  0
 11 12  1  0
M  END
>  <PUBCHEM_COMPOUND_CID>  (1) 
22433

>  <PUBCHEM_CONFORMER_RMSD>  (1) 
0.8

>  <PUBCHEM_CONFORMER_DIVERSEORDER>  (1) 
1
184
77
53
194
28
174
50
107
90
196
164
111
176
189
24
195
108
197
3
104
83
74
128
72
173
204
5
145
115
154
10
67
158
97
179
201
91
6
16
7
183
26
171
124
143
8
18
70
131
106
150
69
2
182
41
199
113
208
146
11
202
160
58
96
198
190
60
44
43
12
172
34
116
20
99
33
15
207
191
148
180
66
139
209
9
141
73
4
75
186
192
71
21
200
76
40
163
30
13
151
31
206
102
126
88
112
98
19
127
64
159
35
100
84
37
185
121
119
132
161
110
32
165
61
46
152
38
170
133
210
168
125
65
79
162
136
48
87
177
29
94
51
55
205
181
138
23
122
56
36
92
25
59
118
134
89
39
169
80
137
78
42
188
47
22
95
54
166
149
117
85
14
62
82
120
135
147
142
63
86
114
45
105
103
101
153
144
130
155
123
57
157
203
178
17
193
175
93
156
167
52
187
68
140
49
109
81
27
129

>  <PUBCHEM_MMFF94_PARTIAL_CHARGES>  (1) 
9
1 -0.57
11 0.06
12 0.66
2 -0.65
28 0.5
3 -0.57
6 0.06
8 0.45
9 0.06

>  <PUBCHEM_EFFECTIVE_ROTOR_COUNT>  (1) 
7

>  <PUBCHEM_PHARMACOPHORE_FEATURES>  (1) 
6
1 1 acceptor
1 10 hydrophobe
1 2 acceptor
1 3 acceptor
3 2 3 12 anion
4 4 5 6 7 hydrophobe

>  <PUBCHEM_HEAVY_ATOM_COUNT>  (1) 
12

>  <PUBCHEM_ATOM_DEF_STEREO_COUNT>  (1) 
0

>  <PUBCHEM_ATOM_UDEF_STEREO_COUNT>  (1) 
0

>  <PUBCHEM_BOND_DEF_STEREO_COUNT>  (1) 
0

>  <PUBCHEM_BOND_UDEF_STEREO_COUNT>  (1) 
0

>  <PUBCHEM_ISOTOPIC_ATOM_COUNT>  (1) 
0

>  <PUBCHEM_COMPONENT_COUNT>  (1) 
1

>  <PUBCHEM_CACTVS_TAUTO_COUNT>  (1) 
3

>  <PUBCHEM_CONFORMER_ID>  (1) 
000057A100000001

>  <PUBCHEM_MMFF94_ENERGY>  (1) 
4.4405

>  <PUBCHEM_FEATURE_SELFOVERLAP>  (1) 
30.505

>  <PUBCHEM_SHAPE_FINGERPRINT>  (1) 
11287383 113 18343020025723065936
11401426 45 18408602561034950861
114248 4 14345794946163843738
12815109 37 18410573980861765092
13533116 47 17168133509051734522
14123238 8 16370723729808108966
1420 363 18272092695184028622
14251718 22 18334295387924159266
17834072 33 18411420656803257164
17834072 8 18408879629728799965
17834076 25 18409730651148293611
187816 3 16950002525981580560
20645477 70 18200879453378741886
20719005 15 18410573989889510602
20767249 13 18260829306548093634
20767249 213 9799684905524881850
20828058 44 18272651268307279975
22485316 2 18409727352708589699
23402539 116 18410569591399992079
23557571 272 18339083683754102628
42788 4 18411136939647785576
4463277 17 18411138039386578488
57483677 66 18410853253032378058
68521 5 18410575041729970765

>  <PUBCHEM_SHAPE_MULTIPOLES>  (1) 
229.35
13.07
1.05
0.6
6.74
0.03
0
-1.99
-0.21
-0.57
-0.01
0.08
-0.01
-0.02

>  <PUBCHEM_SHAPE_SELFOVERLAP>  (1) 
423.554

>  <PUBCHEM_SHAPE_VOLUME>  (1) 
144

>  <PUBCHEM_COORDINATE_TYPE>  (1) 
2
5
10

$$$$
