22446
     RDKit          3D

 10  9  0  0  0  0  0  0  0  0999 V2000
    2.6187    1.3167    0.8227 O   0  0  0  0  0  0  0  0  0  0  0  0
    3.2754    0.1109   -0.8995 O   0  0  0  0  0  0  0  0  0  0  0  0
    2.4846    0.3997    0.0051 N   0  0  0  0  0  0  0  0  0  0  0  0
   -2.1666    0.3583   -0.1008 C   0  0  0  0  0  0  0  0  0  0  0  0
   -1.0959   -0.5806   -0.6602 C   0  0  0  0  0  0  0  0  0  0  0  0
   -3.5490   -0.2941   -0.1335 C   0  0  0  0  0  0  0  0  0  0  0  0
    0.2666    0.0521   -0.5975 C   0  0  0  0  0  0  0  0  0  0  0  0
   -4.6110    0.6219    0.4536 C   0  0  0  0  0  0  0  0  0  0  0  0
    1.3057   -0.3998    0.1155 C   0  0  0  0  0  0  0  0  0  0  0  0
    1.4716   -1.5851    0.9947 C   0  0  0  0  0  0  0  0  0  0  0  0
  1  3  1  0
  2  3  2  0
  3  9  1  0
  4  5  1  0
  4  6  1  0
  5  7  1  0
  6  8  1  0
  7  9  2  0
  9 10  1  0
M  CHG  2   1  -1   3   1
M  END
>  <PUBCHEM_COMPOUND_CID>  (1) 
22446

>  <PUBCHEM_CONFORMER_RMSD>  (1) 
0.6

>  <PUBCHEM_CONFORMER_DIVERSEORDER>  (1) 
2
24
23
18
17
1
6
16
8
14
22
3
19
7
15
5
12
4
21
20
9
10
11
13

>  <PUBCHEM_MMFF94_PARTIAL_CHARGES>  (1) 
8
1 -0.52
10 0.14
17 0.15
2 -0.52
3 0.84
5 0.14
7 -0.29
9 0.07

>  <PUBCHEM_EFFECTIVE_ROTOR_COUNT>  (1) 
4

>  <PUBCHEM_PHARMACOPHORE_FEATURES>  (1) 
5
1 1 acceptor
1 1 anion
1 2 acceptor
1 8 hydrophobe
4 4 5 6 7 hydrophobe

>  <PUBCHEM_HEAVY_ATOM_COUNT>  (1) 
10

>  <PUBCHEM_ATOM_DEF_STEREO_COUNT>  (1) 
0

>  <PUBCHEM_ATOM_UDEF_STEREO_COUNT>  (1) 
0

>  <PUBCHEM_BOND_DEF_STEREO_COUNT>  (1) 
0

>  <PUBCHEM_BOND_UDEF_STEREO_COUNT>  (1) 
1

>  <PUBCHEM_ISOTOPIC_ATOM_COUNT>  (1) 
0

>  <PUBCHEM_COMPONENT_COUNT>  (1) 
1

>  <PUBCHEM_CACTVS_TAUTO_COUNT>  (1) 
1

>  <PUBCHEM_CONFORMER_ID>  (1) 
000057AE00000002

>  <PUBCHEM_MMFF94_ENERGY>  (1) 
12.5673

>  <PUBCHEM_FEATURE_SELFOVERLAP>  (1) 
25.451

>  <PUBCHEM_SHAPE_FINGERPRINT>  (1) 
10219947 1 16950282918420680942
11062470 55 15213020462006351789
12932764 1 18337942433496539191
14252887 29 16153718587374839569
14325111 11 17846215579242408943
15477762 27 9583518728400866920
170605 34 18342737446438697630
177051 138 12468631716531267129
20279233 1 16008746897195206387
20645477 70 17823121347050988067
20871998 22 17975687295324381922
3248919 1 16732983102950648983
449060 50 17749115499785510517
581208 293 17530679909693662755

>  <PUBCHEM_SHAPE_MULTIPOLES>  (1) 
189.08
7.16
1.13
0.92
6.28
0.32
0.02
-1.64
0.96
-0.72
0.33
-0.28
0
-0.21

>  <PUBCHEM_SHAPE_SELFOVERLAP>  (1) 
349.825

>  <PUBCHEM_SHAPE_VOLUME>  (1) 
120.1

>  <PUBCHEM_COORDINATE_TYPE>  (1) 
2
5
10

$$$$
