22441
     RDKit          3D

 11 10  0  0  0  0  0  0  0  0999 V2000
   -2.5741    0.4868   -1.4800 O   0  0  0  0  0  0  0  0  0  0  0  0
   -3.1298    1.1681    0.5394 O   0  0  0  0  0  0  0  0  0  0  0  0
   -2.3902    0.5876   -0.2623 N   0  0  0  0  0  0  0  0  0  0  0  0
    2.3067    0.3886   -0.2191 C   0  0  0  0  0  0  0  0  0  0  0  0
    1.2081    0.4143    0.8480 C   0  0  0  0  0  0  0  0  0  0  0  0
    3.6846    0.0392    0.3485 C   0  0  0  0  0  0  0  0  0  0  0  0
   -0.1407    0.7794    0.2922 C   0  0  0  0  0  0  0  0  0  0  0  0
   -1.2122   -0.0237    0.2680 C   0  0  0  0  0  0  0  0  0  0  0  0
   -1.4074   -1.4254    0.7427 C   0  0  0  0  0  0  0  0  0  0  0  0
    4.7476    0.0357   -0.7393 C   0  0  0  0  0  0  0  0  0  0  0  0
   -1.0926   -2.4507   -0.3381 C   0  0  0  0  0  0  0  0  0  0  0  0
  1  3  1  0
  2  3  2  0
  3  8  1  0
  4  5  1  0
  4  6  1  0
  5  7  1  0
  6 10  1  0
  7  8  2  0
  8  9  1  0
  9 11  1  0
M  CHG  2   1  -1   3   1
M  END
>  <PUBCHEM_COMPOUND_CID>  (1) 
22441

>  <PUBCHEM_CONFORMER_RMSD>  (1) 
0.6

>  <PUBCHEM_CONFORMER_DIVERSEORDER>  (1) 
5
28
27
35
43
62
58
59
54
44
10
56
39
61
48
33
34
18
51
42
50
40
55
38
25
36
46
47
4
49
53
26
41
37
52
22
19
60
21
7
45
20
17
57
24
11
30
14
3
29
23
2
13
8
16
12
1
32
9
6
31
15

>  <PUBCHEM_MMFF94_PARTIAL_CHARGES>  (1) 
8
1 -0.52
18 0.15
2 -0.52
3 0.84
5 0.14
7 -0.29
8 0.07
9 0.14

>  <PUBCHEM_EFFECTIVE_ROTOR_COUNT>  (1) 
5

>  <PUBCHEM_PHARMACOPHORE_FEATURES>  (1) 
6
1 1 acceptor
1 1 anion
1 10 hydrophobe
1 11 hydrophobe
1 2 acceptor
4 4 5 6 7 hydrophobe

>  <PUBCHEM_HEAVY_ATOM_COUNT>  (1) 
11

>  <PUBCHEM_ATOM_DEF_STEREO_COUNT>  (1) 
0

>  <PUBCHEM_ATOM_UDEF_STEREO_COUNT>  (1) 
0

>  <PUBCHEM_BOND_DEF_STEREO_COUNT>  (1) 
0

>  <PUBCHEM_BOND_UDEF_STEREO_COUNT>  (1) 
1

>  <PUBCHEM_ISOTOPIC_ATOM_COUNT>  (1) 
0

>  <PUBCHEM_COMPONENT_COUNT>  (1) 
1

>  <PUBCHEM_CACTVS_TAUTO_COUNT>  (1) 
1

>  <PUBCHEM_CONFORMER_ID>  (1) 
000057A900000005

>  <PUBCHEM_MMFF94_ENERGY>  (1) 
11.3606

>  <PUBCHEM_FEATURE_SELFOVERLAP>  (1) 
30.525

>  <PUBCHEM_SHAPE_FINGERPRINT>  (1) 
10726558 24 18339080367780516581
11062470 55 17775566420913554632
11127187 94 18341051912398882782
12138202 97 18409160017530405334
12716758 59 18341042016625207122
12932764 1 17749099024328224104
14577589 140 18335425681366404346
15310529 11 16733256868023349976
20201158 50 17988929955266175942
20211469 26 13038904408983006664
20279233 1 17988924487978445458
20645476 183 17821446867670989122
20645477 56 18408322215703652704
20871999 31 18335140955162760710
22485316 2 16559028264735256372
22959321 105 18268996560850763440
23402539 116 18272364252780793421
23559900 14 18343301475499717616
3248919 1 17774731934716963816
366044 4 18411138013600664827
4175511 318 18113334211011906606
58051976 100 18260834846871523006
93112 12 18409449223975600316
9939556 21 18188777261634480916

>  <PUBCHEM_SHAPE_MULTIPOLES>  (1) 
209.66
6.8
1.6
0.99
8.23
1.26
0.17
-0.96
1.5
-1.53
0.03
-0.23
-0.05
0.17

>  <PUBCHEM_SHAPE_SELFOVERLAP>  (1) 
388.023

>  <PUBCHEM_SHAPE_VOLUME>  (1) 
133.1

>  <PUBCHEM_COORDINATE_TYPE>  (1) 
2
5
10

$$$$
