22447
     RDKit          3D

  9  8  0  0  0  0  0  0  0  0999 V2000
   -1.2318    1.4478    1.1215 O   0  0  0  0  0  0  0  0  0  0  0  0
   -1.9404    1.2070   -0.9499 O   0  0  0  0  0  0  0  0  0  0  0  0
   -1.2574    0.8780    0.0255 N   0  0  0  0  0  0  0  0  0  0  0  0
    0.9390    0.0305   -0.6735 C   0  0  0  0  0  0  0  0  0  0  0  0
    1.9556    0.3169    0.4351 C   0  0  0  0  0  0  0  0  0  0  0  0
   -0.4188   -0.2694   -0.1279 C   0  0  0  0  0  0  0  0  0  0  0  0
    3.3374    0.5941   -0.1367 C   0  0  0  0  0  0  0  0  0  0  0  0
   -1.0051   -1.4258    0.2068 C   0  0  0  0  0  0  0  0  0  0  0  0
   -0.3786   -2.7792    0.0990 C   0  0  0  0  0  0  0  0  0  0  0  0
  1  3  1  0
  2  3  2  0
  3  6  1  0
  4  5  1  0
  4  6  1  0
  5  7  1  0
  6  8  2  0
  8  9  1  0
M  CHG  2   1  -1   3   1
M  END
>  <PUBCHEM_COMPOUND_CID>  (1) 
22447

>  <PUBCHEM_CONFORMER_RMSD>  (1) 
0.6

>  <PUBCHEM_CONFORMER_DIVERSEORDER>  (1) 
1
6
8
9
7
3
4
5
2

>  <PUBCHEM_MMFF94_PARTIAL_CHARGES>  (1) 
8
1 -0.52
17 0.15
2 -0.52
3 0.84
4 0.14
6 0.07
8 -0.29
9 0.14

>  <PUBCHEM_EFFECTIVE_ROTOR_COUNT>  (1) 
3

>  <PUBCHEM_PHARMACOPHORE_FEATURES>  (1) 
5
1 1 acceptor
1 1 anion
1 2 acceptor
1 7 hydrophobe
1 9 hydrophobe

>  <PUBCHEM_HEAVY_ATOM_COUNT>  (1) 
9

>  <PUBCHEM_ATOM_DEF_STEREO_COUNT>  (1) 
0

>  <PUBCHEM_ATOM_UDEF_STEREO_COUNT>  (1) 
0

>  <PUBCHEM_BOND_DEF_STEREO_COUNT>  (1) 
0

>  <PUBCHEM_BOND_UDEF_STEREO_COUNT>  (1) 
1

>  <PUBCHEM_ISOTOPIC_ATOM_COUNT>  (1) 
0

>  <PUBCHEM_COMPONENT_COUNT>  (1) 
1

>  <PUBCHEM_CACTVS_TAUTO_COUNT>  (1) 
1

>  <PUBCHEM_CONFORMER_ID>  (1) 
000057AF00000001

>  <PUBCHEM_MMFF94_ENERGY>  (1) 
12.5876

>  <PUBCHEM_FEATURE_SELFOVERLAP>  (1) 
25.451

>  <PUBCHEM_SHAPE_FINGERPRINT>  (1) 
137420 1 8879576633881861959
20871998 184 18197788905985480374
21040471 1 18336829697527289070
23552449 1 18197216060442823832

>  <PUBCHEM_SHAPE_MULTIPOLES>  (1) 
168.5
3.3
2.17
0.86
3.97
1.21
-0.03
-0.48
0.1
-1.83
-0.17
-0.13
-0.28
0.11

>  <PUBCHEM_SHAPE_SELFOVERLAP>  (1) 
312.348

>  <PUBCHEM_SHAPE_VOLUME>  (1) 
107.3

>  <PUBCHEM_COORDINATE_TYPE>  (1) 
2
5
10

$$$$
