22459
     RDKit          3D

  6  6  0  0  0  0  0  0  0  0999 V2000
    0.6835    0.0464   -0.0004 N   0  0  0  0  0  0  0  0  0  0  0  0
    0.0421   -1.1319   -0.0001 N   0  0  0  0  0  0  0  0  0  0  0  0
   -1.4240    0.6241    0.0004 N   0  0  0  0  0  0  0  0  0  0  0  0
    2.1231    0.1041    0.0004 C   0  0  0  0  0  0  0  0  0  0  0  0
   -0.1948    1.0849   -0.0003 C   0  0  0  0  0  0  0  0  0  0  0  0
   -1.2300   -0.7276    0.0001 C   0  0  0  0  0  0  0  0  0  0  0  0
  1  2  1  0
  1  4  1  0
  1  5  1  0
  2  6  2  0
  3  5  2  0
  3  6  1  0
M  END
>  <PUBCHEM_COMPOUND_CID>  (1) 
22459

>  <PUBCHEM_CONFORMER_RMSD>  (1) 
0.4

>  <PUBCHEM_CONFORMER_DIVERSEORDER>  (1) 
1

>  <PUBCHEM_MMFF94_PARTIAL_CHARGES>  (1) 
8
1 0.31
10 0.15
11 0.15
2 -0.71
3 -0.57
4 0.26
5 0.04
6 0.37

>  <PUBCHEM_EFFECTIVE_ROTOR_COUNT>  (1) 
0

>  <PUBCHEM_PHARMACOPHORE_FEATURES>  (1) 
3
3 1 3 5 cation
3 2 3 6 cation
5 1 2 3 5 6 rings

>  <PUBCHEM_HEAVY_ATOM_COUNT>  (1) 
6

>  <PUBCHEM_ATOM_DEF_STEREO_COUNT>  (1) 
0

>  <PUBCHEM_ATOM_UDEF_STEREO_COUNT>  (1) 
0

>  <PUBCHEM_BOND_DEF_STEREO_COUNT>  (1) 
0

>  <PUBCHEM_BOND_UDEF_STEREO_COUNT>  (1) 
0

>  <PUBCHEM_ISOTOPIC_ATOM_COUNT>  (1) 
0

>  <PUBCHEM_COMPONENT_COUNT>  (1) 
1

>  <PUBCHEM_CACTVS_TAUTO_COUNT>  (1) 
1

>  <PUBCHEM_CONFORMER_ID>  (1) 
000057BB00000001

>  <PUBCHEM_MMFF94_ENERGY>  (1) 
3.04

>  <PUBCHEM_FEATURE_SELFOVERLAP>  (1) 
17.972

>  <PUBCHEM_SHAPE_FINGERPRINT>  (1) 
139733 1 9294749582987886530
16714656 1 18410581694828783132
20096714 4 18338799987914958336
21015797 1 9150013175269147337
21040471 1 18266458706907850693
29004967 10 18188216523161747899
5943 1 8623463013809957007

>  <PUBCHEM_SHAPE_MULTIPOLES>  (1) 
108.53
2.08
1.14
0.57
0.98
0.02
0
-0.02
0
-0.24
0
0.01
0.01
0

>  <PUBCHEM_SHAPE_SELFOVERLAP>  (1) 
217.43

>  <PUBCHEM_SHAPE_VOLUME>  (1) 
66.6

>  <PUBCHEM_COORDINATE_TYPE>  (1) 
2
5
10

$$$$
