2245
     RDKit          2D

 34 36  0  0  1  0  0  0  0  0999 V2000
    0.0000    0.0000    0.0000 S   0  0  0  0  0  0  0  0  0  0  0  0
    0.0000    0.0000    0.0000 O   0  0  0  0  0  0  0  0  0  0  0  0
    0.0000    0.0000    0.0000 O   0  0  0  0  0  0  0  0  0  0  0  0
    0.0000    0.0000    0.0000 O   0  0  0  0  0  0  0  0  0  0  0  0
    0.0000    0.0000    0.0000 O   0  0  0  0  0  0  0  0  0  0  0  0
    0.0000    0.0000    0.0000 O   0  0  0  0  0  0  0  0  0  0  0  0
    0.0000    0.0000    0.0000 O   0  0  0  0  0  0  0  0  0  0  0  0
    0.0000    0.0000    0.0000 O   0  0  0  0  0  0  0  0  0  0  0  0
    0.0000    0.0000    0.0000 N   0  0  0  0  0  0  0  0  0  0  0  0
    0.0000    0.0000    0.0000 N   0  0  0  0  0  0  0  0  0  0  0  0
    0.0000    0.0000    0.0000 N   0  0  0  0  0  0  0  0  0  0  0  0
    0.0000    0.0000    0.0000 N   0  0  0  0  0  0  0  0  0  0  0  0
    0.0000    0.0000    0.0000 N   0  0  0  0  0  0  0  0  0  0  0  0
    0.0000    0.0000    0.0000 C   0  0  0  0  0  0  0  0  0  0  0  0
    0.0000    0.0000    0.0000 C   0  0  0  0  0  0  0  0  0  0  0  0
    0.0000    0.0000    0.0000 C   0  0  0  0  0  0  0  0  0  0  0  0
    0.0000    0.0000    0.0000 C   0  0  0  0  0  0  0  0  0  0  0  0
    0.0000    0.0000    0.0000 C   0  0  0  0  0  0  0  0  0  0  0  0
    0.0000    0.0000    0.0000 C   0  0  0  0  0  0  0  0  0  0  0  0
    0.0000    0.0000    0.0000 C   0  0  0  0  0  0  0  0  0  0  0  0
    0.0000    0.0000    0.0000 C   0  0  0  0  0  0  0  0  0  0  0  0
    0.0000    0.0000    0.0000 C   0  0  0  0  0  0  0  0  0  0  0  0
    0.0000    0.0000    0.0000 C   0  0  0  0  0  0  0  0  0  0  0  0
    0.0000    0.0000    0.0000 C   0  0  0  0  0  0  0  0  0  0  0  0
    0.0000    0.0000    0.0000 C   0  0  0  0  0  0  0  0  0  0  0  0
    0.0000    0.0000    0.0000 C   0  0  0  0  0  0  0  0  0  0  0  0
    0.0000    0.0000    0.0000 C   0  0  0  0  0  0  0  0  0  0  0  0
    0.0000    0.0000    0.0000 C   0  0  0  0  0  0  0  0  0  0  0  0
    0.0000    0.0000    0.0000 C   0  0  0  0  0  0  0  0  0  0  0  0
    0.0000    0.0000    0.0000 C   0  0  0  0  0  0  0  0  0  0  0  0
    0.0000    0.0000    0.0000 C   0  0  0  0  0  0  0  0  0  0  0  0
    0.0000    0.0000    0.0000 C   0  0  0  0  0  0  0  0  0  0  0  0
    0.0000    0.0000    0.0000 C   0  0  0  0  0  0  0  0  0  0  0  0
    0.0000    0.0000    0.0000 C   0  0  0  0  0  0  0  0  0  0  0  0
  1 14  1  0
  1 15  1  0
  2 18  2  0
  3 21  1  0
  4 21  2  0
  5 22  2  0
  6 25  2  0
  7 32  1  0
  8 33  2  0
  9 14  1  0
  9 16  1  0
  9 18  1  0
 10 17  1  0
 10 22  1  0
 11 23  1  0
 11 25  1  0
 12 28  1  0
 13 33  1  0
 13 34  1  0
 14 17  1  0
 15 16  1  0
 15 19  1  0
 15 20  1  0
 16 21  1  0
 17 18  1  0
 22 23  1  0
 23 24  1  0
 24 26  2  0
 24 27  1  0
 25 28  1  0
 26 29  1  0
 27 30  2  0
 28 31  1  0
 29 32  2  0
 30 32  1  0
 31 33  1  0
M  END
>  <PUBCHEM_COMPOUND_CID>  (1) 
2245

>  <PUBCHEM_CONFORMER_RMSD>  (1) 
1.4

>  <PUBCHEM_CONFORMER_DIVERSEORDER>  (1) 
38
291
315
158
305
156
235
112
151
293
96
102
92
295
244
180
191
82
207
187
24
268
313
276
266
274
169
245
26
209
87
316
176
100
121
131
182
11
307
120
302
294
257
4
129
248
199
255
214
242
188
282
68
243
32
303
236
37
298
285
6
175
306
232
141
111
189
81
272
135
205
275
171
202
25
145
35
119
7
159
301
213
177
157
140
115
72
287
198
172
104
89
33
57
49
267
20
221
58
262
9
230
253
206
21
240
250
222
280
233
290
284
251
197
63
312
117
265
155
165
183
252
16
203
259
56
132
178
166
69
152
201
50
299
167
227
28
249
308
193
271
67
130
85
246
218
42
19
297
83
148
215
273
256
74
231
164
204
196
64
27
46
134
106
128
77
110
277
238
190
66
101
225
125
223
62
40
185
146
97
237
30
65
174
261
217
91
269
93
138
173
283
15
317
292
76
220
86
208
139
80
154
34
108
71
127
124
133
163
194
78
224
94
18
52
144
3
99
216
234
241
278
31
247
229
137
181
116
186
143
103
226
219
210
254
70
184
136
281
142
314
311
2
107
192
168
300
309
113
75
1
211
304
54
84
260
296
13
122
79
239
48
44
109
162
29
90
264
160
8
23
263
41
179
14
150
123
47
118
88
114
279
73
310
61
286
12
53
98
289
270
39
147
258
22
161
200
51
17
195
5
149
288
153
105
45
36
59
95
60
126
228
55
10
212
43
170

>  <PUBCHEM_MMFF94_PARTIAL_CHARGES>  (1) 
43
1 -0.45
10 -0.65
11 -0.73
12 -0.99
13 -0.73
14 0.44
15 0.23
16 0.36
17 0.28
18 0.58
2 -0.57
21 0.66
22 0.57
23 0.5
24 -0.14
25 0.57
26 -0.15
27 -0.15
28 0.33
29 -0.15
3 -0.65
30 -0.15
31 0.06
32 0.08
33 0.57
34 0.3
4 -0.57
44 0.37
46 0.5
47 0.37
48 0.15
49 0.15
5 -0.57
51 0.15
52 0.15
55 0.36
56 0.36
57 0.45
58 0.37
6 -0.57
7 -0.53
8 -0.57
9 -0.59

>  <PUBCHEM_EFFECTIVE_ROTOR_COUNT>  (1) 
11.8

>  <PUBCHEM_PHARMACOPHORE_FEATURES>  (1) 
17
1 10 donor
1 11 donor
1 12 cation
1 12 donor
1 13 donor
1 2 acceptor
1 3 acceptor
1 4 acceptor
1 5 acceptor
1 6 acceptor
1 7 donor
1 8 acceptor
3 15 19 20 hydrophobe
3 3 4 21 anion
4 9 14 17 18 rings
6 24 26 27 29 30 32 rings
7 1 9 14 15 16 17 18 rings

>  <PUBCHEM_HEAVY_ATOM_COUNT>  (1) 
34

>  <PUBCHEM_ATOM_DEF_STEREO_COUNT>  (1) 
0

>  <PUBCHEM_ATOM_UDEF_STEREO_COUNT>  (1) 
5

>  <PUBCHEM_BOND_DEF_STEREO_COUNT>  (1) 
0

>  <PUBCHEM_BOND_UDEF_STEREO_COUNT>  (1) 
0

>  <PUBCHEM_ISOTOPIC_ATOM_COUNT>  (1) 
0

>  <PUBCHEM_COMPONENT_COUNT>  (1) 
1

>  <PUBCHEM_CACTVS_TAUTO_COUNT>  (1) 
16

$$$$
