22469
     RDKit          3D

 21 23  0  0  0  0  0  0  0  0999 V2000
    3.5420    0.8257   -0.4549 O   0  0  0  0  0  0  0  0  0  0  0  0
    2.5206   -2.5757   -0.5202 O   0  0  0  0  0  0  0  0  0  0  0  0
    3.5378    0.7034    1.8609 O   0  0  0  0  0  0  0  0  0  0  0  0
    2.5784   -0.2329   -0.4579 N   0  0  0  0  0  0  0  0  0  0  0  0
   -2.0949   -1.5546    0.7934 C   0  0  0  0  0  0  0  0  0  0  0  0
   -0.9936   -0.6990    0.2031 C   0  0  0  0  0  0  0  0  0  0  0  0
   -1.5326    0.4748   -0.3698 C   0  0  0  0  0  0  0  0  0  0  0  0
   -3.3260   -0.7275    0.4877 C   0  0  0  0  0  0  0  0  0  0  0  0
   -2.9689    0.4573   -0.1946 C   0  0  0  0  0  0  0  0  0  0  0  0
    0.3665   -0.9538    0.1846 C   0  0  0  0  0  0  0  0  0  0  0  0
   -0.7048    1.4089   -0.9700 C   0  0  0  0  0  0  0  0  0  0  0  0
    1.2007   -0.0121   -0.4205 C   0  0  0  0  0  0  0  0  0  0  0  0
   -4.6440   -1.0151    0.7961 C   0  0  0  0  0  0  0  0  0  0  0  0
   -3.9391    1.3693   -0.5755 C   0  0  0  0  0  0  0  0  0  0  0  0
    0.6705    1.1576   -0.9917 C   0  0  0  0  0  0  0  0  0  0  0  0
   -5.6218   -0.0956    0.4120 C   0  0  0  0  0  0  0  0  0  0  0  0
   -5.2729    1.0847   -0.2669 C   0  0  0  0  0  0  0  0  0  0  0  0
    3.1525   -1.5186   -0.5022 C   0  0  0  0  0  0  0  0  0  0  0  0
    4.6646   -1.5837   -0.5390 C   0  0  0  0  0  0  0  0  0  0  0  0
    3.9301    1.1894    0.8086 C   0  0  0  0  0  0  0  0  0  0  0  0
    4.9347    2.2976    0.7170 C   0  0  0  0  0  0  0  0  0  0  0  0
  1  4  1  0
  1 20  1  0
  2 18  2  0
  3 20  2  0
  4 12  1  0
  4 18  1  0
  5  6  1  0
  5  8  1  0
  6  7  2  0
  6 10  1  0
  7  9  1  0
  7 11  1  0
  8  9  2  0
  8 13  1  0
  9 14  1  0
 10 12  2  0
 11 15  2  0
 12 15  1  0
 13 16  2  0
 14 17  2  0
 16 17  1  0
 18 19  1  0
 20 21  1  0
M  END
>  <PUBCHEM_COMPOUND_CID>  (1) 
22469

>  <PUBCHEM_CONFORMER_RMSD>  (1) 
0.6

>  <PUBCHEM_CONFORMER_DIVERSEORDER>  (1) 
1
21
20
11
32
44
48
29
37
25
50
47
18
9
33
39
27
28
35
46
14
10
51
34
15
38
26
12
23
49
22
30
17
3
41
40
42
5
43
31
2
36
4
45
8
16
24
19
6
13
7

>  <PUBCHEM_MMFF94_PARTIAL_CHARGES>  (1) 
26
1 -0.19
10 -0.15
11 -0.15
12 0.12
13 -0.15
14 -0.15
15 -0.15
16 -0.15
17 -0.15
18 0.57
19 0.06
2 -0.57
20 0.66
21 0.06
24 0.15
25 0.15
26 0.15
27 0.15
28 0.15
29 0.15
3 -0.57
30 0.15
4 -0.14
5 0.29
6 -0.14
8 -0.14

>  <PUBCHEM_EFFECTIVE_ROTOR_COUNT>  (1) 
4.2

>  <PUBCHEM_PHARMACOPHORE_FEATURES>  (1) 
5
1 2 acceptor
1 3 acceptor
5 5 6 7 8 9 rings
6 6 7 10 11 12 15 rings
6 8 9 13 14 16 17 rings

>  <PUBCHEM_HEAVY_ATOM_COUNT>  (1) 
21

>  <PUBCHEM_ATOM_DEF_STEREO_COUNT>  (1) 
0

>  <PUBCHEM_ATOM_UDEF_STEREO_COUNT>  (1) 
0

>  <PUBCHEM_BOND_DEF_STEREO_COUNT>  (1) 
0

>  <PUBCHEM_BOND_UDEF_STEREO_COUNT>  (1) 
0

>  <PUBCHEM_ISOTOPIC_ATOM_COUNT>  (1) 
0

>  <PUBCHEM_COMPONENT_COUNT>  (1) 
1

>  <PUBCHEM_CACTVS_TAUTO_COUNT>  (1) 
1

>  <PUBCHEM_CONFORMER_ID>  (1) 
000057C500000001

>  <PUBCHEM_MMFF94_ENERGY>  (1) 
76.1039

>  <PUBCHEM_FEATURE_SELFOVERLAP>  (1) 
25.536

>  <PUBCHEM_SHAPE_FINGERPRINT>  (1) 
10912923 1 17060338518192781959
11132069 177 18113901554922606277
12236239 1 15410610363586569046
12403259 415 18335420123810728765
12507560 40 18411700980406953093
12616971 3 16917343714800418781
12670546 56 17917716768783293201
13533116 47 18130792217788134867
13544592 145 18337115574893386086
13583140 156 17774436217459829459
13631057 29 17271991353775613983
13675066 3 18335143098483102263
13955234 65 18272368659939478690
14022347 108 17386298605401734214
15196674 1 18260835886501320775
15375358 24 18335420188013477463
15536298 74 18408889512121513175
15880784 105 18060139855782819551
17844677 252 18272095954948317609
17980427 23 17751074928369836916
1813 80 16660364787641119029
19141452 34 18410298021293495383
19784866 170 18337109068276291556
200 152 18131069282155121095
20645477 56 18408321111991626257
20645477 70 18060142003139750614
21033648 29 18272077293320815233
21065201 7 17822294548191482563
21130935 74 18412271623528283163
21267235 1 18041576775707441979
21452121 103 18410569591964338504
21618674 25 18341890822680528058
22182313 1 18114452362576201437
22854114 59 18343302591009708897
23366157 5 16735247160532965069
23402539 116 18408885114560357511
23557571 272 17895761694640083109
23559900 14 18334020471362490510
239999 70 18333454231585621270
268830 7 17632308851928216771
296302 2 17775568658686195037
3004659 81 17458352930811249342
335352 9 18186807938078508293
34797466 226 17561091336308443461
34934 24 18410007771128620367
350125 39 18410577254444522364
3545911 37 18410860970613439660
495365 180 18131060529075159810
5104073 3 18335425634353626585
5374978 207 18334855009072275960
542803 24 16200437970447492953
9709674 26 18187656854990965699
9971528 1 18261115170575322748

>  <PUBCHEM_SHAPE_MULTIPOLES>  (1) 
409.58
11.91
2.07
1.06
2.43
0.23
0.23
-1.9
2.13
-2.01
-0.07
-0.64
-0.18
1.88

>  <PUBCHEM_SHAPE_SELFOVERLAP>  (1) 
896.522

>  <PUBCHEM_SHAPE_VOLUME>  (1) 
223.1

>  <PUBCHEM_COORDINATE_TYPE>  (1) 
2
5
10

$$$$
