22460
     RDKit          3D

  9  9  0  0  0  0  0  0  0  0999 V2000
    0.8214   -0.0177    0.3423 N   0  0  0  0  0  0  0  0  0  0  0  0
    1.4483   -1.1428    0.0015 N   0  0  0  0  0  0  0  0  0  0  0  0
    2.7342    0.7123   -0.3698 N   0  0  0  0  0  0  0  0  0  0  0  0
   -1.5927    0.0152   -0.2160 C   0  0  0  0  0  0  0  0  0  0  0  0
   -0.5334   -0.0676    0.8820 C   0  0  0  0  0  0  0  0  0  0  0  0
   -3.0021   -0.0274    0.3722 C   0  0  0  0  0  0  0  0  0  0  0  0
   -4.0618    0.0948   -0.7110 C   0  0  0  0  0  0  0  0  0  0  0  0
    1.5753    1.0796    0.1257 C   0  0  0  0  0  0  0  0  0  0  0  0
    2.6108   -0.6464   -0.4269 C   0  0  0  0  0  0  0  0  0  0  0  0
  1  2  1  0
  1  5  1  0
  1  8  1  0
  2  9  2  0
  3  8  2  0
  3  9  1  0
  4  5  1  0
  4  6  1  0
  6  7  1  0
M  END
>  <PUBCHEM_COMPOUND_CID>  (1) 
22460

>  <PUBCHEM_CONFORMER_RMSD>  (1) 
0.6

>  <PUBCHEM_CONFORMER_DIVERSEORDER>  (1) 
2
10
14
6
4
11
8
9
5
1
12
7
3
13

>  <PUBCHEM_MMFF94_PARTIAL_CHARGES>  (1) 
8
1 0.31
19 0.15
2 -0.71
20 0.15
3 -0.57
5 0.26
8 0.04
9 0.37

>  <PUBCHEM_EFFECTIVE_ROTOR_COUNT>  (1) 
3

>  <PUBCHEM_PHARMACOPHORE_FEATURES>  (1) 
4
1 7 hydrophobe
3 1 3 8 cation
3 2 3 9 cation
5 1 2 3 8 9 rings

>  <PUBCHEM_HEAVY_ATOM_COUNT>  (1) 
9

>  <PUBCHEM_ATOM_DEF_STEREO_COUNT>  (1) 
0

>  <PUBCHEM_ATOM_UDEF_STEREO_COUNT>  (1) 
0

>  <PUBCHEM_BOND_DEF_STEREO_COUNT>  (1) 
0

>  <PUBCHEM_BOND_UDEF_STEREO_COUNT>  (1) 
0

>  <PUBCHEM_ISOTOPIC_ATOM_COUNT>  (1) 
0

>  <PUBCHEM_COMPONENT_COUNT>  (1) 
1

>  <PUBCHEM_CACTVS_TAUTO_COUNT>  (1) 
1

>  <PUBCHEM_CONFORMER_ID>  (1) 
000057BC00000002

>  <PUBCHEM_MMFF94_ENERGY>  (1) 
0.5128

>  <PUBCHEM_FEATURE_SELFOVERLAP>  (1) 
23.068

>  <PUBCHEM_SHAPE_FINGERPRINT>  (1) 
11062470 55 7853856083641635103
12897270 3 18409450297379612809
12932764 1 17603581928877766683
14325111 11 18335139804222152187
14390081 3 17240478100866963149
177051 138 12823289126767576053
20645477 70 18338233765560935191
20711983 171 18059861606500628009
23402655 69 18412542089944293973
3248919 1 18413389830515111091

>  <PUBCHEM_SHAPE_MULTIPOLES>  (1) 
170.27
6.05
0.95
0.81
4.82
0.01
-0.04
0.05
1.58
-0.66
0.02
0.27
0
0.03

>  <PUBCHEM_SHAPE_SELFOVERLAP>  (1) 
331.693

>  <PUBCHEM_SHAPE_VOLUME>  (1) 
104.2

>  <PUBCHEM_COORDINATE_TYPE>  (1) 
2
5
10

$$$$
