22478
     RDKit          3D

 12 11  0  0  0  0  0  0  0  0999 V2000
    2.5277    0.6668    1.2991 O   0  0  0  0  0  0  0  0  0  0  0  0
   -2.1574    1.4409    1.1283 O   0  0  0  0  0  0  0  0  0  0  0  0
    1.1814    0.3476   -0.5688 N   0  0  0  0  0  0  0  0  0  0  0  0
   -1.2000    0.1793   -0.5752 N   0  0  0  0  0  0  0  0  0  0  0  0
    3.2859    1.2415   -0.7910 N   0  0  0  0  0  0  0  0  0  0  0  0
   -3.2388    1.1916   -0.8812 N   0  0  0  0  0  0  0  0  0  0  0  0
    0.1504   -1.7526    0.2555 C   0  0  0  0  0  0  0  0  0  0  0  0
    0.0220   -0.2139    0.1144 C   0  0  0  0  0  0  0  0  0  0  0  0
   -1.0222   -2.3530    1.0358 C   0  0  0  0  0  0  0  0  0  0  0  0
    0.2979   -2.4643   -1.0938 C   0  0  0  0  0  0  0  0  0  0  0  0
    2.3407    0.7417    0.0859 C   0  0  0  0  0  0  0  0  0  0  0  0
   -2.1876    0.9743   -0.0091 C   0  0  0  0  0  0  0  0  0  0  0  0
  1 11  2  0
  2 12  2  0
  3  8  1  0
  3 11  1  0
  4  8  1  0
  4 12  1  0
  5 11  1  0
  6 12  1  0
  7  8  1  0
  7  9  1  0
  7 10  1  0
M  END
>  <PUBCHEM_COMPOUND_CID>  (1) 
22478

>  <PUBCHEM_CONFORMER_RMSD>  (1) 
0.6

>  <PUBCHEM_CONFORMER_DIVERSEORDER>  (1) 
1
17
19
7
15
20
24
25
13
18
26
14
21
23
16
9
11
12
6
5
4
2
22
8
10
3

>  <PUBCHEM_MMFF94_PARTIAL_CHARGES>  (1) 
15
1 -0.57
11 0.69
12 0.69
2 -0.57
21 0.37
22 0.37
23 0.37
24 0.37
25 0.37
26 0.37
3 -0.73
4 -0.73
5 -0.8
6 -0.8
8 0.6

>  <PUBCHEM_EFFECTIVE_ROTOR_COUNT>  (1) 
5

>  <PUBCHEM_PHARMACOPHORE_FEATURES>  (1) 
7
1 1 acceptor
1 2 acceptor
1 3 donor
1 4 donor
1 5 donor
1 6 donor
3 7 9 10 hydrophobe

>  <PUBCHEM_HEAVY_ATOM_COUNT>  (1) 
12

>  <PUBCHEM_ATOM_DEF_STEREO_COUNT>  (1) 
0

>  <PUBCHEM_ATOM_UDEF_STEREO_COUNT>  (1) 
0

>  <PUBCHEM_BOND_DEF_STEREO_COUNT>  (1) 
0

>  <PUBCHEM_BOND_UDEF_STEREO_COUNT>  (1) 
0

>  <PUBCHEM_ISOTOPIC_ATOM_COUNT>  (1) 
0

>  <PUBCHEM_COMPONENT_COUNT>  (1) 
1

>  <PUBCHEM_CACTVS_TAUTO_COUNT>  (1) 
6

>  <PUBCHEM_CONFORMER_ID>  (1) 
000057CE00000001

>  <PUBCHEM_MMFF94_ENERGY>  (1) 
13.47

>  <PUBCHEM_FEATURE_SELFOVERLAP>  (1) 
35.658

>  <PUBCHEM_SHAPE_FINGERPRINT>  (1) 
1 1 18267295448283960646
100427 49 16969706079082903814
12138202 97 18270403905257978998
12423570 1 15260257873574150503
19837323 101 18271523216479390746
20653085 51 16773526532967293744
20711985 327 17546998637861241019
20711985 344 18050564350655409154
20871998 184 18122920981511694430
21028194 46 18411132528484374497
21040471 1 18410572903104548678
21061003 4 17469883285992973619
21524375 3 18410565167583598973
305870 269 18268424625198089576
3250762 1 18265921114442027059
7364860 26 17841986689791462935
81228 2 17979069710554536242

>  <PUBCHEM_SHAPE_MULTIPOLES>  (1) 
215.29
4.16
2.5
1.15
0.94
1.95
-0.12
-3.62
0.29
-0.72
0.03
0
0.17
0.27

>  <PUBCHEM_SHAPE_SELFOVERLAP>  (1) 
406.864

>  <PUBCHEM_SHAPE_VOLUME>  (1) 
131.5

>  <PUBCHEM_COORDINATE_TYPE>  (1) 
2
5
10

$$$$
