22497
     RDKit          3D

  3  2  0  0  0  0  0  0  0  0999 V2000
    0.0927   -0.6685    0.0000 P   0  0  0  0  0  0  0  0  0  0  0  0
   -1.2077    0.2943    0.0000 O   0  0  0  0  0  0  0  0  0  0  0  0
    1.1150    0.3743    0.0000 O   0  0  0  0  0  0  0  0  0  0  0  0
  1  2  1  0
  1  3  2  0
M  END
>  <PUBCHEM_COMPOUND_CID>  (1) 
22497

>  <PUBCHEM_CONFORMER_RMSD>  (1) 
0.4

>  <PUBCHEM_CONFORMER_DIVERSEORDER>  (1) 
1

>  <PUBCHEM_MMFF94_PARTIAL_CHARGES>  (1) 
4
1 0.69
2 -0.6
3 -0.59
4 0.5

>  <PUBCHEM_EFFECTIVE_ROTOR_COUNT>  (1) 
0

>  <PUBCHEM_PHARMACOPHORE_FEATURES>  (1) 
0

>  <PUBCHEM_HEAVY_ATOM_COUNT>  (1) 
3

>  <PUBCHEM_ATOM_DEF_STEREO_COUNT>  (1) 
0

>  <PUBCHEM_ATOM_UDEF_STEREO_COUNT>  (1) 
0

>  <PUBCHEM_BOND_DEF_STEREO_COUNT>  (1) 
0

>  <PUBCHEM_BOND_UDEF_STEREO_COUNT>  (1) 
0

>  <PUBCHEM_ISOTOPIC_ATOM_COUNT>  (1) 
0

>  <PUBCHEM_COMPONENT_COUNT>  (1) 
1

>  <PUBCHEM_CACTVS_TAUTO_COUNT>  (1) 
2

>  <PUBCHEM_CONFORMER_ID>  (1) 
000057E100000001

>  <PUBCHEM_MMFF94_ENERGY>  (1) 
-0.0186

>  <PUBCHEM_FEATURE_SELFOVERLAP>  (1) 
0

>  <PUBCHEM_SHAPE_FINGERPRINT>  (1) 
139733 1 18410856576830260228
21015797 1 18409725188018607782

>  <PUBCHEM_SHAPE_MULTIPOLES>  (1) 
53.85
1.32
0.83
0.58
0.13
0.17
0
-0.28
0
-0.05
0
-0.01
0.05
0

>  <PUBCHEM_SHAPE_SELFOVERLAP>  (1) 
79.344

>  <PUBCHEM_SHAPE_VOLUME>  (1) 
40.7

>  <PUBCHEM_COORDINATE_TYPE>  (1) 
2
5
10

$$$$
