22499
     RDKit          3D

 12 12  0  0  0  0  0  0  0  0999 V2000
    3.5865   -0.0045    0.0008 O   0  0  0  0  0  0  0  0  0  0  0  0
   -1.9785    0.0046   -0.0001 N   0  0  0  0  0  0  0  0  0  0  0  0
   -0.5645    0.0022   -0.0001 C   0  0  0  0  0  0  0  0  0  0  0  0
    0.1352    1.2088    0.0013 C   0  0  0  0  0  0  0  0  0  0  0  0
    0.1308   -1.2070   -0.0017 C   0  0  0  0  0  0  0  0  0  0  0  0
    1.5301    1.2063    0.0011 C   0  0  0  0  0  0  0  0  0  0  0  0
    1.5257   -1.2096   -0.0019 C   0  0  0  0  0  0  0  0  0  0  0  0
    2.2253   -0.0029   -0.0007 C   0  0  0  0  0  0  0  0  0  0  0  0
   -0.5819    2.5198    0.0035 C   0  0  0  0  0  0  0  0  0  0  0  0
   -0.5912   -2.5154   -0.0020 C   0  0  0  0  0  0  0  0  0  0  0  0
   -2.7088    0.0072   -1.2499 C   0  0  0  0  0  0  0  0  0  0  0  0
   -2.7088   -0.0096    1.2497 C   0  0  0  0  0  0  0  0  0  0  0  0
  1  8  1  0
  2  3  1  0
  2 11  1  0
  2 12  1  0
  3  4  2  0
  3  5  1  0
  4  6  1  0
  4  9  1  0
  5  7  2  0
  5 10  1  0
  6  8  2  0
  7  8  1  0
M  END
>  <PUBCHEM_COMPOUND_CID>  (1) 
22499

>  <PUBCHEM_CONFORMER_RMSD>  (1) 
0.4

>  <PUBCHEM_CONFORMER_DIVERSEORDER>  (1) 
1

>  <PUBCHEM_MMFF94_PARTIAL_CHARGES>  (1) 
15
1 -0.53
10 0.14
11 0.37
12 0.37
13 0.15
14 0.15
2 -0.84
27 0.45
3 0.1
4 -0.14
5 -0.14
6 -0.15
7 -0.15
8 0.08
9 0.14

>  <PUBCHEM_EFFECTIVE_ROTOR_COUNT>  (1) 
1

>  <PUBCHEM_PHARMACOPHORE_FEATURES>  (1) 
3
1 1 donor
1 2 cation
6 3 4 5 6 7 8 rings

>  <PUBCHEM_HEAVY_ATOM_COUNT>  (1) 
12

>  <PUBCHEM_ATOM_DEF_STEREO_COUNT>  (1) 
0

>  <PUBCHEM_ATOM_UDEF_STEREO_COUNT>  (1) 
0

>  <PUBCHEM_BOND_DEF_STEREO_COUNT>  (1) 
0

>  <PUBCHEM_BOND_UDEF_STEREO_COUNT>  (1) 
0

>  <PUBCHEM_ISOTOPIC_ATOM_COUNT>  (1) 
0

>  <PUBCHEM_COMPONENT_COUNT>  (1) 
1

>  <PUBCHEM_CACTVS_TAUTO_COUNT>  (1) 
5

>  <PUBCHEM_CONFORMER_ID>  (1) 
000057E300000001

>  <PUBCHEM_MMFF94_ENERGY>  (1) 
53.9363

>  <PUBCHEM_FEATURE_SELFOVERLAP>  (1) 
15.223

>  <PUBCHEM_SHAPE_FINGERPRINT>  (1) 
10219947 1 18410301306515682729
10353120 184 18265917794494812036
11206711 2 18337954472248022812
12423570 1 17606124128241159381
12524768 44 18342179994201755302
13380535 76 17831009135476941457
14614273 12 17972031440304235748
14993402 34 18412539937764596103
161256 15 17910695179858740439
16945 1 18410856559977373702
17844478 74 17822302300744465417
193761 8 17689997834424301806
21040471 1 18338797926378057542
21501502 16 17977378339616911216
2334 1 17978228593155105030
23402539 116 18342726404388996806
23402655 69 18194662801797770133
23419403 2 16096209606251286418
23552423 10 17976539403665617574
23559900 14 18341901844516396484
2748010 2 18123752225535003708
5084963 1 18060127726388565074
5255222 1 17759530254143937829
528886 8 18411696569575650043
53812653 8 18263947512929575580
63268167 104 18342731914615765899

>  <PUBCHEM_SHAPE_MULTIPOLES>  (1) 
236.1
3.87
2.22
0.87
0.85
0.01
0
-0.01
0
-0.16
0
-0.74
0
0

>  <PUBCHEM_SHAPE_SELFOVERLAP>  (1) 
483.734

>  <PUBCHEM_SHAPE_VOLUME>  (1) 
139.5

>  <PUBCHEM_COORDINATE_TYPE>  (1) 
2
5
10

$$$$
