22495
     RDKit          3D

 12 13  0  0  0  0  0  0  0  0999 V2000
   -1.3645   -2.2998    0.0032 O   0  0  0  0  0  0  0  0  0  0  0  0
    1.1408    1.5232   -0.0559 N   0  0  0  0  0  0  0  0  0  0  0  0
   -0.1491    1.0714   -0.0760 C   0  0  0  0  0  0  0  0  0  0  0  0
   -1.3588    1.9310   -0.1324 C   0  0  0  0  0  0  0  0  0  0  0  0
   -0.1267   -0.3070   -0.0364 C   0  0  0  0  0  0  0  0  0  0  0  0
   -2.5558    1.1326    0.4098 C   0  0  0  0  0  0  0  0  0  0  0  0
   -2.6511   -0.2728   -0.2061 C   0  0  0  0  0  0  0  0  0  0  0  0
    1.2301   -0.7041    0.0186 C   0  0  0  0  0  0  0  0  0  0  0  0
   -1.3581   -1.0732   -0.0486 C   0  0  0  0  0  0  0  0  0  0  0  0
    1.9916    0.4468    0.0036 C   0  0  0  0  0  0  0  0  0  0  0  0
    1.7471   -2.0862    0.0804 C   0  0  0  0  0  0  0  0  0  0  0  0
    3.4546    0.6381    0.0396 C   0  0  0  0  0  0  0  0  0  0  0  0
  1  9  2  0
  2  3  1  0
  2 10  1  0
  3  4  1  0
  3  5  2  0
  4  6  1  0
  5  8  1  0
  5  9  1  0
  6  7  1  0
  7  9  1  0
  8 10  2  0
  8 11  1  0
 10 12  1  0
M  END
>  <PUBCHEM_COMPOUND_CID>  (1) 
22495

>  <PUBCHEM_CONFORMER_RMSD>  (1) 
0.4

>  <PUBCHEM_CONFORMER_DIVERSEORDER>  (1) 
1

>  <PUBCHEM_MMFF94_PARTIAL_CHARGES>  (1) 
12
1 -0.57
10 -0.33
11 0.18
12 0.18
19 0.27
2 0.03
3 -0.33
4 0.18
5 -0.09
7 0.06
8 -0.18
9 0.6

>  <PUBCHEM_EFFECTIVE_ROTOR_COUNT>  (1) 
0.6

>  <PUBCHEM_PHARMACOPHORE_FEATURES>  (1) 
5
1 1 acceptor
1 2 cation
1 2 donor
5 2 3 5 8 10 rings
6 3 4 5 6 7 9 rings

>  <PUBCHEM_HEAVY_ATOM_COUNT>  (1) 
12

>  <PUBCHEM_ATOM_DEF_STEREO_COUNT>  (1) 
0

>  <PUBCHEM_ATOM_UDEF_STEREO_COUNT>  (1) 
0

>  <PUBCHEM_BOND_DEF_STEREO_COUNT>  (1) 
0

>  <PUBCHEM_BOND_UDEF_STEREO_COUNT>  (1) 
0

>  <PUBCHEM_ISOTOPIC_ATOM_COUNT>  (1) 
0

>  <PUBCHEM_COMPONENT_COUNT>  (1) 
1

>  <PUBCHEM_CACTVS_TAUTO_COUNT>  (1) 
5

>  <PUBCHEM_CONFORMER_ID>  (1) 
000057DF00000001

>  <PUBCHEM_MMFF94_ENERGY>  (1) 
10.379

>  <PUBCHEM_FEATURE_SELFOVERLAP>  (1) 
25.457

>  <PUBCHEM_SHAPE_FINGERPRINT>  (1) 
10967382 1 18410573976561523053
12382932 28 18411981364361633568
12423570 1 16310460888784940477
12524768 44 18338519638151224471
12897270 3 18339078301774555772
13380535 21 18339656554870623390
13380535 76 18411413999287599534
14325111 11 18339080367664718833
14614273 12 18261098690896662236
15775835 57 18341337690980368233
16945 1 18410293631161399644
193761 8 18338516335416390742
20588541 1 18411702101319531733
20871998 184 18201162173236208487
21040471 1 18338800017895430804
21501502 16 18340201891073518978
2334 1 17833833054956942525
23402539 116 18271795878573555039
23402655 69 18268695135920197293
23463225 33 18334288743789029074
23552423 10 18261959552687643718
23559900 14 18343591746633033516
2748010 2 18120655734128921237
5084963 1 17985820437324108611
5255222 1 18411131429041623800
528886 8 18339073895148685578
53812653 166 18343861117426572360
63268167 104 18339642231112584337
6333449 129 18413105078119761076
66348 1 18339077215216492511
7364860 26 18199186192296634854

>  <PUBCHEM_SHAPE_MULTIPOLES>  (1) 
236.1
4.1
2.2
0.62
1.12
0.71
-0.01
-0.68
-0.15
-0.19
0
-0.05
-0.02
-0.11

>  <PUBCHEM_SHAPE_SELFOVERLAP>  (1) 
504.209

>  <PUBCHEM_SHAPE_VOLUME>  (1) 
133.1

>  <PUBCHEM_COORDINATE_TYPE>  (1) 
2
5
10

$$$$
