22490
     RDKit          3D

 10 11  0  0  0  0  0  0  0  0999 V2000
    1.0557   -2.0316   -0.0001 S   0  0  0  0  0  0  0  0  0  0  0  0
    1.5595    0.4253    0.0000 N   0  0  0  0  0  0  0  0  0  0  0  0
    0.1846    0.3577    0.0000 C   0  0  0  0  0  0  0  0  0  0  0  0
   -0.2895   -0.9483    0.0000 C   0  0  0  0  0  0  0  0  0  0  0  0
   -0.7002    1.4453   -0.0001 C   0  0  0  0  0  0  0  0  0  0  0  0
    2.1732   -0.7379    0.0001 C   0  0  0  0  0  0  0  0  0  0  0  0
   -1.6646   -1.2203    0.0000 C   0  0  0  0  0  0  0  0  0  0  0  0
    2.3001    1.6646    0.0001 C   0  0  0  0  0  0  0  0  0  0  0  0
   -2.0728    1.1786    0.0000 C   0  0  0  0  0  0  0  0  0  0  0  0
   -2.5460   -0.1333    0.0001 C   0  0  0  0  0  0  0  0  0  0  0  0
  1  4  1  0
  1  6  1  0
  2  3  1  0
  2  6  2  0
  2  8  1  0
  3  4  2  0
  3  5  1  0
  4  7  1  0
  5  9  2  0
  7 10  2  0
  9 10  1  0
M  CHG  1   2   1
M  END
>  <PUBCHEM_COMPOUND_CID>  (1) 
22490

>  <PUBCHEM_CONFORMER_RMSD>  (1) 
0.4

>  <PUBCHEM_CONFORMER_DIVERSEORDER>  (1) 
1

>  <PUBCHEM_MMFF94_PARTIAL_CHARGES>  (1) 
15
1 -0.08
10 -0.15
11 0.15
12 0.15
13 0.15
17 0.15
18 0.15
2 -0.18
3 0.33
4 0.04
5 -0.15
6 0.22
7 -0.15
8 0.51
9 -0.15

>  <PUBCHEM_EFFECTIVE_ROTOR_COUNT>  (1) 
0

>  <PUBCHEM_PHARMACOPHORE_FEATURES>  (1) 
2
5 1 2 3 4 6 rings
6 3 4 5 7 9 10 rings

>  <PUBCHEM_HEAVY_ATOM_COUNT>  (1) 
10

>  <PUBCHEM_ATOM_DEF_STEREO_COUNT>  (1) 
0

>  <PUBCHEM_ATOM_UDEF_STEREO_COUNT>  (1) 
0

>  <PUBCHEM_BOND_DEF_STEREO_COUNT>  (1) 
0

>  <PUBCHEM_BOND_UDEF_STEREO_COUNT>  (1) 
0

>  <PUBCHEM_ISOTOPIC_ATOM_COUNT>  (1) 
0

>  <PUBCHEM_COMPONENT_COUNT>  (1) 
1

>  <PUBCHEM_CACTVS_TAUTO_COUNT>  (1) 
1

>  <PUBCHEM_CONFORMER_ID>  (1) 
000057DA00000001

>  <PUBCHEM_MMFF94_ENERGY>  (1) 
19.9852

>  <PUBCHEM_FEATURE_SELFOVERLAP>  (1) 
10.219

>  <PUBCHEM_SHAPE_FINGERPRINT>  (1) 
12524768 44 18408606933269499207
12897270 3 18410575110469851573
14325111 11 18410575106143430496
16945 1 18338516318151937127
18185500 45 18411416249882020223
193761 8 18338797805987091463
19973954 147 18339081492935315057
21040471 1 18266459991350810146
23552423 10 18335422339660288975
241688 4 17402896618059766586
2748010 2 18338237175294911118
369184 2 18335135405964612001
5084963 1 18201718414271183315
528886 8 18339076119899514419
66348 1 18410576162705151479
7364860 26 18343301427537801774

>  <PUBCHEM_SHAPE_MULTIPOLES>  (1) 
204.66
3.37
2.06
0.62
0.3
0.14
0
-0.53
0
-0.66
0
0
0.02
0

>  <PUBCHEM_SHAPE_SELFOVERLAP>  (1) 
431.492

>  <PUBCHEM_SHAPE_VOLUME>  (1) 
118.3

>  <PUBCHEM_COORDINATE_TYPE>  (1) 
2
5
10

$$$$
