22493
     RDKit          3D

 16 18  0  0  0  0  0  0  0  0999 V2000
    4.9245    0.8475    0.0224 Cl  0  0  0  0  0  0  0  0  0  0  0  0
   -0.4270   -1.6036   -0.0288 N   0  0  0  0  0  0  0  0  0  0  0  0
   -0.1182    2.5792    0.0489 N   0  0  0  0  0  0  0  0  0  0  0  0
   -3.9890    0.6674   -0.3362 C   0  0  0  0  0  0  0  0  0  0  0  0
   -2.7176    1.4264    0.0421 C   0  0  0  0  0  0  0  0  0  0  0  0
   -4.0358   -0.6828    0.3693 C   0  0  0  0  0  0  0  0  0  0  0  0
   -1.4813    0.5716   -0.0094 C   0  0  0  0  0  0  0  0  0  0  0  0
   -2.8537   -1.5471   -0.0640 C   0  0  0  0  0  0  0  0  0  0  0  0
   -1.5358   -0.8201   -0.0135 C   0  0  0  0  0  0  0  0  0  0  0  0
   -0.2183    1.1635    0.0104 C   0  0  0  0  0  0  0  0  0  0  0  0
    0.9394    0.3759    0.0020 C   0  0  0  0  0  0  0  0  0  0  0  0
    0.7865   -1.0228   -0.0189 C   0  0  0  0  0  0  0  0  0  0  0  0
    2.2224    0.9500    0.0154 C   0  0  0  0  0  0  0  0  0  0  0  0
    1.9361   -1.8081   -0.0288 C   0  0  0  0  0  0  0  0  0  0  0  0
    3.3558    0.1422    0.0059 C   0  0  0  0  0  0  0  0  0  0  0  0
    3.2120   -1.2393   -0.0168 C   0  0  0  0  0  0  0  0  0  0  0  0
  1 15  1  0
  2  9  2  0
  2 12  1  0
  3 10  1  0
  4  5  1  0
  4  6  1  0
  5  7  1  0
  6  8  1  0
  7  9  1  0
  7 10  2  0
  8  9  1  0
 10 11  1  0
 11 12  2  0
 11 13  1  0
 12 14  1  0
 13 15  2  0
 14 16  2  0
 15 16  1  0
M  END
>  <PUBCHEM_COMPOUND_CID>  (1) 
22493

>  <PUBCHEM_CONFORMER_RMSD>  (1) 
0.4

>  <PUBCHEM_CONFORMER_DIVERSEORDER>  (1) 
1

>  <PUBCHEM_MMFF94_PARTIAL_CHARGES>  (1) 
18
1 -0.18
10 0.1
12 0.31
13 -0.15
14 -0.15
15 0.18
16 -0.15
2 -0.62
25 0.15
26 0.15
27 0.4
28 0.4
29 0.15
3 -0.9
5 0.14
7 -0.14
8 0.14
9 0.17

>  <PUBCHEM_EFFECTIVE_ROTOR_COUNT>  (1) 
0.8

>  <PUBCHEM_PHARMACOPHORE_FEATURES>  (1) 
6
1 2 acceptor
1 3 cation
1 3 donor
6 11 12 13 14 15 16 rings
6 2 7 9 10 11 12 rings
6 4 5 6 7 8 9 rings

>  <PUBCHEM_HEAVY_ATOM_COUNT>  (1) 
16

>  <PUBCHEM_ATOM_DEF_STEREO_COUNT>  (1) 
0

>  <PUBCHEM_ATOM_UDEF_STEREO_COUNT>  (1) 
0

>  <PUBCHEM_BOND_DEF_STEREO_COUNT>  (1) 
0

>  <PUBCHEM_BOND_UDEF_STEREO_COUNT>  (1) 
0

>  <PUBCHEM_ISOTOPIC_ATOM_COUNT>  (1) 
0

>  <PUBCHEM_COMPONENT_COUNT>  (1) 
1

>  <PUBCHEM_CACTVS_TAUTO_COUNT>  (1) 
8

>  <PUBCHEM_CONFORMER_ID>  (1) 
000057DD00000001

>  <PUBCHEM_MMFF94_ENERGY>  (1) 
52.9019

>  <PUBCHEM_FEATURE_SELFOVERLAP>  (1) 
30.501

>  <PUBCHEM_SHAPE_FINGERPRINT>  (1) 
10411042 1 15888840052097343170
10608611 8 18410570656594241637
10967382 1 18411138021736905582
11132069 177 18411132537068930464
11471102 20 18411132519973561286
11806522 49 18337670922875843887
12032990 46 18410862040213432967
12403814 3 17603581928577177533
13132413 78 18411983584928687085
13140716 1 18193843647800813379
13214271 11 18412541032965432319
13221675 6 18411418414381987598
13380535 76 18409730659991799594
14144814 61 18411419483992309755
14325111 11 18410575058893288140
15196674 1 18410575054598333830
15219456 202 18411700958805606967
15375358 24 18408602565198250810
15442244 35 18122343467487748130
15536298 74 18342459210194557726
16945 1 18266739280057408799
18186145 218 17894911780615399039
18522853 276 18412263947614044633
193761 8 17690279738823999462
19591789 44 15884355126265030727
200 152 18059567006224725559
20510252 161 18271808977712267320
20645477 70 18342173311022094687
21029758 11 18342451556610484409
21029758 27 18188497985438432661
21267235 1 18410583889356987982
21501502 16 18268149756007440290
221490 88 18191592062883244227
2334 1 18410573993926216423
23402539 116 18342449374561129622
23402655 69 18342450405479907197
23463225 33 18409167696899924550
23557571 272 18272380780078328902
23559900 14 18268706105055511634
2748010 2 18411418388786250759
296302 2 18409730659738241206
3312278 4 18411420609147075793
335352 9 17978510832256271135
34934 24 18410848854648035999
474 4 17096377318365015996
4990 188 18060431192320472718
5104073 3 18410012091818079354
528886 8 18411694383247522202
537710 114 18410298020739425468
53812653 166 18343016718150030640
69090 78 18343297059477077063
7364860 26 18196934589587448969
8809292 202 18187932836741441339
9709674 26 18410580586659227094

>  <PUBCHEM_SHAPE_MULTIPOLES>  (1) 
321.18
7.7
2.04
0.63
1.91
0.23
0
0.41
0.06
-0.11
0
-0.05
0
0.11

>  <PUBCHEM_SHAPE_SELFOVERLAP>  (1) 
700.171

>  <PUBCHEM_SHAPE_VOLUME>  (1) 
175.8

>  <PUBCHEM_COORDINATE_TYPE>  (1) 
2
5
10

$$$$
