22501
     RDKit          3D

 22 24  0  0  0  0  0  0  0  0999 V2000
   -1.4699   -2.7056    0.4328 O   0  0  0  0  0  0  0  0  0  0  0  0
   -2.3548    1.6086   -1.2438 O   0  0  0  0  0  0  0  0  0  0  0  0
   -3.4852   -0.0981    1.5235 O   0  0  0  0  0  0  0  0  0  0  0  0
   -0.1147   -0.7991   -0.0146 N   0  0  0  0  0  0  0  0  0  0  0  0
   -0.4009    0.5275   -0.4178 N   0  0  0  0  0  0  0  0  0  0  0  0
   -4.7341   -1.0515   -0.1574 N   0  0  0  0  0  0  0  0  0  0  0  0
   -2.3863   -0.6858   -0.5084 C   0  0  0  0  0  0  0  0  0  0  0  0
   -1.2955   -1.5516    0.0699 C   0  0  0  0  0  0  0  0  0  0  0  0
   -1.7402    0.6401   -0.8212 C   0  0  0  0  0  0  0  0  0  0  0  0
    1.1762   -1.4039   -0.0947 C   0  0  0  0  0  0  0  0  0  0  0  0
    0.3842    1.6643   -0.0565 C   0  0  0  0  0  0  0  0  0  0  0  0
   -3.5698   -0.5693    0.3920 C   0  0  0  0  0  0  0  0  0  0  0  0
    1.4086   -2.6433    0.5060 C   0  0  0  0  0  0  0  0  0  0  0  0
    0.1297    2.9068   -0.6415 C   0  0  0  0  0  0  0  0  0  0  0  0
    2.2116   -0.7589   -0.7749 C   0  0  0  0  0  0  0  0  0  0  0  0
    1.4086    1.5380    0.8842 C   0  0  0  0  0  0  0  0  0  0  0  0
    2.6695   -3.2346    0.4269 C   0  0  0  0  0  0  0  0  0  0  0  0
    0.8958    4.0174   -0.2876 C   0  0  0  0  0  0  0  0  0  0  0  0
    3.4725   -1.3501   -0.8542 C   0  0  0  0  0  0  0  0  0  0  0  0
    2.1747    2.6486    1.2382 C   0  0  0  0  0  0  0  0  0  0  0  0
    3.7015   -2.5879   -0.2533 C   0  0  0  0  0  0  0  0  0  0  0  0
    1.9184    3.8883    0.6522 C   0  0  0  0  0  0  0  0  0  0  0  0
  1  8  2  0
  2  9  2  0
  3 12  2  0
  4  5  1  0
  4  8  1  0
  4 10  1  0
  5  9  1  0
  5 11  1  0
  6 12  1  0
  7  8  1  0
  7  9  1  0
  7 12  1  0
 10 13  2  0
 10 15  1  0
 11 14  2  0
 11 16  1  0
 13 17  1  0
 14 18  1  0
 15 19  2  0
 16 20  2  0
 17 21  2  0
 18 22  2  0
 19 21  1  0
 20 22  1  0
M  END
>  <PUBCHEM_COMPOUND_CID>  (1) 
22501

>  <PUBCHEM_CONFORMER_RMSD>  (1) 
0.6

>  <PUBCHEM_CONFORMER_DIVERSEORDER>  (1) 
1
4
24
14
11
2
17
21
9
3
15
22
8
16
7
23
10
12
18
13
19
20
5
6

>  <PUBCHEM_MMFF94_PARTIAL_CHARGES>  (1) 
34
1 -0.57
10 0.12
11 0.12
12 0.57
13 -0.15
14 -0.15
15 -0.15
16 -0.15
17 -0.15
18 -0.15
19 -0.15
2 -0.57
20 -0.15
21 -0.15
22 -0.15
24 0.15
25 0.15
26 0.15
27 0.15
28 0.15
29 0.15
3 -0.57
30 0.15
31 0.15
32 0.37
33 0.37
34 0.15
35 0.15
4 -0.18
5 -0.18
6 -0.8
7 0.18
8 0.57
9 0.57

>  <PUBCHEM_EFFECTIVE_ROTOR_COUNT>  (1) 
3.6

>  <PUBCHEM_PHARMACOPHORE_FEATURES>  (1) 
8
1 1 acceptor
1 2 acceptor
1 3 acceptor
1 6 donor
1 7 anion
5 4 5 7 8 9 rings
6 10 13 15 17 19 21 rings
6 11 14 16 18 20 22 rings

>  <PUBCHEM_HEAVY_ATOM_COUNT>  (1) 
22

>  <PUBCHEM_ATOM_DEF_STEREO_COUNT>  (1) 
0

>  <PUBCHEM_ATOM_UDEF_STEREO_COUNT>  (1) 
0

>  <PUBCHEM_BOND_DEF_STEREO_COUNT>  (1) 
0

>  <PUBCHEM_BOND_UDEF_STEREO_COUNT>  (1) 
0

>  <PUBCHEM_ISOTOPIC_ATOM_COUNT>  (1) 
0

>  <PUBCHEM_COMPONENT_COUNT>  (1) 
1

>  <PUBCHEM_CACTVS_TAUTO_COUNT>  (1) 
5

>  <PUBCHEM_CONFORMER_ID>  (1) 
000057E500000001

>  <PUBCHEM_MMFF94_ENERGY>  (1) 
81.7876

>  <PUBCHEM_FEATURE_SELFOVERLAP>  (1) 
40.597

>  <PUBCHEM_SHAPE_FINGERPRINT>  (1) 
10411042 1 18338794490415543327
108231 29 18337393729659903810
10967382 1 18409729594850290886
1100329 8 17980482260921757977
11680986 33 18264775548354332555
12035758 1 18265894842764712512
12293681 160 17114069202831516372
12553582 1 18340206284872958022
12788726 201 17617652164008032074
13027679 85 18193839245512231701
13140716 1 18121780800790840554
138480 1 18410855464649956452
14178342 30 18053097616639216115
14787075 74 18261402147922435278
14790565 3 18121510304252659660
14955137 171 17909870628180481483
15230672 131 17903922511589701108
15309172 13 17832982024594222537
16945 1 18335976579673098791
17138139 8 16826668966453862613
1813 80 18129957666929846599
18785283 64 18264495168182390768
20028762 73 16973932593465291807
20510252 161 18050007697192738970
20600515 1 17774452585580545398
20642791 105 17683516248012555404
20671657 1 18340778155525771775
20775438 99 17762289904203509775
21731228 192 17762053646040609977
22182313 1 18042386046150869741
2334 1 17688311608820827807
23419403 2 18189594116726298956
23557571 272 17552345584882930254
23559900 14 18339076098878754819
2748010 2 18264186076687597845
283562 15 17975700489363707938
3091708 16 9069360694594674760
350125 39 17833846240717602858
352729 6 16825026850248082142
4409770 3 17688026418744872437
458136 41 18050020066471704745
474 4 18196367250398458161
532947 4 18268713994757141972
58807428 26 18050561051819722432
6438718 38 17197120865058736701
7364860 26 18269837665027234215
81228 2 17624980430777596056
90525 40 17400068068700082560
9981440 41 17763739189060607315

>  <PUBCHEM_SHAPE_MULTIPOLES>  (1) 
420.2
5.81
5.12
1.04
2.97
5.01
-0.1
-5.32
0.01
-3.53
-0.82
0.11
0.3
0.9

>  <PUBCHEM_SHAPE_SELFOVERLAP>  (1) 
921.859

>  <PUBCHEM_SHAPE_VOLUME>  (1) 
224.7

>  <PUBCHEM_COORDINATE_TYPE>  (1) 
2
5
10

$$$$
