22500
     RDKit          3D

  7  7  0  0  1  0  0  0  0  0999 V2000
    1.4698   -1.1224    0.1820 O   0  0  0  0  0  0  0  0  0  0  0  0
    0.4951   -0.3583   -0.5083 C   0  0  0  0  0  0  0  0  0  0  0  0
    1.4369    0.2881    0.4354 C   0  0  0  0  0  0  0  0  0  0  0  0
   -0.9270   -0.6619   -0.0644 C   0  0  0  0  0  0  0  0  0  0  0  0
    2.6041    1.0304   -0.0937 C   0  0  0  0  0  0  0  0  0  0  0  0
   -1.8319    0.5599   -0.2106 C   0  0  0  0  0  0  0  0  0  0  0  0
   -3.2470    0.2642    0.2596 C   0  0  0  0  0  0  0  0  0  0  0  0
  1  2  1  0
  1  3  1  0
  2  3  1  0
  2  4  1  0
  3  5  1  0
  4  6  1  0
  6  7  1  0
M  END
>  <PUBCHEM_COMPOUND_CID>  (1) 
22500

>  <PUBCHEM_CONFORMER_RMSD>  (1) 
0.4

>  <PUBCHEM_CONFORMER_DIVERSEORDER>  (1) 
1
27
16
23
26
13
21
25
8
20
15
24
4
18
2
11
17
22
9
19
5
6
14
10
3
7
12

>  <PUBCHEM_MMFF94_PARTIAL_CHARGES>  (1) 
7
1 -0.3
2 -0.05
3 -0.05
4 0.09
5 0.09
8 0.1
9 0.1

>  <PUBCHEM_EFFECTIVE_ROTOR_COUNT>  (1) 
2.6

>  <PUBCHEM_PHARMACOPHORE_FEATURES>  (1) 
2
1 1 acceptor
1 7 hydrophobe

>  <PUBCHEM_HEAVY_ATOM_COUNT>  (1) 
7

>  <PUBCHEM_ATOM_DEF_STEREO_COUNT>  (1) 
0

>  <PUBCHEM_ATOM_UDEF_STEREO_COUNT>  (1) 
2

>  <PUBCHEM_BOND_DEF_STEREO_COUNT>  (1) 
0

>  <PUBCHEM_BOND_UDEF_STEREO_COUNT>  (1) 
0

>  <PUBCHEM_ISOTOPIC_ATOM_COUNT>  (1) 
0

>  <PUBCHEM_COMPONENT_COUNT>  (1) 
1

>  <PUBCHEM_CACTVS_TAUTO_COUNT>  (1) 
1

>  <PUBCHEM_CONFORMER_ID>  (1) 
000057E400000001

>  <PUBCHEM_MMFF94_ENERGY>  (1) 
4.1625

>  <PUBCHEM_FEATURE_SELFOVERLAP>  (1) 
10.148

>  <PUBCHEM_SHAPE_FINGERPRINT>  (1) 
10857977 72 17458632241551820713
14325111 11 18411418397666173135
14390081 3 18201435908618548009
20096714 4 18342734156588661948
21040471 1 18270955851441968438
29004967 10 12685085982201016668
5460574 1 9655575214669411837

>  <PUBCHEM_SHAPE_MULTIPOLES>  (1) 
138.19
4.38
1.05
0.69
1.97
0.05
-0.01
-1.38
0.34
-0.4
0
-0.01
-0.01
-0.05

>  <PUBCHEM_SHAPE_SELFOVERLAP>  (1) 
252.887

>  <PUBCHEM_SHAPE_VOLUME>  (1) 
90.1

>  <PUBCHEM_COORDINATE_TYPE>  (1) 
2
5
10

$$$$
