22519
     RDKit          3D

 14 14  0  0  0  0  0  0  0  0999 V2000
    3.8315    0.8087    0.0028 O   0  0  0  0  0  0  0  0  0  0  0  0
   -2.7702   -0.5097    0.0003 N   0  0  0  0  0  0  0  0  0  0  0  0
    2.0990   -0.7904   -0.0008 N   0  0  0  0  0  0  0  0  0  0  0  0
   -1.3990    0.1705   -0.0005 C   0  0  0  0  0  0  0  0  0  0  0  0
   -3.5317   -0.0801   -1.2505 C   0  0  0  0  0  0  0  0  0  0  0  0
   -3.5223   -0.0969    1.2625 C   0  0  0  0  0  0  0  0  0  0  0  0
   -2.6592   -2.0329   -0.0099 C   0  0  0  0  0  0  0  0  0  0  0  0
   -0.3130   -0.6391   -0.0007 C   0  0  0  0  0  0  0  0  0  0  0  0
   -1.3871    1.5250   -0.0001 C   0  0  0  0  0  0  0  0  0  0  0  0
    0.9365   -0.0188   -0.0009 C   0  0  0  0  0  0  0  0  0  0  0  0
   -0.1377    2.1452   -0.0004 C   0  0  0  0  0  0  0  0  0  0  0  0
    1.0239    1.3734   -0.0007 C   0  0  0  0  0  0  0  0  0  0  0  0
    3.4293   -0.3503   -0.0005 C   0  0  0  0  0  0  0  0  0  0  0  0
    4.4000   -1.5046   -0.0005 C   0  0  0  0  0  0  0  0  0  0  0  0
  1 13  2  0
  2  4  1  0
  2  5  1  0
  2  6  1  0
  2  7  1  0
  3 10  1  0
  3 13  1  0
  4  8  2  0
  4  9  1  0
  8 10  1  0
  9 11  2  0
 10 12  2  0
 11 12  1  0
 13 14  1  0
M  CHG  1   2   1
M  END
>  <PUBCHEM_COMPOUND_CID>  (1) 
22519

>  <PUBCHEM_CONFORMER_RMSD>  (1) 
0.6

>  <PUBCHEM_CONFORMER_DIVERSEORDER>  (1) 
2
3
6
4
1
7
5

>  <PUBCHEM_MMFF94_PARTIAL_CHARGES>  (1) 
19
1 -0.57
10 0.12
11 -0.15
12 -0.15
13 0.57
14 0.06
2 -0.87
24 0.15
25 0.15
26 0.15
27 0.15
28 0.37
3 -0.55
4 0.36
5 0.5
6 0.5
7 0.5
8 -0.15
9 -0.15

>  <PUBCHEM_EFFECTIVE_ROTOR_COUNT>  (1) 
3

>  <PUBCHEM_PHARMACOPHORE_FEATURES>  (1) 
4
1 1 acceptor
1 2 cation
1 3 donor
6 4 8 9 10 11 12 rings

>  <PUBCHEM_HEAVY_ATOM_COUNT>  (1) 
14

>  <PUBCHEM_ATOM_DEF_STEREO_COUNT>  (1) 
0

>  <PUBCHEM_ATOM_UDEF_STEREO_COUNT>  (1) 
0

>  <PUBCHEM_BOND_DEF_STEREO_COUNT>  (1) 
0

>  <PUBCHEM_BOND_UDEF_STEREO_COUNT>  (1) 
0

>  <PUBCHEM_ISOTOPIC_ATOM_COUNT>  (1) 
0

>  <PUBCHEM_COMPONENT_COUNT>  (1) 
1

>  <PUBCHEM_CACTVS_TAUTO_COUNT>  (1) 
2

>  <PUBCHEM_CONFORMER_ID>  (1) 
000057F700000002

>  <PUBCHEM_MMFF94_ENERGY>  (1) 
59.8965

>  <PUBCHEM_FEATURE_SELFOVERLAP>  (1) 
20.297

>  <PUBCHEM_SHAPE_FINGERPRINT>  (1) 
11132069 177 18411693296895037938
11543360 7 15575008290004888686
11769659 78 18411979195503460006
12032990 46 18409171012831013338
12251169 10 18272381888211507315
124424 183 18261107470131438383
13296908 3 18335419071395755570
13760787 5 18409452487681156084
14911166 2 18335689534434944367
14965852 173 18271246131270557979
15375462 189 18259987084572480491
16945 1 18410857663678636133
18186145 218 17240203222749003028
200 152 18201708540209902717
20281407 28 18411418427456650736
20281475 54 18412267267576226606
20645477 70 18409722937630208054
20871998 184 18201438021710659964
20871998 22 18270695193918566599
21061003 4 18411140242556913545
221490 88 17975132359774452155
22213442 358 18339078305979832724
22485316 2 18409444804132362898
23402539 116 18342449301303969022
23463225 33 18411141354916396492
23557571 272 18130515115605070548
23559900 14 18409441480391944448
25610 137 18335707156480316964
2748010 2 18192989550630437855
3286 77 16916770907902360314
3312278 4 18261109668864693059
5493415 88 18338514256683627747
7364860 26 18053662757015980424
83771 10 18409169917450803177
8809292 202 18260833730048326427
9709674 26 18269839718560295758

>  <PUBCHEM_SHAPE_MULTIPOLES>  (1) 
272.28
7.29
1.88
0.84
4.97
0.27
0
-3.19
0
-0.05
0
-0.85
-0.03
0

>  <PUBCHEM_SHAPE_SELFOVERLAP>  (1) 
553.23

>  <PUBCHEM_SHAPE_VOLUME>  (1) 
161.1

>  <PUBCHEM_COORDINATE_TYPE>  (1) 
2
5
10

$$$$
