2251
     RDKit          3D

 31 33  0  0  1  0  0  0  0  0999 V2000
    4.3604    0.2502   -0.2602 P   0  0  0  0  0  0  0  0  0  0  0  0
    2.4697   -1.9209   -1.0471 P   0  0  0  0  0  0  0  0  0  0  0  0
    0.6856   -2.5818    1.2206 P   0  0  0  0  0  0  0  0  0  0  0  0
    0.5476    1.1020    0.7816 O   0  0  0  0  0  0  0  0  0  0  0  0
    0.1307    2.8983   -1.9343 O   0  0  0  0  0  0  0  0  0  0  0  0
   -0.4242    3.8773    1.4614 O   0  0  0  0  0  0  0  0  0  0  0  0
    3.3633    1.1255    0.6959 O   0  0  0  0  0  0  0  0  0  0  0  0
    3.2578   -0.4999   -1.2042 O   0  0  0  0  0  0  0  0  0  0  0  0
    5.0636   -0.7965    0.5770 O   0  0  0  0  0  0  0  0  0  0  0  0
    5.1563    1.2094   -1.1183 O   0  0  0  0  0  0  0  0  0  0  0  0
    1.6979   -1.6356    0.3612 O   0  0  0  0  0  0  0  0  0  0  0  0
    1.4418   -2.0355   -2.1508 O   0  0  0  0  0  0  0  0  0  0  0  0
    3.4939   -3.0112   -0.8221 O   0  0  0  0  0  0  0  0  0  0  0  0
    0.3828   -1.5575    2.4557 O   0  0  0  0  0  0  0  0  0  0  0  0
   -0.5915   -2.7777    0.4344 O   0  0  0  0  0  0  0  0  0  0  0  0
    1.4581   -3.7661    1.7573 O   0  0  0  0  0  0  0  0  0  0  0  0
   -1.7302    0.7685    0.2254 N   0  0  0  0  0  0  0  0  0  0  0  0
   -3.3906    0.2982    1.6366 N   0  0  0  0  0  0  0  0  0  0  0  0
   -2.6715   -0.1113   -1.8339 N   0  0  0  0  0  0  0  0  0  0  0  0
   -4.8880   -1.0619   -1.4599 N   0  0  0  0  0  0  0  0  0  0  0  0
   -5.9304   -1.0825    0.6941 N   0  0  0  0  0  0  0  0  0  0  0  0
   -0.4680    2.7429   -0.6512 C   0  0  0  0  0  0  0  0  0  0  0  0
    0.3976    3.4284    0.3865 C   0  0  0  0  0  0  0  0  0  0  0  0
   -0.4386    1.2676   -0.2514 C   0  0  0  0  0  0  0  0  0  0  0  0
    1.3000    2.3197    0.9105 C   0  0  0  0  0  0  0  0  0  0  0  0
    2.5957    2.1712    0.1225 C   0  0  0  0  0  0  0  0  0  0  0  0
   -2.6985    0.1582   -0.5200 C   0  0  0  0  0  0  0  0  0  0  0  0
   -2.1919    0.8290    1.5135 C   0  0  0  0  0  0  0  0  0  0  0  0
   -3.7193   -0.1250    0.3732 C   0  0  0  0  0  0  0  0  0  0  0  0
   -4.8463   -0.7590   -0.1401 C   0  0  0  0  0  0  0  0  0  0  0  0
   -3.8138   -0.7242   -2.2137 C   0  0  0  0  0  0  0  0  0  0  0  0
  1  7  1  0
  1  8  1  0
  1  9  1  0
  1 10  2  0
  2  8  1  0
  2 11  1  0
  2 12  1  0
  2 13  2  0
  3 11  1  0
  3 14  1  0
  3 15  1  0
  3 16  2  0
  4 24  1  0
  4 25  1  0
  5 22  1  0
  6 23  1  0
  7 26  1  0
 17 24  1  0
 17 27  1  0
 17 28  1  0
 18 28  2  0
 18 29  1  0
 19 27  1  0
 19 31  2  0
 20 30  2  0
 20 31  1  0
 21 30  1  0
 22 23  1  0
 22 24  1  0
 23 25  1  0
 25 26  1  0
 27 29  2  0
 29 30  1  0
M  CHG  3   9  -1  12  -1  15  -1
M  END
>  <PUBCHEM_COMPOUND_CID>  (1) 
2251

>  <PUBCHEM_CONFORMER_RMSD>  (1) 
1.8

>  <PUBCHEM_CONFORMER_DIVERSEORDER>  (1) 
1
27
32
47
22
3
38
18
41
23
31
14
45
43
24
30
15
40
44
5
37
28
16
42
29
6
39
35
7
13
26
2
33
8
34
4
46
17
25
21
20
36
11
10
19
12
9

>  <PUBCHEM_MMFF94_PARTIAL_CHARGES>  (1) 
38
1 1.44
10 -0.95
11 -0.54
12 -0.95
13 -0.95
14 -0.77
15 -0.95
16 -0.95
17 0.05
18 -0.57
19 -0.57
2 1.44
20 -0.62
21 -0.9
22 0.28
23 0.28
24 0.54
25 0.28
26 0.28
27 0.11
28 0.04
29 0.23
3 1.44
30 0.41
31 0.47
38 0.4
39 0.4
4 -0.56
40 0.15
41 0.15
42 0.4
43 0.4
44 0.5
5 -0.68
6 -0.68
7 -0.55
8 -0.54
9 -0.95

>  <PUBCHEM_EFFECTIVE_ROTOR_COUNT>  (1) 
9

>  <PUBCHEM_PHARMACOPHORE_FEATURES>  (1) 
21
1 10 acceptor
1 12 acceptor
1 13 acceptor
1 14 acceptor
1 15 acceptor
1 16 acceptor
1 21 cation
1 21 donor
1 4 acceptor
1 5 acceptor
1 5 donor
1 6 acceptor
1 6 donor
1 9 acceptor
3 17 18 28 cation
3 17 19 27 cation
3 19 20 31 cation
4 3 14 15 16 anion
5 17 18 27 28 29 rings
5 4 22 23 24 25 rings
6 19 20 27 29 30 31 rings

>  <PUBCHEM_HEAVY_ATOM_COUNT>  (1) 
31

>  <PUBCHEM_ATOM_DEF_STEREO_COUNT>  (1) 
0

>  <PUBCHEM_ATOM_UDEF_STEREO_COUNT>  (1) 
4

>  <PUBCHEM_BOND_DEF_STEREO_COUNT>  (1) 
0

>  <PUBCHEM_BOND_UDEF_STEREO_COUNT>  (1) 
0

>  <PUBCHEM_ISOTOPIC_ATOM_COUNT>  (1) 
0

>  <PUBCHEM_COMPONENT_COUNT>  (1) 
1

>  <PUBCHEM_CACTVS_TAUTO_COUNT>  (1) 
3

>  <PUBCHEM_CONFORMER_ID>  (1) 
000008CB00000001

>  <PUBCHEM_MMFF94_ENERGY>  (1) 
29.0956

>  <PUBCHEM_FEATURE_SELFOVERLAP>  (1) 
107.249

>  <PUBCHEM_SHAPE_FINGERPRINT>  (1) 
11135609 187 18197495340428314208
11578080 2 17750786645753956637
12467345 10 17704362069426072641
12553582 1 18271802436672299532
12596599 1 17630621028159103382
12788726 201 17763171450456306413
13140716 1 18268430316694388624
13149001 5 18045228381886341008
13402501 40 18261397813830701506
13911987 19 18041293148355816078
14787075 74 18410015442288136926
17492 54 18337112362494803580
1813 80 18341625797481575229
19319366 153 16673914911629258594
20691752 17 18188506674241389288
20764821 26 18192446370406569146
23558518 356 18122359981990435584
23559900 14 18056193820045931809
23598288 3 17325780175570752843
35225 105 17112984521820005661
3737641 26 18058741204019620806
463206 1 18270962483029579751
59755656 215 18334286596527089589
6287921 2 17704075053615035495
6443956 14 18411702088725345325
6669772 16 18044642321193876864
70251023 43 18195529190388968799

>  <PUBCHEM_SHAPE_MULTIPOLES>  (1) 
548.31
9.27
4.18
1.94
3.79
0.7
0.21
-3.43
2.17
-2.86
-1
0.73
-0.65
-0.3

>  <PUBCHEM_SHAPE_SELFOVERLAP>  (1) 
1122.54

>  <PUBCHEM_SHAPE_VOLUME>  (1) 
319.2

>  <PUBCHEM_COORDINATE_TYPE>  (1) 
2
5
10

$$$$
