22511
     RDKit          3D

 10  9  0  0  1  0  0  0  0  0999 V2000
    1.7525    1.1434   -1.1935 O   0  0  0  0  0  0  0  0  0  0  0  0
    0.1872   -1.0227   -0.1664 C   0  0  0  0  0  0  0  0  0  0  0  0
    1.5957   -0.7048    0.3598 C   0  0  0  0  0  0  0  0  0  0  0  0
   -0.8662   -0.0356    0.3521 C   0  0  0  0  0  0  0  0  0  0  0  0
   -2.2676   -0.4203   -0.1289 C   0  0  0  0  0  0  0  0  0  0  0  0
   -3.3560    0.5480    0.3388 C   0  0  0  0  0  0  0  0  0  0  0  0
    2.5986   -1.7570   -0.1066 C   0  0  0  0  0  0  0  0  0  0  0  0
    2.0803    0.6646   -0.1080 C   0  0  0  0  0  0  0  0  0  0  0  0
   -4.7469    0.1851   -0.1579 C   0  0  0  0  0  0  0  0  0  0  0  0
    3.0225    1.3994    0.8107 C   0  0  0  0  0  0  0  0  0  0  0  0
  1  8  2  0
  2  3  1  0
  2  4  1  0
  3  7  1  0
  3  8  1  0
  4  5  1  0
  5  6  1  0
  6  9  1  0
  8 10  1  0
M  END
>  <PUBCHEM_COMPOUND_CID>  (1) 
22511

>  <PUBCHEM_CONFORMER_RMSD>  (1) 
0.6

>  <PUBCHEM_CONFORMER_DIVERSEORDER>  (1) 
1
120
148
75
143
132
31
116
99
36
26
137
11
133
112
34
60
138
125
35
13
140
40
12
76
29
16
91
33
85
10
109
15
39
123
68
4
114
17
74
49
67
25
48
131
82
103
79
119
92
53
101
122
38
41
55
23
108
71
129
94
93
84
66
111
126
27
69
42
50
139
102
98
7
28
52
65
70
136
51
130
117
19
146
63
105
54
128
106
135
107
113
14
147
78
6
100
134
104
44
127
46
87
88
43
118
145
96
20
30
110
144
90
9
59
24
32
2
149
47
37
142
64
81
45
89
124
72
62
22
83
61
3
115
56
57
8
95
18
77
86
80
21
97
73
5
58
141
121

>  <PUBCHEM_MMFF94_PARTIAL_CHARGES>  (1) 
4
1 -0.57
10 0.06
3 0.06
8 0.45

>  <PUBCHEM_EFFECTIVE_ROTOR_COUNT>  (1) 
5

>  <PUBCHEM_PHARMACOPHORE_FEATURES>  (1) 
4
1 1 acceptor
1 7 hydrophobe
1 9 hydrophobe
5 2 3 4 5 6 hydrophobe

>  <PUBCHEM_HEAVY_ATOM_COUNT>  (1) 
10

>  <PUBCHEM_ATOM_DEF_STEREO_COUNT>  (1) 
0

>  <PUBCHEM_ATOM_UDEF_STEREO_COUNT>  (1) 
1

>  <PUBCHEM_BOND_DEF_STEREO_COUNT>  (1) 
0

>  <PUBCHEM_BOND_UDEF_STEREO_COUNT>  (1) 
0

>  <PUBCHEM_ISOTOPIC_ATOM_COUNT>  (1) 
0

>  <PUBCHEM_COMPONENT_COUNT>  (1) 
1

>  <PUBCHEM_CACTVS_TAUTO_COUNT>  (1) 
3

>  <PUBCHEM_CONFORMER_ID>  (1) 
000057EF00000001

>  <PUBCHEM_MMFF94_ENERGY>  (1) 
4.333

>  <PUBCHEM_FEATURE_SELFOVERLAP>  (1) 
20.298

>  <PUBCHEM_SHAPE_FINGERPRINT>  (1) 
12162725 195 18270965644209964153
12932764 1 18131077064582990371
14325111 11 18412263939303788787
14390081 3 18343303695080048185
14897335 6 18341608256618743171
15775835 57 18201155541679966145
170605 34 18408321111617132098
18186145 218 18113901516362956555
190213 19 18334295366644397737
20606313 2 18334294271058790469
20645477 70 18341330003184353631
20871998 22 18051691049716617978
23402655 69 18342735192066339493
3248919 1 17968376852900834507
449060 62 18411423929246706593
7364860 26 18273215270723003982

>  <PUBCHEM_SHAPE_MULTIPOLES>  (1) 
199.93
7.26
1.48
0.82
8.84
0.16
-0.1
-1.4
0.24
-1.7
0.02
-0.32
-0.2
0.02

>  <PUBCHEM_SHAPE_SELFOVERLAP>  (1) 
360.792

>  <PUBCHEM_SHAPE_VOLUME>  (1) 
129.3

>  <PUBCHEM_COORDINATE_TYPE>  (1) 
2
5
10

$$$$
