22512
     RDKit          3D

  9  8  0  0  1  0  0  0  0  0999 V2000
   -1.1219   -0.1399   -1.3851 O   0  0  0  0  0  0  0  0  0  0  0  0
    0.1651   -0.9872    0.4726 C   0  0  0  0  0  0  0  0  0  0  0  0
    1.5611   -0.5702   -0.0151 C   0  0  0  0  0  0  0  0  0  0  0  0
    1.8744    0.8960    0.2984 C   0  0  0  0  0  0  0  0  0  0  0  0
   -0.9353   -0.1428   -0.1685 C   0  0  0  0  0  0  0  0  0  0  0  0
   -0.1056   -2.4551    0.1527 C   0  0  0  0  0  0  0  0  0  0  0  0
   -1.8043    0.6599    0.7864 C   0  0  0  0  0  0  0  0  0  0  0  0
    3.2520    1.2902   -0.2116 C   0  0  0  0  0  0  0  0  0  0  0  0
   -2.8854    1.4491    0.0701 C   0  0  0  0  0  0  0  0  0  0  0  0
  1  5  2  0
  2  3  1  0
  2  5  1  0
  2  6  1  0
  3  4  1  0
  4  8  1  0
  5  7  1  0
  7  9  1  0
M  END
>  <PUBCHEM_COMPOUND_CID>  (1) 
22512

>  <PUBCHEM_CONFORMER_RMSD>  (1) 
0.6

>  <PUBCHEM_CONFORMER_DIVERSEORDER>  (1) 
1
31
29
39
22
12
3
45
42
38
50
47
55
23
57
13
52
20
41
33
53
48
35
18
56
19
46
36
40
25
43
54
6
37
11
27
7
14
26
21
15
30
49
32
34
16
5
9
28
2
17
51
44
8
24
4
10

>  <PUBCHEM_MMFF94_PARTIAL_CHARGES>  (1) 
4
1 -0.57
2 0.06
5 0.45
7 0.06

>  <PUBCHEM_EFFECTIVE_ROTOR_COUNT>  (1) 
4

>  <PUBCHEM_PHARMACOPHORE_FEATURES>  (1) 
4
1 1 acceptor
1 6 hydrophobe
1 8 hydrophobe
1 9 hydrophobe

>  <PUBCHEM_HEAVY_ATOM_COUNT>  (1) 
9

>  <PUBCHEM_ATOM_DEF_STEREO_COUNT>  (1) 
0

>  <PUBCHEM_ATOM_UDEF_STEREO_COUNT>  (1) 
1

>  <PUBCHEM_BOND_DEF_STEREO_COUNT>  (1) 
0

>  <PUBCHEM_BOND_UDEF_STEREO_COUNT>  (1) 
0

>  <PUBCHEM_ISOTOPIC_ATOM_COUNT>  (1) 
0

>  <PUBCHEM_COMPONENT_COUNT>  (1) 
1

>  <PUBCHEM_CACTVS_TAUTO_COUNT>  (1) 
3

>  <PUBCHEM_CONFORMER_ID>  (1) 
000057F000000001

>  <PUBCHEM_MMFF94_ENERGY>  (1) 
3.5708

>  <PUBCHEM_FEATURE_SELFOVERLAP>  (1) 
20.297

>  <PUBCHEM_SHAPE_FINGERPRINT>  (1) 
100427 49 16826157148180167794
10857977 72 16371306436653426337
14390081 3 18411421670225901257
15775835 57 18272371949240998401
18342897 96 18272087231526783236
19837323 101 18200035173838654946
19973954 147 17979918542633024584
20653085 51 17703520972900650040
21028194 46 18412832403683968872
21040471 1 18410855490483115858
21524375 3 18412541002958637880
23211744 25 17986932211046695427
23235685 24 18409165532495195016
23552449 1 17763178438056652746
305870 269 18336541616980567536
5084963 1 17916021257249262105

>  <PUBCHEM_SHAPE_MULTIPOLES>  (1) 
179.35
4.04
2.03
0.88
1.13
1.14
0.16
-3.36
0.03
-0.01
-0.14
-0.26
-0.01
-0.15

>  <PUBCHEM_SHAPE_SELFOVERLAP>  (1) 
323.967

>  <PUBCHEM_SHAPE_VOLUME>  (1) 
116.3

>  <PUBCHEM_COORDINATE_TYPE>  (1) 
2
5
10

$$$$
