22520
     RDKit          3D

  9  9  0  0  1  0  0  0  0  0999 V2000
    2.7937    0.4739   -0.3917 O   0  0  0  0  0  0  0  0  0  0  0  0
    0.6850    1.2826   -0.0412 N   0  0  0  0  0  0  0  0  0  0  0  0
   -1.5416    0.2196   -0.3317 C   0  0  0  0  0  0  0  0  0  0  0  0
   -1.2649   -1.2488    0.0300 C   0  0  0  0  0  0  0  0  0  0  0  0
    0.1609   -1.7189   -0.2581 C   0  0  0  0  0  0  0  0  0  0  0  0
   -0.6715    1.1930    0.4712 C   0  0  0  0  0  0  0  0  0  0  0  0
    1.2174   -1.0295    0.5968 C   0  0  0  0  0  0  0  0  0  0  0  0
   -3.0218    0.5302   -0.0867 C   0  0  0  0  0  0  0  0  0  0  0  0
    1.6428    0.2979    0.0113 C   0  0  0  0  0  0  0  0  0  0  0  0
  1  9  2  0
  2  6  1  0
  2  9  1  0
  3  4  1  0
  3  6  1  0
  3  8  1  0
  4  5  1  0
  5  7  1  0
  7  9  1  0
M  END
>  <PUBCHEM_COMPOUND_CID>  (1) 
22520

>  <PUBCHEM_CONFORMER_RMSD>  (1) 
0.4

>  <PUBCHEM_CONFORMER_DIVERSEORDER>  (1) 
1
3
4
2

>  <PUBCHEM_MMFF94_PARTIAL_CHARGES>  (1) 
6
1 -0.57
2 -0.73
22 0.37
6 0.3
7 0.06
9 0.57

>  <PUBCHEM_EFFECTIVE_ROTOR_COUNT>  (1) 
1.2

>  <PUBCHEM_PHARMACOPHORE_FEATURES>  (1) 
3
1 1 acceptor
1 2 donor
7 2 3 4 5 6 7 9 rings

>  <PUBCHEM_HEAVY_ATOM_COUNT>  (1) 
9

>  <PUBCHEM_ATOM_DEF_STEREO_COUNT>  (1) 
0

>  <PUBCHEM_ATOM_UDEF_STEREO_COUNT>  (1) 
1

>  <PUBCHEM_BOND_DEF_STEREO_COUNT>  (1) 
0

>  <PUBCHEM_BOND_UDEF_STEREO_COUNT>  (1) 
0

>  <PUBCHEM_ISOTOPIC_ATOM_COUNT>  (1) 
0

>  <PUBCHEM_COMPONENT_COUNT>  (1) 
1

>  <PUBCHEM_CACTVS_TAUTO_COUNT>  (1) 
2

>  <PUBCHEM_CONFORMER_ID>  (1) 
000057F800000001

>  <PUBCHEM_MMFF94_ENERGY>  (1) 
12.5618

>  <PUBCHEM_FEATURE_SELFOVERLAP>  (1) 
15.223

>  <PUBCHEM_SHAPE_FINGERPRINT>  (1) 
12897270 3 18411138021752853349
15310529 11 17095233705253102953
16714656 1 18411984688655764348
16945 1 18408035221519516529
18185500 45 18410566284285716930
21040471 1 18411411834497293458
23235685 24 18411978052999974221
23402655 69 18268411453451557341
23552423 10 18117555347593221726
241688 4 17042324939484197971
2748010 2 18123467447427930917
29004967 10 17240487983101525017
5084963 1 18187922816107628522
528862 383 18187358775338210587
66348 1 18411415137422083113

>  <PUBCHEM_SHAPE_MULTIPOLES>  (1) 
174.37
3.38
1.63
0.7
0.64
0.42
0.04
-0.81
-0.32
-0.08
0.03
-0.04
0.02
-0.16

>  <PUBCHEM_SHAPE_SELFOVERLAP>  (1) 
337.261

>  <PUBCHEM_SHAPE_VOLUME>  (1) 
105

>  <PUBCHEM_COORDINATE_TYPE>  (1) 
2
5
10

$$$$
