2252
     RDKit          3D

 16 16  0  0  1  0  0  0  0  0999 V2000
    2.5791    1.0022    0.3298 O   0  0  0  0  0  0  0  0  0  0  0  0
   -0.2976    2.8577   -0.2814 O   0  0  0  0  0  0  0  0  0  0  0  0
   -4.0449   -0.8062    0.8746 O   0  0  0  0  0  0  0  0  0  0  0  0
   -3.6123   -0.5686   -1.3552 O   0  0  0  0  0  0  0  0  0  0  0  0
    1.8808    2.2255    0.2639 N   0  0  0  0  0  0  0  0  0  0  0  0
   -1.5552   -0.2065    1.5967 N   0  0  0  0  0  0  0  0  0  0  0  0
    2.0585   -1.3624   -0.0679 C   0  0  0  0  0  0  0  0  0  0  0  0
    1.6130    0.0754   -0.0400 C   0  0  0  0  0  0  0  0  0  0  0  0
    0.4101    0.5780   -0.3242 C   0  0  0  0  0  0  0  0  0  0  0  0
   -0.8636   -0.0414   -0.7486 C   0  0  0  0  0  0  0  0  0  0  0  0
    1.8800   -1.9155   -1.4878 C   0  0  0  0  0  0  0  0  0  0  0  0
    1.2117   -2.1826    0.9157 C   0  0  0  0  0  0  0  0  0  0  0  0
    3.5365   -1.4511    0.3385 C   0  0  0  0  0  0  0  0  0  0  0  0
   -2.0167    0.2185    0.2346 C   0  0  0  0  0  0  0  0  0  0  0  0
    0.5784    2.0241   -0.1234 C   0  0  0  0  0  0  0  0  0  0  0  0
   -3.3578   -0.4471   -0.1252 C   0  0  0  0  0  0  0  0  0  0  0  0
  1  5  1  0
  1  8  1  0
  2 15  2  0
  3 16  1  0
  4 16  2  0
  5 15  1  0
  6 14  1  0
  7  8  1  0
  7 11  1  0
  7 12  1  0
  7 13  1  0
  8  9  2  0
  9 10  1  0
  9 15  1  0
 10 14  1  0
 14 16  1  0
M  CHG  2   3  -1   6   1
M  END
>  <PUBCHEM_COMPOUND_CID>  (1) 
2252

>  <PUBCHEM_CONFORMER_RMSD>  (1) 
0.6

>  <PUBCHEM_CONFORMER_DIVERSEORDER>  (1) 
8
2
22
24
15
11
10
13
18
20
7
6
19
21
5
14
16
3
17
1
12
23
9
4

>  <PUBCHEM_MMFF94_PARTIAL_CHARGES>  (1) 
17
1 -0.11
10 0.14
14 0.4
15 0.62
16 0.91
2 -0.57
29 0.37
3 -0.9
30 0.45
31 0.45
32 0.45
4 -0.9
5 -0.39
6 -0.85
7 0.14
8 -0.06
9 -0.12

>  <PUBCHEM_EFFECTIVE_ROTOR_COUNT>  (1) 
4

>  <PUBCHEM_PHARMACOPHORE_FEATURES>  (1) 
9
1 2 acceptor
1 3 acceptor
1 4 acceptor
1 5 donor
1 6 cation
1 6 donor
3 3 4 16 anion
4 7 11 12 13 hydrophobe
5 1 5 8 9 15 rings

>  <PUBCHEM_HEAVY_ATOM_COUNT>  (1) 
16

>  <PUBCHEM_ATOM_DEF_STEREO_COUNT>  (1) 
0

>  <PUBCHEM_ATOM_UDEF_STEREO_COUNT>  (1) 
1

>  <PUBCHEM_BOND_DEF_STEREO_COUNT>  (1) 
0

>  <PUBCHEM_BOND_UDEF_STEREO_COUNT>  (1) 
0

>  <PUBCHEM_ISOTOPIC_ATOM_COUNT>  (1) 
0

>  <PUBCHEM_COMPONENT_COUNT>  (1) 
1

>  <PUBCHEM_CACTVS_TAUTO_COUNT>  (1) 
2

>  <PUBCHEM_CONFORMER_ID>  (1) 
000008CC00000008

>  <PUBCHEM_MMFF94_ENERGY>  (1) 
32.6369

>  <PUBCHEM_FEATURE_SELFOVERLAP>  (1) 
45.724

>  <PUBCHEM_SHAPE_FINGERPRINT>  (1) 
10980938 120 18341611572196293837
116883 192 18197774393359559125
12553582 1 18266182738148194555
13296908 3 18260267456211873111
14251717 144 18338508737661416247
14252887 29 18272657805115973454
15757776 16 18410849954217757566
161256 15 18341052930511905740
16945 1 18341897449604218484
18186145 218 17748819709914956181
19049666 15 18040988519437434509
20201158 50 18113898230154026915
20361792 2 18340491066984672367
20645477 70 18340759412626206583
20671657 53 18409731720827564291
20871998 22 18199475363612017126
21501502 16 18337395916125422004
2255824 54 18269561713489580493
23419403 2 16304801337686518738
23526113 38 17604158111298529049
23598291 2 18202286918208058303
2748010 2 17839734873140787142
7364860 26 18271809072201385020
77492 1 17703509995101164117
81228 2 17977110054442789464

>  <PUBCHEM_SHAPE_MULTIPOLES>  (1) 
295.83
5.54
2.52
1.13
4.14
1.48
0.07
-2.98
-0.18
-1.43
0.03
0.31
-0.52
0.21

>  <PUBCHEM_SHAPE_SELFOVERLAP>  (1) 
605.784

>  <PUBCHEM_SHAPE_VOLUME>  (1) 
172.1

>  <PUBCHEM_COORDINATE_TYPE>  (1) 
2
5
10

$$$$
