22522
     RDKit          3D

 17 16  0  0  1  0  0  0  0  0999 V2000
    0.5563   -4.1019   -0.4351 Cl  0  0  0  0  0  0  0  0  0  0  0  0
    2.9006    1.7764   -1.8616 Cl  0  0  0  0  0  0  0  0  0  0  0  0
   -4.1684    1.1395    0.5480 Cl  0  0  0  0  0  0  0  0  0  0  0  0
    0.1465    0.0807    1.2677 P   0  0  0  0  0  0  0  0  0  0  0  0
   -0.0114   -1.1880    0.2723 O   0  0  0  0  0  0  0  0  0  0  0  0
    1.3088    0.9576    0.5569 O   0  0  0  0  0  0  0  0  0  0  0  0
   -1.2067    0.9433    1.0412 O   0  0  0  0  0  0  0  0  0  0  0  0
    0.4212   -0.2784    2.7006 O   0  0  0  0  0  0  0  0  0  0  0  0
   -1.0404   -2.1270    0.5336 C   0  0  0  0  0  0  0  0  0  0  0  0
    2.6114    0.4062    0.4681 C   0  0  0  0  0  0  0  0  0  0  0  0
   -1.5828    1.3478   -0.2642 C   0  0  0  0  0  0  0  0  0  0  0  0
   -1.0079   -3.2310   -0.5184 C   0  0  0  0  0  0  0  0  0  0  0  0
    3.5404    1.3929   -0.2319 C   0  0  0  0  0  0  0  0  0  0  0  0
   -2.8846    2.1405   -0.2016 C   0  0  0  0  0  0  0  0  0  0  0  0
   -1.1931   -2.6716   -1.9214 C   0  0  0  0  0  0  0  0  0  0  0  0
    4.9490    0.8337   -0.3682 C   0  0  0  0  0  0  0  0  0  0  0  0
   -3.3388    2.5793   -1.5859 C   0  0  0  0  0  0  0  0  0  0  0  0
  1 12  1  0
  2 13  1  0
  3 14  1  0
  4  5  1  0
  4  6  1  0
  4  7  1  0
  4  8  2  0
  5  9  1  0
  6 10  1  0
  7 11  1  0
  9 12  1  0
 10 13  1  0
 11 14  1  0
 12 15  1  0
 13 16  1  0
 14 17  1  0
M  END
>  <PUBCHEM_COMPOUND_CID>  (1) 
22522

>  <PUBCHEM_CONFORMER_RMSD>  (1) 
1.2

>  <PUBCHEM_CONFORMER_DIVERSEORDER>  (1) 
1
56
48
59
37
43
6
45
50
55
39
47
51
35
58
53
22
38
26
20
9
34
27
10
36
29
42
21
44
17
32
13
49
25
33
46
54
30
3
23
7
15
31
5
14
19
4
41
40
18
24
2
52
16
28
11
57
8
12

>  <PUBCHEM_MMFF94_PARTIAL_CHARGES>  (1) 
14
1 -0.29
10 0.28
11 0.28
12 0.29
13 0.29
14 0.29
2 -0.29
3 -0.29
4 1.51
5 -0.55
6 -0.55
7 -0.55
8 -0.7
9 0.28

>  <PUBCHEM_EFFECTIVE_ROTOR_COUNT>  (1) 
9

>  <PUBCHEM_PHARMACOPHORE_FEATURES>  (1) 
1
1 8 acceptor

>  <PUBCHEM_HEAVY_ATOM_COUNT>  (1) 
17

>  <PUBCHEM_ATOM_DEF_STEREO_COUNT>  (1) 
0

>  <PUBCHEM_ATOM_UDEF_STEREO_COUNT>  (1) 
3

>  <PUBCHEM_BOND_DEF_STEREO_COUNT>  (1) 
0

>  <PUBCHEM_BOND_UDEF_STEREO_COUNT>  (1) 
0

>  <PUBCHEM_ISOTOPIC_ATOM_COUNT>  (1) 
0

>  <PUBCHEM_COMPONENT_COUNT>  (1) 
1

>  <PUBCHEM_CACTVS_TAUTO_COUNT>  (1) 
1

>  <PUBCHEM_CONFORMER_ID>  (1) 
000057FA00000001

>  <PUBCHEM_MMFF94_ENERGY>  (1) 
14.6338

>  <PUBCHEM_FEATURE_SELFOVERLAP>  (1) 
5.074

>  <PUBCHEM_SHAPE_FINGERPRINT>  (1) 
10756046 70 17826482536626697202
13149001 5 17845363504564664120
13931106 250 18129381669266426982
14004458 79 17979611748359438539
15502708 8 18197214960730671017
15502722 9 18123473778452311845
167882 2 18193279581498929054
18785283 64 18120387462097943387
20600515 1 17187525852580225475
20602899 9 18131362890229612442
20645476 183 18335136496823021128
20645477 56 18338241565274305400
20671657 53 17260753365681924238
20711985 344 18052239976010708139
21285901 2 17986119736315501671
21421566 26 17620785072178489716
21524375 3 18113905948247479872
22620623 9 18057893647594106255
22713019 5 18051955202673239407
23419403 2 17542271940505109459
23557571 272 17693072472783990856
23598288 3 17971492920393409882
23598291 2 17896297213049068714
298252 57 18335421248828403504
3060560 45 18120077395413167012
458136 41 18269847423783787809
81228 2 17908404094332529419

>  <PUBCHEM_SHAPE_MULTIPOLES>  (1) 
335.83
6.75
4.5
1.81
3.98
5.81
-0.17
-7.47
1.69
-2.1
2.33
-0.08
-0.07
-0.3

>  <PUBCHEM_SHAPE_SELFOVERLAP>  (1) 
586.68

>  <PUBCHEM_SHAPE_VOLUME>  (1) 
224

>  <PUBCHEM_COORDINATE_TYPE>  (1) 
2
5
10

$$$$
