22536
     RDKit          3D

 20 20  0  0  1  0  0  0  0  0999 V2000
   -5.5630    0.9970    1.8488 Cl  0  0  0  0  0  0  0  0  0  0  0  0
   -6.1926   -0.1195   -0.7758 Cl  0  0  0  0  0  0  0  0  0  0  0  0
   -1.2944   -1.7563   -2.0085 O   0  0  0  0  0  0  0  0  0  0  0  0
   -0.6754   -1.4348    1.3883 O   0  0  0  0  0  0  0  0  0  0  0  0
   -3.6851    1.6797   -0.5184 O   0  0  0  0  0  0  0  0  0  0  0  0
    5.5510    1.6247   -0.4626 O   0  0  0  0  0  0  0  0  0  0  0  0
    6.0361   -0.3910    0.2590 O   0  0  0  0  0  0  0  0  0  0  0  0
   -2.6450   -0.3061    0.0755 N   0  0  0  0  0  0  0  0  0  0  0  0
    5.2007    0.4960   -0.0408 N   0  0  0  0  0  0  0  0  0  0  0  0
   -1.3282    0.0508   -0.3951 C   0  0  0  0  0  0  0  0  0  0  0  0
   -0.3213   -0.6280    0.5291 C   0  0  0  0  0  0  0  0  0  0  0  0
   -1.1293   -0.3515   -1.8519 C   0  0  0  0  0  0  0  0  0  0  0  0
    1.1336   -0.3321    0.3786 C   0  0  0  0  0  0  0  0  0  0  0  0
    1.5096    0.9080   -0.0845 C   0  0  0  0  0  0  0  0  0  0  0  0
    2.0433   -1.3106    0.7091 C   0  0  0  0  0  0  0  0  0  0  0  0
   -3.7293    0.5525   -0.0279 C   0  0  0  0  0  0  0  0  0  0  0  0
    2.8696    1.1849   -0.2249 C   0  0  0  0  0  0  0  0  0  0  0  0
    3.4032   -1.0338    0.5689 C   0  0  0  0  0  0  0  0  0  0  0  0
    3.8164    0.2140    0.1020 C   0  0  0  0  0  0  0  0  0  0  0  0
   -4.9999   -0.0438    0.5312 C   0  0  0  0  0  0  0  0  0  0  0  0
  1 20  1  0
  2 20  1  0
  3 12  1  0
  4 11  2  0
  5 16  2  0
  6  9  1  0
  7  9  2  0
  8 10  1  0
  8 16  1  0
  9 19  1  0
 10 11  1  0
 10 12  1  0
 11 13  1  0
 13 14  2  0
 13 15  1  0
 14 17  1  0
 15 18  2  0
 16 20  1  0
 17 19  2  0
 18 19  1  0
M  CHG  2   6  -1   9   1
M  END
>  <PUBCHEM_COMPOUND_CID>  (1) 
22536

>  <PUBCHEM_CONFORMER_RMSD>  (1) 
0.8

>  <PUBCHEM_CONFORMER_DIVERSEORDER>  (1) 
1
97
72
53
54
24
102
88
56
9
89
43
33
78
70
26
15
86
101
42
39
17
93
50
92
21
22
37
95
76
60
79
11
68
4
67
28
96
46
36
85
87
71
23
8
34
105
100
80
94
51
25
2
19
52
40
84
6
73
59
91
7
13
10
41
55
45
32
12
30
31
35
58
48
82
44
74
49
3
64
16
20
65
90
27
98
63
69
29
47
57
66
62
106
5
18
104
99
14
81
77
61
75
103
83
38

>  <PUBCHEM_MMFF94_PARTIAL_CHARGES>  (1) 
26
1 -0.29
10 0.36
11 0.42
12 0.28
13 0.09
14 -0.15
15 -0.15
16 0.57
17 -0.15
18 -0.15
19 0.13
2 -0.29
20 0.64
24 0.37
25 0.15
26 0.15
27 0.15
28 0.15
29 0.4
3 -0.68
4 -0.57
5 -0.57
6 -0.52
7 -0.52
8 -0.73
9 0.91

>  <PUBCHEM_EFFECTIVE_ROTOR_COUNT>  (1) 
7

>  <PUBCHEM_PHARMACOPHORE_FEATURES>  (1) 
9
1 3 acceptor
1 3 donor
1 4 acceptor
1 5 acceptor
1 6 acceptor
1 6 anion
1 7 acceptor
1 8 donor
6 13 14 15 17 18 19 rings

>  <PUBCHEM_HEAVY_ATOM_COUNT>  (1) 
20

>  <PUBCHEM_ATOM_DEF_STEREO_COUNT>  (1) 
0

>  <PUBCHEM_ATOM_UDEF_STEREO_COUNT>  (1) 
1

>  <PUBCHEM_BOND_DEF_STEREO_COUNT>  (1) 
0

>  <PUBCHEM_BOND_UDEF_STEREO_COUNT>  (1) 
0

>  <PUBCHEM_ISOTOPIC_ATOM_COUNT>  (1) 
0

>  <PUBCHEM_COMPONENT_COUNT>  (1) 
1

>  <PUBCHEM_CACTVS_TAUTO_COUNT>  (1) 
4

>  <PUBCHEM_CONFORMER_ID>  (1) 
0000580800000001

>  <PUBCHEM_MMFF94_ENERGY>  (1) 
51.1146

>  <PUBCHEM_FEATURE_SELFOVERLAP>  (1) 
45.757

>  <PUBCHEM_SHAPE_FINGERPRINT>  (1) 
10 15 16950562238068094532
10354089 29 18335423465136866976
106641 1 16081379595432488785
11045977 3 17095528426357490481
11796584 16 16128657453550898382
12107183 9 17614554840069254737
12236239 1 18202566167811480272
12516196 113 12829492558307127821
12592029 89 18059860523704814999
12670543 26 14548747166000217041
12730499 353 18040723554257189266
12815109 37 11887955449500158192
12916748 109 18260835873168201336
14115302 16 16128653102295281000
14251752 14 15697726908489066848
14341114 176 18114189601188827849
17834072 8 13470406643781900713
17834076 25 16487254369986939992
18222031 100 15285367223545021603
187816 3 15195569004744474187
18785283 64 16879084120606215644
20645477 70 18338515227774115042
20681677 155 17632572777647709702
21033648 29 17676474065411441357
21267235 1 18187650155348165434
22079108 93 18040432226292795602
22224240 67 17458347455413710291
22854114 59 17530964670478298497
23402539 116 18335133219657485911
23402655 69 18412542111244764536
23536379 177 17561367261849563482
23559900 14 18040713710323891865
314173 85 14996285778095822431
335352 9 18187365433550323598
347723 3 15554450691077794251
3545911 37 18333732420331894074
3759504 43 17703789249453656911
5104073 3 18042121119630357864
5283173 99 13542475215292306371
542803 24 17917994970910502193
54446538 1 18409165506504053053
59682541 35 17531259408615141953
59755656 520 17895188921959929082
69474 34 15791733031208410767

>  <PUBCHEM_SHAPE_MULTIPOLES>  (1) 
376.02
13.96
1.41
1.36
1.75
0.09
0
-4.54
0.65
0.18
-0.23
1
0.26
-1.47

>  <PUBCHEM_SHAPE_SELFOVERLAP>  (1) 
761.836

>  <PUBCHEM_SHAPE_VOLUME>  (1) 
219.4

>  <PUBCHEM_COORDINATE_TYPE>  (1) 
2
5
10

$$$$
