22542
     RDKit          3D

 17 16  0  0  0  0  0  0  0  0999 V2000
    0.2354    0.3267    1.3795 P   0  0  0  0  0  0  0  0  0  0  0  0
   -0.8750    1.2995    0.7109 O   0  0  0  0  0  0  0  0  0  0  0  0
    1.6238    0.7384    0.6528 O   0  0  0  0  0  0  0  0  0  0  0  0
   -0.0806   -1.1355    0.7570 O   0  0  0  0  0  0  0  0  0  0  0  0
    0.2774    0.3720    2.8807 O   0  0  0  0  0  0  0  0  0  0  0  0
   -3.3411    1.8880   -0.4683 O   0  0  0  0  0  0  0  0  0  0  0  0
    3.6566    0.4574   -1.2464 O   0  0  0  0  0  0  0  0  0  0  0  0
   -1.3311   -2.9098   -1.0054 O   0  0  0  0  0  0  0  0  0  0  0  0
   -1.0193    1.3524   -0.6982 C   0  0  0  0  0  0  0  0  0  0  0  0
    2.7835   -0.0280    0.9292 C   0  0  0  0  0  0  0  0  0  0  0  0
   -1.3055   -1.7630    1.0957 C   0  0  0  0  0  0  0  0  0  0  0  0
   -2.1207    2.3350   -1.0463 C   0  0  0  0  0  0  0  0  0  0  0  0
    3.9501    0.5386    0.1431 C   0  0  0  0  0  0  0  0  0  0  0  0
   -1.3801   -3.1095    0.4020 C   0  0  0  0  0  0  0  0  0  0  0  0
   -4.4075    2.7853   -0.7449 C   0  0  0  0  0  0  0  0  0  0  0  0
    4.7097    0.9963   -2.0332 C   0  0  0  0  0  0  0  0  0  0  0  0
   -1.3756   -4.1439   -1.7082 C   0  0  0  0  0  0  0  0  0  0  0  0
  1  2  1  0
  1  3  1  0
  1  4  1  0
  1  5  2  0
  2  9  1  0
  3 10  1  0
  4 11  1  0
  6 12  1  0
  6 15  1  0
  7 13  1  0
  7 16  1  0
  8 14  1  0
  8 17  1  0
  9 12  1  0
 10 13  1  0
 11 14  1  0
M  END
>  <PUBCHEM_COMPOUND_CID>  (1) 
22542

>  <PUBCHEM_CONFORMER_RMSD>  (1) 
1

>  <PUBCHEM_CONFORMER_DIVERSEORDER>  (1) 
1
96
37
58
101
75
8
29
49
99
53
42
68
88
67
36
15
86
60
65
80
28
10
51
82
4
69
87
63
95
83
44
72
23
84
92
17
21
6
25
3
50
39
73
32
79
18
33
30
47
64
61
7
41
52
59
19
57
38
77
94
78
26
66
43
14
12
11
98
90
76
62
70
103
48
16
35
24
34
91
20
45
93
55
46
22
31
71
74
9
5
27
85
89
13
102
97
40
81
56
54
100
2

>  <PUBCHEM_MMFF94_PARTIAL_CHARGES>  (1) 
17
1 1.51
10 0.28
11 0.28
12 0.28
13 0.28
14 0.28
15 0.28
16 0.28
17 0.28
2 -0.55
3 -0.55
4 -0.55
5 -0.7
6 -0.56
7 -0.56
8 -0.56
9 0.28

>  <PUBCHEM_EFFECTIVE_ROTOR_COUNT>  (1) 
12

>  <PUBCHEM_PHARMACOPHORE_FEATURES>  (1) 
4
1 5 acceptor
1 6 acceptor
1 7 acceptor
1 8 acceptor

>  <PUBCHEM_HEAVY_ATOM_COUNT>  (1) 
17

>  <PUBCHEM_ATOM_DEF_STEREO_COUNT>  (1) 
0

>  <PUBCHEM_ATOM_UDEF_STEREO_COUNT>  (1) 
0

>  <PUBCHEM_BOND_DEF_STEREO_COUNT>  (1) 
0

>  <PUBCHEM_BOND_UDEF_STEREO_COUNT>  (1) 
0

>  <PUBCHEM_ISOTOPIC_ATOM_COUNT>  (1) 
0

>  <PUBCHEM_COMPONENT_COUNT>  (1) 
1

>  <PUBCHEM_CACTVS_TAUTO_COUNT>  (1) 
1

>  <PUBCHEM_CONFORMER_ID>  (1) 
0000580E00000001

>  <PUBCHEM_MMFF94_ENERGY>  (1) 
28.9747

>  <PUBCHEM_FEATURE_SELFOVERLAP>  (1) 
20.3

>  <PUBCHEM_SHAPE_FINGERPRINT>  (1) 
10756046 70 17606938647619873962
11488393 25 17978241465373116883
12841375 5 17550374147533011031
12841375 7 17627527260564016606
13257819 37 18335995194188019071
14004458 79 18122326124256650566
14251757 17 16199564975073278805
15502708 8 18336824311485345058
20602899 9 18201166438201744416
20645477 70 17545573697305239453
20711985 344 18119223289653273275
21421566 26 18123209036678671508
21524375 3 17677611965034987232
22620623 9 18269557298252410398
22713019 5 18045208586334776419
23419403 2 17619674243755182067
23598288 3 17968105247653482010
298252 57 18188205394975694592
3057174 1 18194958548354453175
3060560 45 18118386363662310061
458136 41 18122908629739645729
81228 2 17973975613454187945
81539 233 17973151843090691749

>  <PUBCHEM_SHAPE_MULTIPOLES>  (1) 
312.62
6.99
4.39
2.07
6.1
4.94
-0.44
-6.5
4.39
-6.62
2.75
1.05
0.39
-0.27

>  <PUBCHEM_SHAPE_SELFOVERLAP>  (1) 
560.76

>  <PUBCHEM_SHAPE_VOLUME>  (1) 
202.2

>  <PUBCHEM_COORDINATE_TYPE>  (1) 
2
5
10

$$$$
