22569
     RDKit          3D

 16 18  0  0  0  0  0  0  0  0999 V2000
   -0.7142   -2.6857    0.3432 N   0  0  0  0  0  0  0  0  0  0  0  0
    0.8799   -1.5516   -1.2700 C   0  0  0  0  0  0  0  0  0  0  0  0
    1.5133   -0.3697   -0.5673 C   0  0  0  0  0  0  0  0  0  0  0  0
    0.7484    0.6619    0.0219 C   0  0  0  0  0  0  0  0  0  0  0  0
    0.5912   -2.7226   -0.3238 C   0  0  0  0  0  0  0  0  0  0  0  0
   -0.7265    0.6735   -0.0160 C   0  0  0  0  0  0  0  0  0  0  0  0
   -1.5080   -0.3531    0.5603 C   0  0  0  0  0  0  0  0  0  0  0  0
   -0.8938   -1.5523    1.2507 C   0  0  0  0  0  0  0  0  0  0  0  0
    2.9179   -0.3241   -0.4834 C   0  0  0  0  0  0  0  0  0  0  0  0
    1.4275    1.7151    0.6679 C   0  0  0  0  0  0  0  0  0  0  0  0
   -1.3880    1.7435   -0.6529 C   0  0  0  0  0  0  0  0  0  0  0  0
   -2.9119   -0.2878    0.4680 C   0  0  0  0  0  0  0  0  0  0  0  0
    3.5660    0.7278    0.1604 C   0  0  0  0  0  0  0  0  0  0  0  0
    2.8205    1.7485    0.7356 C   0  0  0  0  0  0  0  0  0  0  0  0
   -2.7800    1.7969   -0.7269 C   0  0  0  0  0  0  0  0  0  0  0  0
   -3.5422    0.7798   -0.1675 C   0  0  0  0  0  0  0  0  0  0  0  0
  1  5  1  0
  1  8  1  0
  2  3  1  0
  2  5  1  0
  3  4  2  0
  3  9  1  0
  4  6  1  0
  4 10  1  0
  6  7  2  0
  6 11  1  0
  7  8  1  0
  7 12  1  0
  9 13  2  0
 10 14  2  0
 11 15  2  0
 12 16  2  0
 13 14  1  0
 15 16  1  0
M  END
>  <PUBCHEM_COMPOUND_CID>  (1) 
22569

>  <PUBCHEM_CONFORMER_RMSD>  (1) 
0.4

>  <PUBCHEM_CONFORMER_DIVERSEORDER>  (1) 
1
2

>  <PUBCHEM_MMFF94_PARTIAL_CHARGES>  (1) 
23
1 -0.9
10 -0.15
11 -0.15
12 -0.15
13 -0.15
14 -0.15
15 -0.15
16 -0.15
2 0.14
23 0.36
24 0.15
25 0.15
26 0.15
27 0.15
28 0.15
29 0.15
3 -0.14
30 0.15
31 0.15
5 0.27
7 -0.14
8 0.41
9 -0.15

>  <PUBCHEM_EFFECTIVE_ROTOR_COUNT>  (1) 
0.8

>  <PUBCHEM_PHARMACOPHORE_FEATURES>  (1) 
4
1 1 cation
1 1 donor
6 3 4 9 10 13 14 rings
6 6 7 11 12 15 16 rings

>  <PUBCHEM_HEAVY_ATOM_COUNT>  (1) 
16

>  <PUBCHEM_ATOM_DEF_STEREO_COUNT>  (1) 
0

>  <PUBCHEM_ATOM_UDEF_STEREO_COUNT>  (1) 
0

>  <PUBCHEM_BOND_DEF_STEREO_COUNT>  (1) 
0

>  <PUBCHEM_BOND_UDEF_STEREO_COUNT>  (1) 
0

>  <PUBCHEM_ISOTOPIC_ATOM_COUNT>  (1) 
0

>  <PUBCHEM_COMPONENT_COUNT>  (1) 
1

>  <PUBCHEM_CACTVS_TAUTO_COUNT>  (1) 
1

>  <PUBCHEM_CONFORMER_ID>  (1) 
0000582900000001

>  <PUBCHEM_MMFF94_ENERGY>  (1) 
53.0387

>  <PUBCHEM_FEATURE_SELFOVERLAP>  (1) 
20.297

>  <PUBCHEM_SHAPE_FINGERPRINT>  (1) 
10608611 8 18410853261116118348
10871710 139 16895120703666107676
10967382 1 18411138008852016692
12138202 97 18335135431660588804
12730499 353 18336826373919343517
13380535 76 18410852161593291470
13464514 151 17978509737029483069
13897977 150 18338517439412649525
14817 1 11626232563390519451
15219456 202 18412265012655411005
15309172 13 18342742948212884056
15852999 172 18335417945887451204
16945 1 18188491392600115320
18186145 218 18271531909377276752
19049666 15 18120942711212049405
19930374 2 18266462198742733691
20201158 50 18341335496025064165
20511035 2 18268433601959079294
20588541 1 18410864251931666868
20645477 70 18057313986561512773
20871998 184 18192719066512019539
21524375 3 18411133640891629022
21947302 44 18341329968365146462
2334 1 17979363288733132610
23388829 49 16753811490585691141
23402539 116 18265040517824257903
23493267 7 17604451638116872314
23559900 14 18341622495479568302
23590187 152 18339364166308134618
238 59 18122313849519843621
25 1 18341050701028272597
2748010 2 18195825160832466886
2871803 45 18341598344382720927
3323516 105 18268999695744204183
5262128 65 17412474528242372943
53812653 166 18410014290846719201
69090 78 18340763853305762115
7364860 26 18050280371617630987
77492 1 15769779043597382569
81228 2 17762038235681848275
8809292 202 18409736170476700680

>  <PUBCHEM_SHAPE_MULTIPOLES>  (1) 
324.29
5.05
2.67
1.02
0.09
1.45
0
-2.57
-0.02
-0.08
0
0.01
0.16
1.1

>  <PUBCHEM_SHAPE_SELFOVERLAP>  (1) 
707.274

>  <PUBCHEM_SHAPE_VOLUME>  (1) 
171.6

>  <PUBCHEM_COORDINATE_TYPE>  (1) 
2
5
10

$$$$
