22560
     RDKit          3D

 10  9  0  0  0  0  0  0  0  0999 V2000
    2.2214   -0.5176   -1.3479 O   0  0  0  0  0  0  0  0  0  0  0  0
    2.5727   -1.1951    0.7181 O   0  0  0  0  0  0  0  0  0  0  0  0
    1.9230   -0.6059   -0.1522 N   0  0  0  0  0  0  0  0  0  0  0  0
   -1.7579   -0.3505    0.6167 C   0  0  0  0  0  0  0  0  0  0  0  0
   -2.7415   -0.4396   -0.5499 C   0  0  0  0  0  0  0  0  0  0  0  0
   -0.3720   -0.7488    0.1913 C   0  0  0  0  0  0  0  0  0  0  0  0
    0.7135    0.0323    0.2627 C   0  0  0  0  0  0  0  0  0  0  0  0
    0.8915    1.4335    0.7455 C   0  0  0  0  0  0  0  0  0  0  0  0
   -4.1507   -0.0648   -0.1184 C   0  0  0  0  0  0  0  0  0  0  0  0
    0.7000    2.4565   -0.3659 C   0  0  0  0  0  0  0  0  0  0  0  0
  1  3  1  0
  2  3  2  0
  3  7  1  0
  4  5  1  0
  4  6  1  0
  5  9  1  0
  6  7  2  0
  7  8  1  0
  8 10  1  0
M  CHG  2   1  -1   3   1
M  END
>  <PUBCHEM_COMPOUND_CID>  (1) 
22560

>  <PUBCHEM_CONFORMER_RMSD>  (1) 
0.6

>  <PUBCHEM_CONFORMER_DIVERSEORDER>  (1) 
3
12
10
23
15
17
22
20
8
7
13
19
21
16
5
11
18
6
9
2
14
1
4

>  <PUBCHEM_MMFF94_PARTIAL_CHARGES>  (1) 
8
1 -0.52
15 0.15
2 -0.52
3 0.84
4 0.14
6 -0.29
7 0.07
8 0.14

>  <PUBCHEM_EFFECTIVE_ROTOR_COUNT>  (1) 
4

>  <PUBCHEM_PHARMACOPHORE_FEATURES>  (1) 
5
1 1 acceptor
1 1 anion
1 10 hydrophobe
1 2 acceptor
1 9 hydrophobe

>  <PUBCHEM_HEAVY_ATOM_COUNT>  (1) 
10

>  <PUBCHEM_ATOM_DEF_STEREO_COUNT>  (1) 
0

>  <PUBCHEM_ATOM_UDEF_STEREO_COUNT>  (1) 
0

>  <PUBCHEM_BOND_DEF_STEREO_COUNT>  (1) 
0

>  <PUBCHEM_BOND_UDEF_STEREO_COUNT>  (1) 
1

>  <PUBCHEM_ISOTOPIC_ATOM_COUNT>  (1) 
0

>  <PUBCHEM_COMPONENT_COUNT>  (1) 
1

>  <PUBCHEM_CACTVS_TAUTO_COUNT>  (1) 
1

>  <PUBCHEM_CONFORMER_ID>  (1) 
0000582000000003

>  <PUBCHEM_MMFF94_ENERGY>  (1) 
11.4278

>  <PUBCHEM_FEATURE_SELFOVERLAP>  (1) 
25.451

>  <PUBCHEM_SHAPE_FINGERPRINT>  (1) 
10130415 120 18113896018277310243
11062470 55 13973959909555473835
12932741 1 17969225697542159875
12932764 1 17676755553230517891
19973954 147 18336263565398941649
20233049 118 17896305944443268085
20339313 130 18343312482746685593
20653091 64 18340493373207842306
20711985 344 17980783544518888814
21130352 189 18335693953608424225
23552423 10 18267580398116086331
3248919 1 17560805467791224275
58734985 102 17915766295285368780
9939556 21 18200305641236309167

>  <PUBCHEM_SHAPE_MULTIPOLES>  (1) 
189.08
5
1.71
0.93
5.51
1.36
0.12
-1.15
0.61
-1.3
0.05
-0.33
-0.05
0.01

>  <PUBCHEM_SHAPE_SELFOVERLAP>  (1) 
350.603

>  <PUBCHEM_SHAPE_VOLUME>  (1) 
120

>  <PUBCHEM_COORDINATE_TYPE>  (1) 
2
5
10

$$$$
