22574
     RDKit          3D

 15 15  0  0  0  0  0  0  0  0999 V2000
    2.5914    0.4344   -0.1217 S   0  0  0  0  0  0  0  0  0  0  0  0
    0.0382    2.0022   -0.0843 O   0  0  0  0  0  0  0  0  0  0  0  0
    2.8417    1.1388    1.3313 O   0  0  0  0  0  0  0  0  0  0  0  0
    3.5070   -0.6921   -0.2132 O   0  0  0  0  0  0  0  0  0  0  0  0
    2.5885    1.4756   -1.1361 O   0  0  0  0  0  0  0  0  0  0  0  0
   -3.6839    0.4107   -0.5363 O   0  0  0  0  0  0  0  0  0  0  0  0
   -2.6315    2.1338    0.5077 O   0  0  0  0  0  0  0  0  0  0  0  0
   -0.6989   -3.5098    0.1172 N   0  0  0  0  0  0  0  0  0  0  0  0
    0.9634   -0.2022   -0.0454 C   0  0  0  0  0  0  0  0  0  0  0  0
   -0.1406    0.6504   -0.0344 C   0  0  0  0  0  0  0  0  0  0  0  0
   -1.4298    0.1216    0.0272 C   0  0  0  0  0  0  0  0  0  0  0  0
    0.7780   -1.5839    0.0050 C   0  0  0  0  0  0  0  0  0  0  0  0
   -0.5113   -2.1127    0.0665 C   0  0  0  0  0  0  0  0  0  0  0  0
   -1.6152   -1.2599    0.0775 C   0  0  0  0  0  0  0  0  0  0  0  0
   -2.5971    0.9927    0.0390 C   0  0  0  0  0  0  0  0  0  0  0  0
  1  3  1  0
  1  4  2  0
  1  5  2  0
  1  9  1  0
  2 10  1  0
  6 15  1  0
  7 15  2  0
  8 13  1  0
  9 10  2  0
  9 12  1  0
 10 11  1  0
 11 14  2  0
 11 15  1  0
 12 13  2  0
 13 14  1  0
M  END
>  <PUBCHEM_COMPOUND_CID>  (1) 
22574

>  <PUBCHEM_CONFORMER_RMSD>  (1) 
0.6

>  <PUBCHEM_CONFORMER_DIVERSEORDER>  (1) 
1
2

>  <PUBCHEM_MMFF94_PARTIAL_CHARGES>  (1) 
22
1 1.49
10 0.08
11 0.09
12 -0.15
13 0.1
14 -0.15
15 0.63
16 0.15
17 0.15
18 0.4
19 0.4
2 -0.53
20 0.45
21 0.5
22 0.5
3 -0.68
4 -0.65
5 -0.65
6 -0.65
7 -0.57
8 -0.9
9 -0.01

>  <PUBCHEM_EFFECTIVE_ROTOR_COUNT>  (1) 
2

>  <PUBCHEM_PHARMACOPHORE_FEATURES>  (1) 
11
1 2 donor
1 3 acceptor
1 4 acceptor
1 5 acceptor
1 6 acceptor
1 7 acceptor
1 8 cation
1 8 donor
3 6 7 15 anion
4 1 3 4 5 anion
6 9 10 11 12 13 14 rings

>  <PUBCHEM_HEAVY_ATOM_COUNT>  (1) 
15

>  <PUBCHEM_ATOM_DEF_STEREO_COUNT>  (1) 
0

>  <PUBCHEM_ATOM_UDEF_STEREO_COUNT>  (1) 
0

>  <PUBCHEM_BOND_DEF_STEREO_COUNT>  (1) 
0

>  <PUBCHEM_BOND_UDEF_STEREO_COUNT>  (1) 
0

>  <PUBCHEM_ISOTOPIC_ATOM_COUNT>  (1) 
0

>  <PUBCHEM_COMPONENT_COUNT>  (1) 
1

>  <PUBCHEM_CACTVS_TAUTO_COUNT>  (1) 
9

>  <PUBCHEM_CONFORMER_ID>  (1) 
0000582E00000001

>  <PUBCHEM_MMFF94_ENERGY>  (1) 
44.5616

>  <PUBCHEM_FEATURE_SELFOVERLAP>  (1) 
55.936

>  <PUBCHEM_SHAPE_FINGERPRINT>  (1) 
1 1 18266457594564166175
10967382 1 18265897964599346015
12500047 106 18411978096424387864
12716758 59 18341333374458932554
13140716 1 18338235938582038339
13380535 76 18411699859336398111
13538477 17 18188206636505663412
15279308 132 18341892970190465466
16945 1 18194685005913234058
18186145 218 18340208479447960245
193761 8 17833833050925667365
20510252 161 18270684293444381497
20511035 2 18272087240644154230
20645476 183 18041295347305491406
21524375 3 18341329998604224807
2334 1 18410295813200094739
23402539 116 18342726442853876447
23463225 33 18261955146124973058
23552423 10 18050851009826087423
23557571 272 18055355992485694160
23559900 14 18343591750917340820
241688 4 16608010107087099179
2748010 2 18337684039558428711
305870 269 18193275200194028035
3071541 236 18262787600923501835
528886 8 18409727326848881371
54173680 148 18265617773812854979
7364860 26 17837772227315226679
74978 22 18337113474812419596
81228 2 18121776398623747315

>  <PUBCHEM_SHAPE_MULTIPOLES>  (1) 
272.35
4.78
2.74
0.78
0.78
1.93
-0.05
-2.22
0.2
-0.99
-0.16
0.37
-0.23
-0.06

>  <PUBCHEM_SHAPE_SELFOVERLAP>  (1) 
567.916

>  <PUBCHEM_SHAPE_VOLUME>  (1) 
154.9

>  <PUBCHEM_COORDINATE_TYPE>  (1) 
2
5
10

$$$$
