22578
     RDKit          3D

  8  7  0  0  0  0  0  0  0  0999 V2000
   -0.5861    0.3605    0.7379 O   0  0  0  0  0  0  0  0  0  0  0  0
   -1.3140   -0.6103   -1.2498 O   0  0  0  0  0  0  0  0  0  0  0  0
    0.7027    0.3708    0.2419 C   0  0  0  0  0  0  0  0  0  0  0  0
    1.5321   -0.6667    0.4355 C   0  0  0  0  0  0  0  0  0  0  0  0
    1.0982    1.6022   -0.5119 C   0  0  0  0  0  0  0  0  0  0  0  0
    2.9405   -0.7564   -0.0557 C   0  0  0  0  0  0  0  0  0  0  0  0
   -1.5116   -0.1661   -0.1261 C   0  0  0  0  0  0  0  0  0  0  0  0
   -2.8618   -0.1341    0.5282 C   0  0  0  0  0  0  0  0  0  0  0  0
  1  3  1  0
  1  7  1  0
  2  7  2  0
  3  4  2  0
  3  5  1  0
  4  6  1  0
  7  8  1  0
M  END
>  <PUBCHEM_COMPOUND_CID>  (1) 
22578

>  <PUBCHEM_CONFORMER_RMSD>  (1) 
0.4

>  <PUBCHEM_CONFORMER_DIVERSEORDER>  (1) 
1
5
7
6
8
2
9
10
3
4

>  <PUBCHEM_MMFF94_PARTIAL_CHARGES>  (1) 
9
1 -0.23
2 -0.57
3 -0.06
4 -0.29
5 0.14
6 0.14
7 0.66
8 0.06
9 0.15

>  <PUBCHEM_EFFECTIVE_ROTOR_COUNT>  (1) 
2

>  <PUBCHEM_PHARMACOPHORE_FEATURES>  (1) 
2
1 2 acceptor
1 6 hydrophobe

>  <PUBCHEM_HEAVY_ATOM_COUNT>  (1) 
8

>  <PUBCHEM_ATOM_DEF_STEREO_COUNT>  (1) 
0

>  <PUBCHEM_ATOM_UDEF_STEREO_COUNT>  (1) 
0

>  <PUBCHEM_BOND_DEF_STEREO_COUNT>  (1) 
0

>  <PUBCHEM_BOND_UDEF_STEREO_COUNT>  (1) 
1

>  <PUBCHEM_ISOTOPIC_ATOM_COUNT>  (1) 
0

>  <PUBCHEM_COMPONENT_COUNT>  (1) 
1

>  <PUBCHEM_CACTVS_TAUTO_COUNT>  (1) 
1

>  <PUBCHEM_CONFORMER_ID>  (1) 
0000583200000001

>  <PUBCHEM_MMFF94_ENERGY>  (1) 
12.812

>  <PUBCHEM_FEATURE_SELFOVERLAP>  (1) 
10.148

>  <PUBCHEM_SHAPE_FINGERPRINT>  (1) 
12897270 3 14634875240329757923
12932741 1 17240754133988176071
14128692 85 18272366520597027902
14390081 3 7997969072214492795
23552423 10 18341325707799955839
24536 1 18189600817086270113
29004967 10 18259982656619141754

>  <PUBCHEM_SHAPE_MULTIPOLES>  (1) 
152.9
3.91
1.15
0.9
0.37
0.52
0.17
-1.16
-0.14
-0.67
0.09
0.3
-0.06
-0.11

>  <PUBCHEM_SHAPE_SELFOVERLAP>  (1) 
283.964

>  <PUBCHEM_SHAPE_VOLUME>  (1) 
95.8

>  <PUBCHEM_COORDINATE_TYPE>  (1) 
2
5
10

$$$$
