22571
     RDKit          3D

 27 28  0  0  1  0  0  0  0  0999 V2000
    1.0866    0.8012    0.5469 O   0  0  0  0  0  0  0  0  0  0  0  0
    0.2550    0.3423    2.6499 O   0  0  0  0  0  0  0  0  0  0  0  0
   -1.9240    3.5392    0.9979 N   0  0  0  0  0  0  0  0  0  0  0  0
    3.4021    0.6571   -0.1704 C   0  0  0  0  0  0  0  0  0  0  0  0
    4.8397    0.5290    0.3759 C   0  0  0  0  0  0  0  0  0  0  0  0
    3.0926   -0.2784   -1.3607 C   0  0  0  0  0  0  0  0  0  0  0  0
    5.9213    0.8309   -0.6666 C   0  0  0  0  0  0  0  0  0  0  0  0
    2.4013    0.4857    0.9841 C   0  0  0  0  0  0  0  0  0  0  0  0
    7.3435    0.6844   -0.1189 C   0  0  0  0  0  0  0  0  0  0  0  0
    3.2406   -1.7657   -1.0704 C   0  0  0  0  0  0  0  0  0  0  0  0
    8.4222    0.9575   -1.1558 C   0  0  0  0  0  0  0  0  0  0  0  0
    0.1022    0.6866    1.4874 C   0  0  0  0  0  0  0  0  0  0  0  0
   -1.2117    1.0486    0.8713 C   0  0  0  0  0  0  0  0  0  0  0  0
   -1.9878    0.1038    0.2796 C   0  0  0  0  0  0  0  0  0  0  0  0
   -1.5159   -1.3070    0.2435 C   0  0  0  0  0  0  0  0  0  0  0  0
   -3.2778    0.4570   -0.3673 C   0  0  0  0  0  0  0  0  0  0  0  0
   -0.7146   -1.7476   -0.8099 C   0  0  0  0  0  0  0  0  0  0  0  0
   -4.4635    0.4022    0.3656 C   0  0  0  0  0  0  0  0  0  0  0  0
   -1.8746   -2.1889    1.2630 C   0  0  0  0  0  0  0  0  0  0  0  0
   -3.3036    0.8433   -1.7074 C   0  0  0  0  0  0  0  0  0  0  0  0
   -1.6075    2.4242    0.9398 C   0  0  0  0  0  0  0  0  0  0  0  0
   -0.2725   -3.0701   -0.8440 C   0  0  0  0  0  0  0  0  0  0  0  0
   -5.6747    0.7335   -0.2415 C   0  0  0  0  0  0  0  0  0  0  0  0
   -1.4322   -3.5113    1.2288 C   0  0  0  0  0  0  0  0  0  0  0  0
   -4.5149    1.1747   -2.3145 C   0  0  0  0  0  0  0  0  0  0  0  0
   -0.6312   -3.9519    0.1753 C   0  0  0  0  0  0  0  0  0  0  0  0
   -5.7005    1.1197   -1.5815 C   0  0  0  0  0  0  0  0  0  0  0  0
  1  8  1  0
  1 12  1  0
  2 12  2  0
  3 21  3  0
  4  5  1  0
  4  6  1  0
  4  8  1  0
  5  7  1  0
  6 10  1  0
  7  9  1  0
  9 11  1  0
 12 13  1  0
 13 14  2  3
 13 21  1  0
 14 15  1  0
 14 16  1  0
 15 17  2  0
 15 19  1  0
 16 18  2  0
 16 20  1  0
 17 22  1  0
 18 23  1  0
 19 24  2  0
 20 25  2  0
 22 26  2  0
 23 27  2  0
 24 26  1  0
 25 27  1  0
M  END
>  <PUBCHEM_COMPOUND_CID>  (1) 
22571

>  <PUBCHEM_CONFORMER_RMSD>  (1) 
1

>  <PUBCHEM_CONFORMER_DIVERSEORDER>  (1) 
1
22
51
44
13
48
25
15
16
27
55
6
80
63
74
20
41
37
68
62
9
72
21
8
66
75
70
56
53
83
52
61
39
33
59
50
67
2
40
31
76
29
60
78
19
12
73
82
24
36
47
10
18
54
32
17
26
35
34
84
3
11
30
43
14
38
57
5
23
7
4
46
42
45
65
71
79
28
64
69
77
58
49
81

>  <PUBCHEM_MMFF94_PARTIAL_CHARGES>  (1) 
30
1 -0.43
12 0.71
13 0.08
14 -0.06
15 0.03
16 0.03
17 -0.15
18 -0.15
19 -0.15
2 -0.57
20 -0.15
21 0.49
22 -0.15
23 -0.15
24 -0.15
25 -0.15
26 -0.15
27 -0.15
3 -0.56
45 0.15
46 0.15
47 0.15
48 0.15
49 0.15
50 0.15
51 0.15
52 0.15
53 0.15
54 0.15
8 0.28

>  <PUBCHEM_EFFECTIVE_ROTOR_COUNT>  (1) 
10

>  <PUBCHEM_PHARMACOPHORE_FEATURES>  (1) 
7
1 10 hydrophobe
1 11 hydrophobe
1 2 acceptor
1 3 acceptor
5 4 5 6 7 9 hydrophobe
6 15 17 19 22 24 26 rings
6 16 18 20 23 25 27 rings

>  <PUBCHEM_HEAVY_ATOM_COUNT>  (1) 
27

>  <PUBCHEM_ATOM_DEF_STEREO_COUNT>  (1) 
0

>  <PUBCHEM_ATOM_UDEF_STEREO_COUNT>  (1) 
1

>  <PUBCHEM_BOND_DEF_STEREO_COUNT>  (1) 
0

>  <PUBCHEM_BOND_UDEF_STEREO_COUNT>  (1) 
0

>  <PUBCHEM_ISOTOPIC_ATOM_COUNT>  (1) 
0

>  <PUBCHEM_COMPONENT_COUNT>  (1) 
1

>  <PUBCHEM_CACTVS_TAUTO_COUNT>  (1) 
1

>  <PUBCHEM_CONFORMER_ID>  (1) 
0000582B00000001

>  <PUBCHEM_MMFF94_ENERGY>  (1) 
70.3136

>  <PUBCHEM_FEATURE_SELFOVERLAP>  (1) 
35.524

>  <PUBCHEM_SHAPE_FINGERPRINT>  (1) 
10165383 225 18335139783274927293
10366900 7 17775283872505990256
10369192 42 18187080633831271501
105312 117 18187081745837319855
107951 10 18040996262710250898
11135609 187 18339640040616278025
11315181 36 17774729753147975056
12788726 201 18200871786239516072
12895836 83 18114174259106756037
12895837 130 17459197433641870500
13149001 5 18197483237816616065
13257819 101 17241592958465759439
13257819 37 18334004008747881823
133893 2 17756984515643188699
13540713 4 17983849270689622256
13911987 19 18336255778691838485
14931854 50 17988642952592787116
15163728 17 17605553233104701549
17492 54 17846204541134410071
19958102 18 18339367366660020846
20511986 3 18041268946885009616
20721686 146 16733530617002521733
21639891 77 18192440877312105699
21756936 100 16732699484505754448
23559900 14 18200869703686896640
249057 3 18336547209508567484
266924 87 18196647402810643289
283562 15 18270684160723077177
340366 18 18115029713671439476
4015057 19 17346028008550569600
4409770 3 18339083799306905587
44802255 64 17967250901502110822
57527295 17 17489304140362993971
57527585 21 17682077086409017805
58260988 521 18189351194299547411
59755656 520 18260820514397131006

>  <PUBCHEM_SHAPE_MULTIPOLES>  (1) 
538.93
14.66
3.47
1.81
29.75
3.56
0.01
-9.86
7.88
-2.6
-0.73
-1.12
-0.4
0.96

>  <PUBCHEM_SHAPE_SELFOVERLAP>  (1) 
1116.959

>  <PUBCHEM_SHAPE_VOLUME>  (1) 
305.4

>  <PUBCHEM_COORDINATE_TYPE>  (1) 
2
5
10

$$$$
