22577
     RDKit          3D

 17 16  0  0  0  0  0  0  0  0999 V2000
   -0.8851    2.2351    1.0822 Cl  0  0  0  0  0  0  0  0  0  0  0  0
   -3.0184   -2.2075    0.5798 Cl  0  0  0  0  0  0  0  0  0  0  0  0
    0.2414    1.4475   -1.0705 F   0  0  0  0  0  0  0  0  0  0  0  0
   -1.8924    1.7827   -1.2251 F   0  0  0  0  0  0  0  0  0  0  0  0
   -3.5457    0.1315   -0.2970 F   0  0  0  0  0  0  0  0  0  0  0  0
   -2.6496    0.0685    1.6834 F   0  0  0  0  0  0  0  0  0  0  0  0
   -1.2172   -0.8268   -1.4984 O   0  0  0  0  0  0  0  0  0  0  0  0
    1.5474   -1.4022   -1.0528 O   0  0  0  0  0  0  0  0  0  0  0  0
    4.0581   -0.5536   -0.8329 O   0  0  0  0  0  0  0  0  0  0  0  0
   -1.1947   -0.2391   -0.1879 C   0  0  0  0  0  0  0  0  0  0  0  0
   -0.0879   -0.9323    0.6428 C   0  0  0  0  0  0  0  0  0  0  0  0
   -0.9326    1.2693   -0.4080 C   0  0  0  0  0  0  0  0  0  0  0  0
   -2.5874   -0.4839    0.4449 C   0  0  0  0  0  0  0  0  0  0  0  0
    1.3051   -0.8673    0.0280 C   0  0  0  0  0  0  0  0  0  0  0  0
    2.3565   -0.1299    0.8344 C   0  0  0  0  0  0  0  0  0  0  0  0
    3.7438   -0.0293    0.2339 C   0  0  0  0  0  0  0  0  0  0  0  0
    4.7589    0.7373    1.0431 C   0  0  0  0  0  0  0  0  0  0  0  0
  1 12  1  0
  2 13  1  0
  3 12  1  0
  4 12  1  0
  5 13  1  0
  6 13  1  0
  7 10  1  0
  8 14  2  0
  9 16  2  0
 10 11  1  0
 10 12  1  0
 10 13  1  0
 11 14  1  0
 14 15  1  0
 15 16  1  0
 16 17  1  0
M  END
>  <PUBCHEM_COMPOUND_CID>  (1) 
22577

>  <PUBCHEM_CONFORMER_RMSD>  (1) 
0.8

>  <PUBCHEM_CONFORMER_DIVERSEORDER>  (1) 
1
68
106
90
140
6
173
294
260
218
248
274
269
121
169
32
239
46
126
202
293
241
279
131
275
230
178
118
138
122
26
34
262
288
154
176
166
198
258
180
305
297
170
213
55
184
209
96
199
124
165
145
50
267
72
192
196
51
207
188
252
211
87
12
263
104
79
129
286
130
88
205
295
292
168
222
163
299
226
143
245
214
44
48
215
95
146
191
271
98
304
67
268
49
283
47
302
93
193
300
152
111
201
60
141
174
81
303
125
22
251
156
132
147
100
266
195
139
59
14
243
284
115
162
109
73
117
28
256
182
179
282
142
17
53
116
83
259
177
265
280
227
8
208
190
233
35
133
296
4
137
24
64
206
94
120
272
61
39
172
136
278
9
112
183
153
54
89
257
99
221
225
127
86
289
224
159
91
204
194
144
18
63
97
212
238
66
103
186
232
31
151
287
281
150
276
185
270
134
76
246
78
217
41
56
187
128
298
70
189
40
301
16
175
114
290
27
45
10
52
171
291
75
20
200
57
38
264
62
92
161
164
247
37
80
237
43
285
235
107
261
228
210
242
231
13
167
148
119
65
254
21
244
197
2
219
216
36
102
229
234
240
157
203
110
149
71
74
29
250
42
158
236
77
253
58
33
5
69
255
85
277
25
273
30
220
160
82
84
105
249
15
135
23
11
108
123
7
181
113
3
155
101
223
19

>  <PUBCHEM_MMFF94_PARTIAL_CHARGES>  (1) 
18
1 -0.29
10 0.28
11 0.06
12 0.97
13 0.97
14 0.45
15 0.12
16 0.45
17 0.06
2 -0.29
22 0.4
3 -0.34
4 -0.34
5 -0.34
6 -0.34
7 -0.68
8 -0.57
9 -0.57

>  <PUBCHEM_EFFECTIVE_ROTOR_COUNT>  (1) 
6

>  <PUBCHEM_PHARMACOPHORE_FEATURES>  (1) 
5
1 15 anion
1 7 acceptor
1 7 donor
1 8 acceptor
1 9 acceptor

>  <PUBCHEM_HEAVY_ATOM_COUNT>  (1) 
17

>  <PUBCHEM_ATOM_DEF_STEREO_COUNT>  (1) 
0

>  <PUBCHEM_ATOM_UDEF_STEREO_COUNT>  (1) 
0

>  <PUBCHEM_BOND_DEF_STEREO_COUNT>  (1) 
0

>  <PUBCHEM_BOND_UDEF_STEREO_COUNT>  (1) 
0

>  <PUBCHEM_ISOTOPIC_ATOM_COUNT>  (1) 
0

>  <PUBCHEM_COMPONENT_COUNT>  (1) 
1

>  <PUBCHEM_CACTVS_TAUTO_COUNT>  (1) 
8

>  <PUBCHEM_CONFORMER_ID>  (1) 
0000583100000001

>  <PUBCHEM_MMFF94_ENERGY>  (1) 
25.6728

>  <PUBCHEM_FEATURE_SELFOVERLAP>  (1) 
25.383

>  <PUBCHEM_SHAPE_FINGERPRINT>  (1) 
10726558 24 10087382022288848747
10922049 32 10087650307790095915
11132069 177 18410013260233825346
12173636 292 16702299057507816926
12592029 89 11383845878019168013
12932764 1 18272923904573786698
13024252 1 17167860842462246315
13214271 11 18412821417083857047
13296909 8 17458898254477311526
13764800 53 18268711610596904440
14289901 80 17967533463279393154
14614273 12 18041836186635137543
15219456 202 18270398279035619142
15309172 13 17846779602668934150
15775835 57 17418091044612351278
16945 1 18114187402234078991
17844478 74 18201443570982512010
18175812 5 18272371992237858238
18186145 218 17346877850030137646
200 152 16298381383649131714
20510252 161 18410853252852705568
20525323 117 18339358569786315377
21061003 4 18131350855652238321
21524375 3 17406828484520736225
22802520 49 17985835822229291790
2306618 200 18261385603360108680
23402539 116 18260539056958835802
23419403 2 18048292712435347677
23532345 42 18262519315981059762
23557571 272 18338812155573372758
23559900 14 18261675866346490950
2748010 2 17827929425188235295
74978 22 11527654298272379402
81228 2 18116169782885906939

>  <PUBCHEM_SHAPE_MULTIPOLES>  (1) 
306.89
6.83
1.94
1.29
7.19
0.56
-0.05
-1
1.43
-1.31
0.08
-0.24
0.17
0.71

>  <PUBCHEM_SHAPE_SELFOVERLAP>  (1) 
597.012

>  <PUBCHEM_SHAPE_VOLUME>  (1) 
187.4

>  <PUBCHEM_COORDINATE_TYPE>  (1) 
2
5
10

$$$$
