22573
     RDKit          3D

 15 15  0  0  0  0  0  0  0  0999 V2000
    2.7968    0.4406    0.0443 S   0  0  0  0  0  0  0  0  0  0  0  0
   -2.8363   -1.3165    0.0170 O   0  0  0  0  0  0  0  0  0  0  0  0
    3.2262    0.5334   -1.5304 O   0  0  0  0  0  0  0  0  0  0  0  0
    2.8427    1.7945    0.5774 O   0  0  0  0  0  0  0  0  0  0  0  0
    3.5701   -0.6259    0.6612 O   0  0  0  0  0  0  0  0  0  0  0  0
   -1.9119    2.6162    0.5648 O   0  0  0  0  0  0  0  0  0  0  0  0
   -3.3931    1.3048   -0.5546 O   0  0  0  0  0  0  0  0  0  0  0  0
   -0.8025   -3.2358    0.0852 N   0  0  0  0  0  0  0  0  0  0  0  0
    1.1298   -0.0791    0.0353 C   0  0  0  0  0  0  0  0  0  0  0  0
   -1.2271    0.4507   -0.0041 C   0  0  0  0  0  0  0  0  0  0  0  0
    0.1044    0.8660    0.0017 C   0  0  0  0  0  0  0  0  0  0  0  0
    0.8235   -1.4398    0.0630 C   0  0  0  0  0  0  0  0  0  0  0  0
   -0.5081   -1.8550    0.0571 C   0  0  0  0  0  0  0  0  0  0  0  0
   -1.5334   -0.9098    0.0236 C   0  0  0  0  0  0  0  0  0  0  0  0
   -2.2811    1.4557   -0.0414 C   0  0  0  0  0  0  0  0  0  0  0  0
  1  3  1  0
  1  4  2  0
  1  5  2  0
  1  9  1  0
  2 14  1  0
  6 15  1  0
  7 15  2  0
  8 13  1  0
  9 11  2  0
  9 12  1  0
 10 11  1  0
 10 14  2  0
 10 15  1  0
 12 13  2  0
 13 14  1  0
M  END
>  <PUBCHEM_COMPOUND_CID>  (1) 
22573

>  <PUBCHEM_CONFORMER_RMSD>  (1) 
0.6

>  <PUBCHEM_CONFORMER_DIVERSEORDER>  (1) 
1
2

>  <PUBCHEM_MMFF94_PARTIAL_CHARGES>  (1) 
22
1 1.49
10 0.09
11 -0.15
12 -0.15
13 0.1
14 0.08
15 0.63
16 0.15
17 0.15
18 0.4
19 0.4
2 -0.53
20 0.45
21 0.5
22 0.5
3 -0.68
4 -0.65
5 -0.65
6 -0.65
7 -0.57
8 -0.9
9 -0.01

>  <PUBCHEM_EFFECTIVE_ROTOR_COUNT>  (1) 
2

>  <PUBCHEM_PHARMACOPHORE_FEATURES>  (1) 
11
1 2 donor
1 3 acceptor
1 4 acceptor
1 5 acceptor
1 6 acceptor
1 7 acceptor
1 8 cation
1 8 donor
3 6 7 15 anion
4 1 3 4 5 anion
6 9 10 11 12 13 14 rings

>  <PUBCHEM_HEAVY_ATOM_COUNT>  (1) 
15

>  <PUBCHEM_ATOM_DEF_STEREO_COUNT>  (1) 
0

>  <PUBCHEM_ATOM_UDEF_STEREO_COUNT>  (1) 
0

>  <PUBCHEM_BOND_DEF_STEREO_COUNT>  (1) 
0

>  <PUBCHEM_BOND_UDEF_STEREO_COUNT>  (1) 
0

>  <PUBCHEM_ISOTOPIC_ATOM_COUNT>  (1) 
0

>  <PUBCHEM_COMPONENT_COUNT>  (1) 
1

>  <PUBCHEM_CACTVS_TAUTO_COUNT>  (1) 
7

>  <PUBCHEM_CONFORMER_ID>  (1) 
0000582D00000001

>  <PUBCHEM_MMFF94_ENERGY>  (1) 
44.2693

>  <PUBCHEM_FEATURE_SELFOVERLAP>  (1) 
55.939

>  <PUBCHEM_SHAPE_FINGERPRINT>  (1) 
1 1 18193553355045188775
10608611 8 18270396213109039432
10967382 1 18122904231128391611
11206711 2 18411134779353095615
12491281 212 18335991878199057056
12716758 59 18413395340852617550
13140716 1 18265334997503011707
13380535 21 18267598926425484307
13380535 76 18337947870851509963
14325111 11 18410008845018098384
14614273 12 18188763947304370389
14897335 6 18337945676122968399
15669948 3 18337111297258790750
15775835 57 18259989249615720876
16945 1 18337956821368208450
18186145 218 18130514067258477840
193761 8 18194965136945249091
20510252 161 18342740762116644225
20645476 183 18041573506598994038
20871998 184 18127697247190787479
21501502 16 18336544928242415330
21524375 3 18262797350477911203
22802520 49 18059027102617447748
2334 1 18409732837376590883
23402539 116 18270385196280412159
23463225 33 18188767245659911866
23557571 272 18127134293364229460
23559900 14 18271533018770932838
2748010 2 18337681814770559743
305870 269 18049439249332642552
3071541 12 17836086667304822955
3071541 236 18262507191040567363
53812653 8 18262529189762804566
6333449 129 18411697703352213353
7364860 26 17908982102156752311
74978 22 18410293631725843580
81228 2 18193278717730227451

>  <PUBCHEM_SHAPE_MULTIPOLES>  (1) 
272.35
5.11
2.67
0.78
2.29
1
0.17
-2.07
0.37
-1.59
-0.31
0.46
-0.15
-0.06

>  <PUBCHEM_SHAPE_SELFOVERLAP>  (1) 
567.068

>  <PUBCHEM_SHAPE_VOLUME>  (1) 
155.8

>  <PUBCHEM_COORDINATE_TYPE>  (1) 
2
5
10

$$$$
