2257
     RDKit          3D

 34 36  0  0  0  0  0  0  0  0999 V2000
   -5.6670    1.5556    1.3723 O   0  0  0  0  0  0  0  0  0  0  0  0
    2.0454   -4.5917    1.8911 O   0  0  0  0  0  0  0  0  0  0  0  0
   -4.3513   -0.4859   -1.9264 O   0  0  0  0  0  0  0  0  0  0  0  0
    1.1929   -3.5477   -1.9771 O   0  0  0  0  0  0  0  0  0  0  0  0
    3.0112    4.3465   -1.0982 O   0  0  0  0  0  0  0  0  0  0  0  0
    4.9825    2.8783   -0.3087 O   0  0  0  0  0  0  0  0  0  0  0  0
   -5.8148    1.1993   -1.3352 O   0  0  0  0  0  0  0  0  0  0  0  0
    1.0343   -5.3445   -0.5359 O   0  0  0  0  0  0  0  0  0  0  0  0
    4.6473    0.6288   -0.7744 O   0  0  0  0  0  0  0  0  0  0  0  0
   -5.2397   -0.7050   -3.0146 N   0  0  0  0  0  0  0  0  0  0  0  0
    1.2598   -4.5335   -2.9994 N   0  0  0  0  0  0  0  0  0  0  0  0
    6.3666    2.5835   -0.4475 N   0  0  0  0  0  0  0  0  0  0  0  0
   -0.2196    0.4012    0.7161 C   0  0  0  0  0  0  0  0  0  0  0  0
   -1.6651    0.7048    0.8838 C   0  0  0  0  0  0  0  0  0  0  0  0
    0.3801   -0.9245    1.0211 C   0  0  0  0  0  0  0  0  0  0  0  0
    0.5869    1.3766    0.2660 C   0  0  0  0  0  0  0  0  0  0  0  0
   -2.5195    0.4863   -0.1765 C   0  0  0  0  0  0  0  0  0  0  0  0
    0.4431   -1.8734    0.0223 C   0  0  0  0  0  0  0  0  0  0  0  0
    2.0104    1.1268    0.0869 C   0  0  0  0  0  0  0  0  0  0  0  0
   -2.1043    1.1952    2.0955 C   0  0  0  0  0  0  0  0  0  0  0  0
    0.8543   -1.1617    2.2941 C   0  0  0  0  0  0  0  0  0  0  0  0
    0.0429    2.6881   -0.0447 C   0  0  0  0  0  0  0  0  0  0  0  0
   -3.8757    0.7716   -0.0177 C   0  0  0  0  0  0  0  0  0  0  0  0
    1.0062   -3.1168    0.3099 C   0  0  0  0  0  0  0  0  0  0  0  0
    2.8293    2.0909   -0.3615 C   0  0  0  0  0  0  0  0  0  0  0  0
   -3.4606    1.4804    2.2543 C   0  0  0  0  0  0  0  0  0  0  0  0
    1.4175   -2.4050    2.5816 C   0  0  0  0  0  0  0  0  0  0  0  0
   -4.3462    1.2687    1.1977 C   0  0  0  0  0  0  0  0  0  0  0  0
    1.4934   -3.3826    1.5894 C   0  0  0  0  0  0  0  0  0  0  0  0
    0.8312    3.6725   -0.4938 C   0  0  0  0  0  0  0  0  0  0  0  0
    2.2892    3.4443   -0.6862 C   0  0  0  0  0  0  0  0  0  0  0  0
   -4.7839    0.5448   -1.1334 C   0  0  0  0  0  0  0  0  0  0  0  0
    1.0751   -4.1243   -0.7396 C   0  0  0  0  0  0  0  0  0  0  0  0
    4.2478    1.7524   -0.5114 C   0  0  0  0  0  0  0  0  0  0  0  0
  1 28  1  0
  2 29  1  0
  3 10  1  0
  3 32  1  0
  4 11  1  0
  4 33  1  0
  5 31  2  0
  6 12  1  0
  6 34  1  0
  7 32  2  0
  8 33  2  0
  9 34  2  0
 13 14  1  0
 13 15  1  0
 13 16  2  3
 14 17  2  0
 14 20  1  0
 15 18  2  0
 15 21  1  0
 16 19  1  0
 16 22  1  0
 17 23  1  0
 18 24  1  0
 19 25  2  0
 20 26  2  0
 21 27  2  0
 22 30  2  0
 23 28  2  0
 23 32  1  0
 24 29  2  0
 24 33  1  0
 25 31  1  0
 25 34  1  0
 26 28  1  0
 27 29  1  0
 30 31  1  0
M  CHG  3  10   1  11   1  12   1
M  END
>  <PUBCHEM_COMPOUND_CID>  (1) 
2257

>  <PUBCHEM_CONFORMER_RMSD>  (1) 
1

>  <PUBCHEM_CONFORMER_DIVERSEORDER>  (1) 
1
5
11
2
7
6
3
4
9
8
10

>  <PUBCHEM_MMFF94_PARTIAL_CHARGES>  (1) 
53
1 -0.53
10 -0.6
11 -0.6
12 -0.6
13 -0.06
14 0.03
15 0.03
17 -0.15
18 -0.15
19 -0.15
2 -0.53
20 -0.15
21 -0.15
22 -0.15
23 0.09
24 0.09
25 0.03
26 -0.15
27 -0.15
28 0.08
29 0.08
3 0.1
30 -0.14
31 0.54
32 0.63
33 0.63
34 0.71
35 0.15
36 0.15
37 0.15
38 0.15
39 0.15
4 0.1
40 0.15
41 0.15
42 0.15
43 0.15
44 0.45
45 0.45
46 0.45
47 0.45
48 0.45
49 0.45
5 -0.57
50 0.45
51 0.45
52 0.45
53 0.45
54 0.45
6 0.1
7 -0.57
8 -0.57
9 -0.57

>  <PUBCHEM_EFFECTIVE_ROTOR_COUNT>  (1) 
8

>  <PUBCHEM_PHARMACOPHORE_FEATURES>  (1) 
13
1 1 donor
1 10 donor
1 11 donor
1 12 donor
1 2 donor
1 25 anion
1 5 acceptor
1 7 acceptor
1 8 acceptor
1 9 acceptor
6 14 17 20 23 26 28 rings
6 15 18 21 24 27 29 rings
6 16 19 22 25 30 31 rings

>  <PUBCHEM_HEAVY_ATOM_COUNT>  (1) 
34

>  <PUBCHEM_ATOM_DEF_STEREO_COUNT>  (1) 
0

>  <PUBCHEM_ATOM_UDEF_STEREO_COUNT>  (1) 
0

>  <PUBCHEM_BOND_DEF_STEREO_COUNT>  (1) 
0

>  <PUBCHEM_BOND_UDEF_STEREO_COUNT>  (1) 
0

>  <PUBCHEM_ISOTOPIC_ATOM_COUNT>  (1) 
0

>  <PUBCHEM_COMPONENT_COUNT>  (1) 
1

>  <PUBCHEM_CACTVS_TAUTO_COUNT>  (1) 
9

>  <PUBCHEM_CONFORMER_ID>  (1) 
000008D100000001

>  <PUBCHEM_MMFF94_ENERGY>  (1) 
124.1715

>  <PUBCHEM_FEATURE_SELFOVERLAP>  (1) 
65.974

>  <PUBCHEM_SHAPE_FINGERPRINT>  (1) 
10764073 3 14563902830230382408
11049842 53 16052123550007824801
11421498 54 18060151916109061945
11477941 20 17332268402635533270
11488393 25 18189893115359506744
11513181 2 18265888056648228669
11578080 2 16588872252712640767
11763715 3 17105946015489493858
11991303 11 17900551373602021332
12160290 23 17617376624781789105
12553582 1 17759816844796197523
12788726 201 17617936280658811474
133893 2 18264212422106487193
1361 2 18342748377826993406
13690498 29 17256842377579668580
13911987 19 18187085108612654900
15484559 13 18334003995546325830
15664445 248 18194689155115600498
15815584 197 17822298946074359896
15876981 60 16742837781259053842
17138139 8 17770759506474477535
1813 80 17907581324701688283
20028762 73 18124619684411908355
20101258 96 17542230060252398442
20505436 4 17845116025034693217
20587220 46 17120789675888159661
21033648 29 17823975843062867965
21033650 10 17056444069435667864
21133665 82 18335432262332461964
21304303 282 17180775950470370896
22121540 332 16734079324802561452
24893989 43 15735633568531970572
283562 15 16535121935263179512
38695281 34 18410013268644515696
4017518 198 18201454592775923062
44802255 64 17386864970487276028
46194498 28 18044352965237008285
474144 1 18126536064644638399
504843 32 17897170332312748882
5223283 242 17468161498983065813
57527358 35 15479597975938038306
6669772 16 18334863827167785162
6691757 9 18199758119080131440

>  <PUBCHEM_SHAPE_MULTIPOLES>  (1) 
631.94
9.84
6.7
2.42
7.89
6.94
-0.4
-9.13
-3.81
-9.79
-2.14
1.96
2.41
-2.18

>  <PUBCHEM_SHAPE_SELFOVERLAP>  (1) 
1393.594

>  <PUBCHEM_SHAPE_VOLUME>  (1) 
339.6

>  <PUBCHEM_COORDINATE_TYPE>  (1) 
2
5
10

$$$$
