2258
     RDKit          3D

 34 36  0  0  0  0  0  0  0  0999 V2000
   -5.6677    1.5544    1.3733 O   0  0  0  0  0  0  0  0  0  0  0  0
    2.0486   -4.5879    1.8951 O   0  0  0  0  0  0  0  0  0  0  0  0
    3.0083    4.3485   -1.1015 O   0  0  0  0  0  0  0  0  0  0  0  0
   -4.3503   -0.4895   -1.9211 O   0  0  0  0  0  0  0  0  0  0  0  0
    1.1959   -3.5452   -1.9715 O   0  0  0  0  0  0  0  0  0  0  0  0
    4.9778    2.8832   -0.3122 O   0  0  0  0  0  0  0  0  0  0  0  0
   -5.8155    1.1983   -1.3308 O   0  0  0  0  0  0  0  0  0  0  0  0
    1.0370   -5.3431   -0.5271 O   0  0  0  0  0  0  0  0  0  0  0  0
    4.6431    0.6300   -0.7754 O   0  0  0  0  0  0  0  0  0  0  0  0
   -5.2639   -0.7095   -3.0314 N   0  0  0  0  0  0  0  0  0  0  0  0
    1.2642   -4.5600   -3.0114 N   0  0  0  0  0  0  0  0  0  0  0  0
    6.3918    2.5741   -0.4558 N   0  0  0  0  0  0  0  0  0  0  0  0
   -0.2197    0.4027    0.7168 C   0  0  0  0  0  0  0  0  0  0  0  0
   -1.6653    0.7055    0.8846 C   0  0  0  0  0  0  0  0  0  0  0  0
    0.3808   -0.9224    1.0227 C   0  0  0  0  0  0  0  0  0  0  0  0
    0.5861    1.3782    0.2657 C   0  0  0  0  0  0  0  0  0  0  0  0
   -2.5199    0.4858   -0.1754 C   0  0  0  0  0  0  0  0  0  0  0  0
    0.4442   -1.8720    0.0245 C   0  0  0  0  0  0  0  0  0  0  0  0
    2.0097    1.1292    0.0865 C   0  0  0  0  0  0  0  0  0  0  0  0
   -2.1045    1.1967    2.0960 C   0  0  0  0  0  0  0  0  0  0  0  0
    0.8555   -1.1583    2.2957 C   0  0  0  0  0  0  0  0  0  0  0  0
    0.0413    2.6891   -0.0459 C   0  0  0  0  0  0  0  0  0  0  0  0
   -3.8762    0.7704   -0.0165 C   0  0  0  0  0  0  0  0  0  0  0  0
    1.0081   -3.1149    0.3130 C   0  0  0  0  0  0  0  0  0  0  0  0
    2.8280    2.0934   -0.3629 C   0  0  0  0  0  0  0  0  0  0  0  0
   -3.4610    1.4812    2.2549 C   0  0  0  0  0  0  0  0  0  0  0  0
    1.4195   -2.4011    2.5841 C   0  0  0  0  0  0  0  0  0  0  0  0
   -4.3467    1.2681    1.1986 C   0  0  0  0  0  0  0  0  0  0  0  0
    1.4958   -3.3794    1.5926 C   0  0  0  0  0  0  0  0  0  0  0  0
    0.8289    3.6737   -0.4960 C   0  0  0  0  0  0  0  0  0  0  0  0
    2.2869    3.4462   -0.6886 C   0  0  0  0  0  0  0  0  0  0  0  0
   -4.7845    0.5421   -1.1318 C   0  0  0  0  0  0  0  0  0  0  0  0
    1.0773   -4.1232   -0.7357 C   0  0  0  0  0  0  0  0  0  0  0  0
    4.2466    1.7556   -0.5130 C   0  0  0  0  0  0  0  0  0  0  0  0
  1 28  1  0
  2 29  1  0
  3 31  2  0
  4 10  1  0
  4 32  1  0
  5 11  1  0
  5 33  1  0
  6 12  1  0
  6 34  1  0
  7 32  2  0
  8 33  2  0
  9 34  2  0
 13 14  1  0
 13 15  1  0
 13 16  2  3
 14 17  2  0
 14 20  1  0
 15 18  2  0
 15 21  1  0
 16 19  1  0
 16 22  1  0
 17 23  1  0
 18 24  1  0
 19 25  2  0
 20 26  2  0
 21 27  2  0
 22 30  2  0
 23 28  2  0
 23 32  1  0
 24 29  2  0
 24 33  1  0
 25 31  1  0
 25 34  1  0
 26 28  1  0
 27 29  1  0
 30 31  1  0
M  END
>  <PUBCHEM_COMPOUND_CID>  (1) 
2258

>  <PUBCHEM_CONFORMER_RMSD>  (1) 
1

>  <PUBCHEM_CONFORMER_DIVERSEORDER>  (1) 
1
6
8
2
11
4
10
5
3
7
9

>  <PUBCHEM_MMFF94_PARTIAL_CHARGES>  (1) 
50
1 -0.53
10 -0.82
11 -0.82
12 -0.82
13 -0.06
14 0.03
15 0.03
17 -0.15
18 -0.15
19 -0.15
2 -0.53
20 -0.15
21 -0.15
22 -0.15
23 0.09
24 0.09
25 0.03
26 -0.15
27 -0.15
28 0.08
29 0.08
3 -0.57
30 -0.14
31 0.54
32 0.63
33 0.63
34 0.71
35 0.15
36 0.15
37 0.15
38 0.15
39 0.15
4 -0.05
40 0.15
41 0.15
42 0.15
43 0.15
44 0.45
45 0.45
46 0.36
47 0.36
48 0.36
49 0.36
5 -0.05
50 0.36
51 0.36
6 -0.05
7 -0.57
8 -0.57
9 -0.57

>  <PUBCHEM_EFFECTIVE_ROTOR_COUNT>  (1) 
8

>  <PUBCHEM_PHARMACOPHORE_FEATURES>  (1) 
10
1 1 donor
1 2 donor
1 25 anion
1 3 acceptor
1 7 acceptor
1 8 acceptor
1 9 acceptor
6 14 17 20 23 26 28 rings
6 15 18 21 24 27 29 rings
6 16 19 22 25 30 31 rings

>  <PUBCHEM_HEAVY_ATOM_COUNT>  (1) 
34

>  <PUBCHEM_ATOM_DEF_STEREO_COUNT>  (1) 
0

>  <PUBCHEM_ATOM_UDEF_STEREO_COUNT>  (1) 
0

>  <PUBCHEM_BOND_DEF_STEREO_COUNT>  (1) 
0

>  <PUBCHEM_BOND_UDEF_STEREO_COUNT>  (1) 
0

>  <PUBCHEM_ISOTOPIC_ATOM_COUNT>  (1) 
0

>  <PUBCHEM_COMPONENT_COUNT>  (1) 
1

>  <PUBCHEM_CACTVS_TAUTO_COUNT>  (1) 
9

>  <PUBCHEM_CONFORMER_ID>  (1) 
000008D200000001

>  <PUBCHEM_MMFF94_ENERGY>  (1) 
116.913

>  <PUBCHEM_FEATURE_SELFOVERLAP>  (1) 
50.747

>  <PUBCHEM_SHAPE_FINGERPRINT>  (1) 
10764073 3 14563902830230388904
11049842 53 16052123550002563049
11421498 54 18059870441137626049
11477941 20 17332267303129180246
11488393 25 18189893115364781504
11513181 2 18265888056648222181
11578080 2 16588872252702091279
11763715 3 17105946015494768610
11991303 11 17900551373602021332
12160290 23 17617096249316706225
12553582 1 17759816844796197531
12788726 201 17545878686615582810
133893 2 18264212422106493697
1361 2 18342748377826986910
13690498 29 17185067358024791332
13911987 19 18187084009148467428
15484559 13 18334003995551607078
15664445 248 18194689155115600498
15815584 197 17822300045596511192
15876981 60 16742556306282336690
17138139 8 17770759506479752287
1813 80 17907581324696420035
20028762 73 18124619684411921347
20101258 96 17542230060252404922
20505436 4 17844834550063257313
20587220 46 17120789675914572405
21033648 29 17823975843057593213
21033650 10 17056162598748649752
21133665 82 18335150787350502516
21304303 282 17180775950470377400
22121540 332 16734079324797293196
24893989 43 15663575974499317388
283562 15 16534840460291743600
38695281 34 18410013268644515696
4017518 198 18201455692282269590
44802255 64 17386863870970392956
46194498 28 18044352965237027765
474144 1 18126536064644638399
504843 32 17897170332312755378
5223283 242 17468161498983078813
57527358 35 15551374094993954938
6669772 16 18334863827162510402
6691757 9 18199759218591759208

>  <PUBCHEM_SHAPE_MULTIPOLES>  (1) 
631.94
9.85
6.71
2.43
7.89
6.96
-0.41
-9.12
-3.84
-9.8
-2.17
1.97
2.42
-2.19

>  <PUBCHEM_SHAPE_SELFOVERLAP>  (1) 
1391.682

>  <PUBCHEM_SHAPE_VOLUME>  (1) 
340

>  <PUBCHEM_COORDINATE_TYPE>  (1) 
2
5
10

$$$$
