22589
     RDKit          3D

 19 18  0  0  0  0  0  0  0  0999 V2000
    6.4931    0.4511   -0.0262 O   0  0  0  0  0  0  0  0  0  0  0  0
    7.9195   -1.3611   -0.0974 O   0  0  0  0  0  0  0  0  0  0  0  0
   -2.2697   -0.4219    0.0964 C   0  0  0  0  0  0  0  0  0  0  0  0
   -3.5754    0.3780    0.1617 C   0  0  0  0  0  0  0  0  0  0  0  0
   -1.0153    0.4552    0.1207 C   0  0  0  0  0  0  0  0  0  0  0  0
   -4.8657   -0.4482    0.1138 C   0  0  0  0  0  0  0  0  0  0  0  0
    0.2571   -0.3942    0.0777 C   0  0  0  0  0  0  0  0  0  0  0  0
   -6.1350    0.4069    0.1235 C   0  0  0  0  0  0  0  0  0  0  0  0
    1.5447    0.4370    0.0869 C   0  0  0  0  0  0  0  0  0  0  0  0
   -7.4215   -0.4162   -0.0032 C   0  0  0  0  0  0  0  0  0  0  0  0
    2.8174   -0.4149    0.1188 C   0  0  0  0  0  0  0  0  0  0  0  0
   -8.7209    0.3912   -0.0921 C   0  0  0  0  0  0  0  0  0  0  0  0
    4.1014    0.4143    0.0578 C   0  0  0  0  0  0  0  0  0  0  0  0
   -9.9764   -0.4791   -0.1637 C   0  0  0  0  0  0  0  0  0  0  0  0
    5.3719   -0.4232    0.0034 C   0  0  0  0  0  0  0  0  0  0  0  0
  -11.2355    0.3690   -0.2579 C   0  0  0  0  0  0  0  0  0  0  0  0
    7.7213   -0.1541   -0.0765 C   0  0  0  0  0  0  0  0  0  0  0  0
    8.7974    0.9059   -0.1033 C   0  0  0  0  0  0  0  0  0  0  0  0
   10.1914    0.3044   -0.1404 C   0  0  0  0  0  0  0  0  0  0  0  0
  1 15  1  0
  1 17  1  0
  2 17  2  0
  3  4  1  0
  3  5  1  0
  4  6  1  0
  5  7  1  0
  6  8  1  0
  7  9  1  0
  8 10  1  0
  9 11  1  0
 10 12  1  0
 11 13  1  0
 12 14  1  0
 13 15  1  0
 14 16  1  0
 17 18  1  0
 18 19  1  0
M  END
>  <PUBCHEM_COMPOUND_CID>  (1) 
22589

>  <PUBCHEM_CONFORMER_RMSD>  (1) 
1.2

>  <PUBCHEM_CONFORMER_DIVERSEORDER>  (1) 
1
81
35
102
97
25
69
72
24
46
37
99
22
58
90
39
31
65
23
10
32
66
93
14
48
34
30
108
70
88
80
2
26
42
21
57
104
95
36
62
41
33
56
49
28
17
78
13
64
103
12
74
4
94
107
20
75
105
38
84
67
96
52
29
7
40
68
47
60
50
79
106
6
71
61
5
54
89
85
55
76
92
91
51
59
83
8
73
86
101
87
77
98
27
63
19
44
9
100
82
18
45
53
16
15
43
11
3

>  <PUBCHEM_MMFF94_PARTIAL_CHARGES>  (1) 
5
1 -0.43
15 0.28
17 0.66
18 0.06
2 -0.57

>  <PUBCHEM_EFFECTIVE_ROTOR_COUNT>  (1) 
15

>  <PUBCHEM_PHARMACOPHORE_FEATURES>  (1) 
3
1 16 hydrophobe
1 19 hydrophobe
1 2 acceptor

>  <PUBCHEM_HEAVY_ATOM_COUNT>  (1) 
19

>  <PUBCHEM_ATOM_DEF_STEREO_COUNT>  (1) 
0

>  <PUBCHEM_ATOM_UDEF_STEREO_COUNT>  (1) 
0

>  <PUBCHEM_BOND_DEF_STEREO_COUNT>  (1) 
0

>  <PUBCHEM_BOND_UDEF_STEREO_COUNT>  (1) 
0

>  <PUBCHEM_ISOTOPIC_ATOM_COUNT>  (1) 
0

>  <PUBCHEM_COMPONENT_COUNT>  (1) 
1

>  <PUBCHEM_CACTVS_TAUTO_COUNT>  (1) 
1

>  <PUBCHEM_CONFORMER_ID>  (1) 
0000583D00000001

>  <PUBCHEM_MMFF94_ENERGY>  (1) 
0.4699

>  <PUBCHEM_FEATURE_SELFOVERLAP>  (1) 
15.223

>  <PUBCHEM_SHAPE_FINGERPRINT>  (1) 
14123256 10 18410575084663078915
14251764 18 17418377974013015666
14251764 46 18411982463852155509
14251920 1 18410855455833194507
15061470 23 18408321082096212541
15510794 2 18410015437619324635
155225 1 18040716973913506756
18335252 98 8718835288153352545
21362267 2 17749943483165291980
21362267 313 17823408310378348368
232437 2 18202563982279872391
23521765 1 18341895194640646163
23581129 1 18409448089539582309
33684 2 18113617884990727961
59521270 166 15051735263105396633
67123 10 18411138043211709575
8209 1 18410575088958046216
9663363 56 16877660171828683108

>  <PUBCHEM_SHAPE_MULTIPOLES>  (1) 
379.27
44.46
0.87
0.62
18.99
0.06
0
-2.31
-4.18
-0.66
-0.01
0.11
-0.01
0.01

>  <PUBCHEM_SHAPE_SELFOVERLAP>  (1) 
687.801

>  <PUBCHEM_SHAPE_VOLUME>  (1) 
242.5

>  <PUBCHEM_COORDINATE_TYPE>  (1) 
2
5
10

$$$$
