22582
     RDKit          3D

 14 14  0  0  0  0  0  0  0  0999 V2000
    2.4616   -0.0031   -0.4109 S   0  0  0  0  0  0  0  0  0  0  0  0
    3.0330    0.0032    1.1258 O   0  0  0  0  0  0  0  0  0  0  0  0
    2.8191   -1.2696   -1.0321 O   0  0  0  0  0  0  0  0  0  0  0  0
    2.8478    1.2608   -1.0230 O   0  0  0  0  0  0  0  0  0  0  0  0
   -4.0709    1.1002    0.2222 O   0  0  0  0  0  0  0  0  0  0  0  0
   -4.0718   -1.0951    0.2306 O   0  0  0  0  0  0  0  0  0  0  0  0
   -3.4659    0.0021    0.1677 N   0  0  0  0  0  0  0  0  0  0  0  0
    0.7238   -0.0015   -0.2406 C   0  0  0  0  0  0  0  0  0  0  0  0
    0.0300    1.2071   -0.1777 C   0  0  0  0  0  0  0  0  0  0  0  0
    0.0290   -1.2090   -0.1682 C   0  0  0  0  0  0  0  0  0  0  0  0
   -2.0528    0.0010    0.0303 C   0  0  0  0  0  0  0  0  0  0  0  0
   -1.3582    1.2083   -0.0421 C   0  0  0  0  0  0  0  0  0  0  0  0
   -1.3593   -1.2077   -0.0327 C   0  0  0  0  0  0  0  0  0  0  0  0
    4.4345    0.0034    1.3507 C   0  0  0  0  0  0  0  0  0  0  0  0
  1  2  1  0
  1  3  2  0
  1  4  2  0
  1  8  1  0
  2 14  1  0
  5  7  1  0
  6  7  2  0
  7 11  1  0
  8  9  2  0
  8 10  1  0
  9 12  1  0
 10 13  2  0
 11 12  2  0
 11 13  1  0
M  CHG  2   5  -1   7   1
M  END
>  <PUBCHEM_COMPOUND_CID>  (1) 
22582

>  <PUBCHEM_CONFORMER_RMSD>  (1) 
0.6

>  <PUBCHEM_CONFORMER_DIVERSEORDER>  (1) 
1

>  <PUBCHEM_MMFF94_PARTIAL_CHARGES>  (1) 
18
1 1.49
10 -0.15
11 0.13
12 -0.15
13 -0.15
14 0.28
15 0.15
16 0.15
17 0.15
18 0.15
2 -0.46
3 -0.65
4 -0.65
5 -0.52
6 -0.52
7 0.91
8 -0.01
9 -0.15

>  <PUBCHEM_EFFECTIVE_ROTOR_COUNT>  (1) 
3

>  <PUBCHEM_PHARMACOPHORE_FEATURES>  (1) 
6
1 3 acceptor
1 4 acceptor
1 5 acceptor
1 5 anion
1 6 acceptor
6 8 9 10 11 12 13 rings

>  <PUBCHEM_HEAVY_ATOM_COUNT>  (1) 
14

>  <PUBCHEM_ATOM_DEF_STEREO_COUNT>  (1) 
0

>  <PUBCHEM_ATOM_UDEF_STEREO_COUNT>  (1) 
0

>  <PUBCHEM_BOND_DEF_STEREO_COUNT>  (1) 
0

>  <PUBCHEM_BOND_UDEF_STEREO_COUNT>  (1) 
0

>  <PUBCHEM_ISOTOPIC_ATOM_COUNT>  (1) 
0

>  <PUBCHEM_COMPONENT_COUNT>  (1) 
1

>  <PUBCHEM_CACTVS_TAUTO_COUNT>  (1) 
1

>  <PUBCHEM_CONFORMER_ID>  (1) 
0000583600000001

>  <PUBCHEM_MMFF94_ENERGY>  (1) 
26.7236

>  <PUBCHEM_FEATURE_SELFOVERLAP>  (1) 
30.546

>  <PUBCHEM_SHAPE_FINGERPRINT>  (1) 
10130415 120 18186801400305008880
11132069 177 18412826863339557289
11401426 45 18341323436284339789
12032990 46 18411430509410884815
12119455 92 17132104737064108276
12251169 10 18334849537642520032
12932764 1 17132116835754944172
13581323 91 18335693940965894760
13675066 3 18342455932717682019
14325111 11 18410301315216465069
15219456 202 17917427588587735006
16945 1 18411140238013851045
17846911 113 18343015584125683601
18186145 218 16630536128159296859
19026448 4 16487262070984640621
19026448 5 16370732525843089527
19422 9 17821730571761716769
200 152 15213013834766325432
20279233 1 17918274263917251694
20510252 161 18201719505230124905
20559304 39 18186520982349013532
20645476 183 17314531385460377214
20645477 70 13912324560272031632
21501925 9 18335978735519821394
23402539 116 18341316851577183765
23402655 69 18268700616593807533
23463225 33 18260547809748399870
23532345 42 18413110579999072246
23559900 14 18341902844610734862
2748010 2 18122348973598508855
42 15 18040990718349810122
449060 50 17489866076661714538
474 4 16880210063731821540
69090 78 17846490435300249567

>  <PUBCHEM_SHAPE_MULTIPOLES>  (1) 
257.64
7.46
1.37
0.95
0.39
0
0.09
-0.02
2.09
0.39
-0.2
-1.17
0
0.01

>  <PUBCHEM_SHAPE_SELFOVERLAP>  (1) 
521.955

>  <PUBCHEM_SHAPE_VOLUME>  (1) 
151.6

>  <PUBCHEM_COORDINATE_TYPE>  (1) 
2
5
10

$$$$
