22597
     RDKit          3D

 15 15  0  0  0  0  0  0  0  0999 V2000
   -0.4024    0.0095    0.9079 O   0  0  0  0  0  0  0  0  0  0  0  0
    0.8461    0.0004    0.2756 N   0  0  0  0  0  0  0  0  0  0  0  0
    1.7775    0.0162    1.1051 N   0  0  0  0  0  0  0  0  0  0  0  0
   -3.9019   -0.0354   -0.4591 C   0  0  0  0  0  0  0  0  0  0  0  0
   -5.2991    0.0056    0.1662 C   0  0  0  0  0  0  0  0  0  0  0  0
   -2.7740    0.0000    0.5711 C   0  0  0  0  0  0  0  0  0  0  0  0
   -6.4279   -0.0548   -0.8637 C   0  0  0  0  0  0  0  0  0  0  0  0
   -1.4059   -0.0094   -0.0980 C   0  0  0  0  0  0  0  0  0  0  0  0
   -7.7913    0.0620   -0.1989 C   0  0  0  0  0  0  0  0  0  0  0  0
    3.0102    0.0084    0.4322 C   0  0  0  0  0  0  0  0  0  0  0  0
    3.6138    1.2125    0.0814 C   0  0  0  0  0  0  0  0  0  0  0  0
    3.6201   -1.2032    0.1199 C   0  0  0  0  0  0  0  0  0  0  0  0
    4.8378    1.2051   -0.5877 C   0  0  0  0  0  0  0  0  0  0  0  0
    4.8441   -1.2105   -0.5491 C   0  0  0  0  0  0  0  0  0  0  0  0
    5.4528   -0.0063   -0.9029 C   0  0  0  0  0  0  0  0  0  0  0  0
  1  2  1  0
  1  8  1  0
  2  3  2  0
  3 10  1  0
  4  5  1  0
  4  6  1  0
  5  7  1  0
  6  8  1  0
  7  9  1  0
 10 11  2  0
 10 12  1  0
 11 13  1  0
 12 14  2  0
 13 15  2  0
 14 15  1  0
M  END
>  <PUBCHEM_COMPOUND_CID>  (1) 
22597

>  <PUBCHEM_CONFORMER_RMSD>  (1) 
0.8

>  <PUBCHEM_CONFORMER_DIVERSEORDER>  (1) 
1
27
53
9
39
50
3
22
45
6
18
26
8
23
42
10
49
58
2
20
57
7
30
13
16
44
15
21
4
52
33
43
5
32
56
60
19
12
17
11
36
14
46
40
29
28
25
54
48
37
34
31
59
24
35
41
55
47
38
51

>  <PUBCHEM_MMFF94_PARTIAL_CHARGES>  (1) 
15
1 -0.22
10 0.18
11 -0.15
12 -0.15
13 -0.15
14 -0.15
15 -0.15
2 -0.06
29 0.15
3 -0.18
30 0.15
31 0.15
32 0.15
33 0.15
8 0.28

>  <PUBCHEM_EFFECTIVE_ROTOR_COUNT>  (1) 
7

>  <PUBCHEM_PHARMACOPHORE_FEATURES>  (1) 
3
1 9 hydrophobe
4 4 5 6 7 hydrophobe
6 10 11 12 13 14 15 rings

>  <PUBCHEM_HEAVY_ATOM_COUNT>  (1) 
15

>  <PUBCHEM_ATOM_DEF_STEREO_COUNT>  (1) 
0

>  <PUBCHEM_ATOM_UDEF_STEREO_COUNT>  (1) 
0

>  <PUBCHEM_BOND_DEF_STEREO_COUNT>  (1) 
0

>  <PUBCHEM_BOND_UDEF_STEREO_COUNT>  (1) 
0

>  <PUBCHEM_ISOTOPIC_ATOM_COUNT>  (1) 
0

>  <PUBCHEM_COMPONENT_COUNT>  (1) 
1

>  <PUBCHEM_CACTVS_TAUTO_COUNT>  (1) 
1

>  <PUBCHEM_CONFORMER_ID>  (1) 
0000584500000001

>  <PUBCHEM_MMFF94_ENERGY>  (1) 
17.5132

>  <PUBCHEM_FEATURE_SELFOVERLAP>  (1) 
15.223

>  <PUBCHEM_SHAPE_FINGERPRINT>  (1) 
10354089 29 11097856294149446790
117890 112 13840261477371316031
125118 31 11241962660516010119
12714333 28 16443063898344866377
12730499 353 17749113274760758786
13167372 99 11674866780549556495
13533116 47 18201719518078213451
13668630 136 17131837568549698967
13836976 161 18273218595312593174
14251752 14 17703790285157764913
14251764 46 18410575084668366663
14933364 13 18260267439316957597
15048467 5 15430036561038401903
15183329 4 17703793600698112769
15348495 7 11527651012859638727
17834072 33 18413669123442661327
17834076 25 15864069871229947979
18222031 100 16200434688554499993
20281389 69 14851598878333267861
20397935 70 9367356941741471160
20645477 70 18338800018512953542
20767249 213 14634869747699316085
21130983 4 15213020445048048221
21150785 3 18202002157180692661
220451 1 18343016693150645727
221357 26 18408039598081219892
23035841 295 17132113555302035951
23402539 116 13183017411453213601
23402655 69 18408891746010694808
2767999 5 14634866457627864431
28498 318 16200435741681356141
29717793 49 17989492909213851756
351380 3 16773794792535148415
42788 4 18334574638281825441
465052 167 16559033808984121884
522135 26 18342458136668836162
5374978 207 8070029965166975870
59755656 215 15769782334175139773
6025842 7 18333732395317029394
6438161 24 18337950087598544938

>  <PUBCHEM_SHAPE_MULTIPOLES>  (1) 
292.86
19.56
1.01
0.92
29.92
0
0
0.1
5.6
-1.73
0.09
-0.17
0
-0.03

>  <PUBCHEM_SHAPE_SELFOVERLAP>  (1) 
574.073

>  <PUBCHEM_SHAPE_VOLUME>  (1) 
176.6

>  <PUBCHEM_COORDINATE_TYPE>  (1) 
2
5
10

$$$$
