226
     RDKit          3D

  4  3  0  0  1  0  0  0  0  0999 V2000
    1.5473    0.5029    0.0992 P   0  0  0  0  0  0  0  0  0  0  0  0
   -1.2328    0.7923    0.1590 O   0  0  0  0  0  0  0  0  0  0  0  0
   -0.1536   -1.3287    0.1227 N   0  0  0  0  0  0  0  0  0  0  0  0
   -0.1609    0.0335   -0.3809 C   0  0  0  0  0  0  0  0  0  0  0  0
  1  4  1  0
  2  4  1  0
  3  4  1  0
M  END
>  <PUBCHEM_COMPOUND_CID>  (1) 
226

>  <PUBCHEM_CONFORMER_RMSD>  (1) 
0.4

>  <PUBCHEM_CONFORMER_DIVERSEORDER>  (1) 
1
2

>  <PUBCHEM_MMFF94_PARTIAL_CHARGES>  (1) 
9
1 -0.36
10 0.4
2 -0.68
3 -0.99
4 0.72
6 0.1
7 0.1
8 0.36
9 0.36

>  <PUBCHEM_EFFECTIVE_ROTOR_COUNT>  (1) 
0

>  <PUBCHEM_PHARMACOPHORE_FEATURES>  (1) 
4
1 2 acceptor
1 2 donor
1 3 cation
1 3 donor

>  <PUBCHEM_HEAVY_ATOM_COUNT>  (1) 
4

>  <PUBCHEM_ATOM_DEF_STEREO_COUNT>  (1) 
0

>  <PUBCHEM_ATOM_UDEF_STEREO_COUNT>  (1) 
1

>  <PUBCHEM_BOND_DEF_STEREO_COUNT>  (1) 
0

>  <PUBCHEM_BOND_UDEF_STEREO_COUNT>  (1) 
0

>  <PUBCHEM_ISOTOPIC_ATOM_COUNT>  (1) 
0

>  <PUBCHEM_COMPONENT_COUNT>  (1) 
1

>  <PUBCHEM_CACTVS_TAUTO_COUNT>  (1) 
1

>  <PUBCHEM_CONFORMER_ID>  (1) 
000000E200000001

>  <PUBCHEM_MMFF94_ENERGY>  (1) 
-0.8034

>  <PUBCHEM_FEATURE_SELFOVERLAP>  (1) 
20.332

>  <PUBCHEM_SHAPE_FINGERPRINT>  (1) 
139733 1 9724595970344611446
20096714 4 18341892952852600328
21015797 1 9151170990909226527
5943 1 17026296692707861726

>  <PUBCHEM_SHAPE_MULTIPOLES>  (1) 
75.32
1.66
1.15
0.64
0.73
0.23
0.03
-0.35
-0.11
-0.35
-0.09
0.05
-0.01
-0.02

>  <PUBCHEM_SHAPE_SELFOVERLAP>  (1) 
116.069

>  <PUBCHEM_SHAPE_VOLUME>  (1) 
55.2

>  <PUBCHEM_COORDINATE_TYPE>  (1) 
2
5
10

$$$$
