22604
     RDKit          3D

 24 26  0  0  0  0  0  0  0  0999 V2000
    5.3546   -2.0097    0.1436 O   0  0  0  0  0  0  0  0  0  0  0  0
    5.5891   -0.0485   -0.8141 O   0  0  0  0  0  0  0  0  0  0  0  0
   -1.3510   -0.6368    1.3945 N   0  0  0  0  0  0  0  0  0  0  0  0
   -3.1159   -2.4017   -1.0851 N   0  0  0  0  0  0  0  0  0  0  0  0
    1.1483    2.1074   -0.5524 N   0  0  0  0  0  0  0  0  0  0  0  0
    4.8863   -0.9063   -0.2271 N   0  0  0  0  0  0  0  0  0  0  0  0
   -3.3724   -1.9845    1.3443 C   0  0  0  0  0  0  0  0  0  0  0  0
   -0.5036    0.2937    0.7343 C   0  0  0  0  0  0  0  0  0  0  0  0
   -2.7711   -0.5801    1.3003 C   0  0  0  0  0  0  0  0  0  0  0  0
   -2.8654   -2.9296    0.2506 C   0  0  0  0  0  0  0  0  0  0  0  0
    0.8377   -0.0306    0.5067 C   0  0  0  0  0  0  0  0  0  0  0  0
   -1.0180    1.5257    0.3180 C   0  0  0  0  0  0  0  0  0  0  0  0
    1.6388    0.9193   -0.1492 C   0  0  0  0  0  0  0  0  0  0  0  0
   -0.1444    2.4147   -0.3306 C   0  0  0  0  0  0  0  0  0  0  0  0
    1.3813   -1.2613    0.9144 C   0  0  0  0  0  0  0  0  0  0  0  0
   -2.3618    1.8778    0.5338 C   0  0  0  0  0  0  0  0  0  0  0  0
    2.9751    0.6023   -0.3788 C   0  0  0  0  0  0  0  0  0  0  0  0
   -0.6507    3.6429   -0.7475 C   0  0  0  0  0  0  0  0  0  0  0  0
    3.5185   -0.6197    0.0250 C   0  0  0  0  0  0  0  0  0  0  0  0
    2.7202   -1.5538    0.6729 C   0  0  0  0  0  0  0  0  0  0  0  0
   -4.5538   -2.2643   -1.3238 C   0  0  0  0  0  0  0  0  0  0  0  0
   -2.5130   -3.2648   -2.1024 C   0  0  0  0  0  0  0  0  0  0  0  0
   -2.8431    3.1119    0.1072 C   0  0  0  0  0  0  0  0  0  0  0  0
   -1.9855    3.9961   -0.5347 C   0  0  0  0  0  0  0  0  0  0  0  0
  1  6  1  0
  2  6  2  0
  3  8  1  0
  3  9  1  0
  4 10  1  0
  4 21  1  0
  4 22  1  0
  5 13  2  0
  5 14  1  0
  6 19  1  0
  7  9  1  0
  7 10  1  0
  8 11  2  0
  8 12  1  0
 11 13  1  0
 11 15  1  0
 12 14  2  0
 12 16  1  0
 13 17  1  0
 14 18  1  0
 15 20  2  0
 16 23  2  0
 17 19  2  0
 18 24  2  0
 19 20  1  0
 23 24  1  0
M  CHG  2   1  -1   6   1
M  END
>  <PUBCHEM_COMPOUND_CID>  (1) 
22604

>  <PUBCHEM_CONFORMER_RMSD>  (1) 
0.8

>  <PUBCHEM_CONFORMER_DIVERSEORDER>  (1) 
1
5
7
4
3
8
6
2
9
10

>  <PUBCHEM_MMFF94_PARTIAL_CHARGES>  (1) 
29
1 -0.52
10 0.27
13 0.31
14 0.31
15 -0.15
16 -0.15
17 -0.15
18 -0.15
19 0.13
2 -0.52
20 -0.15
21 0.27
22 0.27
23 -0.15
24 -0.15
3 -0.87
31 0.4
32 0.15
33 0.15
34 0.15
35 0.15
36 0.15
4 -0.81
43 0.15
44 0.15
5 -0.62
6 0.91
8 0.1
9 0.37

>  <PUBCHEM_EFFECTIVE_ROTOR_COUNT>  (1) 
6

>  <PUBCHEM_PHARMACOPHORE_FEATURES>  (1) 
10
1 1 acceptor
1 1 anion
1 2 acceptor
1 3 cation
1 3 donor
1 4 cation
1 5 acceptor
6 11 13 15 17 19 20 rings
6 12 14 16 18 23 24 rings
6 5 8 11 12 13 14 rings

>  <PUBCHEM_HEAVY_ATOM_COUNT>  (1) 
24

>  <PUBCHEM_ATOM_DEF_STEREO_COUNT>  (1) 
0

>  <PUBCHEM_ATOM_UDEF_STEREO_COUNT>  (1) 
0

>  <PUBCHEM_BOND_DEF_STEREO_COUNT>  (1) 
0

>  <PUBCHEM_BOND_UDEF_STEREO_COUNT>  (1) 
0

>  <PUBCHEM_ISOTOPIC_ATOM_COUNT>  (1) 
0

>  <PUBCHEM_COMPONENT_COUNT>  (1) 
1

>  <PUBCHEM_CACTVS_TAUTO_COUNT>  (1) 
2

>  <PUBCHEM_CONFORMER_ID>  (1) 
0000584C00000001

>  <PUBCHEM_MMFF94_ENERGY>  (1) 
113.203

>  <PUBCHEM_FEATURE_SELFOVERLAP>  (1) 
50.888

>  <PUBCHEM_SHAPE_FINGERPRINT>  (1) 
10411042 1 18189630490920658987
10616163 171 18262246495395086250
10871710 139 18408889507811020491
11552529 35 18059859445741331178
11578080 2 17917416675044656113
12553582 1 18334858371968722963
12788726 201 18264192656820114459
13004483 165 18340757230529703011
13009979 54 17700991091293095827
13140716 1 18189638122993550600
138480 1 15883768351927734233
13911987 19 17105117464589565860
14508225 48 18336823190646950765
14674994 50 17059190670923943151
14790565 3 17614009490956063636
15042514 8 18189348895927515489
15131766 46 15216162875008020710
16087824 20 18261680256373150025
17357779 13 18114739455333224358
17539 30 18410285891952215669
1813 80 18198639897783393087
20028762 73 18197783198839347465
221357 26 18117261748842193879
22620623 9 18341340985352036182
23402539 116 18334862731655829722
23536364 44 18187911881632856127
23559900 14 17976542703108011738
238 59 17038925808457053247
266924 87 18190181389185759044
59025328 239 17696723895313115455
5969126 39 18410851092816354444
6438718 38 18338806602417756811
70251023 43 18338793532621563995
7471813 234 18337388369672327628
9709674 26 18120944906209012236

>  <PUBCHEM_SHAPE_MULTIPOLES>  (1) 
462.25
8.51
4.89
1.33
10.06
3.05
-0.23
-7.62
-1.75
-5.58
-1.78
-1.31
-1.01
-1.19

>  <PUBCHEM_SHAPE_SELFOVERLAP>  (1) 
1004.645

>  <PUBCHEM_SHAPE_VOLUME>  (1) 
253.6

>  <PUBCHEM_COORDINATE_TYPE>  (1) 
2
5
10

$$$$
