22600
     RDKit          3D

 10  9  0  0  0  0  0  0  0  0999 V2000
   -0.8927    1.0108    1.1851 O   0  0  0  0  0  0  0  0  0  0  0  0
    1.3939    0.7955   -0.3687 N   0  0  0  0  0  0  0  0  0  0  0  0
    0.1649    0.2825   -0.7491 N   0  0  0  0  0  0  0  0  0  0  0  0
    2.3871   -0.2683   -0.3137 C   0  0  0  0  0  0  0  0  0  0  0  0
   -2.1914   -0.1907   -0.4720 C   0  0  0  0  0  0  0  0  0  0  0  0
   -0.9215    0.4402    0.0964 C   0  0  0  0  0  0  0  0  0  0  0  0
    2.0051   -1.2950    0.7447 C   0  0  0  0  0  0  0  0  0  0  0  0
    3.7729    0.3073   -0.0497 C   0  0  0  0  0  0  0  0  0  0  0  0
   -2.2840   -1.6558   -0.0502 C   0  0  0  0  0  0  0  0  0  0  0  0
   -3.4344    0.5735   -0.0229 C   0  0  0  0  0  0  0  0  0  0  0  0
  1  6  2  0
  2  3  1  0
  2  4  1  0
  3  6  1  0
  4  7  1  0
  4  8  1  0
  5  6  1  0
  5  9  1  0
  5 10  1  0
M  END
>  <PUBCHEM_COMPOUND_CID>  (1) 
22600

>  <PUBCHEM_CONFORMER_RMSD>  (1) 
0.6

>  <PUBCHEM_CONFORMER_DIVERSEORDER>  (1) 
1
16
13
7
15
4
17
18
12
19
14
10
3
2
6
8
11
9
5

>  <PUBCHEM_MMFF94_PARTIAL_CHARGES>  (1) 
8
1 -0.57
13 0.36
14 0.37
2 -0.64
3 -0.42
4 0.27
5 0.06
6 0.57

>  <PUBCHEM_EFFECTIVE_ROTOR_COUNT>  (1) 
4

>  <PUBCHEM_PHARMACOPHORE_FEATURES>  (1) 
5
1 1 acceptor
1 2 donor
1 3 donor
3 4 7 8 hydrophobe
3 5 9 10 hydrophobe

>  <PUBCHEM_HEAVY_ATOM_COUNT>  (1) 
10

>  <PUBCHEM_ATOM_DEF_STEREO_COUNT>  (1) 
0

>  <PUBCHEM_ATOM_UDEF_STEREO_COUNT>  (1) 
0

>  <PUBCHEM_BOND_DEF_STEREO_COUNT>  (1) 
0

>  <PUBCHEM_BOND_UDEF_STEREO_COUNT>  (1) 
0

>  <PUBCHEM_ISOTOPIC_ATOM_COUNT>  (1) 
0

>  <PUBCHEM_COMPONENT_COUNT>  (1) 
1

>  <PUBCHEM_CACTVS_TAUTO_COUNT>  (1) 
2

>  <PUBCHEM_CONFORMER_ID>  (1) 
0000584800000001

>  <PUBCHEM_MMFF94_ENERGY>  (1) 
5.2766

>  <PUBCHEM_FEATURE_SELFOVERLAP>  (1) 
26.862

>  <PUBCHEM_SHAPE_FINGERPRINT>  (1) 
10857977 72 17060614520922098123
11062470 55 18411136926594228173
12932764 1 18186798075847334597
14325111 11 18335138717263084534
15310529 11 17386000637755888183
15775835 57 18186803569289990510
18342897 55 17241058707462600214
20201158 50 18342175570185207759
21028194 46 10737283541251545685
21293036 1 14057002736766031975
23402539 116 18343293748532143261
23552423 10 18189617318440246685
3248919 1 17988926643450589444
3312278 4 18412546530597469555
75552 356 18343585165577240127

>  <PUBCHEM_SHAPE_MULTIPOLES>  (1) 
189.96
5.86
1.28
0.85
1.62
0.54
-0.13
0.03
0.21
-0.36
-0.15
-0.02
-0.06
-0.37

>  <PUBCHEM_SHAPE_SELFOVERLAP>  (1) 
347.544

>  <PUBCHEM_SHAPE_VOLUME>  (1) 
122.5

>  <PUBCHEM_COORDINATE_TYPE>  (1) 
2
5
10

$$$$
