22607
     RDKit          3D

 24 25  0  0  0  0  0  0  0  0999 V2000
   -4.4263    2.0057   -0.4799 Cl  0  0  0  0  0  0  0  0  0  0  0  0
   -6.6281   -0.2646    0.2069 Cl  0  0  0  0  0  0  0  0  0  0  0  0
    1.6136    1.6362    0.7676 O   0  0  0  0  0  0  0  0  0  0  0  0
    5.6191   -0.8378    0.0370 O   0  0  0  0  0  0  0  0  0  0  0  0
   -0.5191   -2.8129   -0.4744 O   0  0  0  0  0  0  0  0  0  0  0  0
    0.9655    4.7919   -0.8091 O   0  0  0  0  0  0  0  0  0  0  0  0
   -0.3462    3.5154    0.5465 O   0  0  0  0  0  0  0  0  0  0  0  0
    0.0765   -0.6278    0.1386 N   0  0  0  0  0  0  0  0  0  0  0  0
    1.4923   -0.6695    0.1158 C   0  0  0  0  0  0  0  0  0  0  0  0
    2.2228    0.4641    0.4315 C   0  0  0  0  0  0  0  0  0  0  0  0
    2.1158   -1.8587   -0.2251 C   0  0  0  0  0  0  0  0  0  0  0  0
    3.6163    0.4073    0.4052 C   0  0  0  0  0  0  0  0  0  0  0  0
    4.2595   -0.7825    0.0639 C   0  0  0  0  0  0  0  0  0  0  0  0
    3.5091   -1.9154   -0.2513 C   0  0  0  0  0  0  0  0  0  0  0  0
   -2.2396   -1.3024   -0.0630 C   0  0  0  0  0  0  0  0  0  0  0  0
   -0.8316   -1.6572   -0.1454 C   0  0  0  0  0  0  0  0  0  0  0  0
   -2.6409    0.0156   -0.2813 C   0  0  0  0  0  0  0  0  0  0  0  0
   -3.1886   -2.2801    0.2354 C   0  0  0  0  0  0  0  0  0  0  0  0
    1.8849    2.7667   -0.0580 C   0  0  0  0  0  0  0  0  0  0  0  0
   -3.9914    0.3558   -0.2012 C   0  0  0  0  0  0  0  0  0  0  0  0
   -4.5389   -1.9401    0.3154 C   0  0  0  0  0  0  0  0  0  0  0  0
   -4.9403   -0.6222    0.0970 C   0  0  0  0  0  0  0  0  0  0  0  0
    6.2112   -2.0853   -0.3217 C   0  0  0  0  0  0  0  0  0  0  0  0
    0.7044    3.6978   -0.0502 C   0  0  0  0  0  0  0  0  0  0  0  0
  1 20  1  0
  2 22  1  0
  3 10  1  0
  3 19  1  0
  4 13  1  0
  4 23  1  0
  5 16  2  0
  6 24  1  0
  7 24  2  0
  8  9  1  0
  8 16  1  0
  9 10  2  0
  9 11  1  0
 10 12  1  0
 11 14  2  0
 12 13  2  0
 13 14  1  0
 15 16  1  0
 15 17  2  0
 15 18  1  0
 17 20  1  0
 18 21  2  0
 19 24  1  0
 20 22  2  0
 21 22  1  0
M  END
>  <PUBCHEM_COMPOUND_CID>  (1) 
22607

>  <PUBCHEM_CONFORMER_RMSD>  (1) 
0.8

>  <PUBCHEM_CONFORMER_DIVERSEORDER>  (1) 
1
53
45
59
90
75
89
8
58
30
102
38
42
85
98
50
86
81
96
106
49
70
19
65
95
91
47
61
66
60
51
99
108
41
43
103
101
63
55
83
23
79
104
52
67
48
82
77
56
64
68
94
57
37
84
35
22
6
31
33
29
74
110
73
105
72
69
13
88
20
93
34
27
14
112
10
80
100
109
87
5
46
9
76
17
21
111
71
15
78
28
24
92
62
36
54
107
39
25
2
40
26
18
44
12
7
32
4
97
11
16
3

>  <PUBCHEM_MMFF94_PARTIAL_CHARGES>  (1) 
32
1 -0.18
10 0.08
11 -0.15
12 -0.15
13 0.08
14 -0.15
15 0.09
16 0.54
17 -0.15
18 -0.15
19 0.34
2 -0.18
20 0.18
21 -0.15
22 0.18
23 0.28
24 0.66
25 0.15
26 0.37
27 0.15
28 0.15
29 0.15
3 -0.36
30 0.15
33 0.15
37 0.5
4 -0.36
5 -0.57
6 -0.65
7 -0.57
8 -0.55
9 0.12

>  <PUBCHEM_EFFECTIVE_ROTOR_COUNT>  (1) 
7

>  <PUBCHEM_PHARMACOPHORE_FEATURES>  (1) 
9
1 3 acceptor
1 4 acceptor
1 5 acceptor
1 6 acceptor
1 7 acceptor
1 8 donor
3 6 7 24 anion
6 15 17 18 20 21 22 rings
6 9 10 11 12 13 14 rings

>  <PUBCHEM_HEAVY_ATOM_COUNT>  (1) 
24

>  <PUBCHEM_ATOM_DEF_STEREO_COUNT>  (1) 
0

>  <PUBCHEM_ATOM_UDEF_STEREO_COUNT>  (1) 
0

>  <PUBCHEM_BOND_DEF_STEREO_COUNT>  (1) 
0

>  <PUBCHEM_BOND_UDEF_STEREO_COUNT>  (1) 
0

>  <PUBCHEM_ISOTOPIC_ATOM_COUNT>  (1) 
0

>  <PUBCHEM_COMPONENT_COUNT>  (1) 
1

>  <PUBCHEM_CACTVS_TAUTO_COUNT>  (1) 
2

>  <PUBCHEM_CONFORMER_ID>  (1) 
0000584F00000001

>  <PUBCHEM_MMFF94_ENERGY>  (1) 
82.5381

>  <PUBCHEM_FEATURE_SELFOVERLAP>  (1) 
45.735

>  <PUBCHEM_SHAPE_FINGERPRINT>  (1) 
10074138 170 15954105253487684323
10366900 7 17531242877069598731
10688039 33 18261675874540630772
10763959 59 18334004000495460213
11045977 3 18113621235630124403
12166972 35 18201719582897810201
12293681 4 18260838080971341602
12645989 146 18342736329943055727
12788726 201 18117275861798435842
13402501 40 18410852123355453813
13590594 115 18408893914247110408
138480 1 18338516455628379040
14028597 1 17604978248926931650
14341114 176 18411422842915217643
14466204 15 18337104579661005611
14790565 3 17761211416504138276
14866123 147 17113253339307380058
15081414 286 18339921623331245912
15196674 1 18411698811332313586
16087824 20 18194403295273251333
17492 89 18122625217511618915
18336668 15 18113905935293896229
18681886 176 18341606049037702059
20286276 3 18049165767285567986
21033648 29 17845918685048594403
21065198 57 18337953518929053451
21133410 127 17680135563744867893
21267235 1 18412551993764572298
21279426 13 18195528077923822231
21285901 2 17987810592463322630
21315763 129 18411981386601770047
21641784 216 18190480298230842108
21709351 56 18341041995704765383
221357 26 18409726257866196357
23402539 116 18272926094521843726
23558518 356 17834943544996575906
23559900 14 18339918329117281627
3004659 81 18260269621356003422
3103668 31 18118686517510112700
335352 9 18412826888914637351
340366 18 18130508633951067918
345986 75 17461693161685883210
350125 39 18410015468179292311
3545911 37 18413389817604348347
4214541 1 18411136927027030603
5104073 3 18340203102122928810
59755656 215 18338517422038270950
6086070 43 18044626833579009775
9709674 26 18192430994561033539
9971528 1 18342450487179062386
9981440 41 17257084299537756152

>  <PUBCHEM_SHAPE_MULTIPOLES>  (1) 
463.32
12.85
4.42
0.71
3.06
6.41
0
-6.92
0.03
-1.59
0.57
0.01
0.12
0.65

>  <PUBCHEM_SHAPE_SELFOVERLAP>  (1) 
970.403

>  <PUBCHEM_SHAPE_VOLUME>  (1) 
263.6

>  <PUBCHEM_COORDINATE_TYPE>  (1) 
2
5
10

$$$$
