22615
     RDKit          3D

  6  6  0  0  0  0  0  0  0  0999 V2000
    0.5488   -0.0278    1.0390 O   0  0  0  0  0  0  0  0  0  0  0  0
   -0.4049    0.0011   -0.0474 C   0  0  0  0  0  0  0  0  0  0  0  0
    0.7062   -0.0589   -1.0894 C   0  0  0  0  0  0  0  0  0  0  0  0
    1.6515    0.0099    0.1047 C   0  0  0  0  0  0  0  0  0  0  0  0
   -1.3051   -1.2092    0.0110 C   0  0  0  0  0  0  0  0  0  0  0  0
   -1.1965    1.2848   -0.0179 C   0  0  0  0  0  0  0  0  0  0  0  0
  1  2  1  0
  1  4  1  0
  2  3  1  0
  2  5  1  0
  2  6  1  0
  3  4  1  0
M  END
>  <PUBCHEM_COMPOUND_CID>  (1) 
22615

>  <PUBCHEM_CONFORMER_RMSD>  (1) 
0.4

>  <PUBCHEM_CONFORMER_DIVERSEORDER>  (1) 
1

>  <PUBCHEM_MMFF94_PARTIAL_CHARGES>  (1) 
3
1 -0.52
2 0.26
4 0.26

>  <PUBCHEM_EFFECTIVE_ROTOR_COUNT>  (1) 
0.8

>  <PUBCHEM_PHARMACOPHORE_FEATURES>  (1) 
3
1 1 acceptor
3 2 5 6 hydrophobe
4 1 2 3 4 rings

>  <PUBCHEM_HEAVY_ATOM_COUNT>  (1) 
6

>  <PUBCHEM_ATOM_DEF_STEREO_COUNT>  (1) 
0

>  <PUBCHEM_ATOM_UDEF_STEREO_COUNT>  (1) 
0

>  <PUBCHEM_BOND_DEF_STEREO_COUNT>  (1) 
0

>  <PUBCHEM_BOND_UDEF_STEREO_COUNT>  (1) 
0

>  <PUBCHEM_ISOTOPIC_ATOM_COUNT>  (1) 
0

>  <PUBCHEM_COMPONENT_COUNT>  (1) 
1

>  <PUBCHEM_CACTVS_TAUTO_COUNT>  (1) 
1

>  <PUBCHEM_CONFORMER_ID>  (1) 
0000585700000001

>  <PUBCHEM_MMFF94_ENERGY>  (1) 
10.574

>  <PUBCHEM_FEATURE_SELFOVERLAP>  (1) 
15.223

>  <PUBCHEM_SHAPE_FINGERPRINT>  (1) 
20096714 4 17750249018627050908
21015797 1 14117532990679136822
21040471 1 18194124010312357277
29004967 10 18050577531609262907
5943 1 11973606486091093581

>  <PUBCHEM_SHAPE_MULTIPOLES>  (1) 
117.61
1.78
1.15
0.94
0.24
0.06
-0.06
-0.04
0.03
-0.67
-0.02
0.23
-0.02
0.02

>  <PUBCHEM_SHAPE_SELFOVERLAP>  (1) 
225.607

>  <PUBCHEM_SHAPE_VOLUME>  (1) 
75.3

>  <PUBCHEM_COORDINATE_TYPE>  (1) 
2
5
10

$$$$
