22619
     RDKit          3D

 17 17  0  0  1  0  0  0  0  0999 V2000
   -0.6210   -0.7889   -0.5063 N   0  0  0  0  0  0  0  0  0  0  0  0
    2.9590    0.1398   -0.1684 N   0  0  0  0  0  0  0  0  0  0  0  0
    0.6872   -0.3619   -0.9419 C   0  0  0  0  0  0  0  0  0  0  0  0
    1.6201   -0.2654    0.2584 C   0  0  0  0  0  0  0  0  0  0  0  0
   -0.9164   -2.2225   -0.4786 C   0  0  0  0  0  0  0  0  0  0  0  0
   -1.5949    0.1351   -0.1025 C   0  0  0  0  0  0  0  0  0  0  0  0
    3.8657    0.1954    0.9776 C   0  0  0  0  0  0  0  0  0  0  0  0
    2.9095    1.4356   -0.8446 C   0  0  0  0  0  0  0  0  0  0  0  0
   -2.0885   -2.5391   -1.4032 C   0  0  0  0  0  0  0  0  0  0  0  0
   -1.2173   -2.6514    0.9540 C   0  0  0  0  0  0  0  0  0  0  0  0
    3.9294   -1.1435    1.6927 C   0  0  0  0  0  0  0  0  0  0  0  0
    4.2831    1.8442   -1.3492 C   0  0  0  0  0  0  0  0  0  0  0  0
   -2.4878    0.6735   -1.0356 C   0  0  0  0  0  0  0  0  0  0  0  0
   -1.6826    0.5278    1.2377 C   0  0  0  0  0  0  0  0  0  0  0  0
   -3.4563    1.5933   -0.6336 C   0  0  0  0  0  0  0  0  0  0  0  0
   -2.6512    1.4476    1.6395 C   0  0  0  0  0  0  0  0  0  0  0  0
   -3.5380    1.9803    0.7039 C   0  0  0  0  0  0  0  0  0  0  0  0
  1  3  1  0
  1  5  1  0
  1  6  1  0
  2  4  1  0
  2  7  1  0
  2  8  1  0
  3  4  1  0
  5  9  1  0
  5 10  1  0
  6 13  2  0
  6 14  1  0
  7 11  1  0
  8 12  1  0
 13 15  1  0
 14 16  2  0
 15 17  2  0
 16 17  1  0
M  END
>  <PUBCHEM_COMPOUND_CID>  (1) 
22619

>  <PUBCHEM_CONFORMER_RMSD>  (1) 
0.8

>  <PUBCHEM_CONFORMER_DIVERSEORDER>  (1) 
1
52
34
32
30
46
51
9
12
17
41
40
26
42
48
53
45
50
27
47
43
18
28
37
13
35
25
16
49
39
11
6
29
8
7
5
21
44
36
19
2
38
31
20
24
15
4
23
33
3
14
22
10

>  <PUBCHEM_MMFF94_PARTIAL_CHARGES>  (1) 
18
1 -0.84
13 -0.15
14 -0.15
15 -0.15
16 -0.15
17 -0.15
2 -0.81
3 0.37
39 0.15
4 0.27
40 0.15
41 0.15
42 0.15
43 0.15
5 0.37
6 0.1
7 0.27
8 0.27

>  <PUBCHEM_EFFECTIVE_ROTOR_COUNT>  (1) 
7

>  <PUBCHEM_PHARMACOPHORE_FEATURES>  (1) 
4
1 1 cation
1 2 cation
3 5 9 10 hydrophobe
6 6 13 14 15 16 17 rings

>  <PUBCHEM_HEAVY_ATOM_COUNT>  (1) 
17

>  <PUBCHEM_ATOM_DEF_STEREO_COUNT>  (1) 
0

>  <PUBCHEM_ATOM_UDEF_STEREO_COUNT>  (1) 
0

>  <PUBCHEM_BOND_DEF_STEREO_COUNT>  (1) 
0

>  <PUBCHEM_BOND_UDEF_STEREO_COUNT>  (1) 
0

>  <PUBCHEM_ISOTOPIC_ATOM_COUNT>  (1) 
0

>  <PUBCHEM_COMPONENT_COUNT>  (1) 
1

>  <PUBCHEM_CACTVS_TAUTO_COUNT>  (1) 
1

>  <PUBCHEM_CONFORMER_ID>  (1) 
0000585B00000001

>  <PUBCHEM_MMFF94_ENERGY>  (1) 
55.0164

>  <PUBCHEM_FEATURE_SELFOVERLAP>  (1) 
20.297

>  <PUBCHEM_SHAPE_FINGERPRINT>  (1) 
11640471 11 18409444765345717128
11725454 13 16806986776972679573
12119455 92 18042394743148433325
12592029 89 18116428155349765579
12788726 201 18196087961455301127
12892183 10 16950861235894116561
13583140 156 17603874415760584921
13764800 53 18059307542264453362
14123260 362 18343589546533773692
15342168 16 18339656533617878845
15842332 3 18261667181880069518
16752209 62 18200024178849439206
1741750 31 18273215287506961470
18186145 218 18057332686353006669
18222031 100 12036032195493944337
19765921 60 17915738678893315281
204376 136 18338524049530919809
20510252 161 18198908200032031543
20645476 183 18410862070151629532
21339142 149 17560791139590160983
21524375 3 18341328882054957651
22079108 93 17845943953010836705
22907989 373 18058172915158372869
23419403 2 15982263110893835883
23557571 272 16844999238427164204
23558518 356 18411978040247818375
23559900 14 17775566412882561782
23598288 3 18339644563259090902
23598291 2 18261106409506715950
3071541 236 18342734126534758739
312423 11 18260548978496787430
4340502 62 18266188228118264417
474 4 18197788704195590969
5706482 22 18339916035462392051
6049 1 16844458296329240160
6992083 37 18333723607354434316
7615 1 18262224638485754326
81228 2 18268719492162650671
88987 49 18130505318678919766
9981440 41 17560500864199633026

>  <PUBCHEM_SHAPE_MULTIPOLES>  (1) 
339.89
7.69
2.74
1.63
7.05
1.48
-0.29
-4.45
-0.71
-1.74
0.32
0.28
0.01
-2.04

>  <PUBCHEM_SHAPE_SELFOVERLAP>  (1) 
670.391

>  <PUBCHEM_SHAPE_VOLUME>  (1) 
203.5

>  <PUBCHEM_COORDINATE_TYPE>  (1) 
2
5
10

$$$$
