22610
     RDKit          3D

 22 23  0  0  0  0  0  0  0  0999 V2000
    6.4327    0.6290   -0.0918 Cl  0  0  0  0  0  0  0  0  0  0  0  0
   -1.9322    1.5485   -0.7426 O   0  0  0  0  0  0  0  0  0  0  0  0
    0.6706   -2.6664    0.4144 O   0  0  0  0  0  0  0  0  0  0  0  0
   -1.6595    4.7135    0.9225 O   0  0  0  0  0  0  0  0  0  0  0  0
   -0.1975    3.6277   -0.4455 O   0  0  0  0  0  0  0  0  0  0  0  0
   -0.1595   -0.5455   -0.1494 N   0  0  0  0  0  0  0  0  0  0  0  0
   -1.5617   -0.7464   -0.1491 C   0  0  0  0  0  0  0  0  0  0  0  0
   -2.4106    0.3072   -0.4450 C   0  0  0  0  0  0  0  0  0  0  0  0
   -3.4308   -2.2192    0.1548 C   0  0  0  0  0  0  0  0  0  0  0  0
   -2.0522   -2.0068    0.1507 C   0  0  0  0  0  0  0  0  0  0  0  0
   -3.7892    0.0948   -0.4406 C   0  0  0  0  0  0  0  0  0  0  0  0
   -4.2993   -1.1684   -0.1406 C   0  0  0  0  0  0  0  0  0  0  0  0
    0.8551   -1.4743    0.1209 C   0  0  0  0  0  0  0  0  0  0  0  0
    2.2152   -0.9616    0.0693 C   0  0  0  0  0  0  0  0  0  0  0  0
   -3.9769   -3.5695    0.4741 C   0  0  0  0  0  0  0  0  0  0  0  0
    3.2722   -1.8179   -0.2394 C   0  0  0  0  0  0  0  0  0  0  0  0
    2.4626    0.3864    0.3285 C   0  0  0  0  0  0  0  0  0  0  0  0
   -2.3379    2.6193    0.1071 C   0  0  0  0  0  0  0  0  0  0  0  0
    4.5767   -1.3262   -0.2886 C   0  0  0  0  0  0  0  0  0  0  0  0
    3.7670    0.8782    0.2791 C   0  0  0  0  0  0  0  0  0  0  0  0
    4.8240    0.0219   -0.0293 C   0  0  0  0  0  0  0  0  0  0  0  0
   -1.2688    3.6760    0.1402 C   0  0  0  0  0  0  0  0  0  0  0  0
  1 21  1  0
  2  8  1  0
  2 18  1  0
  3 13  2  0
  4 22  1  0
  5 22  2  0
  6  7  1  0
  6 13  1  0
  7  8  2  0
  7 10  1  0
  8 11  1  0
  9 10  2  0
  9 12  1  0
  9 15  1  0
 11 12  2  0
 13 14  1  0
 14 16  2  0
 14 17  1  0
 16 19  1  0
 17 20  2  0
 18 22  1  0
 19 21  2  0
 20 21  1  0
M  END
>  <PUBCHEM_COMPOUND_CID>  (1) 
22610

>  <PUBCHEM_CONFORMER_RMSD>  (1) 
0.8

>  <PUBCHEM_CONFORMER_DIVERSEORDER>  (1) 
1
14
25
26
24
9
17
10
18
8
23
3
27
22
5
12
7
20
11
21
6
16
19
4
13
15
28
2

>  <PUBCHEM_MMFF94_PARTIAL_CHARGES>  (1) 
31
1 -0.18
10 -0.15
11 -0.15
12 -0.15
13 0.54
14 0.09
15 0.14
16 -0.15
17 -0.15
18 0.34
19 -0.15
2 -0.36
20 -0.15
21 0.18
22 0.66
23 0.15
24 0.15
25 0.37
26 0.15
3 -0.57
30 0.15
31 0.15
34 0.15
35 0.15
36 0.5
4 -0.65
5 -0.57
6 -0.55
7 0.12
8 0.08
9 -0.14

>  <PUBCHEM_EFFECTIVE_ROTOR_COUNT>  (1) 
6

>  <PUBCHEM_PHARMACOPHORE_FEATURES>  (1) 
8
1 2 acceptor
1 3 acceptor
1 4 acceptor
1 5 acceptor
1 6 donor
3 4 5 22 anion
6 14 16 17 19 20 21 rings
6 7 8 9 10 11 12 rings

>  <PUBCHEM_HEAVY_ATOM_COUNT>  (1) 
22

>  <PUBCHEM_ATOM_DEF_STEREO_COUNT>  (1) 
0

>  <PUBCHEM_ATOM_UDEF_STEREO_COUNT>  (1) 
0

>  <PUBCHEM_BOND_DEF_STEREO_COUNT>  (1) 
0

>  <PUBCHEM_BOND_UDEF_STEREO_COUNT>  (1) 
0

>  <PUBCHEM_ISOTOPIC_ATOM_COUNT>  (1) 
0

>  <PUBCHEM_COMPONENT_COUNT>  (1) 
1

>  <PUBCHEM_CACTVS_TAUTO_COUNT>  (1) 
2

>  <PUBCHEM_CONFORMER_ID>  (1) 
0000585200000001

>  <PUBCHEM_MMFF94_ENERGY>  (1) 
68.4588

>  <PUBCHEM_FEATURE_SELFOVERLAP>  (1) 
40.659

>  <PUBCHEM_SHAPE_FINGERPRINT>  (1) 
10006869 2 18119808011623904587
10411042 1 18266178533686519563
10498660 4 18335975398282753284
10670039 82 18335434452496862012
10937287 8 17762618387059119265
1100329 8 18410017641702328105
11045515 52 18260827146232473365
11578080 2 14906524934807936825
12107183 9 17686612443029783922
12173636 292 18122622752247026189
12293681 160 18120911964253223885
12403259 226 18342453764191740434
12788726 201 18334007272811952131
13140716 1 18338521944949576049
138480 1 15600610001540687361
14251764 75 17551239467100432352
14341114 176 18335424543263523918
14363568 33 17760943126390717848
14787075 74 17970066862159811590
14790565 3 17907580229686078553
15927050 60 16971120042578125855
19611394 137 17538287637210994242
19930381 70 18050002495697095817
20510252 161 18339358565797277321
21033650 10 18192460531609966294
21304253 13 18341338894256656307
221357 26 18272649026571520526
22182937 141 18126287436960557033
22440779 20 16964144388477653643
2297311 6 18410582815810297622
23402539 116 18337103574797147638
23557571 272 18412829070636223734
23558518 356 18189908525792010890
23559900 14 18337663213055918231
23845131 108 17616262386397463769
283562 15 18335419058411003947
4214541 1 18408884006058050102
469060 322 18338248136204750368
5104073 3 18411415086431511786
532947 4 17908409600575937781
9709674 26 18270120089340092790

>  <PUBCHEM_SHAPE_MULTIPOLES>  (1) 
426.16
10.79
4.73
0.71
13.24
5.84
0.01
-4.22
-0.36
-5.36
0.96
-0.12
0.12
0.35

>  <PUBCHEM_SHAPE_SELFOVERLAP>  (1) 
900.534

>  <PUBCHEM_SHAPE_VOLUME>  (1) 
239

>  <PUBCHEM_COORDINATE_TYPE>  (1) 
2
5
10

$$$$
