22611
     RDKit          3D

 15 16  0  0  0  0  0  0  0  0999 V2000
    0.4770   -3.1306    0.0004 Cl  0  0  0  0  0  0  0  0  0  0  0  0
   -2.4715   -2.0591   -0.0006 Cl  0  0  0  0  0  0  0  0  0  0  0  0
   -2.8850    2.1768    0.0006 O   0  0  0  0  0  0  0  0  0  0  0  0
   -3.6803    0.1307    0.0001 O   0  0  0  0  0  0  0  0  0  0  0  0
   -2.7200    0.9351    0.0003 N   0  0  0  0  0  0  0  0  0  0  0  0
    0.9945    0.8897   -0.0002 C   0  0  0  0  0  0  0  0  0  0  0  0
    1.2615   -0.5001    0.0000 C   0  0  0  0  0  0  0  0  0  0  0  0
   -0.3381    1.3329   -0.0006 C   0  0  0  0  0  0  0  0  0  0  0  0
    0.1879   -1.4056    0.0001 C   0  0  0  0  0  0  0  0  0  0  0  0
   -1.3923    0.4192   -0.0004 C   0  0  0  0  0  0  0  0  0  0  0  0
    2.0681    1.7952   -0.0003 C   0  0  0  0  0  0  0  0  0  0  0  0
   -1.1298   -0.9476    0.0003 C   0  0  0  0  0  0  0  0  0  0  0  0
    2.5940   -0.9435    0.0000 C   0  0  0  0  0  0  0  0  0  0  0  0
    3.3859    1.3368    0.0002 C   0  0  0  0  0  0  0  0  0  0  0  0
    3.6483   -0.0299    0.0002 C   0  0  0  0  0  0  0  0  0  0  0  0
  1  9  1  0
  2 12  1  0
  3  5  1  0
  4  5  2  0
  5 10  1  0
  6  7  1  0
  6  8  2  0
  6 11  1  0
  7  9  2  0
  7 13  1  0
  8 10  1  0
  9 12  1  0
 10 12  2  0
 11 14  2  0
 13 15  2  0
 14 15  1  0
M  CHG  2   3  -1   5   1
M  END
>  <PUBCHEM_COMPOUND_CID>  (1) 
22611

>  <PUBCHEM_CONFORMER_RMSD>  (1) 
0.4

>  <PUBCHEM_CONFORMER_DIVERSEORDER>  (1) 
1

>  <PUBCHEM_MMFF94_PARTIAL_CHARGES>  (1) 
18
1 -0.18
10 0.13
11 -0.15
12 0.18
13 -0.15
14 -0.15
15 -0.15
16 0.15
17 0.15
18 0.15
19 0.15
2 -0.18
20 0.15
3 -0.52
4 -0.52
5 0.91
8 -0.15
9 0.18

>  <PUBCHEM_EFFECTIVE_ROTOR_COUNT>  (1) 
1

>  <PUBCHEM_PHARMACOPHORE_FEATURES>  (1) 
5
1 3 acceptor
1 3 anion
1 4 acceptor
6 6 7 11 13 14 15 rings
6 6 7 8 9 10 12 rings

>  <PUBCHEM_HEAVY_ATOM_COUNT>  (1) 
15

>  <PUBCHEM_ATOM_DEF_STEREO_COUNT>  (1) 
0

>  <PUBCHEM_ATOM_UDEF_STEREO_COUNT>  (1) 
0

>  <PUBCHEM_BOND_DEF_STEREO_COUNT>  (1) 
0

>  <PUBCHEM_BOND_UDEF_STEREO_COUNT>  (1) 
0

>  <PUBCHEM_ISOTOPIC_ATOM_COUNT>  (1) 
0

>  <PUBCHEM_COMPONENT_COUNT>  (1) 
1

>  <PUBCHEM_CACTVS_TAUTO_COUNT>  (1) 
1

>  <PUBCHEM_CONFORMER_ID>  (1) 
0000585300000001

>  <PUBCHEM_MMFF94_ENERGY>  (1) 
59.8055

>  <PUBCHEM_FEATURE_SELFOVERLAP>  (1) 
25.48

>  <PUBCHEM_SHAPE_FINGERPRINT>  (1) 
10411042 1 16969423501086159718
10608611 8 18340484568704642464
10967382 1 18410855425800104422
10980938 120 18337111142270456058
11132069 177 18411131454927121448
11471102 20 18338230445155232237
12491281 212 18335989735063104352
13140716 1 18410855455933415234
13380535 76 18409728447925321635
13897977 150 18410008806110003300
14325111 11 18410855486072318212
14790565 3 15235272769624973863
15196674 1 18410574032422504134
15309172 13 18410865372933819251
15442244 35 18337951182345076842
15536298 74 18343021107996854108
15775835 57 18334298673442297908
16945 1 18266458711213211590
18186145 218 18272379645964538216
193761 8 17329709821569962176
20510252 161 18199472236580264312
20588541 1 18336831866353989142
20645476 183 17969804019204665270
20645477 70 18266453214245903719
20871998 184 18199474435746158887
21267235 1 18410301319263804650
21501502 16 18337389447830295036
21524375 3 18408038507058890522
2334 1 18338799038742951682
23402539 116 18125993004077947110
23402655 69 18342164528510066309
23463225 33 18335136475532742522
23559900 14 18271810104190840014
25 1 18264769869948280548
2748010 2 18410296947002668350
335352 9 18122343480319610462
43471831 8 18335415777019287378
5104073 3 18410854408436253160
528886 8 18411132537306294360
53812653 166 18341890814117025776
54173680 148 17904764727861507538
69090 78 18341890818396097199
7364860 26 18196652882740416142
81228 2 17833257997501283003
8809292 202 18334862739850034434
9709674 26 18269279135133581630

>  <PUBCHEM_SHAPE_MULTIPOLES>  (1) 
295.71
5.46
2.75
0.6
0.16
1.3
0
-1.71
0
-0.89
0
0.05
0.04
0

>  <PUBCHEM_SHAPE_SELFOVERLAP>  (1) 
633.637

>  <PUBCHEM_SHAPE_VOLUME>  (1) 
166

>  <PUBCHEM_COORDINATE_TYPE>  (1) 
2
5
10

$$$$
