22616
     RDKit          3D

 27 32  0  0  1  0  0  0  0  0999 V2000
    0.0195    0.9766    1.2250 O   0  0  0  0  0  0  0  0  0  0  0  0
    6.4831   -0.2137   -0.3264 O   0  0  0  0  0  0  0  0  0  0  0  0
   -6.0068   -1.0671    0.0600 O   0  0  0  0  0  0  0  0  0  0  0  0
   -6.7496    0.9598    0.8576 O   0  0  0  0  0  0  0  0  0  0  0  0
   -0.6433    0.6986   -0.0097 C   0  0  0  0  0  0  0  0  0  0  0  0
    0.8823    0.8175    0.0916 C   0  0  0  0  0  0  0  0  0  0  0  0
   -1.3738   -0.6363   -0.0608 C   0  0  0  0  0  0  0  0  0  0  0  0
    1.7151   -0.4515   -0.0204 C   0  0  0  0  0  0  0  0  0  0  0  0
    3.0393   -0.3475    0.8236 C   0  0  0  0  0  0  0  0  0  0  0  0
   -1.4722    1.7626   -0.6427 C   0  0  0  0  0  0  0  0  0  0  0  0
    1.6079    2.0910   -0.2529 C   0  0  0  0  0  0  0  0  0  0  0  0
   -2.5312   -0.3761   -1.1053 C   0  0  0  0  0  0  0  0  0  0  0  0
   -0.4121   -1.7203   -0.5856 C   0  0  0  0  0  0  0  0  0  0  0  0
    0.9070   -1.7449    0.1942 C   0  0  0  0  0  0  0  0  0  0  0  0
    3.8070    0.9623    0.4295 C   0  0  0  0  0  0  0  0  0  0  0  0
   -2.1796    0.9797   -1.7491 C   0  0  0  0  0  0  0  0  0  0  0  0
    2.9130    2.2130    0.5321 C   0  0  0  0  0  0  0  0  0  0  0  0
   -1.9226   -1.0370    1.3266 C   0  0  0  0  0  0  0  0  0  0  0  0
    3.9826   -1.5635    0.5938 C   0  0  0  0  0  0  0  0  0  0  0  0
    2.7305   -0.3256    2.3427 C   0  0  0  0  0  0  0  0  0  0  0  0
    4.4496    0.8829   -0.9757 C   0  0  0  0  0  0  0  0  0  0  0  0
   -3.9276   -0.3331   -0.5559 C   0  0  0  0  0  0  0  0  0  0  0  0
    4.5840   -1.6298   -0.8089 C   0  0  0  0  0  0  0  0  0  0  0  0
    5.3325   -0.3480   -1.1584 C   0  0  0  0  0  0  0  0  0  0  0  0
   -4.7877   -1.5336   -0.5278 C   0  0  0  0  0  0  0  0  0  0  0  0
   -4.5576    0.7221   -0.0468 C   0  0  0  0  0  0  0  0  0  0  0  0
   -5.8893    0.2615    0.3496 C   0  0  0  0  0  0  0  0  0  0  0  0
  1  5  1  0
  1  6  1  0
  2 24  1  0
  3 25  1  0
  3 27  1  0
  4 27  2  0
  5  6  1  0
  5  7  1  0
  5 10  1  0
  6  8  1  0
  6 11  1  0
  7 12  1  0
  7 13  1  0
  7 18  1  0
  8  9  1  0
  8 14  1  0
  9 15  1  0
  9 19  1  0
  9 20  1  0
 10 16  1  0
 11 17  1  0
 12 16  1  0
 12 22  1  0
 13 14  1  0
 15 17  1  0
 15 21  1  0
 19 23  1  0
 21 24  1  0
 22 25  1  0
 22 26  2  0
 23 24  1  0
 26 27  1  0
M  END
>  <PUBCHEM_COMPOUND_CID>  (1) 
22616

>  <PUBCHEM_CONFORMER_RMSD>  (1) 
0.8

>  <PUBCHEM_CONFORMER_DIVERSEORDER>  (1) 
7
6
1
2
9
3
5
10
4
8

>  <PUBCHEM_MMFF94_PARTIAL_CHARGES>  (1) 
18
1 -0.3
10 0.09
11 0.09
12 0.14
2 -0.68
22 -0.28
24 0.28
25 0.42
26 -0.14
27 0.71
3 -0.43
4 -0.57
5 -0.04
58 0.15
59 0.4
6 -0.04
7 0.09
8 0.09

>  <PUBCHEM_EFFECTIVE_ROTOR_COUNT>  (1) 
3.8

>  <PUBCHEM_PHARMACOPHORE_FEATURES>  (1) 
9
1 1 acceptor
1 2 acceptor
1 2 donor
1 4 acceptor
5 3 22 25 26 27 rings
5 5 7 10 12 16 rings
6 6 8 9 11 15 17 rings
6 9 15 19 21 23 24 rings
7 1 5 6 7 8 13 14 rings

>  <PUBCHEM_HEAVY_ATOM_COUNT>  (1) 
27

>  <PUBCHEM_ATOM_DEF_STEREO_COUNT>  (1) 
6

>  <PUBCHEM_ATOM_UDEF_STEREO_COUNT>  (1) 
2

>  <PUBCHEM_BOND_DEF_STEREO_COUNT>  (1) 
0

>  <PUBCHEM_BOND_UDEF_STEREO_COUNT>  (1) 
0

>  <PUBCHEM_ISOTOPIC_ATOM_COUNT>  (1) 
0

>  <PUBCHEM_COMPONENT_COUNT>  (1) 
1

>  <PUBCHEM_CACTVS_TAUTO_COUNT>  (1) 
1

>  <PUBCHEM_CONFORMER_ID>  (1) 
0000585800000007

>  <PUBCHEM_MMFF94_ENERGY>  (1) 
80.1765

>  <PUBCHEM_FEATURE_SELFOVERLAP>  (1) 
45.861

>  <PUBCHEM_SHAPE_FINGERPRINT>  (1) 
10 15 10231745658024370646
10366900 7 17748826319273545569
11405975 8 14692280794034541919
11578080 2 16986014972350283986
11796584 16 16056598781038290262
12011746 2 18333453144410217302
12166972 35 18060139877304979977
12236239 1 17632578275200320369
12403259 415 18261100876998339485
12730499 353 16225769618745021936
12788726 201 18188485774883658513
13140716 1 18264757938492345675
13224815 77 18335690659151983520
13533116 47 11743574154194388652
14251758 9 16702301239509459053
14341114 176 18410295817980248329
14617045 38 18113621183330711914
14790565 3 18410859880008614933
14856354 85 18341620334715671975
15142383 8 16486975059826850976
15183329 4 18342738503375146909
15475509 8 18058468529177945204
15788980 27 15554444115556496365
15840311 113 18343305886199716857
1601671 61 18413669102104968365
17349148 13 17632863048548416607
1813 80 17458060478483777189
18335252 98 14923953348979557721
18608769 82 18187367678873960890
19319366 153 17240475910487001274
200 152 18060700593453140782
20715895 44 11815907746977777851
20775530 9 16914539832007953998
20832881 197 17917993875530298584
21033648 29 17168407342812503701
21267235 1 18412268320133410174
21859007 373 14620242866852290683
221357 26 18410011018482514532
22182313 1 18116968101042150948
22950370 63 18409729569212187053
23402539 116 11887675061651359579
23522609 53 18191332449090227477
23559900 14 18131063883555257904
23622692 88 13686297976467250656
3004659 81 18409168810082385932
335352 9 18413671318039120206
34797466 226 15430047542921969062
350125 39 18411139104306482829
4073 2 18189339129071722483
4093350 32 17132119069934782732
4325135 7 17022623074373197423
4340502 62 16225766324499798794
46194498 28 18186805790394653964
465052 167 18411422825329471863
5104073 3 18338792416399312715
542803 24 18113054939337672119
59755656 215 17703797972526615919
633830 44 18200865279242255807

>  <PUBCHEM_SHAPE_MULTIPOLES>  (1) 
532.17
13.5
1.95
1.34
8.46
0.25
-0.3
-1.38
0.76
-0.72
0.08
-0.54
-0.04
0.01

>  <PUBCHEM_SHAPE_SELFOVERLAP>  (1) 
1168.391

>  <PUBCHEM_SHAPE_VOLUME>  (1) 
288.2

>  <PUBCHEM_COORDINATE_TYPE>  (1) 
2
5
10

$$$$
