22618
     RDKit          3D

 14 13  0  0  0  0  0  0  0  0999 V2000
   -4.8570    1.2117   -0.0025 O   0  0  0  0  0  0  0  0  0  0  0  0
    4.7688    1.4803   -0.7207 O   0  0  0  0  0  0  0  0  0  0  0  0
   -4.6154   -0.9681   -0.5922 O   0  0  0  0  0  0  0  0  0  0  0  0
    4.6664   -0.1287    0.8871 O   0  0  0  0  0  0  0  0  0  0  0  0
    0.4329   -0.5827   -0.6756 C   0  0  0  0  0  0  0  0  0  0  0  0
   -0.4662   -0.8698    0.5296 C   0  0  0  0  0  0  0  0  0  0  0  0
    1.8972   -0.5504   -0.2975 C   0  0  0  0  0  0  0  0  0  0  0  0
   -1.9204   -0.7950    0.1515 C   0  0  0  0  0  0  0  0  0  0  0  0
    2.4356   -1.8534    0.2391 C   0  0  0  0  0  0  0  0  0  0  0  0
   -2.7281    0.2762    0.2609 C   0  0  0  0  0  0  0  0  0  0  0  0
    2.7080    0.5212   -0.3763 C   0  0  0  0  0  0  0  0  0  0  0  0
   -2.3106    1.6379    0.7318 C   0  0  0  0  0  0  0  0  0  0  0  0
   -4.1424    0.0727   -0.1626 C   0  0  0  0  0  0  0  0  0  0  0  0
    4.1312    0.5480    0.0272 C   0  0  0  0  0  0  0  0  0  0  0  0
  1 13  1  0
  2 14  1  0
  3 13  2  0
  4 14  2  0
  5  6  1  0
  5  7  1  0
  6  8  1  0
  7  9  1  0
  7 11  2  0
  8 10  2  0
 10 12  1  0
 10 13  1  0
 11 14  1  0
M  END
>  <PUBCHEM_COMPOUND_CID>  (1) 
22618

>  <PUBCHEM_CONFORMER_RMSD>  (1) 
0.6

>  <PUBCHEM_CONFORMER_DIVERSEORDER>  (1) 
2
4
38
13
92
51
47
103
37
81
59
25
46
14
53
5
29
30
39
90
101
82
97
58
27
15
22
7
50
19
35
41
9
96
76
1
89
28
33
80
34
10
71
8
56
57
70
65
44
86
17
24
75
48
61
64
21
83
6
63
67
60
72
45
99
40
100
98
54
94
87
93
84
102
18
36
3
91
68
79
77
52
104
31
20
73
43
62
95
55
69
66
32
78
26
42
16
12
49
74
23
85
88
11

>  <PUBCHEM_MMFF94_PARTIAL_CHARGES>  (1) 
18
1 -0.65
10 -0.12
11 -0.14
12 0.14
13 0.71
14 0.71
19 0.15
2 -0.65
23 0.15
27 0.5
28 0.5
3 -0.57
4 -0.57
5 0.14
6 0.14
7 -0.28
8 -0.29
9 0.14

>  <PUBCHEM_EFFECTIVE_ROTOR_COUNT>  (1) 
5

>  <PUBCHEM_PHARMACOPHORE_FEATURES>  (1) 
9
1 1 acceptor
1 12 hydrophobe
1 2 acceptor
1 3 acceptor
1 4 acceptor
1 9 hydrophobe
3 1 3 13 anion
3 2 4 14 anion
4 5 6 7 8 hydrophobe

>  <PUBCHEM_HEAVY_ATOM_COUNT>  (1) 
14

>  <PUBCHEM_ATOM_DEF_STEREO_COUNT>  (1) 
0

>  <PUBCHEM_ATOM_UDEF_STEREO_COUNT>  (1) 
0

>  <PUBCHEM_BOND_DEF_STEREO_COUNT>  (1) 
0

>  <PUBCHEM_BOND_UDEF_STEREO_COUNT>  (1) 
2

>  <PUBCHEM_ISOTOPIC_ATOM_COUNT>  (1) 
0

>  <PUBCHEM_COMPONENT_COUNT>  (1) 
1

>  <PUBCHEM_CACTVS_TAUTO_COUNT>  (1) 
1

>  <PUBCHEM_CONFORMER_ID>  (1) 
0000585A00000002

>  <PUBCHEM_MMFF94_ENERGY>  (1) 
25.2105

>  <PUBCHEM_FEATURE_SELFOVERLAP>  (1) 
45.793

>  <PUBCHEM_SHAPE_FINGERPRINT>  (1) 
10014705 185 18334574612623038445
10465860 250 13190337984939221063
11128504 68 14117514372301929048
114248 4 16343702153218035602
124424 183 13695869238219700855
12616999 72 17203894041706891414
13675066 3 14345791656102980354
14252887 29 14056713526901471968
14897335 6 18409449189220463386
17802600 8 18341609326007811592
17834072 33 18411699893854359638
20279233 1 16298391244720060923
20300324 65 18202565090265286241
20645477 70 18270402689587750398
20871999 31 18059842983944166455
212847 35 18410572903595406064
22169311 14 13623537882501907333
23048698 100 17966968322771162656
23402539 116 18341886403238288887
23402655 69 18273214166847635869
23532345 1 18260834778252156370
23557571 272 17775014504720339909
23559900 14 18129378207349284614
328317 168 18408605880970830683
351380 180 18413386544754515616
3545911 37 18409453582824099775
42 15 10881398737996515863
449060 50 18259708908098861326
474 4 18041002890223901164
83771 10 10447932754293233314

>  <PUBCHEM_SHAPE_MULTIPOLES>  (1) 
264.64
10.85
1.53
0.81
0.22
0.06
-0.03
3.2
0.55
-0.23
-0.09
-0.21
0.02
-0.72

>  <PUBCHEM_SHAPE_SELFOVERLAP>  (1) 
515.241

>  <PUBCHEM_SHAPE_VOLUME>  (1) 
159

>  <PUBCHEM_COORDINATE_TYPE>  (1) 
2
5
10

$$$$
