22624
     RDKit          3D

 41 46  0  0  1  0  0  0  0  0999 V2000
   -2.9527    3.0616   -0.9415 O   0  0  0  0  0  0  0  0  0  0  0  0
    0.4880    0.3853    2.5716 O   0  0  0  0  0  0  0  0  0  0  0  0
   -2.7778   -1.7667    1.2533 O   0  0  0  0  0  0  0  0  0  0  0  0
    0.3140   -1.8140   -1.8139 O   0  0  0  0  0  0  0  0  0  0  0  0
   -0.4420   -2.9428    0.1992 O   0  0  0  0  0  0  0  0  0  0  0  0
    4.4937   -0.5129    0.1261 O   0  0  0  0  0  0  0  0  0  0  0  0
   -7.7880   -1.2025    1.0521 O   0  0  0  0  0  0  0  0  0  0  0  0
    5.8862    1.2480   -0.6367 O   0  0  0  0  0  0  0  0  0  0  0  0
   -9.4868   -0.7861   -0.4434 O   0  0  0  0  0  0  0  0  0  0  0  0
    5.9390   -2.3285   -1.4506 O   0  0  0  0  0  0  0  0  0  0  0  0
    6.8752   -1.6945    1.1059 O   0  0  0  0  0  0  0  0  0  0  0  0
    8.8185    0.8090   -0.6899 O   0  0  0  0  0  0  0  0  0  0  0  0
   -1.3209   -0.2050    0.1130 C   0  0  0  0  0  0  0  0  0  0  0  0
   -1.4208    1.2476   -0.4175 C   0  0  0  0  0  0  0  0  0  0  0  0
   -2.8781    1.6373   -0.8104 C   0  0  0  0  0  0  0  0  0  0  0  0
   -4.0023    1.1111    0.1550 C   0  0  0  0  0  0  0  0  0  0  0  0
    0.1986   -0.6445    0.3541 C   0  0  0  0  0  0  0  0  0  0  0  0
    0.9721    0.4190    1.2217 C   0  0  0  0  0  0  0  0  0  0  0  0
   -2.2602   -0.4332    1.3306 C   0  0  0  0  0  0  0  0  0  0  0  0
   -3.4315    0.5462    1.4696 C   0  0  0  0  0  0  0  0  0  0  0  0
   -4.7238    0.0078   -0.6847 C   0  0  0  0  0  0  0  0  0  0  0  0
   -0.7185    2.2259    0.5410 C   0  0  0  0  0  0  0  0  0  0  0  0
   -3.2381    1.0558   -2.2083 C   0  0  0  0  0  0  0  0  0  0  0  0
    0.7573    1.8586    0.7074 C   0  0  0  0  0  0  0  0  0  0  0  0
    0.9261   -0.7845   -1.0358 C   0  0  0  0  0  0  0  0  0  0  0  0
   -4.6729    0.5641   -2.1028 C   0  0  0  0  0  0  0  0  0  0  0  0
    2.4822    0.1038    1.3015 C   0  0  0  0  0  0  0  0  0  0  0  0
    0.2185   -2.0380    1.0502 C   0  0  0  0  0  0  0  0  0  0  0  0
   -4.9917    2.2440    0.5452 C   0  0  0  0  0  0  0  0  0  0  0  0
    2.4223   -1.0884   -0.9207 C   0  0  0  0  0  0  0  0  0  0  0  0
    3.1519   -0.0696   -0.0580 C   0  0  0  0  0  0  0  0  0  0  0  0
   -6.1054   -0.3776   -0.2631 C   0  0  0  0  0  0  0  0  0  0  0  0
   -6.3713   -0.9978    1.0510 C   0  0  0  0  0  0  0  0  0  0  0  0
   -7.2280   -0.2307   -0.9614 C   0  0  0  0  0  0  0  0  0  0  0  0
    5.3432   -0.0453   -0.9183 C   0  0  0  0  0  0  0  0  0  0  0  0
   -8.3100   -0.7563   -0.1274 C   0  0  0  0  0  0  0  0  0  0  0  0
    6.4763   -1.0386   -1.1873 C   0  0  0  0  0  0  0  0  0  0  0  0
    7.4840   -1.0897   -0.0333 C   0  0  0  0  0  0  0  0  0  0  0  0
    6.7468    1.2748    0.5109 C   0  0  0  0  0  0  0  0  0  0  0  0
    7.9455    0.3253    0.3293 C   0  0  0  0  0  0  0  0  0  0  0  0
    7.1814    2.7222    0.7162 C   0  0  0  0  0  0  0  0  0  0  0  0
  1 15  1  0
  2 18  1  0
  3 19  1  0
  4 25  1  0
  5 28  1  0
  6 31  1  0
  6 35  1  0
  7 33  1  0
  7 36  1  0
  8 35  1  0
  8 39  1  0
  9 36  2  0
 10 37  1  0
 11 38  1  0
 12 40  1  0
 13 14  1  0
 13 17  1  0
 13 19  1  0
 14 15  1  0
 14 22  1  0
 15 16  1  0
 15 23  1  0
 16 20  1  0
 16 21  1  0
 16 29  1  0
 17 18  1  0
 17 25  1  0
 17 28  1  0
 18 24  1  0
 18 27  1  0
 19 20  1  0
 21 26  1  0
 21 32  1  0
 22 24  1  0
 23 26  1  0
 25 30  1  0
 27 31  1  0
 30 31  1  0
 32 33  1  0
 32 34  2  0
 34 36  1  0
 35 37  1  0
 37 38  1  0
 38 40  1  0
 39 40  1  0
 39 41  1  0
M  END
>  <PUBCHEM_COMPOUND_CID>  (1) 
22624

>  <PUBCHEM_CONFORMER_RMSD>  (1) 
1

>  <PUBCHEM_CONFORMER_DIVERSEORDER>  (1) 
5
147
45
150
153
16
37
106
102
151
21
84
139
38
81
149
59
52
133
6
130
160
55
154
98
123
23
126
159
94
110
44
51
107
158
41
156
36
69
50
157
27
24
138
76
114
111
86
115
66
152
93
148
116
28
117
62
108
14
104
142
73
33
120
39
58
53
32
74
137
85
87
75
125
135
31
155
30
4
29
136
43
60
146
129
40
91
90
61
105
49
10
122
77
121
35
15
68
56
70
134
3
54
67
118
145
2
18
99
141
113
65
132
7
34
95
79
96
103
140
13
124
26
72
131
19
112
128
57
127
11
8
101
100
12
97
88
80
82
1
22
42
47
17
143
144
89
71
92
63
9
78
64
46
25
20
109
48
83
119

>  <PUBCHEM_MMFF94_PARTIAL_CHARGES>  (1) 
37
1 -0.68
10 -0.68
11 -0.68
12 -0.68
15 0.28
18 0.28
19 0.28
2 -0.68
21 0.14
25 0.28
28 0.28
3 -0.68
31 0.28
32 -0.28
33 0.42
34 -0.14
35 0.56
36 0.71
37 0.28
38 0.28
39 0.28
4 -0.68
40 0.28
5 -0.68
6 -0.56
67 0.4
68 0.4
69 0.4
7 -0.43
70 0.4
73 0.4
74 0.15
8 -0.56
80 0.4
84 0.4
85 0.4
9 -0.57

>  <PUBCHEM_EFFECTIVE_ROTOR_COUNT>  (1) 
7.8

>  <PUBCHEM_PHARMACOPHORE_FEATURES>  (1) 
25
1 1 acceptor
1 1 donor
1 10 acceptor
1 10 donor
1 11 acceptor
1 11 donor
1 12 acceptor
1 12 donor
1 2 acceptor
1 2 donor
1 3 acceptor
1 3 donor
1 4 acceptor
1 4 donor
1 5 acceptor
1 5 donor
1 6 acceptor
1 8 acceptor
1 9 acceptor
5 15 16 21 23 26 rings
5 7 32 33 34 36 rings
6 13 14 15 16 19 20 rings
6 13 14 17 18 22 24 rings
6 17 18 25 27 30 31 rings
6 8 35 37 38 39 40 rings

>  <PUBCHEM_HEAVY_ATOM_COUNT>  (1) 
41

>  <PUBCHEM_ATOM_DEF_STEREO_COUNT>  (1) 
10

>  <PUBCHEM_ATOM_UDEF_STEREO_COUNT>  (1) 
5

>  <PUBCHEM_BOND_DEF_STEREO_COUNT>  (1) 
0

>  <PUBCHEM_BOND_UDEF_STEREO_COUNT>  (1) 
0

>  <PUBCHEM_ISOTOPIC_ATOM_COUNT>  (1) 
0

>  <PUBCHEM_COMPONENT_COUNT>  (1) 
1

>  <PUBCHEM_CACTVS_TAUTO_COUNT>  (1) 
1

>  <PUBCHEM_CONFORMER_ID>  (1) 
0000586000000005

>  <PUBCHEM_MMFF94_ENERGY>  (1) 
162.5026

>  <PUBCHEM_FEATURE_SELFOVERLAP>  (1) 
127.314

>  <PUBCHEM_SHAPE_FINGERPRINT>  (1) 
10076449 9 18187368748906191721
10299344 5 16988843890713125341
10674148 151 12751240302594236223
11007060 377 17967536757403453545
12082328 90 18343301431885646637
12664476 115 18408041832434729172
13782708 43 18338521815969078430
13811026 1 18411139129838442007
13914758 101 14779262008151948303
14118638 360 17168138996975647873
14856354 85 16415193494947744757
150020 25 18113612396254970421
15183329 4 16877666743107280326
15444296 7 18336547226434905188
15461852 350 16732706051800990887
15849732 13 17749389282270397174
18335252 98 18202003214333329006
18365409 1 15430332372790436915
18608769 82 18411981403560281543
20105231 36 13901912223484885069
21521721 280 17917712435108472394
22149856 69 17131841915315247058
23522609 53 16988020370048739480
25019877 29 18342461434655620670
3044373 193 18259989301640833524
3178227 256 17775287174687123959
335507 130 17989203742462521124
3383291 50 18261114096839000930
4258327 124 17968674821259026076
4625314 4 18408039637305176485
6086070 43 12107799526956979149

>  <PUBCHEM_SHAPE_MULTIPOLES>  (1) 
773.33
24.77
2.38
1.65
11.37
0.49
-0.12
-2.33
-2.71
1.09
0.03
-0.76
-0.08
1.53

>  <PUBCHEM_SHAPE_SELFOVERLAP>  (1) 
1669.202

>  <PUBCHEM_SHAPE_VOLUME>  (1) 
418.1

>  <PUBCHEM_COORDINATE_TYPE>  (1) 
2
5
10

$$$$
