22628
     RDKit          3D

 22 24  0  0  0  0  0  0  0  0999 V2000
    0.7375   -3.8036   -0.0129 Br  0  0  0  0  0  0  0  0  0  0  0  0
    4.1702    0.4166   -0.0609 S   0  0  0  0  0  0  0  0  0  0  0  0
   -0.7804    2.5887   -0.0217 O   0  0  0  0  0  0  0  0  0  0  0  0
   -1.8656   -2.6397    0.0106 O   0  0  0  0  0  0  0  0  0  0  0  0
    4.4332    1.0600    1.4168 O   0  0  0  0  0  0  0  0  0  0  0  0
    4.9902   -0.7793   -0.1600 O   0  0  0  0  0  0  0  0  0  0  0  0
    4.2756    1.4788   -1.0459 O   0  0  0  0  0  0  0  0  0  0  0  0
    1.7800    2.2137   -0.0425 N   0  0  0  0  0  0  0  0  0  0  0  0
    0.1189    0.3937   -0.0211 C   0  0  0  0  0  0  0  0  0  0  0  0
   -0.1579   -0.9750   -0.0139 C   0  0  0  0  0  0  0  0  0  0  0  0
    1.4467    0.8374   -0.0359 C   0  0  0  0  0  0  0  0  0  0  0  0
   -2.3764    0.8987    0.0021 C   0  0  0  0  0  0  0  0  0  0  0  0
   -2.6533   -0.4702    0.0093 C   0  0  0  0  0  0  0  0  0  0  0  0
   -0.9801    1.3805   -0.0136 C   0  0  0  0  0  0  0  0  0  0  0  0
    2.4910   -0.0880   -0.0431 C   0  0  0  0  0  0  0  0  0  0  0  0
   -1.5541   -1.4569    0.0018 C   0  0  0  0  0  0  0  0  0  0  0  0
    0.8930   -1.9001   -0.0210 C   0  0  0  0  0  0  0  0  0  0  0  0
    2.2147   -1.4538   -0.0356 C   0  0  0  0  0  0  0  0  0  0  0  0
   -3.4273    1.8237    0.0093 C   0  0  0  0  0  0  0  0  0  0  0  0
   -3.9812   -0.9139    0.0238 C   0  0  0  0  0  0  0  0  0  0  0  0
   -4.7491    1.3773    0.0235 C   0  0  0  0  0  0  0  0  0  0  0  0
   -5.0254    0.0113    0.0307 C   0  0  0  0  0  0  0  0  0  0  0  0
  1 17  1  0
  2  5  1  0
  2  6  2  0
  2  7  2  0
  2 15  1  0
  3 14  2  0
  4 16  2  0
  8 11  1  0
  9 10  1  0
  9 11  2  0
  9 14  1  0
 10 16  1  0
 10 17  2  0
 11 15  1  0
 12 13  2  0
 12 14  1  0
 12 19  1  0
 13 16  1  0
 13 20  1  0
 15 18  2  0
 17 18  1  0
 19 21  2  0
 20 22  2  0
 21 22  1  0
M  END
>  <PUBCHEM_COMPOUND_CID>  (1) 
22628

>  <PUBCHEM_CONFORMER_RMSD>  (1) 
0.6

>  <PUBCHEM_CONFORMER_DIVERSEORDER>  (1) 
1

>  <PUBCHEM_MMFF94_PARTIAL_CHARGES>  (1) 
30
1 -0.11
10 0.09
11 0.1
12 0.09
13 0.09
14 0.4
15 -0.01
16 0.4
17 0.11
18 -0.15
19 -0.15
2 1.49
20 -0.15
21 -0.15
22 -0.15
23 0.15
24 0.15
25 0.15
26 0.4
27 0.4
28 0.15
29 0.15
3 -0.57
30 0.5
4 -0.57
5 -0.68
6 -0.65
7 -0.65
8 -0.9
9 0.09

>  <PUBCHEM_EFFECTIVE_ROTOR_COUNT>  (1) 
1

>  <PUBCHEM_PHARMACOPHORE_FEATURES>  (1) 
12
1 1 hydrophobe
1 3 acceptor
1 4 acceptor
1 5 acceptor
1 6 acceptor
1 7 acceptor
1 8 cation
1 8 donor
4 2 5 6 7 anion
6 12 13 19 20 21 22 rings
6 9 10 11 15 17 18 rings
6 9 10 12 13 14 16 rings

>  <PUBCHEM_HEAVY_ATOM_COUNT>  (1) 
22

>  <PUBCHEM_ATOM_DEF_STEREO_COUNT>  (1) 
0

>  <PUBCHEM_ATOM_UDEF_STEREO_COUNT>  (1) 
0

>  <PUBCHEM_BOND_DEF_STEREO_COUNT>  (1) 
0

>  <PUBCHEM_BOND_UDEF_STEREO_COUNT>  (1) 
0

>  <PUBCHEM_ISOTOPIC_ATOM_COUNT>  (1) 
0

>  <PUBCHEM_COMPONENT_COUNT>  (1) 
1

>  <PUBCHEM_CACTVS_TAUTO_COUNT>  (1) 
3

>  <PUBCHEM_CONFORMER_ID>  (1) 
0000586400000001

>  <PUBCHEM_MMFF94_ENERGY>  (1) 
77.1386

>  <PUBCHEM_FEATURE_SELFOVERLAP>  (1) 
60.994

>  <PUBCHEM_SHAPE_FINGERPRINT>  (1) 
10319926 262 18055049195004494520
10411042 1 16753252939291165422
10616163 171 18410014372825897455
10906281 52 18263662730933327497
10967382 1 18338517443649737471
1100329 8 18339079422745299721
11112241 14 16341144792451946768
11132069 177 18410290324189562600
11578080 2 16736071493321035407
12011746 2 18411138008931157773
12236239 1 17821446885346522308
12403814 3 17603299354315705405
12592029 89 18408325462466690330
12838862 33 18338497690989946933
12839892 36 18337655439481987866
13140716 1 18339077223716737129
138480 1 17762056540896455703
13862211 1 18410569582836586879
14790565 3 18410302414406962981
15196674 1 18410856551055129759
15442244 35 17907297654991310275
15536298 74 18342459184097660895
1601671 61 18409167701400867028
16945 1 18410573950987073511
18681886 176 18335984246649041136
19591789 44 18338800125401507983
19784866 170 18408326562157490363
200 152 18060135440614162705
20028762 73 18057042626207150871
20510252 161 18272089353509737537
20715895 44 17755005411920084389
21267235 1 18410302423455326703
21279426 13 18268150842581516438
21421861 104 17970908847601176723
22182313 1 17898286109155826237
2334 1 18122345945651975927
23366157 5 17898578578974903738
23402539 116 18343294877638718783
23559900 14 18124872361416932642
23566358 2 18123469384373779423
2748010 2 18266463298380857959
335352 9 18410576150252890158
34934 24 18411694353757776959
350125 39 18265621064332407427
3545911 37 18411140203965374817
3680242 22 18335420115014773864
43471831 8 18336825299449590706
474 4 18187369817593483934
495365 180 17346590903212526474
5104073 3 18338235960151658427
59755656 215 18337674109430425903
6138700 20 18266745684576924974
7364860 26 18196371416417118974
9709674 26 18411706469581314463
9981440 41 18408039619640498515

>  <PUBCHEM_SHAPE_MULTIPOLES>  (1) 
428.21
9.11
3.17
0.71
0.23
2.34
-0.06
-3.45
-0.18
0.49
0.05
0.45
-0.11
0.03

>  <PUBCHEM_SHAPE_SELFOVERLAP>  (1) 
935.737

>  <PUBCHEM_SHAPE_VOLUME>  (1) 
237.5

>  <PUBCHEM_COORDINATE_TYPE>  (1) 
2
5
10

$$$$
