22633
     RDKit          3D

 25 27  0  0  0  0  0  0  0  0999 V2000
   -6.4475   -0.6734    0.5905 Cl  0  0  0  0  0  0  0  0  0  0  0  0
    1.6596   -4.2087   -0.1419 O   0  0  0  0  0  0  0  0  0  0  0  0
   -1.0304    3.0435   -0.3295 O   0  0  0  0  0  0  0  0  0  0  0  0
    4.5840    0.1917    1.5180 O   0  0  0  0  0  0  0  0  0  0  0  0
    0.1401    1.1062   -0.3247 N   0  0  0  0  0  0  0  0  0  0  0  0
    5.1135    2.3076    0.7951 N   0  0  0  0  0  0  0  0  0  0  0  0
    2.3432    0.6972   -0.5130 C   0  0  0  0  0  0  0  0  0  0  0  0
    1.6831   -0.5457   -0.3708 C   0  0  0  0  0  0  0  0  0  0  0  0
    0.3119   -0.2804   -0.2501 C   0  0  0  0  0  0  0  0  0  0  0  0
    1.3879    1.6815   -0.4752 C   0  0  0  0  0  0  0  0  0  0  0  0
    3.7994    0.9000   -0.6689 C   0  0  0  0  0  0  0  0  0  0  0  0
    2.1394   -1.8799   -0.3322 C   0  0  0  0  0  0  0  0  0  0  0  0
   -0.6124   -1.3325   -0.1018 C   0  0  0  0  0  0  0  0  0  0  0  0
    1.6140    3.1427   -0.5808 C   0  0  0  0  0  0  0  0  0  0  0  0
   -1.0733    1.8218   -0.2280 C   0  0  0  0  0  0  0  0  0  0  0  0
    1.2205   -2.9199   -0.1791 C   0  0  0  0  0  0  0  0  0  0  0  0
   -0.1368   -2.6473   -0.0667 C   0  0  0  0  0  0  0  0  0  0  0  0
   -2.3987    1.2052   -0.0263 C   0  0  0  0  0  0  0  0  0  0  0  0
    4.5237    1.0683    0.6603 C   0  0  0  0  0  0  0  0  0  0  0  0
   -2.8766    0.9981    1.2650 C   0  0  0  0  0  0  0  0  0  0  0  0
   -3.1656    0.8350   -1.1281 C   0  0  0  0  0  0  0  0  0  0  0  0
   -4.1301    0.4167    1.4559 C   0  0  0  0  0  0  0  0  0  0  0  0
   -4.4192    0.2538   -0.9371 C   0  0  0  0  0  0  0  0  0  0  0  0
   -4.9016    0.0446    0.3550 C   0  0  0  0  0  0  0  0  0  0  0  0
    0.6719   -5.2259    0.0144 C   0  0  0  0  0  0  0  0  0  0  0  0
  1 24  1  0
  2 16  1  0
  2 25  1  0
  3 15  2  0
  4 19  2  0
  5  9  1  0
  5 10  1  0
  5 15  1  0
  6 19  1  0
  7  8  1  0
  7 10  2  0
  7 11  1  0
  8  9  2  0
  8 12  1  0
  9 13  1  0
 10 14  1  0
 11 19  1  0
 12 16  2  0
 13 17  2  0
 15 18  1  0
 16 17  1  0
 18 20  2  0
 18 21  1  0
 20 22  1  0
 21 23  2  0
 22 24  2  0
 23 24  1  0
M  END
>  <PUBCHEM_COMPOUND_CID>  (1) 
22633

>  <PUBCHEM_CONFORMER_RMSD>  (1) 
0.8

>  <PUBCHEM_CONFORMER_DIVERSEORDER>  (1) 
3
38
39
17
34
24
6
25
21
4
18
32
29
31
35
9
19
12
40
5
10
41
26
14
15
11
33
1
23
27
16
37
20
30
28
13
7
8
22
36
2

>  <PUBCHEM_MMFF94_PARTIAL_CHARGES>  (1) 
33
1 -0.18
10 -0.33
11 0.24
12 -0.15
13 -0.15
14 0.18
15 0.49
16 0.08
17 -0.15
18 0.09
19 0.57
2 -0.36
20 -0.15
21 -0.15
22 -0.15
23 -0.15
24 0.18
25 0.28
28 0.15
29 0.15
3 -0.57
33 0.15
34 0.15
35 0.15
36 0.37
37 0.37
38 0.15
39 0.15
4 -0.57
5 0.29
6 -0.8
7 -0.18
9 -0.15

>  <PUBCHEM_EFFECTIVE_ROTOR_COUNT>  (1) 
5

>  <PUBCHEM_PHARMACOPHORE_FEATURES>  (1) 
7
1 2 acceptor
1 3 acceptor
1 4 acceptor
1 6 donor
5 5 7 8 9 10 rings
6 18 20 21 22 23 24 rings
6 8 9 12 13 16 17 rings

>  <PUBCHEM_HEAVY_ATOM_COUNT>  (1) 
25

>  <PUBCHEM_ATOM_DEF_STEREO_COUNT>  (1) 
0

>  <PUBCHEM_ATOM_UDEF_STEREO_COUNT>  (1) 
0

>  <PUBCHEM_BOND_DEF_STEREO_COUNT>  (1) 
0

>  <PUBCHEM_BOND_UDEF_STEREO_COUNT>  (1) 
0

>  <PUBCHEM_ISOTOPIC_ATOM_COUNT>  (1) 
0

>  <PUBCHEM_COMPONENT_COUNT>  (1) 
1

>  <PUBCHEM_CACTVS_TAUTO_COUNT>  (1) 
2

>  <PUBCHEM_CONFORMER_ID>  (1) 
0000586900000003

>  <PUBCHEM_MMFF94_ENERGY>  (1) 
77.4824

>  <PUBCHEM_FEATURE_SELFOVERLAP>  (1) 
35.611

>  <PUBCHEM_SHAPE_FINGERPRINT>  (1) 
10074138 170 18050822697586698610
10090160 65 18410851079419925013
10967382 1 18409735040610158134
1100329 8 18196371643971024013
11578080 2 17557391359733720873
11719270 70 18409164433199604675
11796584 16 15936408961572367497
12236239 1 17775573035579980229
12293681 25 17751670713158670003
12553582 1 17833563292841695655
12596602 18 17418103117939422689
12788726 201 16174824099655025604
12839892 36 18337378383899816266
12969540 37 17974571299263983862
13052359 8 18265612280807951398
13140716 1 18194965364235637464
13583140 156 16878769612846081180
138480 1 18049726213251469590
13911987 19 18262242226034622981
14787075 74 17846494880633943304
14790565 3 18337966699957169492
14863182 85 18335435555306255782
15475509 84 17337045801431339145
16728300 4 17533750777261658690
17138139 8 17628045087891863215
17349148 13 18187367618660191484
17492 89 18193840336861432939
19591789 44 18265623267154920655
20028762 73 18199752621126457487
20101258 96 17618234905255578054
20511986 3 17988918939076222129
20739085 24 18335428911413939060
20775438 99 17467873447810356733
21033648 29 18268971207301113432
21054139 6 18199740509502961279
21197605 99 18048331221618941755
21796203 349 17548171863876114515
221490 88 18119816807047214951
22224240 67 18271522099782775225
22956985 138 18045217138000271954
23557571 272 17167861959613082661
23559900 14 17905035963429903955
23569917 315 18341332275201571534
33824 294 18409735045195327503
3383291 50 18339358562315622386
350125 39 18121785190458497909
352729 6 18265910226809974076
392239 28 17916872447027309409
4340502 62 18343022215660664041
465052 167 17821731662509739593
474229 33 18409164437162366540
5104073 3 18266464213704829889
58260988 647 16772419256792638076
58807428 26 18411975880189725322
6669772 16 18342747304117156286
9709674 26 17903352615871308325

>  <PUBCHEM_SHAPE_MULTIPOLES>  (1) 
488.79
9.99
4.61
1.05
8.16
6.92
0.22
-3.73
3.12
-4
-0.38
0.26
-0.32
0.44

>  <PUBCHEM_SHAPE_SELFOVERLAP>  (1) 
1060.439

>  <PUBCHEM_SHAPE_VOLUME>  (1) 
269.6

>  <PUBCHEM_COORDINATE_TYPE>  (1) 
2
5
10

$$$$
