22631
     RDKit          3D

  8  8  0  0  0  0  0  0  0  0999 V2000
    0.1368   -1.7410    1.3419 Cl  0  0  0  0  0  0  0  0  0  0  0  0
    2.2695   -0.7303   -0.3723 Cl  0  0  0  0  0  0  0  0  0  0  0  0
   -1.3826    1.1795    1.2310 Cl  0  0  0  0  0  0  0  0  0  0  0  0
    0.8550    2.2377   -0.3053 Cl  0  0  0  0  0  0  0  0  0  0  0  0
   -1.9648   -0.9740   -1.1077 Cl  0  0  0  0  0  0  0  0  0  0  0  0
    0.5723   -0.5552    0.1067 C   0  0  0  0  0  0  0  0  0  0  0  0
   -0.0848    0.7937    0.0874 C   0  0  0  0  0  0  0  0  0  0  0  0
   -0.4015   -0.2104   -0.9817 C   0  0  0  0  0  0  0  0  0  0  0  0
  1  6  1  0
  2  6  1  0
  3  7  1  0
  4  7  1  0
  5  8  1  0
  6  7  1  0
  6  8  1  0
  7  8  1  0
M  END
>  <PUBCHEM_COMPOUND_CID>  (1) 
22631

>  <PUBCHEM_CONFORMER_RMSD>  (1) 
0.4

>  <PUBCHEM_CONFORMER_DIVERSEORDER>  (1) 
1

>  <PUBCHEM_MMFF94_PARTIAL_CHARGES>  (1) 
9
1 -0.23
2 -0.23
3 -0.23
4 -0.23
5 -0.23
6 0.45
7 0.45
8 0.13
9 0.1

>  <PUBCHEM_EFFECTIVE_ROTOR_COUNT>  (1) 
0.6

>  <PUBCHEM_PHARMACOPHORE_FEATURES>  (1) 
0

>  <PUBCHEM_HEAVY_ATOM_COUNT>  (1) 
8

>  <PUBCHEM_ATOM_DEF_STEREO_COUNT>  (1) 
0

>  <PUBCHEM_ATOM_UDEF_STEREO_COUNT>  (1) 
0

>  <PUBCHEM_BOND_DEF_STEREO_COUNT>  (1) 
0

>  <PUBCHEM_BOND_UDEF_STEREO_COUNT>  (1) 
0

>  <PUBCHEM_ISOTOPIC_ATOM_COUNT>  (1) 
0

>  <PUBCHEM_COMPONENT_COUNT>  (1) 
1

>  <PUBCHEM_CACTVS_TAUTO_COUNT>  (1) 
1

>  <PUBCHEM_CONFORMER_ID>  (1) 
0000586700000001

>  <PUBCHEM_MMFF94_ENERGY>  (1) 
13.4203

>  <PUBCHEM_FEATURE_SELFOVERLAP>  (1) 
0

>  <PUBCHEM_SHAPE_FINGERPRINT>  (1) 
12423570 1 15939824143376898318
137420 1 11700735621622578087
20653091 64 18051097519447875599
21040471 1 17054981507993880115
241688 4 18340195298420084592
29004967 10 17916007139591942566
5084963 1 16605693972868336943
5943 1 14865160585046201909
68250623 7 18129117756078556845

>  <PUBCHEM_SHAPE_MULTIPOLES>  (1) 
173.99
2.21
2.16
1.37
0.18
0.76
0.23
-0.45
-0.62
0.43
0.48
-0.58
-0.3
-0.5

>  <PUBCHEM_SHAPE_SELFOVERLAP>  (1) 
297.272

>  <PUBCHEM_SHAPE_VOLUME>  (1) 
118.3

>  <PUBCHEM_COORDINATE_TYPE>  (1) 
2
5
10

$$$$
