22632
     RDKit          3D

 12 12  0  0  0  0  0  0  0  0999 V2000
    1.0973   -1.9416   -0.4294 O   0  0  0  0  0  0  0  0  0  0  0  0
    1.5642    1.4821    0.3531 O   0  0  0  0  0  0  0  0  0  0  0  0
    0.6552   -0.6207   -0.1335 N   0  0  0  0  0  0  0  0  0  0  0  0
    2.9846   -0.2794   -0.0305 N   0  0  0  0  0  0  0  0  0  0  0  0
   -0.6911   -0.2604   -0.0661 C   0  0  0  0  0  0  0  0  0  0  0  0
   -1.0827    1.0376   -0.3945 C   0  0  0  0  0  0  0  0  0  0  0  0
   -1.6453   -1.1980    0.3289 C   0  0  0  0  0  0  0  0  0  0  0  0
   -2.4286    1.3980   -0.3275 C   0  0  0  0  0  0  0  0  0  0  0  0
   -2.9912   -0.8375    0.3957 C   0  0  0  0  0  0  0  0  0  0  0  0
    1.7144    0.2894    0.0852 C   0  0  0  0  0  0  0  0  0  0  0  0
   -3.3827    0.4605    0.0674 C   0  0  0  0  0  0  0  0  0  0  0  0
    4.2060    0.4700    0.1512 C   0  0  0  0  0  0  0  0  0  0  0  0
  1  3  1  0
  2 10  2  0
  3  5  1  0
  3 10  1  0
  4 10  1  0
  4 12  1  0
  5  6  2  0
  5  7  1  0
  6  8  1  0
  7  9  2  0
  8 11  2  0
  9 11  1  0
M  END
>  <PUBCHEM_COMPOUND_CID>  (1) 
22632

>  <PUBCHEM_CONFORMER_RMSD>  (1) 
0.6

>  <PUBCHEM_CONFORMER_DIVERSEORDER>  (1) 
1
4
3
5
6
2

>  <PUBCHEM_MMFF94_PARTIAL_CHARGES>  (1) 
19
1 -0.44
10 0.69
11 -0.15
12 0.3
13 0.15
14 0.15
15 0.15
16 0.15
17 0.15
18 0.37
2 -0.57
22 0.4
3 -0.14
4 -0.73
5 0.12
6 -0.15
7 -0.15
8 -0.15
9 -0.15

>  <PUBCHEM_EFFECTIVE_ROTOR_COUNT>  (1) 
3

>  <PUBCHEM_PHARMACOPHORE_FEATURES>  (1) 
3
1 2 acceptor
1 4 donor
6 5 6 7 8 9 11 rings

>  <PUBCHEM_HEAVY_ATOM_COUNT>  (1) 
12

>  <PUBCHEM_ATOM_DEF_STEREO_COUNT>  (1) 
0

>  <PUBCHEM_ATOM_UDEF_STEREO_COUNT>  (1) 
0

>  <PUBCHEM_BOND_DEF_STEREO_COUNT>  (1) 
0

>  <PUBCHEM_BOND_UDEF_STEREO_COUNT>  (1) 
0

>  <PUBCHEM_ISOTOPIC_ATOM_COUNT>  (1) 
0

>  <PUBCHEM_COMPONENT_COUNT>  (1) 
1

>  <PUBCHEM_CACTVS_TAUTO_COUNT>  (1) 
2

>  <PUBCHEM_CONFORMER_ID>  (1) 
0000586800000001

>  <PUBCHEM_MMFF94_ENERGY>  (1) 
37.9904

>  <PUBCHEM_FEATURE_SELFOVERLAP>  (1) 
15.223

>  <PUBCHEM_SHAPE_FINGERPRINT>  (1) 
10608611 8 18410008801841786532
10857977 72 18260546766477548465
11132069 177 18335417980289595460
12932764 1 17489294283196622166
13024252 1 14706924043228825405
13214271 11 18409165532589828903
13380535 76 18409446968711769871
14144814 61 18408321060119644586
14325111 11 18410011035488212660
15219456 202 18339928108293662255
15775835 57 18040714719187434865
16945 1 18411141337847238565
18186145 218 17489871574557541480
19973954 147 18339365162904200965
200 152 17989196071571503703
20201158 50 18411981343082008075
20588541 1 18410013204251609317
20645464 45 18412549799383949959
20871998 184 18340213002476076519
21501502 16 18337386020383362187
23235685 24 18411411795863803664
23402539 116 18335129934598607991
23402655 69 18198891540634658069
23463225 33 18333448725252691092
2748010 2 18194116545717290597
369184 2 17385719193081260473
53812653 166 18413105048186755048
6333449 129 18409727366004740407
7364860 26 18194962946237835898

>  <PUBCHEM_SHAPE_MULTIPOLES>  (1) 
225.25
6.13
1.53
0.66
3.97
0.16
0
-0.88
-0.53
-0.35
0.1
-0.07
0
0.41

>  <PUBCHEM_SHAPE_SELFOVERLAP>  (1) 
461.071

>  <PUBCHEM_SHAPE_VOLUME>  (1) 
130

>  <PUBCHEM_COORDINATE_TYPE>  (1) 
2
5
10

$$$$
