22638
     RDKit          3D

 13 13  0  0  0  0  0  0  0  0999 V2000
   -1.9784    2.1522    0.0645 O   0  0  0  0  0  0  0  0  0  0  0  0
   -3.5865   -0.6478    0.7361 O   0  0  0  0  0  0  0  0  0  0  0  0
    2.4754    0.3792    0.1249 N   0  0  0  0  0  0  0  0  0  0  0  0
   -3.0234   -0.4242   -0.3449 N   0  0  0  0  0  0  0  0  0  0  0  0
    1.0842    0.1668    0.0052 C   0  0  0  0  0  0  0  0  0  0  0  0
    0.5730   -1.1150   -0.1984 C   0  0  0  0  0  0  0  0  0  0  0  0
    0.2186    1.2572    0.0924 C   0  0  0  0  0  0  0  0  0  0  0  0
   -0.8036   -1.3066   -0.3149 C   0  0  0  0  0  0  0  0  0  0  0  0
   -1.1582    1.0656   -0.0241 C   0  0  0  0  0  0  0  0  0  0  0  0
   -1.6692   -0.2163   -0.2278 C   0  0  0  0  0  0  0  0  0  0  0  0
    1.4779   -2.3003   -0.2955 C   0  0  0  0  0  0  0  0  0  0  0  0
    3.1669    1.2432   -0.8093 C   0  0  0  0  0  0  0  0  0  0  0  0
    3.2232   -0.2538    1.1919 C   0  0  0  0  0  0  0  0  0  0  0  0
  1  9  1  0
  2  4  2  0
  3  5  1  0
  3 12  1  0
  3 13  1  0
  4 10  1  0
  5  6  2  0
  5  7  1  0
  6  8  1  0
  6 11  1  0
  7  9  2  0
  8 10  2  0
  9 10  1  0
M  END
>  <PUBCHEM_COMPOUND_CID>  (1) 
22638

>  <PUBCHEM_CONFORMER_RMSD>  (1) 
0.6

>  <PUBCHEM_CONFORMER_DIVERSEORDER>  (1) 
2
1

>  <PUBCHEM_MMFF94_PARTIAL_CHARGES>  (1) 
16
1 -0.53
10 0.3
11 0.14
12 0.37
13 0.37
14 0.15
15 0.15
2 -0.16
25 0.45
3 -0.84
4 -0.14
5 0.1
6 -0.14
7 -0.15
8 -0.15
9 0.08

>  <PUBCHEM_EFFECTIVE_ROTOR_COUNT>  (1) 
2

>  <PUBCHEM_PHARMACOPHORE_FEATURES>  (1) 
3
1 1 donor
1 3 cation
6 5 6 7 8 9 10 rings

>  <PUBCHEM_HEAVY_ATOM_COUNT>  (1) 
13

>  <PUBCHEM_ATOM_DEF_STEREO_COUNT>  (1) 
0

>  <PUBCHEM_ATOM_UDEF_STEREO_COUNT>  (1) 
0

>  <PUBCHEM_BOND_DEF_STEREO_COUNT>  (1) 
0

>  <PUBCHEM_BOND_UDEF_STEREO_COUNT>  (1) 
0

>  <PUBCHEM_ISOTOPIC_ATOM_COUNT>  (1) 
0

>  <PUBCHEM_COMPONENT_COUNT>  (1) 
1

>  <PUBCHEM_CACTVS_TAUTO_COUNT>  (1) 
4

>  <PUBCHEM_CONFORMER_ID>  (1) 
0000586E00000002

>  <PUBCHEM_MMFF94_ENERGY>  (1) 
56.9581

>  <PUBCHEM_FEATURE_SELFOVERLAP>  (1) 
15.223

>  <PUBCHEM_SHAPE_FINGERPRINT>  (1) 
10219947 1 18336264634360365191
11132069 177 18271799163717133954
11680986 33 17981037518709538666
12932764 1 17561075895542071164
13140716 1 18124872623325132787
13380535 21 18197792002598631409
13380535 76 18194671584483312541
13538477 17 18116426132462353850
14325111 11 18410854339463723772
14648413 74 17980201889777353471
15219456 202 18198621042792274879
15775835 57 18202281450408813074
16945 1 18342450478124955999
19026448 4 16153696652734200727
193761 8 18124035624277280847
19973954 147 18267304222754212799
20510252 161 18273496779875032040
20511035 2 17840294532685009934
20559304 39 18335698351960760656
20645476 183 17823987938138133846
21040471 1 18341890758292889780
21501502 16 18268149756002197857
22344851 341 18193833734789538402
2334 1 17692243458106676999
23402655 69 18269819945100382717
23463225 33 18335132068980757858
23552423 10 18264491680648016030
2748010 2 18196934370559467143
369184 2 16877936144271610356
5084963 1 18130794447165954540
528886 8 18341048643738788386
53812653 166 18131059407645597161
53812653 8 18410016571711749756
57177213 63 18408612443775863118
7364860 26 17986106314748305950

>  <PUBCHEM_SHAPE_MULTIPOLES>  (1) 
245.83
4.96
1.97
0.83
0.44
0.21
0.1
-0.44
0.71
-0.14
-0.24
-0.42
0.01
-0.22

>  <PUBCHEM_SHAPE_SELFOVERLAP>  (1) 
509.117

>  <PUBCHEM_SHAPE_VOLUME>  (1) 
143.1

>  <PUBCHEM_COORDINATE_TYPE>  (1) 
2
5
10

$$$$
