22644
     RDKit          3D

 15 16  0  0  1  0  0  0  0  0999 V2000
    2.7243    1.5569    0.3748 O   0  0  0  0  0  0  0  0  0  0  0  0
    2.8857   -1.1801   -0.0687 O   0  0  0  0  0  0  0  0  0  0  0  0
   -3.2114   -0.9171    0.5071 N   0  0  0  0  0  0  0  0  0  0  0  0
   -3.3486    0.4675    0.0346 C   0  0  0  0  0  0  0  0  0  0  0  0
   -2.1670    1.3231    0.5222 C   0  0  0  0  0  0  0  0  0  0  0  0
   -0.8269    0.6567    0.3358 C   0  0  0  0  0  0  0  0  0  0  0  0
   -0.7458   -0.7314    0.1322 C   0  0  0  0  0  0  0  0  0  0  0  0
   -1.9957   -1.5655    0.0017 C   0  0  0  0  0  0  0  0  0  0  0  0
   -3.5463    0.5542   -1.4824 C   0  0  0  0  0  0  0  0  0  0  0  0
    0.3486    1.4138    0.4264 C   0  0  0  0  0  0  0  0  0  0  0  0
    0.5107   -1.3351   -0.0122 C   0  0  0  0  0  0  0  0  0  0  0  0
    1.5940    0.8012    0.2905 C   0  0  0  0  0  0  0  0  0  0  0  0
    1.6749   -0.5714    0.0696 C   0  0  0  0  0  0  0  0  0  0  0  0
    3.2223    2.1158   -0.8391 C   0  0  0  0  0  0  0  0  0  0  0  0
    2.8813   -2.5887   -0.2924 C   0  0  0  0  0  0  0  0  0  0  0  0
  1 12  1  0
  1 14  1  0
  2 13  1  0
  2 15  1  0
  3  4  1  0
  3  8  1  0
  4  5  1  0
  4  9  1  0
  5  6  1  0
  6  7  2  0
  6 10  1  0
  7  8  1  0
  7 11  1  0
 10 12  2  0
 11 13  2  0
 12 13  1  0
M  END
>  <PUBCHEM_COMPOUND_CID>  (1) 
22644

>  <PUBCHEM_CONFORMER_RMSD>  (1) 
0.6

>  <PUBCHEM_CONFORMER_DIVERSEORDER>  (1) 
6
5
4
3
2
1

>  <PUBCHEM_MMFF94_PARTIAL_CHARGES>  (1) 
17
1 -0.36
10 -0.15
11 -0.15
12 0.08
13 0.08
14 0.28
15 0.28
2 -0.36
21 0.36
25 0.15
26 0.15
3 -0.9
4 0.27
5 0.14
6 -0.14
7 -0.14
8 0.41

>  <PUBCHEM_EFFECTIVE_ROTOR_COUNT>  (1) 
2.8

>  <PUBCHEM_PHARMACOPHORE_FEATURES>  (1) 
6
1 1 acceptor
1 2 acceptor
1 3 cation
1 3 donor
6 3 4 5 6 7 8 rings
6 6 7 10 11 12 13 rings

>  <PUBCHEM_HEAVY_ATOM_COUNT>  (1) 
15

>  <PUBCHEM_ATOM_DEF_STEREO_COUNT>  (1) 
0

>  <PUBCHEM_ATOM_UDEF_STEREO_COUNT>  (1) 
1

>  <PUBCHEM_BOND_DEF_STEREO_COUNT>  (1) 
0

>  <PUBCHEM_BOND_UDEF_STEREO_COUNT>  (1) 
0

>  <PUBCHEM_ISOTOPIC_ATOM_COUNT>  (1) 
0

>  <PUBCHEM_COMPONENT_COUNT>  (1) 
1

>  <PUBCHEM_CACTVS_TAUTO_COUNT>  (1) 
1

>  <PUBCHEM_CONFORMER_ID>  (1) 
0000587400000006

>  <PUBCHEM_MMFF94_ENERGY>  (1) 
52.4106

>  <PUBCHEM_FEATURE_SELFOVERLAP>  (1) 
30.472

>  <PUBCHEM_SHAPE_FINGERPRINT>  (1) 
10465860 71 18056781840055522438
10608611 8 18335416872383289901
10922523 26 18259982678120364997
10967382 1 18340488957934034434
10980938 120 18340206392220331338
12932764 1 17274820289740148505
13140716 1 18339928125404810707
13296908 3 18334297569635742011
13380535 21 18338526338300043867
13380535 76 18337106882058543946
13571099 22 18412257316247758645
13897977 150 18411417357952012025
14250199 8 18412260597523658133
14325111 11 18411138047781204497
14576447 43 17771890891249989247
14617773 55 17774453680522678905
14897335 6 18340199786608141760
14911166 2 18265049124574689751
15219456 202 18335420183855536827
15442244 35 18197221351779151256
15536298 74 18272373066406670890
16945 1 18264206898567424147
18186145 218 18114179696798927819
18619055 16 18412541015922615493
20201158 50 18341328877612615631
20645476 183 17682688668303114524
20645477 70 18411696569734243367
20671657 53 18194684769901113950
21501502 16 18342463625146501593
21501925 9 18341884152622814722
21524375 3 17899136298138037452
221490 88 18408896139114035458
23114952 82 18261108543662305380
2334 1 18339644537314797962
23402539 116 17910102513380428814
23402655 69 18343007901294400069
23463225 33 18341334396613689194
23552423 10 18409169904666303466
23559900 14 18339357475271625850
2748010 2 18410578417600126067
3071541 158 18263084327587186150
58051976 378 18340487871502955156
63268167 104 18413109480656308209
7364860 26 18342740706809466298
74978 22 18336827498472703283
8030462 33 18131631205368823969
81228 2 17621612609592703458
81539 233 18261672679390670676
8809292 202 18334584512169533395

>  <PUBCHEM_SHAPE_MULTIPOLES>  (1) 
291.97
6.04
2.36
0.88
1.14
0.44
-0.24
-0.35
-1.34
-2.31
-0.2
0.43
-0.22
0.03

>  <PUBCHEM_SHAPE_SELFOVERLAP>  (1) 
610.779

>  <PUBCHEM_SHAPE_VOLUME>  (1) 
165.2

>  <PUBCHEM_COORDINATE_TYPE>  (1) 
2
5
10

$$$$
