22646
     RDKit          3D

 16 17  0  0  1  0  0  0  0  0999 V2000
   -2.7117    1.6778    0.5924 O   0  0  0  0  0  0  0  0  0  0  0  0
   -3.2413   -0.9920    0.0372 O   0  0  0  0  0  0  0  0  0  0  0  0
    3.1711   -0.1101   -0.1715 N   0  0  0  0  0  0  0  0  0  0  0  0
    2.1390    0.9125    0.1502 C   0  0  0  0  0  0  0  0  0  0  0  0
    0.6987    0.3944    0.1212 C   0  0  0  0  0  0  0  0  0  0  0  0
    2.8216   -1.4379    0.3469 C   0  0  0  0  0  0  0  0  0  0  0  0
    1.5456   -1.9334   -0.3260 C   0  0  0  0  0  0  0  0  0  0  0  0
    0.4200   -0.9642   -0.1078 C   0  0  0  0  0  0  0  0  0  0  0  0
    2.2901    2.0756   -0.8492 C   0  0  0  0  0  0  0  0  0  0  0  0
   -0.3761    1.2637    0.3776 C   0  0  0  0  0  0  0  0  0  0  0  0
    4.4928    0.2727    0.3399 C   0  0  0  0  0  0  0  0  0  0  0  0
   -0.9070   -1.4154   -0.1517 C   0  0  0  0  0  0  0  0  0  0  0  0
   -1.6942    0.8051    0.3488 C   0  0  0  0  0  0  0  0  0  0  0  0
   -1.9600   -0.5323    0.0748 C   0  0  0  0  0  0  0  0  0  0  0  0
   -3.2631    2.3603   -0.5319 C   0  0  0  0  0  0  0  0  0  0  0  0
   -3.4255   -2.3768   -0.2509 C   0  0  0  0  0  0  0  0  0  0  0  0
  1 13  1  0
  1 15  1  0
  2 14  1  0
  2 16  1  0
  3  4  1  0
  3  6  1  0
  3 11  1  0
  4  5  1  0
  4  9  1  0
  5  8  2  0
  5 10  1  0
  6  7  1  0
  7  8  1  0
  8 12  1  0
 10 13  2  0
 12 14  2  0
 13 14  1  0
M  END
>  <PUBCHEM_COMPOUND_CID>  (1) 
22646

>  <PUBCHEM_CONFORMER_RMSD>  (1) 
0.6

>  <PUBCHEM_CONFORMER_DIVERSEORDER>  (1) 
5
7
8
9
2
3
4
6
1

>  <PUBCHEM_MMFF94_PARTIAL_CHARGES>  (1) 
17
1 -0.36
10 -0.15
11 0.27
12 -0.15
13 0.08
14 0.08
15 0.28
16 0.28
2 -0.36
25 0.15
29 0.15
3 -0.81
4 0.41
5 -0.14
6 0.27
7 0.14
8 -0.14

>  <PUBCHEM_EFFECTIVE_ROTOR_COUNT>  (1) 
2.8

>  <PUBCHEM_PHARMACOPHORE_FEATURES>  (1) 
5
1 1 acceptor
1 2 acceptor
1 3 cation
6 3 4 5 6 7 8 rings
6 5 8 10 12 13 14 rings

>  <PUBCHEM_HEAVY_ATOM_COUNT>  (1) 
16

>  <PUBCHEM_ATOM_DEF_STEREO_COUNT>  (1) 
0

>  <PUBCHEM_ATOM_UDEF_STEREO_COUNT>  (1) 
1

>  <PUBCHEM_BOND_DEF_STEREO_COUNT>  (1) 
0

>  <PUBCHEM_BOND_UDEF_STEREO_COUNT>  (1) 
0

>  <PUBCHEM_ISOTOPIC_ATOM_COUNT>  (1) 
0

>  <PUBCHEM_COMPONENT_COUNT>  (1) 
1

>  <PUBCHEM_CACTVS_TAUTO_COUNT>  (1) 
1

>  <PUBCHEM_CONFORMER_ID>  (1) 
0000587600000005

>  <PUBCHEM_MMFF94_ENERGY>  (1) 
61.3177

>  <PUBCHEM_FEATURE_SELFOVERLAP>  (1) 
25.397

>  <PUBCHEM_SHAPE_FINGERPRINT>  (1) 
10062212 137 18410566271585619890
10608611 8 18411979148185161664
10967382 1 18122908620542750563
11132069 177 18338795611686129760
11680986 33 18198629821795365134
11806522 49 18338232781902355618
12382932 28 18270398287403767440
12500047 106 18339635633868945641
12730499 353 17540532419386292629
13140716 1 18268434538019538731
13380535 21 18269847436267756139
13380535 76 18198056985053678951
14144814 61 18410855447538782618
14178342 30 18338222787497445674
14325111 11 18412265017150611088
14897335 6 18340201873830398257
15196674 1 18411699868569573058
15442244 35 18337670793953036962
15536298 74 18272090449000600246
15775835 57 18335989666438559976
16945 1 18265621055151629146
18186145 218 18198914621071241228
19591789 44 15597246277791135003
200 152 18271796973684856807
20510252 161 18202567301724992768
20559304 39 18338800134276168776
21267235 1 18339370754688201058
21501502 16 18408889533364072073
2334 1 18412266146610887387
23402539 116 18340477980230104839
23463225 33 18409731768129921450
23552423 10 18408045108449939802
23557571 272 17989212542132884030
23558518 356 18187931724080894665
23559900 14 18129097828216631114
25610 137 18265338502486410155
2748010 2 18269846332419203543
3312278 4 18343303639081943136
335352 9 18123188996271792286
34934 24 18262795147402443984
350125 39 18339082691152374712
5104073 3 18412542090060261282
58051976 100 18408888438353348053
69090 78 18266175042115030057
7364860 26 18056763126888463470
74978 22 18337955575901337821
7832392 63 18338237038030134812
9709674 26 18410862074584143082

>  <PUBCHEM_SHAPE_MULTIPOLES>  (1) 
312.55
6.62
2.61
0.73
1.36
0.15
-0.03
0.12
0.02
-1.76
-0.41
0.05
0.15
-0.3

>  <PUBCHEM_SHAPE_SELFOVERLAP>  (1) 
651.235

>  <PUBCHEM_SHAPE_VOLUME>  (1) 
180.3

>  <PUBCHEM_COORDINATE_TYPE>  (1) 
2
5
10

$$$$
