22647
     RDKit          3D

 16 18  0  0  0  0  0  0  0  0999 V2000
    0.0001    1.6216    0.0001 N   0  0  0  0  0  0  0  0  0  0  0  0
    0.0001   -1.2816    0.0001 C   0  0  0  0  0  0  0  0  0  0  0  0
   -1.2955   -0.4382   -0.0001 C   0  0  0  0  0  0  0  0  0  0  0  0
    1.2955   -0.4381   -0.0002 C   0  0  0  0  0  0  0  0  0  0  0  0
    0.0003   -2.1721    1.2666 C   0  0  0  0  0  0  0  0  0  0  0  0
    0.0001   -2.1729   -1.2658 C   0  0  0  0  0  0  0  0  0  0  0  0
   -1.2378    0.9690    0.0002 C   0  0  0  0  0  0  0  0  0  0  0  0
    1.2378    0.9691    0.0000 C   0  0  0  0  0  0  0  0  0  0  0  0
   -2.5639   -1.0519   -0.0003 C   0  0  0  0  0  0  0  0  0  0  0  0
    2.5638   -1.0518    0.0001 C   0  0  0  0  0  0  0  0  0  0  0  0
   -2.4223    1.7227    0.0003 C   0  0  0  0  0  0  0  0  0  0  0  0
    2.4222    1.7227   -0.0002 C   0  0  0  0  0  0  0  0  0  0  0  0
   -3.7357   -0.2934   -0.0004 C   0  0  0  0  0  0  0  0  0  0  0  0
    3.7356   -0.2934   -0.0001 C   0  0  0  0  0  0  0  0  0  0  0  0
   -3.6650    1.0941    0.0000 C   0  0  0  0  0  0  0  0  0  0  0  0
    3.6649    1.0942   -0.0002 C   0  0  0  0  0  0  0  0  0  0  0  0
  1  7  1  0
  1  8  1  0
  2  3  1  0
  2  4  1  0
  2  5  1  0
  2  6  1  0
  3  7  2  0
  3  9  1  0
  4  8  2  0
  4 10  1  0
  7 11  1  0
  8 12  1  0
  9 13  2  0
 10 14  2  0
 11 15  2  0
 12 16  2  0
 13 15  1  0
 14 16  1  0
M  END
>  <PUBCHEM_COMPOUND_CID>  (1) 
22647

>  <PUBCHEM_CONFORMER_RMSD>  (1) 
0.4

>  <PUBCHEM_CONFORMER_DIVERSEORDER>  (1) 
1

>  <PUBCHEM_MMFF94_PARTIAL_CHARGES>  (1) 
23
1 -0.6
10 -0.15
11 -0.15
12 -0.15
13 -0.15
14 -0.15
15 -0.15
16 -0.15
2 0.29
23 0.4
24 0.15
25 0.15
26 0.15
27 0.15
28 0.15
29 0.15
3 -0.14
30 0.15
31 0.15
4 -0.14
7 0.1
8 0.1
9 -0.15

>  <PUBCHEM_EFFECTIVE_ROTOR_COUNT>  (1) 
0.4

>  <PUBCHEM_PHARMACOPHORE_FEATURES>  (1) 
6
1 1 cation
1 1 donor
3 2 5 6 hydrophobe
6 1 2 3 4 7 8 rings
6 3 7 9 11 13 15 rings
6 4 8 10 12 14 16 rings

>  <PUBCHEM_HEAVY_ATOM_COUNT>  (1) 
16

>  <PUBCHEM_ATOM_DEF_STEREO_COUNT>  (1) 
0

>  <PUBCHEM_ATOM_UDEF_STEREO_COUNT>  (1) 
0

>  <PUBCHEM_BOND_DEF_STEREO_COUNT>  (1) 
0

>  <PUBCHEM_BOND_UDEF_STEREO_COUNT>  (1) 
0

>  <PUBCHEM_ISOTOPIC_ATOM_COUNT>  (1) 
0

>  <PUBCHEM_COMPONENT_COUNT>  (1) 
1

>  <PUBCHEM_CACTVS_TAUTO_COUNT>  (1) 
1

>  <PUBCHEM_CONFORMER_ID>  (1) 
0000587700000001

>  <PUBCHEM_MMFF94_ENERGY>  (1) 
62.4653

>  <PUBCHEM_FEATURE_SELFOVERLAP>  (1) 
30.487

>  <PUBCHEM_SHAPE_FINGERPRINT>  (1) 
10062212 137 18341602698910080055
10411042 1 15888840395742037229
10608611 8 18410571786128656800
10967382 1 18410575058909125380
11132069 177 18412258428375418913
11471102 20 18410851036317277741
12035759 4 18056730283178547735
12491281 212 18272381866262001632
13140716 1 18410573942202142400
13221675 6 18410572889934836130
13380535 76 18410857659151592743
13897977 150 18411135809971393877
14325111 11 18410856563950905920
15196674 1 18410575088958202117
15219456 202 18341900645170585175
15309172 13 18343310279169993371
15442244 35 18266740169305484810
15536298 74 18343019978262232172
15775835 57 18410858758663201028
16945 1 18410855460128428135
18186145 218 18335984190202250972
193761 8 17690279309353728076
200 152 18059564798675046917
20510252 161 18344149206463190313
20511035 2 18194127532354124332
20602899 9 16773529844772246678
20645476 183 17751378363340089414
20645477 70 18268142072696095845
21267235 1 18410864260516424131
21501502 16 18410855468718115885
21524375 3 18410854360616579494
231179 274 17968931994645864461
2334 1 18410855494493499725
23402539 116 18272642467892813052
23419403 2 16037665379443896772
23463225 33 18408885113974755724
23559900 14 18342738516782353120
25 1 18409448046611014908
2748010 2 18411420613399988037
2871803 45 18335412483337936335
298252 57 18273210915236029098
335352 9 18122343467281708284
43471831 8 18260824869451673627
5104073 3 18410575084679086049
528886 8 18341607105430156539
53812653 166 18412541007322352496
54173680 148 18047756180498774811
6138700 20 18194969531187721822
69090 78 18201433718095413422
7364860 26 18196372507238442479
81228 2 17833533970751241115
84936 31 16485566490742170374
8809292 202 18334019422926447875
9709674 26 18339647844824848134

>  <PUBCHEM_SHAPE_MULTIPOLES>  (1) 
324.29
6.07
2.26
0.81
0
0.36
0
-1.97
0
0
0
0
0.45
0

>  <PUBCHEM_SHAPE_SELFOVERLAP>  (1) 
714.7

>  <PUBCHEM_SHAPE_VOLUME>  (1) 
172.6

>  <PUBCHEM_COORDINATE_TYPE>  (1) 
2
5
10

$$$$
