2264
     RDKit          3D

 24 27  0  0  1  0  0  0  0  0999 V2000
    1.8741   -4.2541   -0.0868 Cl  0  0  0  0  0  0  0  0  0  0  0  0
   -0.4622    1.3430   -1.3469 O   0  0  0  0  0  0  0  0  0  0  0  0
    1.8537    1.6126   -0.2352 O   0  0  0  0  0  0  0  0  0  0  0  0
    5.2229    2.4380    0.5358 O   0  0  0  0  0  0  0  0  0  0  0  0
   -5.2667   -0.6275    0.0081 N   0  0  0  0  0  0  0  0  0  0  0  0
   -1.6780   -0.3638   -0.3530 N   0  0  0  0  0  0  0  0  0  0  0  0
    4.2825    0.3073    0.4040 N   0  0  0  0  0  0  0  0  0  0  0  0
   -3.4288    1.1341    0.5464 C   0  0  0  0  0  0  0  0  0  0  0  0
   -2.9843    0.1962   -0.5938 C   0  0  0  0  0  0  0  0  0  0  0  0
   -4.7295    1.8139    0.0862 C   0  0  0  0  0  0  0  0  0  0  0  0
   -3.7742    0.2916    1.7873 C   0  0  0  0  0  0  0  0  0  0  0  0
   -4.0513   -0.8991   -0.7946 C   0  0  0  0  0  0  0  0  0  0  0  0
   -5.7561    0.7348   -0.2984 C   0  0  0  0  0  0  0  0  0  0  0  0
   -4.9038   -0.6916    1.4408 C   0  0  0  0  0  0  0  0  0  0  0  0
   -0.5095    0.2671   -0.7563 C   0  0  0  0  0  0  0  0  0  0  0  0
    0.7394   -0.4435   -0.4607 C   0  0  0  0  0  0  0  0  0  0  0  0
    1.9297    0.2472   -0.2163 C   0  0  0  0  0  0  0  0  0  0  0  0
    0.7218   -1.8347   -0.4205 C   0  0  0  0  0  0  0  0  0  0  0  0
    3.1087   -0.4388    0.0977 C   0  0  0  0  0  0  0  0  0  0  0  0
    1.8885   -2.5323   -0.1212 C   0  0  0  0  0  0  0  0  0  0  0  0
    3.0740   -1.8404    0.1428 C   0  0  0  0  0  0  0  0  0  0  0  0
    3.0924    2.2242   -0.5219 C   0  0  0  0  0  0  0  0  0  0  0  0
    4.2994    1.6879    0.2209 C   0  0  0  0  0  0  0  0  0  0  0  0
    5.4572   -0.3720    0.9359 C   0  0  0  0  0  0  0  0  0  0  0  0
  1 20  1  0
  2 15  2  0
  3 17  1  0
  3 22  1  0
  4 23  2  0
  5 12  1  0
  5 13  1  0
  5 14  1  0
  6  9  1  0
  6 15  1  0
  7 19  1  0
  7 23  1  0
  7 24  1  0
  8  9  1  0
  8 10  1  0
  8 11  1  0
  9 12  1  0
 10 13  1  0
 11 14  1  0
 15 16  1  0
 16 17  1  0
 16 18  2  0
 17 19  2  0
 18 20  1  0
 19 21  1  0
 20 21  2  0
 22 23  1  0
M  END
>  <PUBCHEM_COMPOUND_CID>  (1) 
2264

>  <PUBCHEM_CONFORMER_RMSD>  (1) 
0.8

>  <PUBCHEM_CONFORMER_DIVERSEORDER>  (1) 
4
8
7
10
5
2
3
11
6
1
9

>  <PUBCHEM_MMFF94_PARTIAL_CHARGES>  (1) 
24
1 -0.18
12 0.27
13 0.27
14 0.27
15 0.54
16 0.09
17 0.08
18 -0.15
19 0.12
2 -0.57
20 0.18
21 -0.15
22 0.34
23 0.57
24 0.3
3 -0.36
37 0.37
38 0.15
39 0.15
4 -0.57
5 -0.81
6 -0.73
7 -0.48
9 0.3

>  <PUBCHEM_EFFECTIVE_ROTOR_COUNT>  (1) 
4.8

>  <PUBCHEM_PHARMACOPHORE_FEATURES>  (1) 
8
1 2 acceptor
1 3 acceptor
1 4 acceptor
1 5 cation
1 6 donor
6 16 17 18 19 20 21 rings
6 3 7 17 19 22 23 rings
8 5 8 9 10 11 12 13 14 rings

>  <PUBCHEM_HEAVY_ATOM_COUNT>  (1) 
24

>  <PUBCHEM_ATOM_DEF_STEREO_COUNT>  (1) 
0

>  <PUBCHEM_ATOM_UDEF_STEREO_COUNT>  (1) 
1

>  <PUBCHEM_BOND_DEF_STEREO_COUNT>  (1) 
0

>  <PUBCHEM_BOND_UDEF_STEREO_COUNT>  (1) 
0

>  <PUBCHEM_ISOTOPIC_ATOM_COUNT>  (1) 
0

>  <PUBCHEM_COMPONENT_COUNT>  (1) 
1

>  <PUBCHEM_CACTVS_TAUTO_COUNT>  (1) 
2

>  <PUBCHEM_CONFORMER_ID>  (1) 
000008D800000004

>  <PUBCHEM_MMFF94_ENERGY>  (1) 
73.9986

>  <PUBCHEM_FEATURE_SELFOVERLAP>  (1) 
40.641

>  <PUBCHEM_SHAPE_FINGERPRINT>  (1) 
10090160 65 18411695500023473546
10411042 1 17763180237875784110
10493431 412 18339637975232595004
10498660 4 14835850521643523515
10670039 82 16056613027308063632
10835480 77 18336257952183004893
11045977 3 17894915143637822776
11370993 144 18191588549900735053
114674 6 18042128652296944426
11796584 16 14056723439190255681
12107183 9 17622168962544709353
12236239 1 17989203754930477005
12390115 104 18124889099352436396
12516196 113 8935005867312929732
12596602 18 17775005708680097795
12633257 1 18040987445442429402
12892183 10 18410864231089722805
13140716 1 18336542837004733818
13533116 47 18342736278988600723
13540713 5 17974273624809264278
13583140 156 18202559597213111297
13631057 29 17986665090421004655
14289901 80 18342457015587439499
14341114 176 18412269423845059481
14341114 328 18060423542356178609
14386348 63 17385726881099159019
14739800 52 17346020208868575322
14787075 74 18131069389286509121
14790565 3 18265617770050566492
14849402 71 18270959172048521912
14955137 171 18267862775553192786
15188451 53 16733269083685780779
15475509 35 16516227554453032320
16126227 98 18050289460386348348
17844677 252 18270407074975478589
1813 80 17022911116397167117
18222031 100 8214156152917957436
19377110 9 18131641093048119555
19784866 9 18343299262800360368
1979834 28 18334020492452269868
20157964 124 18411416168878918077
20511986 3 18201140093299781117
20600515 1 16660372480302397685
20739085 24 18260832600920307692
21065198 48 18201721709170456259
21065198 57 18265336101820997549
21065199 12 18335146358574328473
21197605 99 18263932205608766619
21859007 373 17315343736345013125
22224240 67 18341039796654739474
23557571 272 17023460837677139613
23559900 14 18195244412877488275
23845131 108 18337383967415706466
3178227 256 18335138670931236538
335352 9 18411698803871325710
341906 21 16200150920613853499
3421961 26 18194119612424621366
350125 39 18409446965092023028
3633792 109 18339069390735554557
42630746 31 18341892987476044086
465052 167 17749388166027039674
474 4 18411981381520396906
5104073 3 18335991857383383209
59755656 215 18411141290808508862
602551 16 15936697054919152984
633830 44 18273213127628951276
8272917 22 18341050731340918262
9709674 26 18262526901215421635
9995097 60 18262511494756229133

>  <PUBCHEM_SHAPE_MULTIPOLES>  (1) 
463.23
13.02
3.06
1.07
7.5
2.51
0.27
-4.45
3.43
-4.2
-0.17
0.87
-0.06
0.16

>  <PUBCHEM_SHAPE_SELFOVERLAP>  (1) 
999.716

>  <PUBCHEM_SHAPE_VOLUME>  (1) 
253.9

>  <PUBCHEM_COORDINATE_TYPE>  (1) 
2
5
10

$$$$
