22640
     RDKit          3D

 21 22  0  0  0  0  0  0  0  0999 V2000
   -5.0190    0.7918   -0.0656 O   0  0  0  0  0  0  0  0  0  0  0  0
    1.3326    2.1032   -0.1318 O   0  0  0  0  0  0  0  0  0  0  0  0
   -3.5257   -2.9886   -0.3902 O   0  0  0  0  0  0  0  0  0  0  0  0
   -5.1971   -1.8504    0.6478 O   0  0  0  0  0  0  0  0  0  0  0  0
    0.4621   -0.0694    0.0345 N   0  0  0  0  0  0  0  0  0  0  0  0
    6.7521   -1.2039    0.0553 N   0  0  0  0  0  0  0  0  0  0  0  0
   -0.9372    0.1498    0.0093 C   0  0  0  0  0  0  0  0  0  0  0  0
   -2.7950    1.6598   -0.1199 C   0  0  0  0  0  0  0  0  0  0  0  0
   -1.4171    1.4440   -0.0953 C   0  0  0  0  0  0  0  0  0  0  0  0
   -3.1708   -0.7195    0.0653 C   0  0  0  0  0  0  0  0  0  0  0  0
   -3.6719    0.5780   -0.0396 C   0  0  0  0  0  0  0  0  0  0  0  0
   -1.7929   -0.9353    0.0901 C   0  0  0  0  0  0  0  0  0  0  0  0
    2.8472    0.3417   -0.0124 C   0  0  0  0  0  0  0  0  0  0  0  0
   -3.3117    3.0561   -0.2341 C   0  0  0  0  0  0  0  0  0  0  0  0
    1.4947    0.8761   -0.0342 C   0  0  0  0  0  0  0  0  0  0  0  0
    3.8960    1.1182    0.4800 C   0  0  0  0  0  0  0  0  0  0  0  0
    3.0952   -0.9479   -0.4828 C   0  0  0  0  0  0  0  0  0  0  0  0
   -4.0677   -1.8639    0.1503 C   0  0  0  0  0  0  0  0  0  0  0  0
    5.4410   -0.6843    0.0317 C   0  0  0  0  0  0  0  0  0  0  0  0
    5.1929    0.6052    0.5020 C   0  0  0  0  0  0  0  0  0  0  0  0
    4.3922   -1.4608   -0.4606 C   0  0  0  0  0  0  0  0  0  0  0  0
  1 11  1  0
  2 15  2  0
  3 18  1  0
  4 18  2  0
  5  7  1  0
  5 15  1  0
  6 19  1  0
  7  9  1  0
  7 12  2  0
  8  9  2  0
  8 11  1  0
  8 14  1  0
 10 11  2  0
 10 12  1  0
 10 18  1  0
 13 15  1  0
 13 16  2  0
 13 17  1  0
 16 20  1  0
 17 21  2  0
 19 20  2  0
 19 21  1  0
M  END
>  <PUBCHEM_COMPOUND_CID>  (1) 
22640

>  <PUBCHEM_CONFORMER_RMSD>  (1) 
0.6

>  <PUBCHEM_CONFORMER_DIVERSEORDER>  (1) 
2
9
5
7
6
10
3
8
4
1

>  <PUBCHEM_MMFF94_PARTIAL_CHARGES>  (1) 
32
1 -0.53
10 0.09
11 0.08
12 -0.15
13 0.09
14 0.14
15 0.54
16 -0.15
17 -0.15
18 0.63
19 0.1
2 -0.57
20 -0.15
21 -0.15
22 0.15
23 0.15
24 0.37
28 0.15
29 0.15
3 -0.65
30 0.15
31 0.15
32 0.45
33 0.4
34 0.4
35 0.5
4 -0.57
5 -0.55
6 -0.9
7 0.12
8 -0.14
9 -0.15

>  <PUBCHEM_EFFECTIVE_ROTOR_COUNT>  (1) 
4

>  <PUBCHEM_PHARMACOPHORE_FEATURES>  (1) 
10
1 1 donor
1 2 acceptor
1 3 acceptor
1 4 acceptor
1 5 donor
1 6 cation
1 6 donor
3 3 4 18 anion
6 13 16 17 19 20 21 rings
6 7 8 9 10 11 12 rings

>  <PUBCHEM_HEAVY_ATOM_COUNT>  (1) 
21

>  <PUBCHEM_ATOM_DEF_STEREO_COUNT>  (1) 
0

>  <PUBCHEM_ATOM_UDEF_STEREO_COUNT>  (1) 
0

>  <PUBCHEM_BOND_DEF_STEREO_COUNT>  (1) 
0

>  <PUBCHEM_BOND_UDEF_STEREO_COUNT>  (1) 
0

>  <PUBCHEM_ISOTOPIC_ATOM_COUNT>  (1) 
0

>  <PUBCHEM_COMPONENT_COUNT>  (1) 
1

>  <PUBCHEM_CACTVS_TAUTO_COUNT>  (1) 
18

>  <PUBCHEM_CONFORMER_ID>  (1) 
0000587000000002

>  <PUBCHEM_MMFF94_ENERGY>  (1) 
81.3021

>  <PUBCHEM_FEATURE_SELFOVERLAP>  (1) 
50.803

>  <PUBCHEM_SHAPE_FINGERPRINT>  (1) 
10319926 262 18340752764169534066
10411042 1 18265335200321379715
105312 117 17751628867650916781
10595046 47 18333454261792791308
11315181 36 18333452032388376808
11405975 8 18341331106874611992
11524674 6 16988846089979526863
11545043 162 18343015584579358120
11796584 16 18267583512389388642
12107183 9 17686613550766836216
12236239 1 17676209065343312764
12403259 226 18341326811860161353
12507560 40 18272083916307948312
12916754 54 18338238266633679993
13167823 11 18408319982447044930
13288520 33 18409168809528582261
13583140 156 17917702509328489356
13675066 3 18130782369781436096
14251751 18 18412546539282414626
14341114 176 18412830200371150680
14420673 8 18267307526059369222
14508225 48 18336815499067529245
15042514 8 18336831991757444747
15196674 1 18410856581547253160
15352361 1 18410856589741496924
15788980 27 18186524293637007952
17492 89 18264772240807229047
17834072 33 18334298699454883428
17844677 252 18410862070552731576
1813 80 17385724703508679012
18927931 339 18410579491706012167
19141452 34 18411703179704476253
19433438 28 18342173380078668200
200 152 17847056679551498357
20374829 77 18335137579423798578
20645477 70 17488745567355638182
21033648 29 17560220462790348624
21065198 57 18412543185066073584
21065199 12 18343016705523760384
21065201 7 18336256877892268992
21267235 1 18408611365512231402
221490 88 18338239374555764368
23402539 116 18335134306268361543
23557571 272 18271528602479448716
23559900 14 18340196488020965833
239999 70 18272655637085702734
26918003 58 18131631166919554360
3004659 81 18259704497995415390
312423 11 18041856115262733741
335352 9 18409729548222985325
3545911 37 18411981321428031372
4073 2 18260834804401865946
4214541 1 18411136905203969488
5104073 3 18343579629870844008
559249 180 18335136471222282315
5924683 9 18271803557954071999
59755656 215 18337388236528367463
67856867 119 18189620608633791180
7495541 125 17917708045868310400
77779 3 18411419501483532068
7970288 3 17978507860620099615
9709674 26 18263367052119941506

>  <PUBCHEM_SHAPE_MULTIPOLES>  (1) 
398.73
13.91
2.6
0.67
12.01
0.06
0.01
-4.89
0.87
-3.55
-0.18
0.1
-0.03
0.74

>  <PUBCHEM_SHAPE_SELFOVERLAP>  (1) 
865.566

>  <PUBCHEM_SHAPE_VOLUME>  (1) 
218.1

>  <PUBCHEM_COORDINATE_TYPE>  (1) 
2
5
10

$$$$
