22649
     RDKit          3D

 12 12  0  0  0  0  0  0  0  0999 V2000
    1.3405    1.9048   -0.8313 O   0  0  0  0  0  0  0  0  0  0  0  0
    2.8154   -1.6199    0.1590 O   0  0  0  0  0  0  0  0  0  0  0  0
    0.8964   -0.2505    0.0037 N   0  0  0  0  0  0  0  0  0  0  0  0
    1.5817   -1.6079    0.1903 N   0  0  0  0  0  0  0  0  0  0  0  0
    2.9660    0.9221    0.3910 N   0  0  0  0  0  0  0  0  0  0  0  0
   -0.4948   -0.1475    0.0255 C   0  0  0  0  0  0  0  0  0  0  0  0
   -1.1001    1.0259    0.4756 C   0  0  0  0  0  0  0  0  0  0  0  0
   -1.2805   -1.2174   -0.4032 C   0  0  0  0  0  0  0  0  0  0  0  0
   -2.4911    1.1293    0.4972 C   0  0  0  0  0  0  0  0  0  0  0  0
   -2.6714   -1.1138   -0.3816 C   0  0  0  0  0  0  0  0  0  0  0  0
   -3.2766    0.0596    0.0686 C   0  0  0  0  0  0  0  0  0  0  0  0
    1.7144    0.9155   -0.1947 C   0  0  0  0  0  0  0  0  0  0  0  0
  1 12  2  0
  2  4  2  0
  3  4  1  0
  3  6  1  0
  3 12  1  0
  5 12  1  0
  6  7  2  0
  6  8  1  0
  7  9  1  0
  8 10  2  0
  9 11  2  0
 10 11  1  0
M  END
>  <PUBCHEM_COMPOUND_CID>  (1) 
22649

>  <PUBCHEM_CONFORMER_RMSD>  (1) 
0.6

>  <PUBCHEM_CONFORMER_DIVERSEORDER>  (1) 
1
7
12
14
4
13
5
10
9
3
11
8
2
6

>  <PUBCHEM_MMFF94_PARTIAL_CHARGES>  (1) 
19
1 -0.57
10 -0.15
11 -0.15
12 0.69
13 0.15
14 0.15
15 0.15
16 0.15
17 0.15
18 0.37
19 0.37
2 -0.16
3 0.01
4 -0.02
5 -0.8
6 0.12
7 -0.15
8 -0.15
9 -0.15

>  <PUBCHEM_EFFECTIVE_ROTOR_COUNT>  (1) 
3

>  <PUBCHEM_PHARMACOPHORE_FEATURES>  (1) 
3
1 1 acceptor
1 5 donor
6 6 7 8 9 10 11 rings

>  <PUBCHEM_HEAVY_ATOM_COUNT>  (1) 
12

>  <PUBCHEM_ATOM_DEF_STEREO_COUNT>  (1) 
0

>  <PUBCHEM_ATOM_UDEF_STEREO_COUNT>  (1) 
0

>  <PUBCHEM_BOND_DEF_STEREO_COUNT>  (1) 
0

>  <PUBCHEM_BOND_UDEF_STEREO_COUNT>  (1) 
0

>  <PUBCHEM_ISOTOPIC_ATOM_COUNT>  (1) 
0

>  <PUBCHEM_COMPONENT_COUNT>  (1) 
1

>  <PUBCHEM_CACTVS_TAUTO_COUNT>  (1) 
2

>  <PUBCHEM_CONFORMER_ID>  (1) 
0000587900000001

>  <PUBCHEM_MMFF94_ENERGY>  (1) 
49.9316

>  <PUBCHEM_FEATURE_SELFOVERLAP>  (1) 
15.223

>  <PUBCHEM_SHAPE_FINGERPRINT>  (1) 
10465860 71 18055940735055976182
12696612 119 18408609149356559996
12897270 3 18268149936390947813
12932764 1 17703507795956602219
14144814 61 18411419501066599427
14325111 11 18413389826146316513
15536298 74 18272651238580047546
15775835 57 18272939344506364929
16945 1 18265900335695450581
19973954 147 18409733958542214829
207724 885 18265055725891859931
23463225 33 18411420587635283447
23552423 10 18408886256536354703
2748010 2 18265049120168985189
3248919 1 18041278867468237195
369184 2 18341894091287686323
5084963 1 18340767044508557225
63268167 104 18335421257397154105
7364860 26 18273497870933413590
8030462 33 18341896333028551837

>  <PUBCHEM_SHAPE_MULTIPOLES>  (1) 
220.27
4.84
1.8
0.71
0.2
0.14
0.04
0.19
-0.27
0.69
0.09
-0.03
-0.12
-0.56

>  <PUBCHEM_SHAPE_SELFOVERLAP>  (1) 
453.39

>  <PUBCHEM_SHAPE_VOLUME>  (1) 
123.5

>  <PUBCHEM_COORDINATE_TYPE>  (1) 
2
5
10

$$$$
