22657
     RDKit          3D

 18 19  0  0  0  0  0  0  0  0999 V2000
   -1.6385    4.1917   -0.3347 O   0  0  0  0  0  0  0  0  0  0  0  0
   -0.0070    0.9071    0.0341 N   0  0  0  0  0  0  0  0  0  0  0  0
   -0.3793   -0.3173    0.7418 C   0  0  0  0  0  0  0  0  0  0  0  0
    1.3081    1.3717    0.4735 C   0  0  0  0  0  0  0  0  0  0  0  0
   -1.0137    1.9465    0.2467 C   0  0  0  0  0  0  0  0  0  0  0  0
   -1.7306   -0.8243    0.3129 C   0  0  0  0  0  0  0  0  0  0  0  0
    2.3806    0.3476    0.2133 C   0  0  0  0  0  0  0  0  0  0  0  0
   -0.6347    3.2017   -0.5208 C   0  0  0  0  0  0  0  0  0  0  0  0
   -2.8666   -0.3949    0.9849 C   0  0  0  0  0  0  0  0  0  0  0  0
    2.6732   -0.5981    1.1862 C   0  0  0  0  0  0  0  0  0  0  0  0
   -1.8214   -1.7143   -0.7482 C   0  0  0  0  0  0  0  0  0  0  0  0
    3.0621    0.3636   -0.9958 C   0  0  0  0  0  0  0  0  0  0  0  0
   -4.1183   -0.8649    0.5876 C   0  0  0  0  0  0  0  0  0  0  0  0
    3.6670   -1.5468    0.9452 C   0  0  0  0  0  0  0  0  0  0  0  0
   -3.0732   -2.1840   -1.1456 C   0  0  0  0  0  0  0  0  0  0  0  0
    4.0557   -0.5853   -1.2369 C   0  0  0  0  0  0  0  0  0  0  0  0
   -4.2217   -1.7594   -0.4778 C   0  0  0  0  0  0  0  0  0  0  0  0
    4.3581   -1.5405   -0.2664 C   0  0  0  0  0  0  0  0  0  0  0  0
  1  8  1  0
  2  3  1  0
  2  4  1  0
  2  5  1  0
  3  6  1  0
  4  7  1  0
  5  8  1  0
  6  9  2  0
  6 11  1  0
  7 10  2  0
  7 12  1  0
  9 13  1  0
 10 14  1  0
 11 15  2  0
 12 16  2  0
 13 17  2  0
 14 18  2  0
 15 17  1  0
 16 18  1  0
M  END
>  <PUBCHEM_COMPOUND_CID>  (1) 
22657

>  <PUBCHEM_CONFORMER_RMSD>  (1) 
0.8

>  <PUBCHEM_CONFORMER_DIVERSEORDER>  (1) 
1
11
7
4
8
9
3
6
10
5
2

>  <PUBCHEM_MMFF94_PARTIAL_CHARGES>  (1) 
29
1 -0.68
10 -0.15
11 -0.15
12 -0.15
13 -0.15
14 -0.15
15 -0.15
16 -0.15
17 -0.15
18 -0.15
2 -0.81
27 0.15
28 0.15
29 0.15
3 0.41
30 0.15
31 0.15
32 0.15
33 0.15
34 0.15
35 0.15
36 0.15
37 0.4
4 0.41
5 0.27
6 -0.14
7 -0.14
8 0.28
9 -0.15

>  <PUBCHEM_EFFECTIVE_ROTOR_COUNT>  (1) 
6

>  <PUBCHEM_PHARMACOPHORE_FEATURES>  (1) 
5
1 1 acceptor
1 1 donor
1 2 cation
6 6 9 11 13 15 17 rings
6 7 10 12 14 16 18 rings

>  <PUBCHEM_HEAVY_ATOM_COUNT>  (1) 
18

>  <PUBCHEM_ATOM_DEF_STEREO_COUNT>  (1) 
0

>  <PUBCHEM_ATOM_UDEF_STEREO_COUNT>  (1) 
0

>  <PUBCHEM_BOND_DEF_STEREO_COUNT>  (1) 
0

>  <PUBCHEM_BOND_UDEF_STEREO_COUNT>  (1) 
0

>  <PUBCHEM_ISOTOPIC_ATOM_COUNT>  (1) 
0

>  <PUBCHEM_COMPONENT_COUNT>  (1) 
1

>  <PUBCHEM_CACTVS_TAUTO_COUNT>  (1) 
1

>  <PUBCHEM_CONFORMER_ID>  (1) 
0000588100000001

>  <PUBCHEM_MMFF94_ENERGY>  (1) 
54.526

>  <PUBCHEM_FEATURE_SELFOVERLAP>  (1) 
25.371

>  <PUBCHEM_SHAPE_FINGERPRINT>  (1) 
104564 63 18336265635061313001
11578080 2 18059560399906441192
116883 192 18411980239122549340
12346177 29 17704068491194845319
12403259 327 15554172565912246127
12553582 1 18409167744260992778
12643181 29 17548701777890738486
12714826 92 18271247123233826264
12788726 201 18335427824481160712
13583140 156 14836403597082294763
13931106 250 18198605679704670454
15342816 4 18341051933916053902
15885798 251 18411980282262061227
16752209 62 18265322928618243611
17539 30 18338507543745222541
1813 80 18340496654736994439
18186145 218 16588020233927109586
19141452 34 18060423525540501031
20291156 8 18411983602045070611
20361792 2 18339076098435350783
204376 136 10015590505964878563
20626108 58 17986380299159731575
20645477 70 18268427021732019743
20671657 53 18340200920658855955
21285901 2 18129391423226769111
21339142 126 18339923723290217555
21524375 3 17683805406327803025
22079108 93 8286200574275312279
2255824 54 17833829756601465733
22620623 9 18269841921450834868
22907989 373 18335985255243812877
23419403 2 17416377987847396729
23557571 272 18335968844611416456
23559900 14 16701753738337065170
23598288 3 18117285752549039912
23598291 2 18127703823107042049
3091708 16 9352261742118882785
314173 41 18193842762921784823
603831 33 18260554420283388614
6333272 397 9367352543388563151
6992083 37 18200327597119461657
7164475 11 18334573491330339702
7364860 26 17765997577275437897
81228 2 18333726914205582433
960060 61 18260828253922774159

>  <PUBCHEM_SHAPE_MULTIPOLES>  (1) 
359.58
8.34
3.31
1.16
1.76
4.5
-0.04
-6.61
-0.84
-2.19
-0.87
0.34
-0.34
-0.57

>  <PUBCHEM_SHAPE_SELFOVERLAP>  (1) 
753.575

>  <PUBCHEM_SHAPE_VOLUME>  (1) 
203.9

>  <PUBCHEM_COORDINATE_TYPE>  (1) 
2
5
10

$$$$
