22658
     RDKit          3D

 16 17  0  0  0  0  0  0  0  0999 V2000
    4.5935   -0.0033   -1.0975 O   0  0  0  0  0  0  0  0  0  0  0  0
    4.5928   -0.0047    1.0978 O   0  0  0  0  0  0  0  0  0  0  0  0
   -1.8131    2.2526   -0.0002 N   0  0  0  0  0  0  0  0  0  0  0  0
    3.9852   -0.0233    0.0000 N   0  0  0  0  0  0  0  0  0  0  0  0
   -1.6688   -0.1907    0.0005 C   0  0  0  0  0  0  0  0  0  0  0  0
   -0.2225   -0.1498    0.0001 C   0  0  0  0  0  0  0  0  0  0  0  0
   -2.4299    0.9804    0.0005 C   0  0  0  0  0  0  0  0  0  0  0  0
    0.4743   -0.1296   -1.2080 C   0  0  0  0  0  0  0  0  0  0  0  0
    0.4749   -0.1290    1.2080 C   0  0  0  0  0  0  0  0  0  0  0  0
   -2.3078   -1.4325    0.0001 C   0  0  0  0  0  0  0  0  0  0  0  0
    2.5661   -0.0678   -0.0004 C   0  0  0  0  0  0  0  0  0  0  0  0
    1.8686   -0.0887   -1.2083 C   0  0  0  0  0  0  0  0  0  0  0  0
    1.8692   -0.0880    1.2078 C   0  0  0  0  0  0  0  0  0  0  0  0
   -3.8232    0.9097    0.0000 C   0  0  0  0  0  0  0  0  0  0  0  0
   -3.7008   -1.5031   -0.0002 C   0  0  0  0  0  0  0  0  0  0  0  0
   -4.4585   -0.3321   -0.0002 C   0  0  0  0  0  0  0  0  0  0  0  0
  1  4  1  0
  2  4  2  0
  3  7  1  0
  4 11  1  0
  5  6  1  0
  5  7  2  0
  5 10  1  0
  6  8  2  0
  6  9  1  0
  7 14  1  0
  8 12  1  0
  9 13  2  0
 10 15  2  0
 11 12  2  0
 11 13  1  0
 14 16  2  0
 15 16  1  0
M  CHG  2   1  -1   4   1
M  END
>  <PUBCHEM_COMPOUND_CID>  (1) 
22658

>  <PUBCHEM_CONFORMER_RMSD>  (1) 
0.6

>  <PUBCHEM_CONFORMER_DIVERSEORDER>  (1) 
1

>  <PUBCHEM_MMFF94_PARTIAL_CHARGES>  (1) 
24
1 -0.52
10 -0.15
11 0.13
12 -0.15
13 -0.15
14 -0.15
15 -0.15
16 -0.15
17 0.15
18 0.15
19 0.15
2 -0.52
20 0.15
21 0.15
22 0.15
23 0.15
24 0.15
25 0.4
26 0.4
3 -0.9
4 0.91
7 0.1
8 -0.15
9 -0.15

>  <PUBCHEM_EFFECTIVE_ROTOR_COUNT>  (1) 
2

>  <PUBCHEM_PHARMACOPHORE_FEATURES>  (1) 
7
1 1 acceptor
1 1 anion
1 2 acceptor
1 3 cation
1 3 donor
6 5 7 10 14 15 16 rings
6 6 8 9 11 12 13 rings

>  <PUBCHEM_HEAVY_ATOM_COUNT>  (1) 
16

>  <PUBCHEM_ATOM_DEF_STEREO_COUNT>  (1) 
0

>  <PUBCHEM_ATOM_UDEF_STEREO_COUNT>  (1) 
0

>  <PUBCHEM_BOND_DEF_STEREO_COUNT>  (1) 
0

>  <PUBCHEM_BOND_UDEF_STEREO_COUNT>  (1) 
0

>  <PUBCHEM_ISOTOPIC_ATOM_COUNT>  (1) 
0

>  <PUBCHEM_COMPONENT_COUNT>  (1) 
1

>  <PUBCHEM_CACTVS_TAUTO_COUNT>  (1) 
1

>  <PUBCHEM_CONFORMER_ID>  (1) 
0000588200000001

>  <PUBCHEM_MMFF94_ENERGY>  (1) 
64.8239

>  <PUBCHEM_FEATURE_SELFOVERLAP>  (1) 
35.602

>  <PUBCHEM_SHAPE_FINGERPRINT>  (1) 
11401426 45 16298381392117675358
11471102 20 15985104115531641906
12186901 62 18413108329663140437
12236239 1 17603585227475946795
13581323 91 18409446985775315263
13760787 5 16008467629662887246
14993402 34 17240199953967836315
15219456 202 17704076161795277095
15309172 13 15647054858655903475
15653759 3 18202279216772572667
16945 1 18410573968694274945
17844478 74 17632861923361995641
17862501 102 17967526870261714784
18175812 5 17775000232512334173
19026448 4 18202565073080109782
19026448 5 18186519899895981106
200 152 16660361502471197747
20279233 1 17775570844735066407
204376 136 16271922757376392190
20645477 56 18340492162655175633
20645477 70 16271651083530771646
22094290 60 18413390929778812209
2297311 6 18342751714219860901
23175994 123 16917355839572242841
23402539 116 18411973668244462831
23402655 69 16153695527748428375
23557571 272 18201731617080116861
23559900 14 18271813359069474198
474 4 17097504334668008604
573450 72 18260539000733624338
77492 1 17676206870857578531

>  <PUBCHEM_SHAPE_MULTIPOLES>  (1) 
307.57
8.64
1.27
1.1
3.91
0.34
0
-0.57
0
-1.66
0
1.02
-0.05
0

>  <PUBCHEM_SHAPE_SELFOVERLAP>  (1) 
670.952

>  <PUBCHEM_SHAPE_VOLUME>  (1) 
168.4

>  <PUBCHEM_COORDINATE_TYPE>  (1) 
2
5
10

$$$$
