22655
     RDKit          3D

 12 13  0  0  1  0  0  0  0  0999 V2000
    1.0870   -2.6644   -0.0818 O   0  0  0  0  0  0  0  0  0  0  0  0
    1.0867    2.6645    0.0817 O   0  0  0  0  0  0  0  0  0  0  0  0
   -0.2325   -0.6814    0.3506 C   0  0  0  0  0  0  0  0  0  0  0  0
   -0.2326    0.6814   -0.3506 C   0  0  0  0  0  0  0  0  0  0  0  0
   -1.4794   -1.4885   -0.0464 C   0  0  0  0  0  0  0  0  0  0  0  0
   -1.4796    1.4884    0.0464 C   0  0  0  0  0  0  0  0  0  0  0  0
    1.0488   -1.4426    0.0468 C   0  0  0  0  0  0  0  0  0  0  0  0
    1.0487    1.4427   -0.0467 C   0  0  0  0  0  0  0  0  0  0  0  0
   -2.7361   -0.6694   -0.0302 C   0  0  0  0  0  0  0  0  0  0  0  0
   -2.7361    0.6692    0.0301 C   0  0  0  0  0  0  0  0  0  0  0  0
    2.3125   -0.6673    0.0011 C   0  0  0  0  0  0  0  0  0  0  0  0
    2.3125    0.6675   -0.0011 C   0  0  0  0  0  0  0  0  0  0  0  0
  1  7  2  0
  2  8  2  0
  3  4  1  0
  3  5  1  0
  3  7  1  0
  4  6  1  0
  4  8  1  0
  5  9  1  0
  6 10  1  0
  7 11  1  0
  8 12  1  0
  9 10  2  0
 11 12  2  0
M  END
>  <PUBCHEM_COMPOUND_CID>  (1) 
22655

>  <PUBCHEM_CONFORMER_RMSD>  (1) 
0.4

>  <PUBCHEM_CONFORMER_DIVERSEORDER>  (1) 
1
2
3

>  <PUBCHEM_MMFF94_PARTIAL_CHARGES>  (1) 
16
1 -0.57
10 -0.29
11 -0.14
12 -0.14
19 0.15
2 -0.57
20 0.15
21 0.15
22 0.15
3 0.06
4 0.06
5 0.14
6 0.14
7 0.49
8 0.49
9 -0.29

>  <PUBCHEM_EFFECTIVE_ROTOR_COUNT>  (1) 
0.4

>  <PUBCHEM_PHARMACOPHORE_FEATURES>  (1) 
4
1 1 acceptor
1 2 acceptor
6 3 4 5 6 9 10 rings
6 3 4 7 8 11 12 rings

>  <PUBCHEM_HEAVY_ATOM_COUNT>  (1) 
12

>  <PUBCHEM_ATOM_DEF_STEREO_COUNT>  (1) 
0

>  <PUBCHEM_ATOM_UDEF_STEREO_COUNT>  (1) 
2

>  <PUBCHEM_BOND_DEF_STEREO_COUNT>  (1) 
0

>  <PUBCHEM_BOND_UDEF_STEREO_COUNT>  (1) 
0

>  <PUBCHEM_ISOTOPIC_ATOM_COUNT>  (1) 
0

>  <PUBCHEM_COMPONENT_COUNT>  (1) 
1

>  <PUBCHEM_CACTVS_TAUTO_COUNT>  (1) 
3

>  <PUBCHEM_CONFORMER_ID>  (1) 
0000587F00000001

>  <PUBCHEM_MMFF94_ENERGY>  (1) 
16.2871

>  <PUBCHEM_FEATURE_SELFOVERLAP>  (1) 
20.314

>  <PUBCHEM_SHAPE_FINGERPRINT>  (1) 
10967382 1 18410575106169583399
11471102 20 18410007741511995397
12382932 28 18267295431103909688
12423570 1 13084178565224452813
12524768 44 18124877863222332263
12897270 3 18410291445244501183
16945 1 18410855460333877125
17990270 104 18410009901427117883
193761 8 18410573985425744741
19973954 147 18338238266432901537
20201158 50 18408600336220974415
20588541 1 18334862679625267222
21040471 1 17905328781563046852
2334 1 17977948217452671301
23463225 33 18334571309545105578
23552423 10 18409167748713799749
23559900 14 18342188765500809940
241688 4 17977947873675939928
2748010 2 18048882084800298207
2897 32 18410012173443608045
5084963 1 18059298789084148313
528886 8 18410851105047200042
53812653 166 18413666907250274680
63268167 104 18337111159656144569
66348 1 18192996138872906051
7364860 26 18342738515774732544

>  <PUBCHEM_SHAPE_MULTIPOLES>  (1) 
235.22
3.58
2.48
0.62
1.2
0
0
0
0
-0.8
0
0.02
0
0

>  <PUBCHEM_SHAPE_SELFOVERLAP>  (1) 
498.774

>  <PUBCHEM_SHAPE_VOLUME>  (1) 
128.2

>  <PUBCHEM_COORDINATE_TYPE>  (1) 
2
5
10

$$$$
