22678
     RDKit          3D

 13 13  0  0  0  0  0  0  0  0999 V2000
   -5.7933    0.2487    0.1345 Cl  0  0  0  0  0  0  0  0  0  0  0  0
   -1.9734   -0.6010    0.1690 O   0  0  0  0  0  0  0  0  0  0  0  0
   -3.1526    1.2082   -0.6364 O   0  0  0  0  0  0  0  0  0  0  0  0
    1.7381   -0.3427   -0.2984 C   0  0  0  0  0  0  0  0  0  0  0  0
    2.0020    0.9742    0.4444 C   0  0  0  0  0  0  0  0  0  0  0  0
    2.8677   -1.3496   -0.0436 C   0  0  0  0  0  0  0  0  0  0  0  0
    3.3697    1.5552    0.0930 C   0  0  0  0  0  0  0  0  0  0  0  0
    4.2340   -0.7647   -0.3941 C   0  0  0  0  0  0  0  0  0  0  0  0
    4.4890    0.5484    0.3393 C   0  0  0  0  0  0  0  0  0  0  0  0
    0.3887   -0.9311    0.1097 C   0  0  0  0  0  0  0  0  0  0  0  0
   -0.7557   -0.0022   -0.2520 C   0  0  0  0  0  0  0  0  0  0  0  0
   -3.1147    0.1168   -0.0858 C   0  0  0  0  0  0  0  0  0  0  0  0
   -4.2994   -0.6603    0.4204 C   0  0  0  0  0  0  0  0  0  0  0  0
  1 13  1  0
  2 11  1  0
  2 12  1  0
  3 12  2  0
  4  5  1  0
  4  6  1  0
  4 10  1  0
  5  7  1  0
  6  8  1  0
  7  9  1  0
  8  9  1  0
 10 11  1  0
 12 13  1  0
M  END
>  <PUBCHEM_COMPOUND_CID>  (1) 
22678

>  <PUBCHEM_CONFORMER_RMSD>  (1) 
0.6

>  <PUBCHEM_CONFORMER_DIVERSEORDER>  (1) 
1
258
59
215
192
261
77
270
134
44
308
214
267
12
299
111
228
161
48
194
325
121
309
55
67
68
57
217
211
22
294
98
94
281
81
181
51
54
284
236
205
203
10
233
153
144
128
330
210
242
318
189
5
316
232
79
312
256
285
133
70
293
199
78
89
278
310
311
231
142
243
179
132
269
25
91
109
240
131
92
168
297
268
93
300
71
63
305
180
152
45
140
177
8
246
223
198
262
130
295
283
75
327
328
82
53
296
50
221
27
120
167
46
3
108
332
26
16
271
119
124
58
247
158
207
274
100
106
302
329
162
224
255
265
200
220
164
172
202
260
157
39
21
159
156
125
6
248
155
313
169
35
326
76
303
226
103
102
34
315
251
87
116
80
237
290
148
229
141
138
238
275
52
212
40
137
196
14
244
88
322
31
266
107
146
97
18
184
188
183
42
204
105
201
122
306
320
64
263
197
99
143
280
234
259
276
253
38
292
186
173
117
72
331
165
112
252
135
178
206
147
249
114
37
298
235
7
286
277
213
9
323
85
219
126
324
160
73
61
227
185
175
218
154
104
301
127
32
115
33
136
60
166
195
319
279
86
287
241
150
190
170
289
272
23
90
250
317
2
191
41
225
47
193
28
145
139
307
113
19
222
17
43
273
174
62
49
282
29
187
264
65
291
4
30
304
254
239
69
208
95
182
11
151
118
66
101
13
176
245
56
230
84
36
314
216
321
24
129
110
288
20
83
123
15
96
74
149
171
163
209
257

>  <PUBCHEM_MMFF94_PARTIAL_CHARGES>  (1) 
6
1 -0.29
11 0.28
12 0.66
13 0.35
2 -0.43
3 -0.57

>  <PUBCHEM_EFFECTIVE_ROTOR_COUNT>  (1) 
6.2

>  <PUBCHEM_PHARMACOPHORE_FEATURES>  (1) 
2
1 3 acceptor
6 4 5 6 7 8 9 rings

>  <PUBCHEM_HEAVY_ATOM_COUNT>  (1) 
13

>  <PUBCHEM_ATOM_DEF_STEREO_COUNT>  (1) 
0

>  <PUBCHEM_ATOM_UDEF_STEREO_COUNT>  (1) 
0

>  <PUBCHEM_BOND_DEF_STEREO_COUNT>  (1) 
0

>  <PUBCHEM_BOND_UDEF_STEREO_COUNT>  (1) 
0

>  <PUBCHEM_ISOTOPIC_ATOM_COUNT>  (1) 
0

>  <PUBCHEM_COMPONENT_COUNT>  (1) 
1

>  <PUBCHEM_CACTVS_TAUTO_COUNT>  (1) 
1

>  <PUBCHEM_CONFORMER_ID>  (1) 
0000589600000001

>  <PUBCHEM_MMFF94_ENERGY>  (1) 
10.3648

>  <PUBCHEM_FEATURE_SELFOVERLAP>  (1) 
10.148

>  <PUBCHEM_SHAPE_FINGERPRINT>  (1) 
11287383 113 18410576214635298731
11471102 20 18342457045731234212
12815109 37 9151174250984524481
13081056 2 18409448085329264501
13167372 99 18059582322025771721
14123238 8 18272652350681152095
1420 363 18114188553528147971
17834072 33 17988639735799328223
18186145 218 18342742901189711758
18522853 276 18272934916490073801
200 152 17988922271738371419
20279233 1 18186527608877208371
20645477 56 18333449854892439039
20645477 70 18200878379246482214
212847 35 18272370888631736448
21652331 79 18411135844415703637
23402539 116 18060413621498488301
23402655 69 18202282515576494292
23557571 272 17604150320628514613
351380 180 18407758149047801609
3545911 37 18412546521981057158
4047638 21 18412265047452784922
42 15 18261112971631155567
42788 4 18413108355712460451
449060 50 18335983150730468548
522135 26 18343866610890021814
542803 24 16988847176616281731
69090 78 18412542141315317103
77779 3 18411983563632880083

>  <PUBCHEM_SHAPE_MULTIPOLES>  (1) 
257.67
11.79
1.31
0.7
11.12
0.15
0
1.12
-0.53
-1.07
0
0.03
0.03
0.5

>  <PUBCHEM_SHAPE_SELFOVERLAP>  (1) 
489.449

>  <PUBCHEM_SHAPE_VOLUME>  (1) 
159

>  <PUBCHEM_COORDINATE_TYPE>  (1) 
2
5
10

$$$$
