22673
     RDKit          3D

 19 20  0  0  1  0  0  0  0  0999 V2000
    3.4082    2.1942   -0.3943 O   0  0  0  0  0  0  0  0  0  0  0  0
    4.6543   -0.1579    0.3988 O   0  0  0  0  0  0  0  0  0  0  0  0
   -1.6773   -1.1604    0.1758 N   0  0  0  0  0  0  0  0  0  0  0  0
   -1.0460   -2.4366   -0.1816 C   0  0  0  0  0  0  0  0  0  0  0  0
   -0.9544   -0.0410   -0.4532 C   0  0  0  0  0  0  0  0  0  0  0  0
    0.3578   -2.5117    0.4277 C   0  0  0  0  0  0  0  0  0  0  0  0
   -3.0840   -1.1470   -0.2244 C   0  0  0  0  0  0  0  0  0  0  0  0
    0.5348   -0.0711   -0.1962 C   0  0  0  0  0  0  0  0  0  0  0  0
    1.1696   -1.2665    0.1826 C   0  0  0  0  0  0  0  0  0  0  0  0
   -3.7540    0.1469    0.2352 C   0  0  0  0  0  0  0  0  0  0  0  0
   -5.2334    0.1725   -0.1549 C   0  0  0  0  0  0  0  0  0  0  0  0
    1.3022    1.0840   -0.3984 C   0  0  0  0  0  0  0  0  0  0  0  0
    2.5550   -1.2803    0.3898 C   0  0  0  0  0  0  0  0  0  0  0  0
   -5.8987    1.4807    0.2718 C   0  0  0  0  0  0  0  0  0  0  0  0
    2.6823    1.0581   -0.1989 C   0  0  0  0  0  0  0  0  0  0  0  0
    3.3076   -0.1221    0.1969 C   0  0  0  0  0  0  0  0  0  0  0  0
   -7.3767    1.4962   -0.0844 C   0  0  0  0  0  0  0  0  0  0  0  0
    3.5832    3.0530    0.7309 C   0  0  0  0  0  0  0  0  0  0  0  0
    5.4695   -0.4910   -0.7231 C   0  0  0  0  0  0  0  0  0  0  0  0
  1 15  1  0
  1 18  1  0
  2 16  1  0
  2 19  1  0
  3  4  1  0
  3  5  1  0
  3  7  1  0
  4  6  1  0
  5  8  1  0
  6  9  1  0
  7 10  1  0
  8  9  2  0
  8 12  1  0
  9 13  1  0
 10 11  1  0
 11 14  1  0
 12 15  2  0
 13 16  2  0
 14 17  1  0
 15 16  1  0
M  END
>  <PUBCHEM_COMPOUND_CID>  (1) 
22673

>  <PUBCHEM_CONFORMER_RMSD>  (1) 
0.8

>  <PUBCHEM_CONFORMER_DIVERSEORDER>  (1) 
1
14
43
4
18
31
2
25
9
36
29
40
45
44
42
27
16
32
33
34
23
35
12
5
24
22
19
39
11
28
10
41
6
7
20
26
21
38
15
3
17
30
13
37
8

>  <PUBCHEM_MMFF94_PARTIAL_CHARGES>  (1) 
17
1 -0.36
12 -0.15
13 -0.15
15 0.08
16 0.08
18 0.28
19 0.28
2 -0.36
3 -0.81
32 0.15
33 0.15
4 0.27
5 0.41
6 0.14
7 0.27
8 -0.14
9 -0.14

>  <PUBCHEM_EFFECTIVE_ROTOR_COUNT>  (1) 
6.8

>  <PUBCHEM_PHARMACOPHORE_FEATURES>  (1) 
6
1 1 acceptor
1 17 hydrophobe
1 2 acceptor
1 3 cation
6 3 4 5 6 8 9 rings
6 8 9 12 13 15 16 rings

>  <PUBCHEM_HEAVY_ATOM_COUNT>  (1) 
19

>  <PUBCHEM_ATOM_DEF_STEREO_COUNT>  (1) 
0

>  <PUBCHEM_ATOM_UDEF_STEREO_COUNT>  (1) 
0

>  <PUBCHEM_BOND_DEF_STEREO_COUNT>  (1) 
0

>  <PUBCHEM_BOND_UDEF_STEREO_COUNT>  (1) 
0

>  <PUBCHEM_ISOTOPIC_ATOM_COUNT>  (1) 
0

>  <PUBCHEM_COMPONENT_COUNT>  (1) 
1

>  <PUBCHEM_CACTVS_TAUTO_COUNT>  (1) 
1

>  <PUBCHEM_CONFORMER_ID>  (1) 
0000589100000001

>  <PUBCHEM_MMFF94_ENERGY>  (1) 
56.8927

>  <PUBCHEM_FEATURE_SELFOVERLAP>  (1) 
30.472

>  <PUBCHEM_SHAPE_FINGERPRINT>  (1) 
10411042 1 17689152305625499139
11089746 13 18342172267708583629
12236239 1 18131627881280278343
13140716 1 18262792012435092210
13533116 47 17241319171422239641
13785724 45 17761207717935994659
13878862 14 18118097235792376333
15196674 1 18337672034992727159
15475509 35 16009582460937888346
15475509 8 18127429881724476174
15536298 74 18267303330160722374
15537594 2 11169919398572725113
16945 1 18335404791204730166
17810953 82 18408042914022650357
18186145 218 18261102032739862534
18335252 114 18340198588507406365
20157964 124 18337952282621426717
20832881 197 18409168784291788498
212847 35 18411138056176096568
21307412 95 17987261983527561574
21452121 103 18270391832553660104
23402539 116 18131063844731656383
23402655 69 18342735226278475815
23557571 272 13542467536154564019
23559900 14 18200875188549439552
2748010 2 18045781458459041462
2838139 119 18413102841328270285
293599 30 18409167697032144151
29717793 49 17704075079379233109
335352 9 18410294701188544454
3472631 163 18273215313920434861
350125 39 18335421240270305468
351380 3 10809351040243811097
3545911 37 18335704919197715279
474 4 18410294688393267699
495365 180 17774718788027662592
5104073 3 18188202220962870243
59124914 9 18409731729512217337
59755656 215 18341338777401288175
6328613 192 18335150833957177228
633830 44 18340480166210105702
8272917 22 18339924810128329959
9999458 23 18113338617891192126

>  <PUBCHEM_SHAPE_MULTIPOLES>  (1) 
374.29
13.74
2.67
0.73
21.15
0.57
0
8.78
0.33
-1.37
-0.41
-0.27
0.05
0.1

>  <PUBCHEM_SHAPE_SELFOVERLAP>  (1) 
761.964

>  <PUBCHEM_SHAPE_VOLUME>  (1) 
220.1

>  <PUBCHEM_COORDINATE_TYPE>  (1) 
2
5
10

$$$$
