22671
     RDKit          3D

 17 18  0  0  1  0  0  0  0  0999 V2000
   -3.3561    1.2679   -0.1386 O   0  0  0  0  0  0  0  0  0  0  0  0
   -3.3339   -1.5091   -0.2280 O   0  0  0  0  0  0  0  0  0  0  0  0
    2.8031    0.6053    0.2333 N   0  0  0  0  0  0  0  0  0  0  0  0
    2.8009   -0.7257   -0.5632 C   0  0  0  0  0  0  0  0  0  0  0  0
    1.5313    1.3940   -0.1644 C   0  0  0  0  0  0  0  0  0  0  0  0
    1.5569   -1.5612   -0.2143 C   0  0  0  0  0  0  0  0  0  0  0  0
    0.2503    0.6077   -0.1529 C   0  0  0  0  0  0  0  0  0  0  0  0
    0.2626   -0.7926   -0.2223 C   0  0  0  0  0  0  0  0  0  0  0  0
    2.8375    0.4122    1.7515 C   0  0  0  0  0  0  0  0  0  0  0  0
    4.0104    1.4695   -0.1549 C   0  0  0  0  0  0  0  0  0  0  0  0
    4.0735   -1.5460   -0.3468 C   0  0  0  0  0  0  0  0  0  0  0  0
   -0.9755    1.2888   -0.1365 C   0  0  0  0  0  0  0  0  0  0  0  0
   -0.9532   -1.4923   -0.2368 C   0  0  0  0  0  0  0  0  0  0  0  0
   -2.1783    0.5842   -0.1607 C   0  0  0  0  0  0  0  0  0  0  0  0
   -2.1671   -0.8067   -0.2086 C   0  0  0  0  0  0  0  0  0  0  0  0
   -3.2785    2.6913   -0.0895 C   0  0  0  0  0  0  0  0  0  0  0  0
   -3.8841   -1.8871    1.0325 C   0  0  0  0  0  0  0  0  0  0  0  0
  1 14  1  0
  1 16  1  0
  2 15  1  0
  2 17  1  0
  3  4  1  0
  3  5  1  0
  3  9  1  0
  3 10  1  0
  4  6  1  0
  4 11  1  0
  5  7  1  0
  6  8  1  0
  7  8  2  0
  7 12  1  0
  8 13  1  0
 12 14  2  0
 13 15  2  0
 14 15  1  0
M  CHG  1   3   1
M  END
>  <PUBCHEM_COMPOUND_CID>  (1) 
22671

>  <PUBCHEM_CONFORMER_RMSD>  (1) 
0.6

>  <PUBCHEM_CONFORMER_DIVERSEORDER>  (1) 
5
1
4
2
3

>  <PUBCHEM_MMFF94_PARTIAL_CHARGES>  (1) 
18
1 -0.36
10 0.5
12 -0.15
13 -0.15
14 0.08
15 0.08
16 0.28
17 0.28
2 -0.36
3 -1.01
32 0.15
33 0.15
4 0.5
5 0.65
6 0.14
7 -0.14
8 -0.14
9 0.5

>  <PUBCHEM_EFFECTIVE_ROTOR_COUNT>  (1) 
2.8

>  <PUBCHEM_PHARMACOPHORE_FEATURES>  (1) 
5
1 1 acceptor
1 2 acceptor
1 3 cation
6 3 4 5 6 7 8 rings
6 7 8 12 13 14 15 rings

>  <PUBCHEM_HEAVY_ATOM_COUNT>  (1) 
17

>  <PUBCHEM_ATOM_DEF_STEREO_COUNT>  (1) 
0

>  <PUBCHEM_ATOM_UDEF_STEREO_COUNT>  (1) 
1

>  <PUBCHEM_BOND_DEF_STEREO_COUNT>  (1) 
0

>  <PUBCHEM_BOND_UDEF_STEREO_COUNT>  (1) 
0

>  <PUBCHEM_ISOTOPIC_ATOM_COUNT>  (1) 
0

>  <PUBCHEM_COMPONENT_COUNT>  (1) 
1

>  <PUBCHEM_CACTVS_TAUTO_COUNT>  (1) 
1

>  <PUBCHEM_CONFORMER_ID>  (1) 
0000588F00000005

>  <PUBCHEM_MMFF94_ENERGY>  (1) 
74.4505

>  <PUBCHEM_FEATURE_SELFOVERLAP>  (1) 
25.396

>  <PUBCHEM_SHAPE_FINGERPRINT>  (1) 
10608611 8 18413385427883715932
10618630 7 18336830891512645943
10922523 26 18272089383257711574
10967382 1 18123189000360862125
11132069 177 18410566262895445408
11405975 8 18339079285443444554
11680986 33 18269557139291348879
12032990 46 18409453612899550327
12382932 28 18412258415553963513
12500047 106 18265330603883206525
12507560 40 18343580746271975416
12553582 1 18123468551509014663
12730499 353 17395006553649839093
12932764 1 17417806296480164612
13134695 92 17058918962950606928
13140716 1 18338797801692124426
13296908 3 18412262835106868614
13380535 21 18339930316049153733
13380535 76 18268989774580727525
13675066 3 18273490165719893202
14144814 61 18409447015924410824
14178342 30 18262507122225904866
14289901 80 18411698832865380234
14325111 11 18411699889538078892
14787075 74 17536035811010274003
15196674 1 18411139130244630510
15219456 202 18343581841435979366
15295992 7 17632009754616547953
15442244 35 18338516344217029652
15536298 74 18343019991194606990
16945 1 18198051684726445134
17804303 29 18342179917108732342
17844478 74 18338241560804835779
18175812 5 18341049627423306646
18186145 218 18339356340746008660
19422 9 18186239537131125320
200 152 17988354958098320639
20510252 161 18341897424003181113
20559304 39 18264773336182203716
20645477 70 17845931832027597566
21267235 1 18410865347217250062
21501502 16 18410571773438498654
221490 88 18410864243848329422
2334 1 18412824698417622879
23402539 116 18266168616707006839
23463225 33 18408884044712411532
23558518 356 18187936092131173787
23559900 14 18269834212654561942
2748010 2 18341895160518369415
335352 9 18195246607489368700
495365 180 17344886578036436320
5104073 3 18411136918320617034
53812653 166 18269270166998923454
7364860 26 18268994374591395860
7832392 63 18338514127671299413
8809292 202 18336270037350271171
9709674 26 18410294747958580110

>  <PUBCHEM_SHAPE_MULTIPOLES>  (1) 
333.13
7.55
2.41
0.91
0.42
0.49
0.39
-0.18
0.68
-1.65
-0.03
0.37
-0.07
0.78

>  <PUBCHEM_SHAPE_SELFOVERLAP>  (1) 
687.098

>  <PUBCHEM_SHAPE_VOLUME>  (1) 
194.7

>  <PUBCHEM_COORDINATE_TYPE>  (1) 
2
5
10

$$$$
