22677
     RDKit          3D

 18 18  0  0  0  0  0  0  0  0999 V2000
    2.1386   -0.3368    0.0206 O   0  0  0  0  0  0  0  0  0  0  0  0
   -4.0638   -0.8497   -0.1559 O   0  0  0  0  0  0  0  0  0  0  0  0
    2.0224   -2.6157    0.3238 O   0  0  0  0  0  0  0  0  0  0  0  0
   -3.5119    1.8198   -0.0432 N   0  0  0  0  0  0  0  0  0  0  0  0
   -2.5100    1.3069    0.8918 C   0  0  0  0  0  0  0  0  0  0  0  0
   -1.9080    0.0210    0.4293 C   0  0  0  0  0  0  0  0  0  0  0  0
    4.1050    1.0252   -0.0885 C   0  0  0  0  0  0  0  0  0  0  0  0
   -0.5259   -0.1515    0.5046 C   0  0  0  0  0  0  0  0  0  0  0  0
    0.0220   -1.3426    0.0743 C   0  0  0  0  0  0  0  0  0  0  0  0
    5.6304    1.0458   -0.0494 C   0  0  0  0  0  0  0  0  0  0  0  0
    3.5574   -0.3849    0.0810 C   0  0  0  0  0  0  0  0  0  0  0  0
   -2.7121   -1.0014   -0.0749 C   0  0  0  0  0  0  0  0  0  0  0  0
   -0.7517   -2.3687   -0.4281 C   0  0  0  0  0  0  0  0  0  0  0  0
   -2.1337   -2.1962   -0.5036 C   0  0  0  0  0  0  0  0  0  0  0  0
    1.4927   -1.5281    0.1567 C   0  0  0  0  0  0  0  0  0  0  0  0
   -2.9101    2.0619   -1.3536 C   0  0  0  0  0  0  0  0  0  0  0  0
   -4.1156    3.0456    0.4771 C   0  0  0  0  0  0  0  0  0  0  0  0
    6.1742    2.4495   -0.2621 C   0  0  0  0  0  0  0  0  0  0  0  0
  1 11  1  0
  1 15  1  0
  2 12  1  0
  3 15  2  0
  4  5  1  0
  4 16  1  0
  4 17  1  0
  5  6  1  0
  6  8  2  0
  6 12  1  0
  7 10  1  0
  7 11  1  0
  8  9  1  0
  9 13  2  0
  9 15  1  0
 10 18  1  0
 12 14  2  0
 13 14  1  0
M  END
>  <PUBCHEM_COMPOUND_CID>  (1) 
22677

>  <PUBCHEM_CONFORMER_RMSD>  (1) 
0.8

>  <PUBCHEM_CONFORMER_DIVERSEORDER>  (1) 
1
79
54
14
55
72
49
84
118
108
34
43
89
107
73
121
38
69
17
112
74
77
110
36
80
42
88
25
12
78
70
120
61
119
86
71
95
4
106
57
28
62
100
87
75
102
101
85
48
50
65
11
66
93
24
67
9
3
117
99
7
47
5
91
44
53
60
103
8
20
45
115
83
64
58
2
18
22
51
41
46
111
52
10
29
116
32
37
21
96
30
15
39
97
104
6
114
35
33
105
98
81
13
94
59
31
26
27
16
68
109
82
23
90
56
19
113
76
40
92
63

>  <PUBCHEM_MMFF94_PARTIAL_CHARGES>  (1) 
19
1 -0.43
11 0.28
12 0.08
13 -0.15
14 -0.15
15 0.63
16 0.27
17 0.27
2 -0.53
23 0.15
28 0.15
29 0.15
3 -0.57
39 0.45
4 -0.81
5 0.41
6 -0.14
8 -0.15
9 0.09

>  <PUBCHEM_EFFECTIVE_ROTOR_COUNT>  (1) 
7

>  <PUBCHEM_PHARMACOPHORE_FEATURES>  (1) 
5
1 18 hydrophobe
1 2 donor
1 3 acceptor
1 4 cation
6 6 8 9 12 13 14 rings

>  <PUBCHEM_HEAVY_ATOM_COUNT>  (1) 
18

>  <PUBCHEM_ATOM_DEF_STEREO_COUNT>  (1) 
0

>  <PUBCHEM_ATOM_UDEF_STEREO_COUNT>  (1) 
0

>  <PUBCHEM_BOND_DEF_STEREO_COUNT>  (1) 
0

>  <PUBCHEM_BOND_UDEF_STEREO_COUNT>  (1) 
0

>  <PUBCHEM_ISOTOPIC_ATOM_COUNT>  (1) 
0

>  <PUBCHEM_COMPONENT_COUNT>  (1) 
1

>  <PUBCHEM_CACTVS_TAUTO_COUNT>  (1) 
4

>  <PUBCHEM_CONFORMER_ID>  (1) 
0000589500000001

>  <PUBCHEM_MMFF94_ENERGY>  (1) 
44.5385

>  <PUBCHEM_FEATURE_SELFOVERLAP>  (1) 
25.371

>  <PUBCHEM_SHAPE_FINGERPRINT>  (1) 
10411042 1 17619348049025831167
10498660 4 18413111636988704200
10670039 82 18261125105737012236
12107183 9 18192140504980459138
12390115 104 18270697401547756368
12596602 18 17023739164870401728
13583140 156 17243581876237055819
14123255 352 18334855022236960580
14123255 52 18410576163137687666
14142880 1 18261108586749128109
14251764 75 18198353861594118977
14508225 48 17697020806397552231
15196674 1 18410857646809899440
15342168 16 18125161533397102337
16087824 20 18341611582190228607
1741750 31 18342174423386605347
17780758 139 10953723531067273164
17834072 32 18410858728931005672
20645477 56 18201164355280087178
21307412 95 12717201024584052932
23557571 272 18202008758687780012
23559900 14 17915737583846213098
23590187 32 18340206301830956137
27216 239 18333456430413548865
283562 15 18336825419809311123
2838139 119 17825654574322333917
350125 39 18412828018944612857
474 4 17967534618662473258
5104073 3 18187646864880997378
5486654 36 10447931710600174660
6327066 14 18336542720751038573
633830 44 17842559544176904365
636775 72 18051413170303384552
7808743 9 18411417323798073704
9981440 41 18335420205568361602

>  <PUBCHEM_SHAPE_MULTIPOLES>  (1) 
347.84
11.07
3.38
0.83
17.79
0.77
-0.11
10.62
-0.72
-1.76
-0.25
-0.51
0.27
-0.59

>  <PUBCHEM_SHAPE_SELFOVERLAP>  (1) 
704.199

>  <PUBCHEM_SHAPE_VOLUME>  (1) 
204.5

>  <PUBCHEM_COORDINATE_TYPE>  (1) 
2
5
10

$$$$
