22687
     RDKit          3D

  9  8  0  0  0  0  0  0  0  0999 V2000
   -1.0586   -2.4761   -0.1773 O   0  0  0  0  0  0  0  0  0  0  0  0
    0.0439   -0.4090    0.0784 N   0  0  0  0  0  0  0  0  0  0  0  0
   -0.9714    0.4027   -0.5336 C   0  0  0  0  0  0  0  0  0  0  0  0
    1.2452    0.2557    0.5770 C   0  0  0  0  0  0  0  0  0  0  0  0
   -1.9988    0.9046    0.4738 C   0  0  0  0  0  0  0  0  0  0  0  0
    2.3398    0.3459   -0.4796 C   0  0  0  0  0  0  0  0  0  0  0  0
   -3.0906    1.7476   -0.1697 C   0  0  0  0  0  0  0  0  0  0  0  0
    3.6034    1.0178    0.0384 C   0  0  0  0  0  0  0  0  0  0  0  0
   -0.1128   -1.7894    0.1927 C   0  0  0  0  0  0  0  0  0  0  0  0
  1  9  2  0
  2  3  1  0
  2  4  1  0
  2  9  1  0
  3  5  1  0
  4  6  1  0
  5  7  1  0
  6  8  1  0
M  END
>  <PUBCHEM_COMPOUND_CID>  (1) 
22687

>  <PUBCHEM_CONFORMER_RMSD>  (1) 
0.6

>  <PUBCHEM_CONFORMER_DIVERSEORDER>  (1) 
1
29
21
18
30
27
17
20
4
22
32
26
9
8
28
31
34
15
16
25
5
12
23
13
24
7
33
10
11
14
6
3
19
2

>  <PUBCHEM_MMFF94_PARTIAL_CHARGES>  (1) 
6
1 -0.57
2 -0.66
24 0.06
3 0.3
4 0.3
9 0.57

>  <PUBCHEM_EFFECTIVE_ROTOR_COUNT>  (1) 
5

>  <PUBCHEM_PHARMACOPHORE_FEATURES>  (1) 
3
1 1 acceptor
1 7 hydrophobe
1 8 hydrophobe

>  <PUBCHEM_HEAVY_ATOM_COUNT>  (1) 
9

>  <PUBCHEM_ATOM_DEF_STEREO_COUNT>  (1) 
0

>  <PUBCHEM_ATOM_UDEF_STEREO_COUNT>  (1) 
0

>  <PUBCHEM_BOND_DEF_STEREO_COUNT>  (1) 
0

>  <PUBCHEM_BOND_UDEF_STEREO_COUNT>  (1) 
0

>  <PUBCHEM_ISOTOPIC_ATOM_COUNT>  (1) 
0

>  <PUBCHEM_COMPONENT_COUNT>  (1) 
1

>  <PUBCHEM_CACTVS_TAUTO_COUNT>  (1) 
1

>  <PUBCHEM_CONFORMER_ID>  (1) 
0000589F00000001

>  <PUBCHEM_MMFF94_ENERGY>  (1) 
1.6265

>  <PUBCHEM_FEATURE_SELFOVERLAP>  (1) 
15.223

>  <PUBCHEM_SHAPE_FINGERPRINT>  (1) 
1 1 18192994811707127158
14325111 11 18410294679143995344
14390081 3 18339361851389814501
18342897 55 18337097970001742741
20711985 344 18122330539509632226
21028194 46 18335146345040833448
21040471 1 18411413994918558426
21499 59 18337382747792479645
21930827 45 18271515498481000522
528862 383 18045494223108319226

>  <PUBCHEM_SHAPE_MULTIPOLES>  (1) 
174.37
4.77
2.12
0.73
1.84
1.58
-0.01
-3.84
0.16
-1.15
0.06
0.02
-0.07
-0.02

>  <PUBCHEM_SHAPE_SELFOVERLAP>  (1) 
310.528

>  <PUBCHEM_SHAPE_VOLUME>  (1) 
113.7

>  <PUBCHEM_COORDINATE_TYPE>  (1) 
2
5
10

$$$$
