22697
     RDKit          3D

 11 11  0  0  0  0  0  0  0  0999 V2000
    4.1943    0.3070   -0.0021 Cl  0  0  0  0  0  0  0  0  0  0  0  0
   -2.2627   -1.4440    0.0027 O   0  0  0  0  0  0  0  0  0  0  0  0
   -0.2918   -0.1609    0.0005 C   0  0  0  0  0  0  0  0  0  0  0  0
   -2.6406    0.9355    0.0062 C   0  0  0  0  0  0  0  0  0  0  0  0
   -1.7382   -0.3115    0.0027 C   0  0  0  0  0  0  0  0  0  0  0  0
    0.2765    1.1129    0.0014 C   0  0  0  0  0  0  0  0  0  0  0  0
    0.5272   -1.2901   -0.0009 C   0  0  0  0  0  0  0  0  0  0  0  0
   -4.1261    0.6105   -0.0094 C   0  0  0  0  0  0  0  0  0  0  0  0
    1.6638    1.2576    0.0009 C   0  0  0  0  0  0  0  0  0  0  0  0
    1.9146   -1.1455   -0.0014 C   0  0  0  0  0  0  0  0  0  0  0  0
    2.4830    0.1285   -0.0005 C   0  0  0  0  0  0  0  0  0  0  0  0
  1 11  1  0
  2  5  2  0
  3  5  1  0
  3  6  2  0
  3  7  1  0
  4  5  1  0
  4  8  1  0
  6  9  1  0
  7 10  2  0
  9 11  2  0
 10 11  1  0
M  END
>  <PUBCHEM_COMPOUND_CID>  (1) 
22697

>  <PUBCHEM_CONFORMER_RMSD>  (1) 
0.4

>  <PUBCHEM_CONFORMER_DIVERSEORDER>  (1) 
1
8
3
2
6
4
7
5
9

>  <PUBCHEM_MMFF94_PARTIAL_CHARGES>  (1) 
14
1 -0.18
10 -0.15
11 0.18
14 0.15
15 0.15
19 0.15
2 -0.57
20 0.15
3 0.09
4 0.06
5 0.42
6 -0.15
7 -0.15
9 -0.15

>  <PUBCHEM_EFFECTIVE_ROTOR_COUNT>  (1) 
2

>  <PUBCHEM_PHARMACOPHORE_FEATURES>  (1) 
3
1 2 acceptor
1 8 hydrophobe
6 3 6 7 9 10 11 rings

>  <PUBCHEM_HEAVY_ATOM_COUNT>  (1) 
11

>  <PUBCHEM_ATOM_DEF_STEREO_COUNT>  (1) 
0

>  <PUBCHEM_ATOM_UDEF_STEREO_COUNT>  (1) 
0

>  <PUBCHEM_BOND_DEF_STEREO_COUNT>  (1) 
0

>  <PUBCHEM_BOND_UDEF_STEREO_COUNT>  (1) 
0

>  <PUBCHEM_ISOTOPIC_ATOM_COUNT>  (1) 
0

>  <PUBCHEM_COMPONENT_COUNT>  (1) 
1

>  <PUBCHEM_CACTVS_TAUTO_COUNT>  (1) 
2

>  <PUBCHEM_CONFORMER_ID>  (1) 
000058A900000001

>  <PUBCHEM_MMFF94_ENERGY>  (1) 
23.1025

>  <PUBCHEM_FEATURE_SELFOVERLAP>  (1) 
15.223

>  <PUBCHEM_SHAPE_FINGERPRINT>  (1) 
10219947 1 18410857629128889764
11062470 55 17846497019437478785
11401426 45 18342171176892300880
11471102 20 18410289177311838917
12932764 1 17023170648006062620
13380535 76 18410855456134258127
14144814 61 18339643347935859145
14325111 11 18339079392822946820
14897335 6 18412259528203473271
14993402 34 17561077003649064421
15775835 57 18408887334330280053
16945 1 18410856529643720192
17844478 74 17822580412962451373
20201158 50 18410575067530792963
20645477 70 18271243798792398559
21040471 1 18266741470691053378
23235685 24 18410005537872096976
23402539 116 18131624574456283797
23402655 69 18270389500349456157
23552423 10 18261957452321918479
23559900 14 18271810147109020260
2748010 2 18267303329448695812
3312278 4 18412830195912406347
528886 8 18411414012135331434
53812653 166 18341608231028190264

>  <PUBCHEM_SHAPE_MULTIPOLES>  (1) 
222.38
6.43
1.42
0.61
1.12
0.19
0
-1.29
-0.01
0.04
0
-0.03
-0.01
0

>  <PUBCHEM_SHAPE_SELFOVERLAP>  (1) 
448.232

>  <PUBCHEM_SHAPE_VOLUME>  (1) 
132.4

>  <PUBCHEM_COORDINATE_TYPE>  (1) 
2
5
10

$$$$
