22714
     RDKit          3D

 18 18  0  0  1  0  0  0  0  0999 V2000
    1.4679   -1.3179    0.2567 O   0  0  0  0  0  0  0  0  0  0  0  0
   -1.8029   -0.7773   -0.5953 O   0  0  0  0  0  0  0  0  0  0  0  0
    0.0723   -3.7143    0.4973 O   0  0  0  0  0  0  0  0  0  0  0  0
   -3.1647    0.0643    1.0517 O   0  0  0  0  0  0  0  0  0  0  0  0
   -3.0408    1.0491   -1.0452 N   0  0  0  0  0  0  0  0  0  0  0  0
   -0.3664   -2.7084   -0.4189 C   0  0  0  0  0  0  0  0  0  0  0  0
    0.8565   -1.9245   -0.8770 C   0  0  0  0  0  0  0  0  0  0  0  0
   -1.3729   -1.8080    0.2881 C   0  0  0  0  0  0  0  0  0  0  0  0
    2.1434   -0.1467    0.0390 C   0  0  0  0  0  0  0  0  0  0  0  0
    2.2310    0.8151    1.0406 C   0  0  0  0  0  0  0  0  0  0  0  0
    2.7412    0.0669   -1.1994 C   0  0  0  0  0  0  0  0  0  0  0  0
    2.9234    2.0022    0.8015 C   0  0  0  0  0  0  0  0  0  0  0  0
    1.5938    0.5974    2.3732 C   0  0  0  0  0  0  0  0  0  0  0  0
    3.4336    1.2540   -1.4382 C   0  0  0  0  0  0  0  0  0  0  0  0
    3.5247    2.2216   -0.4380 C   0  0  0  0  0  0  0  0  0  0  0  0
   -2.7147    0.1111   -0.0885 C   0  0  0  0  0  0  0  0  0  0  0  0
   -3.9780    2.1265   -0.8254 C   0  0  0  0  0  0  0  0  0  0  0  0
   -4.5474    2.0889    0.5778 C   0  0  0  0  0  0  0  0  0  0  0  0
  1  7  1  0
  1  9  1  0
  2  8  1  0
  2 16  1  0
  3  6  1  0
  4 16  2  0
  5 16  1  0
  5 17  1  0
  6  7  1  0
  6  8  1  0
  9 10  2  0
  9 11  1  0
 10 12  1  0
 10 13  1  0
 11 14  2  0
 12 15  2  0
 14 15  1  0
 17 18  1  0
M  END
>  <PUBCHEM_COMPOUND_CID>  (1) 
22714

>  <PUBCHEM_CONFORMER_RMSD>  (1) 
0.8

>  <PUBCHEM_CONFORMER_DIVERSEORDER>  (1) 
6
58
112
105
294
202
122
219
150
335
22
196
2
129
72
297
356
251
94
318
253
299
74
315
181
327
222
235
280
269
244
358
264
144
3
362
183
165
293
57
52
298
345
120
199
331
330
210
346
197
338
79
246
225
139
51
174
12
227
314
353
310
188
366
132
312
295
302
164
20
337
284
218
367
161
237
158
1
308
349
190
208
201
343
87
311
224
133
368
170
7
288
55
194
364
303
43
29
115
258
24
313
336
339
305
25
14
340
130
221
98
71
75
283
137
26
166
203
278
351
231
250
328
309
175
229
121
117
357
70
23
187
152
31
34
316
60
37
266
78
68
354
89
347
96
159
124
180
281
65
220
296
192
234
307
348
28
95
176
93
334
128
268
186
191
207
195
322
247
103
289
342
126
270
290
321
66
352
365
109
325
236
369
279
215
256
287
151
30
48
40
143
274
360
263
119
35
217
232
85
230
84
282
273
136
81
101
56
141
213
341
146
359
116
27
80
254
160
223
241
301
240
114
134
272
140
4
292
329
363
99
41
83
107
173
179
10
275
171
259
163
90
226
97
243
323
242
177
355
361
304
147
277
239
249
204
19
285
149
326
300
154
11
106
233
61
36
320
18
157
214
69
286
260
127
92
193
50
123
5
317
332
167
245
248
44
182
257
138
324
76
267
110
54
67
306
142
46
162
33
100
344
252
189
62
86
212
63
198
255
131
185
113
73
156
169
265
168
261
16
13
135
350
21
111
184
49
8
172
77
53
333
148
82
102
209
206
38
45
153
178
216
17
39
104
32
15
64
108
238
319
262
9
271
88
145
59
291
211
276
91
155
205
42
125
200
228
47
118

>  <PUBCHEM_MMFF94_PARTIAL_CHARGES>  (1) 
23
1 -0.36
10 -0.14
11 -0.15
12 -0.15
13 0.14
14 -0.15
15 -0.15
16 0.78
17 0.3
2 -0.43
24 0.15
25 0.15
26 0.4
3 -0.68
30 0.15
31 0.15
34 0.37
4 -0.57
5 -0.73
6 0.28
7 0.28
8 0.28
9 0.08

>  <PUBCHEM_EFFECTIVE_ROTOR_COUNT>  (1) 
8

>  <PUBCHEM_PHARMACOPHORE_FEATURES>  (1) 
6
1 1 acceptor
1 3 acceptor
1 3 donor
1 4 acceptor
1 5 donor
6 9 10 11 12 14 15 rings

>  <PUBCHEM_HEAVY_ATOM_COUNT>  (1) 
18

>  <PUBCHEM_ATOM_DEF_STEREO_COUNT>  (1) 
0

>  <PUBCHEM_ATOM_UDEF_STEREO_COUNT>  (1) 
1

>  <PUBCHEM_BOND_DEF_STEREO_COUNT>  (1) 
0

>  <PUBCHEM_BOND_UDEF_STEREO_COUNT>  (1) 
0

>  <PUBCHEM_ISOTOPIC_ATOM_COUNT>  (1) 
0

>  <PUBCHEM_COMPONENT_COUNT>  (1) 
1

>  <PUBCHEM_CACTVS_TAUTO_COUNT>  (1) 
2

>  <PUBCHEM_CONFORMER_ID>  (1) 
000058BA00000006

>  <PUBCHEM_MMFF94_ENERGY>  (1) 
49.1353

>  <PUBCHEM_FEATURE_SELFOVERLAP>  (1) 
30.451

>  <PUBCHEM_SHAPE_FINGERPRINT>  (1) 
10165383 225 18196119774187742147
10498660 4 18412822516880607325
10764073 3 17557108789782299994
12173636 292 18337670939929151855
12788726 201 17975678808416218395
128993 33 18411419548285047757
13294875 104 18200297845686336474
13764800 53 18120655987585018442
13965767 371 18040983030142507740
14123255 52 18410014355324067237
14386348 128 18341901817569945929
14957384 54 18041261245143978156
15422964 175 8502656995464697985
17134986 127 18411418388638551310
1798214 55 18410855456039416725
18186145 218 18060707207655329929
19752476 56 17274811416280011513
20671657 1 18268705013732833599
21524375 3 18341891909065239071
21864079 5 18336825393812251285
22182937 141 18340496676327966345
23558518 356 18336531807007387778
238 59 17918275337674815525
25 1 18131081423737574870
474 4 18338510834011521733
49207404 50 18188785963496484225
54672768 99 18191583047404433925
6442390 28 18338529624462234987
7808743 9 18191874641640540116
81228 2 17836361927580492075

>  <PUBCHEM_SHAPE_MULTIPOLES>  (1) 
341.97
7.62
3.42
1.5
5.97
2.42
0.53
-7.97
-1.11
0.86
-0.05
-0.88
-0.48
0.28

>  <PUBCHEM_SHAPE_SELFOVERLAP>  (1) 
691.223

>  <PUBCHEM_SHAPE_VOLUME>  (1) 
200.2

>  <PUBCHEM_COORDINATE_TYPE>  (1) 
2
5
10

$$$$
