22710
     RDKit          3D

 10 10  0  0  0  0  0  0  0  0999 V2000
    2.3453   -1.9854    0.0002 Cl  0  0  0  0  0  0  0  0  0  0  0  0
    3.0934    1.1626    0.0018 Cl  0  0  0  0  0  0  0  0  0  0  0  0
   -3.5510    0.1903    0.0008 O   0  0  0  0  0  0  0  0  0  0  0  0
   -1.2162   -0.1923    0.0000 C   0  0  0  0  0  0  0  0  0  0  0  0
   -0.2023   -1.1503   -0.0001 C   0  0  0  0  0  0  0  0  0  0  0  0
   -0.8935    1.1648   -0.0004 C   0  0  0  0  0  0  0  0  0  0  0  0
    1.1342   -0.7512   -0.0008 C   0  0  0  0  0  0  0  0  0  0  0  0
    0.4430    1.5637   -0.0008 C   0  0  0  0  0  0  0  0  0  0  0  0
    1.4569    0.6057   -0.0010 C   0  0  0  0  0  0  0  0  0  0  0  0
   -2.6098   -0.6080    0.0004 C   0  0  0  0  0  0  0  0  0  0  0  0
  1  7  1  0
  2  9  1  0
  3 10  2  0
  4  5  2  0
  4  6  1  0
  4 10  1  0
  5  7  1  0
  6  8  2  0
  7  9  2  0
  8  9  1  0
M  END
>  <PUBCHEM_COMPOUND_CID>  (1) 
22710

>  <PUBCHEM_CONFORMER_RMSD>  (1) 
0.4

>  <PUBCHEM_CONFORMER_DIVERSEORDER>  (1) 
1
2

>  <PUBCHEM_MMFF94_PARTIAL_CHARGES>  (1) 
14
1 -0.18
10 0.42
11 0.15
12 0.15
13 0.15
14 0.06
2 -0.18
3 -0.57
4 0.09
5 -0.15
6 -0.15
7 0.18
8 -0.15
9 0.18

>  <PUBCHEM_EFFECTIVE_ROTOR_COUNT>  (1) 
1

>  <PUBCHEM_PHARMACOPHORE_FEATURES>  (1) 
2
1 3 acceptor
6 4 5 6 7 8 9 rings

>  <PUBCHEM_HEAVY_ATOM_COUNT>  (1) 
10

>  <PUBCHEM_ATOM_DEF_STEREO_COUNT>  (1) 
0

>  <PUBCHEM_ATOM_UDEF_STEREO_COUNT>  (1) 
0

>  <PUBCHEM_BOND_DEF_STEREO_COUNT>  (1) 
0

>  <PUBCHEM_BOND_UDEF_STEREO_COUNT>  (1) 
0

>  <PUBCHEM_ISOTOPIC_ATOM_COUNT>  (1) 
0

>  <PUBCHEM_COMPONENT_COUNT>  (1) 
1

>  <PUBCHEM_CACTVS_TAUTO_COUNT>  (1) 
1

>  <PUBCHEM_CONFORMER_ID>  (1) 
000058B600000001

>  <PUBCHEM_MMFF94_ENERGY>  (1) 
21.3064

>  <PUBCHEM_FEATURE_SELFOVERLAP>  (1) 
10.148

>  <PUBCHEM_SHAPE_FINGERPRINT>  (1) 
12423570 1 17773305747338804806
12932764 1 17489298715929925793
13380535 76 18336262461244336402
14128692 85 18267310828751719070
14325111 11 18410855486124896837
161256 15 18337955593307982476
16945 1 18338517550781242276
193761 8 18122343476098775076
20201158 50 18335137622041220691
20588541 1 18335422421306709680
20645476 183 17535482735835194660
20645477 70 18411694362406091391
20871998 22 18126570011802375238
21040471 1 18050287269118785060
21501502 16 18268151963478517368
23235685 24 18336540633317232832
23402655 69 18340753881114563237
23552423 10 18261959531323583446
241688 4 18120094983393914912
2748010 2 18265328421939651844
29004967 10 18334017224061291889
5084963 1 18200590276760362490
528862 383 18335413578217148994
528886 8 18339637961740862856
53812653 166 18271241741555525320
63268167 104 18412829092385425153
7364860 26 18343301440570461686

>  <PUBCHEM_SHAPE_MULTIPOLES>  (1) 
203.67
4.45
1.85
0.62
1.73
0.32
0
0.04
0
-1.31
0
-0.05
0.01
0

>  <PUBCHEM_SHAPE_SELFOVERLAP>  (1) 
407.849

>  <PUBCHEM_SHAPE_VOLUME>  (1) 
122.1

>  <PUBCHEM_COORDINATE_TYPE>  (1) 
2
5
10

$$$$
