22718
     RDKit          3D

 14 14  0  0  1  0  0  0  0  0999 V2000
   -1.5712   -0.4145   -0.8281 O   0  0  0  0  0  0  0  0  0  0  0  0
   -1.4946    0.9462    1.1439 O   0  0  0  0  0  0  0  0  0  0  0  0
   -1.3948    0.9016   -0.2860 C   0  0  0  0  0  0  0  0  0  0  0  0
    0.0497    1.2917   -0.6121 C   0  0  0  0  0  0  0  0  0  0  0  0
   -2.7760   -1.0546   -0.4035 C   0  0  0  0  0  0  0  0  0  0  0  0
    1.0362    0.2964   -0.0115 C   0  0  0  0  0  0  0  0  0  0  0  0
   -2.8459   -1.0563    1.1219 C   0  0  0  0  0  0  0  0  0  0  0  0
   -2.6917    0.3618    1.6491 C   0  0  0  0  0  0  0  0  0  0  0  0
    2.4767    0.6727   -0.3653 C   0  0  0  0  0  0  0  0  0  0  0  0
   -2.3331    1.9170   -0.9492 C   0  0  0  0  0  0  0  0  0  0  0  0
    3.4701   -0.3436    0.2024 C   0  0  0  0  0  0  0  0  0  0  0  0
   -2.7716   -2.4725   -0.9580 C   0  0  0  0  0  0  0  0  0  0  0  0
    4.9265   -0.0265   -0.1436 C   0  0  0  0  0  0  0  0  0  0  0  0
    5.9197   -1.0194    0.4399 C   0  0  0  0  0  0  0  0  0  0  0  0
  1  3  1  0
  1  5  1  0
  2  3  1  0
  2  8  1  0
  3  4  1  0
  3 10  1  0
  4  6  1  0
  5  7  1  0
  5 12  1  0
  6  9  1  0
  7  8  1  0
  9 11  1  0
 11 13  1  0
 13 14  1  0
M  END
>  <PUBCHEM_COMPOUND_CID>  (1) 
22718

>  <PUBCHEM_CONFORMER_RMSD>  (1) 
0.6

>  <PUBCHEM_CONFORMER_DIVERSEORDER>  (1) 
2
149
159
35
72
9
155
110
49
33
108
145
139
56
148
147
97
153
25
150
27
109
88
157
133
1
48
142
113
10
14
169
165
74
107
83
90
131
5
75
38
158
114
52
152
122
111
22
119
103
161
73
58
62
4
160
136
70
30
168
16
46
143
105
54
135
128
102
71
138
132
68
121
64
57
144
81
60
23
151
17
41
154
63
65
96
140
12
134
125
164
3
32
29
69
37
34
89
31
137
13
123
146
99
120
24
78
84
92
166
15
45
44
8
141
66
162
55
93
51
167
101
67
127
19
6
86
100
156
39
11
21
98
20
112
76
61
104
163
28
124
115
106
26
7
77
42
80
129
47
116
95
43
94
18
85
130
79
50
118
53
82
36
126
59
91
117
40
87

>  <PUBCHEM_MMFF94_PARTIAL_CHARGES>  (1) 
5
1 -0.56
2 -0.56
3 0.56
5 0.28
8 0.28

>  <PUBCHEM_EFFECTIVE_ROTOR_COUNT>  (1) 
6.2

>  <PUBCHEM_PHARMACOPHORE_FEATURES>  (1) 
5
1 1 acceptor
1 14 hydrophobe
1 2 acceptor
5 4 6 9 11 13 hydrophobe
6 1 2 3 5 7 8 rings

>  <PUBCHEM_HEAVY_ATOM_COUNT>  (1) 
14

>  <PUBCHEM_ATOM_DEF_STEREO_COUNT>  (1) 
0

>  <PUBCHEM_ATOM_UDEF_STEREO_COUNT>  (1) 
2

>  <PUBCHEM_BOND_DEF_STEREO_COUNT>  (1) 
0

>  <PUBCHEM_BOND_UDEF_STEREO_COUNT>  (1) 
0

>  <PUBCHEM_ISOTOPIC_ATOM_COUNT>  (1) 
0

>  <PUBCHEM_COMPONENT_COUNT>  (1) 
1

>  <PUBCHEM_CACTVS_TAUTO_COUNT>  (1) 
1

>  <PUBCHEM_CONFORMER_ID>  (1) 
000058BE00000002

>  <PUBCHEM_MMFF94_ENERGY>  (1) 
18.9503

>  <PUBCHEM_FEATURE_SELFOVERLAP>  (1) 
25.404

>  <PUBCHEM_SHAPE_FINGERPRINT>  (1) 
10680689 15 18335422340261584732
11046707 91 18341330080208544974
11127187 94 16370722681783425915
12916754 54 18341046423562534204
13024252 1 16515687741150914145
14123260 362 10015586120835119242
17780758 139 17989488490125177026
200 152 17967248723842479750
20112054 13 13973696017800047354
20279233 1 18272370819980701804
20281475 54 18342178873700418884
20325693 3 13334735734486592475
20645477 70 12757416225754630104
20653085 51 11459237161601188545
20681677 274 17630599235700694282
20828058 44 18273216379056343674
20871999 31 13768203934714934947
21339142 126 18408041810273752725
21650355 55 17846785143398006441
22485316 2 18261951856754998224
2306618 200 18271805696563085153
23402539 116 17386005032177332028
23403322 49 17603867810369668826
23500284 214 10087652519197152230
27216 239 14620801487389103739
3086196 2 17560805489060254487
559249 180 18042676213729819758
57265010 4 17561370573327572602

>  <PUBCHEM_SHAPE_MULTIPOLES>  (1) 
276.37
9.54
1.88
1.21
19.09
0.44
-0.35
4.19
-1.13
-1.98
0.65
-1.3
0.06
-0.51

>  <PUBCHEM_SHAPE_SELFOVERLAP>  (1) 
526.973

>  <PUBCHEM_SHAPE_VOLUME>  (1) 
171.1

>  <PUBCHEM_COORDINATE_TYPE>  (1) 
2
5
10

$$$$
