22727
     RDKit          3D

  8  8  0  0  0  0  0  0  0  0999 V2000
    2.3781    0.0002   -1.2943 Br  0  0  0  0  0  0  0  0  0  0  0  0
   -1.4232    0.0000    0.2174 C   0  0  0  0  0  0  0  0  0  0  0  0
   -0.6070    1.2623   -0.0841 C   0  0  0  0  0  0  0  0  0  0  0  0
   -0.6070   -1.2623   -0.0842 C   0  0  0  0  0  0  0  0  0  0  0  0
    0.7228    1.2734    0.6714 C   0  0  0  0  0  0  0  0  0  0  0  0
    0.7229   -1.2736    0.6712 C   0  0  0  0  0  0  0  0  0  0  0  0
    1.5414    0.0000    0.4800 C   0  0  0  0  0  0  0  0  0  0  0  0
   -2.7280    0.0000   -0.5773 C   0  0  0  0  0  0  0  0  0  0  0  0
  1  7  1  0
  2  3  1  0
  2  4  1  0
  2  8  1  0
  3  5  1  0
  4  6  1  0
  5  7  1  0
  6  7  1  0
M  END
>  <PUBCHEM_COMPOUND_CID>  (1) 
22727

>  <PUBCHEM_CONFORMER_RMSD>  (1) 
0.4

>  <PUBCHEM_CONFORMER_DIVERSEORDER>  (1) 
2
3
4
1
5

>  <PUBCHEM_MMFF94_PARTIAL_CHARGES>  (1) 
2
1 -0.23
7 0.23

>  <PUBCHEM_EFFECTIVE_ROTOR_COUNT>  (1) 
1.2

>  <PUBCHEM_PHARMACOPHORE_FEATURES>  (1) 
2
1 1 hydrophobe
6 2 3 4 5 6 7 rings

>  <PUBCHEM_HEAVY_ATOM_COUNT>  (1) 
8

>  <PUBCHEM_ATOM_DEF_STEREO_COUNT>  (1) 
0

>  <PUBCHEM_ATOM_UDEF_STEREO_COUNT>  (1) 
0

>  <PUBCHEM_BOND_DEF_STEREO_COUNT>  (1) 
0

>  <PUBCHEM_BOND_UDEF_STEREO_COUNT>  (1) 
0

>  <PUBCHEM_ISOTOPIC_ATOM_COUNT>  (1) 
0

>  <PUBCHEM_COMPONENT_COUNT>  (1) 
1

>  <PUBCHEM_CACTVS_TAUTO_COUNT>  (1) 
1

>  <PUBCHEM_CONFORMER_ID>  (1) 
000058C700000002

>  <PUBCHEM_MMFF94_ENERGY>  (1) 
5.977

>  <PUBCHEM_FEATURE_SELFOVERLAP>  (1) 
10.148

>  <PUBCHEM_SHAPE_FINGERPRINT>  (1) 
12423570 1 13439189811740598032
12897270 3 18114189626578797564
16714656 1 18410867559167079270
16945 1 18410577283696884114
18185500 45 18193266403985078283
20653085 51 16589457334753806158
21040471 1 18262508299147203019
21293036 1 18337115656317994613
21922407 69 14635693375923112329
23552423 10 17972881358534384275
29004967 10 16128373753343193170
5084963 1 17749942254824632139

>  <PUBCHEM_SHAPE_MULTIPOLES>  (1) 
170.58
3.16
1.41
1.07
0.53
0
-0.2
0
-1.37
-0.01
0.24
-0.5
0
0

>  <PUBCHEM_SHAPE_SELFOVERLAP>  (1) 
311.977

>  <PUBCHEM_SHAPE_VOLUME>  (1) 
108.2

>  <PUBCHEM_COORDINATE_TYPE>  (1) 
2
5
10

$$$$
