22729
     RDKit          3D

 12 12  0  0  0  0  0  0  0  0999 V2000
   -1.3158   -0.8763   -0.0051 O   0  0  0  0  0  0  0  0  0  0  0  0
    0.9479   -1.3540   -0.0020 N   0  0  0  0  0  0  0  0  0  0  0  0
    0.1541    0.9104   -0.0019 N   0  0  0  0  0  0  0  0  0  0  0  0
    2.5121    0.4657    0.0019 N   0  0  0  0  0  0  0  0  0  0  0  0
    3.2579   -1.7577    0.0023 N   0  0  0  0  0  0  0  0  0  0  0  0
    1.7065    2.6679    0.0019 N   0  0  0  0  0  0  0  0  0  0  0  0
   -3.6921   -0.5890    0.0128 C   0  0  0  0  0  0  0  0  0  0  0  0
   -2.3404    0.1081   -0.0061 C   0  0  0  0  0  0  0  0  0  0  0  0
   -4.8401    0.4042   -0.0023 C   0  0  0  0  0  0  0  0  0  0  0  0
   -0.0222   -0.4227   -0.0030 C   0  0  0  0  0  0  0  0  0  0  0  0
    2.1873   -0.8373    0.0006 C   0  0  0  0  0  0  0  0  0  0  0  0
    1.4449    1.2806    0.0007 C   0  0  0  0  0  0  0  0  0  0  0  0
  1  8  1  0
  1 10  1  0
  2 10  2  0
  2 11  1  0
  3 10  1  0
  3 12  2  0
  4 11  2  0
  4 12  1  0
  5 11  1  0
  6 12  1  0
  7  8  1  0
  7  9  1  0
M  END
>  <PUBCHEM_COMPOUND_CID>  (1) 
22729

>  <PUBCHEM_CONFORMER_RMSD>  (1) 
0.6

>  <PUBCHEM_CONFORMER_DIVERSEORDER>  (1) 
1
6
3
8
7
2
5
4

>  <PUBCHEM_MMFF94_PARTIAL_CHARGES>  (1) 
14
1 -0.36
10 0.7
11 0.72
12 0.72
2 -0.62
20 0.4
21 0.4
22 0.4
23 0.4
3 -0.62
4 -0.62
5 -0.9
6 -0.9
8 0.28

>  <PUBCHEM_EFFECTIVE_ROTOR_COUNT>  (1) 
3

>  <PUBCHEM_PHARMACOPHORE_FEATURES>  (1) 
6
1 5 donor
1 6 donor
1 9 hydrophobe
4 2 4 5 11 cation
4 3 4 6 12 cation
6 2 3 4 10 11 12 rings

>  <PUBCHEM_HEAVY_ATOM_COUNT>  (1) 
12

>  <PUBCHEM_ATOM_DEF_STEREO_COUNT>  (1) 
0

>  <PUBCHEM_ATOM_UDEF_STEREO_COUNT>  (1) 
0

>  <PUBCHEM_BOND_DEF_STEREO_COUNT>  (1) 
0

>  <PUBCHEM_BOND_UDEF_STEREO_COUNT>  (1) 
0

>  <PUBCHEM_ISOTOPIC_ATOM_COUNT>  (1) 
0

>  <PUBCHEM_COMPONENT_COUNT>  (1) 
1

>  <PUBCHEM_CACTVS_TAUTO_COUNT>  (1) 
5

>  <PUBCHEM_CONFORMER_ID>  (1) 
000058C900000001

>  <PUBCHEM_MMFF94_ENERGY>  (1) 
31.0693

>  <PUBCHEM_FEATURE_SELFOVERLAP>  (1) 
30.489

>  <PUBCHEM_SHAPE_FINGERPRINT>  (1) 
10130415 120 18334011653446647458
10219947 1 18272090469974387327
10608611 8 18335136535936799125
11471102 20 18410007732674127959
12032990 46 18339364033227796294
12346645 6 18343021116143664236
13922767 16 18410570682669779721
14325111 11 18338517547066406755
14648413 74 18263085585601166738
15442244 35 18340771421059373177
15501101 241 18259984881343720397
18186145 218 17894624860268789051
20606313 2 18410573989456974469
20645477 70 18411980252471993231
20871998 22 18127414449648999246
23380061 81 18336269024107261001
23402655 69 18413385432721892005
2748010 2 18267007368006186372
7364860 26 18342457084117213368

>  <PUBCHEM_SHAPE_MULTIPOLES>  (1) 
216.18
6.86
1.86
0.57
8.74
0.94
0
-0.72
-0.01
-2.02
0
0.06
0
0

>  <PUBCHEM_SHAPE_SELFOVERLAP>  (1) 
433.69

>  <PUBCHEM_SHAPE_VOLUME>  (1) 
123.8

>  <PUBCHEM_COORDINATE_TYPE>  (1) 
2
5
10

$$$$
