22736
     RDKit          3D

 24 26  0  0  0  0  0  0  0  0999 V2000
    8.0949   -0.3392   -0.3224 O   0  0  0  0  0  0  0  0  0  0  0  0
    2.5475   -0.1582   -0.3754 N   0  0  0  0  0  0  0  0  0  0  0  0
    2.1059   -0.2048    0.7967 N   0  0  0  0  0  0  0  0  0  0  0  0
   -3.4783   -0.0415    0.7471 N   0  0  0  0  0  0  0  0  0  0  0  0
   -3.8948    0.0300   -0.4329 N   0  0  0  0  0  0  0  0  0  0  0  0
    6.0715    0.9454   -0.2801 C   0  0  0  0  0  0  0  0  0  0  0  0
    4.6773    0.9865   -0.2938 C   0  0  0  0  0  0  0  0  0  0  0  0
    3.9453   -0.1990   -0.3615 C   0  0  0  0  0  0  0  0  0  0  0  0
    6.7337   -0.2811   -0.3341 C   0  0  0  0  0  0  0  0  0  0  0  0
    4.6074   -1.4255   -0.4155 C   0  0  0  0  0  0  0  0  0  0  0  0
    6.0017   -1.4665   -0.4018 C   0  0  0  0  0  0  0  0  0  0  0  0
    6.8391    2.2241   -0.2075 C   0  0  0  0  0  0  0  0  0  0  0  0
    0.7011   -0.1635    0.7832 C   0  0  0  0  0  0  0  0  0  0  0  0
   -2.0804   -0.0824    0.7589 C   0  0  0  0  0  0  0  0  0  0  0  0
    0.0455    1.0625    0.8376 C   0  0  0  0  0  0  0  0  0  0  0  0
   -0.0238   -1.3494    0.7167 C   0  0  0  0  0  0  0  0  0  0  0  0
   -1.3488    1.1033    0.8255 C   0  0  0  0  0  0  0  0  0  0  0  0
   -1.4180   -1.3087    0.7045 C   0  0  0  0  0  0  0  0  0  0  0  0
   -5.2996    0.0709   -0.4453 C   0  0  0  0  0  0  0  0  0  0  0  0
   -5.9549    1.2969   -0.3906 C   0  0  0  0  0  0  0  0  0  0  0  0
   -6.0240   -1.1150   -0.5121 C   0  0  0  0  0  0  0  0  0  0  0  0
   -7.3492    1.3376   -0.4028 C   0  0  0  0  0  0  0  0  0  0  0  0
   -7.4182   -1.0744   -0.5245 C   0  0  0  0  0  0  0  0  0  0  0  0
   -8.0808    0.1519   -0.4698 C   0  0  0  0  0  0  0  0  0  0  0  0
  1  9  1  0
  2  3  2  0
  2  8  1  0
  3 13  1  0
  4  5  2  0
  4 14  1  0
  5 19  1  0
  6  7  2  0
  6  9  1  0
  6 12  1  0
  7  8  1  0
  8 10  2  0
  9 11  2  0
 10 11  1  0
 13 15  2  0
 13 16  1  0
 14 17  2  0
 14 18  1  0
 15 17  1  0
 16 18  2  0
 19 20  2  0
 19 21  1  0
 20 22  1  0
 21 23  2  0
 22 24  2  0
 23 24  1  0
M  END
>  <PUBCHEM_COMPOUND_CID>  (1) 
22736

>  <PUBCHEM_CONFORMER_RMSD>  (1) 
0.8

>  <PUBCHEM_CONFORMER_DIVERSEORDER>  (1) 
1
5
2
3
4

>  <PUBCHEM_MMFF94_PARTIAL_CHARGES>  (1) 
37
1 -0.53
10 -0.15
11 -0.15
12 0.14
13 0.18
14 0.18
15 -0.15
16 -0.15
17 -0.15
18 -0.15
19 0.18
2 -0.18
20 -0.15
21 -0.15
22 -0.15
23 -0.15
24 -0.15
25 0.15
26 0.15
27 0.15
3 -0.18
31 0.15
32 0.15
33 0.15
34 0.15
35 0.15
36 0.15
37 0.45
38 0.15
39 0.15
4 -0.18
40 0.15
5 -0.18
6 -0.14
7 -0.15
8 0.18
9 0.08

>  <PUBCHEM_EFFECTIVE_ROTOR_COUNT>  (1) 
4

>  <PUBCHEM_PHARMACOPHORE_FEATURES>  (1) 
4
1 1 donor
6 13 14 15 16 17 18 rings
6 19 20 21 22 23 24 rings
6 6 7 8 9 10 11 rings

>  <PUBCHEM_HEAVY_ATOM_COUNT>  (1) 
24

>  <PUBCHEM_ATOM_DEF_STEREO_COUNT>  (1) 
0

>  <PUBCHEM_ATOM_UDEF_STEREO_COUNT>  (1) 
0

>  <PUBCHEM_BOND_DEF_STEREO_COUNT>  (1) 
0

>  <PUBCHEM_BOND_UDEF_STEREO_COUNT>  (1) 
0

>  <PUBCHEM_ISOTOPIC_ATOM_COUNT>  (1) 
0

>  <PUBCHEM_COMPONENT_COUNT>  (1) 
1

>  <PUBCHEM_CACTVS_TAUTO_COUNT>  (1) 
5

>  <PUBCHEM_CONFORMER_ID>  (1) 
000058D000000001

>  <PUBCHEM_MMFF94_ENERGY>  (1) 
67.8024

>  <PUBCHEM_FEATURE_SELFOVERLAP>  (1) 
20.297

>  <PUBCHEM_SHAPE_FINGERPRINT>  (1) 
10 15 11458426830110746905
10066227 49 17988085478691624086
10299344 5 17989208140250341607
10595046 47 18202007590651860984
10670039 82 17895187775979095261
10835480 77 18336269045851311320
10883706 142 16370444453944351025
11135609 127 18264207079874663204
11315181 36 18131635591511322937
11524674 6 14908176469891905685
11638347 137 9583520936657895301
11719270 70 17989485191300708662
12082328 90 18342737399953661045
12643181 29 15123501528260923799
13533116 47 17023456452979909938
13540713 4 18124873727374386531
13540713 5 18051975810115918555
13668630 136 17704077274381808566
13673619 4 15195564598102754667
13914758 101 18041278777400693464
13968360 50 18060139804301644326
14123256 10 17561363980647588670
14251752 14 18343299254279055895
14251764 46 18410011035203330562
14933364 13 18408322181586182677
15183329 4 18202283585171024715
15301273 46 10375876268488535243
15716309 27 9367343730585092305
1577012 14 17749100059842279057
15849732 13 18408323302361676807
18006028 8 15123789583043245851
18681886 176 18271235110779836313
19301679 30 12180661921253175816
20157964 124 18409732859558133830
20281389 69 16660639648410501789
20554085 129 16515676775809647712
21150785 3 18342457049725566755
21267235 1 18343300397542067019
22224240 67 8286197245369780625
22956985 138 15766990562757173046
23035841 295 17561362885969095727
23081809 10 17561092371226685546
23198884 109 18187365416074834457
23559900 14 18130218384371813960
23576562 1 18116713105218607221
246663 6 14764349349108486565
2838139 119 16225763038907885263
3004659 81 18411696586528717938
3009799 131 18261112975857707041
33532 11 11167950147330011108
335352 9 18410864253356025734
3633792 109 18409732829081795800
4073 2 18041283269789266618
4098825 35 18337951190961417837
4325135 7 18060420205625389244
504579 68 18271818943001622020
5219985 9 16128655249794767169
5283156 175 17918276428791720030
5758199 1 17385723578511869363
5937810 71 18336825274682672253
59755656 520 17675919924029989747
6081469 158 17967534546143823990

>  <PUBCHEM_SHAPE_MULTIPOLES>  (1) 
468.12
26.19
1.61
0.9
6.68
0.26
-0.11
3.05
8.8
-1.1
0.06
0.28
-0.02
0.1

>  <PUBCHEM_SHAPE_SELFOVERLAP>  (1) 
1020.275

>  <PUBCHEM_SHAPE_VOLUME>  (1) 
254.9

>  <PUBCHEM_COORDINATE_TYPE>  (1) 
2
5
10

$$$$
