22738
     RDKit          3D

 24 27  0  0  1  0  0  0  0  0999 V2000
   -3.6746   -0.1838    0.4621 O   0  0  0  0  0  0  0  0  0  0  0  0
   -4.3763   -0.9781   -1.5874 O   0  0  0  0  0  0  0  0  0  0  0  0
    1.3223   -0.2030    0.1339 C   0  0  0  0  0  0  0  0  0  0  0  0
    1.0115    1.3132    0.2544 C   0  0  0  0  0  0  0  0  0  0  0  0
   -0.4889    1.6257    0.0529 C   0  0  0  0  0  0  0  0  0  0  0  0
    2.8559   -0.5154    0.3237 C   0  0  0  0  0  0  0  0  0  0  0  0
   -1.4345    0.7582    0.9407 C   0  0  0  0  0  0  0  0  0  0  0  0
    3.6477    0.3548   -0.7048 C   0  0  0  0  0  0  0  0  0  0  0  0
    0.3864   -1.0654    1.0123 C   0  0  0  0  0  0  0  0  0  0  0  0
   -0.6689   -0.2763    1.7860 C   0  0  0  0  0  0  0  0  0  0  0  0
    1.8913    2.1566   -0.6840 C   0  0  0  0  0  0  0  0  0  0  0  0
   -2.3901    0.0760   -0.0726 C   0  0  0  0  0  0  0  0  0  0  0  0
   -1.0059    1.4654   -1.3907 C   0  0  0  0  0  0  0  0  0  0  0  0
    3.3790    1.8530   -0.5279 C   0  0  0  0  0  0  0  0  0  0  0  0
    3.1485   -2.0082   -0.0035 C   0  0  0  0  0  0  0  0  0  0  0  0
   -2.4575    1.0519   -1.2361 C   0  0  0  0  0  0  0  0  0  0  0  0
    5.1527    0.0518   -0.7122 C   0  0  0  0  0  0  0  0  0  0  0  0
    3.2984   -0.2255    1.7827 C   0  0  0  0  0  0  0  0  0  0  0  0
   -2.2120    1.6739    1.9131 C   0  0  0  0  0  0  0  0  0  0  0  0
    4.6422   -2.3430   -0.0495 C   0  0  0  0  0  0  0  0  0  0  0  0
    5.4132   -1.4261   -0.9918 C   0  0  0  0  0  0  0  0  0  0  0  0
   -4.5844   -0.7164   -0.4106 C   0  0  0  0  0  0  0  0  0  0  0  0
   -5.8936   -0.9327    0.3114 C   0  0  0  0  0  0  0  0  0  0  0  0
   -6.9623   -1.5067   -0.6023 C   0  0  0  0  0  0  0  0  0  0  0  0
  1 12  1  0
  1 22  1  0
  2 22  2  0
  3  4  1  0
  3  6  1  0
  3  9  1  0
  4  5  1  0
  4 11  1  0
  5  7  1  0
  5 13  1  0
  6  8  1  0
  6 15  1  0
  6 18  1  0
  7 10  1  0
  7 12  1  0
  7 19  1  0
  8 14  1  0
  8 17  1  0
  9 10  1  0
 11 14  1  0
 12 16  1  0
 13 16  1  0
 15 20  1  0
 17 21  1  0
 20 21  1  0
 22 23  1  0
 23 24  1  0
M  END
>  <PUBCHEM_COMPOUND_CID>  (1) 
22738

>  <PUBCHEM_CONFORMER_RMSD>  (1) 
0.8

>  <PUBCHEM_CONFORMER_DIVERSEORDER>  (1) 
7
35
109
96
31
57
10
14
75
65
74
93
13
61
66
92
100
33
70
6
63
8
72
85
40
76
22
106
4
47
59
51
82
77
87
32
104
69
23
29
49
11
52
55
67
60
21
84
37
1
15
43
48
39
12
46
110
105
9
99
94
53
42
64
73
54
101
95
50
108
62
103
97
107
26
89
20
58
5
36
102
80
30
44
2
27
19
90
45
91
38
86
71
24
83
25
34
68
98
41
28
17
88
78
3
16
56
18
79
81

>  <PUBCHEM_MMFF94_PARTIAL_CHARGES>  (1) 
5
1 -0.43
12 0.28
2 -0.57
22 0.66
23 0.06

>  <PUBCHEM_EFFECTIVE_ROTOR_COUNT>  (1) 
5.2

>  <PUBCHEM_PHARMACOPHORE_FEATURES>  (1) 
6
1 2 acceptor
1 24 hydrophobe
5 5 7 12 13 16 rings
6 3 4 5 7 9 10 rings
6 3 4 6 8 11 14 rings
6 6 8 15 17 20 21 rings

>  <PUBCHEM_HEAVY_ATOM_COUNT>  (1) 
24

>  <PUBCHEM_ATOM_DEF_STEREO_COUNT>  (1) 
2

>  <PUBCHEM_ATOM_UDEF_STEREO_COUNT>  (1) 
5

>  <PUBCHEM_BOND_DEF_STEREO_COUNT>  (1) 
0

>  <PUBCHEM_BOND_UDEF_STEREO_COUNT>  (1) 
0

>  <PUBCHEM_ISOTOPIC_ATOM_COUNT>  (1) 
0

>  <PUBCHEM_COMPONENT_COUNT>  (1) 
1

>  <PUBCHEM_CACTVS_TAUTO_COUNT>  (1) 
1

>  <PUBCHEM_CONFORMER_ID>  (1) 
000058D200000007

>  <PUBCHEM_MMFF94_ENERGY>  (1) 
75.1243

>  <PUBCHEM_FEATURE_SELFOVERLAP>  (1) 
30.67

>  <PUBCHEM_SHAPE_FINGERPRINT>  (1) 
10 15 13183015212103273910
10366900 7 17168150013756756904
10498660 4 14996293504599563004
10693767 8 18335130990675798819
11089746 13 11169915004472800182
11578080 2 17272559801418919330
11796584 16 17774728662046914671
11961588 58 15068628213874229972
12011746 2 17458348554498011286
12236239 1 18201727262389272161
12633257 1 14333114291308539479
12670546 177 18186522090097395022
12916754 54 18410294666406780016
13224815 77 18338515245006205848
13533116 47 18272373113155796352
13675066 3 12463573971543592475
14251764 30 18271805774410800567
14576447 43 18410857642583620902
15163728 17 13985206732338803879
15183329 4 18333724698983067781
15475509 35 17489582376855781135
15537594 2 18201434817955636511
16752209 62 17604144814406795664
16945 1 17749677285861096496
17349148 13 18411139112964638714
17357779 13 17749113278944851980
173720 79 13623798475616987921
17492 89 18197499515632170982
1813 80 18202571691540713453
18222031 100 18409164407002448826
19784866 140 18334853922856857275
19784866 170 11815890167860985210
19784866 240 18341900675309040373
200 152 18413110554197762833
20028762 73 18272651242295702015
20554085 129 17912078654115455600
20645477 70 18186802508628240844
20775438 99 18120356916106651710
21033650 10 16009025034760860445
21267235 1 18412271631110291511
21285901 2 17458056058313550631
21344244 181 18187088381857860699
21637258 2 17989199352779045583
221357 26 18186800274997223373
22393880 68 17822844290993693061
22950370 63 18130787897657527671
23503953 91 13038894547600795462
23522609 53 18055668128738968713
23559900 14 17968383462940145868
23569914 152 17323760437557460231
25147074 1 18199770114143106025
2838139 119 11746934313284485319
2871803 45 17967249801615572416
3004659 81 18408320008142976079
3286 77 17989201521674174784
3411729 13 15696859552754857896
3472631 163 11891338655289813779
351380 3 18202845461346082055
46194498 28 17749390411741171604
463206 1 18271521000224044967
465052 167 17917153896276485367
484989 97 17896054293582817930
5104073 3 16916782942575044570
57527295 17 17460032881947662322
58807428 26 13326851110971449892
70251023 43 18334013856706809024
7970288 3 18341612568898453126
9709674 26 18113624482203140312

>  <PUBCHEM_SHAPE_MULTIPOLES>  (1) 
482.17
12.79
2.18
1.5
11.57
0.07
-0.44
-8.68
4.1
-1.25
0.29
0.42
0.23
-0.62

>  <PUBCHEM_SHAPE_SELFOVERLAP>  (1) 
1011.088

>  <PUBCHEM_SHAPE_VOLUME>  (1) 
269.1

>  <PUBCHEM_COORDINATE_TYPE>  (1) 
2
5
10

$$$$
