22733
     RDKit          3D

 18 20  0  0  1  0  0  0  0  0999 V2000
    1.2782   -2.3387    1.3355 O   0  0  0  0  0  0  0  0  0  0  0  0
   -0.5149   -2.7901   -1.0018 O   0  0  0  0  0  0  0  0  0  0  0  0
    0.8008   -0.9482   -1.6305 N   0  0  0  0  0  0  0  0  0  0  0  0
   -2.5460   -0.5833   -0.0550 N   0  0  0  0  0  0  0  0  0  0  0  0
    0.5258   -1.3295    0.6911 C   0  0  0  0  0  0  0  0  0  0  0  0
    1.3987   -0.1367    0.4138 C   0  0  0  0  0  0  0  0  0  0  0  0
   -0.7254   -0.9915    1.4879 C   0  0  0  0  0  0  0  0  0  0  0  0
    1.5220    0.0360   -0.9636 C   0  0  0  0  0  0  0  0  0  0  0  0
    0.1714   -1.8164   -0.7307 C   0  0  0  0  0  0  0  0  0  0  0  0
    2.0359    0.7257    1.2873 C   0  0  0  0  0  0  0  0  0  0  0  0
   -1.6179   -0.0305    0.7477 C   0  0  0  0  0  0  0  0  0  0  0  0
    2.2678    1.0543   -1.5225 C   0  0  0  0  0  0  0  0  0  0  0  0
    2.7978    1.7663    0.7466 C   0  0  0  0  0  0  0  0  0  0  0  0
    2.9126    1.9290   -0.6462 C   0  0  0  0  0  0  0  0  0  0  0  0
   -1.4353    1.3239    0.9320 C   0  0  0  0  0  0  0  0  0  0  0  0
   -2.2758    2.1839    0.2339 C   0  0  0  0  0  0  0  0  0  0  0  0
   -3.3444    0.2838   -0.7172 C   0  0  0  0  0  0  0  0  0  0  0  0
   -3.2513    1.6619   -0.6085 C   0  0  0  0  0  0  0  0  0  0  0  0
  1  5  1  0
  2  9  2  0
  3  8  1  0
  3  9  1  0
  4 11  2  0
  4 17  1  0
  5  6  1  0
  5  7  1  0
  5  9  1  0
  6  8  2  0
  6 10  1  0
  7 11  1  0
  8 12  1  0
 10 13  2  0
 11 15  1  0
 12 14  2  0
 13 14  1  0
 15 16  2  0
 16 18  1  0
 17 18  2  0
M  END
>  <PUBCHEM_COMPOUND_CID>  (1) 
22733

>  <PUBCHEM_CONFORMER_RMSD>  (1) 
0.6

>  <PUBCHEM_CONFORMER_DIVERSEORDER>  (1) 
1
6
3
8
12
16
5
2
13
7
4
9
14
15
11
10

>  <PUBCHEM_MMFF94_PARTIAL_CHARGES>  (1) 
28
1 -0.68
10 -0.15
11 0.17
12 -0.15
13 -0.15
14 -0.15
15 -0.15
16 -0.15
17 0.16
18 -0.15
2 -0.57
21 0.37
22 0.15
23 0.15
24 0.4
25 0.15
26 0.15
27 0.15
28 0.15
29 0.15
3 -0.55
30 0.15
4 -0.62
5 0.48
6 -0.14
7 0.14
8 0.12
9 0.57

>  <PUBCHEM_EFFECTIVE_ROTOR_COUNT>  (1) 
2.4

>  <PUBCHEM_PHARMACOPHORE_FEATURES>  (1) 
8
1 1 acceptor
1 1 donor
1 2 acceptor
1 3 donor
1 4 acceptor
5 3 5 6 8 9 rings
6 4 11 15 16 17 18 rings
6 6 8 10 12 13 14 rings

>  <PUBCHEM_HEAVY_ATOM_COUNT>  (1) 
18

>  <PUBCHEM_ATOM_DEF_STEREO_COUNT>  (1) 
0

>  <PUBCHEM_ATOM_UDEF_STEREO_COUNT>  (1) 
1

>  <PUBCHEM_BOND_DEF_STEREO_COUNT>  (1) 
0

>  <PUBCHEM_BOND_UDEF_STEREO_COUNT>  (1) 
0

>  <PUBCHEM_ISOTOPIC_ATOM_COUNT>  (1) 
0

>  <PUBCHEM_COMPONENT_COUNT>  (1) 
1

>  <PUBCHEM_CACTVS_TAUTO_COUNT>  (1) 
4

>  <PUBCHEM_CONFORMER_ID>  (1) 
000058CD00000001

>  <PUBCHEM_MMFF94_ENERGY>  (1) 
52.026

>  <PUBCHEM_FEATURE_SELFOVERLAP>  (1) 
40.687

>  <PUBCHEM_SHAPE_FINGERPRINT>  (1) 
10948715 1 18335697273433534260
11471102 22 13479962623755952596
11578080 2 9525067376304396255
11640471 11 17895750828346807212
12138202 97 18058171820089093190
12654903 92 17120299027350802897
13132413 78 17611468528104564450
13134695 92 17682947813080195278
13299463 15 17274834557426242341
13464514 151 18048335352796601292
13693222 7 18187936010627242705
14181834 199 18121493562057760826
14614273 12 17700141185915693534
14817 1 13119655772483852358
15775835 57 18408882953464040849
15848702 105 18122041342471627103
15852999 172 17530962497129914483
16945 1 18058174001800636680
17357779 13 16768995626323133591
17492 54 17981589783084982589
17980427 23 17766243549962516945
18981168 100 17533810163542513625
19868273 293 18197499734595822860
19868273 325 17620765315344504802
20511035 2 18334295323193870498
21296965 12 18337966699745243707
21524375 3 18408889550681279752
21731516 1 11743841343735176261
21947302 44 18188494553891321449
230 275 18188496778505052209
23419403 2 17109946210521098486
2748010 2 18339381715370491209
305870 269 18259984868638055912
549884 4 17833288431876958061
5845 1 10954297574472937506
7364860 26 18197213637891306403
81228 2 17621330455731708634

>  <PUBCHEM_SHAPE_MULTIPOLES>  (1) 
348.73
4.67
2.61
1.52
1.74
0.73
-0.06
-3.5
-0.72
-0.13
-0.1
-0.54
0.26
-0.15

>  <PUBCHEM_SHAPE_SELFOVERLAP>  (1) 
776.049

>  <PUBCHEM_SHAPE_VOLUME>  (1) 
185.9

>  <PUBCHEM_COORDINATE_TYPE>  (1) 
2
5
10

$$$$
