22740
     RDKit          3D

 15 14  0  0  0  0  0  0  0  0999 V2000
    0.0001    1.0161    0.0000 S   0  0  0  0  0  0  0  0  0  0  0  0
   -3.6866   -0.4046   -0.1741 O   0  0  0  0  0  0  0  0  0  0  0  0
    3.6866   -0.4046    0.1741 O   0  0  0  0  0  0  0  0  0  0  0  0
   -2.8784    1.7527   -0.1315 O   0  0  0  0  0  0  0  0  0  0  0  0
    2.8785    1.7527    0.1315 O   0  0  0  0  0  0  0  0  0  0  0  0
   -1.3693   -0.1636   -0.0632 C   0  0  0  0  0  0  0  0  0  0  0  0
    1.3693   -0.1635    0.0633 C   0  0  0  0  0  0  0  0  0  0  0  0
   -2.7002    0.5428   -0.1248 C   0  0  0  0  0  0  0  0  0  0  0  0
    2.7002    0.5428    0.1247 C   0  0  0  0  0  0  0  0  0  0  0  0
   -5.0249    0.0994   -0.2382 C   0  0  0  0  0  0  0  0  0  0  0  0
    5.0249    0.0994    0.2382 C   0  0  0  0  0  0  0  0  0  0  0  0
   -5.9704   -1.0545   -0.2859 C   0  0  0  0  0  0  0  0  0  0  0  0
    5.9704   -1.0545    0.2859 C   0  0  0  0  0  0  0  0  0  0  0  0
   -6.9204   -1.2803    0.6283 C   0  0  0  0  0  0  0  0  0  0  0  0
    6.9203   -1.2804   -0.6283 C   0  0  0  0  0  0  0  0  0  0  0  0
  1  6  1  0
  1  7  1  0
  2  8  1  0
  2 10  1  0
  3  9  1  0
  3 11  1  0
  4  8  2  0
  5  9  2  0
  6  8  1  0
  7  9  1  0
 10 12  1  0
 11 13  1  0
 12 14  2  0
 13 15  2  0
M  END
>  <PUBCHEM_COMPOUND_CID>  (1) 
22740

>  <PUBCHEM_CONFORMER_RMSD>  (1) 
0.8

>  <PUBCHEM_CONFORMER_DIVERSEORDER>  (1) 
1
5
113
142
21
112
151
111
4
7
102
26
122
141
118
28
35
146
46
106
85
67
10
144
158
3
64
138
123
29
15
45
66
128
140
131
132
116
22
11
79
36
8
53
126
56
23
107
74
52
95
136
82
70
62
30
39
27
72
100
58
9
145
33
47
108
125
25
130
96
59
101
155
94
40
153
105
148
157
60
121
86
71
55
129
43
20
147
6
14
89
2
69
99
50
149
17
88
152
97
49
31
68
13
156
91
117
51
109
65
84
78
98
124
115
143
42
12
48
87
103
57
114
63
137
16
119
41
104
110
90
120
154
93
37
133
83
73
135
81
92
76
44
150
77
139
34
75
18
127
80
134
54
61
32
19
24
38

>  <PUBCHEM_MMFF94_PARTIAL_CHARGES>  (1) 
21
1 -0.46
10 0.42
11 0.42
12 -0.29
13 -0.29
14 -0.3
15 -0.3
2 -0.43
24 0.15
25 0.15
26 0.15
27 0.15
28 0.15
29 0.15
3 -0.43
4 -0.57
5 -0.57
6 0.29
7 0.29
8 0.66
9 0.66

>  <PUBCHEM_EFFECTIVE_ROTOR_COUNT>  (1) 
10

>  <PUBCHEM_PHARMACOPHORE_FEATURES>  (1) 
4
1 14 hydrophobe
1 15 hydrophobe
1 4 acceptor
1 5 acceptor

>  <PUBCHEM_HEAVY_ATOM_COUNT>  (1) 
15

>  <PUBCHEM_ATOM_DEF_STEREO_COUNT>  (1) 
0

>  <PUBCHEM_ATOM_UDEF_STEREO_COUNT>  (1) 
0

>  <PUBCHEM_BOND_DEF_STEREO_COUNT>  (1) 
0

>  <PUBCHEM_BOND_UDEF_STEREO_COUNT>  (1) 
0

>  <PUBCHEM_ISOTOPIC_ATOM_COUNT>  (1) 
0

>  <PUBCHEM_COMPONENT_COUNT>  (1) 
1

>  <PUBCHEM_CACTVS_TAUTO_COUNT>  (1) 
1

>  <PUBCHEM_CONFORMER_ID>  (1) 
000058D400000001

>  <PUBCHEM_MMFF94_ENERGY>  (1) 
15.5047

>  <PUBCHEM_FEATURE_SELFOVERLAP>  (1) 
20.298

>  <PUBCHEM_SHAPE_FINGERPRINT>  (1) 
117890 112 9799692605889436746
12091667 2 17022904528313038149
12616971 3 17489580199212131061
12714333 28 7925912582114775446
13288520 33 18408885136093079541
13533116 47 18342455997548815344
13668630 136 18334576836725228518
13685833 64 18413389834899742394
14123256 34 18410578383224485442
1420 363 18408604777338458355
14251764 18 18201440294149279312
14350574 20 18334856121368539772
14729087 3 9655577396407757879
15501527 16 9151170965339960781
15716309 27 18202845470057036839
17834076 25 8142086463676857451
20281389 69 11095891462116922275
20526848 3 9295288360849944458
20621476 38 18411137996669241502
20645477 56 10447929460480370787
20681677 155 10952045654447978661
20767249 213 8502655909106984371
21130983 4 10303810999423488794
21150785 3 16226051102111343222
21267235 1 18410859858174672898
220451 1 15719384041394415433
2297311 6 18409731737838680445
23035841 295 18410856568657342939
23402539 116 18411131433874505621
23559900 14 18189332531817306809
246663 6 18410579487004973062
28498 318 18411979144575717431
33532 11 18411698781263034279
42788 4 18410571786128344997
465052 167 18342458140921742126
59755656 215 18187083940481718594

>  <PUBCHEM_SHAPE_MULTIPOLES>  (1) 
289.07
19.62
1.45
0.68
0
0.26
0
-11.52
0
0
0
0
-0.09
0.59

>  <PUBCHEM_SHAPE_SELFOVERLAP>  (1) 
534.835

>  <PUBCHEM_SHAPE_VOLUME>  (1) 
181.6

>  <PUBCHEM_COORDINATE_TYPE>  (1) 
2
5
10

$$$$
