22741
     RDKit          3D

 13 13  0  0  0  0  0  0  0  0999 V2000
    0.5474    0.6193    0.6879 O   0  0  0  0  0  0  0  0  0  0  0  0
   -5.2535   -0.8847   -0.4534 O   0  0  0  0  0  0  0  0  0  0  0  0
   -4.4590    1.2190   -0.1355 O   0  0  0  0  0  0  0  0  0  0  0  0
   -1.8054    0.3302    0.2436 C   0  0  0  0  0  0  0  0  0  0  0  0
   -0.4637   -0.3545    0.4717 C   0  0  0  0  0  0  0  0  0  0  0  0
   -2.9312   -0.6728   -0.0143 C   0  0  0  0  0  0  0  0  0  0  0  0
    1.8190    0.2889    0.2960 C   0  0  0  0  0  0  0  0  0  0  0  0
   -4.2652    0.0131   -0.2009 C   0  0  0  0  0  0  0  0  0  0  0  0
    2.2209   -1.0415    0.3161 C   0  0  0  0  0  0  0  0  0  0  0  0
    2.6923    1.2884   -0.1167 C   0  0  0  0  0  0  0  0  0  0  0  0
    3.5149   -1.3773   -0.0820 C   0  0  0  0  0  0  0  0  0  0  0  0
    3.9862    0.9524   -0.5149 C   0  0  0  0  0  0  0  0  0  0  0  0
    4.3974   -0.3805   -0.4976 C   0  0  0  0  0  0  0  0  0  0  0  0
  1  5  1  0
  1  7  1  0
  2  8  1  0
  3  8  2  0
  4  5  1  0
  4  6  1  0
  6  8  1  0
  7  9  2  0
  7 10  1  0
  9 11  1  0
 10 12  2  0
 11 13  2  0
 12 13  1  0
M  END
>  <PUBCHEM_COMPOUND_CID>  (1) 
22741

>  <PUBCHEM_CONFORMER_RMSD>  (1) 
0.6

>  <PUBCHEM_CONFORMER_DIVERSEORDER>  (1) 
1
51
55
52
34
40
58
41
65
5
29
50
2
28
11
69
53
33
47
30
60
10
64
12
8
22
49
24
48
56
14
20
66
35
67
54
6
62
25
16
68
39
23
45
17
18
59
4
36
19
63
3
61
57
44
26
15
38
32
9
21
31
37
13
42
27
43
7
46

>  <PUBCHEM_MMFF94_PARTIAL_CHARGES>  (1) 
18
1 -0.36
10 -0.15
11 -0.15
12 -0.15
13 -0.15
2 -0.65
20 0.15
21 0.15
22 0.15
23 0.15
24 0.15
25 0.5
3 -0.57
5 0.28
6 0.06
7 0.08
8 0.66
9 -0.15

>  <PUBCHEM_EFFECTIVE_ROTOR_COUNT>  (1) 
5

>  <PUBCHEM_PHARMACOPHORE_FEATURES>  (1) 
5
1 1 acceptor
1 2 acceptor
1 3 acceptor
3 2 3 8 anion
6 7 9 10 11 12 13 rings

>  <PUBCHEM_HEAVY_ATOM_COUNT>  (1) 
13

>  <PUBCHEM_ATOM_DEF_STEREO_COUNT>  (1) 
0

>  <PUBCHEM_ATOM_UDEF_STEREO_COUNT>  (1) 
0

>  <PUBCHEM_BOND_DEF_STEREO_COUNT>  (1) 
0

>  <PUBCHEM_BOND_UDEF_STEREO_COUNT>  (1) 
0

>  <PUBCHEM_ISOTOPIC_ATOM_COUNT>  (1) 
0

>  <PUBCHEM_COMPONENT_COUNT>  (1) 
1

>  <PUBCHEM_CACTVS_TAUTO_COUNT>  (1) 
1

>  <PUBCHEM_CONFORMER_ID>  (1) 
000058D500000001

>  <PUBCHEM_MMFF94_ENERGY>  (1) 
30.1032

>  <PUBCHEM_FEATURE_SELFOVERLAP>  (1) 
25.431

>  <PUBCHEM_SHAPE_FINGERPRINT>  (1) 
11287383 113 17894636993071320115
114248 4 18334295387660376211
11471102 20 18408044018060873136
12251169 10 9367343725994641536
13167823 11 18342454859366475711
14123238 8 17821447971640789471
14251717 144 18411421691895903446
14251718 22 18342458179112054967
14252887 29 12247687067085653244
15242433 33 18342176682666048975
15477762 27 18413110533419206574
17834072 33 18341331171198654079
18186145 218 17749103392056444635
200 152 18202565072636972305
20279233 1 17676493856018913018
20369508 70 17774998007809030472
20645477 70 18411139104354046542
21119208 17 18411702088381797878
22485316 2 18131347526915322998
23402539 116 18411696565112124517
23402655 69 18410014338339142884
23590187 302 18413109468019416832
3060560 45 18334579049266330494
4047638 21 17167583800007823208
42 15 10879996856312733169
4214541 1 18411418397755980333
4990 188 18411985749586773414
522135 26 18409166601989303586
5281201 14 18113618954353306100
5374978 207 9223235143467918503
77779 3 18409167710122391045

>  <PUBCHEM_SHAPE_MULTIPOLES>  (1) 
249.93
11.05
1.28
0.72
10.39
0.02
-0.01
-0.4
2.57
-0.67
0.05
-0.12
0
-0.2

>  <PUBCHEM_SHAPE_SELFOVERLAP>  (1) 
505.294

>  <PUBCHEM_SHAPE_VOLUME>  (1) 
145.8

>  <PUBCHEM_COORDINATE_TYPE>  (1) 
2
5
10

$$$$
