22748
     RDKit          3D

 14 13  0  0  1  0  0  0  0  0999 V2000
    4.7310    1.5804   -0.6470 I   0  0  0  0  0  0  0  0  0  0  0  0
   -4.7527    1.5528    0.6494 I   0  0  0  0  0  0  0  0  0  0  0  0
    1.5475   -0.7089    0.9898 O   0  0  0  0  0  0  0  0  0  0  0  0
   -1.5378   -0.6837   -0.9991 O   0  0  0  0  0  0  0  0  0  0  0  0
    1.7187    1.4881    0.3229 O   0  0  0  0  0  0  0  0  0  0  0  0
   -1.7257    1.4944   -0.2765 O   0  0  0  0  0  0  0  0  0  0  0  0
    0.1404   -0.7474    0.7606 C   0  0  0  0  0  0  0  0  0  0  0  0
   -0.1341   -0.7245   -0.7495 C   0  0  0  0  0  0  0  0  0  0  0  0
   -0.4291   -1.9902    1.4347 C   0  0  0  0  0  0  0  0  0  0  0  0
    0.4483   -1.9341   -1.4713 C   0  0  0  0  0  0  0  0  0  0  0  0
    2.2072    0.3774    0.4726 C   0  0  0  0  0  0  0  0  0  0  0  0
   -2.2085    0.3868   -0.4632 C   0  0  0  0  0  0  0  0  0  0  0  0
    3.6178   -0.0440    0.1331 C   0  0  0  0  0  0  0  0  0  0  0  0
   -3.6228   -0.0472   -0.1566 C   0  0  0  0  0  0  0  0  0  0  0  0
  1 13  1  0
  2 14  1  0
  3  7  1  0
  3 11  1  0
  4  8  1  0
  4 12  1  0
  5 11  2  0
  6 12  2  0
  7  8  1  0
  7  9  1  0
  8 10  1  0
 11 13  1  0
 12 14  1  0
M  END
>  <PUBCHEM_COMPOUND_CID>  (1) 
22748

>  <PUBCHEM_CONFORMER_RMSD>  (1) 
0.8

>  <PUBCHEM_CONFORMER_DIVERSEORDER>  (1) 
1
66
13
71
4
95
94
55
10
92
79
76
111
107
67
38
85
98
108
6
75
2
87
59
78
48
70
47
20
56
41
110
5
77
74
93
102
45
43
42
53
84
90
31
32
105
9
86
57
21
46
25
52
60
22
33
104
37
91
17
12
61
15
80
97
69
68
50
99
35
65
24
23
16
26
44
11
83
28
101
100
34
7
73
14
109
27
30
81
40
49
103
64
54
72
58
106
36
62
18
82
29
51
39
3
8
89
63
96
19
88

>  <PUBCHEM_MMFF94_PARTIAL_CHARGES>  (1) 
12
1 -0.19
11 0.66
12 0.66
13 0.25
14 0.25
2 -0.19
3 -0.43
4 -0.43
5 -0.57
6 -0.57
7 0.28
8 0.28

>  <PUBCHEM_EFFECTIVE_ROTOR_COUNT>  (1) 
7

>  <PUBCHEM_PHARMACOPHORE_FEATURES>  (1) 
4
1 1 hydrophobe
1 2 hydrophobe
1 5 acceptor
1 6 acceptor

>  <PUBCHEM_HEAVY_ATOM_COUNT>  (1) 
14

>  <PUBCHEM_ATOM_DEF_STEREO_COUNT>  (1) 
2

>  <PUBCHEM_ATOM_UDEF_STEREO_COUNT>  (1) 
0

>  <PUBCHEM_BOND_DEF_STEREO_COUNT>  (1) 
0

>  <PUBCHEM_BOND_UDEF_STEREO_COUNT>  (1) 
0

>  <PUBCHEM_ISOTOPIC_ATOM_COUNT>  (1) 
0

>  <PUBCHEM_COMPONENT_COUNT>  (1) 
1

>  <PUBCHEM_CACTVS_TAUTO_COUNT>  (1) 
1

>  <PUBCHEM_CONFORMER_ID>  (1) 
000058DC00000001

>  <PUBCHEM_MMFF94_ENERGY>  (1) 
29.3365

>  <PUBCHEM_FEATURE_SELFOVERLAP>  (1) 
20.297

>  <PUBCHEM_SHAPE_FINGERPRINT>  (1) 
10465860 250 11241965988450382983
10726558 24 17846503638240538662
10922049 32 18410577287992202050
11806522 49 10809639111741616453
122479 349 18336266846447994128
12592029 89 18130792230995102222
13549 16 16487258768017730860
14252887 29 14490475231513420769
14943859 89 18335418002170380048
15775835 57 18410853265400211329
16945 1 18266718281820003758
17834072 8 15769781234030697033
187816 3 15626227931040891414
18785283 64 17749668489989873834
19784866 140 14620802587143292023
200 152 11959739265422357768
204376 136 17894631461132324331
20645477 56 18058724848948012344
20653085 51 18129940212367040362
20871999 31 17844525711633080230
21524375 3 18410848863063689376
231179 274 18338231549325862957
23402655 69 18343863324981772404
23419403 2 17692864437274310923
23532345 42 14201401564424099945
23557571 272 17971491829925475334
25 1 18409163320766047954
298252 57 18201996638200484242
347723 3 15698006210196436390
449060 62 18409728435225029577
4990 188 15339110239340070645
633830 44 18335981982478343095
81539 233 18339359660840059511

>  <PUBCHEM_SHAPE_MULTIPOLES>  (1) 
288.51
8.86
2.11
1.25
0.14
0.19
-0.02
-7.67
0.01
-0.03
0.02
0
0.6
-0.5

>  <PUBCHEM_SHAPE_SELFOVERLAP>  (1) 
514.044

>  <PUBCHEM_SHAPE_VOLUME>  (1) 
192.8

>  <PUBCHEM_COORDINATE_TYPE>  (1) 
2
5
10

$$$$
