22747
     RDKit          3D

  8  7  0  0  0  0  0  0  0  0999 V2000
    3.3694    0.7456    0.0437 Br  0  0  0  0  0  0  0  0  0  0  0  0
   -3.3690    0.7459    0.0505 Br  0  0  0  0  0  0  0  0  0  0  0  0
    1.3059   -1.4230    0.0038 O   0  0  0  0  0  0  0  0  0  0  0  0
   -1.3058   -1.4232    0.0020 O   0  0  0  0  0  0  0  0  0  0  0  0
    0.7576   -0.3291   -0.0139 C   0  0  0  0  0  0  0  0  0  0  0  0
   -0.7577   -0.3292   -0.0150 C   0  0  0  0  0  0  0  0  0  0  0  0
    1.4477    1.0067   -0.0287 C   0  0  0  0  0  0  0  0  0  0  0  0
   -1.4480    1.0062   -0.0423 C   0  0  0  0  0  0  0  0  0  0  0  0
  1  7  1  0
  2  8  1  0
  3  5  2  0
  4  6  2  0
  5  6  1  0
  5  7  1  0
  6  8  1  0
M  END
>  <PUBCHEM_COMPOUND_CID>  (1) 
22747

>  <PUBCHEM_CONFORMER_RMSD>  (1) 
0.6

>  <PUBCHEM_CONFORMER_DIVERSEORDER>  (1) 
1
24
21
30
38
32
2
34
31
17
10
8
19
33
35
22
3
4
37
26
20
16
5
27
6
36
12
28
13
9
29
7
11
15
14
25
18
23

>  <PUBCHEM_MMFF94_PARTIAL_CHARGES>  (1) 
8
1 -0.23
2 -0.23
3 -0.57
4 -0.57
5 0.51
6 0.51
7 0.29
8 0.29

>  <PUBCHEM_EFFECTIVE_ROTOR_COUNT>  (1) 
3

>  <PUBCHEM_PHARMACOPHORE_FEATURES>  (1) 
4
1 1 hydrophobe
1 2 hydrophobe
1 3 acceptor
1 4 acceptor

>  <PUBCHEM_HEAVY_ATOM_COUNT>  (1) 
8

>  <PUBCHEM_ATOM_DEF_STEREO_COUNT>  (1) 
0

>  <PUBCHEM_ATOM_UDEF_STEREO_COUNT>  (1) 
0

>  <PUBCHEM_BOND_DEF_STEREO_COUNT>  (1) 
0

>  <PUBCHEM_BOND_UDEF_STEREO_COUNT>  (1) 
0

>  <PUBCHEM_ISOTOPIC_ATOM_COUNT>  (1) 
0

>  <PUBCHEM_COMPONENT_COUNT>  (1) 
1

>  <PUBCHEM_CACTVS_TAUTO_COUNT>  (1) 
3

>  <PUBCHEM_CONFORMER_ID>  (1) 
000058DB00000001

>  <PUBCHEM_MMFF94_ENERGY>  (1) 
8.8116

>  <PUBCHEM_FEATURE_SELFOVERLAP>  (1) 
20.308

>  <PUBCHEM_SHAPE_FINGERPRINT>  (1) 
13380535 76 18410854364922375631
14325111 11 18410856512854306081
14390081 3 18343581849799300976
14897335 6 18412257337458851012
170605 34 18334013878218503720
21040471 1 18410576184222270437
21293036 1 15841548595658768600
23235685 24 18410849962575661448
23402655 69 18269823247798377349
29004967 10 11097843095530316876

>  <PUBCHEM_SHAPE_MULTIPOLES>  (1) 
164.78
5.26
1.43
0.63
0
0.34
0
-2.11
-0.13
0
0
0
-0.06
0

>  <PUBCHEM_SHAPE_SELFOVERLAP>  (1) 
284.007

>  <PUBCHEM_SHAPE_VOLUME>  (1) 
112.5

>  <PUBCHEM_COORDINATE_TYPE>  (1) 
2
5
10

$$$$
