22751
     RDKit          3D

 15 16  0  0  0  0  0  0  0  0999 V2000
    4.3168    0.2500    0.1837 O   0  0  0  0  0  0  0  0  0  0  0  0
    2.5568   -0.2710    1.5212 O   0  0  0  0  0  0  0  0  0  0  0  0
   -0.8901   -2.0198   -0.1978 N   0  0  0  0  0  0  0  0  0  0  0  0
   -0.2768    0.1228   -0.2985 C   0  0  0  0  0  0  0  0  0  0  0  0
   -1.3573   -0.7314   -0.0678 C   0  0  0  0  0  0  0  0  0  0  0  0
    0.8534   -0.6976   -0.5710 C   0  0  0  0  0  0  0  0  0  0  0  0
   -0.4850    1.5145   -0.2256 C   0  0  0  0  0  0  0  0  0  0  0  0
   -2.6405   -0.2614    0.2334 C   0  0  0  0  0  0  0  0  0  0  0  0
    0.4447   -2.0097   -0.5020 C   0  0  0  0  0  0  0  0  0  0  0  0
    2.2263   -0.2458   -0.8769 C   0  0  0  0  0  0  0  0  0  0  0  0
   -1.7633    1.9989    0.0743 C   0  0  0  0  0  0  0  0  0  0  0  0
   -2.8231    1.1228    0.3000 C   0  0  0  0  0  0  0  0  0  0  0  0
    0.6080    2.5107   -0.4555 C   0  0  0  0  0  0  0  0  0  0  0  0
   -3.7978   -1.1707    0.4806 C   0  0  0  0  0  0  0  0  0  0  0  0
    3.0279   -0.1124    0.4018 C   0  0  0  0  0  0  0  0  0  0  0  0
  1 15  1  0
  2 15  2  0
  3  5  1  0
  3  9  1  0
  4  5  2  0
  4  6  1  0
  4  7  1  0
  5  8  1  0
  6  9  2  0
  6 10  1  0
  7 11  2  0
  7 13  1  0
  8 12  2  0
  8 14  1  0
 10 15  1  0
 11 12  1  0
M  END
>  <PUBCHEM_COMPOUND_CID>  (1) 
22751

>  <PUBCHEM_CONFORMER_RMSD>  (1) 
0.6

>  <PUBCHEM_CONFORMER_DIVERSEORDER>  (1) 
3
1
2

>  <PUBCHEM_MMFF94_PARTIAL_CHARGES>  (1) 
19
1 -0.65
10 0.24
11 -0.15
12 -0.15
13 0.14
14 0.14
15 0.66
16 0.27
17 0.15
2 -0.57
20 0.15
21 0.15
28 0.5
3 0.03
5 -0.15
6 -0.18
7 -0.14
8 -0.14
9 -0.3

>  <PUBCHEM_EFFECTIVE_ROTOR_COUNT>  (1) 
2

>  <PUBCHEM_PHARMACOPHORE_FEATURES>  (1) 
7
1 1 acceptor
1 2 acceptor
1 3 cation
1 3 donor
3 1 2 15 anion
5 3 4 5 6 9 rings
6 4 5 7 8 11 12 rings

>  <PUBCHEM_HEAVY_ATOM_COUNT>  (1) 
15

>  <PUBCHEM_ATOM_DEF_STEREO_COUNT>  (1) 
0

>  <PUBCHEM_ATOM_UDEF_STEREO_COUNT>  (1) 
0

>  <PUBCHEM_BOND_DEF_STEREO_COUNT>  (1) 
0

>  <PUBCHEM_BOND_UDEF_STEREO_COUNT>  (1) 
0

>  <PUBCHEM_ISOTOPIC_ATOM_COUNT>  (1) 
0

>  <PUBCHEM_COMPONENT_COUNT>  (1) 
1

>  <PUBCHEM_CACTVS_TAUTO_COUNT>  (1) 
1

>  <PUBCHEM_CONFORMER_ID>  (1) 
000058DF00000003

>  <PUBCHEM_MMFF94_ENERGY>  (1) 
26.4409

>  <PUBCHEM_FEATURE_SELFOVERLAP>  (1) 
35.67

>  <PUBCHEM_SHAPE_FINGERPRINT>  (1) 
10857977 72 18411420587877993497
10967382 1 18123196972094613029
11132069 177 18337958895921769533
12251169 10 18338514243951654642
12382932 28 18338519612544944521
12423570 1 12109801758873821637
13140716 1 18123478438613452891
13172582 1 18411421747429440703
13214271 11 18341046341773442029
14178342 30 18268441144032602841
14420673 8 17688296903687250658
14614273 12 18117274762002075197
15219456 202 17987802904128828054
16945 1 18411709798217508935
17846911 113 18340763745657351017
193761 8 17691129661539162807
200 152 15285352925298037450
20510252 161 18272092673266132752
20525323 117 18339637837482145397
20871998 184 18341894078023015479
21501502 16 18053098428440990227
22112679 90 17771061889346865959
22802520 49 17842011995654505262
2334 1 17763751287978432119
23388829 49 18340482361249311743
23402539 116 18342447166916524919
23419403 2 16260600089496479077
23463225 33 18334859398444404372
23559900 14 18268716000543961646
2748010 2 18195821660824361655
34934 24 18338795612013138287
4072396 5 18263068956142034691
43471831 8 18262236616707152410
53812653 166 18272371914970560625
53812654 25 18199753707594284431
77492 1 17603595105742394326
90316 7 18114733824895408520

>  <PUBCHEM_SHAPE_MULTIPOLES>  (1) 
291.97
5.42
2.26
0.87
1.92
0.68
0.14
-0.54
1.48
-0.84
-0.33
0.45
-0.06
0.06

>  <PUBCHEM_SHAPE_SELFOVERLAP>  (1) 
632.784

>  <PUBCHEM_SHAPE_VOLUME>  (1) 
162.7

>  <PUBCHEM_COORDINATE_TYPE>  (1) 
2
5
10

$$$$
