22768
     RDKit          3D

 24 26  0  0  1  0  0  0  0  0999 V2000
    1.3185   -0.4092   -1.9728 O   0  0  0  0  0  0  0  0  0  0  0  0
    0.4102    1.5337    0.1148 N   0  0  0  0  0  0  0  0  0  0  0  0
    1.3992    0.4623    0.2890 C   0  0  0  0  0  0  0  0  0  0  0  0
   -0.9380    0.9956    0.1659 C   0  0  0  0  0  0  0  0  0  0  0  0
   -1.9771    2.1038   -0.0084 C   0  0  0  0  0  0  0  0  0  0  0  0
    2.8068    1.0191    0.2252 C   0  0  0  0  0  0  0  0  0  0  0  0
    1.1568   -0.6526   -0.7591 C   0  0  0  0  0  0  0  0  0  0  0  0
   -3.3822    1.5614    0.0652 C   0  0  0  0  0  0  0  0  0  0  0  0
    0.7482   -1.9837   -0.3401 C   0  0  0  0  0  0  0  0  0  0  0  0
    3.7974    0.4364    0.9952 C   0  0  0  0  0  0  0  0  0  0  0  0
    3.0687    2.0966   -0.6018 C   0  0  0  0  0  0  0  0  0  0  0  0
   -4.0092    1.1351   -1.0960 C   0  0  0  0  0  0  0  0  0  0  0  0
   -4.0242    1.4975    1.2927 C   0  0  0  0  0  0  0  0  0  0  0  0
    5.0934    0.9487    0.9363 C   0  0  0  0  0  0  0  0  0  0  0  0
    4.3648    2.6086   -0.6607 C   0  0  0  0  0  0  0  0  0  0  0  0
    1.1485   -2.4777    0.9016 C   0  0  0  0  0  0  0  0  0  0  0  0
   -0.0444   -2.7667   -1.1794 C   0  0  0  0  0  0  0  0  0  0  0  0
    5.3772    2.0347    0.1084 C   0  0  0  0  0  0  0  0  0  0  0  0
   -5.3089    0.6331   -1.0281 C   0  0  0  0  0  0  0  0  0  0  0  0
   -5.3239    0.9954    1.3605 C   0  0  0  0  0  0  0  0  0  0  0  0
    0.7566   -3.7545    1.3038 C   0  0  0  0  0  0  0  0  0  0  0  0
   -0.4365   -4.0435   -0.7771 C   0  0  0  0  0  0  0  0  0  0  0  0
   -5.9661    0.5633    0.2001 C   0  0  0  0  0  0  0  0  0  0  0  0
   -0.0360   -4.5373    0.4645 C   0  0  0  0  0  0  0  0  0  0  0  0
  1  7  2  0
  2  3  1  0
  2  4  1  0
  3  6  1  0
  3  7  1  0
  4  5  1  0
  5  8  1  0
  6 10  2  0
  6 11  1  0
  7  9  1  0
  8 12  2  0
  8 13  1  0
  9 16  2  0
  9 17  1  0
 10 14  1  0
 11 15  2  0
 12 19  1  0
 13 20  2  0
 14 18  2  0
 15 18  1  0
 16 21  1  0
 17 22  2  0
 19 23  2  0
 20 23  1  0
 21 24  2  0
 22 24  1  0
M  END
>  <PUBCHEM_COMPOUND_CID>  (1) 
22768

>  <PUBCHEM_CONFORMER_RMSD>  (1) 
0.8

>  <PUBCHEM_CONFORMER_DIVERSEORDER>  (1) 
1
35
38
61
23
111
10
115
37
79
134
114
48
29
57
9
36
74
109
70
47
28
49
120
78
7
95
26
116
118
90
68
59
87
86
62
130
100
65
24
60
22
33
69
125
63
102
106
19
131
96
20
108
89
17
129
83
94
18
34
54
93
3
58
30
112
98
56
31
113
117
21
122
124
123
15
126
39
14
44
135
103
12
8
76
82
133
4
66
5
99
11
101
72
104
88
77
71
81
75
32
64
84
16
46
119
132
107
128
42
67
85
121
55
40
52
105
6
43
13
97
25
45
73
53
27
92
127
41
50
80
51
2
91
110

>  <PUBCHEM_MMFF94_PARTIAL_CHARGES>  (1) 
40
1 -0.57
10 -0.15
11 -0.15
12 -0.15
13 -0.15
14 -0.15
15 -0.15
16 -0.15
17 -0.15
18 -0.15
19 -0.15
2 -0.9
20 -0.15
21 -0.15
22 -0.15
23 -0.15
24 -0.15
28 0.36
3 0.47
31 0.15
32 0.15
33 0.15
34 0.15
35 0.15
36 0.15
37 0.15
38 0.15
39 0.15
4 0.27
40 0.15
41 0.15
42 0.15
43 0.15
44 0.15
45 0.15
5 0.14
6 -0.14
7 0.42
8 -0.14
9 0.09

>  <PUBCHEM_EFFECTIVE_ROTOR_COUNT>  (1) 
7

>  <PUBCHEM_PHARMACOPHORE_FEATURES>  (1) 
6
1 1 acceptor
1 2 cation
1 2 donor
6 6 10 11 14 15 18 rings
6 8 12 13 19 20 23 rings
6 9 16 17 21 22 24 rings

>  <PUBCHEM_HEAVY_ATOM_COUNT>  (1) 
24

>  <PUBCHEM_ATOM_DEF_STEREO_COUNT>  (1) 
0

>  <PUBCHEM_ATOM_UDEF_STEREO_COUNT>  (1) 
1

>  <PUBCHEM_BOND_DEF_STEREO_COUNT>  (1) 
0

>  <PUBCHEM_BOND_UDEF_STEREO_COUNT>  (1) 
0

>  <PUBCHEM_ISOTOPIC_ATOM_COUNT>  (1) 
0

>  <PUBCHEM_COMPONENT_COUNT>  (1) 
1

>  <PUBCHEM_CACTVS_TAUTO_COUNT>  (1) 
2

>  <PUBCHEM_CONFORMER_ID>  (1) 
000058F000000001

>  <PUBCHEM_MMFF94_ENERGY>  (1) 
68.7389

>  <PUBCHEM_FEATURE_SELFOVERLAP>  (1) 
30.446

>  <PUBCHEM_SHAPE_FINGERPRINT>  (1) 
10074138 170 18121480608721161914
10090160 65 18411416198390249197
10319688 67 18056734698652581736
11421498 54 17846222098918791193
11719270 70 18337100199005243129
11991303 11 18116163327618958118
12293681 4 17835517498334437071
12597179 24 18272096019478231574
12788726 201 17905321085166651994
13052359 8 18266457792285356602
13631057 29 18058158600834000999
13911987 19 18335138726191467725
14347424 109 17980215089277874657
14790565 3 18410291457955732501
14863182 85 18262813877448834469
14866123 147 18337379539816153314
14955137 171 17907013976728629478
15131766 46 15215011794351896140
15475509 84 17612038478728682131
16728300 4 17461694252771048064
17138139 8 17770750671890364567
19427546 20 17903925801059317996
20028762 73 18272082743623900542
20197701 30 18408599271116401904
20567600 347 18409453552785624635
21049683 118 18125975360552626000
21054139 6 18270951445153611349
21344244 181 17846234249281025334
21421861 104 17983023245510253425
21796203 349 17548732606638124539
221357 26 10303814251014276265
22224240 67 18342172297731559577
22956985 138 17973157323326900690
23558518 356 17834106820805298324
23559900 14 17976251340488799017
23569917 315 18413671318293243606
239999 70 18129670673114988647
3178227 256 18265059037702185034
469060 322 17968363659246657375
474229 33 18410009957356820209
5486654 2 18341615957469140445
59755656 520 18411976992570372484
6669772 16 18342179947400551950
7399639 24 18261111825286857845
9971528 1 10737295674655580277

>  <PUBCHEM_SHAPE_MULTIPOLES>  (1) 
483.06
11.41
4.95
1.33
8.08
8.24
-0.09
-12.68
1.74
-2.06
0.2
0.41
0.32
-0.74

>  <PUBCHEM_SHAPE_SELFOVERLAP>  (1) 
1038.812

>  <PUBCHEM_SHAPE_VOLUME>  (1) 
264.8

>  <PUBCHEM_COORDINATE_TYPE>  (1) 
2
5
10

$$$$
