22776
     RDKit          3D

 16 17  0  0  0  0  0  0  0  0999 V2000
    1.6878   -1.9313    0.2799 O   0  0  0  0  0  0  0  0  0  0  0  0
    0.0863    0.2418   -0.4842 N   0  0  0  0  0  0  0  0  0  0  0  0
   -0.5685    0.4158    0.5705 N   0  0  0  0  0  0  0  0  0  0  0  0
    1.4592    0.4004   -0.2289 C   0  0  0  0  0  0  0  0  0  0  0  0
    2.2367   -0.6908    0.1492 C   0  0  0  0  0  0  0  0  0  0  0  0
    2.0325    1.6627   -0.3572 C   0  0  0  0  0  0  0  0  0  0  0  0
    3.5978   -0.5185    0.4008 C   0  0  0  0  0  0  0  0  0  0  0  0
    3.3936    1.8349   -0.1054 C   0  0  0  0  0  0  0  0  0  0  0  0
    4.1762    0.7444    0.2736 C   0  0  0  0  0  0  0  0  0  0  0  0
   -1.9346    0.2582    0.3169 C   0  0  0  0  0  0  0  0  0  0  0  0
   -2.5263   -0.9990    0.4406 C   0  0  0  0  0  0  0  0  0  0  0  0
   -2.7058    1.3578   -0.0601 C   0  0  0  0  0  0  0  0  0  0  0  0
   -3.8888   -1.1567    0.1869 C   0  0  0  0  0  0  0  0  0  0  0  0
   -4.0684    1.2000   -0.3136 C   0  0  0  0  0  0  0  0  0  0  0  0
   -4.6598   -0.0573   -0.1901 C   0  0  0  0  0  0  0  0  0  0  0  0
    1.6821   -2.7624   -0.8790 C   0  0  0  0  0  0  0  0  0  0  0  0
  1  5  1  0
  1 16  1  0
  2  3  2  0
  2  4  1  0
  3 10  1  0
  4  5  2  0
  4  6  1  0
  5  7  1  0
  6  8  2  0
  7  9  2  0
  8  9  1  0
 10 11  2  0
 10 12  1  0
 11 13  1  0
 12 14  2  0
 13 15  2  0
 14 15  1  0
M  END
>  <PUBCHEM_COMPOUND_CID>  (1) 
22776

>  <PUBCHEM_CONFORMER_RMSD>  (1) 
0.6

>  <PUBCHEM_CONFORMER_DIVERSEORDER>  (1) 
1
6
7
8
5
2
3
4

>  <PUBCHEM_MMFF94_PARTIAL_CHARGES>  (1) 
25
1 -0.36
10 0.18
11 -0.15
12 -0.15
13 -0.15
14 -0.15
15 -0.15
16 0.28
17 0.15
18 0.15
19 0.15
2 -0.18
20 0.15
21 0.15
22 0.15
23 0.15
24 0.15
25 0.15
3 -0.18
4 0.18
5 0.08
6 -0.15
7 -0.15
8 -0.15
9 -0.15

>  <PUBCHEM_EFFECTIVE_ROTOR_COUNT>  (1) 
3

>  <PUBCHEM_PHARMACOPHORE_FEATURES>  (1) 
3
1 1 acceptor
6 10 11 12 13 14 15 rings
6 4 5 6 7 8 9 rings

>  <PUBCHEM_HEAVY_ATOM_COUNT>  (1) 
16

>  <PUBCHEM_ATOM_DEF_STEREO_COUNT>  (1) 
0

>  <PUBCHEM_ATOM_UDEF_STEREO_COUNT>  (1) 
0

>  <PUBCHEM_BOND_DEF_STEREO_COUNT>  (1) 
0

>  <PUBCHEM_BOND_UDEF_STEREO_COUNT>  (1) 
0

>  <PUBCHEM_ISOTOPIC_ATOM_COUNT>  (1) 
0

>  <PUBCHEM_COMPONENT_COUNT>  (1) 
1

>  <PUBCHEM_CACTVS_TAUTO_COUNT>  (1) 
1

>  <PUBCHEM_CONFORMER_ID>  (1) 
000058F800000001

>  <PUBCHEM_MMFF94_ENERGY>  (1) 
54.1004

>  <PUBCHEM_FEATURE_SELFOVERLAP>  (1) 
15.223

>  <PUBCHEM_SHAPE_FINGERPRINT>  (1) 
10608611 8 18335136471206510029
10616163 171 18339363084156256823
11370993 70 18409163329108432891
11471102 20 18410009931760901300
11615757 297 17846785138897518713
12346645 6 18410855452023524052
13380535 76 18335703874814105618
14251717 144 18410855460376237550
14415576 193 18335423486611794404
15196674 1 18408322198238615587
15375358 24 18333449846102252347
15375462 6 18411138026258960253
15442244 35 18123191190741610977
15536298 74 18412546470357280931
17492 89 18339924818839895487
17834074 16 18410013230263947711
18186145 218 17894630314629218217
19050596 39 18411419518484040345
200 152 18272929440659816305
20279233 1 18260554419956295635
20645477 56 18187083906728336293
20645477 70 18411135805723996887
21267235 1 18408893935747891507
21709351 56 18335133211257572692
221490 88 18337120002936252434
23402539 116 18260257582140069101
23402655 69 18410292510233094165
23557571 272 17749106660711466053
23559900 14 18268706125981481730
3060560 45 18413112766802032070
33824 294 18409729556232664362
3545911 37 18408605855449239053
4214541 1 18335419050148038737
5104073 3 18407477764950820873
58051976 378 18413106164936293807
69090 78 18334572451974764259
7364860 26 18342179916961006694
77779 3 18407760348055408249
81539 233 18410858771933225150
8272917 22 18270686367919009407
9709674 26 18408610253490748307

>  <PUBCHEM_SHAPE_MULTIPOLES>  (1) 
313.44
9.08
2.16
0.74
4.71
1.04
-0.03
-1.55
0.23
-1.32
-0.44
-0.07
0.12
0.3

>  <PUBCHEM_SHAPE_SELFOVERLAP>  (1) 
670.305

>  <PUBCHEM_SHAPE_VOLUME>  (1) 
174.4

>  <PUBCHEM_COORDINATE_TYPE>  (1) 
2
5
10

$$$$
