2277
     RDKit          3D

 13 14  0  0  1  0  0  0  0  0999 V2000
   -2.1374    1.0066   -0.2055 O   0  0  0  0  0  0  0  0  0  0  0  0
    2.1943    0.3241    0.5512 N   0  0  0  0  0  0  0  0  0  0  0  0
   -1.9991   -1.2426    0.0075 N   0  0  0  0  0  0  0  0  0  0  0  0
   -4.1296   -0.1352   -0.1381 N   0  0  0  0  0  0  0  0  0  0  0  0
    1.3603    1.5167    0.7437 C   0  0  0  0  0  0  0  0  0  0  0  0
    1.5765   -0.9390    0.9739 C   0  0  0  0  0  0  0  0  0  0  0  0
    0.1905    1.7388   -0.2260 C   0  0  0  0  0  0  0  0  0  0  0  0
    0.4815   -1.5399    0.0793 C   0  0  0  0  0  0  0  0  0  0  0  0
   -0.8178    0.6649   -0.1441 C   0  0  0  0  0  0  0  0  0  0  0  0
   -0.7356   -0.7028   -0.0147 C   0  0  0  0  0  0  0  0  0  0  0  0
    2.8334    0.2582   -0.7558 C   0  0  0  0  0  0  0  0  0  0  0  0
    3.9614   -0.7594   -0.7648 C   0  0  0  0  0  0  0  0  0  0  0  0
   -2.7783   -0.1904   -0.1067 C   0  0  0  0  0  0  0  0  0  0  0  0
  1  9  1  0
  1 13  1  0
  2  5  1  0
  2  6  1  0
  2 11  1  0
  3 10  1  0
  3 13  2  0
  4 13  1  0
  5  7  1  0
  6  8  1  0
  7  9  1  0
  8 10  1  0
  9 10  2  0
 11 12  1  0
M  END
>  <PUBCHEM_COMPOUND_CID>  (1) 
2277

>  <PUBCHEM_CONFORMER_RMSD>  (1) 
0.6

>  <PUBCHEM_CONFORMER_DIVERSEORDER>  (1) 
1
5
8
2
6
7
3
4

>  <PUBCHEM_MMFF94_PARTIAL_CHARGES>  (1) 
14
1 -0.28
10 0.05
11 0.27
13 0.56
2 -0.81
27 0.4
28 0.4
3 -0.57
4 -0.88
5 0.27
6 0.27
7 0.18
8 0.18
9 -0.04

>  <PUBCHEM_EFFECTIVE_ROTOR_COUNT>  (1) 
2

>  <PUBCHEM_PHARMACOPHORE_FEATURES>  (1) 
5
1 2 cation
1 4 donor
3 3 4 13 cation
5 1 3 9 10 13 rings
7 2 5 6 7 8 9 10 rings

>  <PUBCHEM_HEAVY_ATOM_COUNT>  (1) 
13

>  <PUBCHEM_ATOM_DEF_STEREO_COUNT>  (1) 
0

>  <PUBCHEM_ATOM_UDEF_STEREO_COUNT>  (1) 
0

>  <PUBCHEM_BOND_DEF_STEREO_COUNT>  (1) 
0

>  <PUBCHEM_BOND_UDEF_STEREO_COUNT>  (1) 
0

>  <PUBCHEM_ISOTOPIC_ATOM_COUNT>  (1) 
0

>  <PUBCHEM_COMPONENT_COUNT>  (1) 
1

>  <PUBCHEM_CACTVS_TAUTO_COUNT>  (1) 
2

>  <PUBCHEM_CONFORMER_ID>  (1) 
000008E500000001

>  <PUBCHEM_MMFF94_ENERGY>  (1) 
15.2432

>  <PUBCHEM_FEATURE_SELFOVERLAP>  (1) 
25.413

>  <PUBCHEM_SHAPE_FINGERPRINT>  (1) 
10353120 184 18408041810136537636
11206711 2 18335411340365160293
12032990 46 18411425033116527243
12897270 3 18335420158011886494
12932764 1 18188195576922788639
13221675 6 18409167718453973259
13380536 305 18188775075206087252
14911166 2 18410293614023611791
14993402 34 18410853265732306543
15536298 74 18272367632814365416
15775835 57 18333449858881438126
16945 1 18337098029925198945
193761 8 17689996739144376795
20201158 50 18201727236603611814
20645476 183 17458631154751313850
21293036 1 18408046216867863956
21501502 16 18118400635843461209
23402539 116 18412537722205075710
23463225 33 18261948549071128202
23552423 10 18116708728103710477
23559900 14 18412830197120298540
2748010 2 18120367924228215259
5084963 1 18202284744358513888
528886 8 18409443704388600754
53812653 166 18339072791394942160
57812782 119 14189577424968931269
7364860 26 18128254686938687632

>  <PUBCHEM_SHAPE_MULTIPOLES>  (1) 
246.72
5.59
1.61
0.84
0.88
0.27
-0.06
-1
1.29
-0.24
-0.12
-0.53
-0.01
0.17

>  <PUBCHEM_SHAPE_SELFOVERLAP>  (1) 
511.527

>  <PUBCHEM_SHAPE_VOLUME>  (1) 
142.2

>  <PUBCHEM_COORDINATE_TYPE>  (1) 
2
5
10

$$$$
