22785
     RDKit          3D

 14 15  0  0  1  0  0  0  0  0999 V2000
    1.5300    1.5956    1.7071 O   0  0  0  0  0  0  0  0  0  0  0  0
    2.7299   -2.0778   -0.7591 O   0  0  0  0  0  0  0  0  0  0  0  0
    1.0748   -0.4544   -1.0599 N   0  0  0  0  0  0  0  0  0  0  0  0
    2.3981   -0.3178    0.7237 N   0  0  0  0  0  0  0  0  0  0  0  0
   -0.8515    0.5588    0.0801 C   0  0  0  0  0  0  0  0  0  0  0  0
    0.5944    0.7319   -0.3811 C   0  0  0  0  0  0  0  0  0  0  0  0
   -1.8089    0.5778   -1.1194 C   0  0  0  0  0  0  0  0  0  0  0  0
   -1.0117   -0.7370    0.8863 C   0  0  0  0  0  0  0  0  0  0  0  0
   -3.2565    0.3530   -0.6887 C   0  0  0  0  0  0  0  0  0  0  0  0
   -2.4607   -0.9598    1.3135 C   0  0  0  0  0  0  0  0  0  0  0  0
   -3.4101   -0.9314    0.1198 C   0  0  0  0  0  0  0  0  0  0  0  0
    0.7875    1.9743   -1.2402 C   0  0  0  0  0  0  0  0  0  0  0  0
    1.5437    0.7538    0.8192 C   0  0  0  0  0  0  0  0  0  0  0  0
    2.1412   -1.0671   -0.4012 C   0  0  0  0  0  0  0  0  0  0  0  0
  1 13  2  0
  2 14  2  0
  3  6  1  0
  3 14  1  0
  4 13  1  0
  4 14  1  0
  5  6  1  0
  5  7  1  0
  5  8  1  0
  6 12  1  0
  6 13  1  0
  7  9  1  0
  8 10  1  0
  9 11  1  0
 10 11  1  0
M  END
>  <PUBCHEM_COMPOUND_CID>  (1) 
22785

>  <PUBCHEM_CONFORMER_RMSD>  (1) 
0.6

>  <PUBCHEM_CONFORMER_DIVERSEORDER>  (1) 
1
4
7
6
3
5
2

>  <PUBCHEM_MMFF94_PARTIAL_CHARGES>  (1) 
9
1 -0.57
13 0.57
14 0.69
2 -0.57
29 0.37
3 -0.73
30 0.37
4 -0.49
6 0.36

>  <PUBCHEM_EFFECTIVE_ROTOR_COUNT>  (1) 
2.8

>  <PUBCHEM_PHARMACOPHORE_FEATURES>  (1) 
6
1 1 acceptor
1 2 acceptor
1 3 donor
1 4 donor
5 3 4 6 13 14 rings
6 5 7 8 9 10 11 rings

>  <PUBCHEM_HEAVY_ATOM_COUNT>  (1) 
14

>  <PUBCHEM_ATOM_DEF_STEREO_COUNT>  (1) 
0

>  <PUBCHEM_ATOM_UDEF_STEREO_COUNT>  (1) 
1

>  <PUBCHEM_BOND_DEF_STEREO_COUNT>  (1) 
0

>  <PUBCHEM_BOND_UDEF_STEREO_COUNT>  (1) 
0

>  <PUBCHEM_ISOTOPIC_ATOM_COUNT>  (1) 
0

>  <PUBCHEM_COMPONENT_COUNT>  (1) 
1

>  <PUBCHEM_CACTVS_TAUTO_COUNT>  (1) 
5

>  <PUBCHEM_CONFORMER_ID>  (1) 
0000590100000001

>  <PUBCHEM_MMFF94_ENERGY>  (1) 
26.8861

>  <PUBCHEM_FEATURE_SELFOVERLAP>  (1) 
30.517

>  <PUBCHEM_SHAPE_FINGERPRINT>  (1) 
10465860 71 17603878757935481206
11471102 22 18131060537321917168
12202030 40 18337117842725750235
12326174 3 17489038170197220040
12423570 1 14782327313051895269
12524768 44 17606409993053955701
12932764 1 17774451589290200109
13380536 127 15267347352978088315
13571099 22 18411417298138740767
14115302 16 15213010583365332449
14252887 29 17028564994424351627
14344429 50 17095797819211363317
14648413 74 18041287667856603717
14817 1 16258414440938184012
15219456 202 18408600396202823536
15501101 241 18343860013572335380
16945 1 17988349447175121160
17990270 104 18114467871856120101
18186145 218 18188199928188935309
20201158 50 18334857212332651755
20233049 118 16733530633723668541
20559304 39 14908185269694286283
20711985 344 17973161721188288300
20715346 28 18408878568607977489
20820808 20 13334746725471316326
21524375 3 16814063555283376525
21730867 7 18059852921559394619
232386 152 16806150151048976960
23552423 10 16081937099641353965
23559900 14 17968929770401613138
2748010 2 17387136566743572391
3248919 1 18261670484662401909
369184 2 17703789241148077659
5084963 1 18335144197905033273
549884 4 16225771826046819631
7364860 26 18116724103865474165
74978 22 17603587460827279257
77492 1 16056591084309143401
81228 2 17972599887979416844

>  <PUBCHEM_SHAPE_MULTIPOLES>  (1) 
266.41
4.7
1.73
1.37
2.55
0.28
-0.37
-1.66
0.45
-0.53
0.33
-0.65
0.03
1.01

>  <PUBCHEM_SHAPE_SELFOVERLAP>  (1) 
556.004

>  <PUBCHEM_SHAPE_VOLUME>  (1) 
151.2

>  <PUBCHEM_COORDINATE_TYPE>  (1) 
2
5
10

$$$$
