22780
     RDKit          3D

 18 19  0  0  0  0  0  0  0  0999 V2000
   -1.9303   -2.5711   -0.1486 O   0  0  0  0  0  0  0  0  0  0  0  0
   -3.7122    1.7682   -0.2212 O   0  0  0  0  0  0  0  0  0  0  0  0
    5.0506   -0.0628   -1.2851 O   0  0  0  0  0  0  0  0  0  0  0  0
    0.7199   -1.2402    0.2482 N   0  0  0  0  0  0  0  0  0  0  0  0
   -1.4160    1.5303    0.0711 N   0  0  0  0  0  0  0  0  0  0  0  0
   -2.8454   -0.4077   -0.1886 N   0  0  0  0  0  0  0  0  0  0  0  0
    0.9633    0.9729    0.3625 N   0  0  0  0  0  0  0  0  0  0  0  0
    2.9077   -0.4307    0.5627 N   0  0  0  0  0  0  0  0  0  0  0  0
   -0.5303   -0.7105    0.1046 C   0  0  0  0  0  0  0  0  0  0  0  0
   -0.3529    0.6442    0.1781 C   0  0  0  0  0  0  0  0  0  0  0  0
    1.5850   -0.1876    0.4005 C   0  0  0  0  0  0  0  0  0  0  0  0
   -1.7903   -1.3528   -0.0851 C   0  0  0  0  0  0  0  0  0  0  0  0
   -2.7276    1.0276   -0.1192 C   0  0  0  0  0  0  0  0  0  0  0  0
    1.0631   -2.6448    0.2399 C   0  0  0  0  0  0  0  0  0  0  0  0
   -1.1765    2.9655    0.1565 C   0  0  0  0  0  0  0  0  0  0  0  0
    3.9290    0.6005    0.7327 C   0  0  0  0  0  0  0  0  0  0  0  0
   -4.1878   -0.9450   -0.3854 C   0  0  0  0  0  0  0  0  0  0  0  0
    4.4506    1.0439   -0.6236 C   0  0  0  0  0  0  0  0  0  0  0  0
  1 12  2  0
  2 13  2  0
  3 18  1  0
  4  9  1  0
  4 11  1  0
  4 14  1  0
  5 10  1  0
  5 13  1  0
  5 15  1  0
  6 12  1  0
  6 13  1  0
  6 17  1  0
  7 10  1  0
  7 11  2  0
  8 11  1  0
  8 16  1  0
  9 10  2  0
  9 12  1  0
 16 18  1  0
M  END
>  <PUBCHEM_COMPOUND_CID>  (1) 
22780

>  <PUBCHEM_CONFORMER_RMSD>  (1) 
0.6

>  <PUBCHEM_CONFORMER_DIVERSEORDER>  (1) 
2
4
1
5
3

>  <PUBCHEM_MMFF94_PARTIAL_CHARGES>  (1) 
20
1 -0.57
10 0.29
11 0.27
12 0.71
13 0.69
14 0.26
15 0.3
16 0.37
17 0.3
18 0.28
2 -0.57
22 0.4
3 -0.68
33 0.4
4 0.05
5 -0.42
6 -0.42
7 -0.57
8 -0.85
9 -0.24

>  <PUBCHEM_EFFECTIVE_ROTOR_COUNT>  (1) 
3

>  <PUBCHEM_PHARMACOPHORE_FEATURES>  (1) 
8
1 1 acceptor
1 2 acceptor
1 3 acceptor
1 3 donor
1 8 donor
4 4 7 8 11 cation
5 4 7 9 10 11 rings
6 5 6 9 10 12 13 rings

>  <PUBCHEM_HEAVY_ATOM_COUNT>  (1) 
18

>  <PUBCHEM_ATOM_DEF_STEREO_COUNT>  (1) 
0

>  <PUBCHEM_ATOM_UDEF_STEREO_COUNT>  (1) 
0

>  <PUBCHEM_BOND_DEF_STEREO_COUNT>  (1) 
0

>  <PUBCHEM_BOND_UDEF_STEREO_COUNT>  (1) 
0

>  <PUBCHEM_ISOTOPIC_ATOM_COUNT>  (1) 
0

>  <PUBCHEM_COMPONENT_COUNT>  (1) 
1

>  <PUBCHEM_CACTVS_TAUTO_COUNT>  (1) 
3

>  <PUBCHEM_CONFORMER_ID>  (1) 
000058FC00000002

>  <PUBCHEM_MMFF94_ENERGY>  (1) 
31.0524

>  <PUBCHEM_FEATURE_SELFOVERLAP>  (1) 
40.714

>  <PUBCHEM_SHAPE_FINGERPRINT>  (1) 
10411042 1 17833828648432007251
10498660 4 18409444769846828468
10967382 1 18411129264536069971
11132069 177 18411130346957648864
12173636 292 18339353046485195028
12186901 62 18341899588677085292
12236239 1 17822004316456775144
12390115 104 18200889365920498985
12403814 3 17458338628865773557
12954195 1 18058464105762556684
13140716 1 18266737076913266289
13380535 21 18341051804824246810
14790565 3 18411149043082722217
15196674 1 18410851023653934867
15669948 3 18410564106885237858
16945 1 18339912753853917075
18186145 218 18060422434713357576
20510252 161 18343579625175027649
21029758 11 18270668879329339457
21029758 27 18260832656849587245
21267235 1 18338521940628299891
21501502 16 18267015059791603043
2334 1 17978502358407173649
23366157 5 17898290502913151146
23402539 116 18342447171005400021
23557571 272 18272380788441520660
23559900 14 18054499215119544250
2748010 2 18051679233844192881
350125 39 18050006584453032208
43471831 8 18335975398547075746
474 4 17095809944584671588
4990 188 18060423499902170036
5104073 3 18410006602844697834
57096353 35 18410001148194033214
58051976 378 18268703927047929484
7364860 26 18125715687014797986

>  <PUBCHEM_SHAPE_MULTIPOLES>  (1) 
327.92
7.78
2.64
0.76
6.36
0.03
-0.08
1.31
-2.05
-1.63
0.1
0.66
0.02
-0.23

>  <PUBCHEM_SHAPE_SELFOVERLAP>  (1) 
690.86

>  <PUBCHEM_SHAPE_VOLUME>  (1) 
185.4

>  <PUBCHEM_COORDINATE_TYPE>  (1) 
2
5
10

$$$$
