22787
     RDKit          3D

 13 13  0  0  0  0  0  0  0  0999 V2000
    4.7228    0.5775    0.2440 S   0  0  0  0  0  0  0  0  0  0  0  0
    0.5789    1.6483   -0.7138 O   0  0  0  0  0  0  0  0  0  0  0  0
    2.8877   -0.8357    1.4555 O   0  0  0  0  0  0  0  0  0  0  0  0
    1.0627   -0.6172   -0.6133 N   0  0  0  0  0  0  0  0  0  0  0  0
   -1.1929    0.1995   -0.2036 C   0  0  0  0  0  0  0  0  0  0  0  0
    0.1955    0.4786   -0.5341 C   0  0  0  0  0  0  0  0  0  0  0  0
    2.4728   -0.5008   -0.9082 C   0  0  0  0  0  0  0  0  0  0  0  0
   -1.9674    1.1699    0.4321 C   0  0  0  0  0  0  0  0  0  0  0  0
   -1.7500   -1.0388   -0.5222 C   0  0  0  0  0  0  0  0  0  0  0  0
   -3.2990    0.9018    0.7494 C   0  0  0  0  0  0  0  0  0  0  0  0
   -3.0816   -1.3070   -0.2051 C   0  0  0  0  0  0  0  0  0  0  0  0
   -3.8561   -0.3365    0.4307 C   0  0  0  0  0  0  0  0  0  0  0  0
    3.2265   -0.3397    0.3887 C   0  0  0  0  0  0  0  0  0  0  0  0
  1 13  1  0
  2  6  2  0
  3 13  2  0
  4  6  1  0
  4  7  1  0
  5  6  1  0
  5  8  2  0
  5  9  1  0
  7 13  1  0
  8 10  1  0
  9 11  2  0
 10 12  2  0
 11 12  1  0
M  END
>  <PUBCHEM_COMPOUND_CID>  (1) 
22787

>  <PUBCHEM_CONFORMER_RMSD>  (1) 
0.6

>  <PUBCHEM_CONFORMER_DIVERSEORDER>  (1) 
1
25
6
13
12
3
5
9
10
8
17
23
20
14
15
21
16
4
24
22
2
11
19
7
18

>  <PUBCHEM_MMFF94_PARTIAL_CHARGES>  (1) 
20
1 -0.32
10 -0.15
11 -0.15
12 -0.15
13 0.65
16 0.37
17 0.15
18 0.15
19 0.15
2 -0.57
20 0.15
21 0.15
22 0.18
3 -0.57
4 -0.73
5 0.09
6 0.54
7 0.36
8 -0.15
9 -0.15

>  <PUBCHEM_EFFECTIVE_ROTOR_COUNT>  (1) 
4

>  <PUBCHEM_PHARMACOPHORE_FEATURES>  (1) 
4
1 2 acceptor
1 4 donor
3 1 3 13 anion
6 5 8 9 10 11 12 rings

>  <PUBCHEM_HEAVY_ATOM_COUNT>  (1) 
13

>  <PUBCHEM_ATOM_DEF_STEREO_COUNT>  (1) 
0

>  <PUBCHEM_ATOM_UDEF_STEREO_COUNT>  (1) 
0

>  <PUBCHEM_BOND_DEF_STEREO_COUNT>  (1) 
0

>  <PUBCHEM_BOND_UDEF_STEREO_COUNT>  (1) 
0

>  <PUBCHEM_ISOTOPIC_ATOM_COUNT>  (1) 
0

>  <PUBCHEM_COMPONENT_COUNT>  (1) 
1

>  <PUBCHEM_CACTVS_TAUTO_COUNT>  (1) 
4

>  <PUBCHEM_CONFORMER_ID>  (1) 
0000590300000001

>  <PUBCHEM_MMFF94_ENERGY>  (1) 
29.6724

>  <PUBCHEM_FEATURE_SELFOVERLAP>  (1) 
20.297

>  <PUBCHEM_SHAPE_FINGERPRINT>  (1) 
11132069 177 18412548690886742364
12251169 10 18341894108177567532
12382932 28 18342740667616696847
12932764 1 17968098603280942180
13705890 14 14490196016111370838
13897977 58 18272373104782067960
14144814 61 18408890620106946511
14252887 29 18336557053230426082
14445660 50 18342741797314467072
15375462 189 18040433291613483616
18186145 218 11314311654487425974
200 152 16298102094525846875
20281407 28 17240203231059317407
20361792 2 17603585235643817173
20528008 55 17632574925030864511
20645464 45 16559038194467419295
20645477 70 14562531773732630810
20671657 53 14851884721260147838
20711985 327 18186523219721344892
21119208 17 10015867578447104130
21501925 9 18412263973499815053
22485316 2 17821443551797617043
22959321 60 17846491569614402488
231179 274 14692574295257232880
23402539 116 17917423229850038133
23557571 272 16702307883966303655
23559900 14 17845382059239542446
2748010 2 17763200050659095213
449060 50 17775288265851384308
90316 7 18261676956809397581
9882013 296 18412542132830448832

>  <PUBCHEM_SHAPE_MULTIPOLES>  (1) 
254.66
8.18
1.32
0.98
5.05
0.13
0.15
0.04
2.09
-0.68
-0.09
0.51
-0.03
-0.32

>  <PUBCHEM_SHAPE_SELFOVERLAP>  (1) 
514.43

>  <PUBCHEM_SHAPE_VOLUME>  (1) 
149.9

>  <PUBCHEM_COORDINATE_TYPE>  (1) 
2
5
10

$$$$
