22783
     RDKit          3D

 12 12  0  0  0  0  0  0  0  0999 V2000
    0.7085    0.0278   -0.6895 O   0  0  0  0  0  0  0  0  0  0  0  0
   -0.7239   -2.2196    0.1003 O   0  0  0  0  0  0  0  0  0  0  0  0
    3.8751    0.8158    0.7997 O   0  0  0  0  0  0  0  0  0  0  0  0
    3.2248   -0.9848   -0.4342 O   0  0  0  0  0  0  0  0  0  0  0  0
   -0.6050    0.1301   -0.3435 C   0  0  0  0  0  0  0  0  0  0  0  0
   -1.3241   -0.9979    0.0522 C   0  0  0  0  0  0  0  0  0  0  0  0
   -1.2308    1.3760   -0.3876 C   0  0  0  0  0  0  0  0  0  0  0  0
   -2.6688   -0.8797    0.4039 C   0  0  0  0  0  0  0  0  0  0  0  0
   -2.5754    1.4941   -0.0359 C   0  0  0  0  0  0  0  0  0  0  0  0
    1.6419    0.7863    0.0772 C   0  0  0  0  0  0  0  0  0  0  0  0
   -3.2943    0.3663    0.3598 C   0  0  0  0  0  0  0  0  0  0  0  0
    2.9721    0.0858    0.0978 C   0  0  0  0  0  0  0  0  0  0  0  0
  1  5  1  0
  1 10  1  0
  2  6  1  0
  3 12  1  0
  4 12  2  0
  5  6  2  0
  5  7  1  0
  6  8  1  0
  7  9  2  0
  8 11  2  0
  9 11  1  0
 10 12  1  0
M  END
>  <PUBCHEM_COMPOUND_CID>  (1) 
22783

>  <PUBCHEM_CONFORMER_RMSD>  (1) 
0.6

>  <PUBCHEM_CONFORMER_DIVERSEORDER>  (1) 
1
23
22
24
7
2
21
13
25
19
10
20
17
18
9
12
3
8
11
14
5
16
6
15
4

>  <PUBCHEM_MMFF94_PARTIAL_CHARGES>  (1) 
18
1 -0.36
10 0.34
11 -0.15
12 0.66
13 0.15
14 0.15
17 0.15
18 0.15
19 0.45
2 -0.53
20 0.5
3 -0.65
4 -0.57
5 0.08
6 0.08
7 -0.15
8 -0.15
9 -0.15

>  <PUBCHEM_EFFECTIVE_ROTOR_COUNT>  (1) 
3

>  <PUBCHEM_PHARMACOPHORE_FEATURES>  (1) 
6
1 1 acceptor
1 2 donor
1 3 acceptor
1 4 acceptor
3 3 4 12 anion
6 5 6 7 8 9 11 rings

>  <PUBCHEM_HEAVY_ATOM_COUNT>  (1) 
12

>  <PUBCHEM_ATOM_DEF_STEREO_COUNT>  (1) 
0

>  <PUBCHEM_ATOM_UDEF_STEREO_COUNT>  (1) 
0

>  <PUBCHEM_BOND_DEF_STEREO_COUNT>  (1) 
0

>  <PUBCHEM_BOND_UDEF_STEREO_COUNT>  (1) 
0

>  <PUBCHEM_ISOTOPIC_ATOM_COUNT>  (1) 
0

>  <PUBCHEM_COMPONENT_COUNT>  (1) 
1

>  <PUBCHEM_CACTVS_TAUTO_COUNT>  (1) 
3

>  <PUBCHEM_CONFORMER_ID>  (1) 
000058FF00000001

>  <PUBCHEM_MMFF94_ENERGY>  (1) 
30.9127

>  <PUBCHEM_FEATURE_SELFOVERLAP>  (1) 
30.508

>  <PUBCHEM_SHAPE_FINGERPRINT>  (1) 
10608611 8 18342172258971248200
11132069 177 18408885135565682185
12251169 10 18409448132721623700
12932764 1 17703788154368468524
13024252 1 13984657049591990045
14144814 61 18407758127504393376
14325111 11 18411138008894344668
15219456 202 18201442449980106590
15775835 57 18334577906103150024
16945 1 18335996319537898525
17834069 15 18410294670585514414
18186145 218 18201726089520295820
20279233 1 18343864420414346982
20361792 2 16153703254177978286
20510252 161 18342740702171978249
20528008 55 18341608243628294241
20645464 45 18273218594642316029
20871998 184 18270969071378023879
23402539 116 18342729759075057119
23463225 33 18187366480556940710
23552423 10 17538859374319226061
2748010 2 18046359526449113271
369184 2 17988643008137016277
43471831 8 18187081715772938531
6333449 129 18411415124674298797
69090 78 18201715163318712879

>  <PUBCHEM_SHAPE_MULTIPOLES>  (1) 
223.48
5.95
1.63
0.72
4.62
0.45
-0.02
-0.74
-1.11
-0.73
0.01
0.12
-0.05
0.4

>  <PUBCHEM_SHAPE_SELFOVERLAP>  (1) 
462.874

>  <PUBCHEM_SHAPE_VOLUME>  (1) 
127.2

>  <PUBCHEM_COORDINATE_TYPE>  (1) 
2
5
10

$$$$
