2278
     RDKit          3D

 21 22  0  0  0  0  0  0  0  0999 V2000
   -1.0455    0.8047   -0.7226 O   0  0  0  0  0  0  0  0  0  0  0  0
    4.0578   -0.8181    0.4001 O   0  0  0  0  0  0  0  0  0  0  0  0
   -3.7464   -0.1127    2.2420 O   0  0  0  0  0  0  0  0  0  0  0  0
   -1.1287   -0.0715    1.4363 O   0  0  0  0  0  0  0  0  0  0  0  0
    5.6700   -1.5952   -0.9022 O   0  0  0  0  0  0  0  0  0  0  0  0
    5.4781   -2.4232    1.1591 O   0  0  0  0  0  0  0  0  0  0  0  0
    5.1637   -1.6934    0.2162 N   0  0  0  0  0  0  0  0  0  0  0  0
    2.6023    0.8603   -0.4486 C   0  0  0  0  0  0  0  0  0  0  0  0
    0.2498    1.2495   -0.4450 C   0  0  0  0  0  0  0  0  0  0  0  0
    1.3093    0.4159   -0.7253 C   0  0  0  0  0  0  0  0  0  0  0  0
    3.7714   -0.0180   -0.7405 C   0  0  0  0  0  0  0  0  0  0  0  0
    2.8018    2.1269    0.1009 C   0  0  0  0  0  0  0  0  0  0  0  0
    0.4155    2.5043    0.0972 C   0  0  0  0  0  0  0  0  0  0  0  0
   -2.9959   -0.3023   -0.0287 C   0  0  0  0  0  0  0  0  0  0  0  0
    1.7085    2.9489    0.3738 C   0  0  0  0  0  0  0  0  0  0  0  0
   -1.6530    0.1296    0.3330 C   0  0  0  0  0  0  0  0  0  0  0  0
   -3.9978   -0.4091    0.9358 C   0  0  0  0  0  0  0  0  0  0  0  0
   -3.2737   -0.6111   -1.3602 C   0  0  0  0  0  0  0  0  0  0  0  0
   -5.2777   -0.8249    0.5687 C   0  0  0  0  0  0  0  0  0  0  0  0
   -4.5537   -1.0269   -1.7273 C   0  0  0  0  0  0  0  0  0  0  0  0
   -5.5557   -1.1338   -0.7629 C   0  0  0  0  0  0  0  0  0  0  0  0
  1  9  1  0
  1 16  1  0
  2  7  1  0
  2 11  1  0
  3 17  1  0
  4 16  2  0
  5  7  1  0
  6  7  2  0
  8 10  2  0
  8 11  1  0
  8 12  1  0
  9 10  1  0
  9 13  2  0
 12 15  2  0
 13 15  1  0
 14 16  1  0
 14 17  2  0
 14 18  1  0
 17 19  1  0
 18 20  2  0
 19 21  2  0
 20 21  1  0
M  CHG  2   5  -1   7   1
M  END
>  <PUBCHEM_COMPOUND_CID>  (1) 
2278

>  <PUBCHEM_CONFORMER_RMSD>  (1) 
1

>  <PUBCHEM_CONFORMER_DIVERSEORDER>  (1) 
1
140
122
78
14
110
94
3
40
131
46
56
67
30
127
64
63
72
48
100
59
105
90
85
4
65
7
76
96
9
37
120
88
62
68
10
87
31
102
24
126
44
74
121
55
2
130
43
111
34
108
133
19
70
11
135
16
92
60
79
117
29
93
6
27
51
23
143
103
142
136
57
33
75
138
8
101
66
41
50
80
91
21
12
35
115
22
20
15
53
139
84
73
28
123
119
125
36
17
128
52
114
77
99
45
98
82
104
47
81
38
129
58
113
95
97
132
13
86
39
89
25
54
83
134
124
5
32
49
107
109
112
69
18
118
26
106
61
137
71
141
42
116

>  <PUBCHEM_MMFF94_PARTIAL_CHARGES>  (1) 
30
1 -0.23
10 -0.15
11 0.42
12 -0.15
13 -0.15
14 0.09
15 -0.15
16 0.63
17 0.08
18 -0.15
19 -0.15
2 -0.27
20 -0.15
21 -0.15
22 0.15
25 0.15
26 0.15
27 0.15
28 0.15
29 0.15
3 -0.53
30 0.15
31 0.15
32 0.45
4 -0.57
5 -0.52
6 -0.52
7 1.03
8 -0.14
9 0.08

>  <PUBCHEM_EFFECTIVE_ROTOR_COUNT>  (1) 
6

>  <PUBCHEM_PHARMACOPHORE_FEATURES>  (1) 
6
1 3 donor
1 4 acceptor
1 5 acceptor
1 6 acceptor
6 14 17 18 19 20 21 rings
6 8 9 10 12 13 15 rings

>  <PUBCHEM_HEAVY_ATOM_COUNT>  (1) 
21

>  <PUBCHEM_ATOM_DEF_STEREO_COUNT>  (1) 
0

>  <PUBCHEM_ATOM_UDEF_STEREO_COUNT>  (1) 
0

>  <PUBCHEM_BOND_DEF_STEREO_COUNT>  (1) 
0

>  <PUBCHEM_BOND_UDEF_STEREO_COUNT>  (1) 
0

>  <PUBCHEM_ISOTOPIC_ATOM_COUNT>  (1) 
0

>  <PUBCHEM_COMPONENT_COUNT>  (1) 
1

>  <PUBCHEM_CACTVS_TAUTO_COUNT>  (1) 
4

>  <PUBCHEM_CONFORMER_ID>  (1) 
000008E600000001

>  <PUBCHEM_MMFF94_ENERGY>  (1) 
68.3306

>  <PUBCHEM_FEATURE_SELFOVERLAP>  (1) 
30.517

>  <PUBCHEM_SHAPE_FINGERPRINT>  (1) 
10319926 262 15410629046746898326
10912923 1 17631460119240994201
11796584 16 17312815000675133016
12107183 9 18128830659417495801
12236239 1 17488753401070420197
12523318 42 15697993072472097671
12596602 18 17132112438136188370
12616971 3 18060143171724009791
12633257 1 18272938240652427470
12760667 363 18262519191569614930
12839892 36 16988848289118333103
12892183 10 15697723610354921932
13134695 92 18337956799941325837
13167823 11 17774166837290385701
13533116 47 18271242841077631073
13911852 28 18268427945614374526
13955234 65 18194683889691833384
14178342 30 17345770576510442541
1420 369 18341613685831984342
14739800 52 16342567543450307872
15183329 4 15140956215254272066
15188451 53 17131541817423657727
17349148 13 17846505871702569215
17862501 102 17846784031006660343
17870717 6 16515404071435385211
1813 80 18271539623634497540
18222031 100 18201723942500657476
18681886 176 15983711150306493596
193927 3 18260838055533762134
19784866 140 17967812725888848041
20028762 73 17989202668146425302
20645477 70 18261386805824155908
20832881 197 18335420153685569793
21728266 224 16773792636925835335
2215653 11 17749103409426516655
22224240 67 18056186111381703216
23175994 123 17894634794496795373
23557571 272 14763810601385845521
23559900 14 17385725836968575180
314194 84 18409732863626436078
3421961 26 18411697716675186120
345986 75 18201718423256906824
34797466 226 16298674996139968285
351380 3 18412830162080571990
3729539 64 17749946665967744051
465052 167 18341900705511312622
5104073 3 17702673292870604843
559249 180 18202002101942099967
573450 72 17275112764528939681
67856867 119 17488458766182176041
7064713 232 16917072148287035878
76465 3 18413385436521032492
7970288 3 18339074900625635958
8863177 126 18115600390418940099

>  <PUBCHEM_SHAPE_MULTIPOLES>  (1) 
391.97
13.15
2.38
1.39
1.59
0.85
0.3
-10.85
0.12
4.44
0.27
-1.45
-0.39
-1.04

>  <PUBCHEM_SHAPE_SELFOVERLAP>  (1) 
842.601

>  <PUBCHEM_SHAPE_VOLUME>  (1) 
213.8

>  <PUBCHEM_COORDINATE_TYPE>  (1) 
2
5
10

$$$$
