22782
     RDKit          3D

 27 30  0  0  0  0  0  0  0  0999 V2000
   -3.1364    0.3968    1.1793 N   0  0  0  0  0  0  0  0  0  0  0  0
    2.5401   -0.6905   -0.0009 N   0  0  0  0  0  0  0  0  0  0  0  0
   -3.2000    0.5212   -1.1692 C   0  0  0  0  0  0  0  0  0  0  0  0
    3.8030    1.3471    0.1110 C   0  0  0  0  0  0  0  0  0  0  0  0
   -2.4644    0.8315    0.1539 C   0  0  0  0  0  0  0  0  0  0  0  0
    2.3918    0.6951    0.0877 C   0  0  0  0  0  0  0  0  0  0  0  0
   -4.4169   -0.1758   -0.6354 C   0  0  0  0  0  0  0  0  0  0  0  0
    4.6985    0.1198    0.0198 C   0  0  0  0  0  0  0  0  0  0  0  0
   -4.3293   -0.2224    0.7524 C   0  0  0  0  0  0  0  0  0  0  0  0
    3.8948   -1.0347   -0.0432 C   0  0  0  0  0  0  0  0  0  0  0  0
   -2.3685   -0.4092   -2.0556 C   0  0  0  0  0  0  0  0  0  0  0  0
   -3.5738    1.8100   -1.9056 C   0  0  0  0  0  0  0  0  0  0  0  0
    4.0590    2.1001    1.4237 C   0  0  0  0  0  0  0  0  0  0  0  0
    4.0258    2.2632   -1.1002 C   0  0  0  0  0  0  0  0  0  0  0  0
   -1.1801    1.5286    0.1822 C   0  0  0  0  0  0  0  0  0  0  0  0
    1.2553    1.4066    0.1453 C   0  0  0  0  0  0  0  0  0  0  0  0
   -5.5049   -0.7209   -1.2968 C   0  0  0  0  0  0  0  0  0  0  0  0
    6.0832    0.0427   -0.0051 C   0  0  0  0  0  0  0  0  0  0  0  0
   -0.0556    0.8053    0.1240 C   0  0  0  0  0  0  0  0  0  0  0  0
   -5.3160   -0.8098    1.5277 C   0  0  0  0  0  0  0  0  0  0  0  0
   -2.8268    0.4663    2.6163 C   0  0  0  0  0  0  0  0  0  0  0  0
    4.4828   -2.2869   -0.1330 C   0  0  0  0  0  0  0  0  0  0  0  0
    1.5164   -1.7121   -0.0588 C   0  0  0  0  0  0  0  0  0  0  0  0
   -6.5108   -1.3180   -0.5333 C   0  0  0  0  0  0  0  0  0  0  0  0
    6.6717   -1.2186   -0.0951 C   0  0  0  0  0  0  0  0  0  0  0  0
   -6.4169   -1.3617    0.8676 C   0  0  0  0  0  0  0  0  0  0  0  0
    5.8781   -2.3736   -0.1585 C   0  0  0  0  0  0  0  0  0  0  0  0
  1  5  2  0
  1  9  1  0
  1 21  1  0
  2  6  1  0
  2 10  1  0
  2 23  1  0
  3  5  1  0
  3  7  1  0
  3 11  1  0
  3 12  1  0
  4  6  1  0
  4  8  1  0
  4 13  1  0
  4 14  1  0
  5 15  1  0
  6 16  2  0
  7  9  2  0
  7 17  1  0
  8 10  2  0
  8 18  1  0
  9 20  1  0
 10 22  1  0
 15 19  2  0
 16 19  1  0
 17 24  2  0
 18 25  2  0
 20 26  2  0
 22 27  2  0
 24 26  1  0
 25 27  1  0
M  CHG  1   1   1
M  END
>  <PUBCHEM_COMPOUND_CID>  (1) 
22782

>  <PUBCHEM_CONFORMER_RMSD>  (1) 
0.6

>  <PUBCHEM_CONFORMER_DIVERSEORDER>  (1) 
2
4
3
1
5

>  <PUBCHEM_MMFF94_PARTIAL_CHARGES>  (1) 
34
1 -0.04
10 0.1
15 -0.14
16 -0.15
17 -0.15
18 -0.15
19 -0.15
2 -0.57
20 -0.15
21 0.35
22 -0.15
23 0.37
24 -0.15
25 -0.15
26 -0.15
27 -0.15
3 0.2
4 0.28
40 0.15
41 0.15
42 0.15
43 0.15
44 0.15
45 0.15
49 0.15
5 0.32
53 0.15
54 0.15
55 0.15
56 0.15
6 -0.04
7 -0.14
8 -0.14
9 0.3

>  <PUBCHEM_EFFECTIVE_ROTOR_COUNT>  (1) 
2.6

>  <PUBCHEM_PHARMACOPHORE_FEATURES>  (1) 
7
1 2 cation
3 3 11 12 hydrophobe
3 4 13 14 hydrophobe
5 1 3 5 7 9 rings
5 2 4 6 8 10 rings
6 7 9 17 20 24 26 rings
6 8 10 18 22 25 27 rings

>  <PUBCHEM_HEAVY_ATOM_COUNT>  (1) 
27

>  <PUBCHEM_ATOM_DEF_STEREO_COUNT>  (1) 
0

>  <PUBCHEM_ATOM_UDEF_STEREO_COUNT>  (1) 
0

>  <PUBCHEM_BOND_DEF_STEREO_COUNT>  (1) 
0

>  <PUBCHEM_BOND_UDEF_STEREO_COUNT>  (1) 
2

>  <PUBCHEM_ISOTOPIC_ATOM_COUNT>  (1) 
0

>  <PUBCHEM_COMPONENT_COUNT>  (1) 
1

>  <PUBCHEM_CACTVS_TAUTO_COUNT>  (1) 
1

>  <PUBCHEM_CONFORMER_ID>  (1) 
000058FE00000002

>  <PUBCHEM_MMFF94_ENERGY>  (1) 
113.0547

>  <PUBCHEM_FEATURE_SELFOVERLAP>  (1) 
35.697

>  <PUBCHEM_SHAPE_FINGERPRINT>  (1) 
11315181 36 16298392357184935101
12166972 35 18412546530729754224
12236239 1 17846500330899481672
12596602 18 17704071841332354145
12616971 3 17346876762686363828
12633257 1 16128371601459258225
13402501 40 18260552238092323667
13533116 47 18272370901606231280
13668630 136 18408887330146452842
13685833 64 18411138030627618010
13782708 43 17967813838254093042
14849402 71 17203317979909562152
15064981 113 14996822360855364163
15183329 4 11818989703988034603
15238133 3 14907903786043245410
15510800 12 17677905711387579475
15537594 2 18130506434885191948
15788980 27 18411416189968840460
17349148 13 18060701671932978938
17844677 252 18333734606560457948
17857418 61 18202001023193054562
17870717 6 17167864162719821225
19377110 9 17346877866645654336
19489759 90 16660081096814736767
19958102 18 16370719305791652987
20028762 73 18131068208535337862
21033648 29 18114169831375541788
21033650 10 16733542702656142917
21267235 1 18343587322278459854
21623969 137 18413392020885563750
22061861 79 18186801382982591486
22393880 68 17968650519320889994
22849339 104 15936704747685537659
23522609 53 17986140549753781497
23559900 14 17168147866109760437
239999 70 17967249828113552088
3004659 81 18114177540715016608
3411729 13 15553302895881254632
34797466 226 17022911197685339532
4015057 19 18261401091065218305
4098825 35 18261954055572973757
439807 62 18408885122717716615
44880568 143 17312819372851932421
46194498 28 17749106721099627284
465052 167 18272933796120625790
5104073 3 18131068203860043040
54039377 194 18272094851606122214
5912855 24 17700121386027152710
59755656 215 17530681004678409987

>  <PUBCHEM_SHAPE_MULTIPOLES>  (1) 
545.69
18.22
2.24
1.61
0.35
0.1
-0.26
8.64
0
2.91
0.2
-2.6
-0.43
0.79

>  <PUBCHEM_SHAPE_SELFOVERLAP>  (1) 
1193.424

>  <PUBCHEM_SHAPE_VOLUME>  (1) 
301.6

>  <PUBCHEM_COORDINATE_TYPE>  (1) 
2
5
10

$$$$
