22791
     RDKit          3D

 17 18  0  0  0  0  0  0  0  0999 V2000
    0.0074   -0.0824   -1.2076 N   0  0  0  0  0  0  0  0  0  0  0  0
   -1.1949   -0.0450   -0.3819 C   0  0  0  0  0  0  0  0  0  0  0  0
    1.2051   -0.0213   -0.3824 C   0  0  0  0  0  0  0  0  0  0  0  0
   -2.4686   -0.0981   -1.2374 C   0  0  0  0  0  0  0  0  0  0  0  0
    2.4670   -0.0530   -1.2454 C   0  0  0  0  0  0  0  0  0  0  0  0
   -3.7056   -0.0339   -0.4065 C   0  0  0  0  0  0  0  0  0  0  0  0
    3.7159   -0.0129   -0.4011 C   0  0  0  0  0  0  0  0  0  0  0  0
   -4.2905   -1.2090    0.0656 C   0  0  0  0  0  0  0  0  0  0  0  0
    4.2758    1.2121   -0.0709 C   0  0  0  0  0  0  0  0  0  0  0  0
   -4.2779    1.2012   -0.1018 C   0  0  0  0  0  0  0  0  0  0  0  0
    4.2844   -1.2016    0.0311 C   0  0  0  0  0  0  0  0  0  0  0  0
   -5.4475   -1.1489    0.8423 C   0  0  0  0  0  0  0  0  0  0  0  0
    5.4311    1.2492    0.7098 C   0  0  0  0  0  0  0  0  0  0  0  0
   -5.4348    1.2612    0.6752 C   0  0  0  0  0  0  0  0  0  0  0  0
    5.4396   -1.1646    0.8120 C   0  0  0  0  0  0  0  0  0  0  0  0
   -6.0196    0.0862    1.1474 C   0  0  0  0  0  0  0  0  0  0  0  0
    6.0130    0.0608    1.1515 C   0  0  0  0  0  0  0  0  0  0  0  0
  1  2  1  0
  1  3  1  0
  2  4  1  0
  3  5  1  0
  4  6  1  0
  5  7  1  0
  6  8  2  0
  6 10  1  0
  7  9  2  0
  7 11  1  0
  8 12  1  0
  9 13  1  0
 10 14  2  0
 11 15  2  0
 12 16  2  0
 13 17  2  0
 14 16  1  0
 15 17  1  0
M  END
>  <PUBCHEM_COMPOUND_CID>  (1) 
22791

>  <PUBCHEM_CONFORMER_RMSD>  (1) 
0.8

>  <PUBCHEM_CONFORMER_DIVERSEORDER>  (1) 
1
20
4
27
23
14
12
21
7
16
15
26
9
11
13
18
17
29
5
19
2
25
28
6
10
3
8
22
24

>  <PUBCHEM_MMFF94_PARTIAL_CHARGES>  (1) 
28
1 -0.9
10 -0.15
11 -0.15
12 -0.15
13 -0.15
14 -0.15
15 -0.15
16 -0.15
17 -0.15
2 0.27
26 0.36
27 0.15
28 0.15
29 0.15
3 0.27
30 0.15
31 0.15
32 0.15
33 0.15
34 0.15
35 0.15
36 0.15
4 0.14
5 0.14
6 -0.14
7 -0.14
8 -0.15
9 -0.15

>  <PUBCHEM_EFFECTIVE_ROTOR_COUNT>  (1) 
6

>  <PUBCHEM_PHARMACOPHORE_FEATURES>  (1) 
4
1 1 cation
1 1 donor
6 6 8 10 12 14 16 rings
6 7 9 11 13 15 17 rings

>  <PUBCHEM_HEAVY_ATOM_COUNT>  (1) 
17

>  <PUBCHEM_ATOM_DEF_STEREO_COUNT>  (1) 
0

>  <PUBCHEM_ATOM_UDEF_STEREO_COUNT>  (1) 
0

>  <PUBCHEM_BOND_DEF_STEREO_COUNT>  (1) 
0

>  <PUBCHEM_BOND_UDEF_STEREO_COUNT>  (1) 
0

>  <PUBCHEM_ISOTOPIC_ATOM_COUNT>  (1) 
0

>  <PUBCHEM_COMPONENT_COUNT>  (1) 
1

>  <PUBCHEM_CACTVS_TAUTO_COUNT>  (1) 
1

>  <PUBCHEM_CONFORMER_ID>  (1) 
0000590700000001

>  <PUBCHEM_MMFF94_ENERGY>  (1) 
32.2064

>  <PUBCHEM_FEATURE_SELFOVERLAP>  (1) 
20.297

>  <PUBCHEM_SHAPE_FINGERPRINT>  (1) 
10 15 18202568405869184491
10354089 29 18344145912908738284
11089746 13 13110959812714246790
11545043 162 16877931733314194653
117890 112 16702303442495326828
12596602 18 18410012143310174841
12616971 3 18201993348476900156
12670543 26 9511468818059301631
13167372 99 17703793578896501744
13533116 47 18337391548502371922
13631057 29 15840688808643255639
13668630 136 13695587741388176984
13862211 1 15574432132858038939
14123256 34 15647055936972262786
1420 363 15430037655949159177
14251740 57 15864893341515842816
14251764 18 18411699919460282317
14251764 75 17770214174778494104
14341114 176 18410857655262846428
14528608 73 11383830463381431844
15048467 5 15913327991795616720
15183329 4 9655585101515348205
15188451 53 17968096482184587907
15348495 7 18409730706977594104
15716309 27 17240483610945922549
17844677 252 15863788395915660596
17857418 61 15430032171133491105
17870717 6 10809344451843067541
18222031 100 14417852553229319766
18927931 339 14851606566583268127
20281389 69 16702303434100538755
20645477 70 8358268064055260924
21150785 3 9583509923707230776
220451 1 18334016107633785950
22061861 79 11818990790129152203
221357 26 10231758877137330178
22289505 5 11455890278619442130
23035841 295 13190341266874522421
23402539 116 15574710288189007527
23402655 69 13326852232026186844
23522609 53 15142392125415134239
23590187 198 17167583795575783767
2767999 5 15841548565609575025
2916195 48 17632293492945778515
29717793 49 11169906170067749354
300161 21 15626503878188944717
3004659 81 8502379927789363660
312425 54 18186523176745070891
34797466 226 9583508841502261003
351380 3 15502374530082483250
3663271 9 18409167727001645330
465052 167 14851607665868120762
49783359 22 17676205784162384879
5104073 3 18410012177664605810
542803 24 17775565346902393510
543368 44 14261350254602281571
5924683 9 18270397329990837023
59682541 52 11599739345783682444
960060 61 9223232953456330860

>  <PUBCHEM_SHAPE_MULTIPOLES>  (1) 
344.87
18.91
1.31
1.2
0.1
0.04
0.05
0.41
-8.31
0
-0.25
0
-0.02
0.02

>  <PUBCHEM_SHAPE_SELFOVERLAP>  (1) 
716.032

>  <PUBCHEM_SHAPE_VOLUME>  (1) 
196.3

>  <PUBCHEM_COORDINATE_TYPE>  (1) 
2
5
10

$$$$
