22797
     RDKit          3D

 18 20  0  0  0  0  0  0  0  0999 V2000
   -3.5712    1.5716   -0.0622 N   0  0  0  0  0  0  0  0  0  0  0  0
   -2.5936    2.5059    0.1483 N   0  0  0  0  0  0  0  0  0  0  0  0
   -1.9604   -0.1851    0.1173 C   0  0  0  0  0  0  0  0  0  0  0  0
   -0.9669    0.7703    0.3313 C   0  0  0  0  0  0  0  0  0  0  0  0
   -3.2788    0.2601   -0.0800 C   0  0  0  0  0  0  0  0  0  0  0  0
   -1.6678   -1.5594    0.0965 C   0  0  0  0  0  0  0  0  0  0  0  0
    0.4384    0.4482    0.5499 C   0  0  0  0  0  0  0  0  0  0  0  0
   -4.2739   -0.6900   -0.2944 C   0  0  0  0  0  0  0  0  0  0  0  0
    2.7537    0.1009   -0.2362 C   0  0  0  0  0  0  0  0  0  0  0  0
    1.3246    0.3997   -0.4410 C   0  0  0  0  0  0  0  0  0  0  0  0
   -1.3268    2.1003    0.3389 C   0  0  0  0  0  0  0  0  0  0  0  0
   -2.6791   -2.4918   -0.1195 C   0  0  0  0  0  0  0  0  0  0  0  0
   -3.9840   -2.0560   -0.3152 C   0  0  0  0  0  0  0  0  0  0  0  0
    3.1524   -0.5412    0.9245 C   0  0  0  0  0  0  0  0  0  0  0  0
    3.6690    0.4678   -1.2090 C   0  0  0  0  0  0  0  0  0  0  0  0
    4.5045   -0.8243    1.1181 C   0  0  0  0  0  0  0  0  0  0  0  0
    5.0211    0.1845   -1.0156 C   0  0  0  0  0  0  0  0  0  0  0  0
    5.4387   -0.4615    0.1480 C   0  0  0  0  0  0  0  0  0  0  0  0
  1  2  2  0
  1  5  1  0
  2 11  1  0
  3  4  1  0
  3  5  2  0
  3  6  1  0
  4  7  1  0
  4 11  2  0
  5  8  1  0
  6 12  2  0
  7 10  2  0
  8 13  2  0
  9 10  1  0
  9 14  2  0
  9 15  1  0
 12 13  1  0
 14 16  1  0
 15 17  2  0
 16 18  2  0
 17 18  1  0
M  END
>  <PUBCHEM_COMPOUND_CID>  (1) 
22797

>  <PUBCHEM_CONFORMER_RMSD>  (1) 
0.6

>  <PUBCHEM_CONFORMER_DIVERSEORDER>  (1) 
1
3
2

>  <PUBCHEM_MMFF94_PARTIAL_CHARGES>  (1) 
29
1 -0.31
10 -0.18
11 0.16
12 -0.15
13 -0.15
14 -0.15
15 -0.15
16 -0.15
17 -0.15
18 -0.15
19 0.15
2 -0.31
20 0.15
21 0.15
22 0.15
23 0.15
24 0.15
25 0.15
26 0.15
27 0.15
28 0.15
29 0.15
30 0.15
4 0.03
5 0.31
6 -0.15
7 -0.18
8 -0.15
9 0.03

>  <PUBCHEM_EFFECTIVE_ROTOR_COUNT>  (1) 
2

>  <PUBCHEM_PHARMACOPHORE_FEATURES>  (1) 
3
6 1 2 3 4 5 11 rings
6 3 5 6 8 12 13 rings
6 9 14 15 16 17 18 rings

>  <PUBCHEM_HEAVY_ATOM_COUNT>  (1) 
18

>  <PUBCHEM_ATOM_DEF_STEREO_COUNT>  (1) 
0

>  <PUBCHEM_ATOM_UDEF_STEREO_COUNT>  (1) 
0

>  <PUBCHEM_BOND_DEF_STEREO_COUNT>  (1) 
0

>  <PUBCHEM_BOND_UDEF_STEREO_COUNT>  (1) 
1

>  <PUBCHEM_ISOTOPIC_ATOM_COUNT>  (1) 
0

>  <PUBCHEM_COMPONENT_COUNT>  (1) 
1

>  <PUBCHEM_CACTVS_TAUTO_COUNT>  (1) 
1

>  <PUBCHEM_CONFORMER_ID>  (1) 
0000590D00000001

>  <PUBCHEM_MMFF94_ENERGY>  (1) 
62.233

>  <PUBCHEM_FEATURE_SELFOVERLAP>  (1) 
15.254

>  <PUBCHEM_SHAPE_FINGERPRINT>  (1) 
10616163 171 18411139134313374502
10912923 1 18186803565490798056
11045515 52 17748824150584626029
11046707 91 18341050795617591507
11315181 36 18333449850782165908
11552529 35 13541597912424330068
11578080 2 17679550519767031580
12107183 9 17685769130342687554
12236239 1 17967251987801366424
12553582 1 18339077215433173267
12714826 92 18131353028800051907
12757275 245 18411700997713351243
13167823 11 18260267439026826682
13288520 33 18413672421824628847
13583140 156 17703214140869468850
13862211 1 18340764953471965839
14386348 63 17418379094973086662
14508225 48 18339347678530527253
15042514 8 18410016550748544851
15099037 37 18273215300349659084
16752209 62 18410283718498401403
17804303 29 18271805761171834193
17834072 33 18260551138996933372
17870717 6 18272101477885701758
18186145 218 14996282539542878776
18681886 176 18411702119549024644
19489759 90 18271522018283644468
200 152 17967813868555818368
20281475 54 18261386720473332290
20300324 65 18408889546254476112
20374829 77 18342736364450077367
20511986 3 18040980852910125152
21033648 29 16558455410376072650
21065201 7 18271807870238140258
21267235 1 18337398226833547651
21728266 224 18337941338237966418
22646028 1 18187081754637971182
2297311 6 18272943734047090582
23175994 123 16845291652780634233
23366157 5 18044937024121972908
23402539 116 18411975858582922693
23557571 272 17988936534718554884
23559900 14 18341603867173015256
2838139 119 16517074126619210781
300161 21 18113050541612940436
3004659 81 18187641444447782694
335352 9 18411979192205408247
34797466 226 17916881222104859396
4214541 1 18410011014045167620
474 4 17241621704887950596
5104073 3 18343021129049945208
559249 180 18261949635756077778
573450 72 18335133164149874312
602551 16 18343863329635429370
67856867 119 18189333632041311940
9709674 26 18271250434627575598

>  <PUBCHEM_SHAPE_MULTIPOLES>  (1) 
360.47
11.12
2.14
0.93
10.02
0.15
-0.03
-2.99
-1.08
-3.33
0.1
1.04
-0.04
-0.84

>  <PUBCHEM_SHAPE_SELFOVERLAP>  (1) 
798.097

>  <PUBCHEM_SHAPE_VOLUME>  (1) 
191.3

>  <PUBCHEM_COORDINATE_TYPE>  (1) 
2
5
10

$$$$
