22801
     RDKit          3D

 15 14  0  0  0  0  0  0  0  0999 V2000
   -0.2613    3.2039   -0.2394 O   0  0  0  0  0  0  0  0  0  0  0  0
   -2.2856   -0.8061   -0.5291 O   0  0  0  0  0  0  0  0  0  0  0  0
    2.4246   -0.6058   -0.5157 O   0  0  0  0  0  0  0  0  0  0  0  0
   -1.2466   -1.4712    1.4159 O   0  0  0  0  0  0  0  0  0  0  0  0
    1.4349   -1.3547    1.4236 O   0  0  0  0  0  0  0  0  0  0  0  0
    0.0640   -0.5992   -0.4510 C   0  0  0  0  0  0  0  0  0  0  0  0
   -0.0226    0.8781   -0.8829 C   0  0  0  0  0  0  0  0  0  0  0  0
   -0.1623    1.8804    0.2629 C   0  0  0  0  0  0  0  0  0  0  0  0
   -1.2038   -1.0184    0.2801 C   0  0  0  0  0  0  0  0  0  0  0  0
    1.3596   -0.9013    0.2895 C   0  0  0  0  0  0  0  0  0  0  0  0
   -3.5551   -1.1541    0.0325 C   0  0  0  0  0  0  0  0  0  0  0  0
    3.7152   -0.8607    0.0478 C   0  0  0  0  0  0  0  0  0  0  0  0
   -0.3986    4.1537    0.8100 C   0  0  0  0  0  0  0  0  0  0  0  0
   -4.6400   -0.8612   -0.9818 C   0  0  0  0  0  0  0  0  0  0  0  0
    4.7776   -0.4834   -0.9625 C   0  0  0  0  0  0  0  0  0  0  0  0
  1  8  1  0
  1 13  1  0
  2  9  1  0
  2 11  1  0
  3 10  1  0
  3 12  1  0
  4  9  2  0
  5 10  2  0
  6  7  1  0
  6  9  1  0
  6 10  1  0
  7  8  1  0
 11 14  1  0
 12 15  1  0
M  END
>  <PUBCHEM_COMPOUND_CID>  (1) 
22801

>  <PUBCHEM_CONFORMER_RMSD>  (1) 
0.8

>  <PUBCHEM_CONFORMER_DIVERSEORDER>  (1) 
1
35
26
81
172
174
187
182
207
104
219
123
198
85
64
22
223
51
69
216
171
162
165
110
188
30
175
204
28
183
103
186
116
56
135
210
8
20
211
212
78
74
32
48
192
225
71
88
179
191
119
50
224
147
150
96
153
65
114
57
132
168
53
159
108
166
84
77
112
143
101
109
24
62
205
13
99
185
27
127
79
59
200
18
12
100
66
193
169
98
167
184
113
25
90
142
9
11
134
105
121
97
140
19
55
7
94
180
76
102
87
213
75
41
208
86
137
33
203
70
136
43
44
178
39
164
52
21
222
46
29
106
63
10
195
138
47
133
120
23
67
45
17
80
189
206
149
89
144
118
34
218
37
139
141
117
58
92
128
202
130
155
197
16
36
124
170
194
146
42
199
2
4
217
5
14
161
6
177
122
148
111
49
126
68
31
201
54
163
214
129
38
151
221
61
115
160
158
72
95
145
176
173
190
93
209
196
83
73
3
107
154
125
40
60
181
220
157
152
215
131
15
91
82
156

>  <PUBCHEM_MMFF94_PARTIAL_CHARGES>  (1) 
12
1 -0.56
10 0.66
11 0.28
12 0.28
13 0.28
2 -0.43
3 -0.43
4 -0.57
5 -0.57
6 0.12
8 0.28
9 0.66

>  <PUBCHEM_EFFECTIVE_ROTOR_COUNT>  (1) 
9

>  <PUBCHEM_PHARMACOPHORE_FEATURES>  (1) 
4
1 1 acceptor
1 4 acceptor
1 5 acceptor
1 6 anion

>  <PUBCHEM_HEAVY_ATOM_COUNT>  (1) 
15

>  <PUBCHEM_ATOM_DEF_STEREO_COUNT>  (1) 
0

>  <PUBCHEM_ATOM_UDEF_STEREO_COUNT>  (1) 
0

>  <PUBCHEM_BOND_DEF_STEREO_COUNT>  (1) 
0

>  <PUBCHEM_BOND_UDEF_STEREO_COUNT>  (1) 
0

>  <PUBCHEM_ISOTOPIC_ATOM_COUNT>  (1) 
0

>  <PUBCHEM_COMPONENT_COUNT>  (1) 
1

>  <PUBCHEM_CACTVS_TAUTO_COUNT>  (1) 
1

>  <PUBCHEM_CONFORMER_ID>  (1) 
0000591100000001

>  <PUBCHEM_MMFF94_ENERGY>  (1) 
17.6168

>  <PUBCHEM_FEATURE_SELFOVERLAP>  (1) 
20.305

>  <PUBCHEM_SHAPE_FINGERPRINT>  (1) 
13134695 92 18340482378429363101
14178000 29 18130504244552351167
14617773 55 17972025955609717762
14993402 34 18341330071640131807
17041 50 18338789113469306167
18410436 195 18411978096102725517
187816 3 18187085057046322406
201361 129 11026613395062049407
20344682 1 17918276454582974070
20671657 1 18124315171404590877
20671657 53 18271529783690088767
20711985 344 18339080359153574498
21029758 11 18410009965898950781
21041028 32 18265920075465584609
21501502 16 18047473323049068322
21524375 3 17543637431047023936
22112679 90 18199212661916362041
22620623 9 17914636972241936660
228727 97 18113901529116112962
23352939 185 18059865003861899152
23402539 116 18343581824129854135
23419403 2 18119217744813830989
23557571 272 18341619174794764854
23558518 356 17903075538682853626
3250762 1 17614005513457008627
465052 167 13182737104159169847
532947 4 17909833476798020172
58734987 43 18339077206552627039
58734987 51 18410576167332519189
68521 5 18411139091184035388
7364860 26 18124311872637592317
81228 2 18263658268156390768

>  <PUBCHEM_SHAPE_MULTIPOLES>  (1) 
279.35
6.83
3.37
1.1
1.35
6.83
0.18
-5.22
-2.67
-1.01
0.96
0.01
-0.24
-0.19

>  <PUBCHEM_SHAPE_SELFOVERLAP>  (1) 
526.752

>  <PUBCHEM_SHAPE_VOLUME>  (1) 
173.5

>  <PUBCHEM_COORDINATE_TYPE>  (1) 
2
5
10

$$$$
