22807
     RDKit          3D

  8  8  0  0  1  0  0  0  0  0999 V2000
   -1.2150    0.1518   -0.0249 S   0  0  0  0  0  0  0  0  0  0  0  0
   -1.8951    0.0808   -1.3012 O   0  0  0  0  0  0  0  0  0  0  0  0
   -1.8775    0.6019    1.1816 O   0  0  0  0  0  0  0  0  0  0  0  0
    2.7088    0.5677   -0.1628 N   0  0  0  0  0  0  0  0  0  0  0  0
    1.3965    0.1819    0.3309 C   0  0  0  0  0  0  0  0  0  0  0  0
    0.2978    1.0835   -0.2340 C   0  0  0  0  0  0  0  0  0  0  0  0
    1.0232   -1.2429   -0.0936 C   0  0  0  0  0  0  0  0  0  0  0  0
   -0.4388   -1.4246    0.3040 C   0  0  0  0  0  0  0  0  0  0  0  0
  1  2  2  0
  1  3  2  0
  1  6  1  0
  1  8  1  0
  4  5  1  0
  5  6  1  0
  5  7  1  0
  7  8  1  0
M  END
>  <PUBCHEM_COMPOUND_CID>  (1) 
22807

>  <PUBCHEM_CONFORMER_RMSD>  (1) 
0.4

>  <PUBCHEM_CONFORMER_DIVERSEORDER>  (1) 
1
3
2

>  <PUBCHEM_MMFF94_PARTIAL_CHARGES>  (1) 
9
1 1.09
16 0.36
17 0.36
2 -0.65
3 -0.65
4 -0.99
5 0.27
6 0.11
8 0.11

>  <PUBCHEM_EFFECTIVE_ROTOR_COUNT>  (1) 
0.8

>  <PUBCHEM_PHARMACOPHORE_FEATURES>  (1) 
5
1 2 acceptor
1 3 acceptor
1 4 cation
1 4 donor
5 1 5 6 7 8 rings

>  <PUBCHEM_HEAVY_ATOM_COUNT>  (1) 
8

>  <PUBCHEM_ATOM_DEF_STEREO_COUNT>  (1) 
0

>  <PUBCHEM_ATOM_UDEF_STEREO_COUNT>  (1) 
1

>  <PUBCHEM_BOND_DEF_STEREO_COUNT>  (1) 
0

>  <PUBCHEM_BOND_UDEF_STEREO_COUNT>  (1) 
0

>  <PUBCHEM_ISOTOPIC_ATOM_COUNT>  (1) 
0

>  <PUBCHEM_COMPONENT_COUNT>  (1) 
1

>  <PUBCHEM_CACTVS_TAUTO_COUNT>  (1) 
1

>  <PUBCHEM_CONFORMER_ID>  (1) 
0000591700000001

>  <PUBCHEM_MMFF94_ENERGY>  (1) 
3.1492

>  <PUBCHEM_FEATURE_SELFOVERLAP>  (1) 
25.387

>  <PUBCHEM_SHAPE_FINGERPRINT>  (1) 
12423570 1 12574429418226606183
15310529 11 15339112472622766092
16714656 1 18334299803029200828
18185500 45 18129649808116397903
20096714 4 18341618092025142938
21040471 1 18409448089761160930
23235685 24 18410859875354672161
24536 1 18342174483547698458
29004967 10 17968670332031530256
5084963 1 18116150154605860778

>  <PUBCHEM_SHAPE_MULTIPOLES>  (1) 
151.77
2.72
1.31
0.93
0.79
0.39
0.03
-0.63
0.09
0.16
-0.03
-0.55
-0.09
-0.06

>  <PUBCHEM_SHAPE_SELFOVERLAP>  (1) 
285.385

>  <PUBCHEM_SHAPE_VOLUME>  (1) 
95.6

>  <PUBCHEM_COORDINATE_TYPE>  (1) 
2
5
10

$$$$
