22812
     RDKit          3D

 12 12  0  0  0  0  0  0  0  0999 V2000
    0.4683   -2.5461    0.1105 Cl  0  0  0  0  0  0  0  0  0  0  0  0
   -4.1103    0.2295   -0.4809 Cl  0  0  0  0  0  0  0  0  0  0  0  0
    1.6203    0.1414    0.8052 O   0  0  0  0  0  0  0  0  0  0  0  0
    2.0908    0.5048   -1.4589 O   0  0  0  0  0  0  0  0  0  0  0  0
    0.2909    0.1393    0.5030 C   0  0  0  0  0  0  0  0  0  0  0  0
   -0.3715   -1.0402    0.1624 C   0  0  0  0  0  0  0  0  0  0  0  0
   -0.4077    1.3460    0.5399 C   0  0  0  0  0  0  0  0  0  0  0  0
   -1.7327   -1.0128   -0.1415 C   0  0  0  0  0  0  0  0  0  0  0  0
   -1.7687    1.3734    0.2360 C   0  0  0  0  0  0  0  0  0  0  0  0
   -2.4313    0.1941   -0.1047 C   0  0  0  0  0  0  0  0  0  0  0  0
    2.4582    0.3425   -0.3028 C   0  0  0  0  0  0  0  0  0  0  0  0
    3.8937    0.3280    0.1318 C   0  0  0  0  0  0  0  0  0  0  0  0
  1  6  1  0
  2 10  1  0
  3  5  1  0
  3 11  1  0
  4 11  2  0
  5  6  2  0
  5  7  1  0
  6  8  1  0
  7  9  2  0
  8 10  2  0
  9 10  1  0
 11 12  1  0
M  END
>  <PUBCHEM_COMPOUND_CID>  (1) 
22812

>  <PUBCHEM_CONFORMER_RMSD>  (1) 
0.6

>  <PUBCHEM_CONFORMER_DIVERSEORDER>  (1) 
1
8
4
9
3
6
2
10
5
7

>  <PUBCHEM_MMFF94_PARTIAL_CHARGES>  (1) 
15
1 -0.18
10 0.18
11 0.66
12 0.06
13 0.15
14 0.15
15 0.15
2 -0.18
3 -0.23
4 -0.57
5 0.08
6 0.18
7 -0.15
8 -0.15
9 -0.15

>  <PUBCHEM_EFFECTIVE_ROTOR_COUNT>  (1) 
2

>  <PUBCHEM_PHARMACOPHORE_FEATURES>  (1) 
2
1 4 acceptor
6 5 6 7 8 9 10 rings

>  <PUBCHEM_HEAVY_ATOM_COUNT>  (1) 
12

>  <PUBCHEM_ATOM_DEF_STEREO_COUNT>  (1) 
0

>  <PUBCHEM_ATOM_UDEF_STEREO_COUNT>  (1) 
0

>  <PUBCHEM_BOND_DEF_STEREO_COUNT>  (1) 
0

>  <PUBCHEM_BOND_UDEF_STEREO_COUNT>  (1) 
0

>  <PUBCHEM_ISOTOPIC_ATOM_COUNT>  (1) 
0

>  <PUBCHEM_COMPONENT_COUNT>  (1) 
1

>  <PUBCHEM_CACTVS_TAUTO_COUNT>  (1) 
1

>  <PUBCHEM_CONFORMER_ID>  (1) 
0000591C00000001

>  <PUBCHEM_MMFF94_ENERGY>  (1) 
29.4245

>  <PUBCHEM_FEATURE_SELFOVERLAP>  (1) 
10.148

>  <PUBCHEM_SHAPE_FINGERPRINT>  (1) 
11031198 65 18409166589315469775
12119455 92 14490461006713488329
12251169 10 8286193955197666807
12716758 59 18340770446186043666
12897270 3 18411981355935358857
13380535 76 18335138674398242899
14325111 11 18411419475434088616
14614273 12 18262795164461169341
14911166 2 18342167891258234821
14993402 34 18187086161053039972
15207287 21 17704353286239285358
15775835 57 18410572877060444792
16945 1 18412824685901960185
19021347 11 18337670815195816779
193761 8 17835801898278042049
20201158 50 17632301189611582140
20645476 183 17968100879613920550
21028194 46 18186802473914860064
21293036 1 18341891909317894277
21501502 16 18125720076597481425
23235685 24 18408035213061424689
23402539 116 18271796947798846044
23402655 69 18197478664214581261
23552423 10 18120936097083707011
23559900 14 18272368716079722680
2748010 2 18051682545617412449
366044 4 18409726278982635562
5084963 1 17748821929875049480
528862 383 18188202079229364691
528886 8 18410568504957875947
53812653 8 18411978023146219425
7364860 26 18126847088537382878

>  <PUBCHEM_SHAPE_MULTIPOLES>  (1) 
238.96
5.53
1.76
0.87
0.05
1.2
0.16
-1.42
1.08
-0.04
-0.17
0.27
-0.11
-0.17

>  <PUBCHEM_SHAPE_SELFOVERLAP>  (1) 
478.167

>  <PUBCHEM_SHAPE_VOLUME>  (1) 
142.7

>  <PUBCHEM_COORDINATE_TYPE>  (1) 
2
5
10

$$$$
