2281
     RDKit          3D

 26 29  0  0  0  0  0  0  0  0999 V2000
    0.0632   -2.9749    0.0003 O   0  0  0  0  0  0  0  0  0  0  0  0
   -2.4841   -1.6540    0.0001 N   0  0  0  0  0  0  0  0  0  0  0  0
    2.4747   -1.6518   -0.0002 N   0  0  0  0  0  0  0  0  0  0  0  0
   -1.3616    0.2643    0.0004 N   0  0  0  0  0  0  0  0  0  0  0  0
    1.3505    0.2655   -0.0005 N   0  0  0  0  0  0  0  0  0  0  0  0
   -7.6710    1.7249   -0.0013 N   0  0  0  0  0  0  0  0  0  0  0  0
    7.6586    1.7316    0.0013 N   0  0  0  0  0  0  0  0  0  0  0  0
   -7.6298   -0.6116    0.0031 N   0  0  0  0  0  0  0  0  0  0  0  0
    7.6194   -0.6050   -0.0031 N   0  0  0  0  0  0  0  0  0  0  0  0
   -3.4398   -0.6705   -0.0001 C   0  0  0  0  0  0  0  0  0  0  0  0
    3.4295   -0.6676    0.0000 C   0  0  0  0  0  0  0  0  0  0  0  0
   -1.2596   -1.0460    0.0004 C   0  0  0  0  0  0  0  0  0  0  0  0
    1.3239   -1.0048   -0.0005 C   0  0  0  0  0  0  0  0  0  0  0  0
   -2.7141    0.5173    0.0002 C   0  0  0  0  0  0  0  0  0  0  0  0
    2.7028    0.5196   -0.0002 C   0  0  0  0  0  0  0  0  0  0  0  0
   -0.0047   -1.7219   -0.0001 C   0  0  0  0  0  0  0  0  0  0  0  0
   -4.8344   -0.7169   -0.0004 C   0  0  0  0  0  0  0  0  0  0  0  0
    4.8241   -0.7127    0.0004 C   0  0  0  0  0  0  0  0  0  0  0  0
   -5.5048    0.5108   -0.0006 C   0  0  0  0  0  0  0  0  0  0  0  0
    5.4936    0.5155    0.0007 C   0  0  0  0  0  0  0  0  0  0  0  0
   -3.4040    1.7414    0.0000 C   0  0  0  0  0  0  0  0  0  0  0  0
    3.3916    1.7444    0.0001 C   0  0  0  0  0  0  0  0  0  0  0  0
   -4.8044    1.7193   -0.0004 C   0  0  0  0  0  0  0  0  0  0  0  0
    4.7919    1.7234    0.0005 C   0  0  0  0  0  0  0  0  0  0  0  0
   -6.9599    0.5268   -0.0010 C   0  0  0  0  0  0  0  0  0  0  0  0
    6.9485    0.5328    0.0011 C   0  0  0  0  0  0  0  0  0  0  0  0
  1 16  2  0
  2 10  1  0
  2 12  1  0
  3 11  1  0
  3 13  1  0
  4 12  2  0
  4 14  1  0
  5 13  2  0
  5 15  1  0
  6 25  1  0
  7 26  1  0
  8 25  2  0
  9 26  2  0
 10 14  2  0
 10 17  1  0
 11 15  2  0
 11 18  1  0
 12 16  1  0
 13 16  1  0
 14 21  1  0
 15 22  1  0
 17 19  2  0
 18 20  2  0
 19 23  1  0
 19 25  1  0
 20 24  1  0
 20 26  1  0
 21 23  2  0
 22 24  2  0
M  END
>  <PUBCHEM_COMPOUND_CID>  (1) 
2281

>  <PUBCHEM_CONFORMER_RMSD>  (1) 
0.8

>  <PUBCHEM_CONFORMER_DIVERSEORDER>  (1) 
1
7
3
4
8
9
2
5
6

>  <PUBCHEM_MMFF94_PARTIAL_CHARGES>  (1) 
40
1 -0.57
10 -0.15
11 -0.15
12 0.1
13 0.1
14 0.23
15 0.23
16 0.74
17 -0.15
18 -0.15
19 0.09
2 0.03
20 0.09
21 -0.15
22 -0.15
23 -0.15
24 -0.15
25 0.41
26 0.41
27 0.27
28 0.27
29 0.15
3 0.03
30 0.15
31 0.15
32 0.15
33 0.15
34 0.15
35 0.4
36 0.4
37 0.4
38 0.4
39 0.4
4 -0.57
40 0.4
5 -0.57
6 -0.85
7 -0.85
8 -0.85
9 -0.85

>  <PUBCHEM_EFFECTIVE_ROTOR_COUNT>  (1) 
4

>  <PUBCHEM_PHARMACOPHORE_FEATURES>  (1) 
15
1 1 acceptor
1 2 donor
1 3 donor
1 6 donor
1 7 donor
1 8 donor
1 9 donor
3 2 4 12 cation
3 3 5 13 cation
3 6 8 25 cation
3 7 9 26 cation
5 2 4 10 12 14 rings
5 3 5 11 13 15 rings
6 10 14 17 19 21 23 rings
6 11 15 18 20 22 24 rings

>  <PUBCHEM_HEAVY_ATOM_COUNT>  (1) 
26

>  <PUBCHEM_ATOM_DEF_STEREO_COUNT>  (1) 
0

>  <PUBCHEM_ATOM_UDEF_STEREO_COUNT>  (1) 
0

>  <PUBCHEM_BOND_DEF_STEREO_COUNT>  (1) 
0

>  <PUBCHEM_BOND_UDEF_STEREO_COUNT>  (1) 
0

>  <PUBCHEM_ISOTOPIC_ATOM_COUNT>  (1) 
0

>  <PUBCHEM_COMPONENT_COUNT>  (1) 
1

>  <PUBCHEM_CACTVS_TAUTO_COUNT>  (1) 
20

>  <PUBCHEM_CONFORMER_ID>  (1) 
000008E900000001

>  <PUBCHEM_MMFF94_ENERGY>  (1) 
73.4687

>  <PUBCHEM_FEATURE_SELFOVERLAP>  (1) 
76.433

>  <PUBCHEM_SHAPE_FINGERPRINT>  (1) 
10 15 18113901567316975864
10050765 1 18050286973536057989
10411042 1 17762056541614374146
10595046 47 18341891854010820603
106641 1 17386010593780126785
11315181 36 18202285801996817153
11408170 108 16056330402451165230
11719270 70 18202280278447724566
11724838 91 18261392273723699255
12838862 33 18338499898450201729
13402501 40 18410572889940604597
13785724 45 17833264221674728122
14251764 18 18260828202419719202
14257110 125 18410292510507147351
14394314 77 18271251513161012545
14933364 13 18410857663446566533
15131766 46 15794005825355132438
15183329 4 18344148081329243896
15419008 145 18188196595379262024
15716309 27 11386365950285804488
1577012 14 18411411817365241350
15840311 113 18041001761275445276
15961568 22 18335985290073049421
16989713 51 17416396778999626391
18335252 114 18342450430965049692
18335252 98 18412549825687062395
18608769 82 18339363067313796571
19611394 137 17896897632518473467
20281389 69 18259701199249892852
20554085 129 17774708819530603034
20567600 254 18259698991530967235
20721686 124 17988927734753033870
21033648 29 18200018677481201328
21150785 3 15913608375929885325
21585482 111 18191870029384241053
22224240 67 17385442132956637402
23198884 109 16272212981343902843
23559900 14 18200587115749075760
2838139 119 18341888610471956756
335352 9 18411140243258338878
34797466 226 17846787312034822061
350125 39 18410009935718329908
3545911 37 18411136935104885444
4073 2 18041002886061186434
4325135 7 18343299276059691789
4340502 62 16587742027731812962
5104073 3 18188497857143075075
5385378 56 18260825960964320930
5758199 1 18411984646170360771
59682541 35 18260277361023558905
59755656 215 18412268307464896622
59755656 520 17967528003885901730
6328613 192 18262243330653451356
6669772 16 17774729679327053550

>  <PUBCHEM_SHAPE_MULTIPOLES>  (1) 
489.35
21.78
2.11
0.59
0.32
0.36
0
-9.34
0
-0.02
0
0
-0.01
0

>  <PUBCHEM_SHAPE_SELFOVERLAP>  (1) 
1108.709

>  <PUBCHEM_SHAPE_VOLUME>  (1) 
258.4

>  <PUBCHEM_COORDINATE_TYPE>  (1) 
2
5
10

$$$$
