22811
     RDKit          3D

  7  8  0  0  1  0  0  0  0  0999 V2000
   -1.4931    0.7257   -0.6231 O   0  0  0  0  0  0  0  0  0  0  0  0
    1.6640    0.8334    0.0064 O   0  0  0  0  0  0  0  0  0  0  0  0
   -0.5883   -0.1942   -0.0205 C   0  0  0  0  0  0  0  0  0  0  0  0
    0.8089   -0.1818   -0.5468 C   0  0  0  0  0  0  0  0  0  0  0  0
   -1.2028    0.9101    0.7685 C   0  0  0  0  0  0  0  0  0  0  0  0
    2.0181   -0.5277    0.2837 C   0  0  0  0  0  0  0  0  0  0  0  0
   -1.2068   -1.5655    0.1317 C   0  0  0  0  0  0  0  0  0  0  0  0
  1  3  1  0
  1  5  1  0
  2  4  1  0
  2  6  1  0
  3  4  1  0
  3  5  1  0
  3  7  1  0
  4  6  1  0
M  END
>  <PUBCHEM_COMPOUND_CID>  (1) 
22811

>  <PUBCHEM_CONFORMER_RMSD>  (1) 
0.4

>  <PUBCHEM_CONFORMER_DIVERSEORDER>  (1) 
4
3
8
9
12
2
5
7
6
1
10
11

>  <PUBCHEM_MMFF94_PARTIAL_CHARGES>  (1) 
12
1 -0.3
10 0.1
11 0.1
12 0.1
2 -0.3
3 0.05
4 0.05
5 -0.05
6 -0.05
7 0.09
8 0.1
9 0.1

>  <PUBCHEM_EFFECTIVE_ROTOR_COUNT>  (1) 
2.2

>  <PUBCHEM_PHARMACOPHORE_FEATURES>  (1) 
2
1 1 acceptor
1 2 acceptor

>  <PUBCHEM_HEAVY_ATOM_COUNT>  (1) 
7

>  <PUBCHEM_ATOM_DEF_STEREO_COUNT>  (1) 
0

>  <PUBCHEM_ATOM_UDEF_STEREO_COUNT>  (1) 
2

>  <PUBCHEM_BOND_DEF_STEREO_COUNT>  (1) 
0

>  <PUBCHEM_BOND_UDEF_STEREO_COUNT>  (1) 
0

>  <PUBCHEM_ISOTOPIC_ATOM_COUNT>  (1) 
0

>  <PUBCHEM_COMPONENT_COUNT>  (1) 
1

>  <PUBCHEM_CACTVS_TAUTO_COUNT>  (1) 
1

>  <PUBCHEM_CONFORMER_ID>  (1) 
0000591B00000004

>  <PUBCHEM_MMFF94_ENERGY>  (1) 
10.028

>  <PUBCHEM_FEATURE_SELFOVERLAP>  (1) 
10.149

>  <PUBCHEM_SHAPE_FINGERPRINT>  (1) 
137420 1 14352771171459394455
20096714 4 18341336574104053448
21040471 1 18267593411481682988
24536 1 18059861649043670852
29004967 10 17608656346543427563
5943 1 15048632667505579893

>  <PUBCHEM_SHAPE_MULTIPOLES>  (1) 
132.32
2.39
1.28
0.78
0.95
0.33
-0.02
-0.06
-0.16
-0.49
-0.12
-0.1
-0.07
-0.04

>  <PUBCHEM_SHAPE_SELFOVERLAP>  (1) 
259.79

>  <PUBCHEM_SHAPE_VOLUME>  (1) 
81

>  <PUBCHEM_COORDINATE_TYPE>  (1) 
2
5
10

$$$$
