22817
     RDKit          3D

 14 16  0  0  0  0  0  0  0  0999 V2000
    3.0528   -1.9514    0.0009 N   0  0  0  0  0  0  0  0  0  0  0  0
    0.0149   -1.6761   -0.0003 C   0  0  0  0  0  0  0  0  0  0  0  0
    1.0495   -0.5702   -0.0003 C   0  0  0  0  0  0  0  0  0  0  0  0
    0.4209    0.6954   -0.0002 C   0  0  0  0  0  0  0  0  0  0  0  0
   -1.2787   -0.8886   -0.0003 C   0  0  0  0  0  0  0  0  0  0  0  0
   -1.0129    0.4993   -0.0002 C   0  0  0  0  0  0  0  0  0  0  0  0
    2.4280   -0.6927   -0.0002 C   0  0  0  0  0  0  0  0  0  0  0  0
    1.1762    1.8561    0.0001 C   0  0  0  0  0  0  0  0  0  0  0  0
   -2.5735   -1.3769   -0.0002 C   0  0  0  0  0  0  0  0  0  0  0  0
   -2.0522    1.4145    0.0002 C   0  0  0  0  0  0  0  0  0  0  0  0
    3.1891    0.4775   -0.0001 C   0  0  0  0  0  0  0  0  0  0  0  0
    2.5696    1.7392    0.0000 C   0  0  0  0  0  0  0  0  0  0  0  0
   -3.6209   -0.4540    0.0002 C   0  0  0  0  0  0  0  0  0  0  0  0
   -3.3629    0.9277    0.0004 C   0  0  0  0  0  0  0  0  0  0  0  0
  1  7  1  0
  2  3  1  0
  2  5  1  0
  3  4  2  0
  3  7  1  0
  4  6  1  0
  4  8  1  0
  5  6  2  0
  5  9  1  0
  6 10  1  0
  7 11  2  0
  8 12  2  0
  9 13  2  0
 10 14  2  0
 11 12  1  0
 13 14  1  0
M  END
>  <PUBCHEM_COMPOUND_CID>  (1) 
22817

>  <PUBCHEM_CONFORMER_RMSD>  (1) 
0.4

>  <PUBCHEM_CONFORMER_DIVERSEORDER>  (1) 
1

>  <PUBCHEM_MMFF94_PARTIAL_CHARGES>  (1) 
21
1 -0.9
10 -0.15
11 -0.15
12 -0.15
13 -0.15
14 -0.15
17 0.15
18 0.15
19 0.15
2 0.29
20 0.15
21 0.15
22 0.15
23 0.15
24 0.4
25 0.4
3 -0.14
5 -0.14
7 0.1
8 -0.15
9 -0.15

>  <PUBCHEM_EFFECTIVE_ROTOR_COUNT>  (1) 
0.2

>  <PUBCHEM_PHARMACOPHORE_FEATURES>  (1) 
5
1 1 cation
1 1 donor
5 2 3 4 5 6 rings
6 3 4 7 8 11 12 rings
6 5 6 9 10 13 14 rings

>  <PUBCHEM_HEAVY_ATOM_COUNT>  (1) 
14

>  <PUBCHEM_ATOM_DEF_STEREO_COUNT>  (1) 
0

>  <PUBCHEM_ATOM_UDEF_STEREO_COUNT>  (1) 
0

>  <PUBCHEM_BOND_DEF_STEREO_COUNT>  (1) 
0

>  <PUBCHEM_BOND_UDEF_STEREO_COUNT>  (1) 
0

>  <PUBCHEM_ISOTOPIC_ATOM_COUNT>  (1) 
0

>  <PUBCHEM_COMPONENT_COUNT>  (1) 
1

>  <PUBCHEM_CACTVS_TAUTO_COUNT>  (1) 
1

>  <PUBCHEM_CONFORMER_ID>  (1) 
0000592100000001

>  <PUBCHEM_MMFF94_ENERGY>  (1) 
57.3829

>  <PUBCHEM_FEATURE_SELFOVERLAP>  (1) 
25.536

>  <PUBCHEM_SHAPE_FINGERPRINT>  (1) 
10608611 8 18410007754043917517
10967382 1 18410574028122229607
10980938 120 18410575119360459944
11132069 177 18410848845899696585
11471102 20 18410569574536575421
11769659 78 18412820287576003991
12032990 46 18339085882371039422
12491281 212 18339655476733755065
12932764 1 17560797796483475603
13140716 1 18411137991682671473
13380535 21 18336838587925001336
13380535 76 18337388369798927986
13571099 22 18342457015017675165
13897977 150 18410853304276281253
14144814 61 18411138047575339753
14325111 11 18410575102038341281
14576447 43 17769358754605081183
14790565 3 15678036532953893472
15196674 1 18410573980888158341
15219456 202 18409448098409150229
15442244 35 18339643313370353424
15536298 74 18343301470492587090
15775835 57 18410862087373722693
16945 1 18194682789715189188
17804303 29 18338522932428011838
17844478 74 18113625603284498105
17990270 104 18410575089306322818
18186145 218 18342182141511388437
193761 8 14519745828772599718
200 152 18059563703426549565
20559304 39 18410855486230424456
20645477 70 18411695474528229991
21267235 1 18411146835010147759
21501502 16 18411701006239949877
21501925 9 18338222813272530474
221490 88 18336274517186024186
2334 1 18410855490198220613
23402655 69 18341885282531639981
23463225 33 18409730638268659988
23552423 10 18334857263666225687
23559900 14 18342173316129009578
2748010 2 18410292510180047892
335352 9 18122343484677907261
5104073 3 18410575080763816457
528886 8 18411132554254139400
53812653 166 18270959150071998976
57096353 35 18267865175737830525
63268167 104 18411422803838564352
69090 78 18342171189782588111
7364860 26 18342739637283442736
8809292 202 18261118460720958771
9709674 26 18338520840731894542

>  <PUBCHEM_SHAPE_MULTIPOLES>  (1) 
283.13
5.72
2.04
0.61
1.14
0.06
0
0.01
0
-0.72
0
0.02
-0.01
0

>  <PUBCHEM_SHAPE_SELFOVERLAP>  (1) 
638.684

>  <PUBCHEM_SHAPE_VOLUME>  (1) 
151.4

>  <PUBCHEM_COORDINATE_TYPE>  (1) 
2
5
10

$$$$
