22810
     RDKit          3D

 17 18  0  0  1  0  0  0  0  0999 V2000
    5.3928   -0.6182   -0.0708 O   0  0  0  0  0  0  0  0  0  0  0  0
    3.4922   -1.7927    0.3083 O   0  0  0  0  0  0  0  0  0  0  0  0
    3.3000    0.5648   -0.3014 C   0  0  0  0  0  0  0  0  0  0  0  0
    1.8176    0.4190   -0.2257 C   0  0  0  0  0  0  0  0  0  0  0  0
   -0.9558    0.1478   -0.0838 C   0  0  0  0  0  0  0  0  0  0  0  0
    1.0376    0.6241   -1.3639 C   0  0  0  0  0  0  0  0  0  0  0  0
    1.2110    0.0785    0.9834 C   0  0  0  0  0  0  0  0  0  0  0  0
   -0.3488    0.4886   -1.2928 C   0  0  0  0  0  0  0  0  0  0  0  0
   -0.1755   -0.0572    1.0542 C   0  0  0  0  0  0  0  0  0  0  0  0
    3.8673    1.6699    0.6126 C   0  0  0  0  0  0  0  0  0  0  0  0
   -2.3937    0.0066   -0.0106 C   0  0  0  0  0  0  0  0  0  0  0  0
    4.0413   -0.7404    0.0090 C   0  0  0  0  0  0  0  0  0  0  0  0
   -3.1880    1.1085    0.3063 C   0  0  0  0  0  0  0  0  0  0  0  0
   -2.9857   -1.2327   -0.2549 C   0  0  0  0  0  0  0  0  0  0  0  0
   -4.5742    0.9712    0.3787 C   0  0  0  0  0  0  0  0  0  0  0  0
   -4.3719   -1.3700   -0.1826 C   0  0  0  0  0  0  0  0  0  0  0  0
   -5.1662   -0.2680    0.1341 C   0  0  0  0  0  0  0  0  0  0  0  0
  1 12  1  0
  2 12  2  0
  3  4  1  0
  3 10  1  0
  3 12  1  0
  4  6  2  0
  4  7  1  0
  5  8  2  0
  5  9  1  0
  5 11  1  0
  6  8  1  0
  7  9  2  0
 11 13  2  0
 11 14  1  0
 13 15  1  0
 14 16  2  0
 15 17  2  0
 16 17  1  0
M  END
>  <PUBCHEM_COMPOUND_CID>  (1) 
22810

>  <PUBCHEM_CONFORMER_RMSD>  (1) 
0.6

>  <PUBCHEM_CONFORMER_DIVERSEORDER>  (1) 
1
2
4
3

>  <PUBCHEM_MMFF94_PARTIAL_CHARGES>  (1) 
24
1 -0.65
12 0.66
13 -0.15
14 -0.15
15 -0.15
16 -0.15
17 -0.15
19 0.15
2 -0.57
20 0.15
21 0.15
22 0.15
26 0.15
27 0.15
28 0.15
29 0.15
3 0.2
30 0.15
31 0.5
4 -0.14
6 -0.15
7 -0.15
8 -0.15
9 -0.15

>  <PUBCHEM_EFFECTIVE_ROTOR_COUNT>  (1) 
3

>  <PUBCHEM_PHARMACOPHORE_FEATURES>  (1) 
6
1 1 acceptor
1 10 hydrophobe
1 2 acceptor
3 1 2 12 anion
6 11 13 14 15 16 17 rings
6 4 5 6 7 8 9 rings

>  <PUBCHEM_HEAVY_ATOM_COUNT>  (1) 
17

>  <PUBCHEM_ATOM_DEF_STEREO_COUNT>  (1) 
0

>  <PUBCHEM_ATOM_UDEF_STEREO_COUNT>  (1) 
1

>  <PUBCHEM_BOND_DEF_STEREO_COUNT>  (1) 
0

>  <PUBCHEM_BOND_UDEF_STEREO_COUNT>  (1) 
0

>  <PUBCHEM_ISOTOPIC_ATOM_COUNT>  (1) 
0

>  <PUBCHEM_COMPONENT_COUNT>  (1) 
1

>  <PUBCHEM_CACTVS_TAUTO_COUNT>  (1) 
1

>  <PUBCHEM_CONFORMER_ID>  (1) 
0000591A00000001

>  <PUBCHEM_MMFF94_ENERGY>  (1) 
49.8797

>  <PUBCHEM_FEATURE_SELFOVERLAP>  (1) 
30.505

>  <PUBCHEM_SHAPE_FINGERPRINT>  (1) 
10465860 250 17775284954463234833
11796584 16 18201722846915342455
12107183 9 17692536615273075152
12236239 1 18186523220222218501
124424 183 17632574946648067377
12670546 56 18412822482383439569
13167823 11 18413387648397677711
13288520 33 18410576175816971751
13583140 156 17774707706284116617
13675066 3 18040438797814564181
13760787 19 18202565120113753702
13862211 1 16732696160174557192
14252887 29 17748825215720248704
14289901 80 18270397320783093680
14341114 176 18342744039292923809
14911166 2 16153429458523723190
15375358 24 16343709824398846109
15788980 27 17489868232624624749
15848700 24 17385441029445279068
15848702 151 18260267421356366623
16945 1 16225763025548215968
17834072 33 18410857685137590004
17844677 252 18342463650932571489
1813 80 17168148914176440950
18186145 218 16153709863937610661
18222031 100 17022899077213536700
19026448 5 18413110579967592581
19141452 34 18260268559781390175
200 152 18410293609749710930
20279233 1 17060346227701114157
204376 136 15051730910630994469
20645477 70 18343587326404836462
21267235 1 18336555961950075739
22485316 2 18342455967230368663
23402539 116 18131346398077727477
23536379 177 18412827971129942024
23557571 272 18202290169245691057
23559900 14 18341610451526392752
26918003 58 17989488515235499946
4072396 5 16200150937260946406
42 15 18411420604947053999
4214541 1 18413108338337574913
474 4 17897728909905683780
4990 188 17603305933947133146
5104073 3 18342740736520823291
573450 72 18342174453920725363
633830 44 16877666764017750957
69090 78 18260829323343139890
7495541 125 17560797796652307017
77779 3 18413108372517809337
9971528 1 17967533493186064732
9981440 41 17034455185283399181

>  <PUBCHEM_SHAPE_MULTIPOLES>  (1) 
338.11
10.94
1.37
1
0.3
0.16
-0.15
1.53
0.98
-0.27
0.11
-0.21
-0.15
-0.21

>  <PUBCHEM_SHAPE_SELFOVERLAP>  (1) 
727.565

>  <PUBCHEM_SHAPE_VOLUME>  (1) 
186

>  <PUBCHEM_COORDINATE_TYPE>  (1) 
2
5
10

$$$$
