22816
     RDKit          3D

  7  6  0  0  0  0  0  0  0  0999 V2000
    1.5884    0.3751   -0.0103 O   0  0  0  0  0  0  0  0  0  0  0  0
   -0.8932   -0.0271    0.0030 N   0  0  0  0  0  0  0  0  0  0  0  0
    0.5373   -0.5915    0.0136 C   0  0  0  0  0  0  0  0  0  0  0  0
   -1.0911    0.8923    1.1998 C   0  0  0  0  0  0  0  0  0  0  0  0
   -1.1125    0.7640   -1.2807 C   0  0  0  0  0  0  0  0  0  0  0  0
   -1.8965   -1.1697    0.0667 C   0  0  0  0  0  0  0  0  0  0  0  0
    2.8677   -0.2431    0.0079 C   0  0  0  0  0  0  0  0  0  0  0  0
  1  3  1  0
  1  7  1  0
  2  3  1  0
  2  4  1  0
  2  5  1  0
  2  6  1  0
M  CHG  1   2   1
M  END
>  <PUBCHEM_COMPOUND_CID>  (1) 
22816

>  <PUBCHEM_CONFORMER_RMSD>  (1) 
0.4

>  <PUBCHEM_CONFORMER_DIVERSEORDER>  (1) 
1

>  <PUBCHEM_MMFF94_PARTIAL_CHARGES>  (1) 
7
1 -0.56
2 -1.01
3 0.78
4 0.5
5 0.5
6 0.5
7 0.28

>  <PUBCHEM_EFFECTIVE_ROTOR_COUNT>  (1) 
2

>  <PUBCHEM_PHARMACOPHORE_FEATURES>  (1) 
2
1 1 acceptor
1 2 cation

>  <PUBCHEM_HEAVY_ATOM_COUNT>  (1) 
7

>  <PUBCHEM_ATOM_DEF_STEREO_COUNT>  (1) 
0

>  <PUBCHEM_ATOM_UDEF_STEREO_COUNT>  (1) 
0

>  <PUBCHEM_BOND_DEF_STEREO_COUNT>  (1) 
0

>  <PUBCHEM_BOND_UDEF_STEREO_COUNT>  (1) 
0

>  <PUBCHEM_ISOTOPIC_ATOM_COUNT>  (1) 
0

>  <PUBCHEM_COMPONENT_COUNT>  (1) 
1

>  <PUBCHEM_CACTVS_TAUTO_COUNT>  (1) 
1

>  <PUBCHEM_CONFORMER_ID>  (1) 
0000592000000001

>  <PUBCHEM_MMFF94_ENERGY>  (1) 
20.7999

>  <PUBCHEM_FEATURE_SELFOVERLAP>  (1) 
10.148

>  <PUBCHEM_SHAPE_FINGERPRINT>  (1) 
16714656 1 18040712593152301407
20096714 4 17630338436575181608
23552449 1 17967805046487556812
24536 1 18130501938260115354
29004967 10 17560804380631644514
5084963 1 18333731342643281706
5460574 1 9367352530920308170
5943 1 16041929861510143213

>  <PUBCHEM_SHAPE_MULTIPOLES>  (1) 
133.21
3.21
1.09
1.07
2.83
0.11
0.07
0.49
-0.02
-0.56
-0.05
-0.53
-0.39
0.01

>  <PUBCHEM_SHAPE_SELFOVERLAP>  (1) 
227.611

>  <PUBCHEM_SHAPE_VOLUME>  (1) 
92

>  <PUBCHEM_COORDINATE_TYPE>  (1) 
2
5
10

$$$$
