2282
     RDKit          2D

 32 34  0  0  1  0  0  0  0  0999 V2000
    0.0000    0.0000    0.0000 S   0  0  0  0  0  0  0  0  0  0  0  0
    0.0000    0.0000    0.0000 O   0  0  0  0  0  0  0  0  0  0  0  0
    0.0000    0.0000    0.0000 O   0  0  0  0  0  0  0  0  0  0  0  0
    0.0000    0.0000    0.0000 O   0  0  0  0  0  0  0  0  0  0  0  0
    0.0000    0.0000    0.0000 O   0  0  0  0  0  0  0  0  0  0  0  0
    0.0000    0.0000    0.0000 O   0  0  0  0  0  0  0  0  0  0  0  0
    0.0000    0.0000    0.0000 O   0  0  0  0  0  0  0  0  0  0  0  0
    0.0000    0.0000    0.0000 O   0  0  0  0  0  0  0  0  0  0  0  0
    0.0000    0.0000    0.0000 N   0  0  0  0  0  0  0  0  0  0  0  0
    0.0000    0.0000    0.0000 N   0  0  0  0  0  0  0  0  0  0  0  0
    0.0000    0.0000    0.0000 N   0  0  0  0  0  0  0  0  0  0  0  0
    0.0000    0.0000    0.0000 C   0  0  0  0  0  0  0  0  0  0  0  0
    0.0000    0.0000    0.0000 C   0  0  0  0  0  0  0  0  0  0  0  0
    0.0000    0.0000    0.0000 C   0  0  0  0  0  0  0  0  0  0  0  0
    0.0000    0.0000    0.0000 C   0  0  0  0  0  0  0  0  0  0  0  0
    0.0000    0.0000    0.0000 C   0  0  0  0  0  0  0  0  0  0  0  0
    0.0000    0.0000    0.0000 C   0  0  0  0  0  0  0  0  0  0  0  0
    0.0000    0.0000    0.0000 C   0  0  0  0  0  0  0  0  0  0  0  0
    0.0000    0.0000    0.0000 C   0  0  0  0  0  0  0  0  0  0  0  0
    0.0000    0.0000    0.0000 C   0  0  0  0  0  0  0  0  0  0  0  0
    0.0000    0.0000    0.0000 C   0  0  0  0  0  0  0  0  0  0  0  0
    0.0000    0.0000    0.0000 C   0  0  0  0  0  0  0  0  0  0  0  0
    0.0000    0.0000    0.0000 C   0  0  0  0  0  0  0  0  0  0  0  0
    0.0000    0.0000    0.0000 C   0  0  0  0  0  0  0  0  0  0  0  0
    0.0000    0.0000    0.0000 C   0  0  0  0  0  0  0  0  0  0  0  0
    0.0000    0.0000    0.0000 C   0  0  0  0  0  0  0  0  0  0  0  0
    0.0000    0.0000    0.0000 C   0  0  0  0  0  0  0  0  0  0  0  0
    0.0000    0.0000    0.0000 C   0  0  0  0  0  0  0  0  0  0  0  0
    0.0000    0.0000    0.0000 C   0  0  0  0  0  0  0  0  0  0  0  0
    0.0000    0.0000    0.0000 C   0  0  0  0  0  0  0  0  0  0  0  0
    0.0000    0.0000    0.0000 C   0  0  0  0  0  0  0  0  0  0  0  0
    0.0000    0.0000    0.0000 C   0  0  0  0  0  0  0  0  0  0  0  0
  1 12  1  0
  1 13  1  0
  2 16  2  0
  3 19  1  0
  3 22  1  0
  4 19  2  0
  5 20  2  0
  6 22  1  0
  6 29  1  0
  7 29  1  0
  7 31  1  0
  8 29  2  0
  9 12  1  0
  9 14  1  0
  9 16  1  0
 10 15  1  0
 10 20  1  0
 11 21  1  0
 12 15  1  0
 13 14  1  0
 13 17  1  0
 13 18  1  0
 14 19  1  0
 15 16  1  0
 20 21  1  0
 21 23  1  0
 22 24  1  0
 23 25  2  0
 23 26  1  0
 25 27  1  0
 26 28  2  0
 27 30  2  0
 28 30  1  0
 31 32  1  0
M  END
>  <PUBCHEM_COMPOUND_CID>  (1) 
2282

>  <PUBCHEM_CONFORMER_RMSD>  (1) 
1.4

>  <PUBCHEM_CONFORMER_DIVERSEORDER>  (1) 
11
237
243
54
257
213
322
221
271
282
84
50
94
41
127
162
212
290
108
119
170
74
37
28
311
314
190
112
319
62
79
115
137
200
45
226
166
267
309
198
98
12
259
23
66
13
279
120
318
230
141
313
150
43
71
33
19
184
183
91
124
65
268
195
185
9
177
101
229
159
156
5
312
201
272
228
251
292
197
10
288
17
281
299
307
206
25
111
121
143
254
167
14
233
305
30
102
78
252
217
218
72
142
301
321
208
244
161
140
223
187
131
280
47
234
249
247
323
199
138
178
83
304
245
261
306
274
289
22
42
114
6
219
294
169
220
8
97
285
38
293
188
81
297
265
180
155
256
130
298
3
105
235
262
129
287
35
182
216
24
296
315
153
87
255
139
136
214
203
316
264
302
149
317
205
283
99
132
295
4
250
286
56
118
227
1
310
80
76
36
44
21
59
73
34
224
52
15
51
95
26
207
253
300
134
165
122
128
58
63
70
239
160
75
176
172
236
106
107
175
152
49
77
61
93
303
258
68
189
135
194
168
148
46
88
48
291
278
60
164
273
284
100
16
29
85
57
240
64
157
173
126
163
276
308
27
320
69
125
181
248
18
266
154
158
89
179
32
90
123
82
151
241
270
20
192
275
246
269
67
193
96
260
86
31
215
117
186
145
53
40
210
147
109
146
55
116
104
232
225
7
202
110
39
113
133
238
171
209
191
2
196
174
277
211
231
144
242
222
263
204
92
103

>  <PUBCHEM_MMFF94_PARTIAL_CHARGES>  (1) 
36
1 -0.45
10 -0.65
11 -0.99
12 0.44
13 0.23
14 0.36
15 0.28
16 0.58
19 0.66
2 -0.57
20 0.57
21 0.47
22 0.56
23 -0.14
25 -0.15
26 -0.15
27 -0.15
28 -0.15
29 0.87
3 -0.43
30 -0.15
31 0.28
4 -0.57
42 0.37
45 0.36
46 0.36
5 -0.57
50 0.15
51 0.15
52 0.15
53 0.15
54 0.15
6 -0.43
7 -0.43
8 -0.57
9 -0.59

>  <PUBCHEM_EFFECTIVE_ROTOR_COUNT>  (1) 
11.8

>  <PUBCHEM_PHARMACOPHORE_FEATURES>  (1) 
10
1 10 donor
1 11 cation
1 11 donor
1 2 acceptor
1 4 acceptor
1 5 acceptor
3 13 17 18 hydrophobe
4 9 12 15 16 rings
6 23 25 26 27 28 30 rings
7 1 9 12 13 14 15 16 rings

>  <PUBCHEM_HEAVY_ATOM_COUNT>  (1) 
32

>  <PUBCHEM_ATOM_DEF_STEREO_COUNT>  (1) 
0

>  <PUBCHEM_ATOM_UDEF_STEREO_COUNT>  (1) 
5

>  <PUBCHEM_BOND_DEF_STEREO_COUNT>  (1) 
0

>  <PUBCHEM_BOND_UDEF_STEREO_COUNT>  (1) 
0

>  <PUBCHEM_ISOTOPIC_ATOM_COUNT>  (1) 
0

>  <PUBCHEM_COMPONENT_COUNT>  (1) 
1

>  <PUBCHEM_CACTVS_TAUTO_COUNT>  (1) 
2

$$$$
