22828
     RDKit          3D

 46 50  0  0  0  0  0  0  0  0999 V2000
    4.0888    1.6512   -0.2843 S   0  0  0  0  0  0  0  0  0  0  0  0
    9.2421    3.0496   -0.1354 S   0  0  0  0  0  0  0  0  0  0  0  0
    3.4406    1.4070    1.1923 O   0  0  0  0  0  0  0  0  0  0  0  0
    4.6873   -3.6612    0.1942 O   0  0  0  0  0  0  0  0  0  0  0  0
    9.4541    3.4955    1.4232 O   0  0  0  0  0  0  0  0  0  0  0  0
    4.1526    3.0850   -0.4980 O   0  0  0  0  0  0  0  0  0  0  0  0
    3.4212    0.7779   -1.2304 O   0  0  0  0  0  0  0  0  0  0  0  0
    8.6402    4.1665   -0.8467 O   0  0  0  0  0  0  0  0  0  0  0  0
   10.5000    2.4730   -0.5869 O   0  0  0  0  0  0  0  0  0  0  0  0
  -12.2142    1.5615   -0.2370 O   0  0  0  0  0  0  0  0  0  0  0  0
    3.8035   -1.1129   -0.0662 N   0  0  0  0  0  0  0  0  0  0  0  0
    3.2025   -2.0080    0.5698 N   0  0  0  0  0  0  0  0  0  0  0  0
   -6.4985   -0.5208    0.0719 N   0  0  0  0  0  0  0  0  0  0  0  0
   -6.7353    0.7052   -0.0319 N   0  0  0  0  0  0  0  0  0  0  0  0
    6.1345   -0.2783   -0.0155 C   0  0  0  0  0  0  0  0  0  0  0  0
    7.5111   -0.5919    0.0823 C   0  0  0  0  0  0  0  0  0  0  0  0
    5.7437    1.0640   -0.1489 C   0  0  0  0  0  0  0  0  0  0  0  0
    8.0502    1.7741   -0.0892 C   0  0  0  0  0  0  0  0  0  0  0  0
    5.1893   -1.3162    0.0229 C   0  0  0  0  0  0  0  0  0  0  0  0
    8.4564    0.4461    0.0438 C   0  0  0  0  0  0  0  0  0  0  0  0
    6.6965    2.0825   -0.1853 C   0  0  0  0  0  0  0  0  0  0  0  0
    7.9019   -1.9342    0.2157 C   0  0  0  0  0  0  0  0  0  0  0  0
    5.5954   -2.6443    0.1558 C   0  0  0  0  0  0  0  0  0  0  0  0
    6.9491   -2.9527    0.2521 C   0  0  0  0  0  0  0  0  0  0  0  0
   -0.9340   -1.3813    0.3377 C   0  0  0  0  0  0  0  0  0  0  0  0
   -2.3623   -1.1616    0.2641 C   0  0  0  0  0  0  0  0  0  0  0  0
    1.0784   -2.3803   -0.5508 C   0  0  0  0  0  0  0  0  0  0  0  0
    1.8147   -1.8046    0.4811 C   0  0  0  0  0  0  0  0  0  0  0  0
   -0.2984   -2.1683   -0.6228 C   0  0  0  0  0  0  0  0  0  0  0  0
   -0.1928   -0.8064    1.3700 C   0  0  0  0  0  0  0  0  0  0  0  0
    1.1839   -1.0184    1.4418 C   0  0  0  0  0  0  0  0  0  0  0  0
   -3.0044   -1.1537   -0.9741 C   0  0  0  0  0  0  0  0  0  0  0  0
   -4.3812   -0.9411   -1.0445 C   0  0  0  0  0  0  0  0  0  0  0  0
   -3.0968   -0.9569    1.4320 C   0  0  0  0  0  0  0  0  0  0  0  0
   -5.1158   -0.7364    0.1234 C   0  0  0  0  0  0  0  0  0  0  0  0
    1.7372   -3.2281   -1.5895 C   0  0  0  0  0  0  0  0  0  0  0  0
   -4.4736   -0.7444    1.3616 C   0  0  0  0  0  0  0  0  0  0  0  0
   -5.0470   -0.9351   -2.3817 C   0  0  0  0  0  0  0  0  0  0  0  0
   -8.1229    0.9220   -0.0839 C   0  0  0  0  0  0  0  0  0  0  0  0
   -8.8345    1.1247    1.0944 C   0  0  0  0  0  0  0  0  0  0  0  0
   -8.7746    0.9328   -1.3133 C   0  0  0  0  0  0  0  0  0  0  0  0
  -10.8702    1.3524   -0.1867 C   0  0  0  0  0  0  0  0  0  0  0  0
  -10.2116    1.3404    1.0429 C   0  0  0  0  0  0  0  0  0  0  0  0
  -10.1517    1.1486   -1.3647 C   0  0  0  0  0  0  0  0  0  0  0  0
  -12.9821    1.1223    0.8825 C   0  0  0  0  0  0  0  0  0  0  0  0
  -14.3734    0.7550    0.4125 C   0  0  0  0  0  0  0  0  0  0  0  0
  1  3  1  0
  1  6  2  0
  1  7  2  0
  1 17  1  0
  2  5  1  0
  2  8  2  0
  2  9  2  0
  2 18  1  0
  4 23  1  0
 10 42  1  0
 10 45  1  0
 11 12  2  0
 11 19  1  0
 12 28  1  0
 13 14  2  0
 13 35  1  0
 14 39  1  0
 15 16  1  0
 15 17  2  0
 15 19  1  0
 16 20  2  0
 16 22  1  0
 17 21  1  0
 18 20  1  0
 18 21  2  0
 19 23  2  0
 22 24  2  0
 23 24  1  0
 25 26  1  0
 25 29  2  0
 25 30  1  0
 26 32  2  0
 26 34  1  0
 27 28  2  0
 27 29  1  0
 27 36  1  0
 28 31  1  0
 30 31  2  0
 32 33  1  0
 33 35  2  0
 33 38  1  0
 34 37  2  0
 35 37  1  0
 39 40  2  0
 39 41  1  0
 40 43  1  0
 41 44  2  0
 42 43  2  0
 42 44  1  0
 45 46  1  0
M  END
>  <PUBCHEM_COMPOUND_CID>  (1) 
22828

>  <PUBCHEM_CONFORMER_RMSD>  (1) 
1.2

>  <PUBCHEM_CONFORMER_DIVERSEORDER>  (1) 
1
6
5
3
2
4

>  <PUBCHEM_MMFF94_PARTIAL_CHARGES>  (1) 
58
1 1.49
10 -0.36
11 -0.18
12 -0.18
13 -0.18
14 -0.18
17 -0.01
18 -0.01
19 0.18
2 1.49
20 -0.15
21 -0.15
22 -0.15
23 0.08
24 -0.15
27 -0.14
28 0.18
29 -0.15
3 -0.68
30 -0.15
31 -0.15
32 -0.15
33 -0.14
34 -0.15
35 0.18
36 0.14
37 -0.15
38 0.14
39 0.18
4 -0.53
40 -0.15
41 -0.15
42 0.08
43 -0.15
44 -0.15
45 0.28
47 0.15
48 0.15
49 0.15
5 -0.68
50 0.15
51 0.15
52 0.15
53 0.15
54 0.15
55 0.15
59 0.15
6 -0.65
60 0.5
61 0.45
62 0.5
66 0.15
67 0.15
68 0.15
69 0.15
7 -0.65
8 -0.65
9 -0.65

>  <PUBCHEM_EFFECTIVE_ROTOR_COUNT>  (1) 
9

>  <PUBCHEM_PHARMACOPHORE_FEATURES>  (1) 
15
1 10 acceptor
1 3 acceptor
1 4 donor
1 5 acceptor
1 6 acceptor
1 7 acceptor
1 8 acceptor
1 9 acceptor
4 1 3 6 7 anion
4 2 5 8 9 anion
6 15 16 17 18 20 21 rings
6 15 16 19 22 23 24 rings
6 25 27 28 29 30 31 rings
6 26 32 33 34 35 37 rings
6 39 40 41 42 43 44 rings

>  <PUBCHEM_HEAVY_ATOM_COUNT>  (1) 
46

>  <PUBCHEM_ATOM_DEF_STEREO_COUNT>  (1) 
0

>  <PUBCHEM_ATOM_UDEF_STEREO_COUNT>  (1) 
0

>  <PUBCHEM_BOND_DEF_STEREO_COUNT>  (1) 
0

>  <PUBCHEM_BOND_UDEF_STEREO_COUNT>  (1) 
0

>  <PUBCHEM_ISOTOPIC_ATOM_COUNT>  (1) 
0

>  <PUBCHEM_COMPONENT_COUNT>  (1) 
1

>  <PUBCHEM_CACTVS_TAUTO_COUNT>  (1) 
3

>  <PUBCHEM_CONFORMER_ID>  (1) 
0000592C00000001

>  <PUBCHEM_MMFF94_ENERGY>  (1) 
159.6896

>  <PUBCHEM_FEATURE_SELFOVERLAP>  (1) 
76.266

>  <PUBCHEM_SHAPE_FINGERPRINT>  (1) 
10533779 47 15864058850818777024
11408170 108 10519988179947650685
11421887 21 18201729448929033224
11607047 141 17386275499422272850
12098696 120 17603863391059317525
12125137 17 18059862740799171497
12559415 43 17603580808361054749
12664476 115 17749388144283281879
131240 100 18187369831892020147
13553643 46 18337107870350142285
13740195 50 18113624478873628531
14040221 8 17632577107549478409
14344974 52 18333450938094843715
1577012 14 18273212036681442558
15840311 113 18335704923329626974
16087824 20 18408605890637587924
16728433 110 18335421228540060941
19315958 150 18333452058411148164
20105231 36 8862681114100308344
20587220 17 18202563991550328412
20812841 46 18114462279967346010
21033648 29 17385443254550126802
21362267 2 18261380140647531517
23378982 100 15068610557717306031
3092352 35 18201153275251277391
44280117 145 18117281557168663507
45270241 37 18413110533488564742
4625314 4 18409730669178300819
59521506 201 17700683229082383296

>  <PUBCHEM_SHAPE_MULTIPOLES>  (1) 
887.48
48.76
3.81
1.32
125.54
1.07
0.21
43.96
-1.78
-13.1
0.42
1.82
-0.15
-0.97

>  <PUBCHEM_SHAPE_SELFOVERLAP>  (1) 
1940.271

>  <PUBCHEM_SHAPE_VOLUME>  (1) 
483.8

>  <PUBCHEM_COORDINATE_TYPE>  (1) 
2
5
10

$$$$
