22834
     RDKit          3D

 28 30  0  0  0  0  0  0  0  0999 V2000
   -2.3577   -3.1888    0.2008 O   0  0  0  0  0  0  0  0  0  0  0  0
   -2.1911   -0.4963   -0.5649 N   0  0  0  0  0  0  0  0  0  0  0  0
   -2.5233    0.0603    0.5074 N   0  0  0  0  0  0  0  0  0  0  0  0
    2.6274   -0.8632   -0.5406 N   0  0  0  0  0  0  0  0  0  0  0  0
    3.0325   -0.3632    0.5351 N   0  0  0  0  0  0  0  0  0  0  0  0
   -5.1044   -1.0638    0.8734 N   0  0  0  0  0  0  0  0  0  0  0  0
    3.2715    2.3581   -0.2378 N   0  0  0  0  0  0  0  0  0  0  0  0
   -7.0868    3.2062   -0.2974 N   0  0  0  0  0  0  0  0  0  0  0  0
    8.1013    1.9073   -0.1871 N   0  0  0  0  0  0  0  0  0  0  0  0
   -1.0400   -1.2677   -0.3650 C   0  0  0  0  0  0  0  0  0  0  0  0
    1.3696   -1.4451   -0.3541 C   0  0  0  0  0  0  0  0  0  0  0  0
   -1.1400   -2.6058    0.0165 C   0  0  0  0  0  0  0  0  0  0  0  0
   -3.6786    0.8351    0.3070 C   0  0  0  0  0  0  0  0  0  0  0  0
    0.2149   -0.6874   -0.5503 C   0  0  0  0  0  0  0  0  0  0  0  0
    4.2967    0.2213    0.3471 C   0  0  0  0  0  0  0  0  0  0  0  0
   -4.9457    0.2859    0.4874 C   0  0  0  0  0  0  0  0  0  0  0  0
    4.4161    1.5564   -0.0307 C   0  0  0  0  0  0  0  0  0  0  0  0
    1.2696   -2.7830    0.0274 C   0  0  0  0  0  0  0  0  0  0  0  0
    0.0148   -3.3633    0.2126 C   0  0  0  0  0  0  0  0  0  0  0  0
   -5.9411    2.4090   -0.0947 C   0  0  0  0  0  0  0  0  0  0  0  0
   -6.0787    1.0741    0.2861 C   0  0  0  0  0  0  0  0  0  0  0  0
    6.8224    1.3403   -0.0079 C   0  0  0  0  0  0  0  0  0  0  0  0
   -3.5373    2.1675   -0.0730 C   0  0  0  0  0  0  0  0  0  0  0  0
    5.6811    2.1168   -0.2086 C   0  0  0  0  0  0  0  0  0  0  0  0
    5.4340   -0.5569    0.5485 C   0  0  0  0  0  0  0  0  0  0  0  0
   -4.6704    2.9556   -0.2742 C   0  0  0  0  0  0  0  0  0  0  0  0
    6.6987    0.0035    0.3706 C   0  0  0  0  0  0  0  0  0  0  0  0
   -2.9554   -3.8129   -0.9336 C   0  0  0  0  0  0  0  0  0  0  0  0
  1 12  1  0
  1 28  1  0
  2  3  2  0
  2 10  1  0
  3 13  1  0
  4  5  2  0
  4 11  1  0
  5 15  1  0
  6 16  1  0
  7 17  1  0
  8 20  1  0
  9 22  1  0
 10 12  2  0
 10 14  1  0
 11 14  2  0
 11 18  1  0
 12 19  1  0
 13 16  2  0
 13 23  1  0
 15 17  2  0
 15 25  1  0
 16 21  1  0
 17 24  1  0
 18 19  2  0
 20 21  2  0
 20 26  1  0
 22 24  2  0
 22 27  1  0
 23 26  2  0
 25 27  2  0
M  END
>  <PUBCHEM_COMPOUND_CID>  (1) 
22834

>  <PUBCHEM_CONFORMER_RMSD>  (1) 
0.8

>  <PUBCHEM_CONFORMER_DIVERSEORDER>  (1) 
1
26
18
29
48
47
45
33
39
35
22
41
46
14
21
27
40
15
23
32
11
50
37
17
42
52
36
24
28
12
10
2
44
6
9
34
3
8
31
49
25
30
7
20
43
4
5
38
51
13
19
16

>  <PUBCHEM_MMFF94_PARTIAL_CHARGES>  (1) 
45
1 -0.36
10 0.18
11 0.18
12 0.08
13 0.18
14 -0.15
15 0.18
16 0.1
17 0.1
18 -0.15
19 -0.15
2 -0.18
20 0.1
21 -0.15
22 0.1
23 -0.15
24 -0.15
25 -0.15
26 -0.15
27 -0.15
28 0.28
29 0.15
3 -0.18
30 0.15
31 0.15
32 0.15
33 0.15
34 0.15
35 0.15
36 0.15
37 0.15
38 0.4
39 0.4
4 -0.18
40 0.4
41 0.4
42 0.4
43 0.4
44 0.4
45 0.4
5 -0.18
6 -0.9
7 -0.9
8 -0.9
9 -0.9

>  <PUBCHEM_EFFECTIVE_ROTOR_COUNT>  (1) 
5

>  <PUBCHEM_PHARMACOPHORE_FEATURES>  (1) 
12
1 1 acceptor
1 6 cation
1 6 donor
1 7 cation
1 7 donor
1 8 cation
1 8 donor
1 9 cation
1 9 donor
6 10 11 12 14 18 19 rings
6 13 16 20 21 23 26 rings
6 15 17 22 24 25 27 rings

>  <PUBCHEM_HEAVY_ATOM_COUNT>  (1) 
28

>  <PUBCHEM_ATOM_DEF_STEREO_COUNT>  (1) 
0

>  <PUBCHEM_ATOM_UDEF_STEREO_COUNT>  (1) 
0

>  <PUBCHEM_BOND_DEF_STEREO_COUNT>  (1) 
0

>  <PUBCHEM_BOND_UDEF_STEREO_COUNT>  (1) 
0

>  <PUBCHEM_ISOTOPIC_ATOM_COUNT>  (1) 
0

>  <PUBCHEM_COMPONENT_COUNT>  (1) 
1

>  <PUBCHEM_CACTVS_TAUTO_COUNT>  (1) 
144

>  <PUBCHEM_CONFORMER_ID>  (1) 
0000593200000001

>  <PUBCHEM_MMFF94_ENERGY>  (1) 
131.0959

>  <PUBCHEM_FEATURE_SELFOVERLAP>  (1) 
60.898

>  <PUBCHEM_SHAPE_FINGERPRINT>  (1) 
10 15 18261397758048705363
10050765 1 18411136922416377246
100830 39 18410575119054478904
10411042 1 17763181741399278135
10835480 77 18191302673005000333
11135609 127 17976529513348108221
12107183 9 18263915563216760042
12925494 130 18411412951547649200
13248334 5 17907016179989128783
13402501 40 18410292488795622616
13540713 4 18268449991223147207
13785724 45 17761488098381808146
13911987 19 17632010858950416193
14257110 125 18411136922346765993
14931854 50 17775288214191016576
15604295 49 17984699185464398712
15778101 99 18411701015241497078
15890870 6 18410573963730044316
19611394 137 17969798547600953499
20715895 44 18412263900559613808
21133410 38 17842285766035737937
21236236 1 18340767164446537655
21298829 104 18269840830857020825
21756936 100 18342451564778374159
23559900 14 17690559681473766827
2838139 119 18343577473443637964
312425 54 16805325478773770512
3411729 13 18335420102262299090
3627633 1 17834394896830894414
5104073 3 18044385933432281259
5171179 24 17557412490724182691
563151 97 18411693309754638239
59682541 52 16845017788870912238
5969126 39 17985821764902488215
6327066 14 18411134710686444213
636775 72 18197211663008950944
7288768 16 18113618984545158291
7808743 9 18411133653771165467
9981440 41 18260840284833123827

>  <PUBCHEM_SHAPE_MULTIPOLES>  (1) 
530.51
19.62
4.41
0.75
14.31
2.18
0.01
-21.01
-1.24
-4.81
0.66
-0.17
0.16
-0.24

>  <PUBCHEM_SHAPE_SELFOVERLAP>  (1) 
1154.044

>  <PUBCHEM_SHAPE_VOLUME>  (1) 
289.7

>  <PUBCHEM_COORDINATE_TYPE>  (1) 
2
5
10

$$$$
