22837
     RDKit          3D

 25 27  0  0  0  0  0  0  0  0999 V2000
    2.9115   -1.0980   -0.3790 N   0  0  0  0  0  0  0  0  0  0  0  0
   -5.7514    0.0003   -0.0851 N   0  0  0  0  0  0  0  0  0  0  0  0
    2.9987    1.2227   -0.0022 C   0  0  0  0  0  0  0  0  0  0  0  0
    4.3678    0.6140    0.0791 C   0  0  0  0  0  0  0  0  0  0  0  0
    2.1603   -0.0385   -0.3096 C   0  0  0  0  0  0  0  0  0  0  0  0
    4.2599   -0.7542   -0.1501 C   0  0  0  0  0  0  0  0  0  0  0  0
    2.5855    1.8457    1.3335 C   0  0  0  0  0  0  0  0  0  0  0  0
    2.9062    2.2364   -1.1453 C   0  0  0  0  0  0  0  0  0  0  0  0
    5.5990    1.1970    0.3293 C   0  0  0  0  0  0  0  0  0  0  0  0
    0.7064    0.0189   -0.4899 C   0  0  0  0  0  0  0  0  0  0  0  0
    5.3674   -1.5868   -0.1389 C   0  0  0  0  0  0  0  0  0  0  0  0
    2.5533   -2.5002   -0.6450 C   0  0  0  0  0  0  0  0  0  0  0  0
    6.7282    0.3749    0.3451 C   0  0  0  0  0  0  0  0  0  0  0  0
    6.6130   -1.0057    0.1126 C   0  0  0  0  0  0  0  0  0  0  0  0
   -0.1320   -0.1427    0.5251 C   0  0  0  0  0  0  0  0  0  0  0  0
   -1.5564   -0.1072    0.3700 C   0  0  0  0  0  0  0  0  0  0  0  0
   -4.3500   -0.0351    0.0670 C   0  0  0  0  0  0  0  0  0  0  0  0
   -2.1484   -0.3141   -0.8879 C   0  0  0  0  0  0  0  0  0  0  0  0
   -2.3928    0.1364    1.4731 C   0  0  0  0  0  0  0  0  0  0  0  0
   -3.5346   -0.2783   -1.0383 C   0  0  0  0  0  0  0  0  0  0  0  0
   -3.7791    0.1722    1.3227 C   0  0  0  0  0  0  0  0  0  0  0  0
   -6.3544   -0.2149   -1.3855 C   0  0  0  0  0  0  0  0  0  0  0  0
   -6.6083    0.2383    1.0595 C   0  0  0  0  0  0  0  0  0  0  0  0
   -6.3290    1.0316   -2.2092 C   0  0  0  0  0  0  0  0  0  0  0  0
   -6.8207   -1.0127    1.8488 C   0  0  0  0  0  0  0  0  0  0  0  0
  1  5  2  0
  1  6  1  0
  1 12  1  0
  2 17  1  0
  2 22  1  0
  2 23  1  0
  3  4  1  0
  3  5  1  0
  3  7  1  0
  3  8  1  0
  4  6  2  0
  4  9  1  0
  5 10  1  0
  6 11  1  0
  9 13  2  0
 10 15  2  0
 11 14  2  0
 13 14  1  0
 15 16  1  0
 16 18  2  0
 16 19  1  0
 17 20  2  0
 17 21  1  0
 18 20  1  0
 19 21  2  0
 22 24  1  0
 23 25  1  0
M  CHG  1   1   1
M  END
>  <PUBCHEM_COMPOUND_CID>  (1) 
22837

>  <PUBCHEM_CONFORMER_RMSD>  (1) 
0.8

>  <PUBCHEM_CONFORMER_DIVERSEORDER>  (1) 
3
10
9
4
6
7
1
8
2
5

>  <PUBCHEM_MMFF94_PARTIAL_CHARGES>  (1) 
31
1 -0.04
10 -0.14
11 -0.15
12 0.35
13 -0.15
14 -0.15
15 -0.18
16 0.03
17 0.1
18 -0.15
19 -0.15
2 -0.84
20 -0.15
21 -0.15
22 0.37
23 0.37
3 0.2
32 0.15
33 0.15
34 0.15
38 0.15
39 0.15
4 -0.14
40 0.15
41 0.15
42 0.15
43 0.15
44 0.15
5 0.32
6 0.3
9 -0.15

>  <PUBCHEM_EFFECTIVE_ROTOR_COUNT>  (1) 
5.2

>  <PUBCHEM_PHARMACOPHORE_FEATURES>  (1) 
5
1 2 cation
3 3 7 8 hydrophobe
5 1 3 4 5 6 rings
6 16 17 18 19 20 21 rings
6 4 6 9 11 13 14 rings

>  <PUBCHEM_HEAVY_ATOM_COUNT>  (1) 
25

>  <PUBCHEM_ATOM_DEF_STEREO_COUNT>  (1) 
0

>  <PUBCHEM_ATOM_UDEF_STEREO_COUNT>  (1) 
0

>  <PUBCHEM_BOND_DEF_STEREO_COUNT>  (1) 
0

>  <PUBCHEM_BOND_UDEF_STEREO_COUNT>  (1) 
1

>  <PUBCHEM_ISOTOPIC_ATOM_COUNT>  (1) 
0

>  <PUBCHEM_COMPONENT_COUNT>  (1) 
1

>  <PUBCHEM_CACTVS_TAUTO_COUNT>  (1) 
1

>  <PUBCHEM_CONFORMER_ID>  (1) 
0000593500000003

>  <PUBCHEM_MMFF94_ENERGY>  (1) 
98.3096

>  <PUBCHEM_FEATURE_SELFOVERLAP>  (1) 
25.462

>  <PUBCHEM_SHAPE_FINGERPRINT>  (1) 
10162869 55 18272926159626542863
10299344 5 17346881152427660015
10688039 33 18260549996436120516
11089746 13 17417809565003264689
11315181 36 15697996349906320155
11524674 6 17967818266903796739
11545043 162 17095533923604406393
11796584 16 16226053288750617186
12166972 35 18131069350690469216
12236239 1 17632858620273636631
12516196 113 17530685415699136116
12616971 3 17846501452392380445
13533116 47 17917712366658462530
13685833 64 18186805777003173770
13782708 43 17603875545690347283
14170010 4 18411418427979091504
14251764 18 17704071810877342064
14849402 71 17988640865481839952
15183329 4 18059850662833994709
15419008 47 17822005411341847933
1577012 14 17418376899859695997
17844677 252 17240771700763437909
17857418 61 17775566437919064697
18681886 176 15841544206465696098
19377110 9 17418105286465780395
19489759 90 16660363684689143521
20511986 3 17632002087820076253
21033648 29 17968363628448915740
21033650 10 16414106060609587048
21267235 1 18271533001301140406
21315763 178 17346599647475823167
21623969 137 18409457980976430995
22224240 67 18201994444194915082
23081809 10 17275102830095517303
23522609 53 16701477774088564177
23559900 14 18271238430225183753
335352 9 18272937129579613422
34797466 226 16370734729778776982
3633792 109 18200588099802527503
397830 11 17823989029070279121
4015057 19 18341891961363988993
4073 2 18336267950260312562
4340502 62 18410580590927846562
46194498 28 18040155128252094788
59755656 215 17313099730963039579
59755656 520 18411417336978712279
67856867 119 17346027986880527976

>  <PUBCHEM_SHAPE_MULTIPOLES>  (1) 
504.53
20.3
1.65
1.5
12.6
0.05
-0.05
1.22
0.48
-2.55
-0.26
3.19
-0.26
1.34

>  <PUBCHEM_SHAPE_SELFOVERLAP>  (1) 
1078.635

>  <PUBCHEM_SHAPE_VOLUME>  (1) 
284

>  <PUBCHEM_COORDINATE_TYPE>  (1) 
2
5
10

$$$$
