22843
     RDKit          3D

 31 33  0  0  1  0  0  0  0  0999 V2000
    4.0976    2.9859    0.0125 Cl  0  0  0  0  0  0  0  0  0  0  0  0
    3.9430   -3.2557    0.0598 Cl  0  0  0  0  0  0  0  0  0  0  0  0
    6.7657   -1.6785    0.1318 S   0  0  0  0  0  0  0  0  0  0  0  0
   -7.3245   -1.7455    0.4075 S   0  0  0  0  0  0  0  0  0  0  0  0
    0.6241    0.4860   -2.0649 O   0  0  0  0  0  0  0  0  0  0  0  0
    6.8551   -2.3501    1.6172 O   0  0  0  0  0  0  0  0  0  0  0  0
    6.6955   -2.7670   -0.8292 O   0  0  0  0  0  0  0  0  0  0  0  0
    7.7976   -0.6603    0.0363 O   0  0  0  0  0  0  0  0  0  0  0  0
   -6.7818   -2.8625    1.4703 O   0  0  0  0  0  0  0  0  0  0  0  0
   -8.2837   -0.9121    1.1178 O   0  0  0  0  0  0  0  0  0  0  0  0
   -7.7026   -2.4398   -0.8138 O   0  0  0  0  0  0  0  0  0  0  0  0
    1.6130    1.2454   -0.0480 N   0  0  0  0  0  0  0  0  0  0  0  0
    1.2738    2.0964    0.9818 N   0  0  0  0  0  0  0  0  0  0  0  0
   -1.6330    1.2721   -0.2869 N   0  0  0  0  0  0  0  0  0  0  0  0
   -2.6446    1.6670   -0.9120 N   0  0  0  0  0  0  0  0  0  0  0  0
   -0.4609    2.0778   -0.5795 C   0  0  0  0  0  0  0  0  0  0  0  0
    0.1053    2.5819    0.7044 C   0  0  0  0  0  0  0  0  0  0  0  0
    0.6298    1.1595   -1.0481 C   0  0  0  0  0  0  0  0  0  0  0  0
    2.8234    0.5723   -0.0056 C   0  0  0  0  0  0  0  0  0  0  0  0
    4.0369    1.2594    0.0250 C   0  0  0  0  0  0  0  0  0  0  0  0
    2.8112   -0.8224    0.0056 C   0  0  0  0  0  0  0  0  0  0  0  0
   -0.6145    3.5593    1.5679 C   0  0  0  0  0  0  0  0  0  0  0  0
    5.2261   -0.8431    0.0785 C   0  0  0  0  0  0  0  0  0  0  0  0
    4.0125   -1.5301    0.0477 C   0  0  0  0  0  0  0  0  0  0  0  0
    5.2384    0.5518    0.0673 C   0  0  0  0  0  0  0  0  0  0  0  0
   -3.7516    0.8600   -0.6003 C   0  0  0  0  0  0  0  0  0  0  0  0
   -5.9494   -0.7425    0.0193 C   0  0  0  0  0  0  0  0  0  0  0  0
   -4.5799    1.1957    0.4708 C   0  0  0  0  0  0  0  0  0  0  0  0
   -4.0224   -0.2771   -1.3617 C   0  0  0  0  0  0  0  0  0  0  0  0
   -5.6787    0.3945    0.7805 C   0  0  0  0  0  0  0  0  0  0  0  0
   -5.1213   -1.0783   -1.0519 C   0  0  0  0  0  0  0  0  0  0  0  0
  1 20  1  0
  2 24  1  0
  3  6  1  0
  3  7  2  0
  3  8  2  0
  3 23  1  0
  4  9  1  0
  4 10  2  0
  4 11  2  0
  4 27  1  0
  5 18  2  0
 12 13  1  0
 12 18  1  0
 12 19  1  0
 13 17  2  0
 14 15  2  0
 14 16  1  0
 15 26  1  0
 16 17  1  0
 16 18  1  0
 17 22  1  0
 19 20  2  0
 19 21  1  0
 20 25  1  0
 21 24  2  0
 23 24  1  0
 23 25  2  0
 26 28  2  0
 26 29  1  0
 27 30  2  0
 27 31  1  0
 28 30  1  0
 29 31  2  0
M  END
>  <PUBCHEM_COMPOUND_CID>  (1) 
22843

>  <PUBCHEM_CONFORMER_RMSD>  (1) 
0.8

>  <PUBCHEM_CONFORMER_DIVERSEORDER>  (1) 
1
15
12
22
17
2
4
13
25
7
8
14
5
11
19
3
27
18
21
9
23
16
6
10
20
26
24

>  <PUBCHEM_MMFF94_PARTIAL_CHARGES>  (1) 
39
1 -0.18
10 -0.65
11 -0.65
12 -0.11
13 -0.51
14 -0.25
15 -0.18
16 0.37
17 0.33
18 0.57
19 0.12
2 -0.18
20 0.18
21 -0.15
22 0.06
23 -0.01
24 0.18
25 -0.15
26 0.18
27 -0.01
28 -0.15
29 -0.15
3 1.49
30 -0.15
31 -0.15
33 0.15
37 0.15
38 0.15
39 0.15
4 1.49
40 0.15
41 0.15
42 0.5
43 0.5
5 -0.57
6 -0.68
7 -0.65
8 -0.65
9 -0.68

>  <PUBCHEM_EFFECTIVE_ROTOR_COUNT>  (1) 
5.4

>  <PUBCHEM_PHARMACOPHORE_FEATURES>  (1) 
13
1 10 acceptor
1 11 acceptor
1 13 acceptor
1 5 acceptor
1 6 acceptor
1 7 acceptor
1 8 acceptor
1 9 acceptor
4 3 6 7 8 anion
4 4 9 10 11 anion
5 12 13 16 17 18 rings
6 19 20 21 23 24 25 rings
6 26 27 28 29 30 31 rings

>  <PUBCHEM_HEAVY_ATOM_COUNT>  (1) 
31

>  <PUBCHEM_ATOM_DEF_STEREO_COUNT>  (1) 
0

>  <PUBCHEM_ATOM_UDEF_STEREO_COUNT>  (1) 
1

>  <PUBCHEM_BOND_DEF_STEREO_COUNT>  (1) 
0

>  <PUBCHEM_BOND_UDEF_STEREO_COUNT>  (1) 
0

>  <PUBCHEM_ISOTOPIC_ATOM_COUNT>  (1) 
0

>  <PUBCHEM_COMPONENT_COUNT>  (1) 
1

>  <PUBCHEM_CACTVS_TAUTO_COUNT>  (1) 
4

>  <PUBCHEM_CONFORMER_ID>  (1) 
0000593B00000001

>  <PUBCHEM_MMFF94_ENERGY>  (1) 
82.1847

>  <PUBCHEM_FEATURE_SELFOVERLAP>  (1) 
66.092

>  <PUBCHEM_SHAPE_FINGERPRINT>  (1) 
11135609 99 18408887360607012486
11409948 8 18340195376821227448
117089 54 18410863148605652467
11796584 16 18115296766395870005
12166972 35 18259707808603376341
13668630 136 17458343087569087243
13673619 4 18334293176048059973
13685833 64 18408323298140516449
13782708 43 17967807198814531500
15183329 4 12540691518435515111
15352257 5 18333733528966589651
15510800 12 18041006158678449675
15803439 3 14417855834505414857
17492 89 18268710507175080308
17627616 140 17313653864082306811
18335252 98 18411136948986929884
19246450 95 17845947226166215409
20028762 73 18342455907512965422
20105231 36 17846503608972619534
2026 5 17895187758023961275
21049683 271 18408044018610409180
21197605 99 18411699894334751742
21267235 1 18342459219074558404
21344244 181 17967534600976300371
21987483 16 17270306945824364663
22149856 69 18341899588429698464
23522609 53 18194715659153932900
23559900 14 18337662049758740584
23569917 315 18265616482336623570
25269216 80 15791734092877709039
2747138 104 18202280265409218266
3383291 50 18408601483178528099
34797466 226 16950844820582060581
3552219 110 17489593376963339928
439807 62 18334013891530582487
4461854 278 17775566442668636126
44880568 143 17022896839536057269
46194498 28 17458900565180845125
465052 167 18273496775706541828
474113 269 18272639183250680111
5104073 3 17989487428936394001
54039377 194 18412829066916548782
5718773 13 18408602569815049411
58083652 198 17988346148725393921
6009941 240 18336543799336274053
636775 8 18341621357134361302
999808 66 18334581261343344907

>  <PUBCHEM_SHAPE_MULTIPOLES>  (1) 
588.39
23.21
3.8
1.24
17.36
0.15
0.03
-23.41
-4.33
-2.06
-1.07
0.92
0.03
0.09

>  <PUBCHEM_SHAPE_SELFOVERLAP>  (1) 
1231.112

>  <PUBCHEM_SHAPE_VOLUME>  (1) 
335.7

>  <PUBCHEM_COORDINATE_TYPE>  (1) 
2
5
10

$$$$
