22841
     RDKit          3D

 26 28  0  0  1  0  0  0  0  0999 V2000
    2.6498   -3.5615   -0.3696 Cl  0  0  0  0  0  0  0  0  0  0  0  0
    4.2655    2.4869   -0.1960 S   0  0  0  0  0  0  0  0  0  0  0  0
    0.0633    0.4651    1.7097 O   0  0  0  0  0  0  0  0  0  0  0  0
    4.7157    2.7906    1.3456 O   0  0  0  0  0  0  0  0  0  0  0  0
    5.4541    2.6323   -1.0237 O   0  0  0  0  0  0  0  0  0  0  0  0
    3.0670    3.2641   -0.4713 O   0  0  0  0  0  0  0  0  0  0  0  0
    0.7909   -1.2400    0.2313 N   0  0  0  0  0  0  0  0  0  0  0  0
    0.2412   -2.3487   -0.3756 N   0  0  0  0  0  0  0  0  0  0  0  0
   -2.3778   -0.4987    0.3004 N   0  0  0  0  0  0  0  0  0  0  0  0
   -3.4232   -0.3854    0.9818 N   0  0  0  0  0  0  0  0  0  0  0  0
   -1.3874   -1.3355    0.9541 C   0  0  0  0  0  0  0  0  0  0  0  0
   -0.9904   -2.4263    0.0184 C   0  0  0  0  0  0  0  0  0  0  0  0
   -0.1119   -0.5515    1.0590 C   0  0  0  0  0  0  0  0  0  0  0  0
    2.1118   -0.9080   -0.0234 C   0  0  0  0  0  0  0  0  0  0  0  0
    2.4812    0.4366    0.0132 C   0  0  0  0  0  0  0  0  0  0  0  0
    3.8030    0.8039   -0.2395 C   0  0  0  0  0  0  0  0  0  0  0  0
    3.0643   -1.8852   -0.3127 C   0  0  0  0  0  0  0  0  0  0  0  0
   -1.9316   -3.5010   -0.4039 C   0  0  0  0  0  0  0  0  0  0  0  0
    4.7553   -0.1734   -0.5288 C   0  0  0  0  0  0  0  0  0  0  0  0
    4.3860   -1.5179   -0.5653 C   0  0  0  0  0  0  0  0  0  0  0  0
   -4.3504    0.4314    0.3132 C   0  0  0  0  0  0  0  0  0  0  0  0
   -5.2729   -0.1358   -0.5661 C   0  0  0  0  0  0  0  0  0  0  0  0
   -4.3489    1.8096    0.5288 C   0  0  0  0  0  0  0  0  0  0  0  0
   -6.1935    0.6749   -1.2299 C   0  0  0  0  0  0  0  0  0  0  0  0
   -5.2695    2.6204   -0.1352 C   0  0  0  0  0  0  0  0  0  0  0  0
   -6.1919    2.0529   -1.0145 C   0  0  0  0  0  0  0  0  0  0  0  0
  1 17  1  0
  2  4  1  0
  2  5  2  0
  2  6  2  0
  2 16  1  0
  3 13  2  0
  7  8  1  0
  7 13  1  0
  7 14  1  0
  8 12  2  0
  9 10  2  0
  9 11  1  0
 10 21  1  0
 11 12  1  0
 11 13  1  0
 12 18  1  0
 14 15  2  0
 14 17  1  0
 15 16  1  0
 16 19  2  0
 17 20  2  0
 19 20  1  0
 21 22  2  0
 21 23  1  0
 22 24  1  0
 23 25  2  0
 24 26  2  0
 25 26  1  0
M  END
>  <PUBCHEM_COMPOUND_CID>  (1) 
22841

>  <PUBCHEM_CONFORMER_RMSD>  (1) 
0.8

>  <PUBCHEM_CONFORMER_DIVERSEORDER>  (1) 
1
20
10
18
6
19
25
16
4
26
7
11
2
21
28
8
3
17
12
9
23
13
27
24
14
22
15
5

>  <PUBCHEM_MMFF94_PARTIAL_CHARGES>  (1) 
35
1 -0.18
10 -0.18
11 0.37
12 0.33
13 0.57
14 0.12
15 -0.15
16 -0.01
17 0.18
18 0.06
19 -0.15
2 1.49
20 -0.15
21 0.18
22 -0.15
23 -0.15
24 -0.15
25 -0.15
26 -0.15
28 0.15
3 -0.57
32 0.15
33 0.15
34 0.5
35 0.15
36 0.15
37 0.15
38 0.15
39 0.15
4 -0.68
5 -0.65
6 -0.65
7 -0.11
8 -0.51
9 -0.25

>  <PUBCHEM_EFFECTIVE_ROTOR_COUNT>  (1) 
4.4

>  <PUBCHEM_PHARMACOPHORE_FEATURES>  (1) 
9
1 3 acceptor
1 4 acceptor
1 5 acceptor
1 6 acceptor
1 8 acceptor
4 2 4 5 6 anion
5 7 8 11 12 13 rings
6 14 15 16 17 19 20 rings
6 21 22 23 24 25 26 rings

>  <PUBCHEM_HEAVY_ATOM_COUNT>  (1) 
26

>  <PUBCHEM_ATOM_DEF_STEREO_COUNT>  (1) 
0

>  <PUBCHEM_ATOM_UDEF_STEREO_COUNT>  (1) 
1

>  <PUBCHEM_BOND_DEF_STEREO_COUNT>  (1) 
0

>  <PUBCHEM_BOND_UDEF_STEREO_COUNT>  (1) 
0

>  <PUBCHEM_ISOTOPIC_ATOM_COUNT>  (1) 
0

>  <PUBCHEM_COMPONENT_COUNT>  (1) 
1

>  <PUBCHEM_CACTVS_TAUTO_COUNT>  (1) 
4

>  <PUBCHEM_CONFORMER_ID>  (1) 
0000593900000001

>  <PUBCHEM_MMFF94_ENERGY>  (1) 
71.9889

>  <PUBCHEM_FEATURE_SELFOVERLAP>  (1) 
45.73

>  <PUBCHEM_SHAPE_FINGERPRINT>  (1) 
10763959 59 18188496774141403084
11089746 13 18261108539156587746
11796584 16 12535343446907613663
12596602 18 13335321757162642229
12769317 202 18413107281733610752
13103583 49 11169913841106076743
13544653 18 10519981569702857883
13878862 14 18188755172295652022
14117953 113 18340770322170510814
14528608 73 18411134698044096447
14790565 3 18339362955507223741
14848178 96 18410858762995306256
15003188 100 18409448064271036181
15183329 4 18267304240261285427
16989378 47 16700358325291328150
16994733 274 16155428418736037990
17959699 21 18410577309730555434
17980427 26 18040983042985594794
193927 3 12967123943683722727
20157964 124 18411700971774891927
20715895 44 18411696574050127888
21033648 29 17530973475282743633
21304253 335 18186528712694106508
21859007 373 18188758449799342556
22393880 68 18128829719003832262
22950370 63 9439395844255423375
23227448 37 18339646762113151631
23522609 53 17703243832421888393
23559900 14 18202570558054715810
2838139 119 18334573504241732373
312425 54 8862941706402115885
335352 9 18338802217757924550
34797466 226 18201725020759053471
44317340 157 18343581811919957993
465052 167 8358255964567541728
60123966 16 18342463599730204326
6371009 1 18269267976507840584

>  <PUBCHEM_SHAPE_MULTIPOLES>  (1) 
497.39
14.67
4.21
1.07
13.65
0.13
0.17
-12.4
-4.48
-3.64
-0.59
0.33
-0.27
0.66

>  <PUBCHEM_SHAPE_SELFOVERLAP>  (1) 
1058.455

>  <PUBCHEM_SHAPE_VOLUME>  (1) 
278.7

>  <PUBCHEM_COORDINATE_TYPE>  (1) 
2
5
10

$$$$
