22850
     RDKit          3D

 17 18  0  0  0  0  0  0  0  0999 V2000
   -0.1965    0.1083    0.5345 N   0  0  0  0  0  0  0  0  0  0  0  0
   -1.6737   -2.2928    0.1991 N   0  0  0  0  0  0  0  0  0  0  0  0
    0.4080    0.1504   -0.5628 N   0  0  0  0  0  0  0  0  0  0  0  0
   -5.7296    0.3199   -0.3080 N   0  0  0  0  0  0  0  0  0  0  0  0
    5.9397    0.0129    0.2905 N   0  0  0  0  0  0  0  0  0  0  0  0
   -1.5849    0.1438    0.3197 C   0  0  0  0  0  0  0  0  0  0  0  0
   -2.3116   -1.0330    0.1562 C   0  0  0  0  0  0  0  0  0  0  0  0
   -4.3362    0.2608   -0.0976 C   0  0  0  0  0  0  0  0  0  0  0  0
   -3.6895   -0.9744   -0.0528 C   0  0  0  0  0  0  0  0  0  0  0  0
   -2.2273    1.3787    0.2758 C   0  0  0  0  0  0  0  0  0  0  0  0
   -3.6051    1.4372    0.0667 C   0  0  0  0  0  0  0  0  0  0  0  0
    1.7897    0.1153   -0.3494 C   0  0  0  0  0  0  0  0  0  0  0  0
    4.5460    0.0472    0.0757 C   0  0  0  0  0  0  0  0  0  0  0  0
    2.4577   -1.1080   -0.3012 C   0  0  0  0  0  0  0  0  0  0  0  0
    2.4996    1.3048   -0.1852 C   0  0  0  0  0  0  0  0  0  0  0  0
    3.8359   -1.1422   -0.0885 C   0  0  0  0  0  0  0  0  0  0  0  0
    3.8778    1.2708    0.0274 C   0  0  0  0  0  0  0  0  0  0  0  0
  1  3  2  0
  1  6  1  0
  2  7  1  0
  3 12  1  0
  4  8  1  0
  5 13  1  0
  6  7  2  0
  6 10  1  0
  7  9  1  0
  8  9  2  0
  8 11  1  0
 10 11  2  0
 12 14  2  0
 12 15  1  0
 13 16  2  0
 13 17  1  0
 14 16  1  0
 15 17  2  0
M  END
>  <PUBCHEM_COMPOUND_CID>  (1) 
22850

>  <PUBCHEM_CONFORMER_RMSD>  (1) 
0.6

>  <PUBCHEM_CONFORMER_DIVERSEORDER>  (1) 
1
3
2

>  <PUBCHEM_MMFF94_PARTIAL_CHARGES>  (1) 
30
1 -0.18
10 -0.15
11 -0.15
12 0.18
13 0.1
14 -0.15
15 -0.15
16 -0.15
17 -0.15
18 0.15
19 0.15
2 -0.9
20 0.15
21 0.15
22 0.15
23 0.15
24 0.15
25 0.4
26 0.4
27 0.4
28 0.4
29 0.4
3 -0.18
30 0.4
4 -0.9
5 -0.9
6 0.18
7 0.1
8 0.1
9 -0.15

>  <PUBCHEM_EFFECTIVE_ROTOR_COUNT>  (1) 
2

>  <PUBCHEM_PHARMACOPHORE_FEATURES>  (1) 
8
1 2 cation
1 2 donor
1 4 cation
1 4 donor
1 5 cation
1 5 donor
6 12 13 14 15 16 17 rings
6 6 7 8 9 10 11 rings

>  <PUBCHEM_HEAVY_ATOM_COUNT>  (1) 
17

>  <PUBCHEM_ATOM_DEF_STEREO_COUNT>  (1) 
0

>  <PUBCHEM_ATOM_UDEF_STEREO_COUNT>  (1) 
0

>  <PUBCHEM_BOND_DEF_STEREO_COUNT>  (1) 
0

>  <PUBCHEM_BOND_UDEF_STEREO_COUNT>  (1) 
0

>  <PUBCHEM_ISOTOPIC_ATOM_COUNT>  (1) 
0

>  <PUBCHEM_COMPONENT_COUNT>  (1) 
1

>  <PUBCHEM_CACTVS_TAUTO_COUNT>  (1) 
21

>  <PUBCHEM_CONFORMER_ID>  (1) 
0000594200000001

>  <PUBCHEM_MMFF94_ENERGY>  (1) 
77.0581

>  <PUBCHEM_FEATURE_SELFOVERLAP>  (1) 
40.597

>  <PUBCHEM_SHAPE_FINGERPRINT>  (1) 
10014705 185 18260828207047236381
10366900 7 17274823553947072090
10616163 171 18341053016079397038
11315181 36 18411985775715279992
11370993 70 18411981355840790166
12107183 9 17690280409102596992
12236239 1 17749388165663029657
12251169 10 18409449193731253956
12500047 106 18411978083101779034
12815109 37 18411981360214378474
128620 24 14261352448782099424
13167823 11 18410572885750878994
13533116 47 18130505228316295162
15042514 8 18263650735469978283
15196674 1 18410293656931066999
15375358 24 18343305863906910726
17802600 8 18411417310633752552
17834072 33 18410856585873979604
18186145 218 17313097592211477733
19489759 90 18201718444351850121
200 152 17775282759666374497
20279233 1 18272379671612905942
20300324 65 18131348614259532065
20645477 56 18407478868878669309
20645477 70 18130510717437435246
21267235 1 18410583885072303858
23402539 116 18413383250825660765
23402655 69 18411421717686462060
23557571 272 18130512946224884932
23559900 14 18342171210941037048
26918003 58 18411136952532700634
300161 21 18408598176042192168
351380 180 18342174466415321493
3545911 37 18411702084324304852
42 15 18334014990773197884
4214541 1 18410293605433793865
474 4 17532097261955231732
5104073 3 18410014372429869760
542803 24 17275108322910374032
58051976 100 18335986444923028791
67856867 119 18263925612949634828
69090 78 18410573981157339623
77779 3 18410577292460976332
9709674 26 18341339945590649166
9971528 1 17894631461639032108

>  <PUBCHEM_SHAPE_MULTIPOLES>  (1) 
324.95
11.87
1.61
0.66
2.63
0.31
0
-1.03
0.08
-0.42
-0.05
0.01
-0.01
0.05

>  <PUBCHEM_SHAPE_SELFOVERLAP>  (1) 
700.881

>  <PUBCHEM_SHAPE_VOLUME>  (1) 
178.5

>  <PUBCHEM_COORDINATE_TYPE>  (1) 
2
5
10

$$$$
