2285
     RDKit          3D

 11 11  0  0  0  0  0  0  0  0999 V2000
    1.5623    0.0001   -0.3511 O   0  0  0  0  0  0  0  0  0  0  0  0
    3.5637    0.0002   -1.3030 O   0  0  0  0  0  0  0  0  0  0  0  0
    3.4582   -0.0001    0.9727 O   0  0  0  0  0  0  0  0  0  0  0  0
   -0.6980   -0.0002    0.3888 C   0  0  0  0  0  0  0  0  0  0  0  0
    0.7342   -0.0003    0.8052 C   0  0  0  0  0  0  0  0  0  0  0  0
   -1.3676    1.2079    0.1940 C   0  0  0  0  0  0  0  0  0  0  0  0
   -1.3678   -1.2082    0.1937 C   0  0  0  0  0  0  0  0  0  0  0  0
   -2.7069    1.2082   -0.1957 C   0  0  0  0  0  0  0  0  0  0  0  0
   -2.7072   -1.2079   -0.1961 C   0  0  0  0  0  0  0  0  0  0  0  0
   -3.3766    0.0003   -0.3908 C   0  0  0  0  0  0  0  0  0  0  0  0
    2.9057    0.0001   -0.1175 C   0  0  0  0  0  0  0  0  0  0  0  0
  1  5  1  0
  1 11  1  0
  2 11  1  0
  3 11  2  0
  4  5  1  0
  4  6  2  0
  4  7  1  0
  6  8  1  0
  7  9  2  0
  8 10  2  0
  9 10  1  0
M  END
>  <PUBCHEM_COMPOUND_CID>  (1) 
2285

>  <PUBCHEM_CONFORMER_RMSD>  (1) 
0.6

>  <PUBCHEM_CONFORMER_DIVERSEORDER>  (1) 
1
3
4
2
6
5

>  <PUBCHEM_MMFF94_PARTIAL_CHARGES>  (1) 
17
1 -0.43
10 -0.15
11 0.87
14 0.15
15 0.15
16 0.15
17 0.15
18 0.15
19 0.5
2 -0.65
3 -0.57
4 -0.14
5 0.42
6 -0.15
7 -0.15
8 -0.15
9 -0.15

>  <PUBCHEM_EFFECTIVE_ROTOR_COUNT>  (1) 
3

>  <PUBCHEM_PHARMACOPHORE_FEATURES>  (1) 
4
1 2 acceptor
1 3 acceptor
3 2 3 11 anion
6 4 6 7 8 9 10 rings

>  <PUBCHEM_HEAVY_ATOM_COUNT>  (1) 
11

>  <PUBCHEM_ATOM_DEF_STEREO_COUNT>  (1) 
0

>  <PUBCHEM_ATOM_UDEF_STEREO_COUNT>  (1) 
0

>  <PUBCHEM_BOND_DEF_STEREO_COUNT>  (1) 
0

>  <PUBCHEM_BOND_UDEF_STEREO_COUNT>  (1) 
0

>  <PUBCHEM_ISOTOPIC_ATOM_COUNT>  (1) 
0

>  <PUBCHEM_COMPONENT_COUNT>  (1) 
1

>  <PUBCHEM_CACTVS_TAUTO_COUNT>  (1) 
1

>  <PUBCHEM_CONFORMER_ID>  (1) 
000008ED00000001

>  <PUBCHEM_MMFF94_ENERGY>  (1) 
22.6574

>  <PUBCHEM_FEATURE_SELFOVERLAP>  (1) 
20.354

>  <PUBCHEM_SHAPE_FINGERPRINT>  (1) 
11062470 55 15913326901106006201
12897270 3 18413107268542350627
12932764 1 18410857663594091066
13024252 1 17530685416268731251
13296908 3 17489871535628464030
14144814 61 18114179731063753264
14325111 11 18409164385522350394
15775835 57 17675927577323451325
18186145 218 18060421283219179280
20201158 50 17846780702048485198
20279233 1 17775563143800597750
20281407 28 17917996104523515679
20645477 70 16128377017502702860
23402539 116 18341034255740791301
23559900 14 18272928294241035146
3248919 1 17530965782753652034
528716 315 18335426785167607735
57812782 119 18060415815820652844

>  <PUBCHEM_SHAPE_MULTIPOLES>  (1) 
208.77
6.31
1.17
0.89
4.46
0
0.06
0
1.2
-1.11
-0.01
0.64
0
0

>  <PUBCHEM_SHAPE_SELFOVERLAP>  (1) 
429.413

>  <PUBCHEM_SHAPE_VOLUME>  (1) 
119.7

>  <PUBCHEM_COORDINATE_TYPE>  (1) 
2
5
10

$$$$
