22871
     RDKit          3D

 30 33  0  0  0  0  0  0  0  0999 V2000
    0.1185   -3.0806   -1.5669 O   0  0  0  0  0  0  0  0  0  0  0  0
    0.3593   -1.2474   -2.8675 O   0  0  0  0  0  0  0  0  0  0  0  0
    0.0563    2.9597   -0.1269 N   0  0  0  0  0  0  0  0  0  0  0  0
   -3.7561   -1.1352   -0.1076 N   0  0  0  0  0  0  0  0  0  0  0  0
    0.1111   -0.9213   -0.4420 C   0  0  0  0  0  0  0  0  0  0  0  0
    0.2859    0.5961   -0.7959 C   0  0  0  0  0  0  0  0  0  0  0  0
   -1.3140   -1.1923    0.1496 C   0  0  0  0  0  0  0  0  0  0  0  0
   -0.1372    1.5763    0.3068 C   0  0  0  0  0  0  0  0  0  0  0  0
   -2.4886   -0.8376   -0.7739 C   0  0  0  0  0  0  0  0  0  0  0  0
    1.2670   -1.3425    0.4962 C   0  0  0  0  0  0  0  0  0  0  0  0
   -0.8544    3.8575    0.5974 C   0  0  0  0  0  0  0  0  0  0  0  0
    1.4574    3.3644    0.0552 C   0  0  0  0  0  0  0  0  0  0  0  0
   -4.0838   -0.0847    0.8666 C   0  0  0  0  0  0  0  0  0  0  0  0
   -4.8314   -1.2967   -1.0964 C   0  0  0  0  0  0  0  0  0  0  0  0
   -0.6994    5.3024    0.1207 C   0  0  0  0  0  0  0  0  0  0  0  0
    1.6879    4.7933   -0.4395 C   0  0  0  0  0  0  0  0  0  0  0  0
   -5.3825   -0.4053    1.6079 C   0  0  0  0  0  0  0  0  0  0  0  0
   -6.1545   -1.6572   -0.4191 C   0  0  0  0  0  0  0  0  0  0  0  0
    0.7445    5.7758    0.2449 C   0  0  0  0  0  0  0  0  0  0  0  0
   -6.5362   -0.6254    0.6360 C   0  0  0  0  0  0  0  0  0  0  0  0
    0.2145   -1.7370   -1.7533 C   0  0  0  0  0  0  0  0  0  0  0  0
    2.6147   -1.1982    0.1283 C   0  0  0  0  0  0  0  0  0  0  0  0
    0.9211   -1.8780    1.7372 C   0  0  0  0  0  0  0  0  0  0  0  0
    3.6257   -1.6027    1.0323 C   0  0  0  0  0  0  0  0  0  0  0  0
    1.9153   -2.2755    2.6262 C   0  0  0  0  0  0  0  0  0  0  0  0
    2.9812   -0.6613   -1.1166 C   0  0  0  0  0  0  0  0  0  0  0  0
    3.2593   -2.1393    2.2774 C   0  0  0  0  0  0  0  0  0  0  0  0
    4.9735   -1.4585    0.6647 C   0  0  0  0  0  0  0  0  0  0  0  0
    4.3252   -0.5256   -1.4653 C   0  0  0  0  0  0  0  0  0  0  0  0
    5.3195   -0.9234   -0.5764 C   0  0  0  0  0  0  0  0  0  0  0  0
  1 21  1  0
  2 21  2  0
  3  8  1  0
  3 11  1  0
  3 12  1  0
  4  9  1  0
  4 13  1  0
  4 14  1  0
  5  6  1  0
  5  7  1  0
  5 10  1  0
  5 21  1  0
  6  8  1  0
  7  9  1  0
 10 22  1  0
 10 23  2  0
 11 15  1  0
 12 16  1  0
 13 17  1  0
 14 18  1  0
 15 19  1  0
 16 19  1  0
 17 20  1  0
 18 20  1  0
 22 24  2  0
 22 26  1  0
 23 25  1  0
 24 27  1  0
 24 28  1  0
 25 27  2  0
 26 29  2  0
 28 30  2  0
 29 30  1  0
M  END
>  <PUBCHEM_COMPOUND_CID>  (1) 
22871

>  <PUBCHEM_CONFORMER_RMSD>  (1) 
1

>  <PUBCHEM_CONFORMER_DIVERSEORDER>  (1) 
2
21
18
23
10
24
17
8
19
20
22
11
25
7
16
14
13
5
4
1
6
15
12
9
3

>  <PUBCHEM_MMFF94_PARTIAL_CHARGES>  (1) 
28
1 -0.65
10 -0.14
11 0.27
12 0.27
13 0.27
14 0.27
2 -0.57
21 0.66
23 -0.15
25 -0.15
26 -0.15
27 -0.15
28 -0.15
29 -0.15
3 -0.81
30 -0.15
4 -0.81
5 0.2
59 0.15
60 0.15
61 0.15
62 0.15
63 0.5
64 0.15
65 0.15
66 0.15
8 0.27
9 0.27

>  <PUBCHEM_EFFECTIVE_ROTOR_COUNT>  (1) 
10.4

>  <PUBCHEM_PHARMACOPHORE_FEATURES>  (1) 
9
1 1 acceptor
1 2 acceptor
1 3 cation
1 4 cation
3 1 2 21 anion
6 10 22 23 24 25 27 rings
6 22 24 26 28 29 30 rings
6 3 11 12 15 16 19 rings
6 4 13 14 17 18 20 rings

>  <PUBCHEM_HEAVY_ATOM_COUNT>  (1) 
30

>  <PUBCHEM_ATOM_DEF_STEREO_COUNT>  (1) 
0

>  <PUBCHEM_ATOM_UDEF_STEREO_COUNT>  (1) 
0

>  <PUBCHEM_BOND_DEF_STEREO_COUNT>  (1) 
0

>  <PUBCHEM_BOND_UDEF_STEREO_COUNT>  (1) 
0

>  <PUBCHEM_ISOTOPIC_ATOM_COUNT>  (1) 
0

>  <PUBCHEM_COMPONENT_COUNT>  (1) 
1

>  <PUBCHEM_CACTVS_TAUTO_COUNT>  (1) 
1

>  <PUBCHEM_CONFORMER_ID>  (1) 
0000595700000002

>  <PUBCHEM_MMFF94_ENERGY>  (1) 
75.703

>  <PUBCHEM_FEATURE_SELFOVERLAP>  (1) 
45.759

>  <PUBCHEM_SHAPE_FINGERPRINT>  (1) 
10074138 170 17543316411984763913
10675989 125 18051702332110979565
10940486 97 17773872184921851999
11421498 54 18262516979487599074
12058002 1 17629517230212638115
12160290 23 17625520312214075473
12166972 35 18130788997274689955
12293681 160 18042421256345359770
12516196 113 18408600357738405483
12788726 201 18262801748703913562
13009979 54 17753872945108304282
133893 2 17617896607950809830
13590594 115 18411144614965873129
13899415 154 18334584550460040562
14028597 1 17968088682655607546
14400156 260 18266202576776572153
14787075 74 18113907065133856642
14849402 71 18265906937292637481
14955137 171 18411709797996326695
15198563 99 18268438936166803340
15439362 3 18193840581548189257
15664445 248 18342185483402347814
15927050 60 17763468708910010582
17980427 26 17975116949093957158
1813 80 18272088288215215019
18681886 176 18272090547452818167
19315092 285 16806433730770802746
19319366 153 17967811682750618906
20642791 35 18269283533396578556
20739085 24 18272087227416328297
21033648 29 17168689943339684263
22121540 332 16699774428666423425
23558518 356 17326610804738836686
24771293 8 18130217276660576392
3411729 13 18195809798066797373
345986 75 17969486135384232147
3552219 110 18041573446817585668
394222 165 18053102006517779587
4340502 62 17313387850692383506
469060 322 18269850730476154313
58260988 393 18336543812141372586
6086070 43 18337091420798667021
6669772 16 18046351008991473084
9777508 108 17548702876668116393
9896288 288 17905310850565651954

>  <PUBCHEM_SHAPE_MULTIPOLES>  (1) 
595.69
10.71
6.23
1.94
14.69
16.56
-0.08
-9.58
-1.25
-2.28
-0.9
-0.94
-1.93
-1.46

>  <PUBCHEM_SHAPE_SELFOVERLAP>  (1) 
1257.611

>  <PUBCHEM_SHAPE_VOLUME>  (1) 
332.7

>  <PUBCHEM_COORDINATE_TYPE>  (1) 
2
5
10

$$$$
