22887
     RDKit          3D

 21 22  0  0  1  0  0  0  0  0999 V2000
    1.7336   -3.2565   -1.2926 O   0  0  0  0  0  0  0  0  0  0  0  0
   -0.4775   -3.4665   -0.8419 O   0  0  0  0  0  0  0  0  0  0  0  0
    2.3501    0.9940    0.4369 N   0  0  0  0  0  0  0  0  0  0  0  0
    0.6363   -1.3835   -0.2307 C   0  0  0  0  0  0  0  0  0  0  0  0
    1.7381   -1.3430    0.8638 C   0  0  0  0  0  0  0  0  0  0  0  0
    1.9465    0.0474    1.4715 C   0  0  0  0  0  0  0  0  0  0  0  0
   -0.7054   -0.9147    0.2417 C   0  0  0  0  0  0  0  0  0  0  0  0
   -1.3437    0.2032   -0.3199 C   0  0  0  0  0  0  0  0  0  0  0  0
    3.6019    0.5677   -0.1902 C   0  0  0  0  0  0  0  0  0  0  0  0
    2.4942    2.3382    0.9975 C   0  0  0  0  0  0  0  0  0  0  0  0
    0.5487   -2.7987   -0.8122 C   0  0  0  0  0  0  0  0  0  0  0  0
   -1.3086   -1.6357    1.2728 C   0  0  0  0  0  0  0  0  0  0  0  0
   -2.6117    0.5951    0.1713 C   0  0  0  0  0  0  0  0  0  0  0  0
   -0.7514    0.9406   -1.3580 C   0  0  0  0  0  0  0  0  0  0  0  0
    4.0013    1.5089   -1.3138 C   0  0  0  0  0  0  0  0  0  0  0  0
    1.2045    2.8004    1.6541 C   0  0  0  0  0  0  0  0  0  0  0  0
   -2.5557   -1.2504    1.7554 C   0  0  0  0  0  0  0  0  0  0  0  0
   -3.2043   -0.1424    1.2092 C   0  0  0  0  0  0  0  0  0  0  0  0
   -3.2502    1.7129   -0.3902 C   0  0  0  0  0  0  0  0  0  0  0  0
   -1.4000    2.0487   -1.9039 C   0  0  0  0  0  0  0  0  0  0  0  0
   -2.6470    2.4342   -1.4209 C   0  0  0  0  0  0  0  0  0  0  0  0
  1 11  1  0
  2 11  2  0
  3  6  1  0
  3  9  1  0
  3 10  1  0
  4  5  1  0
  4  7  1  0
  4 11  1  0
  5  6  1  0
  7  8  2  0
  7 12  1  0
  8 13  1  0
  8 14  1  0
  9 15  1  0
 10 16  1  0
 12 17  2  0
 13 18  2  0
 13 19  1  0
 14 20  2  0
 17 18  1  0
 19 21  2  0
 20 21  1  0
M  END
>  <PUBCHEM_COMPOUND_CID>  (1) 
22887

>  <PUBCHEM_CONFORMER_RMSD>  (1) 
0.8

>  <PUBCHEM_CONFORMER_DIVERSEORDER>  (1) 
1
14
71
46
58
67
34
69
70
40
49
57
60
55
56
53
37
72
22
31
11
24
65
62
13
64
19
12
7
63
36
33
8
30
42
32
59
51
4
61
43
9
25
15
68
38
21
27
52
6
2
10
5
28
3
44
26
45
41
16
29
66
18
23
54
20
39
47
17
35
50
48

>  <PUBCHEM_MMFF94_PARTIAL_CHARGES>  (1) 
24
1 -0.65
10 0.27
11 0.66
12 -0.15
14 -0.15
17 -0.15
18 -0.15
19 -0.15
2 -0.57
20 -0.15
21 -0.15
3 -0.81
31 0.15
32 0.15
39 0.15
4 0.2
40 0.15
41 0.15
42 0.15
43 0.15
44 0.5
6 0.27
7 -0.14
9 0.27

>  <PUBCHEM_EFFECTIVE_ROTOR_COUNT>  (1) 
7

>  <PUBCHEM_PHARMACOPHORE_FEATURES>  (1) 
6
1 1 acceptor
1 2 acceptor
1 3 cation
3 1 2 11 anion
6 7 8 12 13 17 18 rings
6 8 13 14 19 20 21 rings

>  <PUBCHEM_HEAVY_ATOM_COUNT>  (1) 
21

>  <PUBCHEM_ATOM_DEF_STEREO_COUNT>  (1) 
0

>  <PUBCHEM_ATOM_UDEF_STEREO_COUNT>  (1) 
1

>  <PUBCHEM_BOND_DEF_STEREO_COUNT>  (1) 
0

>  <PUBCHEM_BOND_UDEF_STEREO_COUNT>  (1) 
0

>  <PUBCHEM_ISOTOPIC_ATOM_COUNT>  (1) 
0

>  <PUBCHEM_COMPONENT_COUNT>  (1) 
1

>  <PUBCHEM_CACTVS_TAUTO_COUNT>  (1) 
1

>  <PUBCHEM_CONFORMER_ID>  (1) 
0000596700000001

>  <PUBCHEM_MMFF94_ENERGY>  (1) 
54.0166

>  <PUBCHEM_FEATURE_SELFOVERLAP>  (1) 
30.532

>  <PUBCHEM_SHAPE_FINGERPRINT>  (1) 
10165383 225 18198646473499382528
10871710 139 17755866668388699124
11221954 11 18188482454768066597
12011746 2 18260830448983144085
12156800 1 12404810791582998421
128993 33 18264481952805884880
13544592 271 18051950555407511234
13911987 19 17983028747495897918
14142880 1 17548117287773143385
14251751 93 18040717004658798892
14386348 128 18337388356946090488
14957384 54 16154812545235862548
15490181 7 18267289018934047042
16945 1 17968372476191925585
18219364 16 18343297110695009504
18981168 100 17915163844480757560
20511035 2 17971442192603333192
21524375 3 18263063488005082162
23114952 82 18194128412500829039
23175994 123 17621331138473493494
23388829 49 16680907277057927329
23419403 2 17469377652420062450
23526113 38 17615133183117249823
23559900 14 17898009027777749567
238 59 18122593163969729061
2748010 2 17968955071858521495
3524813 1 18338240478257040008
3729539 64 17910712850140648422
7097593 13 16879605121655943168
81228 2 17545873189083927810
9862522 239 18336531807528438504
9925002 15 17330564652905328151

>  <PUBCHEM_SHAPE_MULTIPOLES>  (1) 
415.45
5.48
3.76
1.83
2.1
1.56
-0.08
-3.22
-0.12
0.37
1.2
-0.07
-0.38
1.7

>  <PUBCHEM_SHAPE_SELFOVERLAP>  (1) 
871.625

>  <PUBCHEM_SHAPE_VOLUME>  (1) 
235.9

>  <PUBCHEM_COORDINATE_TYPE>  (1) 
2
5
10

$$$$
