22894
     RDKit          3D

 25 26  0  0  1  0  0  0  0  0999 V2000
    2.4648   -2.9278    0.5953 O   0  0  0  0  0  0  0  0  0  0  0  0
    0.3034   -3.4148    1.0272 O   0  0  0  0  0  0  0  0  0  0  0  0
   -3.3838    0.0995    0.2176 N   0  0  0  0  0  0  0  0  0  0  0  0
    0.7903   -1.3766   -0.2745 C   0  0  0  0  0  0  0  0  0  0  0  0
    1.3401   -1.5263   -1.7563 C   0  0  0  0  0  0  0  0  0  0  0  0
   -0.7858   -1.3130   -0.2749 C   0  0  0  0  0  0  0  0  0  0  0  0
    1.4130   -0.1278    0.4030 C   0  0  0  0  0  0  0  0  0  0  0  0
   -1.4503   -1.1724    1.1089 C   0  0  0  0  0  0  0  0  0  0  0  0
    1.1318   -2.6636    0.5254 C   0  0  0  0  0  0  0  0  0  0  0  0
    2.8737   -1.6143   -1.8650 C   0  0  0  0  0  0  0  0  0  0  0  0
    0.7435   -2.7060   -2.5413 C   0  0  0  0  0  0  0  0  0  0  0  0
   -2.9748   -1.0440    1.0240 C   0  0  0  0  0  0  0  0  0  0  0  0
    1.2298    1.1207   -0.1478 C   0  0  0  0  0  0  0  0  0  0  0  0
    2.1281   -0.3766    1.5465 C   0  0  0  0  0  0  0  0  0  0  0  0
    1.8234    2.2192    0.5183 C   0  0  0  0  0  0  0  0  0  0  0  0
    2.7115    0.7039    2.2017 C   0  0  0  0  0  0  0  0  0  0  0  0
    0.4920    1.3461   -1.3213 C   0  0  0  0  0  0  0  0  0  0  0  0
   -4.8426    0.1584    0.1084 C   0  0  0  0  0  0  0  0  0  0  0  0
   -2.8671    1.3446    0.7888 C   0  0  0  0  0  0  0  0  0  0  0  0
    2.5610    1.9939    1.6921 C   0  0  0  0  0  0  0  0  0  0  0  0
    1.6617    3.5109   -0.0087 C   0  0  0  0  0  0  0  0  0  0  0  0
    0.3419    2.6361   -1.8308 C   0  0  0  0  0  0  0  0  0  0  0  0
   -5.4012   -1.1249   -0.4826 C   0  0  0  0  0  0  0  0  0  0  0  0
   -3.2300    2.5384   -0.0782 C   0  0  0  0  0  0  0  0  0  0  0  0
    0.9256    3.7165   -1.1760 C   0  0  0  0  0  0  0  0  0  0  0  0
  1  9  1  0
  2  9  2  0
  3 12  1  0
  3 18  1  0
  3 19  1  0
  4  5  1  0
  4  6  1  0
  4  7  1  0
  4  9  1  0
  5 10  1  0
  5 11  1  0
  6  8  1  0
  7 13  2  0
  7 14  1  0
  8 12  1  0
 13 15  1  0
 13 17  1  0
 14 16  2  0
 15 20  2  0
 15 21  1  0
 16 20  1  0
 17 22  2  0
 18 23  1  0
 19 24  1  0
 21 25  2  0
 22 25  1  0
M  END
>  <PUBCHEM_COMPOUND_CID>  (1) 
22894

>  <PUBCHEM_CONFORMER_RMSD>  (1) 
1

>  <PUBCHEM_CONFORMER_DIVERSEORDER>  (1) 
1
25
60
11
18
44
57
43
31
54
22
62
32
10
9
27
5
49
55
30
45
61
38
17
2
6
26
35
19
50
14
58
12
48
52
3
53
34
20
7
56
4
24
13
37
59
40
29
8
21
33
23
39
28
16
15
51
36
47
46
42
41

>  <PUBCHEM_MMFF94_PARTIAL_CHARGES>  (1) 
24
1 -0.65
12 0.27
14 -0.15
16 -0.15
17 -0.15
18 0.27
19 0.27
2 -0.57
20 -0.15
21 -0.15
22 -0.15
25 -0.15
3 -0.81
39 0.15
4 0.2
40 0.15
41 0.15
46 0.15
47 0.5
48 0.15
49 0.15
56 0.15
7 -0.14
9 0.66

>  <PUBCHEM_EFFECTIVE_ROTOR_COUNT>  (1) 
9

>  <PUBCHEM_PHARMACOPHORE_FEATURES>  (1) 
8
1 1 acceptor
1 2 acceptor
1 3 cation
3 1 2 9 anion
3 5 10 11 hydrophobe
4 4 5 6 8 hydrophobe
6 13 15 17 21 22 25 rings
6 7 13 14 15 16 20 rings

>  <PUBCHEM_HEAVY_ATOM_COUNT>  (1) 
25

>  <PUBCHEM_ATOM_DEF_STEREO_COUNT>  (1) 
0

>  <PUBCHEM_ATOM_UDEF_STEREO_COUNT>  (1) 
1

>  <PUBCHEM_BOND_DEF_STEREO_COUNT>  (1) 
0

>  <PUBCHEM_BOND_UDEF_STEREO_COUNT>  (1) 
0

>  <PUBCHEM_ISOTOPIC_ATOM_COUNT>  (1) 
0

>  <PUBCHEM_COMPONENT_COUNT>  (1) 
1

>  <PUBCHEM_CACTVS_TAUTO_COUNT>  (1) 
1

>  <PUBCHEM_CONFORMER_ID>  (1) 
0000596E00000001

>  <PUBCHEM_MMFF94_ENERGY>  (1) 
95.5749

>  <PUBCHEM_FEATURE_SELFOVERLAP>  (1) 
40.702

>  <PUBCHEM_SHAPE_FINGERPRINT>  (1) 
10165383 225 16474646484815344610
10930396 42 18341321220794105706
11578080 2 16009566063011299164
11582403 64 14835540571070596066
11640471 11 17761201520218252749
12633257 1 17097468020386958153
12788726 201 17472722233605429630
133893 2 18126313958583693491
14713325 29 16893753942293485692
14863182 85 18130790113475439605
15210252 30 17680172714493643461
15420108 30 18058426777705849970
16945 1 17975402835508300824
17859628 37 18041831951702600329
17980427 23 18123729105567949849
20600515 1 18041853787595856366
20691752 17 17968948461502952657
21330990 113 18336541625998049568
21524375 3 18056479688546936483
21860390 5 18408879655345499669
23419403 2 17987513707148896628
23559900 14 18334864922310768067
23598288 3 17331110010989086034
238 59 18268730444387031127
3052486 1 17751924605739230349
35225 105 17411903168790386797
4409770 3 17183337318763272851
474 4 18336540642307970835
484985 159 15511317790217411201
6287921 2 18130794456003893927
70251023 43 18200053771675352675
81228 2 17332840165402285498

>  <PUBCHEM_SHAPE_MULTIPOLES>  (1) 
497.77
6.3
4.53
2.04
11.82
0.84
0.5
0.63
-1.19
-2.65
1.32
-1.66
-0.49
0.6

>  <PUBCHEM_SHAPE_SELFOVERLAP>  (1) 
1038.402

>  <PUBCHEM_SHAPE_VOLUME>  (1) 
283.7

>  <PUBCHEM_COORDINATE_TYPE>  (1) 
2
5
10

$$$$
