22903
     RDKit          3D

 28 30  0  0  0  0  0  0  0  0999 V2000
   -5.3926   -3.4753   -0.4158 Cl  0  0  0  0  0  0  0  0  0  0  0  0
    4.9511    2.6141   -0.0245 S   0  0  0  0  0  0  0  0  0  0  0  0
    2.8052    1.4761    0.9814 O   0  0  0  0  0  0  0  0  0  0  0  0
    3.7038    0.3252   -0.9513 N   0  0  0  0  0  0  0  0  0  0  0  0
   -2.7339    1.8905   -0.0087 C   0  0  0  0  0  0  0  0  0  0  0  0
   -1.2700    1.7810    0.2533 C   0  0  0  0  0  0  0  0  0  0  0  0
   -3.4277    0.4918   -0.1156 C   0  0  0  0  0  0  0  0  0  0  0  0
   -3.1338    2.6343   -1.3387 C   0  0  0  0  0  0  0  0  0  0  0  0
   -3.3769    2.7760    1.1160 C   0  0  0  0  0  0  0  0  0  0  0  0
   -0.8129    1.1399    1.4049 C   0  0  0  0  0  0  0  0  0  0  0  0
   -0.3574    2.3193   -0.6539 C   0  0  0  0  0  0  0  0  0  0  0  0
   -2.9900   -0.3491   -1.0902 C   0  0  0  0  0  0  0  0  0  0  0  0
   -4.4181    0.2171    0.7744 C   0  0  0  0  0  0  0  0  0  0  0  0
    0.5565    1.0374    1.6493 C   0  0  0  0  0  0  0  0  0  0  0  0
    1.0120    2.2166   -0.4096 C   0  0  0  0  0  0  0  0  0  0  0  0
    1.4690    1.5757    0.7420 C   0  0  0  0  0  0  0  0  0  0  0  0
   -3.6081   -1.5960   -1.1851 C   0  0  0  0  0  0  0  0  0  0  0  0
   -5.0361   -1.0297    0.6796 C   0  0  0  0  0  0  0  0  0  0  0  0
   -4.6312   -1.9362   -0.3003 C   0  0  0  0  0  0  0  0  0  0  0  0
    3.1600   -0.9571   -0.5645 C   0  0  0  0  0  0  0  0  0  0  0  0
    3.7920    1.4032   -0.0543 C   0  0  0  0  0  0  0  0  0  0  0  0
    3.2959   -1.3515    0.7408 C   0  0  0  0  0  0  0  0  0  0  0  0
    2.7708   -2.5889    1.1131 C   0  0  0  0  0  0  0  0  0  0  0  0
    2.5366   -1.7106   -1.5245 C   0  0  0  0  0  0  0  0  0  0  0  0
    4.1000    0.4895   -2.3555 C   0  0  0  0  0  0  0  0  0  0  0  0
    2.1283   -3.3872    0.1667 C   0  0  0  0  0  0  0  0  0  0  0  0
    2.0111   -2.9479   -1.1520 C   0  0  0  0  0  0  0  0  0  0  0  0
    2.8964   -3.0584    2.5230 C   0  0  0  0  0  0  0  0  0  0  0  0
  1 19  1  0
  2 21  2  0
  3 16  1  0
  3 21  1  0
  4 20  1  0
  4 21  1  0
  4 25  1  0
  5  6  1  0
  5  7  1  0
  5  8  1  0
  5  9  1  0
  6 10  2  0
  6 11  1  0
  7 12  2  0
  7 13  1  0
 10 14  1  0
 11 15  2  0
 12 17  1  0
 13 18  2  0
 14 16  2  0
 15 16  1  0
 17 19  2  0
 18 19  1  0
 20 22  2  0
 20 24  1  0
 22 23  1  0
 23 26  2  0
 23 28  1  0
 24 27  2  0
 26 27  1  0
M  END
>  <PUBCHEM_COMPOUND_CID>  (1) 
22903

>  <PUBCHEM_CONFORMER_RMSD>  (1) 
0.8

>  <PUBCHEM_CONFORMER_DIVERSEORDER>  (1) 
1
416
451
390
472
260
241
71
476
27
231
266
428
152
83
235
137
297
432
69
79
254
387
400
181
108
402
257
324
280
128
168
401
230
182
360
263
383
478
374
298
258
394
318
338
169
467
471
243
109
330
67
196
167
176
148
131
251
222
331
313
327
292
466
473
155
308
286
274
16
45
426
299
147
436
207
379
329
120
333
276
414
373
259
455
142
350
382
185
445
429
376
434
166
412
160
450
389
50
296
344
456
270
119
303
138
443
427
291
252
236
92
114
409
218
140
354
388
273
229
127
375
200
448
312
197
437
96
293
294
462
70
135
304
307
237
104
113
449
157
213
474
413
364
209
146
86
415
58
173
242
479
441
423
438
211
309
323
361
62
334
421
244
224
126
73
368
465
268
106
332
205
198
60
353
228
163
457
272
64
393
461
284
410
447
40
418
76
431
355
459
397
4
85
103
248
464
470
194
130
371
177
267
94
269
192
363
446
342
112
203
95
349
63
356
444
225
381
77
65
262
234
44
253
366
475
159
110
18
10
419
123
398
202
399
201
460
145
102
195
422
154
288
367
37
336
165
405
75
178
179
121
407
186
404
358
180
386
424
346
171
223
320
463
56
19
239
305
359
335
430
283
281
406
271
24
345
53
425
59
189
275
190
136
144
141
264
403
30
391
11
232
220
23
227
193
61
80
3
250
116
139
340
54
33
210
442
279
219
348
172
68
311
440
411
36
380
12
295
81
52
408
277
352
369
184
174
72
88
161
301
249
115
111
246
175
300
310
93
378
17
341
214
278
57
245
206
316
32
453
420
122
351
289
238
347
38
118
370
454
183
66
392
396
362
162
82
315
55
156
97
319
78
5
468
90
28
317
124
433
20
105
240
217
265
2
477
458
191
117
143
226
199
87
325
337
48
339
15
452
322
282
42
247
285
132
91
25
164
51
188
377
47
256
35
314
216
395
101
357
326
439
31
321
43
98
26
212
215
384
34
149
133
22
150
233
187
302
49
385
129
153
208
84
8
107
469
204
261
417
89
255
151
29
134
328
99
100
372
365
290
221
125
343
306
158
14
46
41
9
435
287
170
21
7
74
6
39
13

>  <PUBCHEM_MMFF94_PARTIAL_CHARGES>  (1) 
38
1 -0.18
10 -0.15
11 -0.15
12 -0.15
13 -0.15
14 -0.15
15 -0.15
16 0.08
17 -0.15
18 -0.15
19 0.18
2 -0.38
20 0.12
21 0.59
22 -0.15
23 -0.14
24 -0.15
25 0.3
26 -0.15
27 -0.15
28 0.14
3 -0.23
35 0.15
36 0.15
37 0.15
38 0.15
39 0.15
4 -0.48
40 0.15
41 0.15
42 0.15
43 0.15
44 0.15
48 0.15
49 0.15
5 0.29
6 -0.14
7 -0.14

>  <PUBCHEM_EFFECTIVE_ROTOR_COUNT>  (1) 
6

>  <PUBCHEM_PHARMACOPHORE_FEATURES>  (1) 
5
1 2 acceptor
3 5 8 9 hydrophobe
6 20 22 23 24 26 27 rings
6 6 10 11 14 15 16 rings
6 7 12 13 17 18 19 rings

>  <PUBCHEM_HEAVY_ATOM_COUNT>  (1) 
28

>  <PUBCHEM_ATOM_DEF_STEREO_COUNT>  (1) 
0

>  <PUBCHEM_ATOM_UDEF_STEREO_COUNT>  (1) 
0

>  <PUBCHEM_BOND_DEF_STEREO_COUNT>  (1) 
0

>  <PUBCHEM_BOND_UDEF_STEREO_COUNT>  (1) 
0

>  <PUBCHEM_ISOTOPIC_ATOM_COUNT>  (1) 
0

>  <PUBCHEM_COMPONENT_COUNT>  (1) 
1

>  <PUBCHEM_CACTVS_TAUTO_COUNT>  (1) 
1

>  <PUBCHEM_CONFORMER_ID>  (1) 
0000597700000001

>  <PUBCHEM_MMFF94_ENERGY>  (1) 
131.4353

>  <PUBCHEM_FEATURE_SELFOVERLAP>  (1) 
25.373

>  <PUBCHEM_SHAPE_FINGERPRINT>  (1) 
10928967 22 18263372399634358795
11135609 12 18057610854495647086
11186622 123 18411419527079438059
11315621 136 18340775845176498526
11796584 16 18202571665834167405
13122387 1 18342453712563144183
13224815 77 18341332180262734902
13383661 66 17629793250760322438
13583140 156 17489292084321865857
1361 2 18118690056879844300
13726171 33 18130523949931143232
14705955 166 16264865816845176024
150020 26 17200800986322560703
15250474 111 18411415086156756355
15537594 2 18339376226834829571
16114785 44 14249224100988733480
1813 80 18115307903536316677
19301679 30 18336550529945295707
20567600 347 18261672670890381218
20764821 26 18046068430445882219
20775530 9 18410571747785161719
21033648 29 12103303559576008531
21054139 6 18336830883418518564
21133410 62 17975951457594326671
21315759 227 18411407402323328071
21421861 104 18342182150159254587
21703447 108 17844514712496791449
22393880 68 18339932524000116852
235170 7 16950000344143469159
23559900 14 17984142561189883598
238 59 18261974959320702160
340366 18 17684933501068357700
3737641 26 18271536367869919103
3797600 57 17989487424851838236
437795 51 16987157352199973000
4394409 98 17034706453780685823
444735 86 18341887554284749711
460360 51 18190168006288580457
463206 1 17982447406539675287
5081480 168 12831164747667439282
5309563 4 18124877017699597247
633830 44 16516538685245822281
6433294 58 18340769251884851159
6823239 73 17773890713674277006
7399639 24 18267287901926967752

>  <PUBCHEM_SHAPE_MULTIPOLES>  (1) 
571.1
11.23
4.63
1.77
6.58
2.34
0.13
3.45
-1.39
-0.16
0.44
-1.34
0.58
-1.35

>  <PUBCHEM_SHAPE_SELFOVERLAP>  (1) 
1211.018

>  <PUBCHEM_SHAPE_VOLUME>  (1) 
325.8

>  <PUBCHEM_COORDINATE_TYPE>  (1) 
2
5
10

$$$$
