2290
     RDKit          3D

 40 43  0  0  1  0  0  0  0  0999 V2000
   -2.3900    1.6704   -0.1524 O   0  0  0  0  0  0  0  0  0  0  0  0
   -2.2791   -0.6179    1.5428 O   0  0  0  0  0  0  0  0  0  0  0  0
   -1.8199    2.0076   -2.3570 O   0  0  0  0  0  0  0  0  0  0  0  0
    3.1500    0.6763   -1.9297 O   0  0  0  0  0  0  0  0  0  0  0  0
    1.8000    2.4590    2.3163 O   0  0  0  0  0  0  0  0  0  0  0  0
   -2.0338   -6.4895   -0.8022 O   0  0  0  0  0  0  0  0  0  0  0  0
    4.3027    2.2802    1.5246 O   0  0  0  0  0  0  0  0  0  0  0  0
    6.3103    2.1486   -0.6286 O   0  0  0  0  0  0  0  0  0  0  0  0
    2.5502   -2.1262    0.1998 O   0  0  0  0  0  0  0  0  0  0  0  0
    3.0043   -1.0890    2.1706 O   0  0  0  0  0  0  0  0  0  0  0  0
   -6.5256    2.1410    1.0362 N   0  0  0  0  0  0  0  0  0  0  0  0
   -4.1544   -0.5784    0.1811 N   0  0  0  0  0  0  0  0  0  0  0  0
   -4.5328    0.7956    0.4637 C   0  0  0  0  0  0  0  0  0  0  0  0
   -3.7807    1.7355   -0.4935 C   0  0  0  0  0  0  0  0  0  0  0  0
   -4.2017    3.2077   -0.4470 C   0  0  0  0  0  0  0  0  0  0  0  0
   -6.0629    0.8996    0.4306 C   0  0  0  0  0  0  0  0  0  0  0  0
   -5.6194    3.4329   -0.9597 C   0  0  0  0  0  0  0  0  0  0  0  0
   -6.7056    3.2428    0.0980 C   0  0  0  0  0  0  0  0  0  0  0  0
   -3.0449   -1.1680    0.7557 C   0  0  0  0  0  0  0  0  0  0  0  0
   -1.5251    1.8233   -1.1863 C   0  0  0  0  0  0  0  0  0  0  0  0
   -2.7784   -2.5704    0.3440 C   0  0  0  0  0  0  0  0  0  0  0  0
   -0.1239    1.7347   -0.7035 C   0  0  0  0  0  0  0  0  0  0  0  0
    0.1943    2.1411    0.5924 C   0  0  0  0  0  0  0  0  0  0  0  0
    0.8743    1.2440   -1.5452 C   0  0  0  0  0  0  0  0  0  0  0  0
   -3.8296   -3.3865   -0.0739 C   0  0  0  0  0  0  0  0  0  0  0  0
   -1.4769   -3.0711    0.3762 C   0  0  0  0  0  0  0  0  0  0  0  0
    2.1906    1.1598   -1.0912 C   0  0  0  0  0  0  0  0  0  0  0  0
    1.5104    2.0568    1.0466 C   0  0  0  0  0  0  0  0  0  0  0  0
    2.5085    1.5661    0.2048 C   0  0  0  0  0  0  0  0  0  0  0  0
   -3.5793   -4.7033   -0.4598 C   0  0  0  0  0  0  0  0  0  0  0  0
   -1.2265   -4.3879   -0.0097 C   0  0  0  0  0  0  0  0  0  0  0  0
   -2.2778   -5.2039   -0.4277 C   0  0  0  0  0  0  0  0  0  0  0  0
    3.8845    1.4775    0.6800 C   0  0  0  0  0  0  0  0  0  0  0  0
    4.8336    0.4390    0.1833 C   0  0  0  0  0  0  0  0  0  0  0  0
    4.5489   -0.9161    0.3516 C   0  0  0  0  0  0  0  0  0  0  0  0
    6.0115    0.8303   -0.4529 C   0  0  0  0  0  0  0  0  0  0  0  0
    5.4420   -1.8799   -0.1162 C   0  0  0  0  0  0  0  0  0  0  0  0
    6.9048   -0.1334   -0.9209 C   0  0  0  0  0  0  0  0  0  0  0  0
    6.6200   -1.4886   -0.7524 C   0  0  0  0  0  0  0  0  0  0  0  0
    3.3274   -1.3598    1.0113 C   0  0  0  0  0  0  0  0  0  0  0  0
  1 14  1  0
  1 20  1  0
  2 19  2  0
  3 20  2  0
  4 27  1  0
  5 28  1  0
  6 32  1  0
  7 33  2  0
  8 36  1  0
  9 40  1  0
 10 40  2  0
 11 16  1  0
 11 18  1  0
 12 13  1  0
 12 19  1  0
 13 14  1  0
 13 16  1  0
 14 15  1  0
 15 17  1  0
 17 18  1  0
 19 21  1  0
 20 22  1  0
 21 25  2  0
 21 26  1  0
 22 23  2  0
 22 24  1  0
 23 28  1  0
 24 27  2  0
 25 30  1  0
 26 31  2  0
 27 29  1  0
 28 29  2  0
 29 33  1  0
 30 32  2  0
 31 32  1  0
 33 34  1  0
 34 35  2  0
 34 36  1  0
 35 37  1  0
 35 40  1  0
 36 38  2  0
 37 39  2  0
 38 39  1  0
M  END
>  <PUBCHEM_COMPOUND_CID>  (1) 
2290

>  <PUBCHEM_CONFORMER_RMSD>  (1) 
1.2

>  <PUBCHEM_CONFORMER_DIVERSEORDER>  (1) 
1
53
95
18
162
104
194
211
174
40
94
19
198
56
98
131
109
37
27
191
216
203
108
145
106
154
166
130
110
99
168
72
190
36
60
185
132
199
81
66
58
170
46
157
100
77
179
34
55
136
143
176
62
208
102
200
156
169
195
171
92
67
183
97
83
42
155
218
127
163
20
181
207
32
116
159
7
158
111
140
217
113
57
75
135
51
201
71
6
210
152
73
172
125
54
23
124
202
134
24
13
93
167
29
85
186
139
153
112
209
188
160
59
30
182
204
65
161
61
14
121
35
212
189
196
219
173
123
12
78
44
64
47
197
88
21
192
205
69
91
133
118
119
137
147
184
70
117
148
164
129
120
28
38
22
2
151
105
178
107
80
39
214
138
41
177
180
8
101
206
144
115
122
45
25
141
150
89
215
26
146
11
213
16
43
96
48
76
79
114
175
31
193
17
63
187
49
15
126
86
87
4
103
90
128
52
3
74
33
82
9
50
142
5
68
10
165
84
149

>  <PUBCHEM_MMFF94_PARTIAL_CHARGES>  (1) 
54
1 -0.43
10 -0.57
11 -0.9
12 -0.73
13 0.3
14 0.28
16 0.27
18 0.27
19 0.54
2 -0.57
20 0.63
21 0.09
22 0.09
23 -0.15
24 -0.15
25 -0.15
26 -0.15
27 0.08
28 0.08
29 0.09
3 -0.57
30 -0.15
31 -0.15
32 0.08
33 0.4
34 0.09
35 0.09
36 0.08
37 -0.15
38 -0.15
39 -0.15
4 -0.53
40 0.63
5 -0.53
51 0.36
52 0.37
53 0.15
54 0.15
55 0.15
56 0.15
57 0.15
58 0.15
59 0.45
6 -0.53
60 0.45
61 0.15
62 0.15
63 0.45
64 0.15
65 0.45
66 0.5
7 -0.57
8 -0.53
9 -0.65

>  <PUBCHEM_EFFECTIVE_ROTOR_COUNT>  (1) 
10.4

>  <PUBCHEM_PHARMACOPHORE_FEATURES>  (1) 
17
1 10 acceptor
1 11 cation
1 11 donor
1 12 donor
1 2 acceptor
1 3 acceptor
1 4 donor
1 5 donor
1 6 donor
1 7 acceptor
1 8 donor
1 9 acceptor
3 9 10 40 anion
6 21 25 26 30 31 32 rings
6 22 23 24 27 28 29 rings
6 34 35 36 37 38 39 rings
7 11 13 14 15 16 17 18 rings

>  <PUBCHEM_HEAVY_ATOM_COUNT>  (1) 
40

>  <PUBCHEM_ATOM_DEF_STEREO_COUNT>  (1) 
0

>  <PUBCHEM_ATOM_UDEF_STEREO_COUNT>  (1) 
2

>  <PUBCHEM_BOND_DEF_STEREO_COUNT>  (1) 
0

>  <PUBCHEM_BOND_UDEF_STEREO_COUNT>  (1) 
0

>  <PUBCHEM_ISOTOPIC_ATOM_COUNT>  (1) 
0

>  <PUBCHEM_COMPONENT_COUNT>  (1) 
1

>  <PUBCHEM_CACTVS_TAUTO_COUNT>  (1) 
165

>  <PUBCHEM_CONFORMER_ID>  (1) 
000008F200000001

>  <PUBCHEM_MMFF94_ENERGY>  (1) 
125.3382

>  <PUBCHEM_FEATURE_SELFOVERLAP>  (1) 
86.334

>  <PUBCHEM_SHAPE_FINGERPRINT>  (1) 
10290309 65 18047748200428628366
10462674 125 15546817039528730382
10462674 296 17978229692303424551
10864689 126 18267303136713179330
10940486 97 18261399991622298853
11014199 57 17831300866962714330
11524674 6 18341610374438332885
11796584 16 18411705370391167380
12422481 6 17750235799451105569
12522641 33 18265330613407181893
13008946 267 17765444141466251697
14028597 1 17630052560254460705
14040221 299 18269835320677393238
14068700 686 17765425831186965752
14444916 359 18339654321957309777
15230672 131 18336264536014448138
15274700 242 16733251383851332048
15297060 5 18272374122953308835
15361156 5 17968670426858654644
15400415 2 18338232644284619389
15439362 3 17903917756986609445
15927050 60 18411415077810071007
15968369 26 17107321508455515367
21133410 171 17329655236509968114
21133410 52 15823810518497941724
23516275 137 17974309632781665443
23559900 14 18411133649471722456
244849 19 17702366533126127784
4017518 198 18338801113555593383
4073 2 18340763849343695512
45266715 3 18198334066759004997
508706 21 18340763853211115391
5265222 85 18335425642506295317
6371380 46 18342734079480308561
653340 110 18195235839742821122

>  <PUBCHEM_SHAPE_MULTIPOLES>  (1) 
754.53
16.51
6.62
1.46
7.4
12
-0.09
-7.99
0.72
-10.73
1.19
0.7
-0.77
0.38

>  <PUBCHEM_SHAPE_SELFOVERLAP>  (1) 
1649.613

>  <PUBCHEM_SHAPE_VOLUME>  (1) 
401.9

>  <PUBCHEM_COORDINATE_TYPE>  (1) 
2
5
10

$$$$
