22900
     RDKit          3D

 26 27  0  0  0  0  0  0  0  0999 V2000
    0.5744    0.4017   -2.5922 O   0  0  0  0  0  0  0  0  0  0  0  0
   -0.9291    1.9959   -2.0246 O   0  0  0  0  0  0  0  0  0  0  0  0
    1.9616   -3.4688    0.1512 N   0  0  0  0  0  0  0  0  0  0  0  0
    4.9334    1.6725   -0.2546 N   0  0  0  0  0  0  0  0  0  0  0  0
   -0.0531    0.5372   -0.2544 C   0  0  0  0  0  0  0  0  0  0  0  0
    0.2463   -0.9993   -0.2191 C   0  0  0  0  0  0  0  0  0  0  0  0
    1.1365    1.3517    0.3584 C   0  0  0  0  0  0  0  0  0  0  0  0
   -1.4034    0.8030    0.4569 C   0  0  0  0  0  0  0  0  0  0  0  0
    0.7646   -1.5309    1.1291 C   0  0  0  0  0  0  0  0  0  0  0  0
    2.5150    1.0982   -0.2797 C   0  0  0  0  0  0  0  0  0  0  0  0
   -0.2047    1.0612   -1.7012 C   0  0  0  0  0  0  0  0  0  0  0  0
   -2.6085    0.2457   -0.0011 C   0  0  0  0  0  0  0  0  0  0  0  0
    0.9668   -3.0492    1.1308 C   0  0  0  0  0  0  0  0  0  0  0  0
    3.6466    1.8770    0.3994 C   0  0  0  0  0  0  0  0  0  0  0  0
   -1.3823    1.6261    1.5832 C   0  0  0  0  0  0  0  0  0  0  0  0
   -3.8090    0.5273    0.6936 C   0  0  0  0  0  0  0  0  0  0  0  0
   -2.5628    1.9027    2.2664 C   0  0  0  0  0  0  0  0  0  0  0  0
   -2.6486   -0.5847   -1.1329 C   0  0  0  0  0  0  0  0  0  0  0  0
   -3.7691    1.3575    1.8256 C   0  0  0  0  0  0  0  0  0  0  0  0
   -5.0141   -0.0299    0.2359 C   0  0  0  0  0  0  0  0  0  0  0  0
   -3.8549   -1.1295   -1.5737 C   0  0  0  0  0  0  0  0  0  0  0  0
    1.8377   -4.9005   -0.1289 C   0  0  0  0  0  0  0  0  0  0  0  0
    3.3126   -3.1592    0.6227 C   0  0  0  0  0  0  0  0  0  0  0  0
    5.8207    2.8121   -0.0150 C   0  0  0  0  0  0  0  0  0  0  0  0
    5.5592    0.4349    0.2146 C   0  0  0  0  0  0  0  0  0  0  0  0
   -5.0355   -0.8527   -0.8907 C   0  0  0  0  0  0  0  0  0  0  0  0
  1 11  1  0
  2 11  2  0
  3 13  1  0
  3 22  1  0
  3 23  1  0
  4 14  1  0
  4 24  1  0
  4 25  1  0
  5  6  1  0
  5  7  1  0
  5  8  1  0
  5 11  1  0
  6  9  1  0
  7 10  1  0
  8 12  2  0
  8 15  1  0
  9 13  1  0
 10 14  1  0
 12 16  1  0
 12 18  1  0
 15 17  2  0
 16 19  2  0
 16 20  1  0
 17 19  1  0
 18 21  2  0
 20 26  2  0
 21 26  1  0
M  END
>  <PUBCHEM_COMPOUND_CID>  (1) 
22900

>  <PUBCHEM_CONFORMER_RMSD>  (1) 
1

>  <PUBCHEM_CONFORMER_DIVERSEORDER>  (1) 
1
30
27
32
13
44
33
21
25
45
43
37
20
29
15
23
6
19
8
26
18
5
14
16
12
28
35
42
38
41
31
22
9
17
10
34
24
39
40
3
7
4
2
11
36

>  <PUBCHEM_MMFF94_PARTIAL_CHARGES>  (1) 
28
1 -0.65
11 0.66
13 0.27
14 0.27
15 -0.15
17 -0.15
18 -0.15
19 -0.15
2 -0.57
20 -0.15
21 -0.15
22 0.27
23 0.27
24 0.27
25 0.27
26 -0.15
3 -0.81
39 0.15
4 -0.81
40 0.15
41 0.15
42 0.15
43 0.5
44 0.15
45 0.15
5 0.2
58 0.15
8 -0.14

>  <PUBCHEM_EFFECTIVE_ROTOR_COUNT>  (1) 
10

>  <PUBCHEM_PHARMACOPHORE_FEATURES>  (1) 
8
1 1 acceptor
1 2 acceptor
1 3 cation
1 4 cation
3 1 2 11 anion
5 5 6 7 9 10 hydrophobe
6 12 16 18 20 21 26 rings
6 8 12 15 16 17 19 rings

>  <PUBCHEM_HEAVY_ATOM_COUNT>  (1) 
26

>  <PUBCHEM_ATOM_DEF_STEREO_COUNT>  (1) 
0

>  <PUBCHEM_ATOM_UDEF_STEREO_COUNT>  (1) 
0

>  <PUBCHEM_BOND_DEF_STEREO_COUNT>  (1) 
0

>  <PUBCHEM_BOND_UDEF_STEREO_COUNT>  (1) 
0

>  <PUBCHEM_ISOTOPIC_ATOM_COUNT>  (1) 
0

>  <PUBCHEM_COMPONENT_COUNT>  (1) 
1

>  <PUBCHEM_CACTVS_TAUTO_COUNT>  (1) 
1

>  <PUBCHEM_CONFORMER_ID>  (1) 
0000597400000001

>  <PUBCHEM_MMFF94_ENERGY>  (1) 
86.1226

>  <PUBCHEM_FEATURE_SELFOVERLAP>  (1) 
40.681

>  <PUBCHEM_SHAPE_FINGERPRINT>  (1) 
10906281 52 16877663435645424701
11135609 12 17532390818975659507
11135609 187 18337101384506231856
11488393 25 18116137888680865402
11578080 2 18191019015493872061
12236239 1 18343021129118730405
12633257 1 16271349800693049195
12788726 201 17632579332289686035
13726171 33 16916802768012214489
13911987 19 17969514877237026236
14784336 7 18201429337613906760
14787075 74 18129660936234607432
14840074 17 17894912966474538532
14910302 57 12613846395472609472
15775530 1 17535167974450847180
1813 80 17901966140293790871
18915476 22 18262502698409577124
20600515 1 14008353049578622061
20642791 268 17984422932381260762
21033650 10 17557744423236084568
21421861 104 18129676201181263283
22182313 1 17458904817087152205
23402539 116 17632296830394369789
23559900 14 17983840216951355019
23566358 27 18269840809107358026
25147074 1 18059855005272719633
266924 1 18273211972092928585
5312544 6 18411981356325781786
59755656 520 18338793550323393460
6287921 2 18056752135956617386
7097593 13 17913207568365776347

>  <PUBCHEM_SHAPE_MULTIPOLES>  (1) 
513.37
10.31
4.15
1.82
5.65
6.18
0.37
-4.59
-0.11
5.98
-1
-1.6
-0.7
-2.03

>  <PUBCHEM_SHAPE_SELFOVERLAP>  (1) 
1060.323

>  <PUBCHEM_SHAPE_VOLUME>  (1) 
296

>  <PUBCHEM_COORDINATE_TYPE>  (1) 
2
5
10

$$$$
