22902
     RDKit          3D

 31 34  0  0  0  0  0  0  0  0999 V2000
    0.8650   -3.8906    0.0652 S   0  0  0  0  0  0  0  0  0  0  0  0
   -0.9326    2.6077   -0.0228 O   0  0  0  0  0  0  0  0  0  0  0  0
   -4.0813   -1.7081    0.0306 O   0  0  0  0  0  0  0  0  0  0  0  0
    0.5657   -4.5246   -1.4096 O   0  0  0  0  0  0  0  0  0  0  0  0
    2.3009   -3.6868    0.1609 O   0  0  0  0  0  0  0  0  0  0  0  0
    0.1554   -4.6829    1.0545 O   0  0  0  0  0  0  0  0  0  0  0  0
    1.2543    1.1842   -0.0002 N   0  0  0  0  0  0  0  0  0  0  0  0
   -2.0751   -3.3427    0.0533 N   0  0  0  0  0  0  0  0  0  0  0  0
   -1.0332    0.2403    0.0092 C   0  0  0  0  0  0  0  0  0  0  0  0
   -1.8553   -0.8885    0.0227 C   0  0  0  0  0  0  0  0  0  0  0  0
    0.3588    0.0902    0.0134 C   0  0  0  0  0  0  0  0  0  0  0  0
   -1.2856   -2.1673    0.0397 C   0  0  0  0  0  0  0  0  0  0  0  0
    0.1021   -2.3122    0.0433 C   0  0  0  0  0  0  0  0  0  0  0  0
   -1.6211    1.5952   -0.0101 C   0  0  0  0  0  0  0  0  0  0  0  0
   -3.0913    1.7390   -0.0139 C   0  0  0  0  0  0  0  0  0  0  0  0
    0.9225   -1.1860    0.0302 C   0  0  0  0  0  0  0  0  0  0  0  0
   -3.9134    0.6103   -0.0003 C   0  0  0  0  0  0  0  0  0  0  0  0
   -3.3254   -0.7447    0.0186 C   0  0  0  0  0  0  0  0  0  0  0  0
    2.6581    1.2634    0.0005 C   0  0  0  0  0  0  0  0  0  0  0  0
    3.3612    1.3183    1.2087 C   0  0  0  0  0  0  0  0  0  0  0  0
    3.3640    1.2883   -1.2071 C   0  0  0  0  0  0  0  0  0  0  0  0
   -3.6612    3.0177   -0.0317 C   0  0  0  0  0  0  0  0  0  0  0  0
   -5.3054    0.7603   -0.0046 C   0  0  0  0  0  0  0  0  0  0  0  0
    5.4515    1.4223    0.0019 C   0  0  0  0  0  0  0  0  0  0  0  0
    4.7538    1.3977    1.2094 C   0  0  0  0  0  0  0  0  0  0  0  0
    4.7567    1.3675   -1.2064 C   0  0  0  0  0  0  0  0  0  0  0  0
    2.6410    1.2958    2.5179 C   0  0  0  0  0  0  0  0  0  0  0  0
    2.6470    1.2313   -2.5171 C   0  0  0  0  0  0  0  0  0  0  0  0
   -5.0487    3.1626   -0.0361 C   0  0  0  0  0  0  0  0  0  0  0  0
   -5.8691    2.0363   -0.0229 C   0  0  0  0  0  0  0  0  0  0  0  0
    6.9408    1.5058    0.0028 C   0  0  0  0  0  0  0  0  0  0  0  0
  1  4  1  0
  1  5  2  0
  1  6  2  0
  1 13  1  0
  2 14  2  0
  3 18  2  0
  7 11  1  0
  7 19  1  0
  8 12  1  0
  9 10  1  0
  9 11  2  0
  9 14  1  0
 10 12  2  0
 10 18  1  0
 11 16  1  0
 12 13  1  0
 13 16  2  0
 14 15  1  0
 15 17  2  0
 15 22  1  0
 17 18  1  0
 17 23  1  0
 19 20  2  0
 19 21  1  0
 20 25  1  0
 20 27  1  0
 21 26  2  0
 21 28  1  0
 22 29  2  0
 23 30  2  0
 24 25  2  0
 24 26  1  0
 24 31  1  0
 29 30  1  0
M  END
>  <PUBCHEM_COMPOUND_CID>  (1) 
22902

>  <PUBCHEM_CONFORMER_RMSD>  (1) 
0.8

>  <PUBCHEM_CONFORMER_DIVERSEORDER>  (1) 
1
2
3

>  <PUBCHEM_MMFF94_PARTIAL_CHARGES>  (1) 
42
1 1.49
10 0.09
11 0.1
12 0.1
13 -0.01
14 0.4
15 0.09
16 -0.15
17 0.09
18 0.4
19 0.1
2 -0.57
20 -0.14
21 -0.14
22 -0.15
23 -0.15
24 -0.14
25 -0.15
26 -0.15
27 0.14
28 0.14
29 -0.15
3 -0.57
30 -0.15
31 0.14
32 0.15
33 0.4
34 0.15
35 0.15
36 0.15
37 0.15
38 0.4
39 0.4
4 -0.68
46 0.15
47 0.15
5 -0.65
51 0.5
6 -0.65
7 -0.6
8 -0.9
9 0.09

>  <PUBCHEM_EFFECTIVE_ROTOR_COUNT>  (1) 
3

>  <PUBCHEM_PHARMACOPHORE_FEATURES>  (1) 
14
1 2 acceptor
1 3 acceptor
1 4 acceptor
1 5 acceptor
1 6 acceptor
1 7 cation
1 7 donor
1 8 cation
1 8 donor
4 1 4 5 6 anion
6 15 17 22 23 29 30 rings
6 19 20 21 24 25 26 rings
6 9 10 11 12 13 16 rings
6 9 10 14 15 17 18 rings

>  <PUBCHEM_HEAVY_ATOM_COUNT>  (1) 
31

>  <PUBCHEM_ATOM_DEF_STEREO_COUNT>  (1) 
0

>  <PUBCHEM_ATOM_UDEF_STEREO_COUNT>  (1) 
0

>  <PUBCHEM_BOND_DEF_STEREO_COUNT>  (1) 
0

>  <PUBCHEM_BOND_UDEF_STEREO_COUNT>  (1) 
0

>  <PUBCHEM_ISOTOPIC_ATOM_COUNT>  (1) 
0

>  <PUBCHEM_COMPONENT_COUNT>  (1) 
1

>  <PUBCHEM_CACTVS_TAUTO_COUNT>  (1) 
9

>  <PUBCHEM_CONFORMER_ID>  (1) 
0000597600000001

>  <PUBCHEM_MMFF94_ENERGY>  (1) 
124.0525

>  <PUBCHEM_FEATURE_SELFOVERLAP>  (1) 
71.145

>  <PUBCHEM_SHAPE_FINGERPRINT>  (1) 
10050765 1 18194401079628880037
10190108 129 18268995461671912735
10411042 1 17689999363871392563
10940486 97 18119253007075716212
1100329 8 17118045019840110057
11049842 53 18189641417823648166
11582403 64 17201609320936954224
12107183 9 18334003974941739328
12236239 1 17749388213251145804
12422481 6 17750503001697532436
12788726 201 17684101548844299558
13140716 1 18265613174567220659
13540713 4 18044947775447864641
13540713 5 18055625128564981269
13617811 41 18264205993009923863
13757389 114 18193565677617558796
138480 1 17761773962334117899
140371 6 16324826055642036035
14790565 3 18409171042738113493
15042514 8 17976260462730706843
15230672 131 18409166594370430098
15297060 5 18413395336473690032
15439362 3 18192712237245266285
15664445 248 17623578548931095647
15927050 60 18412823573342666759
16752209 62 18265329697687240034
18681886 176 18262236733088137008
20511986 3 17677320762163229156
20554085 129 18201422662971186112
20642791 178 18261961730584547170
20642791 35 18267590091535786591
21033648 29 18201144564118663408
21133665 82 18410858772798635238
21279426 13 18272098162814351942
21792961 116 17632029615526993204
21796203 349 17115830642271316459
22149856 69 18192174646034542137
22311459 1 18410011057754924541
23366157 5 17971195829000286307
23559900 14 18053655889547754099
23598288 3 17752780300900761634
3298306 158 18272650138783667742
338550 245 18334297569799239774
3411729 13 18262516979260316691
350125 39 18193276290999923436
469060 322 18192734417294952313
5104073 3 18192719947719255449
5265222 85 18267311022732213668
5385378 56 18339932489651051257
57124632 79 18265043626889872233
59755656 215 18339645534116625340
59755656 520 18409442605262211956
6669772 16 18201442437232647686
79837 15 18262522618647861187
9981440 41 18334301976293423507

>  <PUBCHEM_SHAPE_MULTIPOLES>  (1) 
602.51
12.07
5.14
1.31
3.24
7.87
0.04
-12.93
0.03
-1.56
0.04
1.97
-0.43
0.11

>  <PUBCHEM_SHAPE_SELFOVERLAP>  (1) 
1332.118

>  <PUBCHEM_SHAPE_VOLUME>  (1) 
325.8

>  <PUBCHEM_COORDINATE_TYPE>  (1) 
2
5
10

$$$$
