22919
     RDKit          3D

 33 36  0  0  0  0  0  0  0  0999 V2000
   -9.5788   -1.8077    0.1554 Cl  0  0  0  0  0  0  0  0  0  0  0  0
   -0.3829   -1.5441    0.2666 O   0  0  0  0  0  0  0  0  0  0  0  0
   -2.8133   -1.5192   -0.6719 O   0  0  0  0  0  0  0  0  0  0  0  0
    8.3496   -0.7754    0.4316 O   0  0  0  0  0  0  0  0  0  0  0  0
    7.2118    1.0647    0.0594 O   0  0  0  0  0  0  0  0  0  0  0  0
    1.9321   -0.0828    0.5021 N   0  0  0  0  0  0  0  0  0  0  0  0
   -4.0634    0.3043    0.1139 N   0  0  0  0  0  0  0  0  0  0  0  0
    2.4870   -0.3967   -0.5743 N   0  0  0  0  0  0  0  0  0  0  0  0
    7.2702   -0.1815    0.1943 N   0  0  0  0  0  0  0  0  0  0  0  0
    0.6762    1.9729    0.0878 C   0  0  0  0  0  0  0  0  0  0  0  0
   -0.5630    2.6017   -0.1800 C   0  0  0  0  0  0  0  0  0  0  0  0
    0.7201    0.5769    0.2352 C   0  0  0  0  0  0  0  0  0  0  0  0
   -1.6597    0.4303   -0.1432 C   0  0  0  0  0  0  0  0  0  0  0  0
   -1.7218    1.8161   -0.2927 C   0  0  0  0  0  0  0  0  0  0  0  0
   -0.4411   -0.1881    0.1205 C   0  0  0  0  0  0  0  0  0  0  0  0
    1.8348    2.7586    0.2002 C   0  0  0  0  0  0  0  0  0  0  0  0
   -0.6071    3.9976   -0.3276 C   0  0  0  0  0  0  0  0  0  0  0  0
   -2.8843   -0.3486   -0.2676 C   0  0  0  0  0  0  0  0  0  0  0  0
    1.7726    4.1443    0.0509 C   0  0  0  0  0  0  0  0  0  0  0  0
    0.5538    4.7627   -0.2125 C   0  0  0  0  0  0  0  0  0  0  0  0
    3.6991   -1.0561   -0.3078 C   0  0  0  0  0  0  0  0  0  0  0  0
    3.7356   -2.4404   -0.1631 C   0  0  0  0  0  0  0  0  0  0  0  0
   -5.3863   -0.2025    0.1243 C   0  0  0  0  0  0  0  0  0  0  0  0
    4.8657   -0.3052   -0.1903 C   0  0  0  0  0  0  0  0  0  0  0  0
    4.9476   -3.0783    0.1011 C   0  0  0  0  0  0  0  0  0  0  0  0
    6.0777   -0.9431    0.0742 C   0  0  0  0  0  0  0  0  0  0  0  0
    6.1187   -2.3298    0.2199 C   0  0  0  0  0  0  0  0  0  0  0  0
    2.4952   -3.2636   -0.2852 C   0  0  0  0  0  0  0  0  0  0  0  0
   -5.6141   -1.5055   -0.2835 C   0  0  0  0  0  0  0  0  0  0  0  0
   -6.4207    0.6171    0.5418 C   0  0  0  0  0  0  0  0  0  0  0  0
   -6.9167   -2.0043   -0.2741 C   0  0  0  0  0  0  0  0  0  0  0  0
   -7.7233    0.1182    0.5515 C   0  0  0  0  0  0  0  0  0  0  0  0
   -7.9714   -1.1924    0.1434 C   0  0  0  0  0  0  0  0  0  0  0  0
  1 33  1  0
  2 15  1  0
  3 18  2  0
  4  9  1  0
  5  9  2  0
  6  8  2  0
  6 12  1  0
  7 18  1  0
  7 23  1  0
  8 21  1  0
  9 26  1  0
 10 11  1  0
 10 12  2  0
 10 16  1  0
 11 14  2  0
 11 17  1  0
 12 15  1  0
 13 14  1  0
 13 15  2  0
 13 18  1  0
 16 19  2  0
 17 20  2  0
 19 20  1  0
 21 22  2  0
 21 24  1  0
 22 25  1  0
 22 28  1  0
 23 29  2  0
 23 30  1  0
 24 26  2  0
 25 27  2  0
 26 27  1  0
 29 31  1  0
 30 32  2  0
 31 33  2  0
 32 33  1  0
M  CHG  2   4  -1   9   1
M  END
>  <PUBCHEM_COMPOUND_CID>  (1) 
22919

>  <PUBCHEM_CONFORMER_RMSD>  (1) 
0.8

>  <PUBCHEM_CONFORMER_DIVERSEORDER>  (1) 
4
29
14
5
20
16
31
28
22
32
6
23
30
9
24
27
19
1
25
12
26
15
21
2
3
11
13
17
10
18
8
7

>  <PUBCHEM_MMFF94_PARTIAL_CHARGES>  (1) 
45
1 -0.18
12 0.18
13 0.09
14 -0.15
15 0.08
16 -0.15
17 -0.15
18 0.54
19 -0.15
2 -0.53
20 -0.15
21 0.18
22 -0.14
23 0.12
24 -0.15
25 -0.15
26 0.13
27 -0.15
28 0.14
29 -0.15
3 -0.57
30 -0.15
31 -0.15
32 -0.15
33 0.18
34 0.15
35 0.15
36 0.15
37 0.15
38 0.15
39 0.37
4 -0.52
40 0.15
41 0.15
42 0.45
43 0.15
47 0.15
48 0.15
49 0.15
5 -0.52
50 0.15
6 -0.18
7 -0.55
8 -0.18
9 0.91

>  <PUBCHEM_EFFECTIVE_ROTOR_COUNT>  (1) 
6

>  <PUBCHEM_PHARMACOPHORE_FEATURES>  (1) 
10
1 2 donor
1 3 acceptor
1 4 acceptor
1 4 anion
1 5 acceptor
1 7 donor
6 10 11 12 13 14 15 rings
6 10 11 16 17 19 20 rings
6 21 22 24 25 26 27 rings
6 23 29 30 31 32 33 rings

>  <PUBCHEM_HEAVY_ATOM_COUNT>  (1) 
33

>  <PUBCHEM_ATOM_DEF_STEREO_COUNT>  (1) 
0

>  <PUBCHEM_ATOM_UDEF_STEREO_COUNT>  (1) 
0

>  <PUBCHEM_BOND_DEF_STEREO_COUNT>  (1) 
0

>  <PUBCHEM_BOND_UDEF_STEREO_COUNT>  (1) 
0

>  <PUBCHEM_ISOTOPIC_ATOM_COUNT>  (1) 
0

>  <PUBCHEM_COMPONENT_COUNT>  (1) 
1

>  <PUBCHEM_CACTVS_TAUTO_COUNT>  (1) 
7

>  <PUBCHEM_CONFORMER_ID>  (1) 
0000598700000004

>  <PUBCHEM_MMFF94_ENERGY>  (1) 
111.3536

>  <PUBCHEM_FEATURE_SELFOVERLAP>  (1) 
50.855

>  <PUBCHEM_SHAPE_FINGERPRINT>  (1) 
10050765 1 18050285860913149234
10411042 1 18410293571063674909
10625338 86 14836404709785098547
11456790 92 17917445246327418291
12107183 9 18270410387192323497
12166972 35 17822296755952132580
12202916 173 18407761425908421682
12516196 113 18410575067599553134
12522641 24 17560797796615819624
13248334 5 18194402418620089444
13673619 4 18040152916575818349
14068700 675 18272937111566755929
14394314 77 18338239245907303169
14790565 3 17188694139847204384
14849402 71 18338521936459985097
15021287 119 18343021104076485375
15064986 96 17846229894437401103
15347591 1 18120370957335177094
15439362 3 18121779705997063032
15849732 13 18060701697555284791
15890870 6 18263931102915085844
15927050 60 17908987952023282318
16087824 20 18338517418576681765
16992752 21 18339934723097283908
17492 89 18050004390379488726
18681886 176 18341044194880774387
19301679 30 18267866077829324382
20238998 120 18413669101937105496
21049683 271 18409450310586989276
21267235 1 18410294722794995969
21403212 168 9223232932097727164
21781055 127 16629148566883189275
22311459 1 18410856572598947270
23522609 53 18122377677287947773
23559900 14 18337668732922376251
24771293 8 18201728322897833377
24771750 20 18044666535882414500
249057 3 18341331180400901671
283562 15 18189336758096501944
3103668 31 18044091260006168101
3178227 256 18338247024414972683
335352 9 18410575119629719431
3552219 110 17917999355977244464
4461854 278 17917998303642627287
5219985 9 18409448081034420533
6004065 56 18409732884531632211
6691757 9 16128650865524928927
9962374 69 18340761663537592663

>  <PUBCHEM_SHAPE_MULTIPOLES>  (1) 
637.59
23.31
4.73
0.68
23.47
5.48
0
-20.77
-2.75
-3.88
0.39
0.15
-0.01
-0.21

>  <PUBCHEM_SHAPE_SELFOVERLAP>  (1) 
1407.453

>  <PUBCHEM_SHAPE_VOLUME>  (1) 
344.2

>  <PUBCHEM_COORDINATE_TYPE>  (1) 
2
5
10

$$$$
