22916
     RDKit          3D

 28 31  0  0  0  0  0  0  0  0999 V2000
    1.7700   -3.6098    0.1890 S   0  0  0  0  0  0  0  0  0  0  0  0
   -0.8014    2.6221    0.3265 O   0  0  0  0  0  0  0  0  0  0  0  0
   -3.3782   -2.0211   -0.2602 O   0  0  0  0  0  0  0  0  0  0  0  0
    1.7070   -4.1559   -1.3487 O   0  0  0  0  0  0  0  0  0  0  0  0
    3.1517   -3.2486    0.4594 O   0  0  0  0  0  0  0  0  0  0  0  0
    1.0651   -4.5549    1.0375 O   0  0  0  0  0  0  0  0  0  0  0  0
    1.5309    1.4651    0.5022 N   0  0  0  0  0  0  0  0  0  0  0  0
   -1.1980   -3.4081   -0.1188 N   0  0  0  0  0  0  0  0  0  0  0  0
   -0.6102    0.2639    0.1910 C   0  0  0  0  0  0  0  0  0  0  0  0
   -1.2827   -0.9503    0.0372 C   0  0  0  0  0  0  0  0  0  0  0  0
    0.7817    0.2768    0.3425 C   0  0  0  0  0  0  0  0  0  0  0  0
   -0.5635   -2.1515    0.0343 C   0  0  0  0  0  0  0  0  0  0  0  0
    0.8235   -2.1340    0.1851 C   0  0  0  0  0  0  0  0  0  0  0  0
   -2.8247    1.5103    0.0343 C   0  0  0  0  0  0  0  0  0  0  0  0
   -3.4972    0.2962   -0.1193 C   0  0  0  0  0  0  0  0  0  0  0  0
   -1.3565    1.5386    0.1946 C   0  0  0  0  0  0  0  0  0  0  0  0
   -2.7507   -0.9785   -0.1233 C   0  0  0  0  0  0  0  0  0  0  0  0
    1.4946   -0.9225    0.3388 C   0  0  0  0  0  0  0  0  0  0  0  0
   -3.5439    2.7115    0.0365 C   0  0  0  0  0  0  0  0  0  0  0  0
   -4.8890    0.2832   -0.2709 C   0  0  0  0  0  0  0  0  0  0  0  0
    2.8444    1.8159    0.1433 C   0  0  0  0  0  0  0  0  0  0  0  0
   -4.9307    2.6941   -0.1150 C   0  0  0  0  0  0  0  0  0  0  0  0
   -5.6018    1.4826   -0.2687 C   0  0  0  0  0  0  0  0  0  0  0  0
    3.5546    2.7483    0.9037 C   0  0  0  0  0  0  0  0  0  0  0  0
    3.4453    1.2340   -0.9757 C   0  0  0  0  0  0  0  0  0  0  0  0
    4.8574    3.0967    0.5473 C   0  0  0  0  0  0  0  0  0  0  0  0
    4.7481    1.5823   -1.3320 C   0  0  0  0  0  0  0  0  0  0  0  0
    5.4541    2.5137   -0.5705 C   0  0  0  0  0  0  0  0  0  0  0  0
  1  4  1  0
  1  5  2  0
  1  6  2  0
  1 13  1  0
  2 16  2  0
  3 17  2  0
  7 11  1  0
  7 21  1  0
  8 12  1  0
  9 10  1  0
  9 11  2  0
  9 16  1  0
 10 12  2  0
 10 17  1  0
 11 18  1  0
 12 13  1  0
 13 18  2  0
 14 15  2  0
 14 16  1  0
 14 19  1  0
 15 17  1  0
 15 20  1  0
 19 22  2  0
 20 23  2  0
 21 24  2  0
 21 25  1  0
 22 23  1  0
 24 26  1  0
 25 27  2  0
 26 28  2  0
 27 28  1  0
M  END
>  <PUBCHEM_COMPOUND_CID>  (1) 
22916

>  <PUBCHEM_CONFORMER_RMSD>  (1) 
0.8

>  <PUBCHEM_CONFORMER_DIVERSEORDER>  (1) 
1
3
4
2

>  <PUBCHEM_MMFF94_PARTIAL_CHARGES>  (1) 
42
1 1.49
10 0.09
11 0.1
12 0.1
13 -0.01
14 0.09
15 0.09
16 0.4
17 0.4
18 -0.15
19 -0.15
2 -0.57
20 -0.15
21 0.1
22 -0.15
23 -0.15
24 -0.15
25 -0.15
26 -0.15
27 -0.15
28 -0.15
29 0.15
3 -0.57
30 0.4
31 0.15
32 0.15
33 0.4
34 0.4
35 0.15
36 0.15
37 0.15
38 0.15
39 0.5
4 -0.68
40 0.15
41 0.15
42 0.15
5 -0.65
6 -0.65
7 -0.6
8 -0.9
9 0.09

>  <PUBCHEM_EFFECTIVE_ROTOR_COUNT>  (1) 
3

>  <PUBCHEM_PHARMACOPHORE_FEATURES>  (1) 
14
1 2 acceptor
1 3 acceptor
1 4 acceptor
1 5 acceptor
1 6 acceptor
1 7 cation
1 7 donor
1 8 cation
1 8 donor
4 1 4 5 6 anion
6 14 15 19 20 22 23 rings
6 21 24 25 26 27 28 rings
6 9 10 11 12 13 18 rings
6 9 10 14 15 16 17 rings

>  <PUBCHEM_HEAVY_ATOM_COUNT>  (1) 
28

>  <PUBCHEM_ATOM_DEF_STEREO_COUNT>  (1) 
0

>  <PUBCHEM_ATOM_UDEF_STEREO_COUNT>  (1) 
0

>  <PUBCHEM_BOND_DEF_STEREO_COUNT>  (1) 
0

>  <PUBCHEM_BOND_UDEF_STEREO_COUNT>  (1) 
0

>  <PUBCHEM_ISOTOPIC_ATOM_COUNT>  (1) 
0

>  <PUBCHEM_COMPONENT_COUNT>  (1) 
1

>  <PUBCHEM_CACTVS_TAUTO_COUNT>  (1) 
9

>  <PUBCHEM_CONFORMER_ID>  (1) 
0000598400000001

>  <PUBCHEM_MMFF94_ENERGY>  (1) 
110.1812

>  <PUBCHEM_FEATURE_SELFOVERLAP>  (1) 
71.145

>  <PUBCHEM_SHAPE_FINGERPRINT>  (1) 
10050765 1 18266458716595271505
10190108 129 18121513594598087187
10319926 262 17910375519473287192
10411042 1 17545881534015973467
107951 10 18340211907079672182
10940486 97 15238933335423417774
1100329 8 18338233735411670730
12107183 9 18262784260409714800
12173636 292 18266455601899599716
12236239 1 17604422037535272656
12293681 160 18060425745759181496
12390115 104 18342188790516849969
12422481 6 17750212760893218892
12788726 201 17395304971765025228
13140716 1 18336827485988624355
13540713 4 18187655644374268609
13540713 5 18128528277009239117
138480 1 17978507533694968265
140371 6 17982735168778619706
14114211 68 18191613928250745932
14251757 5 17832158486453898772
14659021 117 17480001430431470588
14790565 3 18410293639836055200
14955137 171 17260497784967582785
15042514 8 17687749758453342178
15230672 131 18335704971312316412
15664445 248 17910965638508815478
15927050 60 18412825819832004703
16087824 20 18267301114723268535
167882 2 18337111155144827928
18681886 176 18053095125632998738
19591789 44 18267304407474827314
20554085 129 18130488808788192144
20600515 1 17119443607288510448
21033648 29 18198056078795403520
21796203 349 17474990556158719091
22311459 1 18338515352750107809
22393880 68 18342183275651669908
23366157 5 18115869594378212475
23559900 14 18196925583061868603
283562 15 18196089061372636691
3298306 158 18343023311262271300
350125 39 18264487295650079932
469060 322 18046929322670147209
5104073 3 18334862659031750433
5265222 85 18193006039010822972
5385378 56 18338806628261926641
59755656 215 18410014304185555372
59755656 520 18335696204572389796
67856867 119 18337667499549376201
79837 15 18117845618779454298
9981440 41 18334857272266807947

>  <PUBCHEM_SHAPE_MULTIPOLES>  (1) 
540.77
10.54
5.64
0.88
0.76
6.21
-0.12
-12.03
-1.81
-3.86
0.41
-0.79
0.05
-0.1

>  <PUBCHEM_SHAPE_SELFOVERLAP>  (1) 
1204.605

>  <PUBCHEM_SHAPE_VOLUME>  (1) 
287.3

>  <PUBCHEM_COORDINATE_TYPE>  (1) 
2
5
10

$$$$
