22920
     RDKit          3D

 32 35  0  0  0  0  0  0  0  0999 V2000
    1.2826   -3.2346    0.3104 Cl  0  0  0  0  0  0  0  0  0  0  0  0
    7.3103   -1.6997   -0.1476 Cl  0  0  0  0  0  0  0  0  0  0  0  0
   -0.5906   -0.5185    0.8436 O   0  0  0  0  0  0  0  0  0  0  0  0
   -3.4327    2.2669    0.6910 O   0  0  0  0  0  0  0  0  0  0  0  0
   -3.2973   -2.6537   -0.5947 O   0  0  0  0  0  0  0  0  0  0  0  0
   -2.9633    0.0542    0.0672 N   0  0  0  0  0  0  0  0  0  0  0  0
    2.0795    0.1024    0.6553 N   0  0  0  0  0  0  0  0  0  0  0  0
    2.3567   -0.4911   -0.4105 N   0  0  0  0  0  0  0  0  0  0  0  0
    1.5024    2.4031    0.0648 C   0  0  0  0  0  0  0  0  0  0  0  0
    0.5049    3.3773   -0.1772 C   0  0  0  0  0  0  0  0  0  0  0  0
   -1.2126    1.7135    0.2712 C   0  0  0  0  0  0  0  0  0  0  0  0
    1.1174    1.0966    0.4072 C   0  0  0  0  0  0  0  0  0  0  0  0
   -0.8482    3.0164   -0.0701 C   0  0  0  0  0  0  0  0  0  0  0  0
   -0.2316    0.7554    0.5096 C   0  0  0  0  0  0  0  0  0  0  0  0
    2.8553    2.7641   -0.0427 C   0  0  0  0  0  0  0  0  0  0  0  0
    0.8896    4.6838   -0.5198 C   0  0  0  0  0  0  0  0  0  0  0  0
   -2.6269    1.3795    0.3718 C   0  0  0  0  0  0  0  0  0  0  0  0
    3.2195    4.0670   -0.3837 C   0  0  0  0  0  0  0  0  0  0  0  0
    2.2385    5.0251   -0.6218 C   0  0  0  0  0  0  0  0  0  0  0  0
   -4.2456   -0.5477    0.0548 C   0  0  0  0  0  0  0  0  0  0  0  0
   -4.3779   -1.8861   -0.2756 C   0  0  0  0  0  0  0  0  0  0  0  0
   -5.3465    0.2285    0.3782 C   0  0  0  0  0  0  0  0  0  0  0  0
   -5.6469   -2.4651   -0.2833 C   0  0  0  0  0  0  0  0  0  0  0  0
   -6.6155   -0.3503    0.3706 C   0  0  0  0  0  0  0  0  0  0  0  0
   -6.7657   -1.6971    0.0396 C   0  0  0  0  0  0  0  0  0  0  0  0
    3.3189   -1.4851   -0.1629 C   0  0  0  0  0  0  0  0  0  0  0  0
    2.9434   -2.7826    0.1768 C   0  0  0  0  0  0  0  0  0  0  0  0
    4.6663   -1.1470   -0.2640 C   0  0  0  0  0  0  0  0  0  0  0  0
    5.6442   -2.1123   -0.0237 C   0  0  0  0  0  0  0  0  0  0  0  0
    3.9213   -3.7479    0.4172 C   0  0  0  0  0  0  0  0  0  0  0  0
   -2.9214   -2.7025   -1.9691 C   0  0  0  0  0  0  0  0  0  0  0  0
    5.2716   -3.4126    0.3171 C   0  0  0  0  0  0  0  0  0  0  0  0
  1 27  1  0
  2 29  1  0
  3 14  1  0
  4 17  2  0
  5 21  1  0
  5 31  1  0
  6 17  1  0
  6 20  1  0
  7  8  2  0
  7 12  1  0
  8 26  1  0
  9 10  1  0
  9 12  2  0
  9 15  1  0
 10 13  2  0
 10 16  1  0
 11 13  1  0
 11 14  2  0
 11 17  1  0
 12 14  1  0
 15 18  2  0
 16 19  2  0
 18 19  1  0
 20 21  2  0
 20 22  1  0
 21 23  1  0
 22 24  2  0
 23 25  2  0
 24 25  1  0
 26 27  2  0
 26 28  1  0
 27 30  1  0
 28 29  2  0
 29 32  1  0
 30 32  2  0
M  END
>  <PUBCHEM_COMPOUND_CID>  (1) 
22920

>  <PUBCHEM_CONFORMER_RMSD>  (1) 
0.8

>  <PUBCHEM_CONFORMER_DIVERSEORDER>  (1) 
1
93
45
80
41
50
86
97
69
58
28
46
56
59
14
65
91
18
79
2
96
11
83
53
88
55
16
99
75
51
57
25
87
43
47
54
7
19
60
71
72
32
6
3
98
12
31
84
73
10
17
15
89
49
70
24
5
21
26
23
101
38
20
100
66
36
82
94
37
42
22
81
29
40
34
44
67
9
4
77
30
52
27
64
92
85
74
8
68
48
95
33
13
35
90
63
62
76
78
39
61

>  <PUBCHEM_MMFF94_PARTIAL_CHARGES>  (1) 
44
1 -0.18
11 0.09
12 0.18
13 -0.15
14 0.08
15 -0.15
16 -0.15
17 0.54
18 -0.15
19 -0.15
2 -0.18
20 0.12
21 0.08
22 -0.15
23 -0.15
24 -0.15
25 -0.15
26 0.18
27 0.18
28 -0.15
29 0.18
3 -0.53
30 -0.15
31 0.28
32 -0.15
33 0.15
34 0.15
35 0.15
36 0.15
37 0.15
38 0.37
39 0.15
4 -0.57
40 0.45
41 0.15
42 0.15
43 0.15
44 0.15
45 0.15
49 0.15
5 -0.36
6 -0.55
7 -0.18
8 -0.18

>  <PUBCHEM_EFFECTIVE_ROTOR_COUNT>  (1) 
6

>  <PUBCHEM_PHARMACOPHORE_FEATURES>  (1) 
8
1 3 donor
1 4 acceptor
1 5 acceptor
1 6 donor
6 20 21 22 23 24 25 rings
6 26 27 28 29 30 32 rings
6 9 10 11 12 13 14 rings
6 9 10 15 16 18 19 rings

>  <PUBCHEM_HEAVY_ATOM_COUNT>  (1) 
32

>  <PUBCHEM_ATOM_DEF_STEREO_COUNT>  (1) 
0

>  <PUBCHEM_ATOM_UDEF_STEREO_COUNT>  (1) 
0

>  <PUBCHEM_BOND_DEF_STEREO_COUNT>  (1) 
0

>  <PUBCHEM_BOND_UDEF_STEREO_COUNT>  (1) 
0

>  <PUBCHEM_ISOTOPIC_ATOM_COUNT>  (1) 
0

>  <PUBCHEM_COMPONENT_COUNT>  (1) 
1

>  <PUBCHEM_CACTVS_TAUTO_COUNT>  (1) 
7

>  <PUBCHEM_CONFORMER_ID>  (1) 
0000598800000001

>  <PUBCHEM_MMFF94_ENERGY>  (1) 
113.364

>  <PUBCHEM_FEATURE_SELFOVERLAP>  (1) 
40.638

>  <PUBCHEM_SHAPE_FINGERPRINT>  (1) 
10050765 1 18411139126029817329
10100884 174 18042965381616789082
10411042 1 18337391539569084552
10622 236 17843946269227763279
10940486 97 18268156365799448925
11135926 11 18194955481716362813
117089 54 18265902548069020867
11719270 70 18122056769810161416
11756154 67 18267870488712848942
11963148 33 17837769298765365855
12107183 9 18269848523681044361
12293681 25 17896897627464078328
12788726 201 17683244660103477264
13009979 54 18130794425475562017
1361 2 18337391660197733048
13690498 29 18113899304370689229
13692114 37 17547560939131812457
138480 1 18409730659975838920
14068700 675 18272371953609273544
14117953 113 18271526382387266231
14394314 77 18265901263308121113
14415361 349 17774995756856382319
14790565 3 17545604912542094397
15250474 111 17983285217304353263
15320467 1 17329711432056903195
15400415 2 16608568664196564988
15439362 3 18192432089429475661
15927050 60 17980202216411457982
16087824 20 18122063109909818781
17492 89 18338799035065383891
17686467 74 18341884144971948634
18681886 176 18411133632755667874
19319366 153 17837772592672426725
20028762 73 18126285487636326372
21049683 271 18408891737505760492
21133410 171 17175699144772401795
21781055 127 16772700779241238027
21796203 349 18049482267725287954
23559900 14 18411691111089247233
24771293 8 18056460959223304386
255183 451 18412829083526491340
3421961 26 18411698807121976297
4280585 95 18336820884412822216
4409770 3 17685209474160424181
44880168 125 17202758177460832622
463206 1 18335148561281245442
5309563 4 18337955589145078720
6700243 42 17698469649590625958
70251023 43 18335141985876018265
7970288 3 18338233756665149427

>  <PUBCHEM_SHAPE_MULTIPOLES>  (1) 
629.73
14.98
6.8
0.86
7.82
6.27
0.23
-16.82
0
-7.26
1.17
0.39
-0.27
-1.7

>  <PUBCHEM_SHAPE_SELFOVERLAP>  (1) 
1377.273

>  <PUBCHEM_SHAPE_VOLUME>  (1) 
342.8

>  <PUBCHEM_COORDINATE_TYPE>  (1) 
2
5
10

$$$$
