22924
     RDKit          3D

 16 18  0  0  1  0  0  0  0  0999 V2000
    0.1644    0.3548    1.0888 C   0  0  0  0  0  0  0  0  0  0  0  0
   -1.4620    1.7713   -0.1777 C   0  0  0  0  0  0  0  0  0  0  0  0
   -0.4388    1.7787    0.9814 C   0  0  0  0  0  0  0  0  0  0  0  0
   -0.9413   -0.4712    0.4844 C   0  0  0  0  0  0  0  0  0  0  0  0
   -1.8629    0.3241   -0.2103 C   0  0  0  0  0  0  0  0  0  0  0  0
    1.5104    0.1404    0.4294 C   0  0  0  0  0  0  0  0  0  0  0  0
   -2.6048    2.7479    0.0631 C   0  0  0  0  0  0  0  0  0  0  0  0
   -1.1009   -1.8480    0.5600 C   0  0  0  0  0  0  0  0  0  0  0  0
   -2.9466   -0.2516   -0.8580 C   0  0  0  0  0  0  0  0  0  0  0  0
    2.3985   -0.8018    0.9477 C   0  0  0  0  0  0  0  0  0  0  0  0
    1.8619    0.8856   -0.6959 C   0  0  0  0  0  0  0  0  0  0  0  0
   -2.1966   -2.4292   -0.0797 C   0  0  0  0  0  0  0  0  0  0  0  0
   -3.1124   -1.6364   -0.7853 C   0  0  0  0  0  0  0  0  0  0  0  0
    3.6387   -0.9990    0.3404 C   0  0  0  0  0  0  0  0  0  0  0  0
    3.1020    0.6884   -1.3033 C   0  0  0  0  0  0  0  0  0  0  0  0
    3.9904   -0.2539   -0.7849 C   0  0  0  0  0  0  0  0  0  0  0  0
  1  3  1  0
  1  4  1  0
  1  6  1  0
  2  3  1  0
  2  5  1  0
  2  7  1  0
  4  5  2  0
  4  8  1  0
  5  9  1  0
  6 10  2  0
  6 11  1  0
  8 12  2  0
  9 13  2  0
 10 14  1  0
 11 15  2  0
 12 13  1  0
 14 16  2  0
 15 16  1  0
M  END
>  <PUBCHEM_COMPOUND_CID>  (1) 
22924

>  <PUBCHEM_CONFORMER_RMSD>  (1) 
0.6

>  <PUBCHEM_CONFORMER_DIVERSEORDER>  (1) 
4
8
3
1
6
7
2
5

>  <PUBCHEM_MMFF94_PARTIAL_CHARGES>  (1) 
23
1 0.29
10 -0.15
11 -0.15
12 -0.15
13 -0.15
14 -0.15
15 -0.15
16 -0.15
2 0.14
24 0.15
25 0.15
26 0.15
27 0.15
28 0.15
29 0.15
30 0.15
31 0.15
32 0.15
4 -0.14
5 -0.14
6 -0.14
8 -0.15
9 -0.15

>  <PUBCHEM_EFFECTIVE_ROTOR_COUNT>  (1) 
1.6

>  <PUBCHEM_PHARMACOPHORE_FEATURES>  (1) 
3
5 1 2 3 4 5 rings
6 4 5 8 9 12 13 rings
6 6 10 11 14 15 16 rings

>  <PUBCHEM_HEAVY_ATOM_COUNT>  (1) 
16

>  <PUBCHEM_ATOM_DEF_STEREO_COUNT>  (1) 
0

>  <PUBCHEM_ATOM_UDEF_STEREO_COUNT>  (1) 
2

>  <PUBCHEM_BOND_DEF_STEREO_COUNT>  (1) 
0

>  <PUBCHEM_BOND_UDEF_STEREO_COUNT>  (1) 
0

>  <PUBCHEM_ISOTOPIC_ATOM_COUNT>  (1) 
0

>  <PUBCHEM_COMPONENT_COUNT>  (1) 
1

>  <PUBCHEM_CACTVS_TAUTO_COUNT>  (1) 
1

>  <PUBCHEM_CONFORMER_ID>  (1) 
0000598C00000004

>  <PUBCHEM_MMFF94_ENERGY>  (1) 
48.8019

>  <PUBCHEM_FEATURE_SELFOVERLAP>  (1) 
15.303

>  <PUBCHEM_SHAPE_FINGERPRINT>  (1) 
10062212 137 18190451675803799058
11127187 94 18410852200564807407
11206711 2 18411980264844717709
11578080 2 17463086324544083500
11582403 64 15469077886425937840
12173636 292 18337948970284335061
12202030 40 17059796437321844086
12400797 292 18043252542453744332
12500047 106 18269267959565152888
12553582 1 18267584791720235971
12592029 89 17902241018084229265
13296908 3 17275100630950845008
14115302 16 18334287686683839799
14250199 8 17749678492593893420
15279307 12 18190181183047778338
15502708 8 18413393124639099225
15775835 57 17968949569541503636
15852999 172 17843121402997479998
15906896 17 18262252018749337905
16752209 62 18339348687478121459
16945 1 18409725183834306601
17134986 127 17831015719878266341
18186145 218 15285349626768571738
18219364 16 14707220936779536916
19862831 5 17895188930728763230
19868273 293 18337674092266315640
200 152 18334575789164437726
20361792 2 17845655987573682815
20645476 183 18190463761873177809
20871999 31 18342455924228208189
21524375 3 17972603182287976201
22112679 90 17823678799197870560
22802520 49 18341609386295174075
23402539 116 18411692171312919733
23419403 2 17325147191954689352
23557571 272 18202559588481064000
23559900 14 18058157338082051914
23598291 2 17896031040866760154
27216 239 12252476608265941958
2748010 2 17979055404498339235
298252 57 18046628906339573849
3082319 5 18040997358247956222
5262128 65 18266200472415884780
559249 180 18192428563926113426
6992083 37 18042406829065143404
7364860 26 17404016423903784137
74978 22 18409170983014395936
7615 1 18040992930358252584
77492 1 17968090881087934464
81228 2 18410568530923151185
84936 31 16627986519666680344
90525 40 18263085422455784251
9709674 26 18271810086336192454
9981440 41 17464264099329729624

>  <PUBCHEM_SHAPE_MULTIPOLES>  (1) 
329.27
6.13
2.45
1.12
4.34
0.4
-0.04
-1.27
-1.96
-2.68
0.14
0.4
0.06
-0.65

>  <PUBCHEM_SHAPE_SELFOVERLAP>  (1) 
721.546

>  <PUBCHEM_SHAPE_VOLUME>  (1) 
167.2

>  <PUBCHEM_COORDINATE_TYPE>  (1) 
2
5
10

$$$$
