22926
     RDKit          3D

 48 53  0  0  0  0  0  0  0  0999 V2000
    3.2434   -3.7644   -0.3769 S   0  0  0  0  0  0  0  0  0  0  0  0
   -8.2391    0.1826    0.0436 S   0  0  0  0  0  0  0  0  0  0  0  0
   -3.1905   -3.4199    0.3662 O   0  0  0  0  0  0  0  0  0  0  0  0
   -2.7774    2.4019   -0.3801 O   0  0  0  0  0  0  0  0  0  0  0  0
    3.6722   -3.2614    1.1144 O   0  0  0  0  0  0  0  0  0  0  0  0
    3.9911   -4.9763   -0.6569 O   0  0  0  0  0  0  0  0  0  0  0  0
    3.2883   -2.6276   -1.2765 O   0  0  0  0  0  0  0  0  0  0  0  0
   -9.0029    0.6168   -1.3317 O   0  0  0  0  0  0  0  0  0  0  0  0
   -8.0583   -1.2577    0.0001 O   0  0  0  0  0  0  0  0  0  0  0  0
   -8.9095    0.8211    1.1613 O   0  0  0  0  0  0  0  0  0  0  0  0
    1.9332   -1.3160   -0.0293 N   0  0  0  0  0  0  0  0  0  0  0  0
   -2.7557   -0.6928    0.5467 N   0  0  0  0  0  0  0  0  0  0  0  0
   -3.2113   -0.3251   -0.5609 N   0  0  0  0  0  0  0  0  0  0  0  0
    1.9342   -0.2653    0.6523 N   0  0  0  0  0  0  0  0  0  0  0  0
    0.4763   -3.3259   -0.0339 C   0  0  0  0  0  0  0  0  0  0  0  0
   -0.8383   -3.8399    0.0691 C   0  0  0  0  0  0  0  0  0  0  0  0
    1.5474   -4.2133   -0.2274 C   0  0  0  0  0  0  0  0  0  0  0  0
    0.6810   -1.9396    0.0592 C   0  0  0  0  0  0  0  0  0  0  0  0
   -6.4441    2.3069    0.0201 C   0  0  0  0  0  0  0  0  0  0  0  0
   -1.9094   -2.9523    0.2625 C   0  0  0  0  0  0  0  0  0  0  0  0
   -5.1298    2.8215   -0.0837 C   0  0  0  0  0  0  0  0  0  0  0  0
   -6.6484    0.9205   -0.0728 C   0  0  0  0  0  0  0  0  0  0  0  0
   -1.6876   -1.5777    0.3532 C   0  0  0  0  0  0  0  0  0  0  0  0
   -1.0429   -5.2262   -0.0244 C   0  0  0  0  0  0  0  0  0  0  0  0
   -0.3949   -1.0723    0.2515 C   0  0  0  0  0  0  0  0  0  0  0  0
    1.3259   -5.5878   -0.3177 C   0  0  0  0  0  0  0  0  0  0  0  0
   -4.0584    1.9342   -0.2773 C   0  0  0  0  0  0  0  0  0  0  0  0
   -4.2833    0.5626   -0.3662 C   0  0  0  0  0  0  0  0  0  0  0  0
   -5.5721    0.0537   -0.2650 C   0  0  0  0  0  0  0  0  0  0  0  0
    0.0331   -6.0932   -0.2164 C   0  0  0  0  0  0  0  0  0  0  0  0
   -7.5156    3.1939    0.2136 C   0  0  0  0  0  0  0  0  0  0  0  0
   -4.9257    4.2079    0.0089 C   0  0  0  0  0  0  0  0  0  0  0  0
    5.6890    1.5794    0.4198 C   0  0  0  0  0  0  0  0  0  0  0  0
    3.4472    1.2950   -0.4351 C   0  0  0  0  0  0  0  0  0  0  0  0
    3.1896    0.3601    0.5639 C   0  0  0  0  0  0  0  0  0  0  0  0
    6.9880    2.2121    0.3448 C   0  0  0  0  0  0  0  0  0  0  0  0
   -7.2945    4.5685    0.3038 C   0  0  0  0  0  0  0  0  0  0  0  0
    4.6992    1.9058   -0.5073 C   0  0  0  0  0  0  0  0  0  0  0  0
   -6.0020    5.0745    0.2016 C   0  0  0  0  0  0  0  0  0  0  0  0
    5.4269    0.6423    1.4191 C   0  0  0  0  0  0  0  0  0  0  0  0
    4.1750    0.0314    1.4912 C   0  0  0  0  0  0  0  0  0  0  0  0
    7.4943    2.6219   -0.8887 C   0  0  0  0  0  0  0  0  0  0  0  0
    8.7474    3.2307   -0.9608 C   0  0  0  0  0  0  0  0  0  0  0  0
    7.7347    2.4112    1.5061 C   0  0  0  0  0  0  0  0  0  0  0  0
    2.4033    1.6600   -1.4394 C   0  0  0  0  0  0  0  0  0  0  0  0
    9.4939    3.4298    0.2007 C   0  0  0  0  0  0  0  0  0  0  0  0
    8.9876    3.0198    1.4341 C   0  0  0  0  0  0  0  0  0  0  0  0
    9.2898    3.6688   -2.2793 C   0  0  0  0  0  0  0  0  0  0  0  0
  1  5  1  0
  1  6  2  0
  1  7  2  0
  1 17  1  0
  2  8  1  0
  2  9  2  0
  2 10  2  0
  2 22  1  0
  3 20  1  0
  4 27  1  0
 11 14  2  0
 11 18  1  0
 12 13  2  0
 12 23  1  0
 13 28  1  0
 14 35  1  0
 15 16  1  0
 15 17  2  0
 15 18  1  0
 16 20  1  0
 16 24  2  0
 17 26  1  0
 18 25  2  0
 19 21  1  0
 19 22  2  0
 19 31  1  0
 20 23  2  0
 21 27  2  0
 21 32  1  0
 22 29  1  0
 23 25  1  0
 24 30  1  0
 26 30  2  0
 27 28  1  0
 28 29  2  0
 31 37  2  0
 32 39  2  0
 33 36  1  0
 33 38  2  0
 33 40  1  0
 34 35  2  0
 34 38  1  0
 34 45  1  0
 35 41  1  0
 36 42  2  0
 36 44  1  0
 37 39  1  0
 40 41  2  0
 42 43  1  0
 43 46  2  0
 43 48  1  0
 44 47  2  0
 46 47  1  0
M  END
>  <PUBCHEM_COMPOUND_CID>  (1) 
22926

>  <PUBCHEM_CONFORMER_RMSD>  (1) 
1

>  <PUBCHEM_CONFORMER_DIVERSEORDER>  (1) 
1
25
24
17
30
35
34
26
23
7
38
31
11
28
22
18
33
16
10
12
37
19
15
36
27
21
4
32
20
14
5
13
6
9
8
29
3
2

>  <PUBCHEM_MMFF94_PARTIAL_CHARGES>  (1) 
62
1 1.49
10 -0.65
11 -0.18
12 -0.18
13 -0.18
14 -0.18
17 -0.01
18 0.18
2 1.49
20 0.08
22 -0.01
23 0.18
24 -0.15
25 -0.15
26 -0.15
27 0.08
28 0.18
29 -0.15
3 -0.53
30 -0.15
31 -0.15
32 -0.15
34 -0.14
35 0.18
37 -0.15
38 -0.15
39 -0.15
4 -0.53
40 -0.15
41 -0.15
42 -0.15
43 -0.14
44 -0.15
45 0.14
46 -0.15
47 -0.15
48 0.14
49 0.15
5 -0.68
50 0.15
51 0.15
52 0.15
53 0.15
54 0.15
55 0.15
56 0.15
57 0.15
58 0.15
59 0.15
6 -0.65
60 0.15
61 0.15
62 0.45
63 0.15
67 0.45
68 0.5
69 0.15
7 -0.65
70 0.15
71 0.5
8 -0.68
9 -0.65

>  <PUBCHEM_EFFECTIVE_ROTOR_COUNT>  (1) 
7

>  <PUBCHEM_PHARMACOPHORE_FEATURES>  (1) 
16
1 10 acceptor
1 3 donor
1 4 donor
1 5 acceptor
1 6 acceptor
1 7 acceptor
1 8 acceptor
1 9 acceptor
4 1 5 6 7 anion
4 2 8 9 10 anion
6 15 16 17 24 26 30 rings
6 15 16 18 20 23 25 rings
6 19 21 22 27 28 29 rings
6 19 21 31 32 37 39 rings
6 33 34 35 38 40 41 rings
6 36 42 43 44 46 47 rings

>  <PUBCHEM_HEAVY_ATOM_COUNT>  (1) 
48

>  <PUBCHEM_ATOM_DEF_STEREO_COUNT>  (1) 
0

>  <PUBCHEM_ATOM_UDEF_STEREO_COUNT>  (1) 
0

>  <PUBCHEM_BOND_DEF_STEREO_COUNT>  (1) 
0

>  <PUBCHEM_BOND_UDEF_STEREO_COUNT>  (1) 
0

>  <PUBCHEM_ISOTOPIC_ATOM_COUNT>  (1) 
0

>  <PUBCHEM_COMPONENT_COUNT>  (1) 
1

>  <PUBCHEM_CACTVS_TAUTO_COUNT>  (1) 
14

>  <PUBCHEM_CONFORMER_ID>  (1) 
0000598E00000001

>  <PUBCHEM_MMFF94_ENERGY>  (1) 
167.1478

>  <PUBCHEM_FEATURE_SELFOVERLAP>  (1) 
81.367

>  <PUBCHEM_SHAPE_FINGERPRINT>  (1) 
10190206 1 18198890582825627799
10675989 125 18195526991713515754
11136131 41 18261107418254773467
12522641 68 18201718491681621206
13248334 5 18122623847106101034
14294032 229 18198623418252795611
14937079 2 18267018367792718298
15152005 290 18410854386887705616
15198563 99 17838888588005500710
15400415 2 18411131407951954744
15439362 3 18412544293674356462
15773879 134 18268700624581836007
15890870 6 18411135861548190993
16664035 1 17906452126571984386
19053607 189 18340754979871888672
19309040 13 18272363140241462917
21133410 127 18115585924711112020
21987440 362 18411425029618308206
23522609 53 17605279683044622876
23729398 52 18195248815583762478
24771293 8 18407760335608967293
24771750 20 18343022155779886622
25269216 80 16773220912639019989
4516262 110 18337944594435418829
4760202 70 18272639140379939831
5109719 28 18340210700531530611
5776283 40 18342735264638315609
6703917 75 18411985788257485177
9896288 288 18190462864610947426
99344 41 18410008798190481817

>  <PUBCHEM_SHAPE_MULTIPOLES>  (1) 
928.64
29.48
9.12
1.16
6.96
10.11
0.11
-51.83
0.57
1.3
1.01
2.49
-0.73
-0.87

>  <PUBCHEM_SHAPE_SELFOVERLAP>  (1) 
2064.832

>  <PUBCHEM_SHAPE_VOLUME>  (1) 
496.1

>  <PUBCHEM_COORDINATE_TYPE>  (1) 
2
5
10

$$$$
