22936
     RDKit          3D

 32 35  0  0  0  0  0  0  0  0999 V2000
   -0.0589   -4.0156   -0.1819 S   0  0  0  0  0  0  0  0  0  0  0  0
   -1.2797    2.6060   -0.5449 O   0  0  0  0  0  0  0  0  0  0  0  0
   -4.6797   -1.3363    0.6560 O   0  0  0  0  0  0  0  0  0  0  0  0
   -0.7434   -4.7342   -1.4789 O   0  0  0  0  0  0  0  0  0  0  0  0
    1.3720   -3.9564   -0.4299 O   0  0  0  0  0  0  0  0  0  0  0  0
   -0.5839   -4.6448    1.0174 O   0  0  0  0  0  0  0  0  0  0  0  0
    6.6214    0.0247    1.8760 O   0  0  0  0  0  0  0  0  0  0  0  0
    0.7264    0.9677   -0.8601 N   0  0  0  0  0  0  0  0  0  0  0  0
   -2.8657   -3.1648    0.4037 N   0  0  0  0  0  0  0  0  0  0  0  0
    6.2596    1.2777   -0.0881 N   0  0  0  0  0  0  0  0  0  0  0  0
   -1.5671    0.2728   -0.2443 C   0  0  0  0  0  0  0  0  0  0  0  0
   -2.4551   -0.7584    0.0691 C   0  0  0  0  0  0  0  0  0  0  0  0
   -0.2295   -0.0216   -0.5344 C   0  0  0  0  0  0  0  0  0  0  0  0
   -2.0055   -2.0841    0.0921 C   0  0  0  0  0  0  0  0  0  0  0  0
   -0.6717   -2.3731   -0.1978 C   0  0  0  0  0  0  0  0  0  0  0  0
   -3.4420    1.9725    0.0361 C   0  0  0  0  0  0  0  0  0  0  0  0
   -4.3299    0.9413    0.3498 C   0  0  0  0  0  0  0  0  0  0  0  0
   -2.0283    1.6758   -0.2728 C   0  0  0  0  0  0  0  0  0  0  0  0
   -3.8690   -0.4618    0.3777 C   0  0  0  0  0  0  0  0  0  0  0  0
    0.2143   -1.3441   -0.5104 C   0  0  0  0  0  0  0  0  0  0  0  0
   -3.8915    3.2982    0.0133 C   0  0  0  0  0  0  0  0  0  0  0  0
   -5.6674    1.2358    0.6406 C   0  0  0  0  0  0  0  0  0  0  0  0
    2.1168    1.0466   -0.6659 C   0  0  0  0  0  0  0  0  0  0  0  0
   -5.2251    3.5873    0.3037 C   0  0  0  0  0  0  0  0  0  0  0  0
   -6.1112    2.5583    0.6165 C   0  0  0  0  0  0  0  0  0  0  0  0
    2.9118    1.7613   -1.5650 C   0  0  0  0  0  0  0  0  0  0  0  0
    2.7096    0.4093    0.4271 C   0  0  0  0  0  0  0  0  0  0  0  0
    4.8800    1.2009   -0.2803 C   0  0  0  0  0  0  0  0  0  0  0  0
    4.2912    1.8382   -1.3727 C   0  0  0  0  0  0  0  0  0  0  0  0
    4.0890    0.4863    0.6195 C   0  0  0  0  0  0  0  0  0  0  0  0
    7.0229    0.7087    0.9401 C   0  0  0  0  0  0  0  0  0  0  0  0
    8.4895    1.0261    0.7891 C   0  0  0  0  0  0  0  0  0  0  0  0
  1  4  1  0
  1  5  2  0
  1  6  2  0
  1 15  1  0
  2 18  2  0
  3 19  2  0
  7 31  2  0
  8 13  1  0
  8 23  1  0
  9 14  1  0
 10 28  1  0
 10 31  1  0
 11 12  1  0
 11 13  2  0
 11 18  1  0
 12 14  2  0
 12 19  1  0
 13 20  1  0
 14 15  1  0
 15 20  2  0
 16 17  2  0
 16 18  1  0
 16 21  1  0
 17 19  1  0
 17 22  1  0
 21 24  2  0
 22 25  2  0
 23 26  2  0
 23 27  1  0
 24 25  1  0
 26 29  1  0
 27 30  2  0
 28 29  2  0
 28 30  1  0
 31 32  1  0
M  END
>  <PUBCHEM_COMPOUND_CID>  (1) 
22936

>  <PUBCHEM_CONFORMER_RMSD>  (1) 
0.8

>  <PUBCHEM_CONFORMER_DIVERSEORDER>  (1) 
2
7
5
3
8
6
1
4

>  <PUBCHEM_MMFF94_PARTIAL_CHARGES>  (1) 
46
1 1.49
10 -0.55
11 0.09
12 0.09
13 0.1
14 0.1
15 -0.01
16 0.09
17 0.09
18 0.4
19 0.4
2 -0.57
20 -0.15
21 -0.15
22 -0.15
23 0.1
24 -0.15
25 -0.15
26 -0.15
27 -0.15
28 0.12
29 -0.15
3 -0.57
30 -0.15
31 0.57
32 0.06
33 0.15
34 0.4
35 0.15
36 0.15
37 0.4
38 0.4
39 0.15
4 -0.68
40 0.15
41 0.15
42 0.15
43 0.15
44 0.15
45 0.5
46 0.37
5 -0.65
6 -0.65
7 -0.57
8 -0.6
9 -0.9

>  <PUBCHEM_EFFECTIVE_ROTOR_COUNT>  (1) 
5

>  <PUBCHEM_PHARMACOPHORE_FEATURES>  (1) 
16
1 10 donor
1 2 acceptor
1 3 acceptor
1 4 acceptor
1 5 acceptor
1 6 acceptor
1 7 acceptor
1 8 cation
1 8 donor
1 9 cation
1 9 donor
4 1 4 5 6 anion
6 11 12 13 14 15 20 rings
6 11 12 16 17 18 19 rings
6 16 17 21 22 24 25 rings
6 23 26 27 28 29 30 rings

>  <PUBCHEM_HEAVY_ATOM_COUNT>  (1) 
32

>  <PUBCHEM_ATOM_DEF_STEREO_COUNT>  (1) 
0

>  <PUBCHEM_ATOM_UDEF_STEREO_COUNT>  (1) 
0

>  <PUBCHEM_BOND_DEF_STEREO_COUNT>  (1) 
0

>  <PUBCHEM_BOND_UDEF_STEREO_COUNT>  (1) 
0

>  <PUBCHEM_ISOTOPIC_ATOM_COUNT>  (1) 
0

>  <PUBCHEM_COMPONENT_COUNT>  (1) 
1

>  <PUBCHEM_CACTVS_TAUTO_COUNT>  (1) 
18

>  <PUBCHEM_CONFORMER_ID>  (1) 
0000599800000002

>  <PUBCHEM_MMFF94_ENERGY>  (1) 
124.223

>  <PUBCHEM_FEATURE_SELFOVERLAP>  (1) 
81.297

>  <PUBCHEM_SHAPE_FINGERPRINT>  (1) 
10290309 65 18192707848031640412
10305334 12 17603585227196580979
10319926 262 18341602768167874464
10411042 1 17834678571632350027
11049842 53 18118153353338927830
11135926 11 18410569575401641749
11136131 41 18189613848466193027
12107183 9 18333167276399647316
12144603 126 18113621210524991092
12166972 35 11959721681831367442
12236239 1 17895195540979207724
12422481 6 18041559122553104768
12788726 201 17975147743983134439
13140716 1 18119539735039528731
13540713 5 17897733300132153668
13757389 114 18195264418697672423
138480 1 17615978703606401039
14466204 15 18411140225066373209
14790565 3 18337402611979573173
14844126 61 18264771141253494715
14866123 147 18337954618139942355
15021287 119 17095522915946430036
15042514 8 18048040954205709831
15064986 96 18338239245944616490
15230672 131 18410573952047941802
15297060 5 18343586222139345040
15320294 125 18041271102689722372
15326921 28 18191850263348613256
15347590 135 18339660962324981793
15420108 30 18339914940008764087
15439362 3 18122060897452639045
15927050 60 18341051830826802551
16110190 28 18259981574825732504
16719943 64 18410014350912808472
16994733 274 16199877163603956737
19301679 30 18048608302464650826
20554085 129 18059281072391798376
21033648 29 18343591728498486012
21756936 100 18343294881606839780
21781055 127 18125747637466754892
22311459 1 18410018737283147809
229767 44 18334011700960267468
23522609 53 17677352601161957308
23559900 14 18051135791912142663
23569917 315 18409452500952160767
249999 5 18123471579297297947
3383291 50 18336828709616993091
3411729 13 18264770956696416899
469060 322 18121530031553460793
5028188 123 18337960112880122972
5104073 3 18047207263263735385
5265222 85 18267877249618951532
5385378 56 18268440027388838417
58260988 114 16371296656902098715
6058803 2 17826240880645475652
6669772 16 18201162035718244751
6691757 9 18342175591675537216
7226269 152 18060700589533324576
9896288 288 18334862765572983155
9981440 41 18336274483200449387

>  <PUBCHEM_SHAPE_MULTIPOLES>  (1) 
612.24
16.12
5.3
1.1
26.23
7.44
0.05
-16.14
-6.92
-5.24
0.6
1.33
0
-0.53

>  <PUBCHEM_SHAPE_SELFOVERLAP>  (1) 
1351.918

>  <PUBCHEM_SHAPE_VOLUME>  (1) 
328.5

>  <PUBCHEM_COORDINATE_TYPE>  (1) 
2
5
10

$$$$
