22934
     RDKit          3D

 21 24  0  0  1  0  0  0  0  0999 V2000
    4.4244    1.4591   -0.7947 O   0  0  0  0  0  0  0  0  0  0  0  0
   -5.7714    0.3875   -0.8212 O   0  0  0  0  0  0  0  0  0  0  0  0
    2.4246    0.0092   -0.5890 C   0  0  0  0  0  0  0  0  0  0  0  0
    1.8658   -0.7930    0.6170 C   0  0  0  0  0  0  0  0  0  0  0  0
    0.3278   -0.8859    0.7500 C   0  0  0  0  0  0  0  0  0  0  0  0
   -0.3823    0.4647    0.4937 C   0  0  0  0  0  0  0  0  0  0  0  0
    3.8804    0.3347   -0.1094 C   0  0  0  0  0  0  0  0  0  0  0  0
   -1.9228    0.3081    0.6227 C   0  0  0  0  0  0  0  0  0  0  0  0
    1.6058    1.3052   -0.8287 C   0  0  0  0  0  0  0  0  0  0  0  0
    0.0903    1.0935   -0.8265 C   0  0  0  0  0  0  0  0  0  0  0  0
    2.5058   -0.1283    1.8578 C   0  0  0  0  0  0  0  0  0  0  0  0
   -0.2495   -2.0121   -0.1265 C   0  0  0  0  0  0  0  0  0  0  0  0
   -2.4848   -0.8330   -0.2519 C   0  0  0  0  0  0  0  0  0  0  0  0
    3.6956    0.6944    1.3694 C   0  0  0  0  0  0  0  0  0  0  0  0
   -1.7583   -2.1496    0.0414 C   0  0  0  0  0  0  0  0  0  0  0  0
    2.4383   -0.8076   -1.8956 C   0  0  0  0  0  0  0  0  0  0  0  0
   -2.6846    1.6162    0.3419 C   0  0  0  0  0  0  0  0  0  0  0  0
    4.8893   -0.8157   -0.2432 C   0  0  0  0  0  0  0  0  0  0  0  0
   -3.9921   -1.0134   -0.0334 C   0  0  0  0  0  0  0  0  0  0  0  0
   -4.1766    1.4663    0.6058 C   0  0  0  0  0  0  0  0  0  0  0  0
   -4.7258    0.2997   -0.1797 C   0  0  0  0  0  0  0  0  0  0  0  0
  1  7  1  0
  2 21  2  0
  3  4  1  0
  3  7  1  0
  3  9  1  0
  3 16  1  0
  4  5  1  0
  4 11  1  0
  5  6  1  0
  5 12  1  0
  6  8  1  0
  6 10  1  0
  7 14  1  0
  7 18  1  0
  8 13  1  0
  8 17  1  0
  9 10  1  0
 11 14  1  0
 12 15  1  0
 13 15  1  0
 13 19  1  0
 17 20  1  0
 19 21  1  0
 20 21  1  0
M  END
>  <PUBCHEM_COMPOUND_CID>  (1) 
22934

>  <PUBCHEM_CONFORMER_RMSD>  (1) 
0.6

>  <PUBCHEM_CONFORMER_DIVERSEORDER>  (1) 
2
62
19
37
5
57
50
16
47
52
22
35
6
51
36
41
8
38
21
34
59
20
14
13
12
55
61
53
54
26
24
33
25
4
58
18
29
46
30
10
43
17
15
3
60
9
32
49
28
1
56
11
45
31
27
23
7
40
42
44
39
48

>  <PUBCHEM_MMFF94_PARTIAL_CHARGES>  (1) 
7
1 -0.68
19 0.06
2 -0.57
20 0.06
21 0.45
51 0.4
7 0.28

>  <PUBCHEM_EFFECTIVE_ROTOR_COUNT>  (1) 
2

>  <PUBCHEM_PHARMACOPHORE_FEATURES>  (1) 
7
1 1 acceptor
1 1 donor
1 2 acceptor
5 3 4 7 11 14 rings
6 3 4 5 6 9 10 rings
6 5 6 8 12 13 15 rings
6 8 13 17 19 20 21 rings

>  <PUBCHEM_HEAVY_ATOM_COUNT>  (1) 
21

>  <PUBCHEM_ATOM_DEF_STEREO_COUNT>  (1) 
2

>  <PUBCHEM_ATOM_UDEF_STEREO_COUNT>  (1) 
5

>  <PUBCHEM_BOND_DEF_STEREO_COUNT>  (1) 
0

>  <PUBCHEM_BOND_UDEF_STEREO_COUNT>  (1) 
0

>  <PUBCHEM_ISOTOPIC_ATOM_COUNT>  (1) 
0

>  <PUBCHEM_COMPONENT_COUNT>  (1) 
1

>  <PUBCHEM_CACTVS_TAUTO_COUNT>  (1) 
3

>  <PUBCHEM_CONFORMER_ID>  (1) 
0000599600000002

>  <PUBCHEM_MMFF94_ENERGY>  (1) 
68.6909

>  <PUBCHEM_FEATURE_SELFOVERLAP>  (1) 
35.754

>  <PUBCHEM_SHAPE_FINGERPRINT>  (1) 
10366900 7 17346607391069567408
10498660 4 18341891832167050497
10646746 165 18272932708718504641
11132069 177 18409729556358927065
11370993 70 17989208139844510910
12011746 2 18409728439261241852
12236239 1 17967531285198061547
12403814 3 17458056063267751165
12500047 106 18131913771219670630
12507557 5 17676209095840749885
12596602 18 17603871147374700001
12670545 2 18113334210985513165
128620 24 18202847651852937417
12916748 109 18411144628040107163
13224815 77 18333456447545977769
13583140 156 16917062304222006166
14573314 32 17917714582323081925
14739800 52 18196075850307033632
15196674 1 18335423503591092975
15375358 24 18060420235162801815
15536298 74 18270965639572430199
15788980 27 17385443215414716883
1601671 61 18260266321960757485
16945 1 18261404363603002283
17349148 13 18341610429993306541
17980427 23 18124858291330930932
1813 80 16879622679941568074
18186145 218 18201728292959747145
200 152 14549020970144218539
20279233 1 17489592272317434671
20645477 70 15141232200993565504
21267235 1 18335711554700856019
22892500 29 17203886379643185400
23366157 5 18046067051782492123
23402539 116 18343014514726319343
23557571 272 18058451070294434527
23559900 14 18202567302268402144
26918003 58 13110959834399852549
2838139 119 16951666049216253517
296302 2 17988926716496688338
3472631 163 18335140942019513188
34797466 226 17560530611021844628
34934 24 17968096477525454892
4340502 62 15482660291102664158
4409770 3 15736266676576047835
474 4 17314518230323761316
495365 180 16988551421110981210
4990 188 17703793587127544919
5104073 3 18334015033559399896
542803 24 18272936020233306649
6034566 193 15579245979823148652
633830 44 17531250608042353486
69090 78 18202283606334793647
7495541 125 15841540912252231571
8272917 22 16515680000944614035
9709674 26 18130515200998124847
9981440 41 17180254820777781440

>  <PUBCHEM_SHAPE_MULTIPOLES>  (1) 
420.43
9.95
1.75
1.28
4.65
0.37
0.04
-1.97
-0.94
0.69
-0.08
-1.17
-0.05
-0.1

>  <PUBCHEM_SHAPE_SELFOVERLAP>  (1) 
894.378

>  <PUBCHEM_SHAPE_VOLUME>  (1) 
232.4

>  <PUBCHEM_COORDINATE_TYPE>  (1) 
2
5
10

$$$$
