22938
     RDKit          3D

 12 13  0  0  0  0  0  0  0  0999 V2000
    3.5214    0.0001   -0.2103 O   0  0  0  0  0  0  0  0  0  0  0  0
    0.7057   -0.0004    0.2058 N   0  0  0  0  0  0  0  0  0  0  0  0
   -0.6749   -0.0003   -0.2733 C   0  0  0  0  0  0  0  0  0  0  0  0
   -1.3943   -1.2643    0.2106 C   0  0  0  0  0  0  0  0  0  0  0  0
   -1.3939    1.2641    0.2097 C   0  0  0  0  0  0  0  0  0  0  0  0
   -2.8639   -1.2626   -0.2067 C   0  0  0  0  0  0  0  0  0  0  0  0
   -2.8633    1.2627   -0.2084 C   0  0  0  0  0  0  0  0  0  0  0  0
   -3.5808    0.0005    0.2619 C   0  0  0  0  0  0  0  0  0  0  0  0
    1.4152    1.2041   -0.2471 C   0  0  0  0  0  0  0  0  0  0  0  0
    1.4158   -1.2039   -0.2491 C   0  0  0  0  0  0  0  0  0  0  0  0
    2.8565    1.1756    0.2539 C   0  0  0  0  0  0  0  0  0  0  0  0
    2.8565   -1.1756    0.2531 C   0  0  0  0  0  0  0  0  0  0  0  0
  1 11  1  0
  1 12  1  0
  2  3  1  0
  2  9  1  0
  2 10  1  0
  3  4  1  0
  3  5  1  0
  4  6  1  0
  5  7  1  0
  6  8  1  0
  7  8  1  0
  9 11  1  0
 10 12  1  0
M  END
>  <PUBCHEM_COMPOUND_CID>  (1) 
22938

>  <PUBCHEM_CONFORMER_RMSD>  (1) 
0.6

>  <PUBCHEM_CONFORMER_DIVERSEORDER>  (1) 
1
5
3
4
2

>  <PUBCHEM_MMFF94_PARTIAL_CHARGES>  (1) 
7
1 -0.56
10 0.27
11 0.28
12 0.28
2 -0.81
3 0.27
9 0.27

>  <PUBCHEM_EFFECTIVE_ROTOR_COUNT>  (1) 
3.4

>  <PUBCHEM_PHARMACOPHORE_FEATURES>  (1) 
4
1 1 acceptor
1 2 cation
6 1 2 9 10 11 12 rings
6 3 4 5 6 7 8 rings

>  <PUBCHEM_HEAVY_ATOM_COUNT>  (1) 
12

>  <PUBCHEM_ATOM_DEF_STEREO_COUNT>  (1) 
0

>  <PUBCHEM_ATOM_UDEF_STEREO_COUNT>  (1) 
0

>  <PUBCHEM_BOND_DEF_STEREO_COUNT>  (1) 
0

>  <PUBCHEM_BOND_UDEF_STEREO_COUNT>  (1) 
0

>  <PUBCHEM_ISOTOPIC_ATOM_COUNT>  (1) 
0

>  <PUBCHEM_COMPONENT_COUNT>  (1) 
1

>  <PUBCHEM_CACTVS_TAUTO_COUNT>  (1) 
1

>  <PUBCHEM_CONFORMER_ID>  (1) 
0000599A00000001

>  <PUBCHEM_MMFF94_ENERGY>  (1) 
14.2906

>  <PUBCHEM_FEATURE_SELFOVERLAP>  (1) 
20.297

>  <PUBCHEM_SHAPE_FINGERPRINT>  (1) 
10608611 8 18411132537085189833
11132069 177 18411411834529071969
11769659 78 18409722963183428403
12932764 1 18410580586532009349
13380535 76 18411135831356715431
14144814 61 18409729547357529427
14325111 11 18410573985193824549
15219456 202 18412262830732591549
15442244 35 18194964041580518890
15775835 57 18411142436984423873
16945 1 18410854360642907799
17844478 74 18113625577461972777
18186145 218 18410857620507274229
19973954 147 18410857659167475469
200 152 18059845182508290967
20201158 50 18413108342389903559
20528008 55 18411414020999566005
20645477 70 18339356366742932127
20871998 184 18201161056919452823
21501502 16 18410855468723390639
23402539 116 18201709631870288645
23402655 69 18340763763127474805
23463225 33 18408885126854233492
23552423 10 18261393381508678895
23559900 14 18271239422795255834
2748010 2 18410856551076235447
3248919 1 18411127039510797991
369184 2 18411981364741408889
5104073 3 18410855460143993547
57096353 35 18266459982491844343
57812782 119 18410289207424134573
6333449 129 18412261740185399327
69090 78 18341889689083572415
7364860 26 18343865502820062478
8809292 202 18334019410036479131

>  <PUBCHEM_SHAPE_MULTIPOLES>  (1) 
236.1
6.09
1.65
0.66
0.3
0
0
0
0.17
-0.06
0
-0.03
0
0

>  <PUBCHEM_SHAPE_SELFOVERLAP>  (1) 
470.778

>  <PUBCHEM_SHAPE_VOLUME>  (1) 
138.2

>  <PUBCHEM_COORDINATE_TYPE>  (1) 
2
5
10

$$$$
