22946
     RDKit          3D

  9 10  0  0  0  0  0  0  0  0999 V2000
   -1.8046    1.3614    0.0626 S   0  0  0  0  0  0  0  0  0  0  0  0
    2.2242   -0.6865    0.3312 C   0  0  0  0  0  0  0  0  0  0  0  0
    2.2265    0.7038   -0.3213 C   0  0  0  0  0  0  0  0  0  0  0  0
    0.9958   -1.5079   -0.0908 C   0  0  0  0  0  0  0  0  0  0  0  0
    0.9929    1.5262    0.0840 C   0  0  0  0  0  0  0  0  0  0  0  0
   -0.2614   -0.6965   -0.0324 C   0  0  0  0  0  0  0  0  0  0  0  0
   -0.2431    0.6843    0.0241 C   0  0  0  0  0  0  0  0  0  0  0  0
   -1.5975   -1.1979   -0.0528 C   0  0  0  0  0  0  0  0  0  0  0  0
   -2.5330   -0.1869   -0.0046 C   0  0  0  0  0  0  0  0  0  0  0  0
  1  7  1  0
  1  9  1  0
  2  3  1  0
  2  4  1  0
  3  5  1  0
  4  6  1  0
  5  7  1  0
  6  7  2  0
  6  8  1  0
  8  9  2  0
M  END
>  <PUBCHEM_COMPOUND_CID>  (1) 
22946

>  <PUBCHEM_CONFORMER_RMSD>  (1) 
0.4

>  <PUBCHEM_CONFORMER_DIVERSEORDER>  (1) 
1

>  <PUBCHEM_MMFF94_PARTIAL_CHARGES>  (1) 
9
1 -0.08
18 0.15
19 0.15
4 0.18
5 0.18
6 -0.18
7 -0.14
8 -0.15
9 -0.11

>  <PUBCHEM_EFFECTIVE_ROTOR_COUNT>  (1) 
0.8

>  <PUBCHEM_PHARMACOPHORE_FEATURES>  (1) 
2
5 1 6 7 8 9 rings
6 2 3 4 5 6 7 rings

>  <PUBCHEM_HEAVY_ATOM_COUNT>  (1) 
9

>  <PUBCHEM_ATOM_DEF_STEREO_COUNT>  (1) 
0

>  <PUBCHEM_ATOM_UDEF_STEREO_COUNT>  (1) 
0

>  <PUBCHEM_BOND_DEF_STEREO_COUNT>  (1) 
0

>  <PUBCHEM_BOND_UDEF_STEREO_COUNT>  (1) 
0

>  <PUBCHEM_ISOTOPIC_ATOM_COUNT>  (1) 
0

>  <PUBCHEM_COMPONENT_COUNT>  (1) 
1

>  <PUBCHEM_CACTVS_TAUTO_COUNT>  (1) 
1

>  <PUBCHEM_CONFORMER_ID>  (1) 
000059A200000001

>  <PUBCHEM_MMFF94_ENERGY>  (1) 
6.8224

>  <PUBCHEM_FEATURE_SELFOVERLAP>  (1) 
10.205

>  <PUBCHEM_SHAPE_FINGERPRINT>  (1) 
12897270 3 18338517550828572301
16945 1 18411702105661913315
18185500 45 18410854330652080714
193761 8 15456212225948640205
19973954 147 18410295787335092085
21040471 1 18411981321448942000
23402655 69 18268413660927577949
23552423 10 18333452066362779022
241688 4 17187290067317682698
2748010 2 18051412872751934271
29004967 10 18334580143796954850
369184 2 16877939438543123003
5084963 1 18201722885326785714
66348 1 18266459999666529097

>  <PUBCHEM_SHAPE_MULTIPOLES>  (1) 
189.07
3.33
1.73
0.65
0.12
0.1
0
0.05
-0.02
-0.04
0
-0.04
0.01
-0.11

>  <PUBCHEM_SHAPE_SELFOVERLAP>  (1) 
384.611

>  <PUBCHEM_SHAPE_VOLUME>  (1) 
109.2

>  <PUBCHEM_COORDINATE_TYPE>  (1) 
2
5
10

$$$$
