2295
     RDKit          3D

 19 20  0  0  0  0  0  0  0  0999 V2000
    2.1688    0.1927   -0.0270 O   0  0  0  0  0  0  0  0  0  0  0  0
   -2.9793   -0.2263   -0.0289 O   0  0  0  0  0  0  0  0  0  0  0  0
    5.7358   -0.1546    0.0083 O   0  0  0  0  0  0  0  0  0  0  0  0
    4.4778    1.7707   -0.0892 O   0  0  0  0  0  0  0  0  0  0  0  0
   -6.4731   -0.1520   -0.0092 O   0  0  0  0  0  0  0  0  0  0  0  0
   -5.0447   -1.8223   -0.0952 O   0  0  0  0  0  0  0  0  0  0  0  0
   -5.2824   -0.5804   -0.0348 N   0  0  0  0  0  0  0  0  0  0  0  0
    1.2840   -0.8378    0.0167 C   0  0  0  0  0  0  0  0  0  0  0  0
   -2.1147    0.8074    0.0157 C   0  0  0  0  0  0  0  0  0  0  0  0
   -0.1142   -0.6283   -0.0002 C   0  0  0  0  0  0  0  0  0  0  0  0
   -0.6962    0.5960   -0.0008 C   0  0  0  0  0  0  0  0  0  0  0  0
    1.9468   -2.0416    0.0761 C   0  0  0  0  0  0  0  0  0  0  0  0
    3.4101   -0.3592    0.0046 C   0  0  0  0  0  0  0  0  0  0  0  0
    3.3275   -1.7308    0.0682 C   0  0  0  0  0  0  0  0  0  0  0  0
   -2.7576    2.0080    0.0756 C   0  0  0  0  0  0  0  0  0  0  0  0
   -4.2206    0.3253    0.0032 C   0  0  0  0  0  0  0  0  0  0  0  0
   -4.1383    1.6968    0.0675 C   0  0  0  0  0  0  0  0  0  0  0  0
    4.5307    0.5170   -0.0304 C   0  0  0  0  0  0  0  0  0  0  0  0
    6.9398    0.6193   -0.0202 C   0  0  0  0  0  0  0  0  0  0  0  0
  1  8  1  0
  1 13  1  0
  2  9  1  0
  2 16  1  0
  3 18  1  0
  3 19  1  0
  4 18  2  0
  5  7  1  0
  6  7  2  0
  7 16  1  0
  8 10  1  0
  8 12  2  0
  9 11  1  0
  9 15  2  0
 10 11  2  0
 12 14  1  0
 13 14  2  0
 13 18  1  0
 15 17  1  0
 16 17  2  0
M  CHG  2   5  -1   7   1
M  END
>  <PUBCHEM_COMPOUND_CID>  (1) 
2295

>  <PUBCHEM_CONFORMER_RMSD>  (1) 
0.6

>  <PUBCHEM_CONFORMER_DIVERSEORDER>  (1) 
1
16
17
3
13
9
10
4
2
11
7
15
6
5
8
12
14

>  <PUBCHEM_MMFF94_PARTIAL_CHARGES>  (1) 
25
1 -0.28
10 -0.11
11 -0.11
12 -0.15
13 0.05
14 -0.15
15 -0.15
16 0.22
17 -0.15
18 0.81
19 0.28
2 -0.28
20 0.15
21 0.15
22 0.15
23 0.15
24 0.15
25 0.15
3 -0.43
4 -0.57
5 -0.52
6 -0.52
7 0.96
8 0.09
9 0.09

>  <PUBCHEM_EFFECTIVE_ROTOR_COUNT>  (1) 
5

>  <PUBCHEM_PHARMACOPHORE_FEATURES>  (1) 
8
1 1 acceptor
1 2 acceptor
1 4 acceptor
1 5 acceptor
1 5 anion
1 6 acceptor
5 1 8 12 13 14 rings
5 2 9 15 16 17 rings

>  <PUBCHEM_HEAVY_ATOM_COUNT>  (1) 
19

>  <PUBCHEM_ATOM_DEF_STEREO_COUNT>  (1) 
0

>  <PUBCHEM_ATOM_UDEF_STEREO_COUNT>  (1) 
0

>  <PUBCHEM_BOND_DEF_STEREO_COUNT>  (1) 
0

>  <PUBCHEM_BOND_UDEF_STEREO_COUNT>  (1) 
1

>  <PUBCHEM_ISOTOPIC_ATOM_COUNT>  (1) 
0

>  <PUBCHEM_COMPONENT_COUNT>  (1) 
1

>  <PUBCHEM_CACTVS_TAUTO_COUNT>  (1) 
1

>  <PUBCHEM_CONFORMER_ID>  (1) 
000008F700000001

>  <PUBCHEM_MMFF94_ENERGY>  (1) 
29.483

>  <PUBCHEM_FEATURE_SELFOVERLAP>  (1) 
40.693

>  <PUBCHEM_SHAPE_FINGERPRINT>  (1) 
10595046 47 18410573959408047251
10835480 77 18262511495252127285
10968037 39 18410572895163558127
11287383 113 18411982459694416306
12107183 9 17545882629126385937
12166972 35 18335424577992891116
12236239 1 18130507448919362520
12730499 353 17989209248668759430
13167823 11 18338795611523008531
13533116 47 16878212083557664888
13631057 29 18341047523427973163
14123256 10 18410855473292638583
1420 363 18411142437063675071
14251718 22 18410856555344822283
14251731 8 9439405726484379258
14251732 16 18410011056957845922
14251752 14 12966859996341940146
14251764 18 18113333112397058002
14528608 73 18409732867731395652
14787075 74 18409729590502407313
15196674 1 18338517430537819859
15531645 54 9295291638131173691
15778101 99 18199755747751833385
167882 2 17460327782723933965
17834072 33 18411135831303565159
17844677 252 18270126694862006965
19489759 90 14562526271853189765
20645477 70 18269557143992842438
21054139 6 18334853956637002950
21065198 48 18338233748037609547
21267235 1 18412551998317606206
21315763 129 18335700525119741108
22224240 67 17894628180515736506
22896161 15 18411136965396665743
23218964 4 9727636102720499955
23272321 79 18409731776656779876
23402539 116 17167859751477295349
23402655 69 18201154356669808716
23559900 14 18410566323631805081
300161 21 18187080607934561173
34797466 226 17917719010471573524
3545911 37 18411138035012158630
4073 2 18113908151602535426
4214541 1 18338797802119547985
4325135 7 18411136943953276655
474 4 18040159534914764204
474229 33 18411982476938011207
5104073 3 18263928748069390153
5312625 73 18343580780415669992
542803 24 17418094291275265857
54446538 1 18411136944191166460
5486654 2 18412828010053945695
59682541 35 18335988674406428449
59755656 520 17894625985292466194
67856867 119 18187932836535882077
7062679 117 18410856581658276351
7495541 125 17917705824995568082
77779 3 18340206276314126059
9709674 26 18337399227603424475
9996256 80 18410572873388236110

>  <PUBCHEM_SHAPE_MULTIPOLES>  (1) 
350.81
15.9
1.86
0.58
2.33
0.12
0
-1.87
0.21
-0.3
-0.02
0.04
-0.01
-0.18

>  <PUBCHEM_SHAPE_SELFOVERLAP>  (1) 
755.015

>  <PUBCHEM_SHAPE_VOLUME>  (1) 
194.6

>  <PUBCHEM_COORDINATE_TYPE>  (1) 
2
5
10

$$$$
