22955
     RDKit          3D

 24 27  0  0  1  0  0  0  0  0999 V2000
    4.4784   -1.7349    0.1707 O   0  0  0  0  0  0  0  0  0  0  0  0
   -5.9971    0.2334   -0.0239 O   0  0  0  0  0  0  0  0  0  0  0  0
    6.0478    0.4600   -0.3833 O   0  0  0  0  0  0  0  0  0  0  0  0
   -4.5074    2.4264    0.8050 O   0  0  0  0  0  0  0  0  0  0  0  0
    0.2304   -1.4183   -0.1131 N   0  0  0  0  0  0  0  0  0  0  0  0
   -0.3273   -0.1706    0.4644 C   0  0  0  0  0  0  0  0  0  0  0  0
    0.4065    1.0158   -0.2083 C   0  0  0  0  0  0  0  0  0  0  0  0
   -0.5639   -2.5890    0.2688 C   0  0  0  0  0  0  0  0  0  0  0  0
   -1.8432   -0.0543    0.3165 C   0  0  0  0  0  0  0  0  0  0  0  0
    1.6334   -1.5939    0.2995 C   0  0  0  0  0  0  0  0  0  0  0  0
   -1.9484   -2.4868   -0.3661 C   0  0  0  0  0  0  0  0  0  0  0  0
   -2.6125   -1.1721   -0.0588 C   0  0  0  0  0  0  0  0  0  0  0  0
    1.9073    0.8593   -0.2368 C   0  0  0  0  0  0  0  0  0  0  0  0
    2.4938   -0.3983   -0.0261 C   0  0  0  0  0  0  0  0  0  0  0  0
   -2.5086    1.1442    0.6240 C   0  0  0  0  0  0  0  0  0  0  0  0
   -4.0049   -1.0581   -0.1854 C   0  0  0  0  0  0  0  0  0  0  0  0
    3.8887   -0.5267   -0.0653 C   0  0  0  0  0  0  0  0  0  0  0  0
    2.7215    1.9635   -0.5224 C   0  0  0  0  0  0  0  0  0  0  0  0
   -3.8962    1.2453    0.5086 C   0  0  0  0  0  0  0  0  0  0  0  0
   -4.6433    0.1471    0.0968 C   0  0  0  0  0  0  0  0  0  0  0  0
    4.6914    0.5801   -0.3397 C   0  0  0  0  0  0  0  0  0  0  0  0
    4.1081    1.8234   -0.5713 C   0  0  0  0  0  0  0  0  0  0  0  0
   -6.5105    0.6391   -1.2914 C   0  0  0  0  0  0  0  0  0  0  0  0
    6.7559    0.6651    0.8376 C   0  0  0  0  0  0  0  0  0  0  0  0
  1 17  1  0
  2 20  1  0
  2 23  1  0
  3 21  1  0
  3 24  1  0
  4 19  1  0
  5  6  1  0
  5  8  1  0
  5 10  1  0
  6  7  1  0
  6  9  1  0
  7 13  1  0
  8 11  1  0
  9 12  2  0
  9 15  1  0
 10 14  1  0
 11 12  1  0
 12 16  1  0
 13 14  2  0
 13 18  1  0
 14 17  1  0
 15 19  2  0
 16 20  2  0
 17 21  2  0
 18 22  2  0
 19 20  1  0
 21 22  1  0
M  END
>  <PUBCHEM_COMPOUND_CID>  (1) 
22955

>  <PUBCHEM_CONFORMER_RMSD>  (1) 
0.6

>  <PUBCHEM_CONFORMER_DIVERSEORDER>  (1) 
2
5
6
3
9
7
4
8
1

>  <PUBCHEM_MMFF94_PARTIAL_CHARGES>  (1) 
30
1 -0.53
10 0.41
11 0.14
12 -0.14
13 -0.14
14 -0.14
15 -0.15
16 -0.15
17 0.08
18 -0.15
19 0.08
2 -0.36
20 0.08
21 0.08
22 -0.15
23 0.28
24 0.28
3 -0.36
34 0.15
35 0.15
36 0.15
37 0.15
38 0.45
39 0.45
4 -0.53
5 -0.81
6 0.41
7 0.14
8 0.27
9 -0.14

>  <PUBCHEM_EFFECTIVE_ROTOR_COUNT>  (1) 
2.8

>  <PUBCHEM_PHARMACOPHORE_FEATURES>  (1) 
9
1 1 donor
1 2 acceptor
1 3 acceptor
1 4 donor
1 5 cation
6 13 14 17 18 21 22 rings
6 5 6 7 10 13 14 rings
6 5 6 8 9 11 12 rings
6 9 12 15 16 19 20 rings

>  <PUBCHEM_HEAVY_ATOM_COUNT>  (1) 
24

>  <PUBCHEM_ATOM_DEF_STEREO_COUNT>  (1) 
0

>  <PUBCHEM_ATOM_UDEF_STEREO_COUNT>  (1) 
1

>  <PUBCHEM_BOND_DEF_STEREO_COUNT>  (1) 
0

>  <PUBCHEM_BOND_UDEF_STEREO_COUNT>  (1) 
0

>  <PUBCHEM_ISOTOPIC_ATOM_COUNT>  (1) 
0

>  <PUBCHEM_COMPONENT_COUNT>  (1) 
1

>  <PUBCHEM_CACTVS_TAUTO_COUNT>  (1) 
26

>  <PUBCHEM_CONFORMER_ID>  (1) 
000059AB00000002

>  <PUBCHEM_MMFF94_ENERGY>  (1) 
87.2615

>  <PUBCHEM_FEATURE_SELFOVERLAP>  (1) 
45.737

>  <PUBCHEM_SHAPE_FINGERPRINT>  (1) 
10411042 1 17687462369486662586
10763959 59 17603586305117619757
10906281 52 18041573541844786492
11089746 13 18272366503327747732
11315181 36 18410578417668892816
11578080 2 17129850867092115266
12107183 9 17906455420135582832
12236239 1 18201438047844304323
12788726 201 17845942831275513785
12838862 33 18337653278876080149
13177829 73 18411419518520853112
13533116 47 17846499184686850734
13583140 156 17386010580990196873
14767858 380 18271793645749639615
14790565 3 18410018706089125073
15131766 46 16300657488993995540
15142383 8 17095514081272061164
15183329 4 18410015429408639676
15196674 1 18410296912585063530
15461852 350 17417528137761668692
18608769 82 18339927142696479003
18681886 176 18271800263255025320
19489759 90 17989490731491456777
20511986 3 18338784715390951430
21033648 29 16805311215277037997
21033650 10 17129896900256739848
21150785 3 15482666909874022824
21267235 1 18338245949955613091
21298829 104 18338798918885495653
21421861 104 17822843188168533546
21859007 373 17896297178162413956
23402539 116 18343299309659878861
23558518 356 17608659645442307842
23559900 14 18129938004696179048
23569917 315 18410862061546929535
25147074 1 18336809957705460394
2838139 119 18261104188950816341
300161 21 18412822504090293610
3004659 81 18409733924778848310
335352 9 18408888443291705382
34797466 226 16917072187284710344
34934 24 18409728487228899810
350125 39 18410856555877819201
3545911 37 18411140250846037712
3680242 22 18260546680857927274
4017518 198 17846505833871680942
4073 2 18114749356092899530
4214541 1 18410577322346360396
474 4 18113623412423844329
5104073 3 18408327674358874570
559249 180 18408884070614428314
59755656 215 18341620287418108782
59755656 520 16877938378008286203
6328613 192 18261402208400228388
633830 44 17313946454011560128
67856867 119 18267582588665744224
9709674 26 18342187703615798006
9981440 41 18410299116162256587

>  <PUBCHEM_SHAPE_MULTIPOLES>  (1) 
465.45
14.59
2.34
0.82
2.28
0.67
0.04
-5.57
0.98
-0.55
-0.04
-0.33
-0.19
-0.65

>  <PUBCHEM_SHAPE_SELFOVERLAP>  (1) 
1021.555

>  <PUBCHEM_SHAPE_VOLUME>  (1) 
251.7

>  <PUBCHEM_COORDINATE_TYPE>  (1) 
2
5
10

$$$$
