22957
     RDKit          3D

 20 22  0  0  0  0  0  0  0  0999 V2000
   -4.3009    2.2507    0.6900 O   0  0  0  0  0  0  0  0  0  0  0  0
   -1.6473   -3.4923    0.2485 O   0  0  0  0  0  0  0  0  0  0  0  0
   -2.5412    0.3971   -0.5627 N   0  0  0  0  0  0  0  0  0  0  0  0
   -2.6286    0.5052    0.9003 C   0  0  0  0  0  0  0  0  0  0  0  0
   -3.8245    0.7714   -1.1728 C   0  0  0  0  0  0  0  0  0  0  0  0
   -2.1519   -0.9541   -0.9608 C   0  0  0  0  0  0  0  0  0  0  0  0
   -3.0484    1.9194    1.2910 C   0  0  0  0  0  0  0  0  0  0  0  0
   -4.2151    2.1797   -0.7336 C   0  0  0  0  0  0  0  0  0  0  0  0
   -0.8109   -1.3408   -0.3960 C   0  0  0  0  0  0  0  0  0  0  0  0
    0.2329   -0.4270   -0.4627 C   0  0  0  0  0  0  0  0  0  0  0  0
   -0.6281   -2.5911    0.1797 C   0  0  0  0  0  0  0  0  0  0  0  0
    1.4816   -0.7699    0.0560 C   0  0  0  0  0  0  0  0  0  0  0  0
    0.6206   -2.9338    0.6984 C   0  0  0  0  0  0  0  0  0  0  0  0
    1.6755   -2.0233    0.6365 C   0  0  0  0  0  0  0  0  0  0  0  0
    2.5759    0.1744   -0.0075 C   0  0  0  0  0  0  0  0  0  0  0  0
    2.7798    1.0771    1.0363 C   0  0  0  0  0  0  0  0  0  0  0  0
    3.4272    0.1822   -1.1124 C   0  0  0  0  0  0  0  0  0  0  0  0
    3.8349    1.9876    0.9751 C   0  0  0  0  0  0  0  0  0  0  0  0
    4.4824    1.0925   -1.1735 C   0  0  0  0  0  0  0  0  0  0  0  0
    4.6861    1.9951   -0.1297 C   0  0  0  0  0  0  0  0  0  0  0  0
  1  7  1  0
  1  8  1  0
  2 11  1  0
  3  4  1  0
  3  5  1  0
  3  6  1  0
  4  7  1  0
  5  8  1  0
  6  9  1  0
  9 10  2  0
  9 11  1  0
 10 12  1  0
 11 13  2  0
 12 14  2  0
 12 15  1  0
 13 14  1  0
 15 16  2  0
 15 17  1  0
 16 18  1  0
 17 19  2  0
 18 20  2  0
 19 20  1  0
M  END
>  <PUBCHEM_COMPOUND_CID>  (1) 
22957

>  <PUBCHEM_CONFORMER_RMSD>  (1) 
0.6

>  <PUBCHEM_CONFORMER_DIVERSEORDER>  (1) 
1
3
7
5
14
10
4
16
2
12
6
13
8
9
11
15

>  <PUBCHEM_MMFF94_PARTIAL_CHARGES>  (1) 
27
1 -0.56
10 -0.15
11 0.08
13 -0.15
14 -0.15
16 -0.15
17 -0.15
18 -0.15
19 -0.15
2 -0.53
20 -0.15
3 -0.81
31 0.15
32 0.15
33 0.15
34 0.15
35 0.15
36 0.45
37 0.15
38 0.15
39 0.15
4 0.27
5 0.27
6 0.41
7 0.28
8 0.28
9 -0.14

>  <PUBCHEM_EFFECTIVE_ROTOR_COUNT>  (1) 
4.2

>  <PUBCHEM_PHARMACOPHORE_FEATURES>  (1) 
6
1 1 acceptor
1 2 donor
1 3 cation
6 1 3 4 5 7 8 rings
6 15 16 17 18 19 20 rings
6 9 10 11 12 13 14 rings

>  <PUBCHEM_HEAVY_ATOM_COUNT>  (1) 
20

>  <PUBCHEM_ATOM_DEF_STEREO_COUNT>  (1) 
0

>  <PUBCHEM_ATOM_UDEF_STEREO_COUNT>  (1) 
0

>  <PUBCHEM_BOND_DEF_STEREO_COUNT>  (1) 
0

>  <PUBCHEM_BOND_UDEF_STEREO_COUNT>  (1) 
0

>  <PUBCHEM_ISOTOPIC_ATOM_COUNT>  (1) 
0

>  <PUBCHEM_COMPONENT_COUNT>  (1) 
1

>  <PUBCHEM_CACTVS_TAUTO_COUNT>  (1) 
3

>  <PUBCHEM_CONFORMER_ID>  (1) 
000059AD00000001

>  <PUBCHEM_MMFF94_ENERGY>  (1) 
58.4477

>  <PUBCHEM_FEATURE_SELFOVERLAP>  (1) 
30.446

>  <PUBCHEM_SHAPE_FINGERPRINT>  (1) 
10382601 240 17822568309696878594
10498660 4 18341608213643099181
11370993 144 13696406864771748740
11640471 11 18271517586072508895
12107183 9 18189596334010799840
12173636 292 18338232794634517494
12363563 72 10231753409422039452
12390115 104 18335715982542950596
12788726 201 17756432925620074614
13134695 92 17468471521790240611
13140716 1 18261669272975748699
13464514 151 18343590620686866030
13583140 156 15502645053161822828
13590594 115 17762339111416179594
13828863 39 15648771286907584972
13878862 14 17756971330257906477
13965767 371 17968640662893555428
14123255 52 18409448076691805092
14142880 1 18115578391427255103
14251764 38 17984412212375576696
14251764 75 18270691857172992593
14787075 74 18270952566367084623
14848178 96 18411134710481170484
15342168 16 18334576798471274549
15534591 1 18341612641754154271
1741750 31 18411133666851323858
1798214 55 18408884027300784564
18186145 218 18272658982305738504
19784866 34 18411135814166225305
20291156 8 9007054686252734377
204376 136 18334577932115572645
20510252 161 18049440645387275178
20671657 53 11167933650091036455
21524375 3 18340763754236963655
21864079 5 18058734572527338241
22182937 141 18340210803014639793
2255824 54 18051691040878692079
23557571 272 18052823834197268254
23558518 356 18187646976577208754
23559900 14 18343308089744111252
23845131 108 18334299734753232515
2637199 183 18272098145043703684
283562 15 18046905154156799914
38570 142 17985571990572518785
4028521 119 18201999949383042085
469060 322 18043824280289996667
474 4 18338229341638586107
5048184 11 18410011035261677657
5486654 2 18338231682960700255
5895379 119 17058088792574053008
6328613 192 18336829784419022332
633830 44 18200315394874767693
7226269 152 18201998829277578976
7399639 24 17411900966031352554
7808743 9 18261959673374476884
84936 182 18270391681490995081
9981440 41 18268693056385821442

>  <PUBCHEM_SHAPE_MULTIPOLES>  (1) 
394.87
9.07
3.47
1.22
1.35
2.18
0.01
-9.63
1.22
-1.42
-0.89
-0.07
-0.41
-0.25

>  <PUBCHEM_SHAPE_SELFOVERLAP>  (1) 
850.925

>  <PUBCHEM_SHAPE_VOLUME>  (1) 
217.6

>  <PUBCHEM_COORDINATE_TYPE>  (1) 
2
5
10

$$$$
