22965
     RDKit          3D

 21 22  0  0  0  0  0  0  0  0999 V2000
   -1.2215   -2.1161   -0.1623 O   0  0  0  0  0  0  0  0  0  0  0  0
    4.1502    1.1187   -0.2621 O   0  0  0  0  0  0  0  0  0  0  0  0
   -4.2436    0.6842   -0.2539 O   0  0  0  0  0  0  0  0  0  0  0  0
   -3.4753   -1.7528   -0.0665 O   0  0  0  0  0  0  0  0  0  0  0  0
    5.0233   -0.8606    0.5246 O   0  0  0  0  0  0  0  0  0  0  0  0
   -3.0749    2.0872    1.1691 O   0  0  0  0  0  0  0  0  0  0  0  0
    0.3092   -0.2567    0.1702 C   0  0  0  0  0  0  0  0  0  0  0  0
    0.0894   -1.6072   -0.0816 C   0  0  0  0  0  0  0  0  0  0  0  0
    1.6239    0.2103    0.2430 C   0  0  0  0  0  0  0  0  0  0  0  0
    2.6913   -0.6744    0.0640 C   0  0  0  0  0  0  0  0  0  0  0  0
   -0.8367    0.6214    0.3489 C   0  0  0  0  0  0  0  0  0  0  0  0
   -2.0800    0.1323    0.2712 C   0  0  0  0  0  0  0  0  0  0  0  0
    1.1432   -2.5009   -0.2623 C   0  0  0  0  0  0  0  0  0  0  0  0
    2.4510   -2.0271   -0.1881 C   0  0  0  0  0  0  0  0  0  0  0  0
   -2.3375   -1.3007    0.0043 C   0  0  0  0  0  0  0  0  0  0  0  0
    4.0587   -0.1852    0.1420 C   0  0  0  0  0  0  0  0  0  0  0  0
   -3.1702    1.0956    0.4657 C   0  0  0  0  0  0  0  0  0  0  0  0
    5.4511    1.7157   -0.2316 C   0  0  0  0  0  0  0  0  0  0  0  0
   -5.3968    1.5276   -0.1667 C   0  0  0  0  0  0  0  0  0  0  0  0
    5.3478    3.1481   -0.7104 C   0  0  0  0  0  0  0  0  0  0  0  0
   -6.5027    0.9403   -1.0177 C   0  0  0  0  0  0  0  0  0  0  0  0
  1  8  1  0
  1 15  1  0
  2 16  1  0
  2 18  1  0
  3 17  1  0
  3 19  1  0
  4 15  2  0
  5 16  2  0
  6 17  2  0
  7  8  2  0
  7  9  1  0
  7 11  1  0
  8 13  1  0
  9 10  2  0
 10 14  1  0
 10 16  1  0
 11 12  2  0
 12 15  1  0
 12 17  1  0
 13 14  2  0
 18 20  1  0
 19 21  1  0
M  END
>  <PUBCHEM_COMPOUND_CID>  (1) 
22965

>  <PUBCHEM_CONFORMER_RMSD>  (1) 
0.8

>  <PUBCHEM_CONFORMER_DIVERSEORDER>  (1) 
1
25
23
2
3
7
27
10
9
12
21
16
19
4
5
18
6
13
8
15
11
26
28
20
24
29
17
14
22

>  <PUBCHEM_MMFF94_PARTIAL_CHARGES>  (1) 
23
1 -0.23
10 0.09
11 -0.18
12 0.03
13 -0.15
14 -0.15
15 0.71
16 0.63
17 0.71
18 0.28
19 0.28
2 -0.43
22 0.15
23 0.15
24 0.15
25 0.15
3 -0.43
4 -0.57
5 -0.57
6 -0.57
7 0.03
8 0.08
9 -0.15

>  <PUBCHEM_EFFECTIVE_ROTOR_COUNT>  (1) 
6

>  <PUBCHEM_PHARMACOPHORE_FEATURES>  (1) 
6
1 12 anion
1 4 acceptor
1 5 acceptor
1 6 acceptor
6 1 7 8 11 12 15 rings
6 7 8 9 10 13 14 rings

>  <PUBCHEM_HEAVY_ATOM_COUNT>  (1) 
21

>  <PUBCHEM_ATOM_DEF_STEREO_COUNT>  (1) 
0

>  <PUBCHEM_ATOM_UDEF_STEREO_COUNT>  (1) 
0

>  <PUBCHEM_BOND_DEF_STEREO_COUNT>  (1) 
0

>  <PUBCHEM_BOND_UDEF_STEREO_COUNT>  (1) 
0

>  <PUBCHEM_ISOTOPIC_ATOM_COUNT>  (1) 
0

>  <PUBCHEM_COMPONENT_COUNT>  (1) 
1

>  <PUBCHEM_CACTVS_TAUTO_COUNT>  (1) 
1

>  <PUBCHEM_CONFORMER_ID>  (1) 
000059B500000001

>  <PUBCHEM_MMFF94_ENERGY>  (1) 
57.9258

>  <PUBCHEM_FEATURE_SELFOVERLAP>  (1) 
30.473

>  <PUBCHEM_SHAPE_FINGERPRINT>  (1) 
10014705 185 18334294275406355777
10411042 1 17259342696770042606
10498660 4 18341339958949849736
10906281 52 17988937630694526257
12390115 104 18199208311267264280
12403260 363 18125153832156230835
13583140 156 17530973440743657665
14528608 73 18342176669812834660
14767858 380 18201425992208974981
14774955 27 18408603660494130148
14790565 3 18338521940660130292
15196674 1 18410856585837127626
15238133 3 14996853078919732207
15342168 16 18408324401931359164
17834072 32 18410579517539086660
19427546 20 18267021854699007783
19784866 140 11312057630107580125
20645477 70 17986952942711960847
21304253 335 18187369860944214180
21315764 268 18113892711268972220
23402539 116 18271796918071678615
23402655 69 18130218247581368559
23559900 14 18130228151892601742
245318 6 17462301427987359820
270888 7 18263645220626488140
2838139 119 18261385599286720077
335352 9 18411420571442260990
3472631 163 18411986892406868252
34934 24 18409444774062473027
350125 39 18268153230889222929
3545911 37 18412262800995056499
4340502 62 17240771631885608571
474 4 18408325462719689778
5104073 3 18261111898364073146
6327066 14 18337110189426663260
633830 44 18412545410196802014
7970288 3 9439395809479707229
9981440 41 18335985393278884810

>  <PUBCHEM_SHAPE_MULTIPOLES>  (1) 
396.95
13.22
2.83
0.77
3.08
0.37
0
10.83
2.62
-2.28
0.39
0.35
0.23
-0.73

>  <PUBCHEM_SHAPE_SELFOVERLAP>  (1) 
845.226

>  <PUBCHEM_SHAPE_VOLUME>  (1) 
221

>  <PUBCHEM_COORDINATE_TYPE>  (1) 
2
5
10

$$$$
