22962
     RDKit          3D

 24 25  0  0  1  0  0  0  0  0999 V2000
    0.5735   -1.6198   -1.3957 O   0  0  0  0  0  0  0  0  0  0  0  0
   -1.3297   -0.5351    1.7174 O   0  0  0  0  0  0  0  0  0  0  0  0
   -0.5880    4.3646    0.4536 O   0  0  0  0  0  0  0  0  0  0  0  0
    1.4548    3.4244    0.7636 O   0  0  0  0  0  0  0  0  0  0  0  0
    2.2335   -1.0682    0.1455 N   0  0  0  0  0  0  0  0  0  0  0  0
   -1.0179    0.1903   -0.4642 N   0  0  0  0  0  0  0  0  0  0  0  0
    2.9190   -2.3499   -0.0344 C   0  0  0  0  0  0  0  0  0  0  0  0
    2.7841   -0.1019    1.1025 C   0  0  0  0  0  0  0  0  0  0  0  0
    4.0953   -2.2298   -0.9985 C   0  0  0  0  0  0  0  0  0  0  0  0
    4.2609   -0.2517    1.4647 C   0  0  0  0  0  0  0  0  0  0  0  0
    5.3573   -1.6489   -0.3655 C   0  0  0  0  0  0  0  0  0  0  0  0
    5.1906   -0.2623    0.2529 C   0  0  0  0  0  0  0  0  0  0  0  0
    0.3785    0.4979   -0.3461 C   0  0  0  0  0  0  0  0  0  0  0  0
    1.0608   -0.8279   -0.5849 C   0  0  0  0  0  0  0  0  0  0  0  0
    0.8644    1.5191   -1.3689 C   0  0  0  0  0  0  0  0  0  0  0  0
    0.1722    2.8783   -1.2346 C   0  0  0  0  0  0  0  0  0  0  0  0
   -1.7712   -0.3093    0.5938 C   0  0  0  0  0  0  0  0  0  0  0  0
    0.4416    3.5549    0.0914 C   0  0  0  0  0  0  0  0  0  0  0  0
   -3.1983   -0.6016    0.3025 C   0  0  0  0  0  0  0  0  0  0  0  0
   -3.8442   -1.5701    1.0427 C   0  0  0  0  0  0  0  0  0  0  0  0
   -3.8323    0.1051   -0.6984 C   0  0  0  0  0  0  0  0  0  0  0  0
   -5.1843   -1.8445    0.7694 C   0  0  0  0  0  0  0  0  0  0  0  0
   -5.1724   -0.1694   -0.9715 C   0  0  0  0  0  0  0  0  0  0  0  0
   -5.8484   -1.1442   -0.2374 C   0  0  0  0  0  0  0  0  0  0  0  0
  1 14  2  0
  2 17  2  0
  3 18  1  0
  4 18  2  0
  5  7  1  0
  5  8  1  0
  5 14  1  0
  6 13  1  0
  6 17  1  0
  7  9  1  0
  8 10  1  0
  9 11  1  0
 10 12  1  0
 11 12  1  0
 13 14  1  0
 13 15  1  0
 15 16  1  0
 16 18  1  0
 17 19  1  0
 19 20  2  0
 19 21  1  0
 20 22  1  0
 21 23  2  0
 22 24  2  0
 23 24  1  0
M  END
>  <PUBCHEM_COMPOUND_CID>  (1) 
22962

>  <PUBCHEM_CONFORMER_RMSD>  (1) 
1

>  <PUBCHEM_CONFORMER_DIVERSEORDER>  (1) 
1
53
27
44
74
25
47
49
69
70
65
50
68
66
72
62
4
73
46
61
76
34
17
77
38
57
24
5
67
60
54
22
75
58
63
52
19
43
45
32
6
11
37
64
26
18
8
41
30
7
29
55
13
33
20
14
36
42
71
2
3
9
59
56
39
10
12
23
16
21
15
40
31
28
48
35
51

>  <PUBCHEM_MMFF94_PARTIAL_CHARGES>  (1) 
26
1 -0.57
13 0.36
14 0.57
16 0.06
17 0.54
18 0.66
19 0.09
2 -0.57
20 -0.15
21 -0.15
22 -0.15
23 -0.15
24 -0.15
3 -0.65
4 -0.57
40 0.37
43 0.15
44 0.15
45 0.5
46 0.15
47 0.15
48 0.15
5 -0.66
6 -0.73
7 0.3
8 0.3

>  <PUBCHEM_EFFECTIVE_ROTOR_COUNT>  (1) 
9.4

>  <PUBCHEM_PHARMACOPHORE_FEATURES>  (1) 
8
1 1 acceptor
1 2 acceptor
1 3 acceptor
1 4 acceptor
1 6 donor
3 3 4 18 anion
6 19 20 21 22 23 24 rings
7 5 7 8 9 10 11 12 rings

>  <PUBCHEM_HEAVY_ATOM_COUNT>  (1) 
24

>  <PUBCHEM_ATOM_DEF_STEREO_COUNT>  (1) 
0

>  <PUBCHEM_ATOM_UDEF_STEREO_COUNT>  (1) 
1

>  <PUBCHEM_BOND_DEF_STEREO_COUNT>  (1) 
0

>  <PUBCHEM_BOND_UDEF_STEREO_COUNT>  (1) 
0

>  <PUBCHEM_ISOTOPIC_ATOM_COUNT>  (1) 
0

>  <PUBCHEM_COMPONENT_COUNT>  (1) 
1

>  <PUBCHEM_CACTVS_TAUTO_COUNT>  (1) 
2

>  <PUBCHEM_CONFORMER_ID>  (1) 
000059B200000001

>  <PUBCHEM_MMFF94_ENERGY>  (1) 
52.6314

>  <PUBCHEM_FEATURE_SELFOVERLAP>  (1) 
40.655

>  <PUBCHEM_SHAPE_FINGERPRINT>  (1) 
10366900 7 18262526892752159298
11265709 11 18409174281369762337
11646440 116 18261403230116777987
12166972 35 18131349752315284315
12516196 113 18409728460741703711
12788726 201 18115583734487650330
13004483 165 18266167349296216747
13134695 92 18410853300118724181
13544653 18 18412546483305336943
13782708 43 18057893437980375542
13899415 154 18338243755696725932
14787075 74 18113621218186237890
14840074 17 17988922288327534022
14955137 171 18340490053303825294
15927050 60 17691410033226418724
17349148 13 17988933296671825191
17357779 13 18338222778749463260
17980427 23 17846227631126538769
1813 80 18130240280083193502
18222031 100 18410855464650320326
20600515 1 18116454594683058719
21033648 29 17845917568641778051
21033650 10 16517664533644556926
23419403 2 18044347578472910333
23557571 272 18265895761428569812
23559900 14 17822572841124648925
283562 15 18189620436781929258
3004659 81 17530687602133285190
314173 85 18409732828702188954
3411729 13 17970343943907542624
5283173 99 17896031044839844525
6004065 56 18338507642756297407
621550 34 18201993301585999238
6443956 14 18335983155136452312
7471813 234 18272370897385298677
81228 2 17899991429893845004
9971528 1 18412826889030363235

>  <PUBCHEM_SHAPE_MULTIPOLES>  (1) 
460.47
11.66
3.73
1.32
5.46
5.69
-0.08
-9.93
-0.44
-1.4
-0.06
-0.21
-0.01
1.15

>  <PUBCHEM_SHAPE_SELFOVERLAP>  (1) 
948.557

>  <PUBCHEM_SHAPE_VOLUME>  (1) 
261.1

>  <PUBCHEM_COORDINATE_TYPE>  (1) 
2
5
10

$$$$
