2296
     RDKit          3D

 36 39  0  0  1  0  0  0  0  0999 V2000
    0.3025    2.5255   -0.0188 O   0  0  0  0  0  0  0  0  0  0  0  0
   -0.7991    2.6520    2.0132 O   0  0  0  0  0  0  0  0  0  0  0  0
   -4.5626   -0.9585    1.9348 O   0  0  0  0  0  0  0  0  0  0  0  0
   -4.5283   -2.3227    0.0648 O   0  0  0  0  0  0  0  0  0  0  0  0
    1.5433   -3.2827   -2.2652 O   0  0  0  0  0  0  0  0  0  0  0  0
    0.1394   -1.8607   -3.1741 O   0  0  0  0  0  0  0  0  0  0  0  0
    3.4059    2.0001   -0.0296 N   0  0  0  0  0  0  0  0  0  0  0  0
   -3.5043    1.6271   -1.5600 N   0  0  0  0  0  0  0  0  0  0  0  0
    0.6469   -2.4101   -2.1665 N   0  0  0  0  0  0  0  0  0  0  0  0
    1.4462    3.1565    0.5421 C   0  0  0  0  0  0  0  0  0  0  0  0
    2.2055    3.9275   -0.5361 C   0  0  0  0  0  0  0  0  0  0  0  0
    2.4207    2.0992    1.0516 C   0  0  0  0  0  0  0  0  0  0  0  0
    3.6210    3.3736   -0.4819 C   0  0  0  0  0  0  0  0  0  0  0  0
    4.6387    1.3555    0.3981 C   0  0  0  0  0  0  0  0  0  0  0  0
   -2.3190    0.3476    0.6742 C   0  0  0  0  0  0  0  0  0  0  0  0
   -1.8277    1.6844    0.1097 C   0  0  0  0  0  0  0  0  0  0  0  0
   -0.7315    2.3443    0.8376 C   0  0  0  0  0  0  0  0  0  0  0  0
    4.5164   -0.1451    0.3975 C   0  0  0  0  0  0  0  0  0  0  0  0
   -3.6142   -0.1365    0.0147 C   0  0  0  0  0  0  0  0  0  0  0  0
   -2.4103    2.2441   -0.9748 C   0  0  0  0  0  0  0  0  0  0  0  0
   -1.2481   -0.6948    0.5284 C   0  0  0  0  0  0  0  0  0  0  0  0
   -4.1284    0.4930   -1.0660 C   0  0  0  0  0  0  0  0  0  0  0  0
    4.0786   -0.8095    1.5432 C   0  0  0  0  0  0  0  0  0  0  0  0
    4.8411   -0.8711   -0.7484 C   0  0  0  0  0  0  0  0  0  0  0  0
   -1.9752    3.5242   -1.6356 C   0  0  0  0  0  0  0  0  0  0  0  0
   -0.8025   -1.0652   -0.7404 C   0  0  0  0  0  0  0  0  0  0  0  0
   -0.6985   -1.2927    1.6625 C   0  0  0  0  0  0  0  0  0  0  0  0
   -4.2867   -1.2823    0.6484 C   0  0  0  0  0  0  0  0  0  0  0  0
   -5.3624    0.0691   -1.8158 C   0  0  0  0  0  0  0  0  0  0  0  0
    3.9653   -2.1997    1.5429 C   0  0  0  0  0  0  0  0  0  0  0  0
    4.7278   -2.2613   -0.7486 C   0  0  0  0  0  0  0  0  0  0  0  0
    0.1927   -2.0331   -0.8752 C   0  0  0  0  0  0  0  0  0  0  0  0
    0.2967   -2.2608    1.5278 C   0  0  0  0  0  0  0  0  0  0  0  0
    4.2899   -2.9257    0.3970 C   0  0  0  0  0  0  0  0  0  0  0  0
    0.7422   -2.6310    0.2589 C   0  0  0  0  0  0  0  0  0  0  0  0
   -5.2220   -1.9802    2.6897 C   0  0  0  0  0  0  0  0  0  0  0  0
  1 10  1  0
  1 17  1  0
  2 17  2  0
  3 28  1  0
  3 36  1  0
  4 28  2  0
  5  9  1  0
  6  9  2  0
  7 12  1  0
  7 13  1  0
  7 14  1  0
  8 20  1  0
  8 22  1  0
  9 32  1  0
 10 11  1  0
 10 12  1  0
 11 13  1  0
 14 18  1  0
 15 16  1  0
 15 19  1  0
 15 21  1  0
 16 17  1  0
 16 20  2  0
 18 23  2  0
 18 24  1  0
 19 22  2  0
 19 28  1  0
 20 25  1  0
 21 26  2  0
 21 27  1  0
 22 29  1  0
 23 30  1  0
 24 31  2  0
 26 32  1  0
 27 33  2  0
 30 34  2  0
 31 34  1  0
 32 35  2  0
 33 35  1  0
M  CHG  2   5  -1   9   1
M  END
>  <PUBCHEM_COMPOUND_CID>  (1) 
2296

>  <PUBCHEM_CONFORMER_RMSD>  (1) 
1.2

>  <PUBCHEM_CONFORMER_DIVERSEORDER>  (1) 
3
53
232
505
37
42
583
86
529
597
214
38
156
164
161
91
634
199
374
471
345
83
120
617
248
14
563
368
287
608
6
469
407
126
28
23
55
311
482
468
177
15
348
488
370
99
442
169
494
552
619
497
253
443
426
629
304
93
138
115
133
9
244
356
367
347
586
57
461
271
110
201
269
123
298
593
178
191
149
4
80
100
346
52
427
167
584
206
94
136
65
112
87
40
501
258
594
102
509
2
295
521
119
47
198
45
202
226
316
16
88
511
50
344
179
51
59
90
222
46
424
503
147
128
132
290
1
139
141
211
425
548
12
146
26
13
44
383
68
172
260
168
236
76
92
8
318
129
5
36
17
297
180
415
143
20
106
328
620
268
204
195
71
48
154
216
32
10
7
97
544
75
338
259
231
27
62
24
70
67
49
31

>  <PUBCHEM_MMFF94_PARTIAL_CHARGES>  (1) 
45
1 -0.43
10 0.28
12 0.27
13 0.27
14 0.41
15 0.42
16 -0.12
17 0.71
18 -0.14
19 -0.12
2 -0.57
20 -0.04
21 -0.14
22 -0.04
23 -0.15
24 -0.15
25 0.14
26 -0.15
27 -0.15
28 0.71
29 0.14
3 -0.43
30 -0.15
31 -0.15
32 0.13
33 -0.15
34 -0.15
35 -0.15
36 0.28
4 -0.57
47 0.4
48 0.15
49 0.15
5 -0.52
53 0.15
54 0.15
58 0.15
59 0.15
6 -0.52
60 0.15
61 0.15
62 0.15
7 -0.81
8 -0.6
9 0.91

>  <PUBCHEM_EFFECTIVE_ROTOR_COUNT>  (1) 
10.4

>  <PUBCHEM_PHARMACOPHORE_FEATURES>  (1) 
12
1 2 acceptor
1 4 acceptor
1 5 acceptor
1 5 anion
1 6 acceptor
1 7 cation
1 8 cation
1 8 donor
5 7 10 11 12 13 rings
6 18 23 24 30 31 34 rings
6 21 26 27 32 33 35 rings
6 8 15 16 19 20 22 rings

>  <PUBCHEM_HEAVY_ATOM_COUNT>  (1) 
36

>  <PUBCHEM_ATOM_DEF_STEREO_COUNT>  (1) 
0

>  <PUBCHEM_ATOM_UDEF_STEREO_COUNT>  (1) 
2

>  <PUBCHEM_BOND_DEF_STEREO_COUNT>  (1) 
0

>  <PUBCHEM_BOND_UDEF_STEREO_COUNT>  (1) 
0

>  <PUBCHEM_ISOTOPIC_ATOM_COUNT>  (1) 
0

>  <PUBCHEM_COMPONENT_COUNT>  (1) 
1

>  <PUBCHEM_CACTVS_TAUTO_COUNT>  (1) 
3

>  <PUBCHEM_CONFORMER_ID>  (1) 
000008F800000003

>  <PUBCHEM_MMFF94_ENERGY>  (1) 
99.6565

>  <PUBCHEM_FEATURE_SELFOVERLAP>  (1) 
60.978

>  <PUBCHEM_SHAPE_FINGERPRINT>  (1) 
10675989 125 16471743860144105703
11578080 2 16663148631387942719
12107698 1 18410013230749712466
12156800 1 15012125604867782256
12422481 6 18342471322091912745
13122387 1 14303854720016594112
13583140 156 18261106357376849127
13642711 20 18190439598292686823
14659021 117 16684275077364953240
14840074 17 17917710197341061399
19319366 153 18047757280733036976
20764821 26 17838924558999143190
20771845 140 16917348165030330551
23559900 14 18261383455697274841
25265897 201 15979783372454008140
3298306 158 18265044911169749556
508706 21 18115582626133283037
5265222 85 17757841400348247604
57527585 103 17902265271495667459
6287921 2 17487909899352275358
6669772 16 18193556894346069448

>  <PUBCHEM_SHAPE_MULTIPOLES>  (1) 
690.7
10.76
5.01
2.18
0.93
2.95
0.55
-3.95
-1.04
-2.99
0.51
1.49
-1.37
2.04

>  <PUBCHEM_SHAPE_SELFOVERLAP>  (1) 
1489.996

>  <PUBCHEM_SHAPE_VOLUME>  (1) 
380.9

>  <PUBCHEM_COORDINATE_TYPE>  (1) 
2
5
10

$$$$
