22971
     RDKit          3D

 19 20  0  0  0  0  0  0  0  0999 V2000
   -2.0052   -1.8252    0.0845 O   0  0  0  0  0  0  0  0  0  0  0  0
    3.6106    0.9253    0.5474 O   0  0  0  0  0  0  0  0  0  0  0  0
   -4.2228   -1.2744    0.0927 O   0  0  0  0  0  0  0  0  0  0  0  0
    4.3160   -0.9803   -0.5345 O   0  0  0  0  0  0  0  0  0  0  0  0
   -3.4460    2.6954    0.4573 O   0  0  0  0  0  0  0  0  0  0  0  0
   -0.3313   -0.0642   -0.0030 C   0  0  0  0  0  0  0  0  0  0  0  0
   -0.6580   -1.4154    0.0522 C   0  0  0  0  0  0  0  0  0  0  0  0
    1.0163    0.3029   -0.0337 C   0  0  0  0  0  0  0  0  0  0  0  0
    2.0097   -0.6803   -0.0090 C   0  0  0  0  0  0  0  0  0  0  0  0
   -1.4036    0.9186   -0.0267 C   0  0  0  0  0  0  0  0  0  0  0  0
   -2.6818    0.5234    0.0043 C   0  0  0  0  0  0  0  0  0  0  0  0
    0.3211   -2.4066    0.0771 C   0  0  0  0  0  0  0  0  0  0  0  0
    1.6624   -2.0321    0.0463 C   0  0  0  0  0  0  0  0  0  0  0  0
   -3.0526   -0.9084    0.0631 C   0  0  0  0  0  0  0  0  0  0  0  0
    3.4117   -0.2945   -0.0395 C   0  0  0  0  0  0  0  0  0  0  0  0
   -3.6917    1.5881   -0.0228 C   0  0  0  0  0  0  0  0  0  0  0  0
    4.9550    1.4167    0.5784 C   0  0  0  0  0  0  0  0  0  0  0  0
   -5.0223    1.2837   -0.6603 C   0  0  0  0  0  0  0  0  0  0  0  0
    5.2127    2.2272   -0.6740 C   0  0  0  0  0  0  0  0  0  0  0  0
  1  7  1  0
  1 14  1  0
  2 15  1  0
  2 17  1  0
  3 14  2  0
  4 15  2  0
  5 16  2  0
  6  7  2  0
  6  8  1  0
  6 10  1  0
  7 12  1  0
  8  9  2  0
  9 13  1  0
  9 15  1  0
 10 11  2  0
 11 14  1  0
 11 16  1  0
 12 13  2  0
 16 18  1  0
 17 19  1  0
M  END
>  <PUBCHEM_COMPOUND_CID>  (1) 
22971

>  <PUBCHEM_CONFORMER_RMSD>  (1) 
0.6

>  <PUBCHEM_CONFORMER_DIVERSEORDER>  (1) 
8
5
22
25
6
20
15
27
21
3
4
30
19
24
17
1
9
33
28
11
18
2
31
7
35
10
32
26
16
23
12
34
14
29
13
36

>  <PUBCHEM_MMFF94_PARTIAL_CHARGES>  (1) 
22
1 -0.23
10 -0.18
11 0.03
12 -0.15
13 -0.15
14 0.71
15 0.63
16 0.49
17 0.28
18 0.06
2 -0.43
20 0.15
21 0.15
22 0.15
23 0.15
3 -0.57
4 -0.57
5 -0.57
6 0.03
7 0.08
8 -0.15
9 0.09

>  <PUBCHEM_EFFECTIVE_ROTOR_COUNT>  (1) 
4

>  <PUBCHEM_PHARMACOPHORE_FEATURES>  (1) 
6
1 11 anion
1 3 acceptor
1 4 acceptor
1 5 acceptor
6 1 6 7 10 11 14 rings
6 6 7 8 9 12 13 rings

>  <PUBCHEM_HEAVY_ATOM_COUNT>  (1) 
19

>  <PUBCHEM_ATOM_DEF_STEREO_COUNT>  (1) 
0

>  <PUBCHEM_ATOM_UDEF_STEREO_COUNT>  (1) 
0

>  <PUBCHEM_BOND_DEF_STEREO_COUNT>  (1) 
0

>  <PUBCHEM_BOND_UDEF_STEREO_COUNT>  (1) 
0

>  <PUBCHEM_ISOTOPIC_ATOM_COUNT>  (1) 
0

>  <PUBCHEM_COMPONENT_COUNT>  (1) 
1

>  <PUBCHEM_CACTVS_TAUTO_COUNT>  (1) 
2

>  <PUBCHEM_CONFORMER_ID>  (1) 
000059BB00000008

>  <PUBCHEM_MMFF94_ENERGY>  (1) 
56.8024

>  <PUBCHEM_FEATURE_SELFOVERLAP>  (1) 
30.473

>  <PUBCHEM_SHAPE_FINGERPRINT>  (1) 
10014705 185 18260825986633637845
10411042 1 17401486443022008274
10498660 4 18411140229651133356
10608611 8 18412543184743995466
10646746 165 18410576167348362886
10670039 82 18261967314385047564
11132069 177 18186802465372515437
12173636 292 18340203085211766142
122479 349 18408604781818081026
12390115 104 18270698526839776464
12403259 415 18410865360312745622
12596602 18 17168419484278861152
12788726 201 17828476200379956978
13140716 1 18191024504256029587
14528608 73 18413103957196646148
14848178 96 18339920424766332048
15196674 1 18410573985341498122
17834072 32 18409732850277433996
18186145 218 18130799936181787626
204376 136 18408886226218168152
20510252 161 18343305876933964859
23227448 37 18340485676615943812
23366157 5 18043251249785171778
23402539 116 18341040904207649822
23402655 69 18202280294983385286
23559900 14 18200311014398950618
245318 6 17099198729473912156
335352 9 18338797785150909638
34934 24 18408878512968600991
350125 39 18337957917038647129
3545911 37 18336267838822595551
394222 165 18263076635174678842
474 4 18186805789972789820
4990 188 17988647333317030142
5104073 3 18334577910451060298
633830 44 18341609279021348734
7064713 232 18334855056665608708
7364860 26 18124313796609588662
7808743 9 18265613367846179528
90127 26 18334869315840395698
9709674 26 18412268315438191751
9981440 41 18334573576887444642

>  <PUBCHEM_SHAPE_MULTIPOLES>  (1) 
361.66
10.6
2.62
0.69
4.41
0.12
-0.02
7.39
-0.79
-0.08
0.02
0.18
0.14
0.04

>  <PUBCHEM_SHAPE_SELFOVERLAP>  (1) 
777.119

>  <PUBCHEM_SHAPE_VOLUME>  (1) 
199.4

>  <PUBCHEM_COORDINATE_TYPE>  (1) 
2
5
10

$$$$
