22978
     RDKit          3D

 48 53  0  0  0  0  0  0  0  0999 V2000
   -3.5664    2.5530   -0.0381 Cl  0  0  0  0  0  0  0  0  0  0  0  0
    3.7374    2.3419   -1.3802 Cl  0  0  0  0  0  0  0  0  0  0  0  0
   -9.5631    2.3929    1.0316 S   0  0  0  0  0  0  0  0  0  0  0  0
    9.7138    2.3948   -0.1778 S   0  0  0  0  0  0  0  0  0  0  0  0
  -10.2540    2.1300    2.4864 O   0  0  0  0  0  0  0  0  0  0  0  0
   10.3870    2.1457   -1.6435 O   0  0  0  0  0  0  0  0  0  0  0  0
   -8.4960    3.3578    1.2287 O   0  0  0  0  0  0  0  0  0  0  0  0
  -10.6156    2.6263    0.0599 O   0  0  0  0  0  0  0  0  0  0  0  0
    8.7123    3.4348   -0.3343 O   0  0  0  0  0  0  0  0  0  0  0  0
   10.7786    2.5196    0.8004 O   0  0  0  0  0  0  0  0  0  0  0  0
   -6.7746   -2.6844   -0.3799 N   0  0  0  0  0  0  0  0  0  0  0  0
    6.5972   -2.5413    1.0347 N   0  0  0  0  0  0  0  0  0  0  0  0
   -5.3575   -0.3732    0.3095 N   0  0  0  0  0  0  0  0  0  0  0  0
    5.3352   -0.1162    0.4409 N   0  0  0  0  0  0  0  0  0  0  0  0
   -4.9121   -0.0513   -0.8159 N   0  0  0  0  0  0  0  0  0  0  0  0
    4.9098   -0.3734   -0.7089 N   0  0  0  0  0  0  0  0  0  0  0  0
   -9.5662   -0.2798    0.2618 C   0  0  0  0  0  0  0  0  0  0  0  0
    9.5410   -0.3009    0.4843 C   0  0  0  0  0  0  0  0  0  0  0  0
   -8.8896   -1.4774   -0.0708 C   0  0  0  0  0  0  0  0  0  0  0  0
    8.7869   -1.4641    0.7700 C   0  0  0  0  0  0  0  0  0  0  0  0
   -8.8188    0.8594    0.6032 C   0  0  0  0  0  0  0  0  0  0  0  0
    8.8702    0.8975    0.1903 C   0  0  0  0  0  0  0  0  0  0  0  0
   -7.4854   -1.5005   -0.0525 C   0  0  0  0  0  0  0  0  0  0  0  0
    7.3843   -1.3944    0.7534 C   0  0  0  0  0  0  0  0  0  0  0  0
   -6.7588   -0.3593    0.2886 C   0  0  0  0  0  0  0  0  0  0  0  0
    6.7382   -0.1954    0.4598 C   0  0  0  0  0  0  0  0  0  0  0  0
   -7.4244    0.8184    0.6160 C   0  0  0  0  0  0  0  0  0  0  0  0
    7.4760    0.9485    0.1783 C   0  0  0  0  0  0  0  0  0  0  0  0
  -10.9703   -0.2564    0.2437 C   0  0  0  0  0  0  0  0  0  0  0  0
   10.9435   -0.3705    0.5007 C   0  0  0  0  0  0  0  0  0  0  0  0
   -9.6370   -2.6165   -0.4118 C   0  0  0  0  0  0  0  0  0  0  0  0
    9.4578   -2.6624    1.0637 C   0  0  0  0  0  0  0  0  0  0  0  0
  -11.6969   -1.3974   -0.0979 C   0  0  0  0  0  0  0  0  0  0  0  0
   11.5935   -1.5694    0.7949 C   0  0  0  0  0  0  0  0  0  0  0  0
  -11.0314   -2.5751   -0.4249 C   0  0  0  0  0  0  0  0  0  0  0  0
   10.8520   -2.7132    1.0759 C   0  0  0  0  0  0  0  0  0  0  0  0
   -0.7230   -0.1545   -0.7684 C   0  0  0  0  0  0  0  0  0  0  0  0
    0.7229   -0.2019   -0.7550 C   0  0  0  0  0  0  0  0  0  0  0  0
   -3.5070   -0.0648   -0.7953 C   0  0  0  0  0  0  0  0  0  0  0  0
    3.5109   -0.2949   -0.7281 C   0  0  0  0  0  0  0  0  0  0  0  0
   -1.3860    1.0279   -0.4393 C   0  0  0  0  0  0  0  0  0  0  0  0
    1.4617    0.9471   -1.0374 C   0  0  0  0  0  0  0  0  0  0  0  0
   -1.4543   -1.2920   -1.1110 C   0  0  0  0  0  0  0  0  0  0  0  0
    1.3782   -1.3973   -0.4592 C   0  0  0  0  0  0  0  0  0  0  0  0
   -2.7801    1.0727   -0.4526 C   0  0  0  0  0  0  0  0  0  0  0  0
    2.8559    0.9006   -1.0241 C   0  0  0  0  0  0  0  0  0  0  0  0
   -2.8483   -1.2471   -1.1244 C   0  0  0  0  0  0  0  0  0  0  0  0
    2.7721   -1.4439   -0.4458 C   0  0  0  0  0  0  0  0  0  0  0  0
  1 45  1  0
  2 46  1  0
  3  5  1  0
  3  7  2  0
  3  8  2  0
  3 21  1  0
  4  6  1  0
  4  9  2  0
  4 10  2  0
  4 22  1  0
 11 23  1  0
 12 24  1  0
 13 15  2  0
 13 25  1  0
 14 16  2  0
 14 26  1  0
 15 39  1  0
 16 40  1  0
 17 19  1  0
 17 21  2  0
 17 29  1  0
 18 20  1  0
 18 22  2  0
 18 30  1  0
 19 23  2  0
 19 31  1  0
 20 24  2  0
 20 32  1  0
 21 27  1  0
 22 28  1  0
 23 25  1  0
 24 26  1  0
 25 27  2  0
 26 28  2  0
 29 33  2  0
 30 34  2  0
 31 35  2  0
 32 36  2  0
 33 35  1  0
 34 36  1  0
 37 38  1  0
 37 41  2  0
 37 43  1  0
 38 42  2  0
 38 44  1  0
 39 45  2  0
 39 47  1  0
 40 46  2  0
 40 48  1  0
 41 45  1  0
 42 46  1  0
 43 47  2  0
 44 48  2  0
M  END
>  <PUBCHEM_COMPOUND_CID>  (1) 
22978

>  <PUBCHEM_CONFORMER_RMSD>  (1) 
1

>  <PUBCHEM_CONFORMER_DIVERSEORDER>  (1) 
1
20
5
30
3
22
6
15
10
28
34
31
7
13
25
14
35
16
18
24
17
29
12
23
32
2
19
27
21
9
11
4
26
33
8

>  <PUBCHEM_MMFF94_PARTIAL_CHARGES>  (1) 
64
1 -0.18
10 -0.65
11 -0.9
12 -0.9
13 -0.18
14 -0.18
15 -0.18
16 -0.18
2 -0.18
21 -0.01
22 -0.01
23 0.1
24 0.1
25 0.18
26 0.18
27 -0.15
28 -0.15
29 -0.15
3 1.49
30 -0.15
31 -0.15
32 -0.15
33 -0.15
34 -0.15
35 -0.15
36 -0.15
39 0.18
4 1.49
40 0.18
41 -0.15
42 -0.15
43 -0.15
44 -0.15
45 0.18
46 0.18
47 -0.15
48 -0.15
49 0.15
5 -0.68
50 0.15
51 0.15
52 0.15
53 0.15
54 0.15
55 0.15
56 0.15
57 0.15
58 0.15
59 0.4
6 -0.68
60 0.4
61 0.4
62 0.4
63 0.15
64 0.15
65 0.15
66 0.15
67 0.15
68 0.15
69 0.5
7 -0.65
70 0.5
8 -0.65
9 -0.65

>  <PUBCHEM_EFFECTIVE_ROTOR_COUNT>  (1) 
7

>  <PUBCHEM_PHARMACOPHORE_FEATURES>  (1) 
18
1 10 acceptor
1 11 cation
1 11 donor
1 12 cation
1 12 donor
1 5 acceptor
1 6 acceptor
1 7 acceptor
1 8 acceptor
1 9 acceptor
4 3 5 7 8 anion
4 4 6 9 10 anion
6 17 19 21 23 25 27 rings
6 17 19 29 31 33 35 rings
6 18 20 22 24 26 28 rings
6 18 20 30 32 34 36 rings
6 37 39 41 43 45 47 rings
6 38 40 42 44 46 48 rings

>  <PUBCHEM_HEAVY_ATOM_COUNT>  (1) 
48

>  <PUBCHEM_ATOM_DEF_STEREO_COUNT>  (1) 
0

>  <PUBCHEM_ATOM_UDEF_STEREO_COUNT>  (1) 
0

>  <PUBCHEM_BOND_DEF_STEREO_COUNT>  (1) 
0

>  <PUBCHEM_BOND_UDEF_STEREO_COUNT>  (1) 
0

>  <PUBCHEM_ISOTOPIC_ATOM_COUNT>  (1) 
0

>  <PUBCHEM_COMPONENT_COUNT>  (1) 
1

>  <PUBCHEM_CACTVS_TAUTO_COUNT>  (1) 
1

>  <PUBCHEM_CONFORMER_ID>  (1) 
000059C200000001

>  <PUBCHEM_MMFF94_ENERGY>  (1) 
170.8977

>  <PUBCHEM_FEATURE_SELFOVERLAP>  (1) 
91.516

>  <PUBCHEM_SHAPE_FINGERPRINT>  (1) 
10168742 298 13190339024785654442
11966995 178 18342461466007488908
12089408 11 18410855464507596790
12144603 126 18411698820175923742
12559415 90 18408881825195839461
12664476 115 17704066287913682568
12728209 37 18413108342305385010
13553643 46 18341897334442747641
13740195 50 18410292523349799387
13947934 56 18114457885925671876
15061470 23 18411416215443433441
15065858 18 17968086521374421407
15145343 6 18131064944464954152
15247644 1 16805324392485207187
16728433 110 17967248719800798700
20105231 36 17894344463308206122
20156587 128 9223234044072218205
20580484 106 18273491265374426483
21102433 48 18411415142372198367
21362267 313 18270966735268898114
21792961 116 13551188897642178471
21895431 317 17822563916194087010
22082593 10 18412263939578602041
232437 2 18334293167073061614
3092352 35 18411135836738528538
3991529 128 16128655266869510754
9937071 3 14562526276042805088

>  <PUBCHEM_SHAPE_MULTIPOLES>  (1) 
934.15
58.44
3.37
1.2
0.76
1.07
-0.15
-5.24
-18.87
-0.41
-0.51
0.18
0.35
-6.01

>  <PUBCHEM_SHAPE_SELFOVERLAP>  (1) 
2053.43

>  <PUBCHEM_SHAPE_VOLUME>  (1) 
505.8

>  <PUBCHEM_COORDINATE_TYPE>  (1) 
2
5
10

$$$$
