22974
     RDKit          3D

 19 20  0  0  0  0  0  0  0  0999 V2000
   -1.1047   -1.8837   -0.0086 O   0  0  0  0  0  0  0  0  0  0  0  0
    4.8709   -0.0780   -0.4442 O   0  0  0  0  0  0  0  0  0  0  0  0
   -3.3861   -1.7775   -0.0802 O   0  0  0  0  0  0  0  0  0  0  0  0
    4.1167    1.7824    0.6822 O   0  0  0  0  0  0  0  0  0  0  0  0
   -3.4582    2.2477   -0.5701 O   0  0  0  0  0  0  0  0  0  0  0  0
   -5.6625    0.4237   -0.1226 O   0  0  0  0  0  0  0  0  0  0  0  0
    0.1917    0.1724    0.0390 C   0  0  0  0  0  0  0  0  0  0  0  0
    0.1357   -1.2176    0.0331 C   0  0  0  0  0  0  0  0  0  0  0  0
    1.4409    0.7966    0.0809 C   0  0  0  0  0  0  0  0  0  0  0  0
   -1.0514    0.9270    0.0014 C   0  0  0  0  0  0  0  0  0  0  0  0
    2.6068    0.0263    0.1160 C   0  0  0  0  0  0  0  0  0  0  0  0
    1.2892   -1.9987    0.0676 C   0  0  0  0  0  0  0  0  0  0  0  0
   -2.2270    0.2888   -0.0381 C   0  0  0  0  0  0  0  0  0  0  0  0
    2.5307   -1.3684    0.1094 C   0  0  0  0  0  0  0  0  0  0  0  0
   -2.3106   -1.1891   -0.0451 C   0  0  0  0  0  0  0  0  0  0  0  0
    3.9056    0.6794    0.1612 C   0  0  0  0  0  0  0  0  0  0  0  0
   -3.4251    1.1359   -0.0736 C   0  0  0  0  0  0  0  0  0  0  0  0
   -4.6604    0.5732    0.5547 C   0  0  0  0  0  0  0  0  0  0  0  0
    6.1977    0.4597   -0.4632 C   0  0  0  0  0  0  0  0  0  0  0  0
  1  8  1  0
  1 15  1  0
  2 16  1  0
  2 19  1  0
  3 15  2  0
  4 16  2  0
  5 17  2  0
  6 18  2  0
  7  8  2  0
  7  9  1  0
  7 10  1  0
  8 12  1  0
  9 11  2  0
 10 13  2  0
 11 14  1  0
 11 16  1  0
 12 14  2  0
 13 15  1  0
 13 17  1  0
 17 18  1  0
M  END
>  <PUBCHEM_COMPOUND_CID>  (1) 
22974

>  <PUBCHEM_CONFORMER_RMSD>  (1) 
0.6

>  <PUBCHEM_CONFORMER_DIVERSEORDER>  (1) 
1
15
19
18
9
5
3
17
10
20
2
16
11
21
4
13
12
8
14
6
7

>  <PUBCHEM_MMFF94_PARTIAL_CHARGES>  (1) 
24
1 -0.23
10 -0.18
11 0.09
12 -0.15
13 0.03
14 -0.15
15 0.71
16 0.63
17 0.56
18 0.51
19 0.28
2 -0.43
20 0.15
21 0.15
22 0.15
23 0.15
24 0.06
3 -0.57
4 -0.57
5 -0.57
6 -0.57
7 0.03
8 0.08
9 -0.15

>  <PUBCHEM_EFFECTIVE_ROTOR_COUNT>  (1) 
4

>  <PUBCHEM_PHARMACOPHORE_FEATURES>  (1) 
7
1 13 anion
1 3 acceptor
1 4 acceptor
1 5 acceptor
1 6 acceptor
6 1 7 8 10 13 15 rings
6 7 8 9 11 12 14 rings

>  <PUBCHEM_HEAVY_ATOM_COUNT>  (1) 
19

>  <PUBCHEM_ATOM_DEF_STEREO_COUNT>  (1) 
0

>  <PUBCHEM_ATOM_UDEF_STEREO_COUNT>  (1) 
0

>  <PUBCHEM_BOND_DEF_STEREO_COUNT>  (1) 
0

>  <PUBCHEM_BOND_UDEF_STEREO_COUNT>  (1) 
0

>  <PUBCHEM_ISOTOPIC_ATOM_COUNT>  (1) 
0

>  <PUBCHEM_COMPONENT_COUNT>  (1) 
1

>  <PUBCHEM_CACTVS_TAUTO_COUNT>  (1) 
1

>  <PUBCHEM_CONFORMER_ID>  (1) 
000059BE00000001

>  <PUBCHEM_MMFF94_ENERGY>  (1) 
59.5976

>  <PUBCHEM_FEATURE_SELFOVERLAP>  (1) 
35.552

>  <PUBCHEM_SHAPE_FINGERPRINT>  (1) 
10411042 1 17617379927580984434
10608611 8 18411133619416636657
12236239 1 17603587443515528324
12390115 104 18199480865708229537
12403259 415 18201439246335573560
12596602 18 16008753532366180608
12644460 14 18261112907465272074
15196674 1 18340205292935394410
15536298 74 18341332201790630734
17834072 8 18202571670492774572
18186145 218 18201718457632462400
19784866 170 18260832591802494699
200 152 16056883511631813496
20602899 9 16056880247188072647
20645477 56 18408886230808619045
20645477 70 17560245713119483054
21267235 1 18338524148083409835
23402539 116 18272085024409160108
23402655 69 18272086063237390101
23557571 272 18201165450175052878
23559900 14 18202562908891554376
293599 30 18411420609542649598
3004659 81 18335708205391379766
335352 9 18411982460327341358
34934 24 18408600340637306531
3545911 37 18411140225049827685
4214541 1 18412545426775030664
474 4 17821454568689463628
495365 180 17346306129806226266
4990 188 18060145332108319166
5104073 3 18409446985823035770
59755656 215 18340212899644534694
59755656 520 17458345251552694706
633830 44 18271517693626156580
69090 78 18413103940670858895
7364860 26 18269274556740940766
9709674 26 18411422821119134343

>  <PUBCHEM_SHAPE_MULTIPOLES>  (1) 
355.8
11.29
1.94
0.66
4.19
0.4
-0.02
-4.38
0.66
-0.61
0.02
0.08
-0.08
0.25

>  <PUBCHEM_SHAPE_SELFOVERLAP>  (1) 
773.855

>  <PUBCHEM_SHAPE_VOLUME>  (1) 
193

>  <PUBCHEM_COORDINATE_TYPE>  (1) 
2
5
10

$$$$
