22984
     RDKit          3D

 23 25  0  0  0  0  0  0  0  0999 V2000
    4.8903    0.0517   -0.0653 S   0  0  0  0  0  0  0  0  0  0  0  0
   -1.4404    2.1838   -0.0007 O   0  0  0  0  0  0  0  0  0  0  0  0
    0.4132   -2.8280   -0.0240 O   0  0  0  0  0  0  0  0  0  0  0  0
    5.3515   -0.0191    1.5010 O   0  0  0  0  0  0  0  0  0  0  0  0
    5.1113   -1.2695   -0.6350 O   0  0  0  0  0  0  0  0  0  0  0  0
    5.5040    1.2300   -0.6575 O   0  0  0  0  0  0  0  0  0  0  0  0
   -4.1934    1.9345    1.1202 O   0  0  0  0  0  0  0  0  0  0  0  0
   -4.2117    1.9383   -1.0749 O   0  0  0  0  0  0  0  0  0  0  0  0
   -3.9502    1.3882    0.0196 N   0  0  0  0  0  0  0  0  0  0  0  0
    0.9040   -0.5306   -0.0258 C   0  0  0  0  0  0  0  0  0  0  0  0
    0.4088    0.7751   -0.0209 C   0  0  0  0  0  0  0  0  0  0  0  0
   -1.9718   -0.1280    0.0007 C   0  0  0  0  0  0  0  0  0  0  0  0
   -1.4765   -1.4336   -0.0044 C   0  0  0  0  0  0  0  0  0  0  0  0
   -1.0473    1.0241   -0.0069 C   0  0  0  0  0  0  0  0  0  0  0  0
   -0.0206   -1.6827   -0.0179 C   0  0  0  0  0  0  0  0  0  0  0  0
    2.2861   -0.7531   -0.0386 C   0  0  0  0  0  0  0  0  0  0  0  0
    3.1665    0.3293   -0.0470 C   0  0  0  0  0  0  0  0  0  0  0  0
    1.2957    1.8583   -0.0294 C   0  0  0  0  0  0  0  0  0  0  0  0
   -3.3540    0.0944    0.0124 C   0  0  0  0  0  0  0  0  0  0  0  0
    2.6723    1.6322   -0.0424 C   0  0  0  0  0  0  0  0  0  0  0  0
   -2.3634   -2.5169    0.0028 C   0  0  0  0  0  0  0  0  0  0  0  0
   -4.2343   -0.9879    0.0193 C   0  0  0  0  0  0  0  0  0  0  0  0
   -3.7401   -2.2906    0.0148 C   0  0  0  0  0  0  0  0  0  0  0  0
  1  4  1  0
  1  5  2  0
  1  6  2  0
  1 17  1  0
  2 14  2  0
  3 15  2  0
  7  9  1  0
  8  9  2  0
  9 19  1  0
 10 11  2  0
 10 15  1  0
 10 16  1  0
 11 14  1  0
 11 18  1  0
 12 13  2  0
 12 14  1  0
 12 19  1  0
 13 15  1  0
 13 21  1  0
 16 17  2  0
 17 20  1  0
 18 20  2  0
 19 22  2  0
 21 23  2  0
 22 23  1  0
M  CHG  2   7  -1   9   1
M  END
>  <PUBCHEM_COMPOUND_CID>  (1) 
22984

>  <PUBCHEM_CONFORMER_RMSD>  (1) 
0.6

>  <PUBCHEM_CONFORMER_DIVERSEORDER>  (1) 
1

>  <PUBCHEM_MMFF94_PARTIAL_CHARGES>  (1) 
30
1 1.49
10 0.09
11 0.09
12 0.09
13 0.09
14 0.4
15 0.4
16 -0.15
17 -0.01
18 -0.15
19 0.13
2 -0.57
20 -0.15
21 -0.15
22 -0.15
23 -0.15
24 0.15
25 0.15
26 0.15
27 0.15
28 0.15
29 0.15
3 -0.57
30 0.5
4 -0.68
5 -0.65
6 -0.65
7 -0.52
8 -0.52
9 0.91

>  <PUBCHEM_EFFECTIVE_ROTOR_COUNT>  (1) 
2

>  <PUBCHEM_PHARMACOPHORE_FEATURES>  (1) 
12
1 2 acceptor
1 3 acceptor
1 4 acceptor
1 5 acceptor
1 6 acceptor
1 7 acceptor
1 7 anion
1 8 acceptor
4 1 4 5 6 anion
6 10 11 12 13 14 15 rings
6 10 11 16 17 18 20 rings
6 12 13 19 21 22 23 rings

>  <PUBCHEM_HEAVY_ATOM_COUNT>  (1) 
23

>  <PUBCHEM_ATOM_DEF_STEREO_COUNT>  (1) 
0

>  <PUBCHEM_ATOM_UDEF_STEREO_COUNT>  (1) 
0

>  <PUBCHEM_BOND_DEF_STEREO_COUNT>  (1) 
0

>  <PUBCHEM_BOND_UDEF_STEREO_COUNT>  (1) 
0

>  <PUBCHEM_ISOTOPIC_ATOM_COUNT>  (1) 
0

>  <PUBCHEM_COMPONENT_COUNT>  (1) 
1

>  <PUBCHEM_CACTVS_TAUTO_COUNT>  (1) 
1

>  <PUBCHEM_CONFORMER_ID>  (1) 
000059C800000001

>  <PUBCHEM_MMFF94_ENERGY>  (1) 
68.639

>  <PUBCHEM_FEATURE_SELFOVERLAP>  (1) 
61.083

>  <PUBCHEM_SHAPE_FINGERPRINT>  (1) 
10062212 137 18336259123812056827
10319926 262 18270095991211603090
10411042 1 17906454686103330855
10493431 412 18269565953360858033
10616163 171 18411139155840783095
10967382 1 18266741281918194703
11578080 2 13540811645524923233
12107183 9 18046337531647622042
12236239 1 17749104525901625298
12390115 104 18200330848183059161
12403259 226 18125156289130738089
12403259 415 18201154455111464352
12403260 363 18339075020530460823
12403814 3 17603300440905378077
13140716 1 18411422851436840425
13583140 156 15840973594517686206
13675066 3 18059854004234018546
13862211 1 18338510945290742354
14251751 93 18411133662614417795
14466204 15 18409440380474297504
14790565 3 18335990847808001476
15099037 51 18411136922346759660
15196674 1 18410857676769123518
1601671 61 18409166589315398284
16752209 62 18338228379328833738
16945 1 18266459815526247847
17804303 29 18340488958192659536
1813 80 17385444332459720294
19591789 44 18338799025805601119
200 152 17632295687457782551
20028762 73 17985828365829697095
20510252 161 18198908200532880017
20775438 99 16258936653528432215
21033648 29 17417798565755518202
21236236 1 18411983580659833471
21267235 1 18337680818417398139
21279426 13 18339646629401935710
21421861 104 17823690863977516938
221490 88 18192719070712008784
22182313 1 18129400261853330375
23175994 123 17131843104688690456
2334 1 18266459987266819965
23402539 116 18413101775574552492
23557571 272 18201451301797076878
23559900 14 18271531914568854742
2748010 2 18339643459705196567
3004659 81 18333171661872122862
335352 9 18338800017900517629
34934 24 18335697187908474867
350125 39 18338240470067629001
3680242 22 18262799558576599962
4214541 1 18410856581157044973
5104073 3 18410009974747576336
559249 180 18335133168556040026
9709674 26 18339647857477732398

>  <PUBCHEM_SHAPE_MULTIPOLES>  (1) 
431.11
10.57
2.69
0.78
8.9
0.4
-0.1
-0.97
-0.2
-2.39
0.07
0.23
-0.14
-0.04

>  <PUBCHEM_SHAPE_SELFOVERLAP>  (1) 
955.75

>  <PUBCHEM_SHAPE_VOLUME>  (1) 
231.9

>  <PUBCHEM_COORDINATE_TYPE>  (1) 
2
5
10

$$$$
