22992
     RDKit          3D

 24 25  0  0  1  0  0  0  0  0999 V2000
    0.2097    3.1751   -1.3278 O   0  0  0  0  0  0  0  0  0  0  0  0
   -1.8595    2.2858   -1.1752 O   0  0  0  0  0  0  0  0  0  0  0  0
   -3.0389   -1.2525    0.0874 N   0  0  0  0  0  0  0  0  0  0  0  0
   -0.0602    1.2619    0.1665 C   0  0  0  0  0  0  0  0  0  0  0  0
    0.5316    2.0684    1.3991 C   0  0  0  0  0  0  0  0  0  0  0  0
   -1.2715    0.3639    0.6300 C   0  0  0  0  0  0  0  0  0  0  0  0
    1.0548    0.4203   -0.5076 C   0  0  0  0  0  0  0  0  0  0  0  0
   -1.9449   -0.4647   -0.4757 C   0  0  0  0  0  0  0  0  0  0  0  0
   -0.6789    2.2638   -0.8465 C   0  0  0  0  0  0  0  0  0  0  0  0
   -0.5060    2.8960    2.1751 C   0  0  0  0  0  0  0  0  0  0  0  0
    1.7111    2.9960    1.0529 C   0  0  0  0  0  0  0  0  0  0  0  0
    1.7359   -0.5318    0.2173 C   0  0  0  0  0  0  0  0  0  0  0  0
    1.2847    0.7031   -1.8299 C   0  0  0  0  0  0  0  0  0  0  0  0
    2.7415   -1.2660   -0.4555 C   0  0  0  0  0  0  0  0  0  0  0  0
   -4.0122   -0.3809    0.7456 C   0  0  0  0  0  0  0  0  0  0  0  0
   -3.6886   -2.0463   -0.9556 C   0  0  0  0  0  0  0  0  0  0  0  0
    2.2734   -0.0192   -2.4915 C   0  0  0  0  0  0  0  0  0  0  0  0
    1.4794   -0.8005    1.5716 C   0  0  0  0  0  0  0  0  0  0  0  0
    2.9979   -0.9976   -1.8101 C   0  0  0  0  0  0  0  0  0  0  0  0
    3.4610   -2.2472    0.2458 C   0  0  0  0  0  0  0  0  0  0  0  0
   -5.1248   -1.1894    1.3911 C   0  0  0  0  0  0  0  0  0  0  0  0
   -2.6927   -2.9587   -1.6514 C   0  0  0  0  0  0  0  0  0  0  0  0
    2.2042   -1.7788    2.2530 C   0  0  0  0  0  0  0  0  0  0  0  0
    3.1931   -2.5007    1.5914 C   0  0  0  0  0  0  0  0  0  0  0  0
  1  9  1  0
  2  9  2  0
  3  8  1  0
  3 15  1  0
  3 16  1  0
  4  5  1  0
  4  6  1  0
  4  7  1  0
  4  9  1  0
  5 10  1  0
  5 11  1  0
  6  8  1  0
  7 12  2  0
  7 13  1  0
 12 14  1  0
 12 18  1  0
 13 17  2  0
 14 19  2  0
 14 20  1  0
 15 21  1  0
 16 22  1  0
 17 19  1  0
 18 23  2  0
 20 24  2  0
 23 24  1  0
M  END
>  <PUBCHEM_COMPOUND_CID>  (1) 
22992

>  <PUBCHEM_CONFORMER_RMSD>  (1) 
0.8

>  <PUBCHEM_CONFORMER_DIVERSEORDER>  (1) 
1
5
71
14
74
22
78
50
73
57
54
83
16
7
55
15
9
36
12
84
6
41
64
79
72
40
11
21
13
28
3
61
76
17
24
19
69
53
75
20
29
2
4
8
81
27
31
51
10
47
70
60
35
39
30
63
66
80
18
85
26
68
34
45
65
32
43
82
38
25
77
44
46
56
62
67
23
37
49
42
48
59
58
33
52

>  <PUBCHEM_MMFF94_PARTIAL_CHARGES>  (1) 
24
1 -0.65
13 -0.15
15 0.27
16 0.27
17 -0.15
18 -0.15
19 -0.15
2 -0.57
20 -0.15
23 -0.15
24 -0.15
3 -0.81
36 0.15
4 0.2
41 0.15
42 0.15
43 0.15
44 0.5
45 0.15
52 0.15
53 0.15
7 -0.14
8 0.27
9 0.66

>  <PUBCHEM_EFFECTIVE_ROTOR_COUNT>  (1) 
8

>  <PUBCHEM_PHARMACOPHORE_FEATURES>  (1) 
7
1 1 acceptor
1 2 acceptor
1 3 cation
3 1 2 9 anion
3 5 10 11 hydrophobe
6 12 14 18 20 23 24 rings
6 7 12 13 14 17 19 rings

>  <PUBCHEM_HEAVY_ATOM_COUNT>  (1) 
24

>  <PUBCHEM_ATOM_DEF_STEREO_COUNT>  (1) 
0

>  <PUBCHEM_ATOM_UDEF_STEREO_COUNT>  (1) 
1

>  <PUBCHEM_BOND_DEF_STEREO_COUNT>  (1) 
0

>  <PUBCHEM_BOND_UDEF_STEREO_COUNT>  (1) 
0

>  <PUBCHEM_ISOTOPIC_ATOM_COUNT>  (1) 
0

>  <PUBCHEM_COMPONENT_COUNT>  (1) 
1

>  <PUBCHEM_CACTVS_TAUTO_COUNT>  (1) 
1

>  <PUBCHEM_CONFORMER_ID>  (1) 
000059D000000001

>  <PUBCHEM_MMFF94_ENERGY>  (1) 
98.1066

>  <PUBCHEM_FEATURE_SELFOVERLAP>  (1) 
35.608

>  <PUBCHEM_SHAPE_FINGERPRINT>  (1) 
10382601 240 18196083576140230449
11578080 2 18115286922077945340
12553582 1 18410011035488836583
12633257 1 17059761239712256794
12714826 92 18337389319023474163
12788726 201 18197240094821271483
13009979 54 18045503006796922970
13083527 12 17908385329293456298
13583140 156 17268026240495798810
14251757 17 16370448851706356851
14787075 74 18338517564473220216
16752209 62 18265326206121577551
16945 1 17605585230568578844
18981168 100 9366506018424976751
19078846 21 18412834568727333323
20567600 347 17406830060762768623
20600515 1 18059566932661876561
20691752 17 18043805613987516495
21033648 29 16773242769453659275
21421861 104 18341900735449424953
21452121 199 18041826381230159852
21731516 1 18409443691746649167
22112679 90 18191886538483171856
2255824 54 18119534490288315927
23419403 2 16960068580961928530
23559900 14 17979620257460058154
23598288 3 18118400635901808175
238 59 17682402794863589867
25222932 49 16831765740273755207
35225 105 17618468040375352774
81228 2 17414149106021504336

>  <PUBCHEM_SHAPE_MULTIPOLES>  (1) 
477.19
6.59
3.8
2.37
7.14
1.92
0.09
-6.55
-1.14
-0.08
-0.46
-1.22
-0.1
-0.99

>  <PUBCHEM_SHAPE_SELFOVERLAP>  (1) 
1000.183

>  <PUBCHEM_SHAPE_VOLUME>  (1) 
270.7

>  <PUBCHEM_COORDINATE_TYPE>  (1) 
2
5
10

$$$$
