230
     RDKit          3D

 14 13  0  0  1  0  0  0  0  0999 V2000
   -3.2145    0.4340    0.2039 P   0  0  0  0  0  0  0  0  0  0  0  0
    0.2621   -2.0425    0.7940 O   0  0  0  0  0  0  0  0  0  0  0  0
    1.2202    0.9725   -1.0476 O   0  0  0  0  0  0  0  0  0  0  0  0
   -1.6980   -0.0938    0.3842 O   0  0  0  0  0  0  0  0  0  0  0  0
    3.2605   -0.9763   -0.6452 O   0  0  0  0  0  0  0  0  0  0  0  0
    4.4749    1.2861    0.1205 O   0  0  0  0  0  0  0  0  0  0  0  0
   -4.0161   -0.8685   -0.3217 O   0  0  0  0  0  0  0  0  0  0  0  0
   -3.1121    1.3647   -1.1146 O   0  0  0  0  0  0  0  0  0  0  0  0
   -3.8026    1.1059    1.4100 O   0  0  0  0  0  0  0  0  0  0  0  0
    1.2131    0.0619    0.0528 C   0  0  0  0  0  0  0  0  0  0  0  0
    0.3445   -1.1504   -0.3168 C   0  0  0  0  0  0  0  0  0  0  0  0
    2.6559   -0.2896    0.4413 C   0  0  0  0  0  0  0  0  0  0  0  0
   -1.0738   -0.7423   -0.7193 C   0  0  0  0  0  0  0  0  0  0  0  0
    3.4860    0.9383    0.7584 C   0  0  0  0  0  0  0  0  0  0  0  0
  1  4  1  0
  1  7  1  0
  1  8  1  0
  1  9  2  0
  2 11  1  0
  3 10  1  0
  4 13  1  0
  5 12  1  0
  6 14  2  0
 10 11  1  0
 10 12  1  0
 11 13  1  0
 12 14  1  0
M  END
>  <PUBCHEM_COMPOUND_CID>  (1) 
230

>  <PUBCHEM_CONFORMER_RMSD>  (1) 
0.6

>  <PUBCHEM_CONFORMER_DIVERSEORDER>  (1) 
9
373
322
333
199
329
45
286
89
257
406
26
294
224
213
236
387
95
248
323
12
434
138
47
194
167
312
114
211
137
428
208
283
125
393
139
96
225
87
260
3
353
197
239
306
136
335
320
70
60
61
259
142
19
416
252
185
351
82
246
4
389
375
424
365
53
164
187
218
381
251
256
410
420
148
279
160
427
38
319
377
195
430
54
50
179
102
391
155
77
74
266
401
118
72
411
153
413
184
99
190
284
84
408
400
332
113
21
265
108
2
298
35
405
318
311
80
161
79
46
65
170
135
404
198
345
421
250
419
240
145
107
106
103
370
146
5
205
330
337
57
423
379
36
277
158
75
403
163
382
169
247
368
23
231
366
147
7
426
43
162
171
134
214
369
183
13
115
76
97
156
303
78
352
223
206
316
69
334
157
143
328
310
100
25
173
302
202
238
92
290
168
397
101
378
104
275
399
216
255
220
141
356
29
217
336
37
390
360
200
1
359
22
119
346
93
300
30
253
341
354
6
262
331
385
243
383
344
422
144
249
380
58
68
48
398
230
215
177
229
241
258
270
364
384
15
151
117
392
52
64
263
221
363
274
308
196
281
191
395
273
120
203
28
234
59
127
193
91
407
133
357
314
374
417
44
304
175
409
71
31
8
209
396
88
176
18
98
189
292
361
295
112
111
412
282
159
394
313
347
358
271
90
431
11
269
343
280
267
376
432
435
355
81
122
245
33
116
40
42
324
41
235
66
165
289
418
278
367
56
24
222
297
326
226
210
174
291
34
287
228
429
166
130
67
254
219
362
17
305
129
20
388
178
264
32
338
188
315
149
433
212
261
154
105
296
62
227
276
268
110
207
372
49
350
233
85
63
339
204
86
414
182
51
121
83
321
402
27
325
186
415
123
242
232
16
285
348
436
128
152
10
131
39
288
126
140
201
94
132
309
172
14
272
293
371
386
192
181
349
73
425
109
150
342
301
237
340
55
244
317
327
180
299
307
124

>  <PUBCHEM_MMFF94_PARTIAL_CHARGES>  (1) 
20
1 1.51
10 0.28
11 0.28
12 0.34
13 0.28
14 0.45
2 -0.68
20 0.4
21 0.4
22 0.06
23 0.4
24 0.5
25 0.5
3 -0.68
4 -0.55
5 -0.68
6 -0.57
7 -0.77
8 -0.77
9 -0.7

>  <PUBCHEM_EFFECTIVE_ROTOR_COUNT>  (1) 
6

>  <PUBCHEM_PHARMACOPHORE_FEATURES>  (1) 
11
1 2 acceptor
1 2 donor
1 3 acceptor
1 3 donor
1 5 acceptor
1 5 donor
1 6 acceptor
1 7 acceptor
1 8 acceptor
1 9 acceptor
4 1 7 8 9 anion

>  <PUBCHEM_HEAVY_ATOM_COUNT>  (1) 
14

>  <PUBCHEM_ATOM_DEF_STEREO_COUNT>  (1) 
0

>  <PUBCHEM_ATOM_UDEF_STEREO_COUNT>  (1) 
3

>  <PUBCHEM_BOND_DEF_STEREO_COUNT>  (1) 
0

>  <PUBCHEM_BOND_UDEF_STEREO_COUNT>  (1) 
0

>  <PUBCHEM_ISOTOPIC_ATOM_COUNT>  (1) 
0

>  <PUBCHEM_COMPONENT_COUNT>  (1) 
1

>  <PUBCHEM_CACTVS_TAUTO_COUNT>  (1) 
8

>  <PUBCHEM_CONFORMER_ID>  (1) 
000000E600000009

>  <PUBCHEM_MMFF94_ENERGY>  (1) 
-12.4166

>  <PUBCHEM_FEATURE_SELFOVERLAP>  (1) 
55.875

>  <PUBCHEM_SHAPE_FINGERPRINT>  (1) 
10219947 1 18113335297464636758
10980938 120 18261390022944701082
11132069 177 18040434399620171799
11543360 7 15841259445728480852
12251169 10 17313106379693440443
12346645 44 18413670197279606355
124424 183 15719384040961723119
12932764 1 18189622644474234079
14123260 362 17846510265201262936
14325111 11 18343582940726145411
15775835 57 18272934920732118121
170605 34 18343018874097239782
18186145 218 18342460309468639750
20112054 13 18259700103516033860
20281407 28 12973600023641440648
20645477 70 17775011163473609166
20711983 171 16988562377050190192
20871999 31 14979947069915086221
21119208 17 13973968709405347793
21524375 3 18339359772372091422
22485316 2 11818992993463166640
22854114 59 18260829302100119593
23402539 116 16774075150720200216
23402655 69 16773801372314464608
23500284 214 18412549833406098042
23557571 272 17274546549967817959
449060 50 18341611564075870492
633830 44 18130793312914884438

>  <PUBCHEM_SHAPE_MULTIPOLES>  (1) 
245.01
7.96
1.52
1.02
0.47
0.23
0.01
-3.21
0.8
-0.12
0.11
0.43
-0.18
-0.04

>  <PUBCHEM_SHAPE_SELFOVERLAP>  (1) 
456.729

>  <PUBCHEM_SHAPE_VOLUME>  (1) 
153.1

>  <PUBCHEM_COORDINATE_TYPE>  (1) 
2
5
10

$$$$
