2300
     RDKit          3D

 16 18  0  0  0  0  0  0  0  0999 V2000
   -2.1399    2.9427    0.0392 Cl  0  0  0  0  0  0  0  0  0  0  0  0
   -2.1665   -2.1857   -0.0787 O   0  0  0  0  0  0  0  0  0  0  0  0
   -3.3806    0.2153    0.0445 O   0  0  0  0  0  0  0  0  0  0  0  0
    0.8914   -2.1051    0.0006 N   0  0  0  0  0  0  0  0  0  0  0  0
    0.9457    2.4082    0.0002 N   0  0  0  0  0  0  0  0  0  0  0  0
    0.6422    0.0680    0.0220 C   0  0  0  0  0  0  0  0  0  0  0  0
    2.0211   -0.1760    0.0910 C   0  0  0  0  0  0  0  0  0  0  0  0
    2.9869    0.9501    0.2056 C   0  0  0  0  0  0  0  0  0  0  0  0
   -0.0517   -1.1068   -0.0082 C   0  0  0  0  0  0  0  0  0  0  0  0
    0.0407    1.3539    0.0181 C   0  0  0  0  0  0  0  0  0  0  0  0
    2.3671    2.2606   -0.3428 C   0  0  0  0  0  0  0  0  0  0  0  0
    2.1582   -1.5479    0.0693 C   0  0  0  0  0  0  0  0  0  0  0  0
   -1.4797   -1.1776   -0.0312 C   0  0  0  0  0  0  0  0  0  0  0  0
   -1.3060    1.4346    0.0318 C   0  0  0  0  0  0  0  0  0  0  0  0
   -2.1578    0.1906    0.0195 C   0  0  0  0  0  0  0  0  0  0  0  0
    0.6291   -3.5248   -0.0810 C   0  0  0  0  0  0  0  0  0  0  0  0
  1 14  1  0
  2 13  2  0
  3 15  2  0
  4  9  1  0
  4 12  1  0
  4 16  1  0
  5 10  1  0
  5 11  1  0
  6  7  1  0
  6  9  2  0
  6 10  1  0
  7  8  1  0
  7 12  2  0
  8 11  1  0
  9 13  1  0
 10 14  2  0
 13 15  1  0
 14 15  1  0
M  END
>  <PUBCHEM_COMPOUND_CID>  (1) 
2300

>  <PUBCHEM_CONFORMER_RMSD>  (1) 
0.4

>  <PUBCHEM_CONFORMER_DIVERSEORDER>  (1) 
1

>  <PUBCHEM_MMFF94_PARTIAL_CHARGES>  (1) 
18
1 -0.14
10 0.15
11 0.37
12 -0.3
13 0.65
14 0.15
15 0.56
16 0.26
2 -0.57
21 0.15
22 0.4
3 -0.57
4 0.05
5 -0.87
6 -0.05
7 -0.18
8 0.18
9 -0.24

>  <PUBCHEM_EFFECTIVE_ROTOR_COUNT>  (1) 
0.6

>  <PUBCHEM_PHARMACOPHORE_FEATURES>  (1) 
8
1 2 acceptor
1 3 acceptor
1 4 cation
1 5 cation
1 5 donor
5 4 6 7 9 12 rings
6 5 6 7 8 10 11 rings
6 6 9 10 13 14 15 rings

>  <PUBCHEM_HEAVY_ATOM_COUNT>  (1) 
16

>  <PUBCHEM_ATOM_DEF_STEREO_COUNT>  (1) 
0

>  <PUBCHEM_ATOM_UDEF_STEREO_COUNT>  (1) 
0

>  <PUBCHEM_BOND_DEF_STEREO_COUNT>  (1) 
0

>  <PUBCHEM_BOND_UDEF_STEREO_COUNT>  (1) 
0

>  <PUBCHEM_ISOTOPIC_ATOM_COUNT>  (1) 
0

>  <PUBCHEM_COMPONENT_COUNT>  (1) 
1

>  <PUBCHEM_CACTVS_TAUTO_COUNT>  (1) 
3

>  <PUBCHEM_CONFORMER_ID>  (1) 
000008FC00000001

>  <PUBCHEM_MMFF94_ENERGY>  (1) 
32.4861

>  <PUBCHEM_FEATURE_SELFOVERLAP>  (1) 
40.825

>  <PUBCHEM_SHAPE_FINGERPRINT>  (1) 
10411042 1 17762056537092176747
10967382 1 18410855455854313001
11680986 33 17979070483664259378
12423570 1 9400690620938174866
13140716 1 18338516464375907027
14790565 3 16972248665980082664
15042514 8 18048877687176053274
16945 1 18410573955202731117
17990270 104 18121499059552544211
193761 8 18338517421932086977
20510252 161 18127134305885368664
20511035 2 17984968311280231542
21501502 16 18266177236300116297
2334 1 18122343755239617555
23402539 116 17839735203473551726
23419403 2 16392876616679764153
23463225 33 18335132129126215272
238 59 16743639363473476125
2748010 2 18194122043217127863
2897 32 18337391646658625212
528886 8 18339355387210332936
54173680 148 17689153835165541050
589210 1 18337953389720890093
7364860 26 18269273465491654230

>  <PUBCHEM_SHAPE_MULTIPOLES>  (1) 
309.44
4.01
3.72
0.61
1.81
0.06
0
-0.09
-0.12
-1.08
0.22
-0.02
0.05
0.02

>  <PUBCHEM_SHAPE_SELFOVERLAP>  (1) 
682.185

>  <PUBCHEM_SHAPE_VOLUME>  (1) 
169.5

>  <PUBCHEM_COORDINATE_TYPE>  (1) 
2
5
10

$$$$
