23002
     RDKit          3D

 19 20  0  0  0  0  0  0  0  0999 V2000
    0.4906    2.0538   -1.0550 S   0  0  0  0  0  0  0  0  0  0  0  0
   -3.9477    0.1446    0.2790 N   0  0  0  0  0  0  0  0  0  0  0  0
   -0.2655   -2.7571    0.1318 N   0  0  0  0  0  0  0  0  0  0  0  0
   -2.1256   -1.3306    0.2138 N   0  0  0  0  0  0  0  0  0  0  0  0
    0.0346   -0.4968   -0.4151 N   0  0  0  0  0  0  0  0  0  0  0  0
   -1.8490    0.9877   -0.3397 N   0  0  0  0  0  0  0  0  0  0  0  0
   -4.5632    1.4264    0.1335 C   0  0  0  0  0  0  0  0  0  0  0  0
    1.1156   -3.0482   -0.0938 C   0  0  0  0  0  0  0  0  0  0  0  0
   -2.5742   -0.0770    0.0392 C   0  0  0  0  0  0  0  0  0  0  0  0
   -0.8123   -1.4654   -0.0311 C   0  0  0  0  0  0  0  0  0  0  0  0
   -0.5570    0.6984   -0.5471 C   0  0  0  0  0  0  0  0  0  0  0  0
   -6.0454    1.3320    0.4402 C   0  0  0  0  0  0  0  0  0  0  0  0
    1.3929   -4.5128    0.1858 C   0  0  0  0  0  0  0  0  0  0  0  0
    2.0578    1.5603   -0.3641 C   0  0  0  0  0  0  0  0  0  0  0  0
    2.9363    0.7794   -1.1153 C   0  0  0  0  0  0  0  0  0  0  0  0
    2.4060    1.9552    0.9276 C   0  0  0  0  0  0  0  0  0  0  0  0
    4.1627    0.3931   -0.5747 C   0  0  0  0  0  0  0  0  0  0  0  0
    3.6326    1.5691    1.4681 C   0  0  0  0  0  0  0  0  0  0  0  0
    4.5109    0.7880    0.7169 C   0  0  0  0  0  0  0  0  0  0  0  0
  1 11  1  0
  1 14  1  0
  2  7  1  0
  2  9  1  0
  3  8  1  0
  3 10  1  0
  4  9  2  0
  4 10  1  0
  5 10  2  0
  5 11  1  0
  6  9  1  0
  6 11  2  0
  7 12  1  0
  8 13  1  0
 14 15  2  0
 14 16  1  0
 15 17  1  0
 16 18  2  0
 17 19  2  0
 18 19  1  0
M  END
>  <PUBCHEM_COMPOUND_CID>  (1) 
23002

>  <PUBCHEM_CONFORMER_RMSD>  (1) 
0.8

>  <PUBCHEM_CONFORMER_DIVERSEORDER>  (1) 
1
22
10
16
20
35
18
9
30
12
25
28
38
31
21
8
17
11
24
36
13
26
29
23
7
14
2
37
32
6
3
15
34
4
5
27
33
19

>  <PUBCHEM_MMFF94_PARTIAL_CHARGES>  (1) 
24
1 -0.2
10 0.72
11 0.72
14 0.1
15 -0.15
16 -0.15
17 -0.15
18 -0.15
19 -0.15
2 -0.87
24 0.4
25 0.4
3 -0.87
32 0.15
33 0.15
34 0.15
35 0.15
36 0.15
4 -0.62
5 -0.62
6 -0.62
7 0.37
8 0.37
9 0.72

>  <PUBCHEM_EFFECTIVE_ROTOR_COUNT>  (1) 
6

>  <PUBCHEM_PHARMACOPHORE_FEATURES>  (1) 
6
1 2 donor
1 3 donor
4 2 4 6 9 cation
4 3 4 5 10 cation
6 14 15 16 17 18 19 rings
6 4 5 6 9 10 11 rings

>  <PUBCHEM_HEAVY_ATOM_COUNT>  (1) 
19

>  <PUBCHEM_ATOM_DEF_STEREO_COUNT>  (1) 
0

>  <PUBCHEM_ATOM_UDEF_STEREO_COUNT>  (1) 
0

>  <PUBCHEM_BOND_DEF_STEREO_COUNT>  (1) 
0

>  <PUBCHEM_BOND_UDEF_STEREO_COUNT>  (1) 
0

>  <PUBCHEM_ISOTOPIC_ATOM_COUNT>  (1) 
0

>  <PUBCHEM_COMPONENT_COUNT>  (1) 
1

>  <PUBCHEM_CACTVS_TAUTO_COUNT>  (1) 
5

>  <PUBCHEM_CONFORMER_ID>  (1) 
000059DA00000001

>  <PUBCHEM_MMFF94_ENERGY>  (1) 
46.6718

>  <PUBCHEM_FEATURE_SELFOVERLAP>  (1) 
30.489

>  <PUBCHEM_SHAPE_FINGERPRINT>  (1) 
12500047 106 18197498635179264000
12507560 18 17917994983996065776
12592029 89 18408328769849672177
12788726 201 17469607768151739714
12839892 36 18263363745522975707
13464513 79 7997966860585955740
13544592 145 18272099305244108068
14022349 108 18335980848649285443
14178000 29 7781515923557837873
14466204 15 18411416176873643809
14739800 52 17702937029479617009
17913733 40 18270419243177329459
20028762 73 18054513775248848551
20681677 155 18189622807904673940
20832881 197 18059304158373549436
212916 134 18342446084336736072
21452121 103 18263924341823496217
22182313 1 17823691954936003445
23184049 29 17543908366321553390
23352939 185 17910963443775102714
23419403 2 17753599144842213951
23559900 14 18261967249147920534
351380 180 17632858637675682209
42630746 31 18340208492749424583
465052 167 17240772799916466825
495365 180 17489584580453065676
532947 4 18339646633391161975
5385378 56 18339368453107567505
58807428 26 18409444803932000523
59755656 215 18337112255089310477
633830 44 18202559613850097037
7364860 26 18267586805943697399
79837 15 18263930006790940747
81228 2 17689425409752270846

>  <PUBCHEM_SHAPE_MULTIPOLES>  (1) 
369.96
9.25
3.89
1.01
10.05
6.61
0.07
-6.79
2.35
-2.03
0.27
-0.9
-0.54
0.29

>  <PUBCHEM_SHAPE_SELFOVERLAP>  (1) 
751.315

>  <PUBCHEM_SHAPE_VOLUME>  (1) 
214.3

>  <PUBCHEM_COORDINATE_TYPE>  (1) 
2
5
10

$$$$
