23005
     RDKit          3D

 23 24  0  0  1  0  0  0  0  0999 V2000
   -6.0793   -0.3253   -1.1444 Cl  0  0  0  0  0  0  0  0  0  0  0  0
   -0.4140    0.4814    2.2122 O   0  0  0  0  0  0  0  0  0  0  0  0
    5.0544    1.7781   -0.8072 O   0  0  0  0  0  0  0  0  0  0  0  0
    0.1414    4.1761   -0.6908 O   0  0  0  0  0  0  0  0  0  0  0  0
    1.6846    1.0455    0.4940 N   0  0  0  0  0  0  0  0  0  0  0  0
    0.6449    0.1121    0.0617 C   0  0  0  0  0  0  0  0  0  0  0  0
    2.8317    0.9879   -0.4113 C   0  0  0  0  0  0  0  0  0  0  0  0
    1.1537    2.4066    0.5604 C   0  0  0  0  0  0  0  0  0  0  0  0
    1.1879   -1.3006   -0.0094 C   0  0  0  0  0  0  0  0  0  0  0  0
   -0.5476    0.2497    1.0114 C   0  0  0  0  0  0  0  0  0  0  0  0
    3.9572    1.8781    0.0911 C   0  0  0  0  0  0  0  0  0  0  0  0
    0.6629    2.8586   -0.8057 C   0  0  0  0  0  0  0  0  0  0  0  0
   -1.9308    0.1060    0.4720 C   0  0  0  0  0  0  0  0  0  0  0  0
    1.7784   -1.7374   -1.1816 C   0  0  0  0  0  0  0  0  0  0  0  0
    1.0803   -2.1207    1.0994 C   0  0  0  0  0  0  0  0  0  0  0  0
    2.2780   -3.0382   -1.2471 C   0  0  0  0  0  0  0  0  0  0  0  0
    1.5801   -3.4212    1.0339 C   0  0  0  0  0  0  0  0  0  0  0  0
   -2.1343   -0.7157   -0.6137 C   0  0  0  0  0  0  0  0  0  0  0  0
   -2.9519    0.8006    1.0802 C   0  0  0  0  0  0  0  0  0  0  0  0
    2.1791   -3.8800   -0.1393 C   0  0  0  0  0  0  0  0  0  0  0  0
   -3.4278   -0.8497   -1.1183 C   0  0  0  0  0  0  0  0  0  0  0  0
   -4.2455    0.6664    0.5759 C   0  0  0  0  0  0  0  0  0  0  0  0
   -4.4834   -0.1586   -0.5235 C   0  0  0  0  0  0  0  0  0  0  0  0
  1 23  1  0
  2 10  2  0
  3 11  1  0
  4 12  1  0
  5  6  1  0
  5  7  1  0
  5  8  1  0
  6  9  1  0
  6 10  1  0
  7 11  1  0
  8 12  1  0
  9 14  2  0
  9 15  1  0
 10 13  1  0
 13 18  2  0
 13 19  1  0
 14 16  1  0
 15 17  2  0
 16 20  2  0
 17 20  1  0
 18 21  1  0
 19 22  2  0
 21 23  2  0
 22 23  1  0
M  END
>  <PUBCHEM_COMPOUND_CID>  (1) 
23005

>  <PUBCHEM_CONFORMER_RMSD>  (1) 
0.8

>  <PUBCHEM_CONFORMER_DIVERSEORDER>  (1) 
4
17
10
13
15
28
27
12
23
18
29
9
26
21
1
7
32
5
22
20
3
14
33
30
36
19
2
34
25
16
11
31
6
8
35
24

>  <PUBCHEM_MMFF94_PARTIAL_CHARGES>  (1) 
34
1 -0.18
10 0.42
11 0.28
12 0.28
13 0.09
14 -0.15
15 -0.15
16 -0.15
17 -0.15
18 -0.15
19 -0.15
2 -0.57
20 -0.15
21 -0.15
22 -0.15
23 0.18
3 -0.68
33 0.15
34 0.15
35 0.15
36 0.15
37 0.15
38 0.15
39 0.15
4 -0.68
40 0.4
41 0.4
42 0.15
43 0.15
5 -0.81
6 0.47
7 0.27
8 0.27
9 -0.14

>  <PUBCHEM_EFFECTIVE_ROTOR_COUNT>  (1) 
8

>  <PUBCHEM_PHARMACOPHORE_FEATURES>  (1) 
8
1 2 acceptor
1 3 acceptor
1 3 donor
1 4 acceptor
1 4 donor
1 5 cation
6 13 18 19 21 22 23 rings
6 9 14 15 16 17 20 rings

>  <PUBCHEM_HEAVY_ATOM_COUNT>  (1) 
23

>  <PUBCHEM_ATOM_DEF_STEREO_COUNT>  (1) 
0

>  <PUBCHEM_ATOM_UDEF_STEREO_COUNT>  (1) 
1

>  <PUBCHEM_BOND_DEF_STEREO_COUNT>  (1) 
0

>  <PUBCHEM_BOND_UDEF_STEREO_COUNT>  (1) 
0

>  <PUBCHEM_ISOTOPIC_ATOM_COUNT>  (1) 
0

>  <PUBCHEM_COMPONENT_COUNT>  (1) 
1

>  <PUBCHEM_CACTVS_TAUTO_COUNT>  (1) 
2

>  <PUBCHEM_CONFORMER_ID>  (1) 
000059DD00000004

>  <PUBCHEM_MMFF94_ENERGY>  (1) 
74.8236

>  <PUBCHEM_FEATURE_SELFOVERLAP>  (1) 
40.596

>  <PUBCHEM_SHAPE_FINGERPRINT>  (1) 
10693767 8 18131354085847953798
10764073 3 14855773638026668986
11578080 2 17751921320168267204
12553582 1 18050292466356891147
12730499 353 18335422413318395803
12788726 201 17469893181729343131
13009979 54 17487626225537282891
13083527 12 18264756667746482962
13257819 101 17386272294426713934
13911987 19 18189634893599929404
17818456 19 17486217712919815841
1813 80 18126563410337570287
20197701 30 18198616834125037168
20567600 347 18338233872739873682
20600515 1 16978710521628082530
20626108 58 18127679449331667899
20645477 70 18412257308075042807
21033648 29 13191435353599706901
21054139 6 18128243691932913775
21421861 104 18191591843797500128
21521239 73 17989495138623729766
2255824 54 18411417349477901111
22907989 373 17255143644413528852
23419403 2 16952503838042448114
23559900 14 18411689986055832603
23598288 3 17109898746631899106
23598291 2 18200882751612275523
238 59 18337678645216499235
25147074 1 17917437476056001569
266924 1 17916880022953986881
266924 87 18263930951736460716
3060560 45 18338791337914309724
3084891 8 18335700520819512132
312423 11 18201442429096289235
4409770 3 17259054624337579410
474 4 18336827610263113709
6138700 20 18413114948962091686
70251023 43 18122916330051887983
7364860 26 18343300349068610803
7471813 234 17974856068886740278
81228 2 17403733350740485762

>  <PUBCHEM_SHAPE_MULTIPOLES>  (1) 
452.61
8.42
4.31
1.37
10.46
0.34
0.27
-0.51
-2.99
-5.83
-0.65
0.27
0.25
-0.7

>  <PUBCHEM_SHAPE_SELFOVERLAP>  (1) 
946.813

>  <PUBCHEM_SHAPE_VOLUME>  (1) 
256.4

>  <PUBCHEM_COORDINATE_TYPE>  (1) 
2
5
10

$$$$
