23019
     RDKit          3D

 15 15  0  0  0  0  0  0  0  0999 V2000
   -0.7270   -0.2125   -0.0143 O   0  0  0  0  0  0  0  0  0  0  0  0
    0.1387   -2.3170   -0.3619 O   0  0  0  0  0  0  0  0  0  0  0  0
    5.2825    1.3808    0.1727 O   0  0  0  0  0  0  0  0  0  0  0  0
   -4.4809   -0.0655    0.0403 C   0  0  0  0  0  0  0  0  0  0  0  0
   -3.0338    0.4164    0.1153 C   0  0  0  0  0  0  0  0  0  0  0  0
   -5.4625    1.0957    0.1953 C   0  0  0  0  0  0  0  0  0  0  0  0
   -2.0493   -0.7279   -0.0802 C   0  0  0  0  0  0  0  0  0  0  0  0
   -6.9041    0.6247    0.0874 C   0  0  0  0  0  0  0  0  0  0  0  0
    1.6035   -0.4568   -0.0810 C   0  0  0  0  0  0  0  0  0  0  0  0
    0.2776   -1.1187   -0.1718 C   0  0  0  0  0  0  0  0  0  0  0  0
    2.6766   -1.1764    0.4033 C   0  0  0  0  0  0  0  0  0  0  0  0
    1.7216    0.8578   -0.4837 C   0  0  0  0  0  0  0  0  0  0  0  0
    3.9221   -0.5544    0.4889 C   0  0  0  0  0  0  0  0  0  0  0  0
    2.9672    1.4799   -0.3982 C   0  0  0  0  0  0  0  0  0  0  0  0
    4.0676    0.7737    0.0880 C   0  0  0  0  0  0  0  0  0  0  0  0
  1  7  1  0
  1 10  1  0
  2 10  2  0
  3 15  1  0
  4  5  1  0
  4  6  1  0
  5  7  1  0
  6  8  1  0
  9 10  1  0
  9 11  2  0
  9 12  1  0
 11 13  1  0
 12 14  2  0
 13 15  2  0
 14 15  1  0
M  END
>  <PUBCHEM_COMPOUND_CID>  (1) 
23019

>  <PUBCHEM_CONFORMER_RMSD>  (1) 
0.8

>  <PUBCHEM_CONFORMER_DIVERSEORDER>  (1) 
1
11
5
28
7
23
22
2
37
38
15
16
6
20
31
29
10
19
8
36
18
14
4
3
34
12
30
26
24
21
32
33
35
13
17
39
9
27
25

>  <PUBCHEM_MMFF94_PARTIAL_CHARGES>  (1) 
16
1 -0.43
10 0.63
11 -0.15
12 -0.15
13 -0.15
14 -0.15
15 0.08
2 -0.57
27 0.15
28 0.15
29 0.15
3 -0.53
30 0.15
31 0.45
7 0.28
9 0.09

>  <PUBCHEM_EFFECTIVE_ROTOR_COUNT>  (1) 
6

>  <PUBCHEM_PHARMACOPHORE_FEATURES>  (1) 
4
1 2 acceptor
1 3 donor
1 8 hydrophobe
6 9 11 12 13 14 15 rings

>  <PUBCHEM_HEAVY_ATOM_COUNT>  (1) 
15

>  <PUBCHEM_ATOM_DEF_STEREO_COUNT>  (1) 
0

>  <PUBCHEM_ATOM_UDEF_STEREO_COUNT>  (1) 
0

>  <PUBCHEM_BOND_DEF_STEREO_COUNT>  (1) 
0

>  <PUBCHEM_BOND_UDEF_STEREO_COUNT>  (1) 
0

>  <PUBCHEM_ISOTOPIC_ATOM_COUNT>  (1) 
0

>  <PUBCHEM_COMPONENT_COUNT>  (1) 
1

>  <PUBCHEM_CACTVS_TAUTO_COUNT>  (1) 
3

>  <PUBCHEM_CONFORMER_ID>  (1) 
000059EB00000001

>  <PUBCHEM_MMFF94_ENERGY>  (1) 
26.629

>  <PUBCHEM_FEATURE_SELFOVERLAP>  (1) 
20.297

>  <PUBCHEM_SHAPE_FINGERPRINT>  (1) 
100836 57 18410578400515189461
10354089 29 18186803582032337656
10688039 33 17385722461494098309
11724838 91 18335139838887878175
12236239 1 18131348605500740671
12596602 18 13840271394461839701
12714333 28 16845570924402185225
13167372 99 18268431244376020361
14251732 16 18335423504561738507
14252887 29 12396294833660204992
15188451 53 15430610571033836081
15475509 35 16009296605801157648
17834072 33 18272928337306720151
20645477 70 18339924801185012911
212847 35 18272367568479416568
23402539 116 18059569226000241652
23402655 69 18272929448785547038
351380 180 18114181934693394297
351380 3 10737287961363990425
3545911 37 18408888434068709157
4047638 21 18408044000369482922
42630746 31 18343021051677424583
42788 4 18410011018709192201
4325135 7 18341610452307049711
5104073 3 18188481501659737570
8272917 22 18411139091274011334

>  <PUBCHEM_SHAPE_MULTIPOLES>  (1) 
291.09
13.66
1.6
0.67
20.05
0.34
0
-6.42
1.61
-1.14
-0.13
-0.11
0
-0.32

>  <PUBCHEM_SHAPE_SELFOVERLAP>  (1) 
587.894

>  <PUBCHEM_SHAPE_VOLUME>  (1) 
171.1

>  <PUBCHEM_COORDINATE_TYPE>  (1) 
2
5
10

$$$$
