23018
     RDKit          3D

 24 26  0  0  0  0  0  0  0  0999 V2000
   -1.1356   -4.5536   -1.3837 Cl  0  0  0  0  0  0  0  0  0  0  0  0
    2.2166    1.9573   -1.2612 O   0  0  0  0  0  0  0  0  0  0  0  0
    2.5218    1.6011    2.3984 O   0  0  0  0  0  0  0  0  0  0  0  0
    2.1374   -0.0315    0.7806 N   0  0  0  0  0  0  0  0  0  0  0  0
   -0.4841    0.5307    2.2069 N   0  0  0  0  0  0  0  0  0  0  0  0
    1.3113   -1.0805    0.2476 C   0  0  0  0  0  0  0  0  0  0  0  0
    3.3623    0.3132    0.0589 C   0  0  0  0  0  0  0  0  0  0  0  0
   -0.0843   -1.1374    0.4437 C   0  0  0  0  0  0  0  0  0  0  0  0
   -0.8479   -0.0394    1.1081 C   0  0  0  0  0  0  0  0  0  0  0  0
    1.8727    0.6384    1.9809 C   0  0  0  0  0  0  0  0  0  0  0  0
    0.7490    0.0847    2.8203 C   0  0  0  0  0  0  0  0  0  0  0  0
    3.0618    0.8169   -1.3409 C   0  0  0  0  0  0  0  0  0  0  0  0
    1.9030   -2.1022   -0.5216 C   0  0  0  0  0  0  0  0  0  0  0  0
   -0.8303   -2.2237   -0.0489 C   0  0  0  0  0  0  0  0  0  0  0  0
   -2.1022    0.4552    0.4702 C   0  0  0  0  0  0  0  0  0  0  0  0
    1.1519   -3.1673   -1.0251 C   0  0  0  0  0  0  0  0  0  0  0  0
   -0.2121   -3.2346   -0.7782 C   0  0  0  0  0  0  0  0  0  0  0  0
   -2.2356    0.4047   -0.9120 C   0  0  0  0  0  0  0  0  0  0  0  0
   -3.1239    0.9604    1.2651 C   0  0  0  0  0  0  0  0  0  0  0  0
    1.9060    2.4671   -2.5506 C   0  0  0  0  0  0  0  0  0  0  0  0
   -3.4086    0.8668   -1.5086 C   0  0  0  0  0  0  0  0  0  0  0  0
   -4.2969    1.4225    0.6683 C   0  0  0  0  0  0  0  0  0  0  0  0
   -4.4392    1.3756   -0.7186 C   0  0  0  0  0  0  0  0  0  0  0  0
    1.0069    3.6757   -2.3997 C   0  0  0  0  0  0  0  0  0  0  0  0
  1 17  1  0
  2 12  1  0
  2 20  1  0
  3 10  2  0
  4  6  1  0
  4  7  1  0
  4 10  1  0
  5  9  2  0
  5 11  1  0
  6  8  2  0
  6 13  1  0
  7 12  1  0
  8  9  1  0
  8 14  1  0
  9 15  1  0
 10 11  1  0
 13 16  2  0
 14 17  2  0
 15 18  2  0
 15 19  1  0
 16 17  1  0
 18 21  1  0
 19 22  2  0
 20 24  1  0
 21 23  2  0
 22 23  1  0
M  END
>  <PUBCHEM_COMPOUND_CID>  (1) 
23018

>  <PUBCHEM_CONFORMER_RMSD>  (1) 
0.8

>  <PUBCHEM_CONFORMER_DIVERSEORDER>  (1) 
1
8
17
9
18
15
13
12
7
11
4
10
16
6
14
5
2
3

>  <PUBCHEM_MMFF94_PARTIAL_CHARGES>  (1) 
31
1 -0.18
10 0.57
11 0.31
12 0.28
13 -0.15
14 -0.15
15 0.09
16 -0.15
17 0.18
18 -0.15
19 -0.15
2 -0.56
20 0.28
21 -0.15
22 -0.15
23 -0.15
3 -0.57
31 0.15
32 0.15
33 0.15
34 0.15
35 0.15
38 0.15
39 0.15
4 -0.48
40 0.15
5 -0.7
6 0.12
7 0.3
8 0.09
9 0.28

>  <PUBCHEM_EFFECTIVE_ROTOR_COUNT>  (1) 
5.4

>  <PUBCHEM_PHARMACOPHORE_FEATURES>  (1) 
6
1 2 acceptor
1 3 acceptor
1 5 acceptor
6 15 18 19 21 22 23 rings
6 6 8 13 14 16 17 rings
7 4 5 6 8 9 10 11 rings

>  <PUBCHEM_HEAVY_ATOM_COUNT>  (1) 
24

>  <PUBCHEM_ATOM_DEF_STEREO_COUNT>  (1) 
0

>  <PUBCHEM_ATOM_UDEF_STEREO_COUNT>  (1) 
0

>  <PUBCHEM_BOND_DEF_STEREO_COUNT>  (1) 
0

>  <PUBCHEM_BOND_UDEF_STEREO_COUNT>  (1) 
0

>  <PUBCHEM_ISOTOPIC_ATOM_COUNT>  (1) 
0

>  <PUBCHEM_COMPONENT_COUNT>  (1) 
1

>  <PUBCHEM_CACTVS_TAUTO_COUNT>  (1) 
1

>  <PUBCHEM_CONFORMER_ID>  (1) 
000059EA00000001

>  <PUBCHEM_MMFF94_ENERGY>  (1) 
87.6513

>  <PUBCHEM_FEATURE_SELFOVERLAP>  (1) 
30.458

>  <PUBCHEM_SHAPE_FINGERPRINT>  (1) 
10165383 225 18055383406966701787
10871710 139 16891206399284252413
11221954 11 17388284456451006348
11578080 2 18055357087966800544
12553582 1 17053576307002783751
12788726 201 17616527797341477119
13149001 5 17559964383965613448
13583140 156 16732692853535055129
13965767 371 18119777306080123456
16945 1 17988074491721675354
17876694 64 17180201975599612296
17980427 26 17128696221048404864
18603816 31 12158419487707112823
20600515 1 16879360995324324628
21452121 99 18057021700640661818
21857420 4 17191467584886556095
21860390 5 17603864468584484261
22182313 1 16985459740616247138
2255824 54 17844230844758936523
22889148 1 17700147774163521414
22907989 373 18053106417180459575
23419403 2 17046218379252280082
238 59 18060131003876334811
25222932 49 16553348286671980285
266924 78 17765760911708091203
2748010 2 17486763358028053618
4409770 3 17266058423312614946
57100710 29 18189891096767056132
5939293 188 17748822999248716180
6287921 2 18266189344250579165
81228 2 17836917172341394771

>  <PUBCHEM_SHAPE_MULTIPOLES>  (1) 
474.08
5.79
4.35
2.63
5.69
3.89
0.74
-4.06
-0.58
-1.29
-4.21
-1.2
-1.95
-0.66

>  <PUBCHEM_SHAPE_SELFOVERLAP>  (1) 
1007.673

>  <PUBCHEM_SHAPE_VOLUME>  (1) 
263.9

>  <PUBCHEM_COORDINATE_TYPE>  (1) 
2
5
10

$$$$
