23026
     RDKit          3D

 20 20  0  0  0  0  0  0  0  0999 V2000
   -1.4177    1.2706   -0.7289 O   0  0  0  0  0  0  0  0  0  0  0  0
   -0.9250   -2.6887   -0.7652 O   0  0  0  0  0  0  0  0  0  0  0  0
    5.0283    1.1634    0.2057 O   0  0  0  0  0  0  0  0  0  0  0  0
   -2.3401   -1.0262    0.0168 N   0  0  0  0  0  0  0  0  0  0  0  0
    3.6599   -0.7565    0.2126 N   0  0  0  0  0  0  0  0  0  0  0  0
   -3.5431   -1.8226    0.0333 C   0  0  0  0  0  0  0  0  0  0  0  0
    0.0333   -0.5951   -0.3217 C   0  0  0  0  0  0  0  0  0  0  0  0
   -1.1148   -1.5356   -0.3874 C   0  0  0  0  0  0  0  0  0  0  0  0
   -0.1768    0.7579   -0.4949 C   0  0  0  0  0  0  0  0  0  0  0  0
   -3.6870   -2.5462    1.3664 C   0  0  0  0  0  0  0  0  0  0  0  0
   -4.7587   -0.9514   -0.2558 C   0  0  0  0  0  0  0  0  0  0  0  0
    1.2893   -1.1185   -0.0865 C   0  0  0  0  0  0  0  0  0  0  0  0
    2.3805   -0.2519   -0.0221 C   0  0  0  0  0  0  0  0  0  0  0  0
    0.9143    1.6245   -0.4307 C   0  0  0  0  0  0  0  0  0  0  0  0
    2.1929    1.1195   -0.1944 C   0  0  0  0  0  0  0  0  0  0  0  0
   -1.6701    2.5943   -0.2622 C   0  0  0  0  0  0  0  0  0  0  0  0
    4.8651   -0.0481    0.3081 C   0  0  0  0  0  0  0  0  0  0  0  0
   -3.1296    2.7340    0.0179 C   0  0  0  0  0  0  0  0  0  0  0  0
    6.0333   -0.9650    0.5710 C   0  0  0  0  0  0  0  0  0  0  0  0
   -3.6338    3.0416    1.2180 C   0  0  0  0  0  0  0  0  0  0  0  0
  1  9  1  0
  1 16  1  0
  2  8  2  0
  3 17  2  0
  4  6  1  0
  4  8  1  0
  5 13  1  0
  5 17  1  0
  6 10  1  0
  6 11  1  0
  7  8  1  0
  7  9  2  0
  7 12  1  0
  9 14  1  0
 12 13  2  0
 13 15  1  0
 14 15  2  0
 16 18  1  0
 17 19  1  0
 18 20  2  0
M  END
>  <PUBCHEM_COMPOUND_CID>  (1) 
23026

>  <PUBCHEM_CONFORMER_RMSD>  (1) 
0.8

>  <PUBCHEM_CONFORMER_DIVERSEORDER>  (1) 
1
9
55
60
25
53
57
46
14
38
73
20
72
50
35
2
10
61
24
13
7
66
44
63
43
22
48
36
56
51
52
40
32
70
8
41
17
71
65
3
68
12
67
15
74
47
64
18
29
58
23
26
21
31
59
42
69
19
39
6
34
5
30
49
62
4
16
37
11
45
54
33
28
27

>  <PUBCHEM_MMFF94_PARTIAL_CHARGES>  (1) 
26
1 -0.36
12 -0.15
13 0.12
14 -0.15
15 -0.15
16 0.42
17 0.57
18 -0.29
19 0.06
2 -0.57
20 -0.3
22 0.37
29 0.15
3 -0.57
30 0.15
31 0.15
32 0.37
35 0.15
39 0.15
4 -0.73
40 0.15
5 -0.55
6 0.3
7 0.09
8 0.54
9 0.08

>  <PUBCHEM_EFFECTIVE_ROTOR_COUNT>  (1) 
8

>  <PUBCHEM_PHARMACOPHORE_FEATURES>  (1) 
8
1 1 acceptor
1 2 acceptor
1 20 hydrophobe
1 3 acceptor
1 4 donor
1 5 donor
3 6 10 11 hydrophobe
6 7 9 12 13 14 15 rings

>  <PUBCHEM_HEAVY_ATOM_COUNT>  (1) 
20

>  <PUBCHEM_ATOM_DEF_STEREO_COUNT>  (1) 
0

>  <PUBCHEM_ATOM_UDEF_STEREO_COUNT>  (1) 
0

>  <PUBCHEM_BOND_DEF_STEREO_COUNT>  (1) 
0

>  <PUBCHEM_BOND_UDEF_STEREO_COUNT>  (1) 
0

>  <PUBCHEM_ISOTOPIC_ATOM_COUNT>  (1) 
0

>  <PUBCHEM_COMPONENT_COUNT>  (1) 
1

>  <PUBCHEM_CACTVS_TAUTO_COUNT>  (1) 
4

>  <PUBCHEM_CONFORMER_ID>  (1) 
000059F200000001

>  <PUBCHEM_MMFF94_ENERGY>  (1) 
55.7096

>  <PUBCHEM_FEATURE_SELFOVERLAP>  (1) 
40.596

>  <PUBCHEM_SHAPE_FINGERPRINT>  (1) 
10319926 262 18268974446391224234
104564 63 18340497724595307749
10493431 412 18196938764675572801
12293681 4 18116443711516044947
12390115 104 18272382940410332048
12788726 201 18266476462545414628
13140716 1 18122626329559768050
14420673 8 18049439250251254922
15042514 8 18336263440691948220
15295992 7 17703494533103406688
18915476 22 16701468844503168574
19784866 135 18409725205298632714
20510252 161 18344145882110659880
21033648 29 17703491239052829706
21041028 32 18191876823567835075
21202864 24 18338803308178236577
21236236 1 18412823556151591837
21267235 1 18335704953631735438
21339142 126 18342451590537693407
22182313 1 18059307456708291702
22224240 67 18196939873178257025
23402539 116 18272080647742981871
23557571 272 18272379663687440980
25147074 1 18114195150508452004
2748010 2 18198070183177326943
312423 11 18041288750594381820
350125 39 18411419544059067948
5104073 3 18337940230885309072

>  <PUBCHEM_SHAPE_MULTIPOLES>  (1) 
384.02
10.42
3.38
0.89
11.88
1.19
0.19
-1.61
3.07
-5.29
0.56
-0.56
-0.05
-0.31

>  <PUBCHEM_SHAPE_SELFOVERLAP>  (1) 
783.165

>  <PUBCHEM_SHAPE_VOLUME>  (1) 
222.4

>  <PUBCHEM_COORDINATE_TYPE>  (1) 
2
5
10

$$$$
