23029
     RDKit          3D

 10 10  0  0  0  0  0  0  0  0999 V2000
   -4.6564   -0.0241    0.2841 Br  0  0  0  0  0  0  0  0  0  0  0  0
    3.9666   -0.0130    0.4128 Cl  0  0  0  0  0  0  0  0  0  0  0  0
   -1.9454    0.0149   -0.6235 C   0  0  0  0  0  0  0  0  0  0  0  0
   -0.4765    0.0080   -0.3650 C   0  0  0  0  0  0  0  0  0  0  0  0
    0.2154    1.2127   -0.2409 C   0  0  0  0  0  0  0  0  0  0  0  0
    0.2055   -1.2033   -0.2485 C   0  0  0  0  0  0  0  0  0  0  0  0
   -2.7494    0.0135    0.6727 C   0  0  0  0  0  0  0  0  0  0  0  0
    1.5893    1.2062   -0.0003 C   0  0  0  0  0  0  0  0  0  0  0  0
    1.5794   -1.2099   -0.0078 C   0  0  0  0  0  0  0  0  0  0  0  0
    2.2714   -0.0050    0.1163 C   0  0  0  0  0  0  0  0  0  0  0  0
  1  7  1  0
  2 10  1  0
  3  4  1  0
  3  7  1  0
  4  5  2  0
  4  6  1  0
  5  8  1  0
  6  9  2  0
  8 10  2  0
  9 10  1  0
M  END
>  <PUBCHEM_COMPOUND_CID>  (1) 
23029

>  <PUBCHEM_CONFORMER_RMSD>  (1) 
0.4

>  <PUBCHEM_CONFORMER_DIVERSEORDER>  (1) 
1
5
3
2
4

>  <PUBCHEM_MMFF94_PARTIAL_CHARGES>  (1) 
14
1 -0.23
10 0.18
13 0.15
14 0.15
17 0.15
18 0.15
2 -0.18
3 0.14
4 -0.14
5 -0.15
6 -0.15
7 0.23
8 -0.15
9 -0.15

>  <PUBCHEM_EFFECTIVE_ROTOR_COUNT>  (1) 
2

>  <PUBCHEM_PHARMACOPHORE_FEATURES>  (1) 
2
1 1 hydrophobe
6 4 5 6 8 9 10 rings

>  <PUBCHEM_HEAVY_ATOM_COUNT>  (1) 
10

>  <PUBCHEM_ATOM_DEF_STEREO_COUNT>  (1) 
0

>  <PUBCHEM_ATOM_UDEF_STEREO_COUNT>  (1) 
0

>  <PUBCHEM_BOND_DEF_STEREO_COUNT>  (1) 
0

>  <PUBCHEM_BOND_UDEF_STEREO_COUNT>  (1) 
0

>  <PUBCHEM_ISOTOPIC_ATOM_COUNT>  (1) 
0

>  <PUBCHEM_COMPONENT_COUNT>  (1) 
1

>  <PUBCHEM_CACTVS_TAUTO_COUNT>  (1) 
1

>  <PUBCHEM_CONFORMER_ID>  (1) 
000059F500000001

>  <PUBCHEM_MMFF94_ENERGY>  (1) 
18.795

>  <PUBCHEM_FEATURE_SELFOVERLAP>  (1) 
10.148

>  <PUBCHEM_SHAPE_FINGERPRINT>  (1) 
10219947 1 18409731763550098037
11062470 55 12107787414948509903
12032990 46 18336266734968806990
12251169 10 18410857676716479931
14252887 29 18340214007023494739
14325111 11 18339643446762239861
15775835 57 17561082514371491505
16945 1 18410845564913843628
18342897 14 18410575088968790728
20201158 50 18186242818539082163
20279233 1 17822296777754178555
20645477 70 18266449924327829071
20871998 22 18196939872518399574
22485316 2 16805602581631840427
23235685 24 18413101775564009170
23380061 451 17385718063067057579
23402539 116 18041270029053218213
23402655 69 18268697343448809469
2748010 2 18051120403028100748
29004967 10 18260830375667889720

>  <PUBCHEM_SHAPE_MULTIPOLES>  (1) 
213.61
7.08
1.2
0.77
5.13
0
-0.02
-0.06
-1.67
-0.51
0.07
0.19
0
0

>  <PUBCHEM_SHAPE_SELFOVERLAP>  (1) 
410.312

>  <PUBCHEM_SHAPE_VOLUME>  (1) 
133.1

>  <PUBCHEM_COORDINATE_TYPE>  (1) 
2
5
10

$$$$
