23025
     RDKit          3D

 26 28  0  0  1  0  0  0  0  0999 V2000
    5.1367    0.5913    0.0392 O   0  0  0  0  0  0  0  0  0  0  0  0
   -3.5893   -1.9976   -0.5139 O   0  0  0  0  0  0  0  0  0  0  0  0
   -1.7458   -3.2202   -0.9637 O   0  0  0  0  0  0  0  0  0  0  0  0
    2.9584   -1.2142   -0.2720 N   0  0  0  0  0  0  0  0  0  0  0  0
   -1.4598   -1.1223    0.3022 C   0  0  0  0  0  0  0  0  0  0  0  0
    0.0377   -1.6172    0.2809 C   0  0  0  0  0  0  0  0  0  0  0  0
   -1.9985   -1.0473    1.7937 C   0  0  0  0  0  0  0  0  0  0  0  0
    0.6823   -1.7397   -1.1139 C   0  0  0  0  0  0  0  0  0  0  0  0
   -1.6167    0.2558   -0.3926 C   0  0  0  0  0  0  0  0  0  0  0  0
    2.1560   -2.1546   -1.0514 C   0  0  0  0  0  0  0  0  0  0  0  0
   -2.2473   -2.2183   -0.4667 C   0  0  0  0  0  0  0  0  0  0  0  0
   -1.8397   -2.3498    2.5950 C   0  0  0  0  0  0  0  0  0  0  0  0
   -3.4627   -0.5885    1.9239 C   0  0  0  0  0  0  0  0  0  0  0  0
   -0.9957    1.3678    0.1300 C   0  0  0  0  0  0  0  0  0  0  0  0
    4.3411   -1.6936   -0.1385 C   0  0  0  0  0  0  0  0  0  0  0  0
    2.9452    0.1194   -0.8890 C   0  0  0  0  0  0  0  0  0  0  0  0
   -2.3955    0.2578   -1.5215 C   0  0  0  0  0  0  0  0  0  0  0  0
   -1.1780    2.5952   -0.5506 C   0  0  0  0  0  0  0  0  0  0  0  0
    5.1611   -0.6906    0.6679 C   0  0  0  0  0  0  0  0  0  0  0  0
    3.7989    1.0799   -0.0658 C   0  0  0  0  0  0  0  0  0  0  0  0
   -2.5744    1.4648   -2.1911 C   0  0  0  0  0  0  0  0  0  0  0  0
   -0.2033    1.3364    1.2891 C   0  0  0  0  0  0  0  0  0  0  0  0
   -1.9702    2.6267   -1.7099 C   0  0  0  0  0  0  0  0  0  0  0  0
   -0.5624    3.7549   -0.0522 C   0  0  0  0  0  0  0  0  0  0  0  0
    0.4006    2.4984    1.7702 C   0  0  0  0  0  0  0  0  0  0  0  0
    0.2213    3.7055    1.1009 C   0  0  0  0  0  0  0  0  0  0  0  0
  1 19  1  0
  1 20  1  0
  2 11  1  0
  3 11  2  0
  4 10  1  0
  4 15  1  0
  4 16  1  0
  5  6  1  0
  5  7  1  0
  5  9  1  0
  5 11  1  0
  6  8  1  0
  7 12  1  0
  7 13  1  0
  8 10  1  0
  9 14  1  0
  9 17  2  0
 14 18  2  0
 14 22  1  0
 15 19  1  0
 16 20  1  0
 17 21  1  0
 18 23  1  0
 18 24  1  0
 21 23  2  0
 22 25  2  0
 24 26  2  0
 25 26  1  0
M  END
>  <PUBCHEM_COMPOUND_CID>  (1) 
23025

>  <PUBCHEM_CONFORMER_RMSD>  (1) 
0.8

>  <PUBCHEM_CONFORMER_DIVERSEORDER>  (1) 
1
31
17
14
8
24
10
15
28
29
35
4
6
33
19
16
13
3
34
21
26
25
11
27
9
5
7
2
20
30
23
32
22
12
18

>  <PUBCHEM_MMFF94_PARTIAL_CHARGES>  (1) 
27
1 -0.56
10 0.27
11 0.66
15 0.27
16 0.27
17 -0.15
19 0.28
2 -0.65
20 0.28
21 -0.15
22 -0.15
23 -0.15
24 -0.15
25 -0.15
26 -0.15
3 -0.57
4 -0.81
44 0.15
49 0.15
5 0.2
50 0.15
51 0.15
52 0.5
53 0.15
54 0.15
55 0.15
9 -0.14

>  <PUBCHEM_EFFECTIVE_ROTOR_COUNT>  (1) 
8.2

>  <PUBCHEM_PHARMACOPHORE_FEATURES>  (1) 
10
1 1 acceptor
1 2 acceptor
1 3 acceptor
1 4 cation
3 2 3 11 anion
3 7 12 13 hydrophobe
4 5 6 7 8 hydrophobe
6 1 4 15 16 19 20 rings
6 14 18 22 24 25 26 rings
6 9 14 17 18 21 23 rings

>  <PUBCHEM_HEAVY_ATOM_COUNT>  (1) 
26

>  <PUBCHEM_ATOM_DEF_STEREO_COUNT>  (1) 
0

>  <PUBCHEM_ATOM_UDEF_STEREO_COUNT>  (1) 
1

>  <PUBCHEM_BOND_DEF_STEREO_COUNT>  (1) 
0

>  <PUBCHEM_BOND_UDEF_STEREO_COUNT>  (1) 
0

>  <PUBCHEM_ISOTOPIC_ATOM_COUNT>  (1) 
0

>  <PUBCHEM_COMPONENT_COUNT>  (1) 
1

>  <PUBCHEM_CACTVS_TAUTO_COUNT>  (1) 
1

>  <PUBCHEM_CONFORMER_ID>  (1) 
000059F100000001

>  <PUBCHEM_MMFF94_ENERGY>  (1) 
99.4038

>  <PUBCHEM_FEATURE_SELFOVERLAP>  (1) 
50.852

>  <PUBCHEM_SHAPE_FINGERPRINT>  (1) 
10764073 3 17121743858681237641
11370993 70 18049993399362603644
12035758 1 18408895035924236073
12403814 3 18409455794874818555
12422481 6 17901140484465545537
12553582 1 18269293398571966646
12788726 201 18261103058994271498
133893 2 17690013648731593823
13583140 156 17822291224335130066
14142880 1 17703794699809288059
14787075 74 18120374247043171357
14790565 3 17983012246199955665
14955137 171 17407453342164339195
17492 54 18196625468196021805
17980427 23 17131850759022012467
17980427 26 15834497664635793515
19765921 60 17612020478715507325
20600515 1 17898324733828477947
20775438 99 17191731398562496719
21524375 3 17396429312271997303
22749437 52 18195243322335467060
22907989 373 18338814324975066676
22956985 138 17034741054306806490
23352939 185 18130215056331328335
23419403 2 18335988666138499889
23559900 14 18341313549597354240
3380486 145 18340495542414616479
35225 105 16955111870684906616
394222 165 17176853541976234417
4340502 62 17758416079925750545
469060 322 18271805791210777098
474 4 17113817388766257683
539174 4 17623311758557371707
57527585 103 18042990703951661226
5845 1 14585313229363662415
81228 2 17683285440770648355
9709674 26 18127970807138344558
9981440 41 18124861370775029042

>  <PUBCHEM_SHAPE_MULTIPOLES>  (1) 
512.48
6.99
4.34
2.01
11.95
2.3
0.55
-2.41
-0.26
-2.23
0.4
-1.88
-0.1
1.47

>  <PUBCHEM_SHAPE_SELFOVERLAP>  (1) 
1087.513

>  <PUBCHEM_SHAPE_VOLUME>  (1) 
285.1

>  <PUBCHEM_COORDINATE_TYPE>  (1) 
2
5
10

$$$$
