23033
     RDKit          3D

 20 21  0  0  1  0  0  0  0  0999 V2000
    3.7875    1.1685   -0.0674 N   0  0  0  0  0  0  0  0  0  0  0  0
   -1.8930   -4.1110    0.0083 N   0  0  0  0  0  0  0  0  0  0  0  0
    0.9324   -2.1407    0.5429 C   0  0  0  0  0  0  0  0  0  0  0  0
    1.7553   -0.8701    0.7929 C   0  0  0  0  0  0  0  0  0  0  0  0
   -0.5905   -1.8901    0.5891 C   0  0  0  0  0  0  0  0  0  0  0  0
    3.2551   -1.1446    0.6390 C   0  0  0  0  0  0  0  0  0  0  0  0
   -1.0405   -0.7542   -0.3123 C   0  0  0  0  0  0  0  0  0  0  0  0
    4.1188    0.0976    0.8646 C   0  0  0  0  0  0  0  0  0  0  0  0
   -1.6650    0.3783    0.2071 C   0  0  0  0  0  0  0  0  0  0  0  0
   -2.0604    1.4022   -0.6862 C   0  0  0  0  0  0  0  0  0  0  0  0
   -0.7975   -0.9061   -1.6682 C   0  0  0  0  0  0  0  0  0  0  0  0
   -1.3193   -3.1349    0.2627 C   0  0  0  0  0  0  0  0  0  0  0  0
   -1.9116    0.5325    1.5811 C   0  0  0  0  0  0  0  0  0  0  0  0
   -1.8137    1.2483   -2.0602 C   0  0  0  0  0  0  0  0  0  0  0  0
   -1.1861    0.1009   -2.5466 C   0  0  0  0  0  0  0  0  0  0  0  0
    4.0131    0.7383   -1.4486 C   0  0  0  0  0  0  0  0  0  0  0  0
    4.5737    2.3684    0.2250 C   0  0  0  0  0  0  0  0  0  0  0  0
   -2.6909    2.5502   -0.1792 C   0  0  0  0  0  0  0  0  0  0  0  0
   -2.5392    1.6797    2.0672 C   0  0  0  0  0  0  0  0  0  0  0  0
   -2.9282    2.6866    1.1888 C   0  0  0  0  0  0  0  0  0  0  0  0
  1  8  1  0
  1 16  1  0
  1 17  1  0
  2 12  3  0
  3  4  1  0
  3  5  1  0
  4  6  1  0
  5  7  1  0
  5 12  1  0
  6  8  1  0
  7  9  2  0
  7 11  1  0
  9 10  1  0
  9 13  1  0
 10 14  2  0
 10 18  1  0
 11 15  2  0
 13 19  2  0
 14 15  1  0
 18 20  2  0
 19 20  1  0
M  END
>  <PUBCHEM_COMPOUND_CID>  (1) 
23033

>  <PUBCHEM_CONFORMER_RMSD>  (1) 
0.8

>  <PUBCHEM_CONFORMER_DIVERSEORDER>  (1) 
4
46
39
71
81
60
8
70
79
61
57
30
56
45
80
9
12
36
77
82
22
1
40
68
19
58
50
52
55
54
53
5
63
20
59
43
66
48
24
35
62
74
29
38
11
75
42
33
32
37
31
65
7
3
6
67
14
34
17
78
64
26
16
13
51
15
44
76
18
69
2
10
41
73
21
28
49
72
25
27
23
47

>  <PUBCHEM_MMFF94_PARTIAL_CHARGES>  (1) 
22
1 -0.81
11 -0.15
12 0.36
13 -0.15
14 -0.15
15 -0.15
16 0.27
17 0.27
18 -0.15
19 -0.15
2 -0.56
20 -0.15
30 0.15
31 0.15
32 0.15
33 0.15
40 0.15
41 0.15
42 0.15
5 0.34
7 -0.14
8 0.27

>  <PUBCHEM_EFFECTIVE_ROTOR_COUNT>  (1) 
6

>  <PUBCHEM_PHARMACOPHORE_FEATURES>  (1) 
5
1 1 cation
1 2 acceptor
4 3 4 5 6 hydrophobe
6 7 9 10 11 14 15 rings
6 9 10 13 18 19 20 rings

>  <PUBCHEM_HEAVY_ATOM_COUNT>  (1) 
20

>  <PUBCHEM_ATOM_DEF_STEREO_COUNT>  (1) 
0

>  <PUBCHEM_ATOM_UDEF_STEREO_COUNT>  (1) 
1

>  <PUBCHEM_BOND_DEF_STEREO_COUNT>  (1) 
0

>  <PUBCHEM_BOND_UDEF_STEREO_COUNT>  (1) 
0

>  <PUBCHEM_ISOTOPIC_ATOM_COUNT>  (1) 
0

>  <PUBCHEM_COMPONENT_COUNT>  (1) 
1

>  <PUBCHEM_CACTVS_TAUTO_COUNT>  (1) 
1

>  <PUBCHEM_CONFORMER_ID>  (1) 
000059F900000004

>  <PUBCHEM_MMFF94_ENERGY>  (1) 
52.7193

>  <PUBCHEM_FEATURE_SELFOVERLAP>  (1) 
25.398

>  <PUBCHEM_SHAPE_FINGERPRINT>  (1) 
10764073 3 17199991935180356643
11640471 11 17556274199493792721
12173636 292 18413106169252496394
12539773 59 18130496526586148372
12633257 1 16879078429648025392
12788726 201 18200013153705378535
128993 33 18113623374275696652
13083527 12 16880512347919656177
13583140 156 16806439211302020418
14123250 116 18342731940501932616
14142880 1 18260826050572532124
14251757 17 14045160914830538848
14468879 13 17489873734694184332
14787075 74 18271793636869619207
15342168 16 18336831862133245097
15534591 1 18131066000399076354
18219364 16 17969213452411050644
18981168 100 18409452453717173478
19765921 60 17914599571687789467
20600515 1 17683252721414992334
21475661 188 17103113694679051693
21524375 3 17844239619160350771
21756936 100 18273217465487943112
21864079 5 18411136922827080528
22182937 141 18411983589555820816
22907989 373 18267854163520992958
23227448 37 18341056323293528464
23419403 2 17476056395548699575
23557571 272 18122627425372391190
27216 239 17603577517714485348
283562 15 18191298493342432114
469060 322 17460877542916508976
474 4 17981035323928230363
5262128 65 15553290727542682808
56616090 278 17050520772457012329
81228 2 18114752640883602818
9981440 41 17269144606628973762

>  <PUBCHEM_SHAPE_MULTIPOLES>  (1) 
401.63
6.95
3.77
1.99
10.59
2.83
0.87
-5.94
-1.07
-1.95
-0.77
-1.26
-0.7
-0.9

>  <PUBCHEM_SHAPE_SELFOVERLAP>  (1) 
838.072

>  <PUBCHEM_SHAPE_VOLUME>  (1) 
226.6

>  <PUBCHEM_COORDINATE_TYPE>  (1) 
2
5
10

$$$$
