23030
     RDKit          3D

 26 27  0  0  0  0  0  0  0  0999 V2000
    5.9429   -0.7577    0.0990 O   0  0  0  0  0  0  0  0  0  0  0  0
   -5.9430    0.7575    0.0987 O   0  0  0  0  0  0  0  0  0  0  0  0
    5.9752    1.5830    0.0960 O   0  0  0  0  0  0  0  0  0  0  0  0
   -5.9751   -1.5831    0.0965 O   0  0  0  0  0  0  0  0  0  0  0  0
    0.3406   -0.5866    0.0989 C   0  0  0  0  0  0  0  0  0  0  0  0
   -0.3407    0.5869    0.0987 C   0  0  0  0  0  0  0  0  0  0  0  0
   -0.3147   -1.9532    0.1521 C   0  0  0  0  0  0  0  0  0  0  0  0
    0.3147    1.9534    0.1520 C   0  0  0  0  0  0  0  0  0  0  0  0
    1.8220   -0.6311    0.0988 C   0  0  0  0  0  0  0  0  0  0  0  0
   -1.8222    0.6312    0.0987 C   0  0  0  0  0  0  0  0  0  0  0  0
   -0.6160   -2.5041   -1.2358 C   0  0  0  0  0  0  0  0  0  0  0  0
    0.6166    2.5042   -1.2357 C   0  0  0  0  0  0  0  0  0  0  0  0
    2.4913   -0.6524   -1.1091 C   0  0  0  0  0  0  0  0  0  0  0  0
   -2.4914    0.6521   -1.1093 C   0  0  0  0  0  0  0  0  0  0  0  0
    2.4913   -0.6508    1.3069 C   0  0  0  0  0  0  0  0  0  0  0  0
   -2.4913    0.6513    1.3067 C   0  0  0  0  0  0  0  0  0  0  0  0
    3.8855   -0.6953   -1.1090 C   0  0  0  0  0  0  0  0  0  0  0  0
   -3.8855    0.6948   -1.1093 C   0  0  0  0  0  0  0  0  0  0  0  0
    3.8855   -0.6934    1.3071 C   0  0  0  0  0  0  0  0  0  0  0  0
   -3.8856    0.6939    1.3068 C   0  0  0  0  0  0  0  0  0  0  0  0
    4.5826   -0.7156    0.0990 C   0  0  0  0  0  0  0  0  0  0  0  0
   -4.5827    0.7155    0.0988 C   0  0  0  0  0  0  0  0  0  0  0  0
    6.5564    0.5059    0.0983 C   0  0  0  0  0  0  0  0  0  0  0  0
   -6.5564   -0.5061    0.0985 C   0  0  0  0  0  0  0  0  0  0  0  0
    8.0486    0.3526    0.0983 C   0  0  0  0  0  0  0  0  0  0  0  0
   -8.0485   -0.3530    0.0984 C   0  0  0  0  0  0  0  0  0  0  0  0
  1 21  1  0
  1 23  1  0
  2 22  1  0
  2 24  1  0
  3 23  2  0
  4 24  2  0
  5  6  2  0
  5  7  1  0
  5  9  1  0
  6  8  1  0
  6 10  1  0
  7 11  1  0
  8 12  1  0
  9 13  2  0
  9 15  1  0
 10 14  2  0
 10 16  1  0
 13 17  1  0
 14 18  1  0
 15 19  2  0
 16 20  2  0
 17 21  2  0
 18 22  2  0
 19 21  1  0
 20 22  1  0
 23 25  1  0
 24 26  1  0
M  END
>  <PUBCHEM_COMPOUND_CID>  (1) 
23030

>  <PUBCHEM_CONFORMER_RMSD>  (1) 
0.8

>  <PUBCHEM_CONFORMER_DIVERSEORDER>  (1) 
1
36
22
29
4
35
15
42
26
32
28
12
21
41
5
9
40
23
19
34
39
33
13
6
37
31
25
10
27
2
30
14
38
7
24
17
3
16
11
18
20
8

>  <PUBCHEM_MMFF94_PARTIAL_CHARGES>  (1) 
32
1 -0.23
10 0.03
13 -0.15
14 -0.15
15 -0.15
16 -0.15
17 -0.15
18 -0.15
19 -0.15
2 -0.23
20 -0.15
21 0.08
22 0.08
23 0.66
24 0.66
25 0.06
26 0.06
3 -0.57
37 0.15
38 0.15
39 0.15
4 -0.57
40 0.15
41 0.15
42 0.15
43 0.15
44 0.15
5 -0.17
6 -0.17
7 0.14
8 0.14
9 0.03

>  <PUBCHEM_EFFECTIVE_ROTOR_COUNT>  (1) 
8

>  <PUBCHEM_PHARMACOPHORE_FEATURES>  (1) 
6
1 11 hydrophobe
1 12 hydrophobe
1 3 acceptor
1 4 acceptor
6 10 14 16 18 20 22 rings
6 9 13 15 17 19 21 rings

>  <PUBCHEM_HEAVY_ATOM_COUNT>  (1) 
26

>  <PUBCHEM_ATOM_DEF_STEREO_COUNT>  (1) 
0

>  <PUBCHEM_ATOM_UDEF_STEREO_COUNT>  (1) 
0

>  <PUBCHEM_BOND_DEF_STEREO_COUNT>  (1) 
0

>  <PUBCHEM_BOND_UDEF_STEREO_COUNT>  (1) 
1

>  <PUBCHEM_ISOTOPIC_ATOM_COUNT>  (1) 
0

>  <PUBCHEM_COMPONENT_COUNT>  (1) 
1

>  <PUBCHEM_CACTVS_TAUTO_COUNT>  (1) 
1

>  <PUBCHEM_CONFORMER_ID>  (1) 
000059F600000001

>  <PUBCHEM_MMFF94_ENERGY>  (1) 
84.3998

>  <PUBCHEM_FEATURE_SELFOVERLAP>  (1) 
30.446

>  <PUBCHEM_SHAPE_FINGERPRINT>  (1) 
10 15 17312822702321861256
10165383 225 17846498137115263438
106641 1 18410574010921255139
11089746 13 12973605547449522255
11315181 36 18413390935039182921
11963148 33 18260542334415444595
12236239 1 18410573955086680184
12516196 113 18260266334719253473
12730499 353 17275386491379757094
13899415 154 17704072910800862328
13914758 101 11386357136902019911
14251752 14 9079121054945901299
14341114 176 15841549661010936513
14617045 38 15626224610899335796
14849402 71 18201159961481733825
14955137 171 18272653450319380385
15131766 46 14926227255428058454
15849732 13 18410575097553262493
18222031 100 18336271162890016249
18335252 98 18131637793964999479
18608769 82 17917428769677946087
18681886 176 18343294903661697779
19489759 90 16225768497331386821
20028762 73 18201998872138048855
21150785 3 18410856572524691633
21365058 27 17132116844667237039
21521721 280 18130788979303503899
22224240 67 18408605851233438707
23198884 109 17418376879228748474
23559900 14 16988265573751763122
23569943 247 17626967282607502574
3178227 256 18335713758224801027
34797466 226 16558756732544948076
350125 39 18340205297346393245
3545911 37 15770053917245931954
4258327 124 18190754205216596916
4325135 7 18410575101842948175
59755656 215 8430324545137399416
7495541 125 17749115504260020589

>  <PUBCHEM_SHAPE_MULTIPOLES>  (1) 
511.59
18.79
1.87
1.2
0
0
-0.01
0
1.83
0
-0.53
0
0
-0.16

>  <PUBCHEM_SHAPE_SELFOVERLAP>  (1) 
1078.605

>  <PUBCHEM_SHAPE_VOLUME>  (1) 
285.9

>  <PUBCHEM_COORDINATE_TYPE>  (1) 
2
5
10

$$$$
