23034
     RDKit          3D

 32 35  0  0  0  0  0  0  0  0999 V2000
   -2.7751    3.1704    0.2448 Cl  0  0  0  0  0  0  0  0  0  0  0  0
   -7.5759   -0.7943   -0.2293 Cl  0  0  0  0  0  0  0  0  0  0  0  0
   -7.9990    2.3884   -0.6373 Cl  0  0  0  0  0  0  0  0  0  0  0  0
    0.1049    1.5542   -0.2542 O   0  0  0  0  0  0  0  0  0  0  0  0
    2.5232    1.7627    0.7446 O   0  0  0  0  0  0  0  0  0  0  0  0
    3.9405    0.0626   -0.0338 N   0  0  0  0  0  0  0  0  0  0  0  0
   -2.0601   -0.1226   -0.4808 N   0  0  0  0  0  0  0  0  0  0  0  0
   -2.6534    0.1590    0.5841 N   0  0  0  0  0  0  0  0  0  0  0  0
   -0.6217   -2.0426   -0.0129 C   0  0  0  0  0  0  0  0  0  0  0  0
    0.6679   -2.5470    0.2786 C   0  0  0  0  0  0  0  0  0  0  0  0
    1.5567   -0.2836    0.2061 C   0  0  0  0  0  0  0  0  0  0  0  0
   -0.7945   -0.6600   -0.1896 C   0  0  0  0  0  0  0  0  0  0  0  0
    1.7467   -1.6541    0.3847 C   0  0  0  0  0  0  0  0  0  0  0  0
    0.2883    0.2126   -0.0802 C   0  0  0  0  0  0  0  0  0  0  0  0
   -1.7006   -2.9353   -0.1195 C   0  0  0  0  0  0  0  0  0  0  0  0
    0.8407   -3.9296    0.4553 C   0  0  0  0  0  0  0  0  0  0  0  0
    2.7016    0.6092    0.3246 C   0  0  0  0  0  0  0  0  0  0  0  0
    5.2166    0.6766    0.0008 C   0  0  0  0  0  0  0  0  0  0  0  0
   -1.5108   -4.3058    0.0595 C   0  0  0  0  0  0  0  0  0  0  0  0
   -0.2427   -4.8020    0.3464 C   0  0  0  0  0  0  0  0  0  0  0  0
    6.1962    0.2978   -0.9024 C   0  0  0  0  0  0  0  0  0  0  0  0
    5.4527    1.6550    0.9531 C   0  0  0  0  0  0  0  0  0  0  0  0
    7.4465    0.9143   -0.8521 C   0  0  0  0  0  0  0  0  0  0  0  0
    5.9530   -0.7561   -1.9336 C   0  0  0  0  0  0  0  0  0  0  0  0
    6.7029    2.2715    1.0032 C   0  0  0  0  0  0  0  0  0  0  0  0
    7.6998    1.9012    0.1006 C   0  0  0  0  0  0  0  0  0  0  0  0
   -3.9189    0.6968    0.2934 C   0  0  0  0  0  0  0  0  0  0  0  0
   -4.0968    2.0669    0.1175 C   0  0  0  0  0  0  0  0  0  0  0  0
   -5.0016   -0.1723    0.1836 C   0  0  0  0  0  0  0  0  0  0  0  0
   -6.2700    0.3317   -0.1041 C   0  0  0  0  0  0  0  0  0  0  0  0
   -5.3652    2.5710   -0.1702 C   0  0  0  0  0  0  0  0  0  0  0  0
   -6.4520    1.7034   -0.2809 C   0  0  0  0  0  0  0  0  0  0  0  0
  1 28  1  0
  2 30  1  0
  3 32  1  0
  4 14  1  0
  5 17  2  0
  6 17  1  0
  6 18  1  0
  7  8  2  0
  7 12  1  0
  8 27  1  0
  9 10  1  0
  9 12  2  0
  9 15  1  0
 10 13  2  0
 10 16  1  0
 11 13  1  0
 11 14  2  0
 11 17  1  0
 12 14  1  0
 15 19  2  0
 16 20  2  0
 18 21  2  0
 18 22  1  0
 19 20  1  0
 21 23  1  0
 21 24  1  0
 22 25  2  0
 23 26  2  0
 25 26  1  0
 27 28  2  0
 27 29  1  0
 28 31  1  0
 29 30  2  0
 30 32  1  0
 31 32  2  0
M  END
>  <PUBCHEM_COMPOUND_CID>  (1) 
23034

>  <PUBCHEM_CONFORMER_RMSD>  (1) 
0.8

>  <PUBCHEM_CONFORMER_DIVERSEORDER>  (1) 
3
62
41
12
55
23
48
33
4
13
6
56
22
63
18
28
26
39
36
38
7
46
17
20
24
44
10
32
2
30
11
61
59
37
53
16
50
19
49
40
47
27
5
1
15
57
31
35
45
14
34
60
51
9
29
52
25
21
8
54
58
42
43

>  <PUBCHEM_MMFF94_PARTIAL_CHARGES>  (1) 
43
1 -0.18
11 0.09
12 0.18
13 -0.15
14 0.08
15 -0.15
16 -0.15
17 0.54
18 0.12
19 -0.15
2 -0.18
20 -0.15
21 -0.14
22 -0.15
23 -0.15
24 0.14
25 -0.15
26 -0.15
27 0.18
28 0.18
29 -0.15
3 -0.18
30 0.18
31 -0.15
32 0.18
33 0.15
34 0.15
35 0.15
36 0.37
37 0.15
38 0.15
39 0.15
4 -0.53
40 0.15
44 0.15
45 0.45
46 0.15
47 0.15
48 0.15
5 -0.57
6 -0.55
7 -0.18
8 -0.18

>  <PUBCHEM_EFFECTIVE_ROTOR_COUNT>  (1) 
5

>  <PUBCHEM_PHARMACOPHORE_FEATURES>  (1) 
7
1 4 donor
1 5 acceptor
1 6 donor
6 18 21 22 23 25 26 rings
6 27 28 29 30 31 32 rings
6 9 10 11 12 13 14 rings
6 9 10 15 16 19 20 rings

>  <PUBCHEM_HEAVY_ATOM_COUNT>  (1) 
32

>  <PUBCHEM_ATOM_DEF_STEREO_COUNT>  (1) 
0

>  <PUBCHEM_ATOM_UDEF_STEREO_COUNT>  (1) 
0

>  <PUBCHEM_BOND_DEF_STEREO_COUNT>  (1) 
0

>  <PUBCHEM_BOND_UDEF_STEREO_COUNT>  (1) 
0

>  <PUBCHEM_ISOTOPIC_ATOM_COUNT>  (1) 
0

>  <PUBCHEM_COMPONENT_COUNT>  (1) 
1

>  <PUBCHEM_CACTVS_TAUTO_COUNT>  (1) 
7

>  <PUBCHEM_CONFORMER_ID>  (1) 
000059FA00000003

>  <PUBCHEM_MMFF94_ENERGY>  (1) 
104.2658

>  <PUBCHEM_FEATURE_SELFOVERLAP>  (1) 
35.549

>  <PUBCHEM_SHAPE_FINGERPRINT>  (1) 
10050765 1 18050285865334795021
10165383 225 18408603651772333180
10190206 1 18198608003915656583
10411042 1 17401764121311069315
10835480 77 18059576958075959384
10904742 90 18408882932015311806
10940486 97 18190183584224861764
11007060 377 18342180011186465563
11135926 11 18336263458515714325
11136131 41 18187921716844869683
11443803 9 18260818323921332954
12013929 29 17621313542984934069
12107183 9 18263067869990394418
12293681 160 17989488502445427648
12758862 11 18201721804076943112
12838862 33 18337655469589313757
12925494 130 18054499481608269624
13150687 139 18343305838131839150
13248334 5 18049720720147359083
13540713 5 18264185007310163994
13673619 4 12103556481826322153
13782708 43 12607104219882156789
14068700 686 18191584156017595365
14190465 44 18194116537475957324
14294032 229 17968088729372753268
14394314 77 18412829054364644673
1454969 45 18408881828768054957
14790565 3 18266743480920396874
14856354 85 16371012935520393432
15183329 4 16487257655827208980
15351339 4 18200873955451130536
15849732 13 18187366553439620356
15890870 6 18410290307120930837
15927050 60 18412259549436723614
16126227 98 18410293657052672208
16992610 120 18334588953782519596
18365409 1 18338797931143167143
18608769 82 18340770455040086067
18681886 176 18335136527141695113
19053607 189 18265881472474056473
19611394 137 17897178016620950753
20505436 4 18131062702745324159
21033648 29 18340758334178400504
21133410 127 17898290489738606364
21424621 283 18410573989831572894
21756936 100 18341043111863284727
23559900 14 18342744061896212860
23576562 1 17971205952386085244
25019877 29 18272092711999908559
3103668 31 18193553600676833831
3383291 50 18338518641987655571
3411729 13 18187926123232927499
3627633 1 17761491791278267683
3918712 181 18411693266577890960
4058900 60 18336836273074902827
4073 2 18261116219681544627
4258327 124 18043546095153278732
4403749 210 18335698394973646393
45377200 153 16486393505040488271
563151 97 18268996384689059137
5758199 1 18412547600513811809
59755656 215 18412547582811573301
59755656 520 18409442613546275846
6327066 14 18409164415592363735
6371380 46 18342452677639218544
6669772 16 18271814488293004174
6703917 75 18410866464161974148
9658208 31 18341888645322149730

>  <PUBCHEM_SHAPE_MULTIPOLES>  (1) 
637.47
21.37
4.79
0.92
4.03
6.16
0.21
-21.22
3.97
-2.4
-0.76
1.28
-0.09
1.23

>  <PUBCHEM_SHAPE_SELFOVERLAP>  (1) 
1386.511

>  <PUBCHEM_SHAPE_VOLUME>  (1) 
350.5

>  <PUBCHEM_COORDINATE_TYPE>  (1) 
2
5
10

$$$$
