23039
     RDKit          3D

 26 30  0  0  1  0  0  0  0  0999 V2000
   -4.7990    0.9793    0.5401 O   0  0  0  0  0  0  0  0  0  0  0  0
   -2.3635   -2.6799   -0.9477 O   0  0  0  0  0  0  0  0  0  0  0  0
   -3.8903   -3.0761    0.7467 O   0  0  0  0  0  0  0  0  0  0  0  0
    0.0213    1.8701   -0.2344 N   0  0  0  0  0  0  0  0  0  0  0  0
    2.1233   -1.1557    0.3443 N   0  0  0  0  0  0  0  0  0  0  0  0
   -2.4040    1.4401    0.1963 C   0  0  0  0  0  0  0  0  0  0  0  0
   -2.1555   -0.0045   -0.2912 C   0  0  0  0  0  0  0  0  0  0  0  0
   -1.3535    2.3632   -0.4240 C   0  0  0  0  0  0  0  0  0  0  0  0
   -0.8124   -0.4686    0.2903 C   0  0  0  0  0  0  0  0  0  0  0  0
   -3.8575    1.8458   -0.1243 C   0  0  0  0  0  0  0  0  0  0  0  0
    0.3161    0.5052    0.0410 C   0  0  0  0  0  0  0  0  0  0  0  0
   -3.3244   -0.8715    0.0857 C   0  0  0  0  0  0  0  0  0  0  0  0
    1.6001    0.0890    0.0915 C   0  0  0  0  0  0  0  0  0  0  0  0
   -4.1952    3.2654    0.3212 C   0  0  0  0  0  0  0  0  0  0  0  0
   -4.4960   -0.3558    0.4778 C   0  0  0  0  0  0  0  0  0  0  0  0
    1.0884    2.7640   -0.4533 C   0  0  0  0  0  0  0  0  0  0  0  0
    2.6774    1.0440   -0.1317 C   0  0  0  0  0  0  0  0  0  0  0  0
    2.3907    2.4286   -0.4137 C   0  0  0  0  0  0  0  0  0  0  0  0
   -3.2462   -2.3322    0.0230 C   0  0  0  0  0  0  0  0  0  0  0  0
    3.8457    0.4118   -0.0257 C   0  0  0  0  0  0  0  0  0  0  0  0
    3.4088   -0.9716    0.2761 C   0  0  0  0  0  0  0  0  0  0  0  0
    5.2262    0.7578   -0.1286 C   0  0  0  0  0  0  0  0  0  0  0  0
    4.4784   -1.9765    0.4653 C   0  0  0  0  0  0  0  0  0  0  0  0
    6.1415   -0.2072    0.0551 C   0  0  0  0  0  0  0  0  0  0  0  0
    5.7565   -1.5775    0.3529 C   0  0  0  0  0  0  0  0  0  0  0  0
   -2.1768   -4.0870   -1.1324 C   0  0  0  0  0  0  0  0  0  0  0  0
  1 10  1  0
  1 15  1  0
  2 19  1  0
  2 26  1  0
  3 19  2  0
  4  8  1  0
  4 11  1  0
  4 16  1  0
  5 13  1  0
  5 21  2  0
  6  7  1  0
  6  8  1  0
  6 10  1  0
  7  9  1  0
  7 12  1  0
  9 11  1  0
 10 14  1  0
 11 13  2  0
 12 15  2  0
 12 19  1  0
 13 17  1  0
 16 18  2  0
 17 18  1  0
 17 20  2  0
 20 21  1  0
 20 22  1  0
 21 23  1  0
 22 24  2  0
 23 25  2  0
 24 25  1  0
M  END
>  <PUBCHEM_COMPOUND_CID>  (1) 
23039

>  <PUBCHEM_CONFORMER_RMSD>  (1) 
0.6

>  <PUBCHEM_CONFORMER_DIVERSEORDER>  (1) 
1
22
18
2
6
7
14
13
9
4
3
5
16
12
10
15
8
20
11
19
17
23
21

>  <PUBCHEM_MMFF94_PARTIAL_CHARGES>  (1) 
30
1 -0.36
10 0.28
11 -0.04
12 -0.12
13 0.17
15 -0.07
16 -0.05
18 -0.15
19 0.71
2 -0.43
20 0.01
21 0.42
22 -0.15
23 -0.14
24 -0.15
25 -0.15
26 0.28
3 -0.57
37 0.15
38 0.15
39 0.15
4 -0.57
40 0.15
41 0.15
42 0.15
43 0.15
5 -0.62
7 0.14
8 0.37
9 0.14

>  <PUBCHEM_EFFECTIVE_ROTOR_COUNT>  (1) 
2.8

>  <PUBCHEM_PHARMACOPHORE_FEATURES>  (1) 
9
1 1 acceptor
1 3 acceptor
1 4 cation
1 5 acceptor
5 5 13 17 20 21 rings
6 1 6 7 10 12 15 rings
6 20 21 22 23 24 25 rings
6 4 11 13 16 17 18 rings
6 4 6 7 8 9 11 rings

>  <PUBCHEM_HEAVY_ATOM_COUNT>  (1) 
26

>  <PUBCHEM_ATOM_DEF_STEREO_COUNT>  (1) 
1

>  <PUBCHEM_ATOM_UDEF_STEREO_COUNT>  (1) 
2

>  <PUBCHEM_BOND_DEF_STEREO_COUNT>  (1) 
0

>  <PUBCHEM_BOND_UDEF_STEREO_COUNT>  (1) 
0

>  <PUBCHEM_ISOTOPIC_ATOM_COUNT>  (1) 
0

>  <PUBCHEM_COMPONENT_COUNT>  (1) 
1

>  <PUBCHEM_CACTVS_TAUTO_COUNT>  (1) 
1

>  <PUBCHEM_CONFORMER_ID>  (1) 
000059FF00000001

>  <PUBCHEM_MMFF94_ENERGY>  (1) 
79.0869

>  <PUBCHEM_FEATURE_SELFOVERLAP>  (1) 
45.941

>  <PUBCHEM_SHAPE_FINGERPRINT>  (1) 
10369192 42 17054679512460639280
10411042 1 18122344842531793771
10616163 171 18411703226738412263
10622 236 17124783316985579767
10940486 97 18409451409750107132
11014199 57 17907575079366176062
11405975 8 18412545426769944632
11524674 6 17489582325347537078
11552529 35 18059008500956118867
11578080 2 17702372034573156097
12107183 9 18048313345310070720
12236239 1 17967819297700753896
12553582 1 18261940873896122010
13140716 1 18411702105773021089
13167823 11 18408321107749698914
13583140 156 17702936084154385512
14341114 176 18410579474409968304
14420673 8 18338521824638107918
14790565 3 17977950081379774944
14844126 61 18411698824692404787
15042514 8 18409169917994122049
15196674 1 18335984190566462032
15250474 111 18338512057940291550
15352361 1 18408322207155578218
16110190 28 18410296891199787416
17492 89 18191870234887893875
17844677 252 18410863182870029608
1813 80 17167865249067368932
19141452 34 18410293566911190916
20511986 3 18113888339155470040
21033648 29 17845354605539749888
21065198 57 18412260657701205672
21133410 171 17331339654159336458
21133410 221 14950343461692594691
21133410 38 14592951304804668778
21267235 1 18335430062132767585
21703447 108 17840569715497702337
22122407 14 15985097518303679352
221490 88 18262242251888204952
22950370 63 18335140882448782532
23402539 116 18334853909855949722
23522609 53 17970658236903656852
23559900 14 18411129272904984784
23598288 3 17987234606819622485
23622692 118 18199178675982573919
24893989 43 15680014184188886431
335352 9 18408885105817650005
338550 245 18334019393362836766
34934 24 18189332381435084920
350125 39 18410295805085037369
4017518 198 17916863495994471502
4073 2 18114187454011265282
4214541 1 18409730638268932889
4616759 239 18201987816917726400
463206 1 18335423504081937378
5104073 3 18411415107842823912
532947 4 17909833137611141991
5364581 5 18056740243323888344
5385378 56 17838909131730440665
559249 180 18335699386520260931
59755656 215 18197501732083007846
7970288 3 17905608057707406563
9709674 26 18116718602054124258

>  <PUBCHEM_SHAPE_MULTIPOLES>  (1) 
507.5
12.27
4.01
0.77
10.14
1.89
0.06
2.42
-1.74
-4.55
0.83
-0.23
0.27
-0.96

>  <PUBCHEM_SHAPE_SELFOVERLAP>  (1) 
1133.372

>  <PUBCHEM_SHAPE_VOLUME>  (1) 
264.2

>  <PUBCHEM_COORDINATE_TYPE>  (1) 
2
5
10

$$$$
