23047
     RDKit          3D

 17 17  0  0  1  0  0  0  0  0999 V2000
   -4.1451    0.4765   -0.3633 S   0  0  0  0  0  0  0  0  0  0  0  0
    2.7884    0.2069    0.5118 P   0  0  0  0  0  0  0  0  0  0  0  0
    1.6161   -0.8739    0.2521 O   0  0  0  0  0  0  0  0  0  0  0  0
    2.8491    1.0629   -0.8631 O   0  0  0  0  0  0  0  0  0  0  0  0
    4.1404   -0.6883    0.4778 O   0  0  0  0  0  0  0  0  0  0  0  0
   -4.2300    1.9286   -0.7787 O   0  0  0  0  0  0  0  0  0  0  0  0
    2.6372    1.0190    1.7673 O   0  0  0  0  0  0  0  0  0  0  0  0
   -1.9834   -1.2870   -0.2563 C   0  0  0  0  0  0  0  0  0  0  0  0
   -2.4098    0.0390   -0.1811 C   0  0  0  0  0  0  0  0  0  0  0  0
    0.2887   -0.5730    0.1083 C   0  0  0  0  0  0  0  0  0  0  0  0
   -0.6305   -1.5938   -0.1112 C   0  0  0  0  0  0  0  0  0  0  0  0
   -1.4832    1.0581    0.0391 C   0  0  0  0  0  0  0  0  0  0  0  0
   -0.1303    0.7512    0.1842 C   0  0  0  0  0  0  0  0  0  0  0  0
   -2.9427   -2.4090   -0.4904 C   0  0  0  0  0  0  0  0  0  0  0  0
   -4.6755    0.3795    1.3691 C   0  0  0  0  0  0  0  0  0  0  0  0
    3.8897    2.0114   -1.0216 C   0  0  0  0  0  0  0  0  0  0  0  0
    4.4207   -1.5081   -0.6440 C   0  0  0  0  0  0  0  0  0  0  0  0
  1  6  2  0
  1  9  1  0
  1 15  1  0
  2  3  1  0
  2  4  1  0
  2  5  1  0
  2  7  2  0
  3 10  1  0
  4 16  1  0
  5 17  1  0
  8  9  2  0
  8 11  1  0
  8 14  1  0
  9 12  1  0
 10 11  2  0
 10 13  1  0
 12 13  2  0
M  END
>  <PUBCHEM_COMPOUND_CID>  (1) 
23047

>  <PUBCHEM_CONFORMER_RMSD>  (1) 
0.6

>  <PUBCHEM_CONFORMER_DIVERSEORDER>  (1) 
2
179
106
86
141
9
206
35
143
27
202
112
79
150
159
59
194
93
50
167
80
152
101
124
12
210
25
11
155
94
169
158
207
42
61
99
92
136
26
183
84
130
68
189
149
120
56
147
197
20
134
30
116
7
95
41
98
65
107
54
76
213
15
91
182
43
115
82
135
89
211
133
90
186
55
173
108
73
203
105
117
57
181
188
166
113
60
40
85
171
144
196
10
198
177
31
39
104
87
175
1
161
146
201
145
23
170
97
46
8
212
102
139
154
157
33
22
176
208
192
28
148
163
38
172
118
75
156
52
83
191
69
47
51
18
129
160
48
185
64
13
162
72
128
29
123
184
70
4
74
204
5
34
114
137
200
121
122
142
151
49
21
17
88
19
53
32
168
199
178
3
6
58
180
16
190
138
164
209
214
110
125
119
195
96
165
44
24
14
153
140
109
205
131
62
132
78
187
100
127
37
111
66
193
126
71
36
63
81
45
103
67
174
77

>  <PUBCHEM_MMFF94_PARTIAL_CHARGES>  (1) 
20
1 0.24
10 0.08
11 -0.15
12 -0.15
13 -0.15
14 0.14
15 0.19
16 0.28
17 0.28
18 0.15
19 0.15
2 1.51
20 0.15
3 -0.35
4 -0.55
5 -0.55
6 -0.5
7 -0.7
8 -0.14
9 0.06

>  <PUBCHEM_EFFECTIVE_ROTOR_COUNT>  (1) 
5

>  <PUBCHEM_PHARMACOPHORE_FEATURES>  (1) 
3
1 6 acceptor
1 7 acceptor
6 8 9 10 11 12 13 rings

>  <PUBCHEM_HEAVY_ATOM_COUNT>  (1) 
17

>  <PUBCHEM_ATOM_DEF_STEREO_COUNT>  (1) 
0

>  <PUBCHEM_ATOM_UDEF_STEREO_COUNT>  (1) 
1

>  <PUBCHEM_BOND_DEF_STEREO_COUNT>  (1) 
0

>  <PUBCHEM_BOND_UDEF_STEREO_COUNT>  (1) 
0

>  <PUBCHEM_ISOTOPIC_ATOM_COUNT>  (1) 
0

>  <PUBCHEM_COMPONENT_COUNT>  (1) 
1

>  <PUBCHEM_CACTVS_TAUTO_COUNT>  (1) 
1

>  <PUBCHEM_CONFORMER_ID>  (1) 
00005A0700000002

>  <PUBCHEM_MMFF94_ENERGY>  (1) 
38.7775

>  <PUBCHEM_FEATURE_SELFOVERLAP>  (1) 
15.223

>  <PUBCHEM_SHAPE_FINGERPRINT>  (1) 
11132069 177 18411127048227346225
11405975 8 18413387644245174474
12932764 1 16370993122957562834
13296908 3 17774999162738546851
13675066 3 18335420175107359891
13760787 5 18408886248104480901
14115302 16 18342459223058185144
15196674 1 18410011069584239534
15239154 128 18333450962746341549
18186145 218 17168136875530913022
19422 9 18337390547189318822
200 152 16056874719554372051
20279233 1 16415761933621216286
20281475 54 18341611580939280527
20645477 56 18410567409614861600
20645477 70 16989125361769402302
212847 35 18272374161154170968
21503847 285 17749390356207367300
23402539 116 16701734952377056817
23402655 69 18334579049150104116
23557571 272 17987239013466675454
23559900 14 18272649043962535558
474 4 17096090328370644332
5104073 3 18340201985663228594
58051976 100 18408042901079726374
633830 44 17748824128840295754
90127 26 17894918416608961641

>  <PUBCHEM_SHAPE_MULTIPOLES>  (1) 
328.2
9.67
2.1
1.07
1.45
0.39
-0.27
-1.74
0.37
-0.14
0.58
0.19
-0.35
-0.25

>  <PUBCHEM_SHAPE_SELFOVERLAP>  (1) 
633.789

>  <PUBCHEM_SHAPE_VOLUME>  (1) 
201.5

>  <PUBCHEM_COORDINATE_TYPE>  (1) 
2
5
10

$$$$
