23043
     RDKit          3D

 15 15  0  0  0  0  0  0  0  0999 V2000
   -0.2537   -1.9442   -0.3104 O   0  0  0  0  0  0  0  0  0  0  0  0
    2.6564   -0.7688    0.8700 O   0  0  0  0  0  0  0  0  0  0  0  0
    2.6453   -0.5985   -1.4256 O   0  0  0  0  0  0  0  0  0  0  0  0
   -2.8463   -0.8367    0.0263 C   0  0  0  0  0  0  0  0  0  0  0  0
   -1.6063   -0.0047    0.0185 C   0  0  0  0  0  0  0  0  0  0  0  0
   -0.3523   -0.5924   -0.1488 C   0  0  0  0  0  0  0  0  0  0  0  0
    0.7949    0.2011   -0.1523 C   0  0  0  0  0  0  0  0  0  0  0  0
   -3.8003   -0.4794   -1.1282 C   0  0  0  0  0  0  0  0  0  0  0  0
   -3.5965   -0.7598    1.3688 C   0  0  0  0  0  0  0  0  0  0  0  0
   -1.7132    1.3764    0.1821 C   0  0  0  0  0  0  0  0  0  0  0  0
    0.6880    1.5823    0.0115 C   0  0  0  0  0  0  0  0  0  0  0  0
   -0.5660    2.1698    0.1787 C   0  0  0  0  0  0  0  0  0  0  0  0
    1.8984    2.4585    0.0117 C   0  0  0  0  0  0  0  0  0  0  0  0
    2.1045   -0.4173   -0.3296 C   0  0  0  0  0  0  0  0  0  0  0  0
    3.9472   -1.3862    0.8276 C   0  0  0  0  0  0  0  0  0  0  0  0
  1  6  1  0
  2 14  1  0
  2 15  1  0
  3 14  2  0
  4  5  1  0
  4  8  1  0
  4  9  1  0
  5  6  2  0
  5 10  1  0
  6  7  1  0
  7 11  2  0
  7 14  1  0
 10 12  2  0
 11 12  1  0
 11 13  1  0
M  END
>  <PUBCHEM_COMPOUND_CID>  (1) 
23043

>  <PUBCHEM_CONFORMER_RMSD>  (1) 
0.6

>  <PUBCHEM_CONFORMER_DIVERSEORDER>  (1) 
2
3
1

>  <PUBCHEM_MMFF94_PARTIAL_CHARGES>  (1) 
16
1 -0.53
10 -0.15
11 -0.14
12 -0.15
13 0.14
14 0.63
15 0.28
2 -0.43
23 0.15
24 0.15
28 0.45
3 -0.57
4 0.14
5 -0.14
6 0.08
7 0.09

>  <PUBCHEM_EFFECTIVE_ROTOR_COUNT>  (1) 
3

>  <PUBCHEM_PHARMACOPHORE_FEATURES>  (1) 
4
1 1 donor
1 3 acceptor
3 4 8 9 hydrophobe
6 5 6 7 10 11 12 rings

>  <PUBCHEM_HEAVY_ATOM_COUNT>  (1) 
15

>  <PUBCHEM_ATOM_DEF_STEREO_COUNT>  (1) 
0

>  <PUBCHEM_ATOM_UDEF_STEREO_COUNT>  (1) 
0

>  <PUBCHEM_BOND_DEF_STEREO_COUNT>  (1) 
0

>  <PUBCHEM_BOND_UDEF_STEREO_COUNT>  (1) 
0

>  <PUBCHEM_ISOTOPIC_ATOM_COUNT>  (1) 
0

>  <PUBCHEM_COMPONENT_COUNT>  (1) 
1

>  <PUBCHEM_CACTVS_TAUTO_COUNT>  (1) 
13

>  <PUBCHEM_CONFORMER_ID>  (1) 
00005A0300000002

>  <PUBCHEM_MMFF94_ENERGY>  (1) 
48.602

>  <PUBCHEM_FEATURE_SELFOVERLAP>  (1) 
20.297

>  <PUBCHEM_SHAPE_FINGERPRINT>  (1) 
10130415 120 18408605868175651659
10980938 120 18197220462642039893
11132069 177 18060420179560264019
11206711 2 18336831892387725853
11543360 7 15936704742916042935
11578080 2 17459727290978011524
12423570 1 13049093647598916648
124424 183 18186513289973123471
12524768 44 18270407229325263005
12553582 1 18340498802046913415
12932764 1 18114467876372873663
13140716 1 18268432502310801699
13172582 1 18343304772963962499
13296908 3 18187364389313880673
13380535 21 17978243973084864983
13380535 76 18053660566613937628
13705890 14 16660651773134839786
14181834 199 18267295611350351844
14289901 80 15410606012774402023
15219456 202 18115304609211594849
16945 1 18413113848606496975
18186145 218 18334580182942140943
19010151 120 18131340930394221639
20645477 70 18339919424370891455
20871998 184 18200022924750182430
20871998 22 18271535199606860814
21029758 27 18334582330278173756
21501502 16 18054225698421418319
21501925 9 18341040887117529168
2334 1 17980198909159909311
23388829 49 18342447132477366055
23402539 116 18200014167174904350
23463225 33 18410856581204498265
23559900 14 18334005082737307360
2748010 2 18410852170442299717
53812654 25 17846206825808896381
63268167 104 18198904906324670585
7364860 26 18129102389034218488
77492 1 17488753401423393213
81228 2 18124040026666732289
81539 233 18044935924952937860

>  <PUBCHEM_SHAPE_MULTIPOLES>  (1) 
291.09
5.98
2.18
1.03
0.65
1.23
0.01
-3.09
-0.63
-1.06
-0.18
0.25
-0.3
-0.18

>  <PUBCHEM_SHAPE_SELFOVERLAP>  (1) 
601.852

>  <PUBCHEM_SHAPE_VOLUME>  (1) 
168.8

>  <PUBCHEM_COORDINATE_TYPE>  (1) 
2
5
10

$$$$
