23044
     RDKit          3D

 23 24  0  0  0  0  0  0  0  0999 V2000
    4.0206    2.1507    0.5096 Cl  0  0  0  0  0  0  0  0  0  0  0  0
    6.3021   -0.0330   -0.1979 Cl  0  0  0  0  0  0  0  0  0  0  0  0
   -1.9976    1.5899   -0.7685 O   0  0  0  0  0  0  0  0  0  0  0  0
    0.2822   -2.7993    0.4241 O   0  0  0  0  0  0  0  0  0  0  0  0
   -1.4663    4.7449    0.8524 O   0  0  0  0  0  0  0  0  0  0  0  0
   -0.1050    3.5324   -0.5131 O   0  0  0  0  0  0  0  0  0  0  0  0
   -0.3863   -0.6279   -0.1625 N   0  0  0  0  0  0  0  0  0  0  0  0
   -1.7997   -0.7189   -0.1462 C   0  0  0  0  0  0  0  0  0  0  0  0
   -2.5675    0.3931   -0.4506 C   0  0  0  0  0  0  0  0  0  0  0  0
   -3.7744   -2.0380    0.1949 C   0  0  0  0  0  0  0  0  0  0  0  0
   -2.3835   -1.9330    0.1763 C   0  0  0  0  0  0  0  0  0  0  0  0
   -3.9583    0.2878   -0.4321 C   0  0  0  0  0  0  0  0  0  0  0  0
   -4.5617   -0.9277   -0.1093 C   0  0  0  0  0  0  0  0  0  0  0  0
    1.9510   -1.2249    0.0398 C   0  0  0  0  0  0  0  0  0  0  0  0
    0.5558   -1.6291    0.1116 C   0  0  0  0  0  0  0  0  0  0  0  0
   -4.4196   -3.3373    0.5403 C   0  0  0  0  0  0  0  0  0  0  0  0
    2.3058    0.1031    0.2772 C   0  0  0  0  0  0  0  0  0  0  0  0
    2.9344   -2.1653   -0.2673 C   0  0  0  0  0  0  0  0  0  0  0  0
   -2.3117    2.6993    0.0703 C   0  0  0  0  0  0  0  0  0  0  0  0
    3.6439    0.4906    0.2073 C   0  0  0  0  0  0  0  0  0  0  0  0
    4.2724   -1.7779   -0.3372 C   0  0  0  0  0  0  0  0  0  0  0  0
    4.6273   -0.4500   -0.0997 C   0  0  0  0  0  0  0  0  0  0  0  0
   -1.1639    3.6706    0.0806 C   0  0  0  0  0  0  0  0  0  0  0  0
  1 20  1  0
  2 22  1  0
  3  9  1  0
  3 19  1  0
  4 15  2  0
  5 23  1  0
  6 23  2  0
  7  8  1  0
  7 15  1  0
  8  9  2  0
  8 11  1  0
  9 12  1  0
 10 11  2  0
 10 13  1  0
 10 16  1  0
 12 13  2  0
 14 15  1  0
 14 17  2  0
 14 18  1  0
 17 20  1  0
 18 21  2  0
 19 23  1  0
 20 22  2  0
 21 22  1  0
M  END
>  <PUBCHEM_COMPOUND_CID>  (1) 
23044

>  <PUBCHEM_CONFORMER_RMSD>  (1) 
0.8

>  <PUBCHEM_CONFORMER_DIVERSEORDER>  (1) 
1
68
63
77
75
3
80
58
25
32
14
86
64
43
39
72
33
53
34
69
85
56
55
26
59
28
76
62
44
52
46
73
22
70
18
30
82
24
66
23
13
20
51
47
41
42
49
50
27
74
21
40
45
60
19
57
29
10
71
79
65
37
78
38
31
8
12
83
61
48
6
81
4
11
17
7
54
35
84
15
67
2
5
36
16
9

>  <PUBCHEM_MMFF94_PARTIAL_CHARGES>  (1) 
31
1 -0.18
10 -0.14
11 -0.15
12 -0.15
13 -0.15
14 0.09
15 0.54
16 0.14
17 -0.15
18 -0.15
19 0.34
2 -0.18
20 0.18
21 -0.15
22 0.18
23 0.66
24 0.15
25 0.37
26 0.15
27 0.15
3 -0.36
31 0.15
32 0.15
35 0.15
36 0.5
4 -0.57
5 -0.65
6 -0.57
7 -0.55
8 0.12
9 0.08

>  <PUBCHEM_EFFECTIVE_ROTOR_COUNT>  (1) 
6

>  <PUBCHEM_PHARMACOPHORE_FEATURES>  (1) 
8
1 3 acceptor
1 4 acceptor
1 5 acceptor
1 6 acceptor
1 7 donor
3 5 6 23 anion
6 14 17 18 20 21 22 rings
6 8 9 10 11 12 13 rings

>  <PUBCHEM_HEAVY_ATOM_COUNT>  (1) 
23

>  <PUBCHEM_ATOM_DEF_STEREO_COUNT>  (1) 
0

>  <PUBCHEM_ATOM_UDEF_STEREO_COUNT>  (1) 
0

>  <PUBCHEM_BOND_DEF_STEREO_COUNT>  (1) 
0

>  <PUBCHEM_BOND_UDEF_STEREO_COUNT>  (1) 
0

>  <PUBCHEM_ISOTOPIC_ATOM_COUNT>  (1) 
0

>  <PUBCHEM_COMPONENT_COUNT>  (1) 
1

>  <PUBCHEM_CACTVS_TAUTO_COUNT>  (1) 
2

>  <PUBCHEM_CONFORMER_ID>  (1) 
00005A0400000001

>  <PUBCHEM_MMFF94_ENERGY>  (1) 
70.8164

>  <PUBCHEM_FEATURE_SELFOVERLAP>  (1) 
40.659

>  <PUBCHEM_SHAPE_FINGERPRINT>  (1) 
10006869 2 18048030780197695619
10498660 4 18335695022917864661
10670039 82 18335154072683947404
10937287 8 17618221702605523769
11045515 52 18261109707920273453
12107183 9 17542215762676119842
12166972 35 17676769885166873244
12293681 160 18120350096679066421
12403259 226 18413105057098469018
12788726 201 18261669286171309107
13140716 1 18409731755308505091
13402501 40 18339637957894535392
138480 1 15384155731644392821
14363568 33 17832720332036449985
14466204 15 18122052119030129290
14787075 74 17970066853606813239
15196674 1 18337389443350919318
15961568 22 18336265760264770084
19611394 137 17610347412950033138
19930381 70 18194398029173289497
20510252 161 18409728435214408747
21033650 10 18120404015550963326
21304253 13 18341338872834547857
221357 26 18272087167534576142
22182937 141 18054229830090461729
22440779 20 16892087876982474403
2297311 6 18410302427349588542
23402539 116 18410287051456573486
23557571 272 18412266107792677759
23558518 356 18190189992226097290
23559900 14 18410003351522668806
23845131 108 17544204779485222393
350125 39 18411139130408186664
392239 28 18408045130009023282
4214541 1 18409448046817113550
469060 322 18337966648248198760
5104073 3 18408884040112080994
5309563 4 18340205322783965575
9709674 26 18270118981180371726

>  <PUBCHEM_SHAPE_MULTIPOLES>  (1) 
448.61
11.1
4.79
0.73
8.74
5.8
0.01
-4.85
-0.17
-3.76
0.83
-0.07
0.11
0.8

>  <PUBCHEM_SHAPE_SELFOVERLAP>  (1) 
939.965

>  <PUBCHEM_SHAPE_VOLUME>  (1) 
255

>  <PUBCHEM_COORDINATE_TYPE>  (1) 
2
5
10

$$$$
