23057
     RDKit          3D

  8  8  0  0  1  0  0  0  0  0999 V2000
   -0.1666    1.0086   -0.2728 O   0  0  0  0  0  0  0  0  0  0  0  0
   -1.8851   -0.5828   -0.2114 O   0  0  0  0  0  0  0  0  0  0  0  0
    1.8051   -1.0155    0.2479 C   0  0  0  0  0  0  0  0  0  0  0  0
    0.3752   -1.3505   -0.1584 C   0  0  0  0  0  0  0  0  0  0  0  0
    2.1797    0.3858   -0.2222 C   0  0  0  0  0  0  0  0  0  0  0  0
   -0.5875   -0.2444    0.2683 C   0  0  0  0  0  0  0  0  0  0  0  0
    1.1225    1.3967    0.2020 C   0  0  0  0  0  0  0  0  0  0  0  0
   -2.8433    0.4021    0.1466 C   0  0  0  0  0  0  0  0  0  0  0  0
  1  6  1  0
  1  7  1  0
  2  6  1  0
  2  8  1  0
  3  4  1  0
  3  5  1  0
  4  6  1  0
  5  7  1  0
M  END
>  <PUBCHEM_COMPOUND_CID>  (1) 
23057

>  <PUBCHEM_CONFORMER_RMSD>  (1) 
0.4

>  <PUBCHEM_CONFORMER_DIVERSEORDER>  (1) 
1
8
6
4
3
2
5
7
9
10

>  <PUBCHEM_MMFF94_PARTIAL_CHARGES>  (1) 
5
1 -0.56
2 -0.56
6 0.56
7 0.28
8 0.28

>  <PUBCHEM_EFFECTIVE_ROTOR_COUNT>  (1) 
2.2

>  <PUBCHEM_PHARMACOPHORE_FEATURES>  (1) 
3
1 1 acceptor
1 2 acceptor
6 1 3 4 5 6 7 rings

>  <PUBCHEM_HEAVY_ATOM_COUNT>  (1) 
8

>  <PUBCHEM_ATOM_DEF_STEREO_COUNT>  (1) 
0

>  <PUBCHEM_ATOM_UDEF_STEREO_COUNT>  (1) 
1

>  <PUBCHEM_BOND_DEF_STEREO_COUNT>  (1) 
0

>  <PUBCHEM_BOND_UDEF_STEREO_COUNT>  (1) 
0

>  <PUBCHEM_ISOTOPIC_ATOM_COUNT>  (1) 
0

>  <PUBCHEM_COMPONENT_COUNT>  (1) 
1

>  <PUBCHEM_CACTVS_TAUTO_COUNT>  (1) 
1

>  <PUBCHEM_CONFORMER_ID>  (1) 
00005A1100000001

>  <PUBCHEM_MMFF94_ENERGY>  (1) 
12.0987

>  <PUBCHEM_FEATURE_SELFOVERLAP>  (1) 
15.265

>  <PUBCHEM_SHAPE_FINGERPRINT>  (1) 
14390081 3 18271524286073966593
18185500 45 18413668002350831882
20096714 4 18339360897811648562
21040471 1 18194119844251933480
23552333 60 18339081493056582824
23552423 10 18333733537018233078
29004967 10 18260553315843687051

>  <PUBCHEM_SHAPE_MULTIPOLES>  (1) 
152.9
3.33
1.42
0.64
1.97
0.04
-0.02
0.23
-0.04
-0.5
-0.01
-0.04
0
-0.07

>  <PUBCHEM_SHAPE_SELFOVERLAP>  (1) 
291.12

>  <PUBCHEM_SHAPE_VOLUME>  (1) 
93.6

>  <PUBCHEM_COORDINATE_TYPE>  (1) 
2
5
10

$$$$
