23051
     RDKit          3D

 20 21  0  0  0  0  0  0  0  0999 V2000
    5.8786   -0.0944   -0.0055 Cl  0  0  0  0  0  0  0  0  0  0  0  0
    0.0733    2.3341    0.0058 S   0  0  0  0  0  0  0  0  0  0  0  0
   -4.3467   -0.0296    0.0038 N   0  0  0  0  0  0  0  0  0  0  0  0
   -0.4568   -2.6501   -0.0061 N   0  0  0  0  0  0  0  0  0  0  0  0
   -2.4197   -1.3664   -0.0020 N   0  0  0  0  0  0  0  0  0  0  0  0
   -0.2636   -0.3133   -0.0012 N   0  0  0  0  0  0  0  0  0  0  0  0
   -2.2536    1.0274    0.0040 N   0  0  0  0  0  0  0  0  0  0  0  0
   -5.0366    1.2223    0.0078 C   0  0  0  0  0  0  0  0  0  0  0  0
    0.9626   -2.8189   -0.0075 C   0  0  0  0  0  0  0  0  0  0  0  0
   -2.9382   -0.1278    0.0017 C   0  0  0  0  0  0  0  0  0  0  0  0
   -1.0770   -1.3817   -0.0031 C   0  0  0  0  0  0  0  0  0  0  0  0
   -0.9250    0.8522    0.0024 C   0  0  0  0  0  0  0  0  0  0  0  0
   -6.5356    0.9927   -0.0131 C   0  0  0  0  0  0  0  0  0  0  0  0
    1.3131   -4.2944    0.0116 C   0  0  0  0  0  0  0  0  0  0  0  0
    1.7175    1.6464    0.0027 C   0  0  0  0  0  0  0  0  0  0  0  0
    2.3599    1.3807   -1.2065 C   0  0  0  0  0  0  0  0  0  0  0  0
    2.3617    1.3737    1.2095 C   0  0  0  0  0  0  0  0  0  0  0  0
    3.6466    0.8422   -1.2090 C   0  0  0  0  0  0  0  0  0  0  0  0
    3.6485    0.8352    1.2070 C   0  0  0  0  0  0  0  0  0  0  0  0
    4.2910    0.5695   -0.0023 C   0  0  0  0  0  0  0  0  0  0  0  0
  1 20  1  0
  2 12  1  0
  2 15  1  0
  3  8  1  0
  3 10  1  0
  4  9  1  0
  4 11  1  0
  5 10  2  0
  5 11  1  0
  6 11  2  0
  6 12  1  0
  7 10  1  0
  7 12  2  0
  8 13  1  0
  9 14  1  0
 15 16  2  0
 15 17  1  0
 16 18  1  0
 17 19  2  0
 18 20  2  0
 19 20  1  0
M  END
>  <PUBCHEM_COMPOUND_CID>  (1) 
23051

>  <PUBCHEM_CONFORMER_RMSD>  (1) 
0.8

>  <PUBCHEM_CONFORMER_DIVERSEORDER>  (1) 
1
24
5
39
32
34
40
19
20
10
4
8
6
31
25
26
33
28
11
14
17
2
36
30
22
7
38
3
13
9
15
12
37
21
16
35
23
27
29
18

>  <PUBCHEM_MMFF94_PARTIAL_CHARGES>  (1) 
24
1 -0.18
10 0.72
11 0.72
12 0.72
15 0.1
16 -0.15
17 -0.15
18 -0.15
19 -0.15
2 -0.2
20 0.18
25 0.4
26 0.4
3 -0.87
33 0.15
34 0.15
35 0.15
36 0.15
4 -0.87
5 -0.62
6 -0.62
7 -0.62
8 0.37
9 0.37

>  <PUBCHEM_EFFECTIVE_ROTOR_COUNT>  (1) 
6

>  <PUBCHEM_PHARMACOPHORE_FEATURES>  (1) 
6
1 3 donor
1 4 donor
4 3 5 7 10 cation
4 4 5 6 11 cation
6 15 16 17 18 19 20 rings
6 5 6 7 10 11 12 rings

>  <PUBCHEM_HEAVY_ATOM_COUNT>  (1) 
20

>  <PUBCHEM_ATOM_DEF_STEREO_COUNT>  (1) 
0

>  <PUBCHEM_ATOM_UDEF_STEREO_COUNT>  (1) 
0

>  <PUBCHEM_BOND_DEF_STEREO_COUNT>  (1) 
0

>  <PUBCHEM_BOND_UDEF_STEREO_COUNT>  (1) 
0

>  <PUBCHEM_ISOTOPIC_ATOM_COUNT>  (1) 
0

>  <PUBCHEM_COMPONENT_COUNT>  (1) 
1

>  <PUBCHEM_CACTVS_TAUTO_COUNT>  (1) 
5

>  <PUBCHEM_CONFORMER_ID>  (1) 
00005A0B00000001

>  <PUBCHEM_MMFF94_ENERGY>  (1) 
47.3699

>  <PUBCHEM_FEATURE_SELFOVERLAP>  (1) 
30.489

>  <PUBCHEM_SHAPE_FINGERPRINT>  (1) 
10366900 7 17060071384175527200
11578080 2 17097762466486519807
11646440 116 18059867185847892473
12236239 1 17821447988926588908
12592029 89 18409172108300836291
12788726 201 17542786863955157530
12838862 33 18338217315978271872
13140716 1 18268712895330326089
13544592 145 18201442510347265800
14115302 16 18336552715535198236
14931854 50 18051719675858230910
15099037 51 18410575110649530965
16752209 62 18194398024841424859
17093844 170 18411985758835818278
17859628 97 18408322198544902026
19591789 44 18194404626575534419
20028762 73 17984706885834332135
20681677 155 18189054351665918704
20905425 154 18054514608345058918
22182313 1 17896873254221057445
23184049 29 17546160161724200686
23402539 116 18201433705332155789
23419403 2 17753878425101302767
23559900 14 18271809090173084120
266924 87 18193831544615121877
3071541 37 18409170974498061103
3084891 72 18412830204613168992
335352 9 18410856577041523572
38695281 34 18059857255545919927
42630746 31 18340769252274858071
43471831 8 18410573938107368530
465052 167 17530971297555177977
532947 4 18341055116413285367
5385378 56 18339931403129385155
59755656 215 18338517439328344725
6138700 20 18411421674694876934
633830 44 18129936888263287701
7364860 26 18268991990404544079

>  <PUBCHEM_SHAPE_MULTIPOLES>  (1) 
392.4
11.12
3.42
0.91
9.13
5.17
0
-4.95
-0.03
-1.19
0.01
-0.93
-0.35
0

>  <PUBCHEM_SHAPE_SELFOVERLAP>  (1) 
790.576

>  <PUBCHEM_SHAPE_VOLUME>  (1) 
230.2

>  <PUBCHEM_COORDINATE_TYPE>  (1) 
2
5
10

$$$$
