23059
     RDKit          3D

 17 18  0  0  0  0  0  0  0  0999 V2000
   -0.0597    2.8125   -0.4144 O   0  0  0  0  0  0  0  0  0  0  0  0
    3.4485   -0.6950    0.1533 N   0  0  0  0  0  0  0  0  0  0  0  0
   -2.0090    1.5832   -0.0246 N   0  0  0  0  0  0  0  0  0  0  0  0
    2.0529   -0.2268    0.5397 C   0  0  0  0  0  0  0  0  0  0  0  0
    1.1893   -0.0468   -0.7047 C   0  0  0  0  0  0  0  0  0  0  0  0
   -0.2259    0.3575   -0.4082 C   0  0  0  0  0  0  0  0  0  0  0  0
    4.0953    0.3372   -0.7591 C   0  0  0  0  0  0  0  0  0  0  0  0
    4.2927   -0.8627    1.4084 C   0  0  0  0  0  0  0  0  0  0  0  0
    3.3530   -2.0275   -0.5759 C   0  0  0  0  0  0  0  0  0  0  0  0
   -1.3027   -0.5261   -0.1948 C   0  0  0  0  0  0  0  0  0  0  0  0
   -0.6696    1.6412   -0.3017 C   0  0  0  0  0  0  0  0  0  0  0  0
   -2.4230    0.2721    0.0466 C   0  0  0  0  0  0  0  0  0  0  0  0
   -1.4523   -1.9270   -0.1794 C   0  0  0  0  0  0  0  0  0  0  0  0
   -3.6903   -0.2629    0.3032 C   0  0  0  0  0  0  0  0  0  0  0  0
   -2.7140   -2.4764    0.0764 C   0  0  0  0  0  0  0  0  0  0  0  0
   -3.8144   -1.6551    0.3137 C   0  0  0  0  0  0  0  0  0  0  0  0
   -0.0708    3.7026    0.7217 C   0  0  0  0  0  0  0  0  0  0  0  0
  1 11  1  0
  1 17  1  0
  2  4  1  0
  2  7  1  0
  2  8  1  0
  2  9  1  0
  3 11  1  0
  3 12  1  0
  4  5  1  0
  5  6  1  0
  6 10  1  0
  6 11  2  0
 10 12  2  0
 10 13  1  0
 12 14  1  0
 13 15  2  0
 14 16  2  0
 15 16  1  0
M  CHG  1   2   1
M  END
>  <PUBCHEM_COMPOUND_CID>  (1) 
23059

>  <PUBCHEM_CONFORMER_RMSD>  (1) 
0.6

>  <PUBCHEM_CONFORMER_DIVERSEORDER>  (1) 
1
4
8
3
6
7
5
2

>  <PUBCHEM_MMFF94_PARTIAL_CHARGES>  (1) 
21
1 -0.34
11 -0.09
12 -0.15
13 -0.15
14 -0.15
15 -0.15
16 -0.15
17 0.28
2 -1.01
3 0.03
31 0.27
32 0.15
33 0.15
34 0.15
35 0.15
4 0.5
5 0.18
6 -0.18
7 0.5
8 0.5
9 0.5

>  <PUBCHEM_EFFECTIVE_ROTOR_COUNT>  (1) 
4

>  <PUBCHEM_PHARMACOPHORE_FEATURES>  (1) 
6
1 1 acceptor
1 2 cation
1 3 cation
1 3 donor
5 3 6 10 11 12 rings
6 10 12 13 14 15 16 rings

>  <PUBCHEM_HEAVY_ATOM_COUNT>  (1) 
17

>  <PUBCHEM_ATOM_DEF_STEREO_COUNT>  (1) 
0

>  <PUBCHEM_ATOM_UDEF_STEREO_COUNT>  (1) 
0

>  <PUBCHEM_BOND_DEF_STEREO_COUNT>  (1) 
0

>  <PUBCHEM_BOND_UDEF_STEREO_COUNT>  (1) 
0

>  <PUBCHEM_ISOTOPIC_ATOM_COUNT>  (1) 
0

>  <PUBCHEM_COMPONENT_COUNT>  (1) 
1

>  <PUBCHEM_CACTVS_TAUTO_COUNT>  (1) 
1

>  <PUBCHEM_CONFORMER_ID>  (1) 
00005A1300000001

>  <PUBCHEM_MMFF94_ENERGY>  (1) 
48.5411

>  <PUBCHEM_FEATURE_SELFOVERLAP>  (1) 
30.538

>  <PUBCHEM_SHAPE_FINGERPRINT>  (1) 
10616163 171 18410014291221798278
10618630 7 18335704935813595422
10989021 7 18339362001649970133
11132069 177 18412261714062531443
11680986 33 18121779701859435361
12173636 292 17979348668917950692
12553582 1 18339643450830815294
12788726 201 18334584512147914664
13140716 1 18411133645323681672
14178342 30 18046894997339412138
14420673 8 17616806636016240874
14787075 74 18043815501303093980
14790565 3 18051140198533543481
15042514 8 18336831866649381811
15099037 51 18335696140342682319
15375462 189 18187373176263099866
17780758 139 17901357062787009690
17804303 29 18341055202544168027
18186145 218 11386365915883959182
18222031 100 18201155558928524471
19049666 15 17769935680244556286
20291156 8 18334296491440701454
20510252 161 18269836411002551832
20600515 1 18341339889972404117
20645477 70 17831851722826183383
20671657 53 17022902367337898718
20871998 184 18271806795969062311
21029758 11 18413101767264497917
21029758 27 18261403285998649701
21296965 67 18408604790165175519
21524375 3 17121131370359089908
21650355 55 18410567362343730761
2297311 6 18341624698312611374
232386 152 18336273443454568095
23366157 5 17899415582338555493
23402539 116 18271796896501851183
23419403 2 17773005718641530217
23557571 272 18271536303677265252
23559900 14 18269277859660144334
2748010 2 18340470257731135477
2838139 119 14691458205256285459
3091708 16 9208145450230942497
5902787 121 18337111283978132879
7364860 26 18052259793105765153
81228 2 18266473013433396688
90316 7 18409730621136595025
9709674 26 18198623225036997574

>  <PUBCHEM_SHAPE_MULTIPOLES>  (1) 
334.02
7.37
3.21
0.9
4.73
2.85
0.14
-4.9
1.13
-1.01
0.33
0.76
-0.03
-0.03

>  <PUBCHEM_SHAPE_SELFOVERLAP>  (1) 
697.019

>  <PUBCHEM_SHAPE_VOLUME>  (1) 
194.5

>  <PUBCHEM_COORDINATE_TYPE>  (1) 
2
5
10

$$$$
