23050
     RDKit          3D

 12 11  0  0  0  0  0  0  0  0999 V2000
    2.2228   -0.0118    0.1280 O   0  0  0  0  0  0  0  0  0  0  0  0
    0.8522   -1.6392   -0.7164 O   0  0  0  0  0  0  0  0  0  0  0  0
   -0.5733    2.6616    0.0638 O   0  0  0  0  0  0  0  0  0  0  0  0
    0.0137    0.4984   -0.3664 N   0  0  0  0  0  0  0  0  0  0  0  0
    0.3737    1.8694    0.1169 N   0  0  0  0  0  0  0  0  0  0  0  0
   -2.2376   -0.2430    0.3000 C   0  0  0  0  0  0  0  0  0  0  0  0
   -1.3211    0.2282   -0.8243 C   0  0  0  0  0  0  0  0  0  0  0  0
   -3.6532   -0.5583   -0.1885 C   0  0  0  0  0  0  0  0  0  0  0  0
   -4.5264   -1.0824    0.9408 C   0  0  0  0  0  0  0  0  0  0  0  0
    1.0230   -0.4789   -0.3468 C   0  0  0  0  0  0  0  0  0  0  0  0
    3.2939   -0.9617    0.1743 C   0  0  0  0  0  0  0  0  0  0  0  0
    4.5323   -0.2824    0.7186 C   0  0  0  0  0  0  0  0  0  0  0  0
  1 10  1  0
  1 11  1  0
  2 10  2  0
  3  5  2  0
  4  5  1  0
  4  7  1  0
  4 10  1  0
  6  7  1  0
  6  8  1  0
  8  9  1  0
 11 12  1  0
M  END
>  <PUBCHEM_COMPOUND_CID>  (1) 
23050

>  <PUBCHEM_CONFORMER_RMSD>  (1) 
0.8

>  <PUBCHEM_CONFORMER_DIVERSEORDER>  (1) 
1
64
38
85
45
75
8
72
74
51
59
77
66
28
81
4
30
31
54
87
22
34
55
62
46
9
83
73
41
40
79
89
52
63
24
32
39
27
71
56
58
35
69
61
84
19
11
3
23
90
20
5
26
70
18
49
80
17
88
76
43
29
36
48
25
21
78
33
37
6
16
15
60
82
42
2
14
47
68
91
65
13
7
12
10
50
86
67
53
57
44

>  <PUBCHEM_MMFF94_PARTIAL_CHARGES>  (1) 
8
1 -0.43
10 0.78
11 0.28
2 -0.57
3 -0.16
4 -0.18
5 -0.02
7 0.3

>  <PUBCHEM_EFFECTIVE_ROTOR_COUNT>  (1) 
7

>  <PUBCHEM_PHARMACOPHORE_FEATURES>  (1) 
2
1 2 acceptor
1 9 hydrophobe

>  <PUBCHEM_HEAVY_ATOM_COUNT>  (1) 
12

>  <PUBCHEM_ATOM_DEF_STEREO_COUNT>  (1) 
0

>  <PUBCHEM_ATOM_UDEF_STEREO_COUNT>  (1) 
0

>  <PUBCHEM_BOND_DEF_STEREO_COUNT>  (1) 
0

>  <PUBCHEM_BOND_UDEF_STEREO_COUNT>  (1) 
0

>  <PUBCHEM_ISOTOPIC_ATOM_COUNT>  (1) 
0

>  <PUBCHEM_COMPONENT_COUNT>  (1) 
1

>  <PUBCHEM_CACTVS_TAUTO_COUNT>  (1) 
1

>  <PUBCHEM_CONFORMER_ID>  (1) 
00005A0A00000001

>  <PUBCHEM_MMFF94_ENERGY>  (1) 
9.4291

>  <PUBCHEM_FEATURE_SELFOVERLAP>  (1) 
10.148

>  <PUBCHEM_SHAPE_FINGERPRINT>  (1) 
10014705 185 9654991382938873474
10219947 1 18343020012310844743
10465860 250 18259980474744106787
12032990 46 18410295787409179102
124424 183 18333444340418142709
13214271 11 18342731875961151453
14252887 29 18272661125051853270
15775835 57 10303813172528942241
18186145 218 11314316065677392703
18380122 1 18130507414369863342
20201158 50 18260831492660443899
20645477 56 9582934879527265694
20671657 53 16732986418248891230
20711983 171 14045736032510504382
20711985 327 18273497896618905909
20871998 184 18129094541696062636
20871998 22 18271257023064917311
21061003 4 18341887506960591589
21119208 17 13767925732514035331
21293036 1 8142084273238437166
23402539 116 18341603815786238943
25610 137 18409165502609583660
3250762 1 17623860019501412894
449060 50 16917349242428694142
58734985 188 18342457088159051113
81228 2 18121517755825128721

>  <PUBCHEM_SHAPE_MULTIPOLES>  (1) 
219.38
7.83
1.76
0.84
0.11
1.41
-0.02
-3.98
-2.84
0.18
-0.07
0.21
-0.15
0.36

>  <PUBCHEM_SHAPE_SELFOVERLAP>  (1) 
401.788

>  <PUBCHEM_SHAPE_VOLUME>  (1) 
139.2

>  <PUBCHEM_COORDINATE_TYPE>  (1) 
2
5
10

$$$$
