23053
     RDKit          3D

 10 10  0  0  0  0  0  0  0  0999 V2000
    0.6640    2.6928    0.0001 Cl  0  0  0  0  0  0  0  0  0  0  0  0
    3.0070   -0.1944    0.0001 N   0  0  0  0  0  0  0  0  0  0  0  0
   -0.3339   -1.2094    0.0003 C   0  0  0  0  0  0  0  0  0  0  0  0
    0.4209   -0.0364    0.0000 C   0  0  0  0  0  0  0  0  0  0  0  0
   -1.7272   -1.1422    0.0003 C   0  0  0  0  0  0  0  0  0  0  0  0
    0.3104   -2.5592   -0.0004 C   0  0  0  0  0  0  0  0  0  0  0  0
   -0.2176    1.2039   -0.0002 C   0  0  0  0  0  0  0  0  0  0  0  0
   -2.3658    0.0979    0.0001 C   0  0  0  0  0  0  0  0  0  0  0  0
   -1.6110    1.2708   -0.0002 C   0  0  0  0  0  0  0  0  0  0  0  0
    1.8533   -0.1239    0.0000 C   0  0  0  0  0  0  0  0  0  0  0  0
  1  7  1  0
  2 10  3  0
  3  4  2  0
  3  5  1  0
  3  6  1  0
  4  7  1  0
  4 10  1  0
  5  8  2  0
  7  9  2  0
  8  9  1  0
M  END
>  <PUBCHEM_COMPOUND_CID>  (1) 
23053

>  <PUBCHEM_CONFORMER_RMSD>  (1) 
0.4

>  <PUBCHEM_CONFORMER_DIVERSEORDER>  (1) 
1

>  <PUBCHEM_MMFF94_PARTIAL_CHARGES>  (1) 
13
1 -0.18
10 0.48
11 0.15
15 0.15
16 0.15
2 -0.56
3 -0.14
4 0.07
5 -0.15
6 0.14
7 0.18
8 -0.15
9 -0.15

>  <PUBCHEM_EFFECTIVE_ROTOR_COUNT>  (1) 
0

>  <PUBCHEM_PHARMACOPHORE_FEATURES>  (1) 
2
1 2 acceptor
6 3 4 5 7 8 9 rings

>  <PUBCHEM_HEAVY_ATOM_COUNT>  (1) 
10

>  <PUBCHEM_ATOM_DEF_STEREO_COUNT>  (1) 
0

>  <PUBCHEM_ATOM_UDEF_STEREO_COUNT>  (1) 
0

>  <PUBCHEM_BOND_DEF_STEREO_COUNT>  (1) 
0

>  <PUBCHEM_BOND_UDEF_STEREO_COUNT>  (1) 
0

>  <PUBCHEM_ISOTOPIC_ATOM_COUNT>  (1) 
0

>  <PUBCHEM_COMPONENT_COUNT>  (1) 
1

>  <PUBCHEM_CACTVS_TAUTO_COUNT>  (1) 
1

>  <PUBCHEM_CONFORMER_ID>  (1) 
00005A0D00000001

>  <PUBCHEM_MMFF94_ENERGY>  (1) 
21.1911

>  <PUBCHEM_FEATURE_SELFOVERLAP>  (1) 
10.148

>  <PUBCHEM_SHAPE_FINGERPRINT>  (1) 
12423570 1 11686794144963432131
16945 1 18410573981157229159
18185500 45 18339078190258386783
193761 8 17834394905461877159
21040471 1 18266458694049153671
23552423 10 17686058700910945916
241688 4 17906175049123651003
2748010 2 18192991754070012581
5084963 1 18059011803880759147
66348 1 18410852144445096888

>  <PUBCHEM_SHAPE_MULTIPOLES>  (1) 
202.68
2.89
2.67
0.61
0.83
0.21
0
-0.12
0
0.37
0
-0.02
0.02
0

>  <PUBCHEM_SHAPE_SELFOVERLAP>  (1) 
414.812

>  <PUBCHEM_SHAPE_VOLUME>  (1) 
116.1

>  <PUBCHEM_COORDINATE_TYPE>  (1) 
2
5
10

$$$$
