23065
     RDKit          3D

 11 11  0  0  0  0  0  0  0  0999 V2000
   -2.3185    2.2165    0.0603 Cl  0  0  0  0  0  0  0  0  0  0  0  0
   -3.5062   -0.7428    0.6134 Cl  0  0  0  0  0  0  0  0  0  0  0  0
    3.8696    0.3291    1.2742 S   0  0  0  0  0  0  0  0  0  0  0  0
    2.1674   -0.0050   -0.8910 N   0  0  0  0  0  0  0  0  0  0  0  0
    0.8242   -0.1638   -0.5358 C   0  0  0  0  0  0  0  0  0  0  0  0
   -0.0034    0.9531   -0.4201 C   0  0  0  0  0  0  0  0  0  0  0  0
    0.3119   -1.4392   -0.2982 C   0  0  0  0  0  0  0  0  0  0  0  0
   -1.3434    0.7945   -0.0668 C   0  0  0  0  0  0  0  0  0  0  0  0
   -1.0281   -1.5976    0.0553 C   0  0  0  0  0  0  0  0  0  0  0  0
   -1.8557   -0.4808    0.1710 C   0  0  0  0  0  0  0  0  0  0  0  0
    2.8822    0.1360    0.0378 C   0  0  0  0  0  0  0  0  0  0  0  0
  1  8  1  0
  2 10  1  0
  3 11  2  0
  4  5  1  0
  4 11  2  0
  5  6  2  0
  5  7  1  0
  6  8  1  0
  7  9  2  0
  8 10  2  0
  9 10  1  0
M  END
>  <PUBCHEM_COMPOUND_CID>  (1) 
23065

>  <PUBCHEM_CONFORMER_RMSD>  (1) 
0.4

>  <PUBCHEM_CONFORMER_DIVERSEORDER>  (1) 
1
3
6
4
2
5

>  <PUBCHEM_MMFF94_PARTIAL_CHARGES>  (1) 
14
1 -0.18
10 0.18
11 0.57
12 0.15
13 0.15
14 0.15
2 -0.18
3 -0.27
4 -0.48
5 0.18
6 -0.15
7 -0.15
8 0.18
9 -0.15

>  <PUBCHEM_EFFECTIVE_ROTOR_COUNT>  (1) 
1

>  <PUBCHEM_PHARMACOPHORE_FEATURES>  (1) 
3
1 3 acceptor
1 4 acceptor
6 5 6 7 8 9 10 rings

>  <PUBCHEM_HEAVY_ATOM_COUNT>  (1) 
11

>  <PUBCHEM_ATOM_DEF_STEREO_COUNT>  (1) 
0

>  <PUBCHEM_ATOM_UDEF_STEREO_COUNT>  (1) 
0

>  <PUBCHEM_BOND_DEF_STEREO_COUNT>  (1) 
0

>  <PUBCHEM_BOND_UDEF_STEREO_COUNT>  (1) 
0

>  <PUBCHEM_ISOTOPIC_ATOM_COUNT>  (1) 
0

>  <PUBCHEM_COMPONENT_COUNT>  (1) 
1

>  <PUBCHEM_CACTVS_TAUTO_COUNT>  (1) 
1

>  <PUBCHEM_CONFORMER_ID>  (1) 
00005A1900000001

>  <PUBCHEM_MMFF94_ENERGY>  (1) 
24.4186

>  <PUBCHEM_FEATURE_SELFOVERLAP>  (1) 
15.227

>  <PUBCHEM_SHAPE_FINGERPRINT>  (1) 
10857977 72 18411141363216167632
11132069 177 18272657874098824059
11769659 78 16226611925908273363
12251169 10 18336820992008498680
12423570 1 7850990691466852813
12932764 1 17775288253014013990
13380535 76 18264204704234761725
14325111 11 18410859815441342892
15219456 202 18131072580695207798
15310529 11 14620527687529519647
16945 1 18337963371330426623
17846911 113 18341891904875045657
18186145 218 16845574206099980252
20510252 161 18343024384524385248
20645464 45 18060699498595189462
20871998 184 18343025531433666503
21040471 1 18265064539064368805
22445834 79 17822559548027028618
23402539 116 18340474651883417799
2748010 2 18193852444004546879
369184 2 18060134349476191758
53812653 166 18271525299628343241
6333449 129 18341049631829309757
90316 7 17749662992041558956

>  <PUBCHEM_SHAPE_MULTIPOLES>  (1) 
228.98
5.66
1.75
0.94
3.33
0.48
0.14
0.65
2.31
-1.52
0
0.56
0.01
0.34

>  <PUBCHEM_SHAPE_SELFOVERLAP>  (1) 
451.958

>  <PUBCHEM_SHAPE_VOLUME>  (1) 
139.7

>  <PUBCHEM_COORDINATE_TYPE>  (1) 
2
5
10

$$$$
