23069
     RDKit          3D

  8  8  0  0  0  0  0  0  0  0999 V2000
    2.3866    1.0027   -0.0001 O   0  0  0  0  0  0  0  0  0  0  0  0
   -2.3029    1.0342   -0.0002 O   0  0  0  0  0  0  0  0  0  0  0  0
   -1.2107    0.3791    0.0002 N   0  0  0  0  0  0  0  0  0  0  0  0
    1.2028    0.3342    0.0000 C   0  0  0  0  0  0  0  0  0  0  0  0
    0.0033    1.0385    0.0001 C   0  0  0  0  0  0  0  0  0  0  0  0
    1.1797   -1.0562    0.0000 C   0  0  0  0  0  0  0  0  0  0  0  0
   -0.0366   -1.7301    0.0000 C   0  0  0  0  0  0  0  0  0  0  0  0
   -1.2221   -1.0024    0.0000 C   0  0  0  0  0  0  0  0  0  0  0  0
  1  4  1  0
  2  3  1  0
  3  5  2  0
  3  8  1  0
  4  5  1  0
  4  6  2  0
  6  7  1  0
  7  8  2  0
M  CHG  2   2  -1   3   1
M  END
>  <PUBCHEM_COMPOUND_CID>  (1) 
23069

>  <PUBCHEM_CONFORMER_RMSD>  (1) 
0.4

>  <PUBCHEM_CONFORMER_DIVERSEORDER>  (1) 
1

>  <PUBCHEM_MMFF94_PARTIAL_CHARGES>  (1) 
13
1 -0.53
10 0.15
11 0.15
12 0.15
13 0.45
2 -0.75
3 0.57
4 0.08
5 -0.06
6 -0.15
7 -0.15
8 -0.06
9 0.15

>  <PUBCHEM_EFFECTIVE_ROTOR_COUNT>  (1) 
0

>  <PUBCHEM_PHARMACOPHORE_FEATURES>  (1) 
3
1 1 donor
1 2 anion
6 3 4 5 6 7 8 rings

>  <PUBCHEM_HEAVY_ATOM_COUNT>  (1) 
8

>  <PUBCHEM_ATOM_DEF_STEREO_COUNT>  (1) 
0

>  <PUBCHEM_ATOM_UDEF_STEREO_COUNT>  (1) 
0

>  <PUBCHEM_BOND_DEF_STEREO_COUNT>  (1) 
0

>  <PUBCHEM_BOND_UDEF_STEREO_COUNT>  (1) 
0

>  <PUBCHEM_ISOTOPIC_ATOM_COUNT>  (1) 
0

>  <PUBCHEM_COMPONENT_COUNT>  (1) 
1

>  <PUBCHEM_CACTVS_TAUTO_COUNT>  (1) 
3

>  <PUBCHEM_CONFORMER_ID>  (1) 
00005A1D00000001

>  <PUBCHEM_MMFF94_ENERGY>  (1) 
16.8712

>  <PUBCHEM_FEATURE_SELFOVERLAP>  (1) 
15.223

>  <PUBCHEM_SHAPE_FINGERPRINT>  (1) 
16714656 1 18122631827286192334
18185500 45 17330556440964644851
20096714 4 18410856516711358539
21040471 1 18410855473123872452
23552423 10 18188493592077181486
29004967 10 17903083235221673347

>  <PUBCHEM_SHAPE_MULTIPOLES>  (1) 
147.92
2.43
1.67
0.58
0.07
0.43
0
-0.96
0
-0.09
0
0.01
0.03
0

>  <PUBCHEM_SHAPE_SELFOVERLAP>  (1) 
305.737

>  <PUBCHEM_SHAPE_VOLUME>  (1) 
84.7

>  <PUBCHEM_COORDINATE_TYPE>  (1) 
2
5
10

$$$$
