23084
     RDKit          3D

 34 38  0  0  1  0  0  0  0  0999 V2000
    1.7415   -1.4250   -1.0863 O   0  0  0  0  0  0  0  0  0  0  0  0
    2.6615   -2.2286    0.8620 O   0  0  0  0  0  0  0  0  0  0  0  0
    4.7143   -1.0769   -0.9673 O   0  0  0  0  0  0  0  0  0  0  0  0
   -2.2590   -0.7529   -0.6734 N   0  0  0  0  0  0  0  0  0  0  0  0
   -1.9862   -1.8355   -1.6311 C   0  0  0  0  0  0  0  0  0  0  0  0
   -1.6123   -1.0414    0.6158 C   0  0  0  0  0  0  0  0  0  0  0  0
   -0.4805   -1.8068   -1.9577 C   0  0  0  0  0  0  0  0  0  0  0  0
   -0.0876   -0.9721    0.4037 C   0  0  0  0  0  0  0  0  0  0  0  0
   -2.4815   -3.2074   -1.1358 C   0  0  0  0  0  0  0  0  0  0  0  0
   -2.0868   -2.3690    1.2360 C   0  0  0  0  0  0  0  0  0  0  0  0
    0.4300   -1.8589   -0.7294 C   0  0  0  0  0  0  0  0  0  0  0  0
   -2.0507   -3.5632    0.2852 C   0  0  0  0  0  0  0  0  0  0  0  0
   -3.6780   -0.4360   -0.5495 C   0  0  0  0  0  0  0  0  0  0  0  0
   -3.8924    0.7665    0.3706 C   0  0  0  0  0  0  0  0  0  0  0  0
    2.6726   -1.4439   -0.0790 C   0  0  0  0  0  0  0  0  0  0  0  0
   -5.3569    1.0909    0.5254 C   0  0  0  0  0  0  0  0  0  0  0  0
    3.6984   -0.3243   -0.2733 C   0  0  0  0  0  0  0  0  0  0  0  0
   -6.0817    0.4971    1.5477 C   0  0  0  0  0  0  0  0  0  0  0  0
   -5.9549    1.9771   -0.3578 C   0  0  0  0  0  0  0  0  0  0  0  0
    4.2584    0.2405    1.0343 C   0  0  0  0  0  0  0  0  0  0  0  0
    3.1830    0.7985   -1.1763 C   0  0  0  0  0  0  0  0  0  0  0  0
   -7.4365    0.7971    1.6904 C   0  0  0  0  0  0  0  0  0  0  0  0
   -7.3096    2.2771   -0.2150 C   0  0  0  0  0  0  0  0  0  0  0  0
   -8.0504    1.6871    0.8089 C   0  0  0  0  0  0  0  0  0  0  0  0
    5.5916    0.5759    1.0892 C   0  0  0  0  0  0  0  0  0  0  0  0
    3.7483    0.9549   -2.4210 C   0  0  0  0  0  0  0  0  0  0  0  0
    3.4071    0.3907    2.1046 C   0  0  0  0  0  0  0  0  0  0  0  0
    2.1743    1.6091   -0.7088 C   0  0  0  0  0  0  0  0  0  0  0  0
    6.1018    1.0903    2.2812 C   0  0  0  0  0  0  0  0  0  0  0  0
    3.2786    1.9786   -3.2438 C   0  0  0  0  0  0  0  0  0  0  0  0
    3.9174    0.9052    3.2965 C   0  0  0  0  0  0  0  0  0  0  0  0
    1.7046    2.6328   -1.5317 C   0  0  0  0  0  0  0  0  0  0  0  0
    5.2647    1.2550    3.3848 C   0  0  0  0  0  0  0  0  0  0  0  0
    2.2568    2.8175   -2.7991 C   0  0  0  0  0  0  0  0  0  0  0  0
  1 11  1  0
  1 15  1  0
  2 15  2  0
  3 17  1  0
  4  5  1  0
  4  6  1  0
  4 13  1  0
  5  7  1  0
  5  9  1  0
  6  8  1  0
  6 10  1  0
  7 11  1  0
  8 11  1  0
  9 12  1  0
 10 12  1  0
 13 14  1  0
 14 16  1  0
 15 17  1  0
 16 18  2  0
 16 19  1  0
 17 20  1  0
 17 21  1  0
 18 22  1  0
 19 23  2  0
 20 25  2  0
 20 27  1  0
 21 26  2  0
 21 28  1  0
 22 24  2  0
 23 24  1  0
 25 29  1  0
 26 30  1  0
 27 31  2  0
 28 32  2  0
 29 33  2  0
 30 34  2  0
 31 33  1  0
 32 34  1  0
M  END
>  <PUBCHEM_COMPOUND_CID>  (1) 
23084

>  <PUBCHEM_CONFORMER_RMSD>  (1) 
1.2

>  <PUBCHEM_CONFORMER_DIVERSEORDER>  (1) 
3
97
82
33
76
36
10
50
126
140
104
56
142
127
122
48
55
57
23
119
39
71
137
32
115
17
106
95
22
111
101
64
25
42
8
125
88
29
60
46
134
61
62
21
116
58
14
26
96
11
89
132
130
18
2
117
112
40
121
105
124
108
143
30
52
19
31
66
79
141
74
59
51
129
37
16
43
110
92
131
84
144
69
138
41
7
118
6
113
103
72
68
67
9
120
91
75
49
85
123
81
90
4
35
87
54
99
1
20
102
13
107
80
15
70
78
45
100
133
38
73
53
34
12
44
135
47
139
5
27
77
114
65
83
145
28
128
98
146
86
109
93
136
24
63
94

>  <PUBCHEM_MMFF94_PARTIAL_CHARGES>  (1) 
45
1 -0.43
11 0.28
13 0.27
14 0.14
15 0.66
16 -0.14
17 0.63
18 -0.15
19 -0.15
2 -0.57
20 -0.14
21 -0.14
22 -0.15
23 -0.15
24 -0.15
25 -0.15
26 -0.15
27 -0.15
28 -0.15
29 -0.15
3 -0.68
30 -0.15
31 -0.15
32 -0.15
33 -0.15
34 -0.15
4 -0.81
5 0.27
52 0.15
53 0.15
54 0.4
55 0.15
56 0.15
57 0.15
58 0.15
59 0.15
6 0.27
60 0.15
61 0.15
62 0.15
63 0.15
64 0.15
65 0.15
66 0.15
67 0.15

>  <PUBCHEM_EFFECTIVE_ROTOR_COUNT>  (1) 
9.4

>  <PUBCHEM_PHARMACOPHORE_FEATURES>  (1) 
9
1 2 acceptor
1 3 acceptor
1 3 donor
1 4 cation
6 16 18 19 22 23 24 rings
6 20 25 27 29 31 33 rings
6 21 26 28 30 32 34 rings
6 4 5 6 7 8 11 rings
6 4 5 6 9 10 12 rings

>  <PUBCHEM_HEAVY_ATOM_COUNT>  (1) 
34

>  <PUBCHEM_ATOM_DEF_STEREO_COUNT>  (1) 
0

>  <PUBCHEM_ATOM_UDEF_STEREO_COUNT>  (1) 
2

>  <PUBCHEM_BOND_DEF_STEREO_COUNT>  (1) 
0

>  <PUBCHEM_BOND_UDEF_STEREO_COUNT>  (1) 
0

>  <PUBCHEM_ISOTOPIC_ATOM_COUNT>  (1) 
0

>  <PUBCHEM_COMPONENT_COUNT>  (1) 
1

>  <PUBCHEM_CACTVS_TAUTO_COUNT>  (1) 
1

>  <PUBCHEM_CONFORMER_ID>  (1) 
00005A2C00000003

>  <PUBCHEM_MMFF94_ENERGY>  (1) 
99.7528

>  <PUBCHEM_FEATURE_SELFOVERLAP>  (1) 
47.15

>  <PUBCHEM_SHAPE_FINGERPRINT>  (1) 
10190108 129 17968649407974452482
11578080 2 17846207912709896352
117089 54 12613300994080391656
11828532 37 17489591190455129287
1200032 147 17532395191088602436
12403259 118 18335421317906601903
12422481 6 18262504931967033852
12633257 1 17676759959429250142
14190465 44 18340200916638000465
14950920 106 16660636388836240241
15238133 3 18408045130177925580
17809404 112 17417535829457206238
17980427 23 18191009287619110964
20715895 44 17561358487315832826
21033648 29 18201145651019195426
21585481 104 15051187666873815889
23559900 14 18341065020460320127
249057 25 18189327030544423727
27425 322 16845565418391366413
2838139 119 17774719745752602451
3472631 163 16988555818729977257
354706 35 14261353582795890900
4066623 53 17131286657986343808
4112364 45 18336263547708058045
5104073 3 17459474527240112427
513532 50 17346325873074995740
58260988 587 14563115666415962988
5951187 136 16988849353938191904

>  <PUBCHEM_SHAPE_MULTIPOLES>  (1) 
677.12
17.68
3.37
3.11
28.17
1.35
0.66
-13.67
11.6
2.28
-1.78
-5.81
-1.81
-1.41

>  <PUBCHEM_SHAPE_SELFOVERLAP>  (1) 
1473.844

>  <PUBCHEM_SHAPE_VOLUME>  (1) 
365.2

>  <PUBCHEM_COORDINATE_TYPE>  (1) 
2
5
10

$$$$
