23090
     RDKit          3D

 17 18  0  0  0  0  0  0  0  0999 V2000
   -4.1228    2.5804   -0.0012 Br  0  0  0  0  0  0  0  0  0  0  0  0
    3.6816   -1.1709   -0.0005 F   0  0  0  0  0  0  0  0  0  0  0  0
    3.8130    0.7081   -1.0863 F   0  0  0  0  0  0  0  0  0  0  0  0
    3.7875    0.7121    1.0938 F   0  0  0  0  0  0  0  0  0  0  0  0
   -2.9002   -2.6763    0.0005 O   0  0  0  0  0  0  0  0  0  0  0  0
   -0.7145   -2.8805    0.0000 O   0  0  0  0  0  0  0  0  0  0  0  0
    1.1312    1.4346   -0.0009 N   0  0  0  0  0  0  0  0  0  0  0  0
    0.9018   -0.7761   -0.0003 N   0  0  0  0  0  0  0  0  0  0  0  0
   -1.7505   -2.1691    0.0003 N   0  0  0  0  0  0  0  0  0  0  0  0
   -0.2210    1.2070   -0.0008 C   0  0  0  0  0  0  0  0  0  0  0  0
   -0.3385   -0.1802   -0.0005 C   0  0  0  0  0  0  0  0  0  0  0  0
    1.7589    0.2201   -0.0009 C   0  0  0  0  0  0  0  0  0  0  0  0
   -1.6188   -0.7592   -0.0002 C   0  0  0  0  0  0  0  0  0  0  0  0
   -1.3181    2.0691   -0.0009 C   0  0  0  0  0  0  0  0  0  0  0  0
   -2.7348    0.0870   -0.0003 C   0  0  0  0  0  0  0  0  0  0  0  0
   -2.5848    1.4758   -0.0009 C   0  0  0  0  0  0  0  0  0  0  0  0
    3.2300    0.1183   -0.0011 C   0  0  0  0  0  0  0  0  0  0  0  0
  1 16  1  0
  2 17  1  0
  3 17  1  0
  4 17  1  0
  5  9  1  0
  6  9  2  0
  7 10  1  0
  7 12  1  0
  8 11  1  0
  8 12  2  0
  9 13  1  0
 10 11  2  0
 10 14  1  0
 11 13  1  0
 12 17  1  0
 13 15  2  0
 14 16  2  0
 15 16  1  0
M  CHG  2   5  -1   9   1
M  END
>  <PUBCHEM_COMPOUND_CID>  (1) 
23090

>  <PUBCHEM_CONFORMER_RMSD>  (1) 
0.6

>  <PUBCHEM_CONFORMER_DIVERSEORDER>  (1) 
1

>  <PUBCHEM_MMFF94_PARTIAL_CHARGES>  (1) 
20
1 -0.11
10 -0.15
11 0.23
12 0.01
13 0.13
14 -0.15
15 -0.15
16 0.11
17 1.2
18 0.27
19 0.15
2 -0.34
20 0.15
3 -0.34
4 -0.34
5 -0.52
6 -0.52
7 0.03
8 -0.57
9 0.91

>  <PUBCHEM_EFFECTIVE_ROTOR_COUNT>  (1) 
2

>  <PUBCHEM_PHARMACOPHORE_FEATURES>  (1) 
8
1 1 hydrophobe
1 5 acceptor
1 5 anion
1 6 acceptor
1 7 donor
3 7 8 12 cation
5 7 8 10 11 12 rings
6 10 11 13 14 15 16 rings

>  <PUBCHEM_HEAVY_ATOM_COUNT>  (1) 
17

>  <PUBCHEM_ATOM_DEF_STEREO_COUNT>  (1) 
0

>  <PUBCHEM_ATOM_UDEF_STEREO_COUNT>  (1) 
0

>  <PUBCHEM_BOND_DEF_STEREO_COUNT>  (1) 
0

>  <PUBCHEM_BOND_UDEF_STEREO_COUNT>  (1) 
0

>  <PUBCHEM_ISOTOPIC_ATOM_COUNT>  (1) 
0

>  <PUBCHEM_COMPONENT_COUNT>  (1) 
1

>  <PUBCHEM_CACTVS_TAUTO_COUNT>  (1) 
2

>  <PUBCHEM_CONFORMER_ID>  (1) 
00005A3200000001

>  <PUBCHEM_MMFF94_ENERGY>  (1) 
29.493

>  <PUBCHEM_FEATURE_SELFOVERLAP>  (1) 
40.783

>  <PUBCHEM_SHAPE_FINGERPRINT>  (1) 
10319926 262 18198036215304155456
10608611 8 18343015618802257920
10616163 171 18411141355112108062
10967382 1 18194401082831337061
11132069 177 18409443661666073344
11322862 65 18410577240937355879
12173636 292 18338511924564456701
12500047 106 18412540994590392232
12553582 1 17978515561058124318
12592029 89 18047194055479215891
13140716 1 18339360893585532793
13380535 76 18270116795215584479
13544592 145 18128544764839802846
14178342 30 18336530707958801786
14790565 3 18267316321968424697
15042514 8 18408045100329471339
15309172 13 18266748986947573433
15669948 3 18408323315209609382
16752209 62 18410564119991685707
16945 1 18410574002384327685
1741750 31 18341048523680229337
193761 8 18122344842125377925
19591789 44 18122347878556070667
20510252 161 18271526493507633609
20645476 183 18114764671065081636
20645477 56 18410291389341815752
20871998 184 18201441432025631679
20871999 31 18410300245627229284
21501502 16 18263647431948927092
21524375 3 18127406748767135245
2334 1 17978510067841866721
23402539 116 18271232820929732453
23557571 272 18271817877475354644
23558518 356 18116994588031358760
23559900 14 18271806788186079900
257057 1 17765144356405037103
2748010 2 18121512258387899997
298252 57 18335983048068063121
3071541 12 17475235696107678445
3071541 37 18048319938375299277
3091708 16 9056165451666263409
335352 9 18266740169279117814
366044 4 18337671889364889225
43471831 8 18264205808009916251
474229 33 18337393747752259729
5104073 3 18410291393752477720
54173680 148 18337954596902144827
69090 78 18338793412467890085
7364860 26 17692248539227152359
77492 1 17676204693277569420
81228 2 18191015901610199657
81539 233 18045782278528834685
84936 182 17696744463806643889
8809292 202 18412829079458363978
9709674 26 18272652320632485030

>  <PUBCHEM_SHAPE_MULTIPOLES>  (1) 
307.29
6.7
2.86
0.68
3.01
2.27
0
-3.43
0.01
-2.78
0
0.3
-0.16
0

>  <PUBCHEM_SHAPE_SELFOVERLAP>  (1) 
661.661

>  <PUBCHEM_SHAPE_VOLUME>  (1) 
175.1

>  <PUBCHEM_COORDINATE_TYPE>  (1) 
2
5
10

$$$$
