23097
     RDKit          3D

 15 16  0  0  0  0  0  0  0  0999 V2000
   -1.6517   -3.2289    0.0009 Br  0  0  0  0  0  0  0  0  0  0  0  0
   -4.6234    1.6242   -0.0023 Br  0  0  0  0  0  0  0  0  0  0  0  0
    3.6213   -1.0248   -0.0010 F   0  0  0  0  0  0  0  0  0  0  0  0
    3.4939    0.8547   -1.0864 F   0  0  0  0  0  0  0  0  0  0  0  0
    3.4682    0.8547    1.0938 F   0  0  0  0  0  0  0  0  0  0  0  0
    0.7384    1.2070   -0.0005 N   0  0  0  0  0  0  0  0  0  0  0  0
    0.8131   -1.0143   -0.0005 N   0  0  0  0  0  0  0  0  0  0  0  0
   -0.5700    0.7969   -0.0004 C   0  0  0  0  0  0  0  0  0  0  0  0
   -0.4970   -0.5934   -0.0005 C   0  0  0  0  0  0  0  0  0  0  0  0
    1.5261    0.0896   -0.0009 C   0  0  0  0  0  0  0  0  0  0  0  0
   -1.7745    1.5011   -0.0003 C   0  0  0  0  0  0  0  0  0  0  0  0
   -1.6862   -1.3417   -0.0002 C   0  0  0  0  0  0  0  0  0  0  0  0
    2.9975    0.1903   -0.0012 C   0  0  0  0  0  0  0  0  0  0  0  0
   -2.9484    0.7404   -0.0003 C   0  0  0  0  0  0  0  0  0  0  0  0
   -2.9073   -0.6559    0.0000 C   0  0  0  0  0  0  0  0  0  0  0  0
  1 12  1  0
  2 14  1  0
  3 13  1  0
  4 13  1  0
  5 13  1  0
  6  8  1  0
  6 10  1  0
  7  9  1  0
  7 10  2  0
  8  9  2  0
  8 11  1  0
  9 12  1  0
 10 13  1  0
 11 14  2  0
 12 15  2  0
 14 15  1  0
M  END
>  <PUBCHEM_COMPOUND_CID>  (1) 
23097

>  <PUBCHEM_CONFORMER_RMSD>  (1) 
0.4

>  <PUBCHEM_CONFORMER_DIVERSEORDER>  (1) 
1

>  <PUBCHEM_MMFF94_PARTIAL_CHARGES>  (1) 
18
1 -0.11
10 0.01
11 -0.15
12 0.11
13 1.2
14 0.11
15 -0.15
16 0.27
17 0.15
18 0.15
2 -0.11
3 -0.34
4 -0.34
5 -0.34
6 0.03
7 -0.57
8 -0.15
9 0.23

>  <PUBCHEM_EFFECTIVE_ROTOR_COUNT>  (1) 
1

>  <PUBCHEM_PHARMACOPHORE_FEATURES>  (1) 
6
1 1 hydrophobe
1 2 hydrophobe
1 6 donor
3 6 7 10 cation
5 6 7 8 9 10 rings
6 8 9 11 12 14 15 rings

>  <PUBCHEM_HEAVY_ATOM_COUNT>  (1) 
15

>  <PUBCHEM_ATOM_DEF_STEREO_COUNT>  (1) 
0

>  <PUBCHEM_ATOM_UDEF_STEREO_COUNT>  (1) 
0

>  <PUBCHEM_BOND_DEF_STEREO_COUNT>  (1) 
0

>  <PUBCHEM_BOND_UDEF_STEREO_COUNT>  (1) 
0

>  <PUBCHEM_ISOTOPIC_ATOM_COUNT>  (1) 
0

>  <PUBCHEM_COMPONENT_COUNT>  (1) 
1

>  <PUBCHEM_CACTVS_TAUTO_COUNT>  (1) 
2

>  <PUBCHEM_CONFORMER_ID>  (1) 
00005A3900000001

>  <PUBCHEM_MMFF94_ENERGY>  (1) 
16.336

>  <PUBCHEM_FEATURE_SELFOVERLAP>  (1) 
30.553

>  <PUBCHEM_SHAPE_FINGERPRINT>  (1) 
10608611 8 18343015631476098272
10967382 1 18338798888561664047
11132069 177 18409725162190898760
12173636 292 18338792325999511101
12500047 106 18412822503620684754
12553582 1 17689723373077360486
13380535 76 18341894048269766503
14144814 61 18409728469384028698
14178342 30 18264754627426001434
14325111 11 18410573980962154272
14897335 6 18411415069019020015
15309172 13 18339088090474495945
15669948 3 18336546126533016174
15775835 57 18334014956571806025
16945 1 18410574032601845699
18186145 218 18338234856012681861
193761 8 17978228593297783173
20279233 1 17846780711007490044
20510252 161 18272653446066735057
20645476 183 18042141958247434999
20645477 56 18410291419327283641
20645477 70 16773525395264898564
20871998 184 18129104592225886583
21501502 16 18191587668762448212
21524375 3 18270398266139953279
23402539 116 18271796900696689093
23402655 69 18198329668976685757
23463225 33 18334574595026392274
23557571 272 18200605824700080260
23559900 14 18343584045360883076
2748010 2 18265342707333207183
3071541 12 17691408504127987349
3091708 16 9053636570712184131
366044 4 18410009897659430947
474 4 16662346228355167876
474229 33 18409169901231029787
5104073 3 18410291419289978042
53812653 166 18342170047068177369
54173680 148 18265897045872249931
6333449 129 18412542124214055943
69090 78 18412257316411347399
7364860 26 17980478966792345303
74978 22 18338236071488484844
81228 2 18120080939188538483
81539 233 18190177876550577783
8809292 202 18411984680082011354
9709674 26 18343867731644845558

>  <PUBCHEM_SHAPE_MULTIPOLES>  (1) 
288.79
6.92
2.48
0.71
1.81
2.5
0
-3.38
0.01
-2.04
0
0.27
-0.08
0

>  <PUBCHEM_SHAPE_SELFOVERLAP>  (1) 
603.175

>  <PUBCHEM_SHAPE_VOLUME>  (1) 
170.8

>  <PUBCHEM_COORDINATE_TYPE>  (1) 
2
5
10

$$$$
