23094
     RDKit          3D

 18 19  0  0  0  0  0  0  0  0999 V2000
   -4.1199   -0.4462   -0.0008 Cl  0  0  0  0  0  0  0  0  0  0  0  0
   -3.6345    2.7130   -0.0001 Cl  0  0  0  0  0  0  0  0  0  0  0  0
    3.8609   -1.2669    0.0000 F   0  0  0  0  0  0  0  0  0  0  0  0
    4.0564    0.6059   -1.0869 F   0  0  0  0  0  0  0  0  0  0  0  0
    4.0319    0.6119    1.0933 F   0  0  0  0  0  0  0  0  0  0  0  0
   -0.5227   -2.7966   -0.0017 O   0  0  0  0  0  0  0  0  0  0  0  0
   -2.7079   -2.5875    0.0010 O   0  0  0  0  0  0  0  0  0  0  0  0
    1.4016    1.4247   -0.0014 N   0  0  0  0  0  0  0  0  0  0  0  0
    1.0964   -0.7768    0.0012 N   0  0  0  0  0  0  0  0  0  0  0  0
   -1.5575   -2.0870    0.0000 N   0  0  0  0  0  0  0  0  0  0  0  0
    0.0424    1.2437   -0.0012 C   0  0  0  0  0  0  0  0  0  0  0  0
   -0.1227   -0.1386    0.0004 C   0  0  0  0  0  0  0  0  0  0  0  0
    1.9872    0.1894   -0.0003 C   0  0  0  0  0  0  0  0  0  0  0  0
   -1.4221   -0.6732    0.0012 C   0  0  0  0  0  0  0  0  0  0  0  0
   -1.0244    2.1430   -0.0022 C   0  0  0  0  0  0  0  0  0  0  0  0
   -2.5084    0.2108    0.0002 C   0  0  0  0  0  0  0  0  0  0  0  0
   -2.3108    1.5937   -0.0016 C   0  0  0  0  0  0  0  0  0  0  0  0
    3.4540    0.0369   -0.0010 C   0  0  0  0  0  0  0  0  0  0  0  0
  1 16  1  0
  2 17  1  0
  3 18  1  0
  4 18  1  0
  5 18  1  0
  6 10  1  0
  7 10  2  0
  8 11  1  0
  8 13  1  0
  9 12  1  0
  9 13  2  0
 10 14  1  0
 11 12  2  0
 11 15  1  0
 12 14  1  0
 13 18  1  0
 14 16  2  0
 15 17  2  0
 16 17  1  0
M  CHG  2   6  -1  10   1
M  END
>  <PUBCHEM_COMPOUND_CID>  (1) 
23094

>  <PUBCHEM_CONFORMER_RMSD>  (1) 
0.6

>  <PUBCHEM_CONFORMER_DIVERSEORDER>  (1) 
1

>  <PUBCHEM_MMFF94_PARTIAL_CHARGES>  (1) 
20
1 -0.18
10 0.91
11 -0.15
12 0.23
13 0.01
14 0.13
15 -0.15
16 0.18
17 0.18
18 1.2
19 0.27
2 -0.18
20 0.15
3 -0.34
4 -0.34
5 -0.34
6 -0.52
7 -0.52
8 0.03
9 -0.57

>  <PUBCHEM_EFFECTIVE_ROTOR_COUNT>  (1) 
2

>  <PUBCHEM_PHARMACOPHORE_FEATURES>  (1) 
7
1 6 acceptor
1 6 anion
1 7 acceptor
1 8 donor
3 8 9 13 cation
5 8 9 11 12 13 rings
6 11 12 14 15 16 17 rings

>  <PUBCHEM_HEAVY_ATOM_COUNT>  (1) 
18

>  <PUBCHEM_ATOM_DEF_STEREO_COUNT>  (1) 
0

>  <PUBCHEM_ATOM_UDEF_STEREO_COUNT>  (1) 
0

>  <PUBCHEM_BOND_DEF_STEREO_COUNT>  (1) 
0

>  <PUBCHEM_BOND_UDEF_STEREO_COUNT>  (1) 
0

>  <PUBCHEM_ISOTOPIC_ATOM_COUNT>  (1) 
0

>  <PUBCHEM_COMPONENT_COUNT>  (1) 
1

>  <PUBCHEM_CACTVS_TAUTO_COUNT>  (1) 
2

>  <PUBCHEM_CONFORMER_ID>  (1) 
00005A3600000001

>  <PUBCHEM_MMFF94_ENERGY>  (1) 
41.6112

>  <PUBCHEM_FEATURE_SELFOVERLAP>  (1) 
35.709

>  <PUBCHEM_SHAPE_FINGERPRINT>  (1) 
10319926 262 18198036193845058768
10411042 1 18050287273720402531
10608611 8 18342734135230344392
10616163 171 18411142450307630550
10967382 1 18122343471824685933
11132069 177 18412260661779394936
12173636 292 18410851062102802084
12390115 104 18128554690478231433
12500047 106 18412539886583781912
12553582 1 17978515561147788606
13140716 1 18194406821487932627
13380535 76 18270116790746543879
13544592 145 18128826239890405502
13862211 1 18410851105791446615
14115302 16 18187931737023702037
14178342 30 18336530699469152442
14790565 3 18338811017813844609
15042514 8 18337113483640172803
15196674 1 18338797814566496036
15209294 21 17845670153040613289
15309172 13 18266750086348392449
15669948 3 18408885161425065862
16752209 62 18410001135688757251
16945 1 18410574011132452869
17804303 29 18341899635858577737
193761 8 18050286174276917797
19591789 44 18266462001369520723
20028762 73 17986116442846342263
20510252 161 18272651221015459713
20871998 184 18201158848878754399
20871999 31 18410303527203808996
21029758 11 18272362101350448121
21029758 27 18115036306841792757
21267235 1 18409176514541915554
22182313 1 18194700180797387151
2334 1 17834114526018253635
23366157 5 17753618931682998107
23402539 116 18342447162995662253
23463225 33 18262516966686683314
23557571 272 18272661164244544844
23559900 14 18271805675784197548
2748010 2 18412548699460826541
3071541 12 17403178093427087885
3091708 16 9056728401540556945
335352 9 18122343480361795486
43471831 8 18263360300595233307
474 4 16879365613142733484
5104073 3 18410572842985797336
54173680 148 18337674242917283635
559249 180 18190175690291268594
58807428 26 18265615373162981209
69090 78 18342452651594743911
77492 1 17676204684703452576
81228 2 18263074582121924657
8809292 202 18337111275509634627
9709674 26 18272091569723444238

>  <PUBCHEM_SHAPE_MULTIPOLES>  (1) 
325.67
7.09
2.74
0.67
4.6
0.97
0
-1.29
0.01
-2.69
0
0.32
-0.11
0

>  <PUBCHEM_SHAPE_SELFOVERLAP>  (1) 
701.064

>  <PUBCHEM_SHAPE_VOLUME>  (1) 
183.6

>  <PUBCHEM_COORDINATE_TYPE>  (1) 
2
5
10

$$$$
