2309
     RDKit          3D

 21 22  0  0  1  0  0  0  0  0999 V2000
    0.5784   -1.9451   -0.7838 O   0  0  0  0  0  0  0  0  0  0  0  0
    3.1937   -2.1628   -1.7915 O   0  0  0  0  0  0  0  0  0  0  0  0
   -0.9864    0.5161   -0.6162 O   0  0  0  0  0  0  0  0  0  0  0  0
   -0.7869    3.1917   -1.3434 O   0  0  0  0  0  0  0  0  0  0  0  0
    2.7064    0.3572    0.8764 N   0  0  0  0  0  0  0  0  0  0  0  0
    2.9472   -1.7193   -0.4541 C   0  0  0  0  0  0  0  0  0  0  0  0
    2.8930   -0.1898   -0.4606 C   0  0  0  0  0  0  0  0  0  0  0  0
    2.7151    1.8135    0.8496 C   0  0  0  0  0  0  0  0  0  0  0  0
    1.6579   -2.3671    0.0463 C   0  0  0  0  0  0  0  0  0  0  0  0
    4.0498    2.3249    0.3147 C   0  0  0  0  0  0  0  0  0  0  0  0
    2.4455    2.3489    2.2523 C   0  0  0  0  0  0  0  0  0  0  0  0
   -0.6558   -1.8794   -0.2079 C   0  0  0  0  0  0  0  0  0  0  0  0
   -1.3874   -0.6953   -0.1375 C   0  0  0  0  0  0  0  0  0  0  0  0
   -2.6477   -0.5902    0.4419 C   0  0  0  0  0  0  0  0  0  0  0  0
   -1.2547   -3.0139    0.3478 C   0  0  0  0  0  0  0  0  0  0  0  0
   -3.0250    0.7712    0.3009 C   0  0  0  0  0  0  0  0  0  0  0  0
   -3.2309   -1.7438    0.9946 C   0  0  0  0  0  0  0  0  0  0  0  0
   -1.9846    1.3971   -0.3458 C   0  0  0  0  0  0  0  0  0  0  0  0
   -2.5190   -2.9499    0.9389 C   0  0  0  0  0  0  0  0  0  0  0  0
   -1.8064    2.7495   -0.7512 C   0  0  0  0  0  0  0  0  0  0  0  0
   -2.9024    3.7865   -0.4713 C   0  0  0  0  0  0  0  0  0  0  0  0
  1  9  1  0
  1 12  1  0
  2  6  1  0
  3 13  1  0
  3 18  1  0
  4 20  2  0
  5  7  1  0
  5  8  1  0
  6  7  1  0
  6  9  1  0
  8 10  1  0
  8 11  1  0
 12 13  2  0
 12 15  1  0
 13 14  1  0
 14 16  1  0
 14 17  2  0
 15 19  2  0
 16 18  2  0
 17 19  1  0
 18 20  1  0
 20 21  1  0
M  END
>  <PUBCHEM_COMPOUND_CID>  (1) 
2309

>  <PUBCHEM_CONFORMER_RMSD>  (1) 
0.8

>  <PUBCHEM_CONFORMER_DIVERSEORDER>  (1) 
1
326
75
304
259
242
158
418
417
397
144
407
344
269
302
350
319
10
399
365
166
159
137
353
441
410
135
102
127
306
293
171
375
233
189
322
416
362
391
18
265
307
366
287
419
216
201
175
235
295
84
261
221
115
331
318
301
377
384
376
238
147
389
360
298
197
308
196
149
173
339
107
41
33
421
372
405
351
101
321
426
168
90
148
227
325
291
395
231
277
315
363
396
370
358
257
249
270
124
191
245
381
313
243
422
341
82
390
409
427
267
152
210
93
138
420
198
404
193
374
432
209
105
86
296
250
240
234
340
98
400
364
31
222
266
163
273
12
167
290
387
379
162
170
87
299
180
224
74
286
110
332
423
57
285
342
431
192
154
117
186
272
24
401
200
282
255
23
181
53
194
25
225
230
218
97
371
236
19
309
121
56
58
412
274
48
408
64
65
130
95
260
143
232
174
220
414
314
292
394
211
279
303
72
205
256
116
118
398
145
73
43
184
435
327
71
178
352
345
129
49
185
27
241
388
248
59
440
223
239
32
436
179
150
16
203
133
50
85
67
183
63
190
281
323
11
430
415
157
424
69
347
153
312
30
199
368
328
104
354
433
4
219
268
35
202
44
252
253
70
114
359
132
108
206
247
134
83
288
91
275
146
283
28
123
187
439
111
311
320
204
380
383
333
5
160
348
62
13
217
182
336
228
142
226
334
128
403
36
195
164
262
208
338
392
60
356
80
45
429
289
335
109
76
165
96
278
355
244
349
382
68
172
136
21
437
2
66
140
316
51
78
406
94
99
188
46
26
330
284
151
294
215
367
258
438
297
264
103
369
7
61
169
112
237
29
161
54
77
34
176
88
39
413
271
280
89
156
402
106
125
246
8
141
22
177
254
122
373
213
343
20
305
346
126
40
337
17
434
229
207
263
329
37
79
120
52
113
251
300
378
92
139
324
212
310
14
276
442
155
131
119
361
55
214
81
38
9
100
357
317
411
386
15
385
393
42
6
425
443
47
3
428

>  <PUBCHEM_MMFF94_PARTIAL_CHARGES>  (1) 
24
1 -0.36
12 0.08
13 0.14
15 -0.15
16 -0.15
17 -0.15
18 0.05
19 -0.15
2 -0.68
20 0.59
21 0.06
26 0.36
3 -0.28
35 0.4
36 0.15
37 0.15
38 0.15
39 0.15
4 -0.57
5 -0.9
6 0.28
7 0.27
8 0.27
9 0.28

>  <PUBCHEM_EFFECTIVE_ROTOR_COUNT>  (1) 
7

>  <PUBCHEM_PHARMACOPHORE_FEATURES>  (1) 
10
1 1 acceptor
1 2 acceptor
1 2 donor
1 3 acceptor
1 4 acceptor
1 5 cation
1 5 donor
3 8 10 11 hydrophobe
5 3 13 14 16 18 rings
6 12 13 14 15 17 19 rings

>  <PUBCHEM_HEAVY_ATOM_COUNT>  (1) 
21

>  <PUBCHEM_ATOM_DEF_STEREO_COUNT>  (1) 
0

>  <PUBCHEM_ATOM_UDEF_STEREO_COUNT>  (1) 
1

>  <PUBCHEM_BOND_DEF_STEREO_COUNT>  (1) 
0

>  <PUBCHEM_BOND_UDEF_STEREO_COUNT>  (1) 
0

>  <PUBCHEM_ISOTOPIC_ATOM_COUNT>  (1) 
0

>  <PUBCHEM_COMPONENT_COUNT>  (1) 
1

>  <PUBCHEM_CACTVS_TAUTO_COUNT>  (1) 
2

>  <PUBCHEM_CONFORMER_ID>  (1) 
0000090500000001

>  <PUBCHEM_MMFF94_ENERGY>  (1) 
37.0292

>  <PUBCHEM_FEATURE_SELFOVERLAP>  (1) 
50.857

>  <PUBCHEM_SHAPE_FINGERPRINT>  (1) 
10165383 225 17612609829410962957
10498660 4 18263360468051062820
1100329 8 15095918745432627988
11221954 11 18341036433304956404
12403259 226 18340212886105998471
12553582 1 17974580400541555999
12633257 1 18341055107680445706
12769317 202 17108179106420128845
13140716 1 18409737248545640883
14223421 5 18411420639386101926
15475509 84 15239494082137510113
15840311 113 17844554192215790043
18219364 16 17906466432537419393
238 59 17985513776548742580
2748010 2 18410016571748945919
2803657 2 15167985135446936126
3084891 72 17475233496831657198
3187 122 18045769345986466329
3524813 1 17914055558324180640
6287921 2 17550678041980791072
7097593 13 17752464500535366218
7471813 234 15670378442613497565
81228 2 18260830423281736691
84936 182 17326889582908511053
9862522 239 17913181404036601080
9925002 15 16255590903762636646

>  <PUBCHEM_SHAPE_MULTIPOLES>  (1) 
403.71
6.53
4.97
1.33
4.24
2.38
0.3
1.13
1.38
-1.85
-0.82
0.87
0.35
2.8

>  <PUBCHEM_SHAPE_SELFOVERLAP>  (1) 
841.75

>  <PUBCHEM_SHAPE_VOLUME>  (1) 
232.6

>  <PUBCHEM_COORDINATE_TYPE>  (1) 
2
5
10

$$$$
