23095
     RDKit          3D

 18 19  0  0  0  0  0  0  0  0999 V2000
   -0.5762   -3.1829    0.0012 Cl  0  0  0  0  0  0  0  0  0  0  0  0
   -3.5573   -1.8736   -0.0007 Cl  0  0  0  0  0  0  0  0  0  0  0  0
    4.4110   -0.8878   -0.0011 F   0  0  0  0  0  0  0  0  0  0  0  0
    4.1797    0.9817   -1.0865 F   0  0  0  0  0  0  0  0  0  0  0  0
    4.1542    0.9804    1.0937 F   0  0  0  0  0  0  0  0  0  0  0  0
   -3.5716    2.3949   -0.0007 O   0  0  0  0  0  0  0  0  0  0  0  0
   -4.5513    0.4305   -0.0009 O   0  0  0  0  0  0  0  0  0  0  0  0
    1.4082    1.1803   -0.0006 N   0  0  0  0  0  0  0  0  0  0  0  0
    1.6074   -1.0334   -0.0004 N   0  0  0  0  0  0  0  0  0  0  0  0
   -3.5222    1.1437   -0.0005 N   0  0  0  0  0  0  0  0  0  0  0  0
    0.1249    0.6973   -0.0004 C   0  0  0  0  0  0  0  0  0  0  0  0
    0.2758   -0.6866   -0.0004 C   0  0  0  0  0  0  0  0  0  0  0  0
    2.2574    0.1088   -0.0009 C   0  0  0  0  0  0  0  0  0  0  0  0
   -1.1173    1.3329   -0.0003 C   0  0  0  0  0  0  0  0  0  0  0  0
   -0.8696   -1.5005   -0.0001 C   0  0  0  0  0  0  0  0  0  0  0  0
   -2.2466    0.5076   -0.0003 C   0  0  0  0  0  0  0  0  0  0  0  0
   -2.1273   -0.8842    0.0001 C   0  0  0  0  0  0  0  0  0  0  0  0
    3.7208    0.2908   -0.0013 C   0  0  0  0  0  0  0  0  0  0  0  0
  1 15  1  0
  2 17  1  0
  3 18  1  0
  4 18  1  0
  5 18  1  0
  6 10  1  0
  7 10  2  0
  8 11  1  0
  8 13  1  0
  9 12  1  0
  9 13  2  0
 10 16  1  0
 11 12  2  0
 11 14  1  0
 12 15  1  0
 13 18  1  0
 14 16  2  0
 15 17  2  0
 16 17  1  0
M  CHG  2   6  -1  10   1
M  END
>  <PUBCHEM_COMPOUND_CID>  (1) 
23095

>  <PUBCHEM_CONFORMER_RMSD>  (1) 
0.6

>  <PUBCHEM_CONFORMER_DIVERSEORDER>  (1) 
1

>  <PUBCHEM_MMFF94_PARTIAL_CHARGES>  (1) 
20
1 -0.18
10 0.91
11 -0.15
12 0.23
13 0.01
14 -0.15
15 0.18
16 0.13
17 0.18
18 1.2
19 0.27
2 -0.18
20 0.15
3 -0.34
4 -0.34
5 -0.34
6 -0.52
7 -0.52
8 0.03
9 -0.57

>  <PUBCHEM_EFFECTIVE_ROTOR_COUNT>  (1) 
2

>  <PUBCHEM_PHARMACOPHORE_FEATURES>  (1) 
7
1 6 acceptor
1 6 anion
1 7 acceptor
1 8 donor
3 8 9 13 cation
5 8 9 11 12 13 rings
6 11 12 14 15 16 17 rings

>  <PUBCHEM_HEAVY_ATOM_COUNT>  (1) 
18

>  <PUBCHEM_ATOM_DEF_STEREO_COUNT>  (1) 
0

>  <PUBCHEM_ATOM_UDEF_STEREO_COUNT>  (1) 
0

>  <PUBCHEM_BOND_DEF_STEREO_COUNT>  (1) 
0

>  <PUBCHEM_BOND_UDEF_STEREO_COUNT>  (1) 
0

>  <PUBCHEM_ISOTOPIC_ATOM_COUNT>  (1) 
0

>  <PUBCHEM_COMPONENT_COUNT>  (1) 
1

>  <PUBCHEM_CACTVS_TAUTO_COUNT>  (1) 
2

>  <PUBCHEM_CONFORMER_ID>  (1) 
00005A3700000001

>  <PUBCHEM_MMFF94_ENERGY>  (1) 
42.0373

>  <PUBCHEM_FEATURE_SELFOVERLAP>  (1) 
35.709

>  <PUBCHEM_SHAPE_FINGERPRINT>  (1) 
10319926 262 18198601390066271928
10411042 1 17545884188337735562
10608611 8 18270677679305852984
10967382 1 18338517422137977703
11132069 177 18410290311204401360
12173636 292 18411131424804432277
12236239 1 17822007649245856068
12390115 104 18271545133766353585
12403814 3 17530678818719170389
12500047 106 18341327872916978218
13140716 1 17832706051322938307
13380535 76 18412263913133272791
13544592 145 18200884985138019214
14178342 30 18192977434960622250
15042514 8 18265055923893612835
15196674 1 18410575097785578502
15219456 202 18202290173271373526
15309172 13 18410864234962716587
15536298 74 18341895130385344590
16752209 62 18338789117432236779
16945 1 18266458895918131687
17804303 29 18341335599172831529
18186145 218 17917720105914879344
200 152 17703785959861765327
20510252 161 18272372005085597001
20645477 56 18411698824523410984
20645477 70 16773807969980070820
21267235 1 18337118937673417739
21524375 3 18335420136605797163
2334 1 18410856551255992551
23366157 5 17898295995859798395
23402539 116 18270109236284504079
23402655 69 18270669858814050381
23557571 272 18200323242017511060
23559900 14 18272370867705214100
2748010 2 18339091401646776959
3071541 12 17835806292224842447
3091708 16 9124569359791066987
335352 9 18338797789171472910
366044 4 18410011018171342923
43471831 8 18335135367278959619
474 4 16590285348841292820
495365 180 17418081110479817202
4990 188 18060425677192178396
5104073 3 18410854373907722706
53812653 166 18342452638451379457
54173680 148 18120938575132533459
559249 180 18335979784204543882
69090 78 18413102866227414943
7364860 26 18052819139508038495
9709674 26 18342181098124895294

>  <PUBCHEM_SHAPE_MULTIPOLES>  (1) 
325.67
7.93
2.44
0.67
4.26
1.25
0
-2.3
0.01
-2.08
0
0.37
-0.05
0

>  <PUBCHEM_SHAPE_SELFOVERLAP>  (1) 
701.259

>  <PUBCHEM_SHAPE_VOLUME>  (1) 
183.7

>  <PUBCHEM_COORDINATE_TYPE>  (1) 
2
5
10

$$$$
