23091
     RDKit          3D

 17 18  0  0  0  0  0  0  0  0999 V2000
   -0.7343   -3.5168    0.0007 Br  0  0  0  0  0  0  0  0  0  0  0  0
    4.2622   -0.7448   -0.0026 F   0  0  0  0  0  0  0  0  0  0  0  0
    3.9281    1.1099   -1.0867 F   0  0  0  0  0  0  0  0  0  0  0  0
    3.9047    1.1059    1.0936 F   0  0  0  0  0  0  0  0  0  0  0  0
   -3.9471    2.0488   -0.0004 O   0  0  0  0  0  0  0  0  0  0  0  0
   -4.7508    0.0059   -0.0015 O   0  0  0  0  0  0  0  0  0  0  0  0
    1.1510    1.1561    0.0001 N   0  0  0  0  0  0  0  0  0  0  0  0
    1.4707   -1.0434    0.0005 N   0  0  0  0  0  0  0  0  0  0  0  0
   -3.7841    0.8051   -0.0007 N   0  0  0  0  0  0  0  0  0  0  0  0
   -0.1041    0.6039   -0.0001 C   0  0  0  0  0  0  0  0  0  0  0  0
    0.1221   -0.7698    0.0000 C   0  0  0  0  0  0  0  0  0  0  0  0
    2.0573    0.1326    0.0002 C   0  0  0  0  0  0  0  0  0  0  0  0
   -1.3791    1.1707   -0.0005 C   0  0  0  0  0  0  0  0  0  0  0  0
   -0.9771   -1.6450    0.0000 C   0  0  0  0  0  0  0  0  0  0  0  0
   -2.4617    0.2850   -0.0008 C   0  0  0  0  0  0  0  0  0  0  0  0
   -2.2666   -1.0983   -0.0003 C   0  0  0  0  0  0  0  0  0  0  0  0
    3.5086    0.3943   -0.0015 C   0  0  0  0  0  0  0  0  0  0  0  0
  1 14  1  0
  2 17  1  0
  3 17  1  0
  4 17  1  0
  5  9  1  0
  6  9  2  0
  7 10  1  0
  7 12  1  0
  8 11  1  0
  8 12  2  0
  9 15  1  0
 10 11  2  0
 10 13  1  0
 11 14  1  0
 12 17  1  0
 13 15  2  0
 14 16  2  0
 15 16  1  0
M  CHG  2   5  -1   9   1
M  END
>  <PUBCHEM_COMPOUND_CID>  (1) 
23091

>  <PUBCHEM_CONFORMER_RMSD>  (1) 
0.6

>  <PUBCHEM_CONFORMER_DIVERSEORDER>  (1) 
1

>  <PUBCHEM_MMFF94_PARTIAL_CHARGES>  (1) 
20
1 -0.11
10 -0.15
11 0.23
12 0.01
13 -0.15
14 0.11
15 0.13
16 -0.15
17 1.2
18 0.27
19 0.15
2 -0.34
20 0.15
3 -0.34
4 -0.34
5 -0.52
6 -0.52
7 0.03
8 -0.57
9 0.91

>  <PUBCHEM_EFFECTIVE_ROTOR_COUNT>  (1) 
2

>  <PUBCHEM_PHARMACOPHORE_FEATURES>  (1) 
8
1 1 hydrophobe
1 5 acceptor
1 5 anion
1 6 acceptor
1 7 donor
3 7 8 12 cation
5 7 8 10 11 12 rings
6 10 11 13 14 15 16 rings

>  <PUBCHEM_HEAVY_ATOM_COUNT>  (1) 
17

>  <PUBCHEM_ATOM_DEF_STEREO_COUNT>  (1) 
0

>  <PUBCHEM_ATOM_UDEF_STEREO_COUNT>  (1) 
0

>  <PUBCHEM_BOND_DEF_STEREO_COUNT>  (1) 
0

>  <PUBCHEM_BOND_UDEF_STEREO_COUNT>  (1) 
0

>  <PUBCHEM_ISOTOPIC_ATOM_COUNT>  (1) 
0

>  <PUBCHEM_COMPONENT_COUNT>  (1) 
1

>  <PUBCHEM_CACTVS_TAUTO_COUNT>  (1) 
2

>  <PUBCHEM_CONFORMER_ID>  (1) 
00005A3300000001

>  <PUBCHEM_MMFF94_ENERGY>  (1) 
27.5551

>  <PUBCHEM_FEATURE_SELFOVERLAP>  (1) 
40.783

>  <PUBCHEM_SHAPE_FINGERPRINT>  (1) 
10411042 1 17473826607300728078
10608611 8 18270959171467740080
10922049 32 18411704266236548839
10967382 1 18410855421510671719
11132069 177 18410570708344780848
11543360 7 15625928876615676433
12173636 292 18411131442036971037
12500047 106 18341047510268296906
12592029 89 18335141934299532923
13380535 76 18413390929736978119
13544592 145 18272942592013421750
14115302 16 18409455816523572580
14178342 30 18192977439181736514
14897335 6 18411416202526629631
14943859 89 18343299271232032699
15042514 8 18264492969639871555
15196674 1 18410573980867052839
15279308 132 18341890818364383963
15309172 13 18411145710044935267
15669948 3 18264487459053977054
16945 1 18266459982550086850
18186145 218 18270125604003799349
193761 8 17834113430849150373
200 152 15339125619543987500
20279233 1 17775290486650072334
20510252 161 18272373087675889889
20602899 9 15841838866902829047
20645476 183 18115323274606889206
20645477 56 18411417358041637400
212916 134 18270660031158510274
21501502 16 18047188837067804420
21524375 3 18334574629407301139
23366157 5 17826520955072606339
23402539 116 18272079487684833517
23402655 69 18270670966936659773
23557571 272 18056208092532901396
23558518 356 17756140446899864856
23559900 14 18272090526700278260
2748010 2 18338533957794034271
298252 57 18409446986023566819
3071541 12 17907582424218486347
3091708 16 9123444559401191835
366044 4 18410011031219840075
43471831 8 18336543807519890203
474 4 16662344025100241980
474229 33 18409451414662369283
495365 180 17418083326640711466
4990 188 17917716768540602708
5104073 3 18410573989567790690
53812653 166 18342452655647085904
54173680 148 18121500412684098347
633830 44 18129100031007210357
6430166 295 18409164394175750800
69090 78 18412539920648147159
7364860 26 18052256189644307415
81228 2 17904185268153845363
81539 233 18262797346526062799
9709674 26 18271811271678724318

>  <PUBCHEM_SHAPE_MULTIPOLES>  (1) 
307.29
7.51
2.54
0.68
1.95
2.67
0
-3.9
0.01
-1.49
0
0.38
-0.05
0

>  <PUBCHEM_SHAPE_SELFOVERLAP>  (1) 
661.143

>  <PUBCHEM_SHAPE_VOLUME>  (1) 
175.3

>  <PUBCHEM_COORDINATE_TYPE>  (1) 
2
5
10

$$$$
