23115
     RDKit          3D

 14 16  0  0  0  0  0  0  0  0999 V2000
    0.0002    2.8472    0.8792 Cl  0  0  0  0  0  0  0  0  0  0  0  0
    0.0000    1.6023   -0.3780 C   0  0  0  0  0  0  0  0  0  0  0  0
   -1.1779    0.6618   -0.2135 C   0  0  0  0  0  0  0  0  0  0  0  0
    1.1779    0.6617   -0.2137 C   0  0  0  0  0  0  0  0  0  0  0  0
   -0.7237   -0.6559    0.0227 C   0  0  0  0  0  0  0  0  0  0  0  0
    0.7237   -0.6559    0.0228 C   0  0  0  0  0  0  0  0  0  0  0  0
   -2.5305    0.9532   -0.2873 C   0  0  0  0  0  0  0  0  0  0  0  0
    2.5305    0.9531   -0.2877 C   0  0  0  0  0  0  0  0  0  0  0  0
   -1.6260   -1.6921    0.2001 C   0  0  0  0  0  0  0  0  0  0  0  0
    1.6259   -1.6920    0.2006 C   0  0  0  0  0  0  0  0  0  0  0  0
   -3.4394   -0.0911   -0.1077 C   0  0  0  0  0  0  0  0  0  0  0  0
    3.4393   -0.0912   -0.1079 C   0  0  0  0  0  0  0  0  0  0  0  0
   -2.9916   -1.4005    0.1350 C   0  0  0  0  0  0  0  0  0  0  0  0
    2.9916   -1.4005    0.1353 C   0  0  0  0  0  0  0  0  0  0  0  0
  1  2  1  0
  2  3  1  0
  2  4  1  0
  3  5  2  0
  3  7  1  0
  4  6  2  0
  4  8  1  0
  5  6  1  0
  5  9  1  0
  6 10  1  0
  7 11  2  0
  8 12  2  0
  9 13  2  0
 10 14  2  0
 11 13  1  0
 12 14  1  0
M  END
>  <PUBCHEM_COMPOUND_CID>  (1) 
23115

>  <PUBCHEM_CONFORMER_RMSD>  (1) 
0.4

>  <PUBCHEM_CONFORMER_DIVERSEORDER>  (1) 
1

>  <PUBCHEM_MMFF94_PARTIAL_CHARGES>  (1) 
20
1 -0.29
10 -0.15
11 -0.15
12 -0.15
13 -0.15
14 -0.15
16 0.15
17 0.15
18 0.15
19 0.15
2 0.58
20 0.15
21 0.15
22 0.15
23 0.15
3 -0.14
4 -0.14
7 -0.15
8 -0.15
9 -0.15

>  <PUBCHEM_EFFECTIVE_ROTOR_COUNT>  (1) 
0.2

>  <PUBCHEM_PHARMACOPHORE_FEATURES>  (1) 
3
5 2 3 4 5 6 rings
6 3 5 7 9 11 13 rings
6 4 6 8 10 12 14 rings

>  <PUBCHEM_HEAVY_ATOM_COUNT>  (1) 
14

>  <PUBCHEM_ATOM_DEF_STEREO_COUNT>  (1) 
0

>  <PUBCHEM_ATOM_UDEF_STEREO_COUNT>  (1) 
0

>  <PUBCHEM_BOND_DEF_STEREO_COUNT>  (1) 
0

>  <PUBCHEM_BOND_UDEF_STEREO_COUNT>  (1) 
0

>  <PUBCHEM_ISOTOPIC_ATOM_COUNT>  (1) 
0

>  <PUBCHEM_COMPONENT_COUNT>  (1) 
1

>  <PUBCHEM_CACTVS_TAUTO_COUNT>  (1) 
1

>  <PUBCHEM_CONFORMER_ID>  (1) 
00005A4B00000001

>  <PUBCHEM_MMFF94_ENERGY>  (1) 
46.1002

>  <PUBCHEM_FEATURE_SELFOVERLAP>  (1) 
15.386

>  <PUBCHEM_SHAPE_FINGERPRINT>  (1) 
10130415 120 18408601452759341363
10608611 8 18335697251916506405
108231 29 18339646749396905408
10967382 1 18265897054023879870
11132069 177 18409722971920900282
11471102 20 18408599284059391223
11769659 78 18333725806166907406
12032990 46 18410299107287023542
12382932 28 18412262817858265338
13140716 1 18409729517277213730
14144814 61 18408886234919073987
14325111 11 18407760334895978982
15001771 113 18338241453304065808
15076042 46 18198059170991553004
15196674 1 18408323284849484695
15375462 189 18261116257370801779
15442244 35 18121217567670569786
15536298 74 18412545414359568750
16945 1 18260829301836492540
17844478 74 17821737121813715861
193761 8 17474106501644116399
200 152 18201709687557189951
20201158 50 18407476660912148727
20510252 161 18198621038613527856
20588541 1 18408042931006924855
21029758 11 18341885295284653181
21267235 1 18336555957597293986
21501502 16 18408042930964746351
22721475 48 18335424598929014279
2334 1 18409730694103501174
23402539 116 18201427031110798117
23463225 33 18335139782515304606
23552423 10 18186523223789335070
23559900 14 18339917101073171850
2748010 2 18410290341269055662
3312278 4 18409170991334999872
34934 24 18411409631194862398
353137 74 18190457169029871704
5104073 3 18407759235394901530
528886 8 18409443695930645298
53812653 166 18269271433872091536
5493415 88 18337670944160555491
63268167 104 18409452517919922537
7364860 26 18125720333847386025
81228 2 18196102044610457568
8809292 202 18187369839063455194

>  <PUBCHEM_SHAPE_MULTIPOLES>  (1) 
289.98
5.12
2.37
0.72
0
1.07
-0.05
-1.7
0.24
0
-0.54
0
0.18
0

>  <PUBCHEM_SHAPE_SELFOVERLAP>  (1) 
642.921

>  <PUBCHEM_SHAPE_VOLUME>  (1) 
152

>  <PUBCHEM_COORDINATE_TYPE>  (1) 
2
5
10

$$$$
