23111
     RDKit          3D

 16 19  0  0  0  0  0  0  0  0999 V2000
    0.7074   -0.0019   -0.0004 C   0  0  0  0  0  0  0  0  0  0  0  0
   -0.7075   -0.0019    0.0005 C   0  0  0  0  0  0  0  0  0  0  0  0
    0.7046    2.5060    0.2961 C   0  0  0  0  0  0  0  0  0  0  0  0
   -0.7047    2.5061   -0.2960 C   0  0  0  0  0  0  0  0  0  0  0  0
    1.4365    1.2058    0.0652 C   0  0  0  0  0  0  0  0  0  0  0  0
   -1.4366    1.2058   -0.0652 C   0  0  0  0  0  0  0  0  0  0  0  0
    1.4123   -1.2282   -0.0411 C   0  0  0  0  0  0  0  0  0  0  0  0
   -1.4122   -1.2282    0.0411 C   0  0  0  0  0  0  0  0  0  0  0  0
    2.8366    1.1891    0.0459 C   0  0  0  0  0  0  0  0  0  0  0  0
   -2.8366    1.1891   -0.0459 C   0  0  0  0  0  0  0  0  0  0  0  0
    0.6969   -2.4319   -0.0295 C   0  0  0  0  0  0  0  0  0  0  0  0
   -0.6967   -2.4319    0.0295 C   0  0  0  0  0  0  0  0  0  0  0  0
    2.8155   -1.2200   -0.0752 C   0  0  0  0  0  0  0  0  0  0  0  0
   -2.8155   -1.2201    0.0752 C   0  0  0  0  0  0  0  0  0  0  0  0
    3.5215   -0.0188   -0.0403 C   0  0  0  0  0  0  0  0  0  0  0  0
   -3.5215   -0.0189    0.0402 C   0  0  0  0  0  0  0  0  0  0  0  0
  1  2  1  0
  1  5  2  0
  1  7  1  0
  2  6  2  0
  2  8  1  0
  3  4  1  0
  3  5  1  0
  4  6  1  0
  5  9  1  0
  6 10  1  0
  7 11  1  0
  7 13  2  0
  8 12  1  0
  8 14  2  0
  9 15  2  0
 10 16  2  0
 11 12  2  0
 13 15  1  0
 14 16  1  0
M  END
>  <PUBCHEM_COMPOUND_CID>  (1) 
23111

>  <PUBCHEM_CONFORMER_RMSD>  (1) 
0.4

>  <PUBCHEM_CONFORMER_DIVERSEORDER>  (1) 
1

>  <PUBCHEM_MMFF94_PARTIAL_CHARGES>  (1) 
20
10 -0.15
11 -0.15
12 -0.15
13 -0.15
14 -0.15
15 -0.15
16 -0.15
21 0.15
22 0.15
23 0.15
24 0.15
25 0.15
26 0.15
27 0.15
28 0.15
3 0.14
4 0.14
5 -0.14
6 -0.14
9 -0.15

>  <PUBCHEM_EFFECTIVE_ROTOR_COUNT>  (1) 
0.4

>  <PUBCHEM_PHARMACOPHORE_FEATURES>  (1) 
4
6 1 2 3 4 5 6 rings
6 1 2 7 8 11 12 rings
6 1 5 7 9 13 15 rings
6 2 6 8 10 14 16 rings

>  <PUBCHEM_HEAVY_ATOM_COUNT>  (1) 
16

>  <PUBCHEM_ATOM_DEF_STEREO_COUNT>  (1) 
0

>  <PUBCHEM_ATOM_UDEF_STEREO_COUNT>  (1) 
0

>  <PUBCHEM_BOND_DEF_STEREO_COUNT>  (1) 
0

>  <PUBCHEM_BOND_UDEF_STEREO_COUNT>  (1) 
0

>  <PUBCHEM_ISOTOPIC_ATOM_COUNT>  (1) 
0

>  <PUBCHEM_COMPONENT_COUNT>  (1) 
1

>  <PUBCHEM_CACTVS_TAUTO_COUNT>  (1) 
1

>  <PUBCHEM_CONFORMER_ID>  (1) 
00005A4700000001

>  <PUBCHEM_MMFF94_ENERGY>  (1) 
51.6257

>  <PUBCHEM_FEATURE_SELFOVERLAP>  (1) 
20.421

>  <PUBCHEM_SHAPE_FINGERPRINT>  (1) 
10608611 8 18410852165888570560
10967382 1 18410573998041653763
11132069 177 18412538808277790040
11471102 20 18410851049697928365
11680986 33 18049723224143778347
12382932 28 18411418392912270168
13140716 1 18410856512400431026
13221675 6 18410575084668509574
13380535 76 18410571786128598339
13897977 150 18410571747779503549
14614273 12 18116428133537448957
14790565 3 18338818756812181476
15196674 1 18410575084663085414
16945 1 18410570686616580806
193761 8 17762338011445570218
19591789 44 18410578383198553378
20510252 161 18271525308334465424
20588541 1 18410577283686353964
20905425 154 18124596375371308398
21267235 1 18410865355733188546
21501502 16 18410573972266575239
22721475 48 18410578383198131141
2334 1 18410855494487906662
23402539 116 18342727529470202126
23419403 2 16042164503773061721
23463225 33 18408039606791869504
23559900 14 18342746260793452676
238 59 17685168904225900805
2748010 2 18410574010931811015
2897 32 18121220878931833052
335352 9 18050286972739531903
5104073 3 18410575084668367666
528886 8 18411414016388139706
53812653 166 18341610429814023464
589210 1 17690280834008894521
7364860 26 18126004007884463904
8809292 202 18333736809836216242

>  <PUBCHEM_SHAPE_MULTIPOLES>  (1) 
329.27
4.86
2.87
0.63
0
0.14
0
-0.03
0
0
0
0
0.03
0.15

>  <PUBCHEM_SHAPE_SELFOVERLAP>  (1) 
760.643

>  <PUBCHEM_SHAPE_VOLUME>  (1) 
153.4

>  <PUBCHEM_COORDINATE_TYPE>  (1) 
2
5
10

$$$$
