23114
     RDKit          3D

 13 13  0  0  0  0  0  0  0  0999 V2000
   -2.1961   -0.4572    0.0360 C   0  0  0  0  0  0  0  0  0  0  0  0
   -0.7349    0.0153   -0.0420 C   0  0  0  0  0  0  0  0  0  0  0  0
   -3.0203    0.2167   -1.0822 C   0  0  0  0  0  0  0  0  0  0  0  0
   -2.7934   -0.0752    1.4077 C   0  0  0  0  0  0  0  0  0  0  0  0
   -2.3687   -1.9844   -0.1272 C   0  0  0  0  0  0  0  0  0  0  0  0
    0.2442   -0.9255   -0.2414 C   0  0  0  0  0  0  0  0  0  0  0  0
   -0.4758    1.3564    0.0926 C   0  0  0  0  0  0  0  0  0  0  0  0
    1.5698   -0.4970   -0.3111 C   0  0  0  0  0  0  0  0  0  0  0  0
    0.8499    1.7848    0.0228 C   0  0  0  0  0  0  0  0  0  0  0  0
    1.8726    0.8583   -0.1789 C   0  0  0  0  0  0  0  0  0  0  0  0
    2.6635   -1.4881   -0.5267 C   0  0  0  0  0  0  0  0  0  0  0  0
    1.1737    3.2340    0.1645 C   0  0  0  0  0  0  0  0  0  0  0  0
    3.2155   -2.0380    0.7859 C   0  0  0  0  0  0  0  0  0  0  0  0
  1  2  1  0
  1  3  1  0
  1  4  1  0
  1  5  1  0
  2  6  2  0
  2  7  1  0
  6  8  1  0
  7  9  2  0
  8 10  2  0
  8 11  1  0
  9 10  1  0
  9 12  1  0
 11 13  1  0
M  END
>  <PUBCHEM_COMPOUND_CID>  (1) 
23114

>  <PUBCHEM_CONFORMER_RMSD>  (1) 
0.6

>  <PUBCHEM_CONFORMER_DIVERSEORDER>  (1) 
1
4
2
3

>  <PUBCHEM_MMFF94_PARTIAL_CHARGES>  (1) 
12
1 0.14
10 -0.15
11 0.14
12 0.14
2 -0.14
23 0.15
24 0.15
25 0.15
6 -0.15
7 -0.15
8 -0.14
9 -0.14

>  <PUBCHEM_EFFECTIVE_ROTOR_COUNT>  (1) 
2

>  <PUBCHEM_PHARMACOPHORE_FEATURES>  (1) 
3
1 13 hydrophobe
4 1 3 4 5 hydrophobe
6 2 6 7 8 9 10 rings

>  <PUBCHEM_HEAVY_ATOM_COUNT>  (1) 
13

>  <PUBCHEM_ATOM_DEF_STEREO_COUNT>  (1) 
0

>  <PUBCHEM_ATOM_UDEF_STEREO_COUNT>  (1) 
0

>  <PUBCHEM_BOND_DEF_STEREO_COUNT>  (1) 
0

>  <PUBCHEM_BOND_UDEF_STEREO_COUNT>  (1) 
0

>  <PUBCHEM_ISOTOPIC_ATOM_COUNT>  (1) 
0

>  <PUBCHEM_COMPONENT_COUNT>  (1) 
1

>  <PUBCHEM_CACTVS_TAUTO_COUNT>  (1) 
1

>  <PUBCHEM_CONFORMER_ID>  (1) 
00005A4A00000001

>  <PUBCHEM_MMFF94_ENERGY>  (1) 
39.8026

>  <PUBCHEM_FEATURE_SELFOVERLAP>  (1) 
15.223

>  <PUBCHEM_SHAPE_FINGERPRINT>  (1) 
1 1 18050849119745429052
10130415 120 18335421205815199155
11357001 24 17903639575431416346
12202030 40 17168440370757588603
12553582 1 18339652122496477238
12932764 1 18261402186323686511
14648413 74 18336541728671075877
15375462 189 18262252065820255410
16945 1 18339645649685077188
17841504 4 18409172138001772675
17990270 104 18338514252235809466
20361792 2 18341613668235279870
20645477 70 18197496427645552879
20711985 344 17906168456333066104
20871998 184 17911237222212064774
20871998 22 18271254798467199094
21130352 189 18410848828798987661
21501502 16 18269278031295207943
21524375 3 17622164989484032980
21650355 55 18193541282398619554
2334 1 18411705348547175964
23402539 116 17982994679561103927
23552423 10 18267590302088839095
23598294 1 17977392633611009546
2748010 2 18340200778830165220
305870 269 18051968413997903488
3071541 236 17469315938230255472
31174 14 18191323743491360835
458136 41 17830479505864075712
5493415 88 18408318891177315546
5902787 121 18407475565912006626
63268167 104 18411704326218112153
6338986 31 18339348661492325710
7364860 26 18270120261285931628
74978 22 18412265055916105983
81228 2 17907583527861538216

>  <PUBCHEM_SHAPE_MULTIPOLES>  (1) 
267.53
4.75
2.76
0.95
0.69
1.7
-0.14
-2.75
-0.29
-1.95
-0.24
0.47
-0.12
-0.15

>  <PUBCHEM_SHAPE_SELFOVERLAP>  (1) 
543.845

>  <PUBCHEM_SHAPE_VOLUME>  (1) 
156

>  <PUBCHEM_COORDINATE_TYPE>  (1) 
2
5
10

$$$$
