23112
     RDKit          3D

 11 10  0  0  0  0  0  0  0  0999 V2000
   -2.3343    0.4962    0.0001 O   0  0  0  0  0  0  0  0  0  0  0  0
    1.4983   -1.2895   -0.0125 O   0  0  0  0  0  0  0  0  0  0  0  0
   -1.3077   -1.5587    0.0033 O   0  0  0  0  0  0  0  0  0  0  0  0
   -0.0846    0.4228   -0.0119 N   0  0  0  0  0  0  0  0  0  0  0  0
    4.7070    0.0916    0.0337 N   0  0  0  0  0  0  0  0  0  0  0  0
   -3.6125   -0.1493    0.0104 C   0  0  0  0  0  0  0  0  0  0  0  0
   -4.6978    0.9061    0.0121 C   0  0  0  0  0  0  0  0  0  0  0  0
    1.2129   -0.0950   -0.0164 C   0  0  0  0  0  0  0  0  0  0  0  0
   -1.2485   -0.3334   -0.0026 C   0  0  0  0  0  0  0  0  0  0  0  0
    2.2474    1.0128   -0.0246 C   0  0  0  0  0  0  0  0  0  0  0  0
    3.6198    0.4964    0.0083 C   0  0  0  0  0  0  0  0  0  0  0  0
  1  6  1  0
  1  9  1  0
  2  8  2  0
  3  9  2  0
  4  8  1  0
  4  9  1  0
  5 11  3  0
  6  7  1  0
  8 10  1  0
 10 11  1  0
M  END
>  <PUBCHEM_COMPOUND_CID>  (1) 
23112

>  <PUBCHEM_CONFORMER_RMSD>  (1) 
0.6

>  <PUBCHEM_CONFORMER_DIVERSEORDER>  (1) 
1
10
36
11
38
31
27
14
24
6
34
35
22
20
25
37
30
7
26
2
39
3
17
8
13
16
15
29
28
18
19
5
12
32
9
4
23
33
21

>  <PUBCHEM_MMFF94_PARTIAL_CHARGES>  (1) 
11
1 -0.43
10 0.26
11 0.36
17 0.37
2 -0.57
3 -0.57
4 -0.49
5 -0.56
6 0.28
8 0.57
9 0.78

>  <PUBCHEM_EFFECTIVE_ROTOR_COUNT>  (1) 
5

>  <PUBCHEM_PHARMACOPHORE_FEATURES>  (1) 
4
1 2 acceptor
1 3 acceptor
1 4 donor
1 5 acceptor

>  <PUBCHEM_HEAVY_ATOM_COUNT>  (1) 
11

>  <PUBCHEM_ATOM_DEF_STEREO_COUNT>  (1) 
0

>  <PUBCHEM_ATOM_UDEF_STEREO_COUNT>  (1) 
0

>  <PUBCHEM_BOND_DEF_STEREO_COUNT>  (1) 
0

>  <PUBCHEM_BOND_UDEF_STEREO_COUNT>  (1) 
0

>  <PUBCHEM_ISOTOPIC_ATOM_COUNT>  (1) 
0

>  <PUBCHEM_COMPONENT_COUNT>  (1) 
1

>  <PUBCHEM_CACTVS_TAUTO_COUNT>  (1) 
3

>  <PUBCHEM_CONFORMER_ID>  (1) 
00005A4800000001

>  <PUBCHEM_MMFF94_ENERGY>  (1) 
10.8391

>  <PUBCHEM_FEATURE_SELFOVERLAP>  (1) 
20.301

>  <PUBCHEM_SHAPE_FINGERPRINT>  (1) 
11062470 55 18060420218019764869
12932764 1 16009574906433155340
13380535 76 18411983567675068582
14252887 29 12035724280524401400
14325111 11 18410575131934105934
14897335 6 18413106164852066511
15477762 27 9439404635852920856
15501527 16 18410577284140411489
17834076 25 18410856559650456029
20645477 70 18271243799066711647
20719005 15 18410575106290889705
21119208 17 18060420222383355972
21293036 1 13901908912080689400
22485316 2 9655581798775434637
23402539 116 18202557380582920197
23402655 69 18201715111995415581
366044 4 18411136939853799771
42788 4 18411136939431702624

>  <PUBCHEM_SHAPE_MULTIPOLES>  (1) 
198.8
8.83
1.14
0.57
0.96
0.27
0
-2.51
0.1
0.19
0
0.02
-0.02
0

>  <PUBCHEM_SHAPE_SELFOVERLAP>  (1) 
378.066

>  <PUBCHEM_SHAPE_VOLUME>  (1) 
119.4

>  <PUBCHEM_COORDINATE_TYPE>  (1) 
2
5
10

$$$$
