23113
     RDKit          3D

 18 19  0  0  0  0  0  0  0  0999 V2000
   -0.0854    0.4095   -0.6129 O   0  0  0  0  0  0  0  0  0  0  0  0
   -2.4062   -2.6605    0.7762 O   0  0  0  0  0  0  0  0  0  0  0  0
    0.2758    0.6578    1.6761 O   0  0  0  0  0  0  0  0  0  0  0  0
   -0.7382   -2.2688   -0.7173 O   0  0  0  0  0  0  0  0  0  0  0  0
    3.8204   -0.1081   -1.4173 N   0  0  0  0  0  0  0  0  0  0  0  0
   -1.4202    0.5815   -0.3982 C   0  0  0  0  0  0  0  0  0  0  0  0
   -2.2491   -0.5083   -0.1324 C   0  0  0  0  0  0  0  0  0  0  0  0
   -1.9548    1.8689   -0.4464 C   0  0  0  0  0  0  0  0  0  0  0  0
   -3.6127   -0.3108    0.0851 C   0  0  0  0  0  0  0  0  0  0  0  0
    2.1336    0.2785    0.2304 C   0  0  0  0  0  0  0  0  0  0  0  0
   -3.3183    2.0666   -0.2287 C   0  0  0  0  0  0  0  0  0  0  0  0
   -4.1472    0.9767    0.0370 C   0  0  0  0  0  0  0  0  0  0  0  0
    0.6950    0.4744    0.5432 C   0  0  0  0  0  0  0  0  0  0  0  0
    3.0625    0.2994    1.2422 C   0  0  0  0  0  0  0  0  0  0  0  0
   -1.7116   -1.8607   -0.0775 C   0  0  0  0  0  0  0  0  0  0  0  0
    2.5286    0.0773   -1.0647 C   0  0  0  0  0  0  0  0  0  0  0  0
    4.4019    0.1124    0.9189 C   0  0  0  0  0  0  0  0  0  0  0  0
    4.7259   -0.0857   -0.4136 C   0  0  0  0  0  0  0  0  0  0  0  0
  1  6  1  0
  1 13  1  0
  2 15  1  0
  3 13  2  0
  4 15  2  0
  5 16  2  0
  5 18  1  0
  6  7  2  0
  6  8  1  0
  7  9  1  0
  7 15  1  0
  8 11  2  0
  9 12  2  0
 10 13  1  0
 10 14  2  0
 10 16  1  0
 11 12  1  0
 14 17  1  0
 17 18  2  0
M  END
>  <PUBCHEM_COMPOUND_CID>  (1) 
23113

>  <PUBCHEM_CONFORMER_RMSD>  (1) 
0.6

>  <PUBCHEM_CONFORMER_DIVERSEORDER>  (1) 
1
94
80
48
77
75
104
4
65
108
59
121
45
64
87
18
105
60
106
111
55
52
101
31
73
125
103
90
119
88
28
61
56
114
93
47
99
117
115
89
54
98
74
86
30
97
123
3
95
53
57
113
67
50
122
76
15
43
81
110
26
78
71
79
66
20
42
63
51
102
62
38
10
44
23
49
25
68
9
118
24
46
120
100
40
12
58
11
91
84
36
37
124
82
109
127
39
22
7
35
5
85
70
69
14
107
83
92
116
34
13
6
112
19
29
21
17
27
8
32
96
126
2
16
33
41
72

>  <PUBCHEM_MMFF94_PARTIAL_CHARGES>  (1) 
27
1 -0.23
10 0.09
11 -0.15
12 -0.15
13 0.63
14 -0.15
15 0.63
16 0.16
17 -0.15
18 0.16
19 0.15
2 -0.65
20 0.15
21 0.15
22 0.15
23 0.15
24 0.15
25 0.15
26 0.15
27 0.5
3 -0.57
4 -0.57
5 -0.62
6 0.08
7 0.09
8 -0.15
9 -0.15

>  <PUBCHEM_EFFECTIVE_ROTOR_COUNT>  (1) 
4

>  <PUBCHEM_PHARMACOPHORE_FEATURES>  (1) 
7
1 2 acceptor
1 3 acceptor
1 4 acceptor
1 5 acceptor
3 2 4 15 anion
6 5 10 14 16 17 18 rings
6 6 7 8 9 11 12 rings

>  <PUBCHEM_HEAVY_ATOM_COUNT>  (1) 
18

>  <PUBCHEM_ATOM_DEF_STEREO_COUNT>  (1) 
0

>  <PUBCHEM_ATOM_UDEF_STEREO_COUNT>  (1) 
0

>  <PUBCHEM_BOND_DEF_STEREO_COUNT>  (1) 
0

>  <PUBCHEM_BOND_UDEF_STEREO_COUNT>  (1) 
0

>  <PUBCHEM_ISOTOPIC_ATOM_COUNT>  (1) 
0

>  <PUBCHEM_COMPONENT_COUNT>  (1) 
1

>  <PUBCHEM_CACTVS_TAUTO_COUNT>  (1) 
1

>  <PUBCHEM_CONFORMER_ID>  (1) 
00005A4900000001

>  <PUBCHEM_MMFF94_ENERGY>  (1) 
62.7117

>  <PUBCHEM_FEATURE_SELFOVERLAP>  (1) 
35.58

>  <PUBCHEM_SHAPE_FINGERPRINT>  (1) 
10616163 171 18334577970728697506
11615757 297 15719392823974995716
12173636 292 18264199219324524949
12236239 1 17458345229924558589
12346177 29 18270952535685089807
12403814 3 17458340819283263797
12500047 106 18412820266243423486
12592029 89 18188497865137111739
12714826 92 18341341100931154746
13296908 3 17704072919332241296
13544592 145 18130232553785096398
13862211 1 18337106886934305383
14115302 16 18412548721220850404
14386348 63 17703793630599463950
15042514 8 18335988679097579699
15375358 24 17703784821537072224
15653759 3 18201435900102342928
16752209 62 18335968844558571151
16945 1 18335136505650293537
17804303 29 18411982502881498561
18186145 218 17988642947881146536
19049666 15 17988649532181776446
19422 9 17603586330744432881
200 152 15429751782989448733
20279233 1 17775284971748546974
20645476 183 18113618971665108507
20645477 56 18411135827161994388
20645477 70 16773800260439979828
22224240 67 18339932533165129473
23175994 123 17346602975643162569
23402539 116 18340194246485471709
23526113 38 17561074787456424162
23557571 272 18341891918129810344
23559900 14 18201441346827580814
23598291 2 17822296837524888566
26918003 58 17847058874854559362
2838139 119 15481843260133349409
4175511 318 17894904114494181117
474 4 16807025453037544796
58051976 100 18333733524433920718
59755656 215 18341888589946731767
602551 16 18410007771455648578
77492 1 17458341948659065796
9709674 26 18272371970852829358

>  <PUBCHEM_SHAPE_MULTIPOLES>  (1) 
341.97
8.61
1.94
1.14
5.81
1.07
-0.12
-1.39
0.19
-2.71
0.01
1.01
-0.03
0.44

>  <PUBCHEM_SHAPE_SELFOVERLAP>  (1) 
746.133

>  <PUBCHEM_SHAPE_VOLUME>  (1) 
182.3

>  <PUBCHEM_COORDINATE_TYPE>  (1) 
2
5
10

$$$$
