23116
     RDKit          3D

 19 20  0  0  0  0  0  0  0  0999 V2000
    5.1509   -2.9856   -0.4536 Cl  0  0  0  0  0  0  0  0  0  0  0  0
    2.3748    2.6119    0.2952 S   0  0  0  0  0  0  0  0  0  0  0  0
   -5.7503   -0.3937   -1.1206 O   0  0  0  0  0  0  0  0  0  0  0  0
   -5.4517   -1.7444    0.5894 O   0  0  0  0  0  0  0  0  0  0  0  0
    0.1236    1.2303    0.5519 N   0  0  0  0  0  0  0  0  0  0  0  0
   -5.0464   -0.8461   -0.1862 N   0  0  0  0  0  0  0  0  0  0  0  0
   -1.1737    0.7091    0.3665 C   0  0  0  0  0  0  0  0  0  0  0  0
    0.6796    2.2565   -0.2796 C   0  0  0  0  0  0  0  0  0  0  0  0
   -1.9789    1.1929   -0.6644 C   0  0  0  0  0  0  0  0  0  0  0  0
   -1.6518   -0.2900    1.2145 C   0  0  0  0  0  0  0  0  0  0  0  0
   -3.7402   -0.3216    0.0002 C   0  0  0  0  0  0  0  0  0  0  0  0
    3.1644    1.0201    0.0823 C   0  0  0  0  0  0  0  0  0  0  0  0
   -3.2621    0.6777   -0.8476 C   0  0  0  0  0  0  0  0  0  0  0  0
   -2.9349   -0.8055    1.0314 C   0  0  0  0  0  0  0  0  0  0  0  0
    3.2247    0.4435   -1.1823 C   0  0  0  0  0  0  0  0  0  0  0  0
    3.7127    0.3691    1.1828 C   0  0  0  0  0  0  0  0  0  0  0  0
    3.8398   -0.7973   -1.3482 C   0  0  0  0  0  0  0  0  0  0  0  0
    4.3280   -0.8717    1.0169 C   0  0  0  0  0  0  0  0  0  0  0  0
    4.3916   -1.4550   -0.2487 C   0  0  0  0  0  0  0  0  0  0  0  0
  1 19  1  0
  2  8  1  0
  2 12  1  0
  3  6  1  0
  4  6  2  0
  5  7  1  0
  5  8  1  0
  6 11  1  0
  7  9  2  0
  7 10  1  0
  9 13  1  0
 10 14  2  0
 11 13  2  0
 11 14  1  0
 12 15  2  0
 12 16  1  0
 15 17  1  0
 16 18  2  0
 17 19  2  0
 18 19  1  0
M  CHG  2   3  -1   6   1
M  END
>  <PUBCHEM_COMPOUND_CID>  (1) 
23116

>  <PUBCHEM_CONFORMER_RMSD>  (1) 
0.6

>  <PUBCHEM_CONFORMER_DIVERSEORDER>  (1) 
1
23
7
10
3
15
8
24
20
18
4
22
2
9
6
5
11
21
12
17
13
14
16
19

>  <PUBCHEM_MMFF94_PARTIAL_CHARGES>  (1) 
28
1 -0.18
10 -0.15
11 0.13
12 0.1
13 -0.15
14 -0.15
15 -0.15
16 -0.15
17 -0.15
18 -0.15
19 0.18
2 -0.33
22 0.4
23 0.15
24 0.15
25 0.15
26 0.15
27 0.15
28 0.15
29 0.15
3 -0.52
30 0.15
4 -0.52
5 -0.87
6 0.91
7 0.1
8 0.6
9 -0.15

>  <PUBCHEM_EFFECTIVE_ROTOR_COUNT>  (1) 
5

>  <PUBCHEM_PHARMACOPHORE_FEATURES>  (1) 
7
1 3 acceptor
1 3 anion
1 4 acceptor
1 5 cation
1 5 donor
6 12 15 16 17 18 19 rings
6 7 9 10 11 13 14 rings

>  <PUBCHEM_HEAVY_ATOM_COUNT>  (1) 
19

>  <PUBCHEM_ATOM_DEF_STEREO_COUNT>  (1) 
0

>  <PUBCHEM_ATOM_UDEF_STEREO_COUNT>  (1) 
0

>  <PUBCHEM_BOND_DEF_STEREO_COUNT>  (1) 
0

>  <PUBCHEM_BOND_UDEF_STEREO_COUNT>  (1) 
0

>  <PUBCHEM_ISOTOPIC_ATOM_COUNT>  (1) 
0

>  <PUBCHEM_COMPONENT_COUNT>  (1) 
1

>  <PUBCHEM_CACTVS_TAUTO_COUNT>  (1) 
1

>  <PUBCHEM_CONFORMER_ID>  (1) 
00005A4C00000001

>  <PUBCHEM_MMFF94_ENERGY>  (1) 
60.3346

>  <PUBCHEM_FEATURE_SELFOVERLAP>  (1) 
35.6

>  <PUBCHEM_SHAPE_FINGERPRINT>  (1) 
10498660 4 10665239133237918318
11595378 159 15554180219543468089
11720765 8 11819542681760358506
12363563 72 18339649940990350104
12596602 18 16056878060975787418
13533116 47 18201158857727093457
13955234 65 18056758951895675528
13965767 371 11527656429071647248
1420 369 18202284684476956470
14251740 57 18201721751962244062
14341114 328 14620501342458465326
14528608 73 11097854112079246361
14848160 33 18342738516196933772
14848178 96 8070026670810983054
14866123 147 18051697637890410921
15183329 4 17240476984127876871
15342168 16 8502370022914115248
15352361 1 18338800009885764398
15635459 17 18408888468708237008
17349148 13 17703799140868366501
17834072 32 9150588194603208678
1798214 55 9295278440092234080
193927 3 18343590620301640108
20369508 70 18334571378164673928
20403669 9 18409166601799412494
20645477 70 18336546113864424600
21279426 13 18187917362290843397
2215653 11 18333725836690335325
22224240 67 17916011542909458448
22849339 104 16515979171767145371
23557571 272 17603856828244470236
23559900 14 17967817188386456628
270888 7 8574129645639418998
3004659 81 17894911815560329476
3421961 26 18342174484086093520
3472631 163 10953751005604086418
38570 142 14475810079784774674
44062 13 18263360291889091909
465052 167 18342183288193881662
474 4 7997967968676747804
49207404 50 11384116358006493300
4990 188 18113893909838913689
5104073 3 17989210317329561865
5207 123 18410292471641581620
5374978 207 14476967799922644417
633830 44 7853572396614660984
76465 3 18341051822431227940
7808743 9 9726476114365305546
7970288 3 18340489946310165550
8988823 20 17131541838445014761
960060 61 17967257515693392956
9709674 26 18261113040282080337

>  <PUBCHEM_SHAPE_MULTIPOLES>  (1) 
375.03
13.07
2.52
1.23
8.24
0.02
0.01
-9.86
1.6
-2.92
0.09
-0.29
-0.11
0.94

>  <PUBCHEM_SHAPE_SELFOVERLAP>  (1) 
772.342

>  <PUBCHEM_SHAPE_VOLUME>  (1) 
217.9

>  <PUBCHEM_COORDINATE_TYPE>  (1) 
2
5
10

$$$$
