23126
     RDKit          3D

 15 17  0  0  0  0  0  0  0  0999 V2000
   -5.2642    0.4107   -0.0006 Br  0  0  0  0  0  0  0  0  0  0  0  0
    4.8511    0.3843   -0.0001 N   0  0  0  0  0  0  0  0  0  0  0  0
    0.0193    1.7820    0.0001 C   0  0  0  0  0  0  0  0  0  0  0  0
    1.2007    0.8344   -0.0001 C   0  0  0  0  0  0  0  0  0  0  0  0
   -1.1491    0.8186    0.0000 C   0  0  0  0  0  0  0  0  0  0  0  0
    0.7584   -0.5076   -0.0002 C   0  0  0  0  0  0  0  0  0  0  0  0
   -0.6887   -0.5174   -0.0001 C   0  0  0  0  0  0  0  0  0  0  0  0
    2.5476    1.1518   -0.0001 C   0  0  0  0  0  0  0  0  0  0  0  0
    1.6711   -1.5492   -0.0001 C   0  0  0  0  0  0  0  0  0  0  0  0
   -2.5003    1.1177    0.0004 C   0  0  0  0  0  0  0  0  0  0  0  0
   -1.5873   -1.5711    0.0001 C   0  0  0  0  0  0  0  0  0  0  0  0
    3.4674    0.1017    0.0000 C   0  0  0  0  0  0  0  0  0  0  0  0
    3.0336   -1.2353    0.0001 C   0  0  0  0  0  0  0  0  0  0  0  0
   -3.4058    0.0553    0.0004 C   0  0  0  0  0  0  0  0  0  0  0  0
   -2.9540   -1.2758    0.0002 C   0  0  0  0  0  0  0  0  0  0  0  0
  1 14  1  0
  2 12  1  0
  3  4  1  0
  3  5  1  0
  4  6  2  0
  4  8  1  0
  5  7  2  0
  5 10  1  0
  6  7  1  0
  6  9  1  0
  7 11  1  0
  8 12  2  0
  9 13  2  0
 10 14  2  0
 11 15  2  0
 12 13  1  0
 14 15  1  0
M  END
>  <PUBCHEM_COMPOUND_CID>  (1) 
23126

>  <PUBCHEM_CONFORMER_RMSD>  (1) 
0.4

>  <PUBCHEM_CONFORMER_DIVERSEORDER>  (1) 
1

>  <PUBCHEM_MMFF94_PARTIAL_CHARGES>  (1) 
21
1 -0.11
10 -0.15
11 -0.15
12 0.1
13 -0.15
14 0.11
15 -0.15
18 0.15
19 0.15
2 -0.9
20 0.15
21 0.15
22 0.15
23 0.15
24 0.4
25 0.4
3 0.29
4 -0.14
5 -0.14
8 -0.15
9 -0.15

>  <PUBCHEM_EFFECTIVE_ROTOR_COUNT>  (1) 
0.2

>  <PUBCHEM_PHARMACOPHORE_FEATURES>  (1) 
6
1 1 hydrophobe
1 2 cation
1 2 donor
5 3 4 5 6 7 rings
6 4 6 8 9 12 13 rings
6 5 7 10 11 14 15 rings

>  <PUBCHEM_HEAVY_ATOM_COUNT>  (1) 
15

>  <PUBCHEM_ATOM_DEF_STEREO_COUNT>  (1) 
0

>  <PUBCHEM_ATOM_UDEF_STEREO_COUNT>  (1) 
0

>  <PUBCHEM_BOND_DEF_STEREO_COUNT>  (1) 
0

>  <PUBCHEM_BOND_UDEF_STEREO_COUNT>  (1) 
0

>  <PUBCHEM_ISOTOPIC_ATOM_COUNT>  (1) 
0

>  <PUBCHEM_COMPONENT_COUNT>  (1) 
1

>  <PUBCHEM_CACTVS_TAUTO_COUNT>  (1) 
1

>  <PUBCHEM_CONFORMER_ID>  (1) 
00005A5600000001

>  <PUBCHEM_MMFF94_ENERGY>  (1) 
58.433

>  <PUBCHEM_FEATURE_SELFOVERLAP>  (1) 
30.61

>  <PUBCHEM_SHAPE_FINGERPRINT>  (1) 
10608611 8 18410851070682544040
10967382 1 18410856546754991623
11132069 177 18411132554433448480
11401426 45 18412822503705145733
11471102 20 18410853252567745279
12032990 46 18410862061498287426
12251169 10 18411983563522116785
13140716 1 18266175221907655320
13221675 6 18410575088974000395
13380535 76 18410857663494305655
14115302 16 18186812399600105775
14144814 61 18411138013157546627
14911166 2 18410852166347279333
15196674 1 18410856559666364711
15375358 24 18411136939495012647
15442244 35 18195246607431540906
15536298 74 18342739602401471426
16945 1 18410856568235135332
18186145 218 17749102305282285471
18522853 276 18413671305312583945
200 152 17989201560413159199
20201158 50 18410293609691876914
20510252 161 18200876154247603665
20528008 55 18413666915950764475
20645477 70 18340767035734558607
21029758 11 18343578538896662417
21267235 1 18410583872166458855
23402539 116 18201431480992452293
23402655 69 18342168930724788101
23463225 33 18408885135528557614
23559900 14 18341610434784243360
2748010 2 18411418431588152710
3312278 4 18411421725817519258
335352 9 18410856555350123453
34934 24 18411131450452987810
3545911 37 18410857659151423855
5104073 3 18410292557482750203
528886 8 18411414025168010842
537710 114 18411141333156976684
53812653 166 18342453768249324376
57005193 9 18410284809425193703
69090 78 18341890792837452423
7364860 26 18269273645854400672
8809292 202 18188494686792851211
9709674 26 18411705399807520575

>  <PUBCHEM_SHAPE_MULTIPOLES>  (1) 
309.65
8.36
1.68
0.62
2.41
0.13
0
-0.52
0
-0.11
0
0.08
0
0

>  <PUBCHEM_SHAPE_SELFOVERLAP>  (1) 
679.515

>  <PUBCHEM_SHAPE_VOLUME>  (1) 
172.6

>  <PUBCHEM_COORDINATE_TYPE>  (1) 
2
5
10

$$$$
