23128
     RDKit          3D

 10 10  0  0  0  0  0  0  0  0999 V2000
   -2.7537   -1.4893   -0.0004 Cl  0  0  0  0  0  0  0  0  0  0  0  0
    2.7073    1.5378   -0.0007 Cl  0  0  0  0  0  0  0  0  0  0  0  0
    2.5976   -1.6961    0.0000 Cl  0  0  0  0  0  0  0  0  0  0  0  0
   -1.2010    0.7500    0.0004 C   0  0  0  0  0  0  0  0  0  0  0  0
   -1.2486   -0.6441    0.0002 C   0  0  0  0  0  0  0  0  0  0  0  0
    0.0300    1.4059    0.0005 C   0  0  0  0  0  0  0  0  0  0  0  0
   -2.4460    1.5770   -0.0004 C   0  0  0  0  0  0  0  0  0  0  0  0
    1.2135    0.6676    0.0003 C   0  0  0  0  0  0  0  0  0  0  0  0
   -0.0651   -1.3824    0.0000 C   0  0  0  0  0  0  0  0  0  0  0  0
    1.1660   -0.7265    0.0001 C   0  0  0  0  0  0  0  0  0  0  0  0
  1  5  1  0
  2  8  1  0
  3 10  1  0
  4  5  2  0
  4  6  1  0
  4  7  1  0
  5  9  1  0
  6  8  2  0
  8 10  1  0
  9 10  2  0
M  END
>  <PUBCHEM_COMPOUND_CID>  (1) 
23128

>  <PUBCHEM_CONFORMER_RMSD>  (1) 
0.4

>  <PUBCHEM_CONFORMER_DIVERSEORDER>  (1) 
1

>  <PUBCHEM_MMFF94_PARTIAL_CHARGES>  (1) 
12
1 -0.18
10 0.18
11 0.15
12 0.15
2 -0.18
3 -0.18
4 -0.14
5 0.18
6 -0.15
7 0.14
8 0.18
9 -0.15

>  <PUBCHEM_EFFECTIVE_ROTOR_COUNT>  (1) 
0

>  <PUBCHEM_PHARMACOPHORE_FEATURES>  (1) 
1
6 4 5 6 8 9 10 rings

>  <PUBCHEM_HEAVY_ATOM_COUNT>  (1) 
10

>  <PUBCHEM_ATOM_DEF_STEREO_COUNT>  (1) 
0

>  <PUBCHEM_ATOM_UDEF_STEREO_COUNT>  (1) 
0

>  <PUBCHEM_BOND_DEF_STEREO_COUNT>  (1) 
0

>  <PUBCHEM_BOND_UDEF_STEREO_COUNT>  (1) 
0

>  <PUBCHEM_ISOTOPIC_ATOM_COUNT>  (1) 
0

>  <PUBCHEM_COMPONENT_COUNT>  (1) 
1

>  <PUBCHEM_CACTVS_TAUTO_COUNT>  (1) 
1

>  <PUBCHEM_CONFORMER_ID>  (1) 
00005A5800000001

>  <PUBCHEM_MMFF94_ENERGY>  (1) 
21.3755

>  <PUBCHEM_FEATURE_SELFOVERLAP>  (1) 
5.074

>  <PUBCHEM_SHAPE_FINGERPRINT>  (1) 
13380535 21 18338811055945622224
14128692 85 18338804424832569950
14325111 11 18410575093290242080
161256 15 18340496663216256646
16945 1 18194401323302039365
193761 8 18410855451543508453
19973954 147 18410855447248547656
21040471 1 18410573980893705920
21501502 16 18411138030321532939
2334 1 18410574006626287622
23402655 69 18341033204375708879
23552423 10 18333733511438359294
241688 4 18335701598407384409
2748010 2 18410573976561523221
5084963 1 18272651233704987627
68250623 7 18410859849590207943

>  <PUBCHEM_SHAPE_MULTIPOLES>  (1) 
211.4
4.08
2.23
0.63
0.08
0.04
0
0.24
0
0.21
0
0.01
0.01
0

>  <PUBCHEM_SHAPE_SELFOVERLAP>  (1) 
412.052

>  <PUBCHEM_SHAPE_VOLUME>  (1) 
124.9

>  <PUBCHEM_COORDINATE_TYPE>  (1) 
2
5
10

$$$$
