23125
     RDKit          3D

 41 44  0  0  0  0  0  0  0  0999 V2000
   -9.2987    2.0890   -0.6083 S   0  0  0  0  0  0  0  0  0  0  0  0
   -9.0758    2.6240   -2.1355 O   0  0  0  0  0  0  0  0  0  0  0  0
  -10.6930    1.6937   -0.4926 O   0  0  0  0  0  0  0  0  0  0  0  0
   -8.7209    3.0618    0.3032 O   0  0  0  0  0  0  0  0  0  0  0  0
   11.3883    1.2111   -0.1565 O   0  0  0  0  0  0  0  0  0  0  0  0
    9.5950   -2.3403   -1.1081 O   0  0  0  0  0  0  0  0  0  0  0  0
   11.3185   -1.0181   -1.7773 O   0  0  0  0  0  0  0  0  0  0  0  0
   -4.7749   -0.4100   -0.3755 N   0  0  0  0  0  0  0  0  0  0  0  0
   -4.3576   -0.2996    0.8007 N   0  0  0  0  0  0  0  0  0  0  0  0
   -6.2694    1.9516   -0.5726 N   0  0  0  0  0  0  0  0  0  0  0  0
   -6.0653   -2.8955   -0.1904 N   0  0  0  0  0  0  0  0  0  0  0  0
    5.4529    0.2614    0.8457 N   0  0  0  0  0  0  0  0  0  0  0  0
    5.8529    0.7983   -0.2133 N   0  0  0  0  0  0  0  0  0  0  0  0
   -0.1735   -0.0806    0.8167 C   0  0  0  0  0  0  0  0  0  0  0  0
   -8.3204    0.6409   -0.4869 C   0  0  0  0  0  0  0  0  0  0  0  0
   -8.2158   -1.7654   -0.2965 C   0  0  0  0  0  0  0  0  0  0  0  0
    1.2710    0.0022    0.8223 C   0  0  0  0  0  0  0  0  0  0  0  0
   -6.1790   -0.4708   -0.3814 C   0  0  0  0  0  0  0  0  0  0  0  0
   -6.9267    0.7019   -0.4800 C   0  0  0  0  0  0  0  0  0  0  0  0
   -6.8224   -1.7044   -0.2897 C   0  0  0  0  0  0  0  0  0  0  0  0
   -8.9648   -0.5928   -0.3952 C   0  0  0  0  0  0  0  0  0  0  0  0
   -2.1942   -1.4020    0.9043 C   0  0  0  0  0  0  0  0  0  0  0  0
   -0.8016   -1.3226    0.9091 C   0  0  0  0  0  0  0  0  0  0  0  0
   -2.9587   -0.2392    0.8071 C   0  0  0  0  0  0  0  0  0  0  0  0
    2.0321   -1.0458    0.3042 C   0  0  0  0  0  0  0  0  0  0  0  0
   -0.9377    1.0820    0.7193 C   0  0  0  0  0  0  0  0  0  0  0  0
    3.4246   -0.9653    0.3092 C   0  0  0  0  0  0  0  0  0  0  0  0
    1.9024    1.1304    1.3453 C   0  0  0  0  0  0  0  0  0  0  0  0
   -2.3304    1.0027    0.7146 C   0  0  0  0  0  0  0  0  0  0  0  0
    4.0561    0.1631    0.8323 C   0  0  0  0  0  0  0  0  0  0  0  0
   -8.9340   -3.0724   -0.2005 C   0  0  0  0  0  0  0  0  0  0  0  0
    3.2949    1.2110    1.3502 C   0  0  0  0  0  0  0  0  0  0  0  0
   -2.8445   -2.7430    1.0053 C   0  0  0  0  0  0  0  0  0  0  0  0
    4.2185   -2.0995   -0.2519 C   0  0  0  0  0  0  0  0  0  0  0  0
    7.2548    0.8973   -0.2001 C   0  0  0  0  0  0  0  0  0  0  0  0
    8.0255   -0.1403   -0.7154 C   0  0  0  0  0  0  0  0  0  0  0  0
    9.4168   -0.0410   -0.7037 C   0  0  0  0  0  0  0  0  0  0  0  0
    7.8613    2.0331    0.3267 C   0  0  0  0  0  0  0  0  0  0  0  0
   10.0304    1.0955   -0.1767 C   0  0  0  0  0  0  0  0  0  0  0  0
    9.2526    2.1326    0.3383 C   0  0  0  0  0  0  0  0  0  0  0  0
   10.2104   -1.1348   -1.2466 C   0  0  0  0  0  0  0  0  0  0  0  0
  1  2  1  0
  1  3  2  0
  1  4  2  0
  1 15  1  0
  5 39  1  0
  6 41  1  0
  7 41  2  0
  8  9  2  0
  8 18  1  0
  9 24  1  0
 10 19  1  0
 11 20  1  0
 12 13  2  0
 12 30  1  0
 13 35  1  0
 14 17  1  0
 14 23  1  0
 14 26  2  0
 15 19  2  0
 15 21  1  0
 16 20  1  0
 16 21  2  0
 16 31  1  0
 17 25  2  0
 17 28  1  0
 18 19  1  0
 18 20  2  0
 22 23  2  0
 22 24  1  0
 22 33  1  0
 24 29  2  0
 25 27  1  0
 26 29  1  0
 27 30  2  0
 27 34  1  0
 28 32  2  0
 30 32  1  0
 35 36  2  0
 35 38  1  0
 36 37  1  0
 37 39  2  0
 37 41  1  0
 38 40  2  0
 39 40  1  0
M  END
>  <PUBCHEM_COMPOUND_CID>  (1) 
23125

>  <PUBCHEM_CONFORMER_RMSD>  (1) 
1

>  <PUBCHEM_CONFORMER_DIVERSEORDER>  (1) 
1
39
20
48
7
44
4
46
28
29
37
30
42
45
34
33
19
40
21
41
13
49
25
38
23
26
36
43
3
32
17
2
12
35
14
27
31
22
15
18
10
47
9
16
8
5
11
24
6

>  <PUBCHEM_MMFF94_PARTIAL_CHARGES>  (1) 
56
1 1.49
10 -0.9
11 -0.9
12 -0.18
13 -0.18
15 -0.01
16 -0.14
18 0.18
19 0.1
2 -0.68
20 0.1
21 -0.15
22 -0.14
23 -0.15
24 0.18
25 -0.15
26 -0.15
27 -0.14
28 -0.15
29 -0.15
3 -0.65
30 0.18
31 0.14
32 -0.15
33 0.14
34 0.14
35 0.18
36 -0.15
37 0.09
38 -0.15
39 0.08
4 -0.65
40 -0.15
41 0.63
42 0.15
43 0.15
44 0.15
45 0.15
46 0.15
47 0.15
5 -0.53
51 0.15
58 0.4
59 0.4
6 -0.65
60 0.4
61 0.4
62 0.5
63 0.15
64 0.15
65 0.15
66 0.45
67 0.5
7 -0.57
8 -0.18
9 -0.18

>  <PUBCHEM_EFFECTIVE_ROTOR_COUNT>  (1) 
7

>  <PUBCHEM_PHARMACOPHORE_FEATURES>  (1) 
16
1 10 cation
1 10 donor
1 11 cation
1 11 donor
1 2 acceptor
1 3 acceptor
1 4 acceptor
1 5 donor
1 6 acceptor
1 7 acceptor
3 6 7 41 anion
4 1 2 3 4 anion
6 14 22 23 24 26 29 rings
6 15 16 18 19 20 21 rings
6 17 25 27 28 30 32 rings
6 35 36 37 38 39 40 rings

>  <PUBCHEM_HEAVY_ATOM_COUNT>  (1) 
41

>  <PUBCHEM_ATOM_DEF_STEREO_COUNT>  (1) 
0

>  <PUBCHEM_ATOM_UDEF_STEREO_COUNT>  (1) 
0

>  <PUBCHEM_BOND_DEF_STEREO_COUNT>  (1) 
0

>  <PUBCHEM_BOND_UDEF_STEREO_COUNT>  (1) 
0

>  <PUBCHEM_ISOTOPIC_ATOM_COUNT>  (1) 
0

>  <PUBCHEM_COMPONENT_COUNT>  (1) 
1

>  <PUBCHEM_CACTVS_TAUTO_COUNT>  (1) 
5

>  <PUBCHEM_CONFORMER_ID>  (1) 
00005A5500000001

>  <PUBCHEM_MMFF94_ENERGY>  (1) 
146.7755

>  <PUBCHEM_FEATURE_SELFOVERLAP>  (1) 
81.311

>  <PUBCHEM_SHAPE_FINGERPRINT>  (1) 
11061554 47 18040990770233069220
11672396 167 18200315408757500438
11966995 16 18338808828356126462
12089408 11 17821439162335844330
13740195 50 8574713494238570551
13947947 74 18335423465200307442
150020 25 18341895221133130322
15065858 18 18202281424987116944
15247644 1 14836405830913903516
15461852 350 18410575115065700595
15510794 2 18343023320153243226
15706992 2 17095247995342760313
1577012 14 17968085414111596571
15890870 6 18201720656397807542
16728433 110 16845288359754164640
16992610 120 18040437693744348643
1754911 235 18410292514786400876
20105231 36 17703790366461723143
21133410 127 17752753647220050629
21792961 116 17561365080982006609
21895431 317 14261359016610041748
22164985 6 17060053791888950492
232437 2 18131355232493152226
24771293 8 17675920993771602447
3991529 128 16443071581799025941
4173938 188 9511455619894340220
42767 2 18273213084204576286
4339292 15 13758353354291569801
44280117 145 18337106874408210223
4625314 4 18341049713596978376
5028188 123 18408320008812772455
57303763 39 9799394647498767864
58083652 198 16845296090315119546
59521270 166 18334573555480932351
6081469 158 18273215301183426992
6201320 82 17532077303965089805
6691757 9 15430036587267129555
9937071 3 17346601872690960302
9962374 69 14404895916792319120

>  <PUBCHEM_SHAPE_MULTIPOLES>  (1) 
782.51
47.09
2.85
1.19
39.9
0.34
0.14
-10.43
22.09
-5.55
0.36
0.59
-0.11
3.31

>  <PUBCHEM_SHAPE_SELFOVERLAP>  (1) 
1710.358

>  <PUBCHEM_SHAPE_VOLUME>  (1) 
428.2

>  <PUBCHEM_COORDINATE_TYPE>  (1) 
2
5
10

$$$$
