23121
     RDKit          3D

 10  9  0  0  0  0  0  0  0  0999 V2000
    0.4522    1.7389   -0.0259 O   0  0  0  0  0  0  0  0  0  0  0  0
   -2.8660   -0.7879    0.0196 O   0  0  0  0  0  0  0  0  0  0  0  0
    2.4220   -0.2743   -1.1299 O   0  0  0  0  0  0  0  0  0  0  0  0
   -0.5440   -0.4190   -0.0044 N   0  0  0  0  0  0  0  0  0  0  0  0
   -2.1158    1.3541    0.0042 N   0  0  0  0  0  0  0  0  0  0  0  0
    2.4437   -0.2054    1.1985 N   0  0  0  0  0  0  0  0  0  0  0  0
   -0.3010   -1.8642    0.0015 C   0  0  0  0  0  0  0  0  0  0  0  0
    0.5141    0.5153   -0.0196 C   0  0  0  0  0  0  0  0  0  0  0  0
   -1.9072   -0.0111    0.0061 C   0  0  0  0  0  0  0  0  0  0  0  0
    1.9021   -0.0464   -0.0501 C   0  0  0  0  0  0  0  0  0  0  0  0
  1  8  2  0
  2  9  2  0
  3 10  2  0
  4  7  1  0
  4  8  1  0
  4  9  1  0
  5  9  1  0
  6 10  1  0
  8 10  1  0
M  END
>  <PUBCHEM_COMPOUND_CID>  (1) 
23121

>  <PUBCHEM_CONFORMER_RMSD>  (1) 
0.6

>  <PUBCHEM_CONFORMER_DIVERSEORDER>  (1) 
2
8
10
18
20
11
13
7
17
4
12
15
16
1
9
19
6
14
5
3

>  <PUBCHEM_MMFF94_PARTIAL_CHARGES>  (1) 
14
1 -0.57
10 0.63
14 0.37
15 0.37
16 0.37
17 0.37
2 -0.57
3 -0.57
4 -0.42
5 -0.8
6 -0.8
7 0.3
8 0.63
9 0.69

>  <PUBCHEM_EFFECTIVE_ROTOR_COUNT>  (1) 
3

>  <PUBCHEM_PHARMACOPHORE_FEATURES>  (1) 
5
1 1 acceptor
1 2 acceptor
1 3 acceptor
1 5 donor
1 6 donor

>  <PUBCHEM_HEAVY_ATOM_COUNT>  (1) 
10

>  <PUBCHEM_ATOM_DEF_STEREO_COUNT>  (1) 
0

>  <PUBCHEM_ATOM_UDEF_STEREO_COUNT>  (1) 
0

>  <PUBCHEM_BOND_DEF_STEREO_COUNT>  (1) 
0

>  <PUBCHEM_BOND_UDEF_STEREO_COUNT>  (1) 
0

>  <PUBCHEM_ISOTOPIC_ATOM_COUNT>  (1) 
0

>  <PUBCHEM_COMPONENT_COUNT>  (1) 
1

>  <PUBCHEM_CACTVS_TAUTO_COUNT>  (1) 
4

>  <PUBCHEM_CONFORMER_ID>  (1) 
00005A5100000002

>  <PUBCHEM_MMFF94_ENERGY>  (1) 
21.6236

>  <PUBCHEM_FEATURE_SELFOVERLAP>  (1) 
25.374

>  <PUBCHEM_SHAPE_FINGERPRINT>  (1) 
10857977 72 18341604927934524033
15310529 11 16877660179737901638
16945 1 18410575114954924183
20645464 45 18059845182281515514
21040471 1 18410855430153243406
23552423 10 18043255634635226178
2748010 2 18195812873168403511
29004967 10 16845573110545690098
369184 2 15698283317407671851
5084963 1 18059584606515485667

>  <PUBCHEM_SHAPE_MULTIPOLES>  (1) 
173.24
3.64
1.5
0.79
0.38
0.05
0.03
0.14
0.07
0.48
-0.01
-0.58
0.07
0.01

>  <PUBCHEM_SHAPE_SELFOVERLAP>  (1) 
338.934

>  <PUBCHEM_SHAPE_VOLUME>  (1) 
102.9

>  <PUBCHEM_COORDINATE_TYPE>  (1) 
2
5
10

$$$$
