23127
     RDKit          3D

 17 19  0  0  0  0  0  0  0  0999 V2000
   -5.8933    0.5264    0.0011 Br  0  0  0  0  0  0  0  0  0  0  0  0
    5.0113   -0.7766    0.0009 O   0  0  0  0  0  0  0  0  0  0  0  0
    4.6355    1.3862   -0.0001 O   0  0  0  0  0  0  0  0  0  0  0  0
    4.2251    0.2008    0.0004 N   0  0  0  0  0  0  0  0  0  0  0  0
   -0.5712    1.7399   -0.0002 C   0  0  0  0  0  0  0  0  0  0  0  0
    0.5814    0.7575   -0.0003 C   0  0  0  0  0  0  0  0  0  0  0  0
    0.0992   -0.5708   -0.0004 C   0  0  0  0  0  0  0  0  0  0  0  0
   -1.7679    0.8117   -0.0003 C   0  0  0  0  0  0  0  0  0  0  0  0
   -1.3475   -0.5374   -0.0003 C   0  0  0  0  0  0  0  0  0  0  0  0
    1.9371    1.0346   -0.0002 C   0  0  0  0  0  0  0  0  0  0  0  0
    0.9805   -1.6390   -0.0002 C   0  0  0  0  0  0  0  0  0  0  0  0
   -3.1095    1.1509    0.0000 C   0  0  0  0  0  0  0  0  0  0  0  0
   -2.2770   -1.5639   -0.0002 C   0  0  0  0  0  0  0  0  0  0  0  0
    2.8253   -0.0424   -0.0001 C   0  0  0  0  0  0  0  0  0  0  0  0
    2.3518   -1.3659    0.0000 C   0  0  0  0  0  0  0  0  0  0  0  0
   -4.0463    0.1160    0.0000 C   0  0  0  0  0  0  0  0  0  0  0  0
   -3.6343   -1.2279   -0.0001 C   0  0  0  0  0  0  0  0  0  0  0  0
  1 16  1  0
  2  4  1  0
  3  4  2  0
  4 14  1  0
  5  6  1  0
  5  8  1  0
  6  7  2  0
  6 10  1  0
  7  9  1  0
  7 11  1  0
  8  9  2  0
  8 12  1  0
  9 13  1  0
 10 14  2  0
 11 15  2  0
 12 16  2  0
 13 17  2  0
 14 15  1  0
 16 17  1  0
M  CHG  2   2  -1   4   1
M  END
>  <PUBCHEM_COMPOUND_CID>  (1) 
23127

>  <PUBCHEM_CONFORMER_RMSD>  (1) 
0.6

>  <PUBCHEM_CONFORMER_DIVERSEORDER>  (1) 
1

>  <PUBCHEM_MMFF94_PARTIAL_CHARGES>  (1) 
21
1 -0.11
10 -0.15
11 -0.15
12 -0.15
13 -0.15
14 0.13
15 -0.15
16 0.11
17 -0.15
2 -0.52
20 0.15
21 0.15
22 0.15
23 0.15
24 0.15
25 0.15
3 -0.52
4 0.91
5 0.29
6 -0.14
8 -0.14

>  <PUBCHEM_EFFECTIVE_ROTOR_COUNT>  (1) 
1.2

>  <PUBCHEM_PHARMACOPHORE_FEATURES>  (1) 
7
1 1 hydrophobe
1 2 acceptor
1 2 anion
1 3 acceptor
5 5 6 7 8 9 rings
6 6 7 10 11 14 15 rings
6 8 9 12 13 16 17 rings

>  <PUBCHEM_HEAVY_ATOM_COUNT>  (1) 
17

>  <PUBCHEM_ATOM_DEF_STEREO_COUNT>  (1) 
0

>  <PUBCHEM_ATOM_UDEF_STEREO_COUNT>  (1) 
0

>  <PUBCHEM_BOND_DEF_STEREO_COUNT>  (1) 
0

>  <PUBCHEM_BOND_UDEF_STEREO_COUNT>  (1) 
0

>  <PUBCHEM_ISOTOPIC_ATOM_COUNT>  (1) 
0

>  <PUBCHEM_COMPONENT_COUNT>  (1) 
1

>  <PUBCHEM_CACTVS_TAUTO_COUNT>  (1) 
1

>  <PUBCHEM_CONFORMER_ID>  (1) 
00005A5700000001

>  <PUBCHEM_MMFF94_ENERGY>  (1) 
57.5469

>  <PUBCHEM_FEATURE_SELFOVERLAP>  (1) 
35.767

>  <PUBCHEM_SHAPE_FINGERPRINT>  (1) 
10967382 1 18410855434501029667
11132069 177 18410571803381943912
11401426 45 18411416228575806877
11471102 20 18411416202568626335
11806522 49 18337952397588771479
12236239 1 18040435494868370197
12251169 10 18411702084514150453
12403814 3 17749106678038943637
13140716 1 18266464389592760233
13214271 11 18411980290925998415
13288520 33 18412829070921144534
13380535 76 18409732854514430979
13862211 1 18410851053523689415
14115302 16 18114191855640437487
15048467 5 18131352999215536785
15196674 1 18410574023811470534
15375358 24 18411139130076104647
15536298 74 18342459210099625190
16945 1 18338517421990128741
17804303 29 18341614853830882689
17834072 33 18060133271618618733
18522853 276 18412827980062845777
19141452 34 18343865537259162735
200 152 18060697308372826119
20510252 161 18200595774709080065
20645477 70 18200313208394081287
21029758 11 18343579651272086625
21267235 1 18410583863697856555
21421861 104 17823972329762873851
23402539 116 18272927228946734109
23402655 69 18342450405812223037
23463225 33 18408322185337765927
23557571 272 18340210682824361420
23559900 14 18341610447595461160
26918003 58 17967818249622966147
2748010 2 18122621914559792837
2871803 45 18335981986926251974
296302 2 18411139138766058143
3312278 4 18411983563611742275
335352 9 18410575080399767079
34934 24 18410569591811656311
3545911 37 18410013217173401991
4072396 5 18336814321623763706
4214541 1 18410856534012722405
4340502 62 16660650626927068635
4463277 17 18410576180512982497
474 4 17169277133977962156
4990 188 18060146418677042318
5104073 3 18410011060978455530
59755656 215 18339085882825012830
69090 78 18341609309429049727
7364860 26 18269556031554121158
77779 3 18411139134318129506
8809292 202 18188494682682552203
9709674 26 18411143536533546662
9981440 41 17181376322416638489

>  <PUBCHEM_SHAPE_MULTIPOLES>  (1) 
339.07
10.2
1.7
0.61
0.88
0.12
0
-1.11
0
-0.12
0
0.13
0
0

>  <PUBCHEM_SHAPE_SELFOVERLAP>  (1) 
744.815

>  <PUBCHEM_SHAPE_VOLUME>  (1) 
189.9

>  <PUBCHEM_COORDINATE_TYPE>  (1) 
2
5
10

$$$$
