23130
     RDKit          3D

 20 23  0  0  1  0  0  0  0  0999 V2000
   -4.9523    0.2499    0.7561 O   0  0  0  0  0  0  0  0  0  0  0  0
    5.8358   -0.0293   -0.0313 O   0  0  0  0  0  0  0  0  0  0  0  0
   -2.7077   -0.6682    0.3107 C   0  0  0  0  0  0  0  0  0  0  0  0
   -2.0515    0.7257    0.2137 C   0  0  0  0  0  0  0  0  0  0  0  0
   -4.1350   -0.3934   -0.2185 C   0  0  0  0  0  0  0  0  0  0  0  0
   -2.6650    1.3694   -1.0464 C   0  0  0  0  0  0  0  0  0  0  0  0
   -1.9657   -1.6527   -0.6152 C   0  0  0  0  0  0  0  0  0  0  0  0
   -3.9416    0.5888   -1.3711 C   0  0  0  0  0  0  0  0  0  0  0  0
   -0.5393    0.7308    0.1693 C   0  0  0  0  0  0  0  0  0  0  0  0
   -0.4773   -1.7632   -0.2876 C   0  0  0  0  0  0  0  0  0  0  0  0
   -2.7163   -1.1911    1.7579 C   0  0  0  0  0  0  0  0  0  0  0  0
    0.2213   -0.4341   -0.0719 C   0  0  0  0  0  0  0  0  0  0  0  0
    0.1167    1.9522    0.3705 C   0  0  0  0  0  0  0  0  0  0  0  0
    1.6503   -0.3681   -0.0627 C   0  0  0  0  0  0  0  0  0  0  0  0
    2.2813    0.8850    0.1449 C   0  0  0  0  0  0  0  0  0  0  0  0
    1.5053    2.0290    0.3528 C   0  0  0  0  0  0  0  0  0  0  0  0
    2.4926   -1.4912   -0.2444 C   0  0  0  0  0  0  0  0  0  0  0  0
    3.6831    0.9828    0.1493 C   0  0  0  0  0  0  0  0  0  0  0  0
    3.8851   -1.3801   -0.2351 C   0  0  0  0  0  0  0  0  0  0  0  0
    4.4803   -0.1424   -0.0409 C   0  0  0  0  0  0  0  0  0  0  0  0
  1  5  1  0
  2 20  1  0
  3  4  1  0
  3  5  1  0
  3  7  1  0
  3 11  1  0
  4  6  1  0
  4  9  1  0
  5  8  1  0
  6  8  1  0
  7 10  1  0
  9 12  2  0
  9 13  1  0
 10 12  1  0
 12 14  1  0
 13 16  2  0
 14 15  2  0
 14 17  1  0
 15 16  1  0
 15 18  1  0
 17 19  2  0
 18 20  2  0
 19 20  1  0
M  END
>  <PUBCHEM_COMPOUND_CID>  (1) 
23130

>  <PUBCHEM_CONFORMER_RMSD>  (1) 
0.6

>  <PUBCHEM_CONFORMER_DIVERSEORDER>  (1) 
3
1
4
6
2
5

>  <PUBCHEM_MMFF94_PARTIAL_CHARGES>  (1) 
20
1 -0.68
10 0.14
12 -0.14
13 -0.15
16 -0.15
17 -0.15
18 -0.15
19 -0.15
2 -0.53
20 0.08
34 0.15
35 0.4
36 0.15
37 0.15
38 0.15
39 0.15
4 0.14
40 0.45
5 0.28
9 -0.14

>  <PUBCHEM_EFFECTIVE_ROTOR_COUNT>  (1) 
1

>  <PUBCHEM_PHARMACOPHORE_FEATURES>  (1) 
7
1 1 acceptor
1 1 donor
1 2 donor
5 3 4 5 6 8 rings
6 14 15 17 18 19 20 rings
6 3 4 7 9 10 12 rings
6 9 12 13 14 15 16 rings

>  <PUBCHEM_HEAVY_ATOM_COUNT>  (1) 
20

>  <PUBCHEM_ATOM_DEF_STEREO_COUNT>  (1) 
0

>  <PUBCHEM_ATOM_UDEF_STEREO_COUNT>  (1) 
3

>  <PUBCHEM_BOND_DEF_STEREO_COUNT>  (1) 
0

>  <PUBCHEM_BOND_UDEF_STEREO_COUNT>  (1) 
0

>  <PUBCHEM_ISOTOPIC_ATOM_COUNT>  (1) 
0

>  <PUBCHEM_COMPONENT_COUNT>  (1) 
1

>  <PUBCHEM_CACTVS_TAUTO_COUNT>  (1) 
3

>  <PUBCHEM_CONFORMER_ID>  (1) 
00005A5A00000003

>  <PUBCHEM_MMFF94_ENERGY>  (1) 
68.8187

>  <PUBCHEM_FEATURE_SELFOVERLAP>  (1) 
35.711

>  <PUBCHEM_SHAPE_FINGERPRINT>  (1) 
10 15 18335410323476178848
10366900 7 17967810587274962931
10967382 1 18413388726682265430
11132069 177 18343293799696885762
11471102 20 18341609334913834980
11578080 2 16772359891407214681
12011746 2 18411415098704067757
12186901 62 17530958069277283493
12236239 1 16988844981872149617
12403259 415 18409440393074843149
124424 183 18407757049261841174
12553582 1 18343581833041243032
13140716 1 18198623426804891178
13675066 3 18261955249246353808
13862211 1 18341887481412450918
14386348 63 18409169913324640914
15099037 51 18411978061806076407
15163728 17 16011250382224229055
15196674 1 18341330110346980566
15309172 13 18201727270747221427
15375358 24 18410851058108651166
15536298 74 18201716297290175704
15653759 3 18040436615875966051
15788980 27 17167861950569083504
16945 1 18271810171713077801
17349148 13 17632574954890024334
18186145 218 18342174470704910151
19141452 34 18201439207237892391
19862831 5 18335417967562754310
200 152 17846494833478323765
20645477 70 18342738481848037414
21029758 11 18201432567086668424
21033648 29 18337658772118302281
21267235 1 18341058458224447382
21279426 13 18193274083418135373
221490 88 18265054815516931778
23175994 123 18412270527377562321
23184049 59 18271814522752234507
23402539 116 17775281651295910332
23493267 7 17894343363347860793
23557571 272 17821727213039724148
23559900 14 18342171181567011440
26918003 58 18186521012260979450
2748010 2 18411135844214899364
2871803 45 18410292472232249838
3004659 81 18114462250530309258
335352 9 18413671318033851852
34934 24 18341887511508850918
350125 39 18197782321969355471
3545911 37 18411700989329268494
4921388 177 16298395685789923059
5104073 3 18341047535827176418
542803 24 15140682471028569430
69090 78 18271802440861739367
8809292 202 18261395593364225507
9709674 26 18263361554641073155

>  <PUBCHEM_SHAPE_MULTIPOLES>  (1) 
399.85
9.36
1.91
1
4.53
0.15
0.12
-0.63
-0.4
0.26
0
-1.09
-0.08
0.72

>  <PUBCHEM_SHAPE_SELFOVERLAP>  (1) 
891.191

>  <PUBCHEM_SHAPE_VOLUME>  (1) 
213.3

>  <PUBCHEM_COORDINATE_TYPE>  (1) 
2
5
10

$$$$
