23132
     RDKit          3D

 22 24  0  0  1  0  0  0  0  0999 V2000
   -0.9132   -0.0776   -0.3361 N   0  0  0  0  0  0  0  0  0  0  0  0
   -3.4050    2.6686    0.1980 N   0  0  0  0  0  0  0  0  0  0  0  0
    0.8647   -1.3267    0.1318 N   0  0  0  0  0  0  0  0  0  0  0  0
   -1.6986    1.0885   -0.6727 C   0  0  0  0  0  0  0  0  0  0  0  0
   -2.6799    1.4303    0.4642 C   0  0  0  0  0  0  0  0  0  0  0  0
    0.4435   -0.1196   -0.1728 C   0  0  0  0  0  0  0  0  0  0  0  0
   -1.4000   -1.3416   -0.1225 C   0  0  0  0  0  0  0  0  0  0  0  0
   -2.3839    0.9276   -2.0349 C   0  0  0  0  0  0  0  0  0  0  0  0
   -0.2710   -2.1026    0.1680 C   0  0  0  0  0  0  0  0  0  0  0  0
    1.2919    1.0797   -0.3311 C   0  0  0  0  0  0  0  0  0  0  0  0
   -2.6914   -1.8687   -0.1573 C   0  0  0  0  0  0  0  0  0  0  0  0
    2.7766    0.8330   -0.1095 C   0  0  0  0  0  0  0  0  0  0  0  0
   -0.4206   -3.4725    0.4430 C   0  0  0  0  0  0  0  0  0  0  0  0
   -2.4790    3.7989    0.1149 C   0  0  0  0  0  0  0  0  0  0  0  0
   -4.4096    2.9093    1.2346 C   0  0  0  0  0  0  0  0  0  0  0  0
   -2.8218   -3.2338    0.1185 C   0  0  0  0  0  0  0  0  0  0  0  0
   -1.7079   -4.0233    0.4138 C   0  0  0  0  0  0  0  0  0  0  0  0
    3.5620    0.4751   -1.1865 C   0  0  0  0  0  0  0  0  0  0  0  0
    3.2942    0.9741    1.1621 C   0  0  0  0  0  0  0  0  0  0  0  0
    4.9233    0.2487   -0.9832 C   0  0  0  0  0  0  0  0  0  0  0  0
    4.6556    0.7477    1.3653 C   0  0  0  0  0  0  0  0  0  0  0  0
    5.4701    0.3851    0.2927 C   0  0  0  0  0  0  0  0  0  0  0  0
  1  4  1  0
  1  6  1  0
  1  7  1  0
  2  5  1  0
  2 14  1  0
  2 15  1  0
  3  6  2  0
  3  9  1  0
  4  5  1  0
  4  8  1  0
  6 10  1  0
  7  9  2  0
  7 11  1  0
  9 13  1  0
 10 12  1  0
 11 16  2  0
 12 18  2  0
 12 19  1  0
 13 17  2  0
 16 17  1  0
 18 20  1  0
 19 21  2  0
 20 22  2  0
 21 22  1  0
M  END
>  <PUBCHEM_COMPOUND_CID>  (1) 
23132

>  <PUBCHEM_CONFORMER_RMSD>  (1) 
0.8

>  <PUBCHEM_CONFORMER_DIVERSEORDER>  (1) 
2
13
11
1
17
14
15
8
3
9
6
16
4
10
12
5
7

>  <PUBCHEM_MMFF94_PARTIAL_CHARGES>  (1) 
30
1 0.05
10 0.32
11 -0.15
12 -0.14
13 -0.15
14 0.27
15 0.27
16 -0.15
17 -0.15
18 -0.15
19 -0.15
2 -0.81
20 -0.15
21 -0.15
22 -0.15
3 -0.57
31 0.15
32 0.15
39 0.15
4 0.26
40 0.15
41 0.15
42 0.15
43 0.15
44 0.15
45 0.15
5 0.27
6 0.01
7 -0.15
9 0.23

>  <PUBCHEM_EFFECTIVE_ROTOR_COUNT>  (1) 
5

>  <PUBCHEM_PHARMACOPHORE_FEATURES>  (1) 
5
1 2 cation
3 1 3 6 cation
5 1 3 6 7 9 rings
6 12 18 19 20 21 22 rings
6 7 9 11 13 16 17 rings

>  <PUBCHEM_HEAVY_ATOM_COUNT>  (1) 
22

>  <PUBCHEM_ATOM_DEF_STEREO_COUNT>  (1) 
0

>  <PUBCHEM_ATOM_UDEF_STEREO_COUNT>  (1) 
1

>  <PUBCHEM_BOND_DEF_STEREO_COUNT>  (1) 
0

>  <PUBCHEM_BOND_UDEF_STEREO_COUNT>  (1) 
0

>  <PUBCHEM_ISOTOPIC_ATOM_COUNT>  (1) 
0

>  <PUBCHEM_COMPONENT_COUNT>  (1) 
1

>  <PUBCHEM_CACTVS_TAUTO_COUNT>  (1) 
1

>  <PUBCHEM_CONFORMER_ID>  (1) 
00005A5C00000002

>  <PUBCHEM_MMFF94_ENERGY>  (1) 
51.7991

>  <PUBCHEM_FEATURE_SELFOVERLAP>  (1) 
25.479

>  <PUBCHEM_SHAPE_FINGERPRINT>  (1) 
10165383 225 18266471913985533669
10319926 262 18269816745412791152
10411042 1 17906456880419980563
10493431 412 18338522936955347417
1100329 8 18265618869820520345
11646440 116 18195252333404162019
12107183 9 18191014618005841762
12160290 23 18192407848681335223
12173636 292 18411416168356685173
12293681 160 18123157278529122727
12390115 104 18270413706289179593
12549972 3 17988918990362395458
12643181 29 18338235948227423318
12788726 201 18046075014614266346
12954195 1 18411421725970825006
13052359 8 18409448085482206353
13134695 92 17476358778579402351
13140716 1 17903639931534400378
138480 1 16969142532308356969
13878862 14 17253424601330183397
14178342 30 18336816585509144722
14790565 3 17978238149563262508
14866123 147 18410014325159335826
15042514 8 18263649644147358395
15230672 131 18191314780607615118
15842332 3 17750243659088088556
15927050 60 18268433434282073903
16752209 62 17970606683825243634
17913733 40 18126023576319785833
18785283 64 17901676964060500923
19591789 44 18121225268245991383
20510252 161 18267581497316244104
20739085 24 17828494565643926068
21065201 7 18341895216943729226
212916 134 18341039714844957584
21756936 100 18271802380668997437
22182937 141 18343303664825698033
22224240 67 18271254820580670793
22907989 373 18263925621269940606
23402539 116 18197210563027740271
23419403 2 17412729976270826299
23557571 272 18121768702369367920
23558518 356 18117566338673488704
23559900 14 18121776390545307724
23845131 108 18265055730935894321
283562 15 18264763427656137827
3091708 16 9414767861545039843
312423 11 17750804431434964404
5104073 3 18337377328181932728
59755656 520 18338517439201828548
6442390 28 18339373954860440121
77188 2 17762903568992831343
7808743 9 18409176515080427596
79837 15 18409735023662358793
81228 2 18116716420216135779
84936 182 17839176316422445177
9862522 239 17822843174297291828
9981440 41 18192717743894877185

>  <PUBCHEM_SHAPE_MULTIPOLES>  (1) 
437.81
9.1
4.64
1.2
12.18
1.97
0.24
-5.27
-1.29
-8.21
-1.24
0.23
-0.54
-0.28

>  <PUBCHEM_SHAPE_SELFOVERLAP>  (1) 
938.882

>  <PUBCHEM_SHAPE_VOLUME>  (1) 
243.3

>  <PUBCHEM_COORDINATE_TYPE>  (1) 
2
5
10

$$$$
