23136
     RDKit          3D

 14 14  0  0  0  0  0  0  0  0999 V2000
    5.7166    0.9804    0.0409 Br  0  0  0  0  0  0  0  0  0  0  0  0
    0.6087   -0.2589   -0.0055 O   0  0  0  0  0  0  0  0  0  0  0  0
   -0.4309   -2.3127    0.0027 O   0  0  0  0  0  0  0  0  0  0  0  0
    2.7622    1.3358   -0.0299 O   0  0  0  0  0  0  0  0  0  0  0  0
   -1.7254   -0.3104    0.0014 C   0  0  0  0  0  0  0  0  0  0  0  0
    1.8902   -0.8970   -0.0086 C   0  0  0  0  0  0  0  0  0  0  0  0
   -2.9543   -0.9705    0.0058 C   0  0  0  0  0  0  0  0  0  0  0  0
   -1.6828    1.0839   -0.0011 C   0  0  0  0  0  0  0  0  0  0  0  0
   -0.4890   -1.0758    0.0002 C   0  0  0  0  0  0  0  0  0  0  0  0
    3.0072    0.1306   -0.0148 C   0  0  0  0  0  0  0  0  0  0  0  0
   -4.1403   -0.2365    0.0073 C   0  0  0  0  0  0  0  0  0  0  0  0
   -2.8689    1.8178    0.0005 C   0  0  0  0  0  0  0  0  0  0  0  0
   -4.0977    1.1576    0.0048 C   0  0  0  0  0  0  0  0  0  0  0  0
    4.4044   -0.4441   -0.0038 C   0  0  0  0  0  0  0  0  0  0  0  0
  1 14  1  0
  2  6  1  0
  2  9  1  0
  3  9  2  0
  4 10  2  0
  5  7  2  0
  5  8  1  0
  5  9  1  0
  6 10  1  0
  7 11  1  0
  8 12  2  0
 10 14  1  0
 11 13  2  0
 12 13  1  0
M  END
>  <PUBCHEM_COMPOUND_CID>  (1) 
23136

>  <PUBCHEM_CONFORMER_RMSD>  (1) 
0.6

>  <PUBCHEM_CONFORMER_DIVERSEORDER>  (1) 
1
200
152
163
219
131
155
205
87
186
153
220
126
58
222
173
242
178
42
204
45
137
55
235
165
114
95
208
56
250
36
254
40
258
53
237
83
143
168
121
210
67
231
255
150
59
156
145
154
160
225
96
13
14
43
214
78
233
116
124
129
148
207
109
17
157
63
107
79
117
97
180
249
232
101
243
216
256
4
18
164
25
252
228
102
100
175
236
191
221
161
94
238
132
167
41
215
241
240
119
201
2
257
246
70
234
120
146
123
136
133
187
5
140
75
99
68
51
227
182
181
130
203
74
112
217
127
26
77
21
211
23
174
151
46
179
39
69
229
253
76
52
206
183
57
115
162
198
144
224
195
32
189
134
85
218
61
212
105
3
64
7
125
251
171
93
170
34
158
62
16
139
118
202
30
192
27
6
106
98
82
176
73
54
37
103
86
194
104
135
91
141
245
247
138
209
223
193
90
188
199
159
9
147
89
190
20
248
66
239
213
122
80
71
47
19
230
31
8
60
108
197
244
49
92
48
169
81
72
172
196
28
142
50
65
12
38
113
184
35
29
166
22
110
111
84
88
10
15
11
177
226
128
24
33
44
149
185

>  <PUBCHEM_MMFF94_PARTIAL_CHARGES>  (1) 
19
1 -0.23
10 0.45
11 -0.15
12 -0.15
13 -0.15
14 0.29
17 0.15
18 0.15
19 0.15
2 -0.43
20 0.15
21 0.15
3 -0.57
4 -0.57
5 0.09
6 0.34
7 -0.15
8 -0.15
9 0.63

>  <PUBCHEM_EFFECTIVE_ROTOR_COUNT>  (1) 
5

>  <PUBCHEM_PHARMACOPHORE_FEATURES>  (1) 
4
1 1 hydrophobe
1 3 acceptor
1 4 acceptor
6 5 7 8 11 12 13 rings

>  <PUBCHEM_HEAVY_ATOM_COUNT>  (1) 
14

>  <PUBCHEM_ATOM_DEF_STEREO_COUNT>  (1) 
0

>  <PUBCHEM_ATOM_UDEF_STEREO_COUNT>  (1) 
0

>  <PUBCHEM_BOND_DEF_STEREO_COUNT>  (1) 
0

>  <PUBCHEM_BOND_UDEF_STEREO_COUNT>  (1) 
0

>  <PUBCHEM_ISOTOPIC_ATOM_COUNT>  (1) 
0

>  <PUBCHEM_COMPONENT_COUNT>  (1) 
1

>  <PUBCHEM_CACTVS_TAUTO_COUNT>  (1) 
3

>  <PUBCHEM_CONFORMER_ID>  (1) 
00005A6000000001

>  <PUBCHEM_MMFF94_ENERGY>  (1) 
31.2663

>  <PUBCHEM_FEATURE_SELFOVERLAP>  (1) 
20.297

>  <PUBCHEM_SHAPE_FINGERPRINT>  (1) 
12346645 44 18336827494288447307
12390115 104 18129116545214797409
12916748 109 18410580582542997218
13081056 2 18342176665602133272
13214271 11 18408886239799519351
13897977 58 18408887347246986381
14123255 352 18335979792224513124
14325111 11 18410575054814722087
15196674 1 18410575059209994112
15501527 16 18412830183085767064
15775835 57 18334296431163349400
17802600 8 18410852174626263188
18186145 218 18058742307362173542
18522853 276 18412262839639336120
200 152 17489867137444822359
20300324 65 18130784568778142565
20645477 56 18412545440050108288
20645477 70 17060071311445731974
20828058 44 8214145153237394508
21524375 3 18409449167618915911
21652331 79 18408322176779856612
23402539 116 18343012311413260854
23402655 69 18131068208249643340
23557571 272 18059581337903104775
23559900 14 18201721705107922430
2916195 48 18201147845737083528
351380 180 18412260640457682068
3545911 37 18413110563267524364
366044 4 18409729560258664779
4214541 1 18410574002832525696
42788 4 18411138043797213540
5104073 3 18335985268165157506
6430166 295 18409446977623081068
7364860 26 18124314896142166079
77779 3 18410294696682456718

>  <PUBCHEM_SHAPE_MULTIPOLES>  (1) 
276.45
10.8
1.76
0.61
11.42
0.11
0
-4.07
-0.09
-0.74
0
0.04
-0.02
0.02

>  <PUBCHEM_SHAPE_SELFOVERLAP>  (1) 
553.07

>  <PUBCHEM_SHAPE_VOLUME>  (1) 
166

>  <PUBCHEM_COORDINATE_TYPE>  (1) 
2
5
10

$$$$
