23138
     RDKit          3D

 16 17  0  0  0  0  0  0  0  0999 V2000
    4.0954    2.2758    0.0713 Cl  0  0  0  0  0  0  0  0  0  0  0  0
    5.1119   -0.5431    0.3148 O   0  0  0  0  0  0  0  0  0  0  0  0
   -0.3536   -0.1537   -0.5747 N   0  0  0  0  0  0  0  0  0  0  0  0
   -0.9626   -0.0932    0.5192 N   0  0  0  0  0  0  0  0  0  0  0  0
    1.0307   -0.2443   -0.3496 C   0  0  0  0  0  0  0  0  0  0  0  0
    1.7934    0.9161   -0.2599 C   0  0  0  0  0  0  0  0  0  0  0  0
    1.6282   -1.4940   -0.2181 C   0  0  0  0  0  0  0  0  0  0  0  0
   -2.3401   -0.0029    0.2956 C   0  0  0  0  0  0  0  0  0  0  0  0
    3.7715   -0.4247    0.0963 C   0  0  0  0  0  0  0  0  0  0  0  0
    3.1675    0.8256   -0.0364 C   0  0  0  0  0  0  0  0  0  0  0  0
    3.0019   -1.5845    0.0054 C   0  0  0  0  0  0  0  0  0  0  0  0
   -3.1092   -1.1632    0.2050 C   0  0  0  0  0  0  0  0  0  0  0  0
   -2.9451    1.2469    0.1626 C   0  0  0  0  0  0  0  0  0  0  0  0
   -4.4830   -1.0735   -0.0188 C   0  0  0  0  0  0  0  0  0  0  0  0
   -4.3189    1.3364   -0.0611 C   0  0  0  0  0  0  0  0  0  0  0  0
   -5.0879    0.1761   -0.1518 C   0  0  0  0  0  0  0  0  0  0  0  0
  1 10  1  0
  2  9  1  0
  3  4  2  0
  3  5  1  0
  4  8  1  0
  5  6  2  0
  5  7  1  0
  6 10  1  0
  7 11  2  0
  8 12  2  0
  8 13  1  0
  9 10  2  0
  9 11  1  0
 12 14  1  0
 13 15  2  0
 14 16  2  0
 15 16  1  0
M  END
>  <PUBCHEM_COMPOUND_CID>  (1) 
23138

>  <PUBCHEM_CONFORMER_RMSD>  (1) 
0.6

>  <PUBCHEM_CONFORMER_DIVERSEORDER>  (1) 
1
2
3

>  <PUBCHEM_MMFF94_PARTIAL_CHARGES>  (1) 
25
1 -0.18
10 0.18
11 -0.15
12 -0.15
13 -0.15
14 -0.15
15 -0.15
16 -0.15
17 0.15
18 0.15
19 0.15
2 -0.53
20 0.15
21 0.15
22 0.15
23 0.15
24 0.15
25 0.45
3 -0.18
4 -0.18
5 0.18
6 -0.15
7 -0.15
8 0.18
9 0.08

>  <PUBCHEM_EFFECTIVE_ROTOR_COUNT>  (1) 
2

>  <PUBCHEM_PHARMACOPHORE_FEATURES>  (1) 
3
1 2 donor
6 5 6 7 9 10 11 rings
6 8 12 13 14 15 16 rings

>  <PUBCHEM_HEAVY_ATOM_COUNT>  (1) 
16

>  <PUBCHEM_ATOM_DEF_STEREO_COUNT>  (1) 
0

>  <PUBCHEM_ATOM_UDEF_STEREO_COUNT>  (1) 
0

>  <PUBCHEM_BOND_DEF_STEREO_COUNT>  (1) 
0

>  <PUBCHEM_BOND_UDEF_STEREO_COUNT>  (1) 
0

>  <PUBCHEM_ISOTOPIC_ATOM_COUNT>  (1) 
0

>  <PUBCHEM_COMPONENT_COUNT>  (1) 
1

>  <PUBCHEM_CACTVS_TAUTO_COUNT>  (1) 
4

>  <PUBCHEM_CONFORMER_ID>  (1) 
00005A6200000001

>  <PUBCHEM_MMFF94_ENERGY>  (1) 
41.5231

>  <PUBCHEM_FEATURE_SELFOVERLAP>  (1) 
15.223

>  <PUBCHEM_SHAPE_FINGERPRINT>  (1) 
10014705 185 18333447630431974997
11471102 20 18410575080932614100
11615757 297 17561088020414070107
12107183 9 17690280413175972745
12236239 1 17846777399487601422
12507557 5 18343581841188293649
128620 24 16128656344937632177
13167823 11 18411697686325584863
13533116 47 17313374579232389939
13675066 3 17821736022365482521
14528608 73 18340490066273168740
15196674 1 18410575101990946473
15375358 24 18335423469432055123
17834072 33 18412262860797382262
18186145 218 17821727217450436595
19050596 39 18411140233877158619
200 152 18202280295257756683
20279233 1 18187374215819551155
20645477 56 18260832541059680157
20645477 70 18341897359468148678
21065198 57 18409731729354045863
21267235 1 18411709772094432999
21709351 56 18411131433510281676
22854114 59 18409448106856770468
23402539 116 18410849954681650173
23402655 69 18342459239826552348
23559900 14 18270398265744795074
245318 6 16883023782375046212
26918003 58 18408885135518203139
29717793 49 17917713470037367941
351380 180 18409165502198062089
3545911 37 18409451371284999605
42 15 18334014977756485663
4214541 1 18410012105103958861
474 4 17968662743025012132
5104073 3 18408606967687319169
542803 24 17632864122474857009
67856867 119 18411132571734942328
69090 78 18408884036254709387
7495541 125 17417524830072562571
77779 3 18411139130160247303
9709674 26 18411145718714660015
9971528 1 17749108902652726468
9999458 23 18260548940179516726

>  <PUBCHEM_SHAPE_MULTIPOLES>  (1) 
315.31
11.46
1.79
0.67
3.42
0.43
0.01
1.46
-0.45
-1.19
-0.01
0.01
0
0.03

>  <PUBCHEM_SHAPE_SELFOVERLAP>  (1) 
671.023

>  <PUBCHEM_SHAPE_VOLUME>  (1) 
176.7

>  <PUBCHEM_COORDINATE_TYPE>  (1) 
2
5
10

$$$$
