23141
     RDKit          3D

 28 32  0  0  1  0  0  0  0  0999 V2000
   -1.0430    2.2417    0.7766 S   0  0  0  0  0  0  0  0  0  0  0  0
    4.9959   -0.7182   -0.3358 O   0  0  0  0  0  0  0  0  0  0  0  0
   -5.8489   -1.1631    1.1125 O   0  0  0  0  0  0  0  0  0  0  0  0
   -2.2311    3.9435   -0.8688 O   0  0  0  0  0  0  0  0  0  0  0  0
    2.5077   -0.7059   -0.3182 C   0  0  0  0  0  0  0  0  0  0  0  0
    1.5264    0.4846   -0.2721 C   0  0  0  0  0  0  0  0  0  0  0  0
    0.1094    0.1261   -0.7563 C   0  0  0  0  0  0  0  0  0  0  0  0
    3.8308    0.0028    0.1020 C   0  0  0  0  0  0  0  0  0  0  0  0
   -0.4638   -1.0408    0.1143 C   0  0  0  0  0  0  0  0  0  0  0  0
    1.9584   -1.7903    0.6233 C   0  0  0  0  0  0  0  0  0  0  0  0
    2.2735    1.5902   -1.0118 C   0  0  0  0  0  0  0  0  0  0  0  0
    3.7548    1.3558   -0.6681 C   0  0  0  0  0  0  0  0  0  0  0  0
    0.5364   -2.2256    0.2294 C   0  0  0  0  0  0  0  0  0  0  0  0
   -1.9143   -1.4872   -0.3275 C   0  0  0  0  0  0  0  0  0  0  0  0
   -0.8559    1.3357   -0.8116 C   0  0  0  0  0  0  0  0  0  0  0  0
    4.0556    0.2350    1.6002 C   0  0  0  0  0  0  0  0  0  0  0  0
    2.6863   -1.3207   -1.7371 C   0  0  0  0  0  0  0  0  0  0  0  0
   -2.8109   -0.2573   -0.5138 C   0  0  0  0  0  0  0  0  0  0  0  0
   -2.2317    0.8880   -1.3146 C   0  0  0  0  0  0  0  0  0  0  0  0
   -2.4992   -2.4054    0.7857 C   0  0  0  0  0  0  0  0  0  0  0  0
    5.5547    0.4099    1.6750 C   0  0  0  0  0  0  0  0  0  0  0  0
   -1.8979   -2.2683   -1.6620 C   0  0  0  0  0  0  0  0  0  0  0  0
    6.0338   -0.5882    0.6450 C   0  0  0  0  0  0  0  0  0  0  0  0
   -4.0005   -2.6197    0.6739 C   0  0  0  0  0  0  0  0  0  0  0  0
   -4.0626   -0.1591   -0.0356 C   0  0  0  0  0  0  0  0  0  0  0  0
   -4.7185   -1.2968    0.6481 C   0  0  0  0  0  0  0  0  0  0  0  0
   -2.1733    3.4877    0.2668 C   0  0  0  0  0  0  0  0  0  0  0  0
   -3.0722    3.9456    1.3801 C   0  0  0  0  0  0  0  0  0  0  0  0
  1 15  1  0
  1 27  1  0
  2  8  1  0
  2 23  1  0
  3 26  2  0
  4 27  2  0
  5  6  1  0
  5  8  1  0
  5 10  1  0
  5 17  1  0
  6  7  1  0
  6 11  1  0
  7  9  1  0
  7 15  1  0
  8 12  1  0
  8 16  1  0
  9 13  1  0
  9 14  1  0
 10 13  1  0
 11 12  1  0
 14 18  1  0
 14 20  1  0
 14 22  1  0
 15 19  1  0
 16 21  1  0
 18 19  1  0
 18 25  2  0
 20 24  1  0
 21 23  1  0
 24 26  1  0
 25 26  1  0
 27 28  1  0
M  END
>  <PUBCHEM_COMPOUND_CID>  (1) 
23141

>  <PUBCHEM_CONFORMER_RMSD>  (1) 
0.8

>  <PUBCHEM_CONFORMER_DIVERSEORDER>  (1) 
1

>  <PUBCHEM_MMFF94_PARTIAL_CHARGES>  (1) 
16
1 -0.37
14 0.14
15 0.23
18 -0.28
19 0.14
2 -0.56
23 0.28
24 0.06
25 -0.14
26 0.49
27 0.65
28 0.06
3 -0.57
4 -0.57
59 0.15
8 0.28

>  <PUBCHEM_EFFECTIVE_ROTOR_COUNT>  (1) 
4.4

>  <PUBCHEM_PHARMACOPHORE_FEATURES>  (1) 
7
1 2 acceptor
1 3 acceptor
5 2 8 16 21 23 rings
5 5 6 8 11 12 rings
6 14 18 20 24 25 26 rings
6 5 6 7 9 10 13 rings
6 7 9 14 15 18 19 rings

>  <PUBCHEM_HEAVY_ATOM_COUNT>  (1) 
28

>  <PUBCHEM_ATOM_DEF_STEREO_COUNT>  (1) 
7

>  <PUBCHEM_ATOM_UDEF_STEREO_COUNT>  (1) 
0

>  <PUBCHEM_BOND_DEF_STEREO_COUNT>  (1) 
0

>  <PUBCHEM_BOND_UDEF_STEREO_COUNT>  (1) 
0

>  <PUBCHEM_ISOTOPIC_ATOM_COUNT>  (1) 
0

>  <PUBCHEM_COMPONENT_COUNT>  (1) 
1

>  <PUBCHEM_CACTVS_TAUTO_COUNT>  (1) 
5

>  <PUBCHEM_CONFORMER_ID>  (1) 
00005A6500000001

>  <PUBCHEM_MMFF94_ENERGY>  (1) 
96.7219

>  <PUBCHEM_FEATURE_SELFOVERLAP>  (1) 
35.633

>  <PUBCHEM_SHAPE_FINGERPRINT>  (1) 
10006869 2 18269279130569920309
10319926 262 18268134380716000834
11115154 58 17986080064741468309
11456790 92 18190196727832122931
11595378 159 18335972104185366522
11646440 116 18336837489078428259
12166972 35 17313104202240142742
12236239 1 16950277404331701126
12293681 4 18261685868818876139
12403259 415 17846211147326906288
12422481 6 18125185791398485297
12553582 1 18269837678054639341
12596602 18 17603855737559510840
12788726 201 18338250352376375144
12930653 34 18339640023425593054
13004483 165 18338519754479546113
13140716 1 18193555790270617962
13224815 77 18261109724789010174
13540713 4 18058456391869177846
13965767 371 17684366157674550708
14028597 1 17749384850101213491
14081887 123 18410847767915730835
14178342 30 18335419002834586412
14341114 176 18334010610323521322
14787075 74 18115874173135259075
14790565 3 17183356552007405901
14955137 171 18195258925820057251
15131766 46 15840127013635324608
15196674 1 18188209926197736038
17349148 13 17458343052761254834
20028762 73 18336543944948963178
20510252 161 18340488876772845261
20600515 1 18042691786944092982
20642791 105 18334569110184843941
20642791 35 17981905334011076668
21033648 144 15983668209723933624
21033648 29 17702926081781701664
21041028 32 18337958999259356613
21267235 1 18186525422981746370
22182313 1 18130514024598955774
229495 10 13685195067357105673
23557571 272 18411986853525230982
23558518 356 18264216811489177603
23559900 14 18410294753007525406
23845131 108 17833555592287392809
244849 19 17559968614867181044
24893992 56 18334580196882455003
25147074 1 17968392203488763628
350125 39 18408888451512809732
3886686 26 17613417966479286226
392239 28 18410575132039627561
469060 322 18187094927155462593
5104073 3 18188773984199751776
5171179 24 17696775263481275575
6004065 56 18125996311994159583
653340 110 18339644434473076873
7226269 152 18335415785851269331
79837 15 18051982411407571977
9777508 108 18267308621175835601

>  <PUBCHEM_SHAPE_MULTIPOLES>  (1) 
562.47
10.89
3.8
1.44
7.44
3.85
-0.04
-2.41
4.35
-5.35
0.51
0.41
0.05
0.2

>  <PUBCHEM_SHAPE_SELFOVERLAP>  (1) 
1194.778

>  <PUBCHEM_SHAPE_VOLUME>  (1) 
318.2

>  <PUBCHEM_COORDINATE_TYPE>  (1) 
2
5
10

$$$$
