23143
     RDKit          3D

 15 16  0  0  0  0  0  0  0  0999 V2000
   -0.1973    0.1452    0.5277 N   0  0  0  0  0  0  0  0  0  0  0  0
    0.4354    0.1683   -0.5535 N   0  0  0  0  0  0  0  0  0  0  0  0
   -2.3155   -0.9666    0.0991 C   0  0  0  0  0  0  0  0  0  0  0  0
   -1.5738    0.2016    0.2757 C   0  0  0  0  0  0  0  0  0  0  0  0
   -3.6859   -0.8915   -0.1502 C   0  0  0  0  0  0  0  0  0  0  0  0
   -2.2026    1.4446    0.2029 C   0  0  0  0  0  0  0  0  0  0  0  0
   -1.6648   -2.3091    0.1737 C   0  0  0  0  0  0  0  0  0  0  0  0
   -4.3145    0.3517   -0.2229 C   0  0  0  0  0  0  0  0  0  0  0  0
   -3.5729    1.5197   -0.0463 C   0  0  0  0  0  0  0  0  0  0  0  0
    1.8167    0.1121   -0.3011 C   0  0  0  0  0  0  0  0  0  0  0  0
    2.4550   -1.1221   -0.2264 C   0  0  0  0  0  0  0  0  0  0  0  0
    2.5358    1.2906   -0.1273 C   0  0  0  0  0  0  0  0  0  0  0  0
    3.8259   -1.1783    0.0249 C   0  0  0  0  0  0  0  0  0  0  0  0
    3.9068    1.2342    0.1238 C   0  0  0  0  0  0  0  0  0  0  0  0
    4.5517   -0.0003    0.1999 C   0  0  0  0  0  0  0  0  0  0  0  0
  1  2  2  0
  1  4  1  0
  2 10  1  0
  3  4  2  0
  3  5  1  0
  3  7  1  0
  4  6  1  0
  5  8  2  0
  6  9  2  0
  8  9  1  0
 10 11  2  0
 10 12  1  0
 11 13  1  0
 12 14  2  0
 13 15  2  0
 14 15  1  0
M  END
>  <PUBCHEM_COMPOUND_CID>  (1) 
23143

>  <PUBCHEM_CONFORMER_RMSD>  (1) 
0.6

>  <PUBCHEM_CONFORMER_DIVERSEORDER>  (1) 
1
3
2

>  <PUBCHEM_MMFF94_PARTIAL_CHARGES>  (1) 
24
1 -0.18
10 0.18
11 -0.15
12 -0.15
13 -0.15
14 -0.15
15 -0.15
16 0.15
17 0.15
2 -0.18
21 0.15
22 0.15
23 0.15
24 0.15
25 0.15
26 0.15
27 0.15
3 -0.14
4 0.18
5 -0.15
6 -0.15
7 0.14
8 -0.15
9 -0.15

>  <PUBCHEM_EFFECTIVE_ROTOR_COUNT>  (1) 
2

>  <PUBCHEM_PHARMACOPHORE_FEATURES>  (1) 
2
6 10 11 12 13 14 15 rings
6 3 4 5 6 8 9 rings

>  <PUBCHEM_HEAVY_ATOM_COUNT>  (1) 
15

>  <PUBCHEM_ATOM_DEF_STEREO_COUNT>  (1) 
0

>  <PUBCHEM_ATOM_UDEF_STEREO_COUNT>  (1) 
0

>  <PUBCHEM_BOND_DEF_STEREO_COUNT>  (1) 
0

>  <PUBCHEM_BOND_UDEF_STEREO_COUNT>  (1) 
0

>  <PUBCHEM_ISOTOPIC_ATOM_COUNT>  (1) 
0

>  <PUBCHEM_COMPONENT_COUNT>  (1) 
1

>  <PUBCHEM_CACTVS_TAUTO_COUNT>  (1) 
1

>  <PUBCHEM_CONFORMER_ID>  (1) 
00005A6700000001

>  <PUBCHEM_MMFF94_ENERGY>  (1) 
41.0933

>  <PUBCHEM_FEATURE_SELFOVERLAP>  (1) 
10.149

>  <PUBCHEM_SHAPE_FINGERPRINT>  (1) 
10014705 185 18260544520178303037
10608611 8 18412261757159897448
10616163 171 18340490070478919806
11370993 70 18411696582344981422
11615757 297 16917352571102104440
12107183 9 17761772862817099160
12251169 10 18409166619221835964
12500047 106 18411414029288891698
13167823 11 18410008832017249386
13380535 76 18413390916883679287
13675066 3 17822016401782680345
14004511 7 18335143063859736681
14144814 61 18409451370952625320
15196674 1 18411138034621800975
15375358 24 18343302561098113614
15442244 35 18266741273228059424
15536298 74 18412263913418011882
17834074 16 18410576192986330306
18186145 218 18338520737689141549
19050596 39 18411699906828607368
200 152 17846494837820796365
20279233 1 18272658947592747806
20300324 65 18130783478120232477
20510252 161 18343587313461880033
20528008 55 18413105073840423175
20645477 56 18408042914017245493
20645477 70 18271246028154647262
21267235 1 18410302410122109866
23402539 116 18341886390585593133
23402655 69 18410857663958178644
23559900 14 18271805675462606538
2838139 119 16155085267902109325
351380 180 18342172258860153661
3545911 37 18411703196789497228
4028521 119 18187075136046142445
42 15 18334296452812220100
4214541 1 18410293601096459652
474 4 17386574711949309332
5104073 3 18410856563955869834
573450 72 18335128782929915090
58051976 100 18335423477800294286
69090 78 18410290302804390335
77779 3 18410857663609999404
93112 12 18410013247259239548
9709674 26 18413395340636963566

>  <PUBCHEM_SHAPE_MULTIPOLES>  (1) 
298.73
9.35
1.81
0.67
2.82
0.42
0
-0.96
0.07
-0.6
-0.06
0
0
0.06

>  <PUBCHEM_SHAPE_SELFOVERLAP>  (1) 
641.085

>  <PUBCHEM_SHAPE_VOLUME>  (1) 
165.9

>  <PUBCHEM_COORDINATE_TYPE>  (1) 
2
5
10

$$$$
