23153
     RDKit          3D

 24 25  0  0  1  0  0  0  0  0999 V2000
   -0.2947   -2.9148   -1.7007 O   0  0  0  0  0  0  0  0  0  0  0  0
    1.6568   -2.4859   -0.6581 O   0  0  0  0  0  0  0  0  0  0  0  0
    4.5115    1.0911   -0.2056 N   0  0  0  0  0  0  0  0  0  0  0  0
   -0.3604   -1.3672    0.1995 C   0  0  0  0  0  0  0  0  0  0  0  0
   -1.3458   -2.2906    1.0327 C   0  0  0  0  0  0  0  0  0  0  0  0
    0.6931   -0.6700    1.1448 C   0  0  0  0  0  0  0  0  0  0  0  0
   -1.0396   -0.2192   -0.5937 C   0  0  0  0  0  0  0  0  0  0  0  0
    1.7475    0.2034    0.4449 C   0  0  0  0  0  0  0  0  0  0  0  0
    0.4492   -2.2915   -0.7502 C   0  0  0  0  0  0  0  0  0  0  0  0
   -2.4326   -2.9867    0.1931 C   0  0  0  0  0  0  0  0  0  0  0  0
   -0.6360   -3.3762    1.8630 C   0  0  0  0  0  0  0  0  0  0  0  0
    2.6925    0.9092    1.4263 C   0  0  0  0  0  0  0  0  0  0  0  0
   -1.8077    0.7143    0.0645 C   0  0  0  0  0  0  0  0  0  0  0  0
   -0.8110   -0.2263   -1.9457 C   0  0  0  0  0  0  0  0  0  0  0  0
    3.6915    1.8408    0.7405 C   0  0  0  0  0  0  0  0  0  0  0  0
   -2.3998    1.7360   -0.7156 C   0  0  0  0  0  0  0  0  0  0  0  0
   -1.3931    0.7786   -2.7127 C   0  0  0  0  0  0  0  0  0  0  0  0
   -2.0249    0.6966    1.4519 C   0  0  0  0  0  0  0  0  0  0  0  0
   -2.1826    1.7541   -2.1030 C   0  0  0  0  0  0  0  0  0  0  0  0
   -3.1916    2.7098   -0.0853 C   0  0  0  0  0  0  0  0  0  0  0  0
   -2.8146    1.6719    2.0614 C   0  0  0  0  0  0  0  0  0  0  0  0
   -3.3970    2.6765    1.2942 C   0  0  0  0  0  0  0  0  0  0  0  0
    5.4084    1.9896   -0.9337 C   0  0  0  0  0  0  0  0  0  0  0  0
    5.2806    0.0567    0.4876 C   0  0  0  0  0  0  0  0  0  0  0  0
  1  9  1  0
  2  9  2  0
  3 15  1  0
  3 23  1  0
  3 24  1  0
  4  5  1  0
  4  6  1  0
  4  7  1  0
  4  9  1  0
  5 10  1  0
  5 11  1  0
  6  8  1  0
  7 13  2  0
  7 14  1  0
  8 12  1  0
 12 15  1  0
 13 16  1  0
 13 18  1  0
 14 17  2  0
 16 19  2  0
 16 20  1  0
 17 19  1  0
 18 21  2  0
 20 22  2  0
 21 22  1  0
M  END
>  <PUBCHEM_COMPOUND_CID>  (1) 
23153

>  <PUBCHEM_CONFORMER_RMSD>  (1) 
0.8

>  <PUBCHEM_CONFORMER_DIVERSEORDER>  (1) 
1
36
72
6
75
38
33
3
45
32
78
29
14
4
46
77
55
42
26
61
80
63
48
84
10
22
30
13
37
74
82
73
54
53
5
76
35
60
11
62
7
50
18
44
85
12
8
66
68
24
41
56
21
9
51
34
71
49
2
59
39
47
15
86
31
70
79
25
27
64
58
20
43
65
52
40
23
69
57
19
81
67
17
28
83
16

>  <PUBCHEM_MMFF94_PARTIAL_CHARGES>  (1) 
24
1 -0.65
14 -0.15
15 0.27
17 -0.15
18 -0.15
19 -0.15
2 -0.57
20 -0.15
21 -0.15
22 -0.15
23 0.27
24 0.27
3 -0.81
38 0.15
4 0.2
41 0.15
42 0.15
43 0.15
44 0.5
45 0.15
46 0.15
47 0.15
7 -0.14
9 0.66

>  <PUBCHEM_EFFECTIVE_ROTOR_COUNT>  (1) 
8

>  <PUBCHEM_PHARMACOPHORE_FEATURES>  (1) 
8
1 1 acceptor
1 2 acceptor
1 3 cation
3 1 2 9 anion
3 5 10 11 hydrophobe
5 4 5 6 8 12 hydrophobe
6 13 16 18 20 21 22 rings
6 7 13 14 16 17 19 rings

>  <PUBCHEM_HEAVY_ATOM_COUNT>  (1) 
24

>  <PUBCHEM_ATOM_DEF_STEREO_COUNT>  (1) 
0

>  <PUBCHEM_ATOM_UDEF_STEREO_COUNT>  (1) 
1

>  <PUBCHEM_BOND_DEF_STEREO_COUNT>  (1) 
0

>  <PUBCHEM_BOND_UDEF_STEREO_COUNT>  (1) 
0

>  <PUBCHEM_ISOTOPIC_ATOM_COUNT>  (1) 
0

>  <PUBCHEM_COMPONENT_COUNT>  (1) 
1

>  <PUBCHEM_CACTVS_TAUTO_COUNT>  (1) 
1

>  <PUBCHEM_CONFORMER_ID>  (1) 
00005A7100000001

>  <PUBCHEM_MMFF94_ENERGY>  (1) 
98.3001

>  <PUBCHEM_FEATURE_SELFOVERLAP>  (1) 
40.684

>  <PUBCHEM_SHAPE_FINGERPRINT>  (1) 
10165383 225 17900569807459334550
10764073 3 16626910020494963171
11578080 2 17624464944212207766
11640471 11 17699535110137832441
1200032 147 16197365801832014593
12156800 1 17762947428887771137
12160290 23 18121471786700144850
12173636 292 18272366533582377456
12788726 201 18118388768881030106
131258 43 17182531884025919198
13134695 92 16673283766132428579
13135754 10 18118984700125297674
133893 2 17833240070381525391
14142880 1 18336541724085990869
14251751 93 18335977653768389778
14713325 29 18339088197743358794
14787075 74 18269535257276637389
15183329 4 16660916804064246284
15534591 1 18130783447412117025
17980427 23 17531544122145152485
17980427 26 17978792311939327455
20600515 1 17250033088360640178
21120745 212 17611493082332420712
21330990 113 18128820939695481795
21524375 3 18267284491732477354
21756936 100 18202281394622088232
22907989 373 18193825158040255804
23419403 2 16553458151270636165
283562 15 18191861438768608618
298252 57 16845009000951397881
3729539 64 17686639952300952966
469060 322 17169539929651304896
474 4 18055906602507515810
5845 1 9999374869628670915
6786 2 18339933614457728827
81228 2 18115034124697895099
9981440 41 17412701285731099058

>  <PUBCHEM_SHAPE_MULTIPOLES>  (1) 
477.19
7.44
3.96
2.21
14.14
2.72
0.73
-7.24
-1.06
-2.37
-0.49
-1.46
-0.36
-0.14

>  <PUBCHEM_SHAPE_SELFOVERLAP>  (1) 
998.361

>  <PUBCHEM_SHAPE_VOLUME>  (1) 
271.9

>  <PUBCHEM_COORDINATE_TYPE>  (1) 
2
5
10

$$$$
