23150
     RDKit          3D

 12 13  0  0  0  0  0  0  0  0999 V2000
   -0.3462    0.8285    0.0457 C   0  0  0  0  0  0  0  0  0  0  0  0
   -0.9812   -0.4189    0.0404 C   0  0  0  0  0  0  0  0  0  0  0  0
   -1.3481    1.9361    0.1315 C   0  0  0  0  0  0  0  0  0  0  0  0
   -2.4667   -0.2610    0.1214 C   0  0  0  0  0  0  0  0  0  0  0  0
   -2.6325    1.2086   -0.2938 C   0  0  0  0  0  0  0  0  0  0  0  0
    1.0346    0.9273    0.0204 C   0  0  0  0  0  0  0  0  0  0  0  0
   -0.2485   -1.5933    0.0098 C   0  0  0  0  0  0  0  0  0  0  0  0
    1.7815   -0.2520   -0.0234 C   0  0  0  0  0  0  0  0  0  0  0  0
    1.1445   -1.5032   -0.0285 C   0  0  0  0  0  0  0  0  0  0  0  0
    1.7010    2.2613    0.0358 C   0  0  0  0  0  0  0  0  0  0  0  0
   -0.9131   -2.9258    0.0125 C   0  0  0  0  0  0  0  0  0  0  0  0
    3.2747   -0.2077   -0.0717 C   0  0  0  0  0  0  0  0  0  0  0  0
  1  2  2  0
  1  3  1  0
  1  6  1  0
  2  4  1  0
  2  7  1  0
  3  5  1  0
  4  5  1  0
  6  8  2  0
  6 10  1  0
  7  9  2  0
  7 11  1  0
  8  9  1  0
  8 12  1  0
M  END
>  <PUBCHEM_COMPOUND_CID>  (1) 
23150

>  <PUBCHEM_CONFORMER_RMSD>  (1) 
0.4

>  <PUBCHEM_CONFORMER_DIVERSEORDER>  (1) 
1

>  <PUBCHEM_MMFF94_PARTIAL_CHARGES>  (1) 
12
1 -0.14
10 0.14
11 0.14
12 0.14
19 0.15
2 -0.14
3 0.14
4 0.14
6 -0.14
7 -0.14
8 -0.14
9 -0.15

>  <PUBCHEM_EFFECTIVE_ROTOR_COUNT>  (1) 
0.6

>  <PUBCHEM_PHARMACOPHORE_FEATURES>  (1) 
2
5 1 2 3 4 5 rings
6 1 2 6 7 8 9 rings

>  <PUBCHEM_HEAVY_ATOM_COUNT>  (1) 
12

>  <PUBCHEM_ATOM_DEF_STEREO_COUNT>  (1) 
0

>  <PUBCHEM_ATOM_UDEF_STEREO_COUNT>  (1) 
0

>  <PUBCHEM_BOND_DEF_STEREO_COUNT>  (1) 
0

>  <PUBCHEM_BOND_UDEF_STEREO_COUNT>  (1) 
0

>  <PUBCHEM_ISOTOPIC_ATOM_COUNT>  (1) 
0

>  <PUBCHEM_COMPONENT_COUNT>  (1) 
1

>  <PUBCHEM_CACTVS_TAUTO_COUNT>  (1) 
1

>  <PUBCHEM_CONFORMER_ID>  (1) 
00005A6E00000001

>  <PUBCHEM_MMFF94_ENERGY>  (1) 
32.1733

>  <PUBCHEM_FEATURE_SELFOVERLAP>  (1) 
10.232

>  <PUBCHEM_SHAPE_FINGERPRINT>  (1) 
10967382 1 18266740169057590791
11206711 2 18409448059596312933
11471102 20 18194116314205930989
12423570 1 16331911256846622782
13140716 1 18194684988870534890
13380535 21 18123202452372753200
13380535 76 18412821378571582742
16945 1 18410856576925277242
193761 8 18122625217268226720
20511035 2 18128529543433565988
20645476 183 17823440261083363166
20871998 184 18128260171374340086
21040471 1 18410573998078570538
21501502 16 18194965381657709908
2334 1 17906735061193048850
23402539 116 18271229526900585630
23402655 69 18051958244175067877
23419403 2 16182050922957827260
23463225 33 18046343037837873514
23552423 10 17973160913924074404
23559900 14 18342749507867440716
241688 4 15888276340895630170
25 1 17973997358895135221
2748010 2 18194685852116724030
5084963 1 18131349700232136913
5255222 1 18052258684993770385
528886 8 18266454317477596137
53812653 166 18341889632863966800
54173680 148 18337674242769837442
63268167 104 18195809561553322489
66348 1 18338234847464893073
7364860 26 17693372239857869663

>  <PUBCHEM_SHAPE_MULTIPOLES>  (1) 
246.95
3.61
2.75
0.63
0.9
0.89
0
-0.83
0.15
-0.46
-0.03
-0.02
-0.01
0.08

>  <PUBCHEM_SHAPE_SELFOVERLAP>  (1) 
527.598

>  <PUBCHEM_SHAPE_VOLUME>  (1) 
133.6

>  <PUBCHEM_COORDINATE_TYPE>  (1) 
2
5
10

$$$$
