23162
     RDKit          3D

 24 25  0  0  1  0  0  0  0  0999 V2000
    1.7002   -2.2161   -1.6743 O   0  0  0  0  0  0  0  0  0  0  0  0
    2.9736   -0.6434   -0.5949 O   0  0  0  0  0  0  0  0  0  0  0  0
   -4.3689   -0.8714    0.0766 N   0  0  0  0  0  0  0  0  0  0  0  0
    0.7072   -1.1155    0.2390 C   0  0  0  0  0  0  0  0  0  0  0  0
    0.8608   -2.2351    1.3522 C   0  0  0  0  0  0  0  0  0  0  0  0
   -0.6327   -1.2849   -0.5664 C   0  0  0  0  0  0  0  0  0  0  0  0
    0.7030    0.3408    0.7866 C   0  0  0  0  0  0  0  0  0  0  0  0
   -1.9245   -1.0176    0.2245 C   0  0  0  0  0  0  0  0  0  0  0  0
    1.9256   -1.2702   -0.7178 C   0  0  0  0  0  0  0  0  0  0  0  0
    2.1483   -2.1085    2.1901 C   0  0  0  0  0  0  0  0  0  0  0  0
    0.7956   -3.6772    0.8177 C   0  0  0  0  0  0  0  0  0  0  0  0
    0.6048    1.4009   -0.0829 C   0  0  0  0  0  0  0  0  0  0  0  0
   -3.1505   -1.1180   -0.6856 C   0  0  0  0  0  0  0  0  0  0  0  0
    0.8020    0.4507    2.1481 C   0  0  0  0  0  0  0  0  0  0  0  0
    0.6064    2.7002    0.4780 C   0  0  0  0  0  0  0  0  0  0  0  0
    0.8032    1.7284    2.6996 C   0  0  0  0  0  0  0  0  0  0  0  0
    0.5048    1.2543   -1.4761 C   0  0  0  0  0  0  0  0  0  0  0  0
    0.7062    2.8469    1.8712 C   0  0  0  0  0  0  0  0  0  0  0  0
    0.5079    3.8147   -0.3708 C   0  0  0  0  0  0  0  0  0  0  0  0
    0.4080    2.3728   -2.3044 C   0  0  0  0  0  0  0  0  0  0  0  0
   -4.3275    0.4522    0.7007 C   0  0  0  0  0  0  0  0  0  0  0  0
   -5.5476   -0.9904   -0.7835 C   0  0  0  0  0  0  0  0  0  0  0  0
    0.4096    3.6507   -1.7528 C   0  0  0  0  0  0  0  0  0  0  0  0
    2.7845   -2.4643   -2.5749 C   0  0  0  0  0  0  0  0  0  0  0  0
  1  9  1  0
  1 24  1  0
  2  9  2  0
  3 13  1  0
  3 21  1  0
  3 22  1  0
  4  5  1  0
  4  6  1  0
  4  7  1  0
  4  9  1  0
  5 10  1  0
  5 11  1  0
  6  8  1  0
  7 12  2  0
  7 14  1  0
  8 13  1  0
 12 15  1  0
 12 17  1  0
 14 16  2  0
 15 18  2  0
 15 19  1  0
 16 18  1  0
 17 20  2  0
 19 23  2  0
 20 23  1  0
M  END
>  <PUBCHEM_COMPOUND_CID>  (1) 
23162

>  <PUBCHEM_CONFORMER_RMSD>  (1) 
0.8

>  <PUBCHEM_CONFORMER_DIVERSEORDER>  (1) 
7
46
44
30
48
26
29
33
6
40
35
19
45
15
31
3
27
4
9
36
32
47
22
34
13
24
18
49
38
43
14
8
25
42
17
21
5
39
41
10
23
16
1
2
37
28
12
20
11

>  <PUBCHEM_MMFF94_PARTIAL_CHARGES>  (1) 
24
1 -0.43
13 0.27
14 -0.15
16 -0.15
17 -0.15
18 -0.15
19 -0.15
2 -0.57
20 -0.15
21 0.27
22 0.27
23 -0.15
24 0.28
3 -0.81
38 0.15
39 0.15
4 0.2
40 0.15
41 0.15
42 0.15
43 0.15
50 0.15
7 -0.14
9 0.66

>  <PUBCHEM_EFFECTIVE_ROTOR_COUNT>  (1) 
8

>  <PUBCHEM_PHARMACOPHORE_FEATURES>  (1) 
6
1 2 acceptor
1 3 cation
3 5 10 11 hydrophobe
4 4 5 6 8 hydrophobe
6 12 15 17 19 20 23 rings
6 7 12 14 15 16 18 rings

>  <PUBCHEM_HEAVY_ATOM_COUNT>  (1) 
24

>  <PUBCHEM_ATOM_DEF_STEREO_COUNT>  (1) 
0

>  <PUBCHEM_ATOM_UDEF_STEREO_COUNT>  (1) 
1

>  <PUBCHEM_BOND_DEF_STEREO_COUNT>  (1) 
0

>  <PUBCHEM_BOND_UDEF_STEREO_COUNT>  (1) 
0

>  <PUBCHEM_ISOTOPIC_ATOM_COUNT>  (1) 
0

>  <PUBCHEM_COMPONENT_COUNT>  (1) 
1

>  <PUBCHEM_CACTVS_TAUTO_COUNT>  (1) 
1

>  <PUBCHEM_CONFORMER_ID>  (1) 
00005A7A00000007

>  <PUBCHEM_MMFF94_ENERGY>  (1) 
101.574

>  <PUBCHEM_FEATURE_SELFOVERLAP>  (1) 
30.529

>  <PUBCHEM_SHAPE_FINGERPRINT>  (1) 
10165383 225 17041246821473275081
11582403 64 14905629051072720144
11640471 11 17034700359301505925
11725454 13 15406947031145029152
13134695 92 17846502517391113895
13149001 5 17972628702909809054
13681431 1 18341628022010727635
14713325 29 16601000226591639588
15210252 30 18042137478749467741
16945 1 18125461918781988254
20511035 2 17690839382106277074
20600515 1 18411986836319416534
21452121 99 17471837118023305364
21524375 3 17618769693239840603
21756936 100 15218933884385917373
22149856 69 17912650396362777399
2255824 54 18335136544458376291
23419403 2 18057580158416902888
23559900 14 18410855499780516871
238 59 18193288605204034715
3380486 145 17483068779709730398
3380486 77 18113911446433255566
35225 105 17261321297828635309
4409770 3 17399772927380029395
474 4 18045769342224235679
5845 1 14815601279397826187
5895379 119 16343163345924736545
81228 2 17979101321835665998
9925002 15 17482878551291935688

>  <PUBCHEM_SHAPE_MULTIPOLES>  (1) 
477.19
5.27
4.79
2.57
13.01
1.88
-0.1
-2.86
1.12
-3.44
0.78
-2.09
0.31
0.33

>  <PUBCHEM_SHAPE_SELFOVERLAP>  (1) 
998.607

>  <PUBCHEM_SHAPE_VOLUME>  (1) 
271.9

>  <PUBCHEM_COORDINATE_TYPE>  (1) 
2
5
10

$$$$
