23178
     RDKit          3D

  8  7  0  0  0  0  0  0  0  0999 V2000
   -2.4122    1.2077    0.1397 O   0  0  0  0  0  0  0  0  0  0  0  0
   -0.7780   -0.5522   -0.1442 C   0  0  0  0  0  0  0  0  0  0  0  0
    0.2770    0.5465   -0.2544 C   0  0  0  0  0  0  0  0  0  0  0  0
   -2.1777    0.0034    0.0539 C   0  0  0  0  0  0  0  0  0  0  0  0
    1.6470   -0.0326   -0.4547 C   0  0  0  0  0  0  0  0  0  0  0  0
   -3.2883   -1.0114    0.1384 C   0  0  0  0  0  0  0  0  0  0  0  0
    2.6839    0.2046    0.3618 C   0  0  0  0  0  0  0  0  0  0  0  0
    4.0484   -0.3659    0.1595 C   0  0  0  0  0  0  0  0  0  0  0  0
  1  4  2  0
  2  3  1  0
  2  4  1  0
  3  5  1  0
  4  6  1  0
  5  7  2  0
  7  8  1  0
M  END
>  <PUBCHEM_COMPOUND_CID>  (1) 
23178

>  <PUBCHEM_CONFORMER_RMSD>  (1) 
0.6

>  <PUBCHEM_CONFORMER_DIVERSEORDER>  (1) 
1
13
2
5
3
10
12
9
4
8
6
7
11

>  <PUBCHEM_MMFF94_PARTIAL_CHARGES>  (1) 
10
1 -0.57
13 0.15
17 0.15
2 0.06
3 0.14
4 0.45
5 -0.29
6 0.06
7 -0.29
8 0.14

>  <PUBCHEM_EFFECTIVE_ROTOR_COUNT>  (1) 
3

>  <PUBCHEM_PHARMACOPHORE_FEATURES>  (1) 
2
1 1 acceptor
1 8 hydrophobe

>  <PUBCHEM_HEAVY_ATOM_COUNT>  (1) 
8

>  <PUBCHEM_ATOM_DEF_STEREO_COUNT>  (1) 
0

>  <PUBCHEM_ATOM_UDEF_STEREO_COUNT>  (1) 
0

>  <PUBCHEM_BOND_DEF_STEREO_COUNT>  (1) 
0

>  <PUBCHEM_BOND_UDEF_STEREO_COUNT>  (1) 
1

>  <PUBCHEM_ISOTOPIC_ATOM_COUNT>  (1) 
0

>  <PUBCHEM_COMPONENT_COUNT>  (1) 
1

>  <PUBCHEM_CACTVS_TAUTO_COUNT>  (1) 
3

>  <PUBCHEM_CONFORMER_ID>  (1) 
00005A8A00000001

>  <PUBCHEM_MMFF94_ENERGY>  (1) 
2.1507

>  <PUBCHEM_FEATURE_SELFOVERLAP>  (1) 
10.148

>  <PUBCHEM_SHAPE_FINGERPRINT>  (1) 
11062470 55 18343301466028873224
12932764 1 17346873459919465998
14325111 11 18411699876737417022
14390081 3 17775003462037726905
177051 138 18408604790023023546
190213 19 17894347791606673250
20211469 26 18335696169880010511
21293036 1 11241970386459970498
23402539 116 18272360963442214061
3248919 1 17386013874702656594
5460574 1 8718831980806968884

>  <PUBCHEM_SHAPE_MULTIPOLES>  (1) 
158.77
6.65
0.97
0.67
2.78
0.07
-0.01
-1.26
0.8
-0.64
0.03
0.11
-0.01
-0.02

>  <PUBCHEM_SHAPE_SELFOVERLAP>  (1) 
286.369

>  <PUBCHEM_SHAPE_VOLUME>  (1) 
102.3

>  <PUBCHEM_COORDINATE_TYPE>  (1) 
2
5
10

$$$$
