23173
     RDKit          3D

 18 18  0  0  0  0  0  0  0  0999 V2000
   -3.0671   -0.3615    0.5963 O   0  0  0  0  0  0  0  0  0  0  0  0
    1.6704   -2.3738    0.2438 O   0  0  0  0  0  0  0  0  0  0  0  0
    1.4114   -1.2159   -1.7386 O   0  0  0  0  0  0  0  0  0  0  0  0
    0.0950    3.1299    0.5445 C   0  0  0  0  0  0  0  0  0  0  0  0
    1.5303    3.2836    0.0355 C   0  0  0  0  0  0  0  0  0  0  0  0
   -0.8251    2.3417   -0.3930 C   0  0  0  0  0  0  0  0  0  0  0  0
    2.3060    1.9866   -0.2131 C   0  0  0  0  0  0  0  0  0  0  0  0
   -2.2693    2.3925    0.1156 C   0  0  0  0  0  0  0  0  0  0  0  0
    2.3264    1.0417    0.9901 C   0  0  0  0  0  0  0  0  0  0  0  0
   -3.2646    1.6217   -0.7577 C   0  0  0  0  0  0  0  0  0  0  0  0
    3.3820   -0.0676    0.8956 C   0  0  0  0  0  0  0  0  0  0  0  0
   -3.0861    0.1043   -0.7503 C   0  0  0  0  0  0  0  0  0  0  0  0
    3.3811   -0.8773   -0.3980 C   0  0  0  0  0  0  0  0  0  0  0  0
   -2.0880   -2.5952    0.1432 C   0  0  0  0  0  0  0  0  0  0  0  0
   -3.2308   -1.7704    0.7345 C   0  0  0  0  0  0  0  0  0  0  0  0
   -0.7127   -2.1347    0.6218 C   0  0  0  0  0  0  0  0  0  0  0  0
    0.3970   -3.0164    0.0556 C   0  0  0  0  0  0  0  0  0  0  0  0
    2.0441   -1.4892   -0.7258 C   0  0  0  0  0  0  0  0  0  0  0  0
  1 12  1  0
  1 15  1  0
  2 17  1  0
  2 18  1  0
  3 18  2  0
  4  5  1  0
  4  6  1  0
  5  7  1  0
  6  8  1  0
  7  9  1  0
  8 10  1  0
  9 11  1  0
 10 12  1  0
 11 13  1  0
 13 18  1  0
 14 15  1  0
 14 16  1  0
 16 17  1  0
M  END
>  <PUBCHEM_COMPOUND_CID>  (1) 
23173

>  <PUBCHEM_CONFORMER_RMSD>  (1) 
0.6

>  <PUBCHEM_CONFORMER_DIVERSEORDER>  (1) 
1
23
100
92
86
81
99
29
97
102
34
59
88
73
94
63
5
24
64
67
98
54
48
71
61
87
39
38
84
2
90
43
68
76
60
19
72
78
32
89
91
7
101
27
37
74
83
50
85
12
40
95
82
21
55
9
62
96
41
17
31
49
93
51
56
65
11
45
30
57
35
58
6
52
75
42
44
25
8
15
18
22
77
16
70
80
79
13
46
20
53
4
36
69
26
14
28
33
3
66
10
47

>  <PUBCHEM_MMFF94_PARTIAL_CHARGES>  (1) 
8
1 -0.56
12 0.28
13 0.06
15 0.28
17 0.28
18 0.66
2 -0.43
3 -0.57

>  <PUBCHEM_EFFECTIVE_ROTOR_COUNT>  (1) 
3.2

>  <PUBCHEM_PHARMACOPHORE_FEATURES>  (1) 
2
1 1 acceptor
1 3 acceptor

>  <PUBCHEM_HEAVY_ATOM_COUNT>  (1) 
18

>  <PUBCHEM_ATOM_DEF_STEREO_COUNT>  (1) 
0

>  <PUBCHEM_ATOM_UDEF_STEREO_COUNT>  (1) 
0

>  <PUBCHEM_BOND_DEF_STEREO_COUNT>  (1) 
0

>  <PUBCHEM_BOND_UDEF_STEREO_COUNT>  (1) 
0

>  <PUBCHEM_ISOTOPIC_ATOM_COUNT>  (1) 
0

>  <PUBCHEM_COMPONENT_COUNT>  (1) 
1

>  <PUBCHEM_CACTVS_TAUTO_COUNT>  (1) 
1

>  <PUBCHEM_CONFORMER_ID>  (1) 
00005A8500000001

>  <PUBCHEM_MMFF94_ENERGY>  (1) 
15.951

>  <PUBCHEM_FEATURE_SELFOVERLAP>  (1) 
10.149

>  <PUBCHEM_SHAPE_FINGERPRINT>  (1) 
10616163 171 18120657095829031497
10759866 29 17968097560184222132
11615756 56 18410569604359006571
12038231 1 17689995639712039289
12539773 59 17487326046225826801
12553582 1 18051413959299973936
12596599 1 17343501094580091621
12633257 1 18409447007334502561
12838863 1 18122028023583324147
13075007 39 17391377452128426011
13122387 1 18410012143421060985
13402501 40 18410570686838263377
14251705 54 18338237175416503249
14251740 79 16542460561129384790
14251745 187 18270111301994708480
15006816 218 18194686097288393529
17093844 170 18195234521494011312
17859628 37 17978798131287990054
19930381 70 18193835071015048979
20397935 3 18263663860182711772
20621476 13 18339072821654800885
20621476 7 18193848256416649571
20905425 154 18121788497377561732
21141583 151 17838340670552847246
23590187 86 18337389473441940691
238 59 17982142798620539245
3052486 1 18334579014953811370
3524813 1 18272928349289912634
44154327 71 17833275589782207875
58250162 1 16969413016347868898
5939293 188 18196092359522281240

>  <PUBCHEM_SHAPE_MULTIPOLES>  (1) 
352.82
5.96
4.74
1.04
1.26
1.09
0.16
-0.33
-0.23
0.25
-0.21
-0.19
-0.17
1

>  <PUBCHEM_SHAPE_SELFOVERLAP>  (1) 
667.911

>  <PUBCHEM_SHAPE_VOLUME>  (1) 
214.3

>  <PUBCHEM_COORDINATE_TYPE>  (1) 
2
5
10

$$$$
