23181
     RDKit          3D

 22 22  0  0  0  0  0  0  0  0999 V2000
    0.0257    4.5059   -0.0174 O   0  0  0  0  0  0  0  0  0  0  0  0
   -1.5518    0.5652    0.0262 O   0  0  0  0  0  0  0  0  0  0  0  0
    1.5641    0.5520   -0.0088 O   0  0  0  0  0  0  0  0  0  0  0  0
   -2.6279   -0.2944    1.8499 O   0  0  0  0  0  0  0  0  0  0  0  0
    2.7116   -0.2098   -1.8326 O   0  0  0  0  0  0  0  0  0  0  0  0
   -3.0227   -1.1989   -0.2558 N   0  0  0  0  0  0  0  0  0  0  0  0
    3.0110   -1.2257    0.2378 N   0  0  0  0  0  0  0  0  0  0  0  0
    0.0066    2.3718    0.0238 C   0  0  0  0  0  0  0  0  0  0  0  0
    0.6806    3.5028    0.7922 C   0  0  0  0  0  0  0  0  0  0  0  0
   -0.7180    3.4863   -0.7229 C   0  0  0  0  0  0  0  0  0  0  0  0
   -0.8961    1.5050    0.8687 C   0  0  0  0  0  0  0  0  0  0  0  0
    0.9447    1.5454   -0.8343 C   0  0  0  0  0  0  0  0  0  0  0  0
   -2.4180   -0.3091    0.6382 C   0  0  0  0  0  0  0  0  0  0  0  0
    2.4489   -0.2868   -0.6337 C   0  0  0  0  0  0  0  0  0  0  0  0
   -3.9777   -2.2100    0.1869 C   0  0  0  0  0  0  0  0  0  0  0  0
   -2.7368   -1.1714   -1.6831 C   0  0  0  0  0  0  0  0  0  0  0  0
    3.9810   -2.2177   -0.2156 C   0  0  0  0  0  0  0  0  0  0  0  0
    2.6631   -1.2715    1.6508 C   0  0  0  0  0  0  0  0  0  0  0  0
   -5.3971   -1.6817    0.1612 C   0  0  0  0  0  0  0  0  0  0  0  0
   -1.5715   -2.0737   -2.0331 C   0  0  0  0  0  0  0  0  0  0  0  0
    5.3997   -1.6994   -0.1004 C   0  0  0  0  0  0  0  0  0  0  0  0
    1.4806   -2.1842    1.9018 C   0  0  0  0  0  0  0  0  0  0  0  0
  1  9  1  0
  1 10  1  0
  2 11  1  0
  2 13  1  0
  3 12  1  0
  3 14  1  0
  4 13  2  0
  5 14  2  0
  6 13  1  0
  6 15  1  0
  6 16  1  0
  7 14  1  0
  7 17  1  0
  7 18  1  0
  8  9  1  0
  8 10  1  0
  8 11  1  0
  8 12  1  0
 15 19  1  0
 16 20  1  0
 17 21  1  0
 18 22  1  0
M  END
>  <PUBCHEM_COMPOUND_CID>  (1) 
23181

>  <PUBCHEM_CONFORMER_RMSD>  (1) 
1.2

>  <PUBCHEM_CONFORMER_DIVERSEORDER>  (1) 
1
39
14
3
38
37
31
33
42
5
36
13
10
27
4
30
41
2
15
28
8
22
35
7
25
29
34
23
6
21
11
9
20
16
26
24
32
18
17
19
12
40

>  <PUBCHEM_MMFF94_PARTIAL_CHARGES>  (1) 
17
1 -0.52
10 0.26
11 0.28
12 0.28
13 0.78
14 0.78
15 0.3
16 0.3
17 0.3
18 0.3
2 -0.43
3 -0.43
4 -0.57
5 -0.57
6 -0.66
7 -0.66
9 0.26

>  <PUBCHEM_EFFECTIVE_ROTOR_COUNT>  (1) 
12.8

>  <PUBCHEM_PHARMACOPHORE_FEATURES>  (1) 
4
1 1 acceptor
1 4 acceptor
1 5 acceptor
4 1 8 9 10 rings

>  <PUBCHEM_HEAVY_ATOM_COUNT>  (1) 
22

>  <PUBCHEM_ATOM_DEF_STEREO_COUNT>  (1) 
0

>  <PUBCHEM_ATOM_UDEF_STEREO_COUNT>  (1) 
0

>  <PUBCHEM_BOND_DEF_STEREO_COUNT>  (1) 
0

>  <PUBCHEM_BOND_UDEF_STEREO_COUNT>  (1) 
0

>  <PUBCHEM_ISOTOPIC_ATOM_COUNT>  (1) 
0

>  <PUBCHEM_COMPONENT_COUNT>  (1) 
1

>  <PUBCHEM_CACTVS_TAUTO_COUNT>  (1) 
1

>  <PUBCHEM_CONFORMER_ID>  (1) 
00005A8D00000001

>  <PUBCHEM_MMFF94_ENERGY>  (1) 
28.7925

>  <PUBCHEM_FEATURE_SELFOVERLAP>  (1) 
20.297

>  <PUBCHEM_SHAPE_FINGERPRINT>  (1) 
11265709 11 18410858750168186089
12363563 72 18410014338033460534
12553582 1 18338812159752152330
12633257 1 15697995258030507187
12788726 201 18048860914975145925
13004483 165 18342168951587662132
13533116 47 18119253011702914347
13631057 29 18335140831072952110
13911987 19 17464286050712304060
14251751 93 18050570634519896670
14787075 74 18334016125335725512
15042514 8 18268155245044489117
1813 80 18271537458506548535
20291156 8 18411136935115792239
20567600 347 17189243332576160447
20600515 1 17917720084387321025
20645477 70 18053386780240584103
20832881 197 18334019410769442411
21421861 104 18197216056369714993
21731516 1 18411139134128166980
2255824 54 18050853517802431053
23419403 2 15659351818329215912
23598288 3 17972624098604497844
23598291 2 18269577059866710625
23728640 28 17760080722658503800
7970288 3 18410857659157965343

>  <PUBCHEM_SHAPE_MULTIPOLES>  (1) 
413.44
8.11
4.55
1.67
0.05
6.16
-0.07
-10.23
-0.05
0.06
0.07
-0.07
-0.88
-0.58

>  <PUBCHEM_SHAPE_SELFOVERLAP>  (1) 
808.05

>  <PUBCHEM_SHAPE_VOLUME>  (1) 
250.2

>  <PUBCHEM_COORDINATE_TYPE>  (1) 
2
5
10

$$$$
