23186
     RDKit          3D

 25 27  0  0  1  0  0  0  0  0999 V2000
    3.3015   -2.1132    0.5659 O   0  0  0  0  0  0  0  0  0  0  0  0
    1.4004   -3.2624    0.9662 O   0  0  0  0  0  0  0  0  0  0  0  0
   -3.1988   -1.0710    0.1748 N   0  0  0  0  0  0  0  0  0  0  0  0
    1.2290   -1.1504   -0.2969 C   0  0  0  0  0  0  0  0  0  0  0  0
   -0.2872   -1.5849   -0.3134 C   0  0  0  0  0  0  0  0  0  0  0  0
    1.8058   -1.0919   -1.7747 C   0  0  0  0  0  0  0  0  0  0  0  0
   -0.9695   -1.6863    1.0652 C   0  0  0  0  0  0  0  0  0  0  0  0
   -2.4567   -2.0416    0.9658 C   0  0  0  0  0  0  0  0  0  0  0  0
    1.4242    0.2179    0.4076 C   0  0  0  0  0  0  0  0  0  0  0  0
   -3.2037    0.2587    0.7837 C   0  0  0  0  0  0  0  0  0  0  0  0
   -4.6099   -1.4287    0.0326 C   0  0  0  0  0  0  0  0  0  0  0  0
   -4.3159    0.9737    0.0308 C   0  0  0  0  0  0  0  0  0  0  0  0
   -5.2419   -0.1350   -0.4598 C   0  0  0  0  0  0  0  0  0  0  0  0
    1.9533   -2.2797    0.4858 C   0  0  0  0  0  0  0  0  0  0  0  0
    3.2898   -0.6917   -1.8681 C   0  0  0  0  0  0  0  0  0  0  0  0
    1.6142   -2.3842   -2.5852 C   0  0  0  0  0  0  0  0  0  0  0  0
    0.8608    1.3557   -0.1249 C   0  0  0  0  0  0  0  0  0  0  0  0
    2.1751    0.1848    1.5547 C   0  0  0  0  0  0  0  0  0  0  0  0
    1.0758    2.5724    0.5653 C   0  0  0  0  0  0  0  0  0  0  0  0
    2.3860    1.3814    2.2335 C   0  0  0  0  0  0  0  0  0  0  0  0
    0.0957    1.3600   -1.3026 C   0  0  0  0  0  0  0  0  0  0  0  0
    1.8405    2.5682    1.7432 C   0  0  0  0  0  0  0  0  0  0  0  0
    0.5191    3.7576    0.0575 C   0  0  0  0  0  0  0  0  0  0  0  0
   -0.4495    2.5470   -1.7928 C   0  0  0  0  0  0  0  0  0  0  0  0
   -0.2381    3.7436   -1.1142 C   0  0  0  0  0  0  0  0  0  0  0  0
  1 14  1  0
  2 14  2  0
  3  8  1  0
  3 10  1  0
  3 11  1  0
  4  5  1  0
  4  6  1  0
  4  9  1  0
  4 14  1  0
  5  7  1  0
  6 15  1  0
  6 16  1  0
  7  8  1  0
  9 17  1  0
  9 18  2  0
 10 12  1  0
 11 13  1  0
 12 13  1  0
 17 19  2  0
 17 21  1  0
 18 20  1  0
 19 22  1  0
 19 23  1  0
 20 22  2  0
 21 24  2  0
 23 25  2  0
 24 25  1  0
M  END
>  <PUBCHEM_COMPOUND_CID>  (1) 
23186

>  <PUBCHEM_CONFORMER_RMSD>  (1) 
0.8

>  <PUBCHEM_CONFORMER_DIVERSEORDER>  (1) 
1
9
34
33
36
24
19
27
30
21
26
23
35
15
16
5
29
11
28
25
22
32
17
31
14
10
13
8
4
6
3
12
2
20
7
18

>  <PUBCHEM_MMFF94_PARTIAL_CHARGES>  (1) 
24
1 -0.65
10 0.27
11 0.27
14 0.66
18 -0.15
2 -0.57
20 -0.15
21 -0.15
22 -0.15
23 -0.15
24 -0.15
25 -0.15
3 -0.81
4 0.2
47 0.15
48 0.15
49 0.15
50 0.15
51 0.5
52 0.15
53 0.15
54 0.15
8 0.27
9 -0.14

>  <PUBCHEM_EFFECTIVE_ROTOR_COUNT>  (1) 
8

>  <PUBCHEM_PHARMACOPHORE_FEATURES>  (1) 
9
1 1 acceptor
1 2 acceptor
1 3 cation
3 1 2 14 anion
3 6 15 16 hydrophobe
4 4 5 6 7 hydrophobe
5 3 10 11 12 13 rings
6 17 19 21 23 24 25 rings
6 9 17 18 19 20 22 rings

>  <PUBCHEM_HEAVY_ATOM_COUNT>  (1) 
25

>  <PUBCHEM_ATOM_DEF_STEREO_COUNT>  (1) 
0

>  <PUBCHEM_ATOM_UDEF_STEREO_COUNT>  (1) 
1

>  <PUBCHEM_BOND_DEF_STEREO_COUNT>  (1) 
0

>  <PUBCHEM_BOND_UDEF_STEREO_COUNT>  (1) 
0

>  <PUBCHEM_ISOTOPIC_ATOM_COUNT>  (1) 
0

>  <PUBCHEM_COMPONENT_COUNT>  (1) 
1

>  <PUBCHEM_CACTVS_TAUTO_COUNT>  (1) 
1

>  <PUBCHEM_CONFORMER_ID>  (1) 
00005A9200000001

>  <PUBCHEM_MMFF94_ENERGY>  (1) 
94.7769

>  <PUBCHEM_FEATURE_SELFOVERLAP>  (1) 
45.776

>  <PUBCHEM_SHAPE_FINGERPRINT>  (1) 
10165383 225 16039769896307483706
104564 63 17903937555840864135
1100329 8 14874696748384165539
11370993 70 18050837016902193969
11582403 64 14691721203114805208
12156800 1 17104775087023402033
12553582 1 18264225620720179451
12633257 1 17534314985397904225
12778500 126 12397128182687176911
12788726 201 17976277749894231086
13681431 1 18198927905304685543
14790565 3 17973721669287422792
15210252 30 17895493448226331013
15420108 30 17986652947936125898
1601671 61 18263361554757345104
16945 1 17399219237423506136
17859628 37 18191010390871753121
17980427 23 17979613952010217841
20600515 1 18113620092545935020
20691752 17 18187370883056616705
20739085 24 18116415128477144952
21330990 113 18409161147697732464
21452121 99 17615122187900310276
21524375 3 17479464885515206378
21860390 5 18339918329016938141
22749437 52 18266174131750788137
23419403 2 17555132957900446650
23559900 14 18339932631548060461
238 59 18124894596668151159
3052486 1 17897159122506368437
4409770 3 17688018722142632203
474 4 18193267710288158531
513532 50 18342450439934532687
5939293 188 18190175870352821293
6287921 2 18058736930680408399
81228 2 17835270877090562490

>  <PUBCHEM_SHAPE_MULTIPOLES>  (1) 
497.77
6.48
4.39
2.04
11.5
2.34
0.51
-2.17
-0.46
-2.27
0.52
-1.84
-0.05
1.46

>  <PUBCHEM_SHAPE_SELFOVERLAP>  (1) 
1059.596

>  <PUBCHEM_SHAPE_VOLUME>  (1) 
278.3

>  <PUBCHEM_COORDINATE_TYPE>  (1) 
2
5
10

$$$$
