23182
     RDKit          3D

 27 30  0  0  0  0  0  0  0  0999 V2000
   -1.1874   -0.7156    0.0251 N   0  0  0  0  0  0  0  0  0  0  0  0
    1.2113   -0.6744   -0.0249 N   0  0  0  0  0  0  0  0  0  0  0  0
   -0.0238    1.3828    0.0006 N   0  0  0  0  0  0  0  0  0  0  0  0
    0.0470   -2.7371   -0.0005 C   0  0  0  0  0  0  0  0  0  0  0  0
   -2.3914    1.3243    0.0493 C   0  0  0  0  0  0  0  0  0  0  0  0
    2.3443    1.4057   -0.0491 C   0  0  0  0  0  0  0  0  0  0  0  0
    0.0222   -1.2904    0.0000 C   0  0  0  0  0  0  0  0  0  0  0  0
   -1.1328    0.6261    0.0237 C   0  0  0  0  0  0  0  0  0  0  0  0
    1.1106    0.6647   -0.0230 C   0  0  0  0  0  0  0  0  0  0  0  0
   -0.9991   -3.4526   -0.5827 C   0  0  0  0  0  0  0  0  0  0  0  0
   -3.5274    0.7516   -0.5311 C   0  0  0  0  0  0  0  0  0  0  0  0
    3.4997    0.8723    0.5308 C   0  0  0  0  0  0  0  0  0  0  0  0
    1.1173   -3.4161    0.5820 C   0  0  0  0  0  0  0  0  0  0  0  0
   -2.4874    2.5815    0.6548 C   0  0  0  0  0  0  0  0  0  0  0  0
    2.3968    2.6657   -0.6542 C   0  0  0  0  0  0  0  0  0  0  0  0
    0.0951   -5.5265    0.0001 C   0  0  0  0  0  0  0  0  0  0  0  0
   -4.8364    2.6823    0.0987 C   0  0  0  0  0  0  0  0  0  0  0  0
    4.7412    2.8469   -0.0990 C   0  0  0  0  0  0  0  0  0  0  0  0
   -0.9752   -4.8473   -0.5822 C   0  0  0  0  0  0  0  0  0  0  0  0
   -4.7467    1.4287   -0.5067 C   0  0  0  0  0  0  0  0  0  0  0  0
    4.6949    1.5909    0.5061 C   0  0  0  0  0  0  0  0  0  0  0  0
    1.1413   -4.8108    0.5824 C   0  0  0  0  0  0  0  0  0  0  0  0
   -3.7066    3.2587    0.6794 C   0  0  0  0  0  0  0  0  0  0  0  0
    3.5921    3.3844   -0.6791 C   0  0  0  0  0  0  0  0  0  0  0  0
    0.1212   -7.0177    0.0003 C   0  0  0  0  0  0  0  0  0  0  0  0
   -6.1399    3.4064    0.1256 C   0  0  0  0  0  0  0  0  0  0  0  0
    6.0190    3.6154   -0.1261 C   0  0  0  0  0  0  0  0  0  0  0  0
  1  7  2  0
  1  8  1  0
  2  7  1  0
  2  9  2  0
  3  8  2  0
  3  9  1  0
  4  7  1  0
  4 10  2  0
  4 13  1  0
  5  8  1  0
  5 11  2  0
  5 14  1  0
  6  9  1  0
  6 12  2  0
  6 15  1  0
 10 19  1  0
 11 20  1  0
 12 21  1  0
 13 22  2  0
 14 23  2  0
 15 24  2  0
 16 19  2  0
 16 22  1  0
 16 25  1  0
 17 20  2  0
 17 23  1  0
 17 26  1  0
 18 21  2  0
 18 24  1  0
 18 27  1  0
M  END
>  <PUBCHEM_COMPOUND_CID>  (1) 
23182

>  <PUBCHEM_CONFORMER_RMSD>  (1) 
0.6

>  <PUBCHEM_CONFORMER_DIVERSEORDER>  (1) 
1
2
3

>  <PUBCHEM_MMFF94_PARTIAL_CHARGES>  (1) 
36
1 -0.62
10 -0.15
11 -0.15
12 -0.15
13 -0.15
14 -0.15
15 -0.15
16 -0.14
17 -0.14
18 -0.14
19 -0.15
2 -0.62
20 -0.15
21 -0.15
22 -0.15
23 -0.15
24 -0.15
25 0.14
26 0.14
27 0.14
28 0.15
29 0.15
3 -0.62
30 0.15
31 0.15
32 0.15
33 0.15
34 0.15
35 0.15
36 0.15
37 0.15
38 0.15
39 0.15
7 0.62
8 0.62
9 0.62

>  <PUBCHEM_EFFECTIVE_ROTOR_COUNT>  (1) 
3

>  <PUBCHEM_PHARMACOPHORE_FEATURES>  (1) 
7
3 1 2 7 cation
3 1 3 8 cation
3 2 3 9 cation
6 1 2 3 7 8 9 rings
6 4 10 13 16 19 22 rings
6 5 11 14 17 20 23 rings
6 6 12 15 18 21 24 rings

>  <PUBCHEM_HEAVY_ATOM_COUNT>  (1) 
27

>  <PUBCHEM_ATOM_DEF_STEREO_COUNT>  (1) 
0

>  <PUBCHEM_ATOM_UDEF_STEREO_COUNT>  (1) 
0

>  <PUBCHEM_BOND_DEF_STEREO_COUNT>  (1) 
0

>  <PUBCHEM_BOND_UDEF_STEREO_COUNT>  (1) 
0

>  <PUBCHEM_ISOTOPIC_ATOM_COUNT>  (1) 
0

>  <PUBCHEM_COMPONENT_COUNT>  (1) 
1

>  <PUBCHEM_CACTVS_TAUTO_COUNT>  (1) 
1

>  <PUBCHEM_CONFORMER_ID>  (1) 
00005A8E00000001

>  <PUBCHEM_MMFF94_ENERGY>  (1) 
82.4774

>  <PUBCHEM_FEATURE_SELFOVERLAP>  (1) 
38.307

>  <PUBCHEM_SHAPE_FINGERPRINT>  (1) 
10411042 1 17185595720242398363
10937287 8 18410854369269973544
11056379 131 18050014590910408092
11763715 3 17181954661632753892
12107183 9 18335125502593337552
12293681 160 17917715703284128184
12788726 201 17902781200405627530
13248334 5 18122344571072413715
13590594 115 17041210039294990993
13785724 45 17332527874198405513
138480 1 17762336916218321250
13955234 65 18194409879372986481
14508225 48 17261026040107056815
14790565 3 18410572894229764454
14866123 147 18122625217384836682
15042514 8 17834121118513751026
15230672 131 18336274501150438782
15400415 2 18410854369233979169
15420108 30 18335126618693918952
15664445 248 17768257808078374710
15705408 1 18050567348225773215
15878777 1 10853467388786240880
15927050 60 18411982485897347510
16087824 20 18050287270174651455
17980427 26 18268701727829502453
1813 80 17401488144039261723
19319366 153 18271520910520257429
19427546 20 17903639923567016572
20101258 96 17472708399489415040
20238998 120 17257368544594142796
21033648 144 18040427785513649589
21033648 29 18341889744660607464
21049683 271 17830754057442903702
21120745 212 17471589092336877004
21133410 32 14641044875794940850
21307412 95 18128283159167833260
21796203 349 17261070652375440099
22311459 1 18122344575594409710
23366157 5 18122068598302490533
23559900 14 17832982746808078929
23929065 36 17765135556196721008
24771750 20 18189635855529607364
255183 313 18051716608992696043
283562 15 18341330115211627567
3091708 16 9120069075466498552
3103668 31 17903631131922020631
3421961 26 17834955270277503131
3534868 343 17108476507562620396
3627633 1 17618224348151676340
38695281 34 18409727348339866880
3886686 26 18051939750056317968
4409770 3 18048029959315954159
474 4 18410294666565639841
5385378 56 18267307517232285513
563151 97 18411127040286810805
59755656 520 18410851101122160860
6673363 416 17259922723888454222
6677587 24 16382190489097515893
6679774 75 18115301160485635602
6695519 79 18270141088089123681
6697151 62 17324906077339404429
6700243 42 17261075462759969556
77188 2 17473826117362161269
79837 15 18339360884884497000
9981440 41 18409168826930394465
9982175 49 18124005989098572959

>  <PUBCHEM_SHAPE_MULTIPOLES>  (1) 
540.7
10.05
10.03
0.77
1.2
22.44
0
-22.45
0.04
-1.2
-0.04
0
-0.04
-1.26

>  <PUBCHEM_SHAPE_SELFOVERLAP>  (1) 
1199.542

>  <PUBCHEM_SHAPE_VOLUME>  (1) 
286.8

>  <PUBCHEM_COORDINATE_TYPE>  (1) 
2
5
10

$$$$
