23189
     RDKit          3D

 13 13  0  0  1  0  0  0  0  0999 V2000
    0.0289    0.4819    1.2896 O   0  0  0  0  0  0  0  0  0  0  0  0
    2.4458    0.8740   -0.0383 N   0  0  0  0  0  0  0  0  0  0  0  0
    1.2653    0.5412   -0.6820 N   0  0  0  0  0  0  0  0  0  0  0  0
   -1.5538   -1.3216   -0.2776 N   0  0  0  0  0  0  0  0  0  0  0  0
   -2.7352   -1.1857    0.1538 N   0  0  0  0  0  0  0  0  0  0  0  0
    3.4661   -0.1312   -0.3032 C   0  0  0  0  0  0  0  0  0  0  0  0
   -1.0536   -0.0166   -0.7692 C   0  0  0  0  0  0  0  0  0  0  0  0
    0.1178    0.3682    0.0692 C   0  0  0  0  0  0  0  0  0  0  0  0
    3.0349   -1.4833    0.2579 C   0  0  0  0  0  0  0  0  0  0  0  0
    4.7910    0.3173    0.3053 C   0  0  0  0  0  0  0  0  0  0  0  0
   -2.1874    0.8947   -0.5079 C   0  0  0  0  0  0  0  0  0  0  0  0
   -3.1329    0.1228    0.0289 C   0  0  0  0  0  0  0  0  0  0  0  0
   -4.4870    0.5384    0.4736 C   0  0  0  0  0  0  0  0  0  0  0  0
  1  8  2  0
  2  3  1  0
  2  6  1  0
  3  8  1  0
  4  5  2  0
  4  7  1  0
  5 12  1  0
  6  9  1  0
  6 10  1  0
  7  8  1  0
  7 11  1  0
 11 12  2  0
 12 13  1  0
M  END
>  <PUBCHEM_COMPOUND_CID>  (1) 
23189

>  <PUBCHEM_CONFORMER_RMSD>  (1) 
0.6

>  <PUBCHEM_CONFORMER_DIVERSEORDER>  (1) 
2
33
46
37
9
18
47
41
3
7
36
8
34
6
39
28
10
40
11
45
38
4
35
24
26
29
5
43
25
14
19
42
20
23
1
17
30
31
13
12
44
15
27
32
16
22
21

>  <PUBCHEM_MMFF94_PARTIAL_CHARGES>  (1) 
14
1 -0.57
11 -0.29
12 0.03
13 0.14
16 0.36
2 -0.64
23 0.15
24 0.37
3 -0.42
4 -0.25
5 -0.17
6 0.27
7 0.45
8 0.57

>  <PUBCHEM_EFFECTIVE_ROTOR_COUNT>  (1) 
4.2

>  <PUBCHEM_PHARMACOPHORE_FEATURES>  (1) 
5
1 1 acceptor
1 2 donor
1 3 donor
3 6 9 10 hydrophobe
5 4 5 7 11 12 rings

>  <PUBCHEM_HEAVY_ATOM_COUNT>  (1) 
13

>  <PUBCHEM_ATOM_DEF_STEREO_COUNT>  (1) 
0

>  <PUBCHEM_ATOM_UDEF_STEREO_COUNT>  (1) 
1

>  <PUBCHEM_BOND_DEF_STEREO_COUNT>  (1) 
0

>  <PUBCHEM_BOND_UDEF_STEREO_COUNT>  (1) 
0

>  <PUBCHEM_ISOTOPIC_ATOM_COUNT>  (1) 
0

>  <PUBCHEM_COMPONENT_COUNT>  (1) 
1

>  <PUBCHEM_CACTVS_TAUTO_COUNT>  (1) 
2

>  <PUBCHEM_CONFORMER_ID>  (1) 
00005A9500000002

>  <PUBCHEM_MMFF94_ENERGY>  (1) 
12.1354

>  <PUBCHEM_FEATURE_SELFOVERLAP>  (1) 
26.862

>  <PUBCHEM_SHAPE_FINGERPRINT>  (1) 
10130415 120 17989488515209184913
10465860 250 18060414716330247816
11062470 55 16773796991400206708
11401426 45 16056878018284414737
124424 183 17775565347055504129
12932764 1 17458892812490217532
13760787 19 18341335577893141662
14123238 8 18261111880793806500
14144814 61 18411699855246749780
14943859 89 18341895182230504585
17834076 25 17917992776414335240
18186145 218 18411697686362228860
187816 3 11527945643421364493
190213 19 17530965769631275685
19422 9 18041287676609730607
20279233 1 17275393113807435844
20528008 55 12031782556807668445
20645464 45 18131357418710283175
20645477 56 18334288760362763141
20645477 70 18339640032269040774
21293036 1 14057003827708856652
22485316 2 18413385445084541214
23402539 116 18201431463870845773
23559900 14 18131068234631272810
42 15 18333453127214367885

>  <PUBCHEM_SHAPE_MULTIPOLES>  (1) 
241.74
8.53
1.17
0.83
3.23
0.39
-0.07
-0.29
-1.1
0.1
0
-0.09
-0.08
-0.07

>  <PUBCHEM_SHAPE_SELFOVERLAP>  (1) 
483.695

>  <PUBCHEM_SHAPE_VOLUME>  (1) 
145.6

>  <PUBCHEM_COORDINATE_TYPE>  (1) 
2
5
10

$$$$
