23198
     RDKit          3D

 18 18  0  0  0  0  0  0  0  0999 V2000
    3.0801    3.0946   -0.9498 Cl  0  0  0  0  0  0  0  0  0  0  0  0
    4.0831   -2.5116    0.8540 Cl  0  0  0  0  0  0  0  0  0  0  0  0
   -5.9374    1.2395   -0.3040 O   0  0  0  0  0  0  0  0  0  0  0  0
   -5.6230   -0.9492    0.2151 O   0  0  0  0  0  0  0  0  0  0  0  0
    2.7677    0.1577   -0.0110 N   0  0  0  0  0  0  0  0  0  0  0  0
    1.3777   -0.0794    0.0248 C   0  0  0  0  0  0  0  0  0  0  0  0
    3.3738    1.1069    0.9014 C   0  0  0  0  0  0  0  0  0  0  0  0
    3.6057   -0.5342   -0.9698 C   0  0  0  0  0  0  0  0  0  0  0  0
   -1.3717   -0.5469    0.0957 C   0  0  0  0  0  0  0  0  0  0  0  0
   -2.8414   -0.7970    0.1334 C   0  0  0  0  0  0  0  0  0  0  0  0
    0.7000   -0.4328   -1.1420 C   0  0  0  0  0  0  0  0  0  0  0  0
    0.6807    0.0403    1.2270 C   0  0  0  0  0  0  0  0  0  0  0  0
   -0.6748   -0.6664   -1.1066 C   0  0  0  0  0  0  0  0  0  0  0  0
   -0.6940   -0.1935    1.2626 C   0  0  0  0  0  0  0  0  0  0  0  0
    2.7946    2.4990    0.7046 C   0  0  0  0  0  0  0  0  0  0  0  0
    3.5311   -2.0401   -0.7727 C   0  0  0  0  0  0  0  0  0  0  0  0
   -3.6874    0.4557   -0.1235 C   0  0  0  0  0  0  0  0  0  0  0  0
   -5.1648    0.1573   -0.0393 C   0  0  0  0  0  0  0  0  0  0  0  0
  1 15  1  0
  2 16  1  0
  3 18  1  0
  4 18  2  0
  5  6  1  0
  5  7  1  0
  5  8  1  0
  6 11  2  0
  6 12  1  0
  7 15  1  0
  8 16  1  0
  9 10  1  0
  9 13  2  0
  9 14  1  0
 10 17  1  0
 11 13  1  0
 12 14  2  0
 17 18  1  0
M  END
>  <PUBCHEM_COMPOUND_CID>  (1) 
23198

>  <PUBCHEM_CONFORMER_RMSD>  (1) 
0.8

>  <PUBCHEM_CONFORMER_DIVERSEORDER>  (1) 
1
63
20
33
47
42
106
74
64
14
85
79
50
8
98
65
52
76
29
7
25
21
58
66
67
92
45
6
31
103
89
104
71
94
96
24
82
69
97
81
99
80
54
93
34
87
53
12
19
100
102
32
15
16
9
46
51
88
73
5
30
38
2
105
23
101
37
77
28
18
61
70
95
62
86
36
48
43
44
22
17
49
60
39
72
11
41
3
59
78
40
13
68
27
26
35
84
57
56
83
10
91
90
55
4
75

>  <PUBCHEM_MMFF94_PARTIAL_CHARGES>  (1) 
23
1 -0.29
10 0.14
11 -0.15
12 -0.15
13 -0.15
14 -0.15
15 0.29
16 0.29
17 0.06
18 0.66
2 -0.29
25 0.15
26 0.15
27 0.15
28 0.15
3 -0.65
35 0.5
4 -0.57
5 -0.84
6 0.1
7 0.37
8 0.37
9 -0.14

>  <PUBCHEM_EFFECTIVE_ROTOR_COUNT>  (1) 
8

>  <PUBCHEM_PHARMACOPHORE_FEATURES>  (1) 
5
1 3 acceptor
1 4 acceptor
1 5 cation
3 3 4 18 anion
6 6 9 11 12 13 14 rings

>  <PUBCHEM_HEAVY_ATOM_COUNT>  (1) 
18

>  <PUBCHEM_ATOM_DEF_STEREO_COUNT>  (1) 
0

>  <PUBCHEM_ATOM_UDEF_STEREO_COUNT>  (1) 
0

>  <PUBCHEM_BOND_DEF_STEREO_COUNT>  (1) 
0

>  <PUBCHEM_BOND_UDEF_STEREO_COUNT>  (1) 
0

>  <PUBCHEM_ISOTOPIC_ATOM_COUNT>  (1) 
0

>  <PUBCHEM_COMPONENT_COUNT>  (1) 
1

>  <PUBCHEM_CACTVS_TAUTO_COUNT>  (1) 
1

>  <PUBCHEM_CONFORMER_ID>  (1) 
00005A9E00000001

>  <PUBCHEM_MMFF94_ENERGY>  (1) 
48.167

>  <PUBCHEM_FEATURE_SELFOVERLAP>  (1) 
25.43

>  <PUBCHEM_SHAPE_FINGERPRINT>  (1) 
11287383 113 18341896333477035659
11405975 8 18410294718168083395
12293681 160 17415012536778293568
12616971 3 17775281660597884751
12633257 1 16156221256197493044
12730499 353 18264218065682808434
13167823 11 18342735230705695175
13583140 156 18267595769630056667
13675066 3 17967535692409539579
13760787 5 17132123450389760219
14863182 85 15984830298502797846
16752209 62 16199887097388324162
17349148 13 17060345084828661835
17844677 252 18410017628690351489
17980427 23 14619069778493116504
18186145 218 18113329830002859055
19026448 4 18336270132166638507
20369508 70 18409446951911721962
20645477 56 18260266395275771215
20645477 70 18131638880480747750
20832881 197 18115870702722686586
21503847 285 18260267447290012541
22289505 5 18411700980644797748
2255824 54 18412831313400689622
23402539 116 18341889663561539279
23559900 14 18343019995268359506
3004659 81 17988926656209144167
312423 11 17988380199109364417
3286 77 18260825943583712014
4072396 5 16988273171306712471
474 4 18189335847595499032
495365 180 18411134766563399042
4990 188 17240489069739144731
5104073 3 18342461452457741259
5281201 14 18412545401205920965
5374978 207 17060615586153538010
633830 44 18335132112057154799
7164475 11 16701193979418036928
8272917 22 18411982485896749702
90127 26 18187652414258292185
9999458 23 18409731755087193166

>  <PUBCHEM_SHAPE_MULTIPOLES>  (1) 
357.45
10.98
2.5
1.2
18.02
1.32
-0.03
0.05
0.31
-4.56
0.14
-0.83
-0.01
0.02

>  <PUBCHEM_SHAPE_SELFOVERLAP>  (1) 
701.766

>  <PUBCHEM_SHAPE_VOLUME>  (1) 
215.6

>  <PUBCHEM_COORDINATE_TYPE>  (1) 
2
5
10

$$$$
