23191
     RDKit          3D

 25 27  0  0  0  0  0  0  0  0999 V2000
   -6.1092    0.0069    0.0025 Cl  0  0  0  0  0  0  0  0  0  0  0  0
    3.6776    3.5586   -0.0355 O   0  0  0  0  0  0  0  0  0  0  0  0
    3.6689   -3.5667    0.0361 O   0  0  0  0  0  0  0  0  0  0  0  0
   -1.7498    2.3467   -0.0203 N   0  0  0  0  0  0  0  0  0  0  0  0
   -1.7560   -2.3437    0.0194 N   0  0  0  0  0  0  0  0  0  0  0  0
   -1.7203    0.0014   -0.0004 N   0  0  0  0  0  0  0  0  0  0  0  0
   -3.8000   -1.1955    0.0097 N   0  0  0  0  0  0  0  0  0  0  0  0
   -3.7968    1.2039   -0.0106 N   0  0  0  0  0  0  0  0  0  0  0  0
   -0.3734    2.6542   -0.0237 C   0  0  0  0  0  0  0  0  0  0  0  0
   -0.3831   -2.6534    0.0233 C   0  0  0  0  0  0  0  0  0  0  0  0
    0.0797    3.8324    0.5695 C   0  0  0  0  0  0  0  0  0  0  0  0
    0.5348    1.7801   -0.6212 C   0  0  0  0  0  0  0  0  0  0  0  0
    0.0707   -3.8331   -0.5698 C   0  0  0  0  0  0  0  0  0  0  0  0
    0.5295   -1.7818    0.6211 C   0  0  0  0  0  0  0  0  0  0  0  0
    2.3493    3.2628   -0.0324 C   0  0  0  0  0  0  0  0  0  0  0  0
    2.3411   -3.2681    0.0327 C   0  0  0  0  0  0  0  0  0  0  0  0
   -2.4547    1.1274   -0.0100 C   0  0  0  0  0  0  0  0  0  0  0  0
   -2.4594   -1.1197    0.0090 C   0  0  0  0  0  0  0  0  0  0  0  0
    1.4410    4.1368    0.5650 C   0  0  0  0  0  0  0  0  0  0  0  0
    1.8960    2.0844   -0.6257 C   0  0  0  0  0  0  0  0  0  0  0  0
    1.4313   -4.1402   -0.5650 C   0  0  0  0  0  0  0  0  0  0  0  0
    1.8902   -2.0888    0.6259 C   0  0  0  0  0  0  0  0  0  0  0  0
   -4.4014    0.0049   -0.0006 C   0  0  0  0  0  0  0  0  0  0  0  0
    4.5505    2.6210   -0.6637 C   0  0  0  0  0  0  0  0  0  0  0  0
    4.5435   -2.6307    0.6646 C   0  0  0  0  0  0  0  0  0  0  0  0
  1 23  1  0
  2 15  1  0
  2 24  1  0
  3 16  1  0
  3 25  1  0
  4  9  1  0
  4 17  1  0
  5 10  1  0
  5 18  1  0
  6 17  2  0
  6 18  1  0
  7 18  2  0
  7 23  1  0
  8 17  1  0
  8 23  2  0
  9 11  2  0
  9 12  1  0
 10 13  2  0
 10 14  1  0
 11 19  1  0
 12 20  2  0
 13 21  1  0
 14 22  2  0
 15 19  2  0
 15 20  1  0
 16 21  2  0
 16 22  1  0
M  END
>  <PUBCHEM_COMPOUND_CID>  (1) 
23191

>  <PUBCHEM_CONFORMER_RMSD>  (1) 
0.8

>  <PUBCHEM_CONFORMER_DIVERSEORDER>  (1) 
1
30
18
20
34
31
4
25
27
11
5
29
12
21
35
2
7
26
17
24
8
38
37
16
10
33
9
36
32
13
19
15
14
23
22
6
28
3

>  <PUBCHEM_MMFF94_PARTIAL_CHARGES>  (1) 
35
1 -0.18
10 0.1
11 -0.15
12 -0.15
13 -0.15
14 -0.15
15 0.08
16 0.08
17 0.72
18 0.72
19 -0.15
2 -0.36
20 -0.15
21 -0.15
22 -0.15
23 0.8
24 0.28
25 0.28
26 0.4
27 0.4
28 0.15
29 0.15
3 -0.36
30 0.15
31 0.15
32 0.15
33 0.15
34 0.15
35 0.15
4 -0.6
5 -0.6
6 -0.62
7 -0.62
8 -0.62
9 0.1

>  <PUBCHEM_EFFECTIVE_ROTOR_COUNT>  (1) 
6

>  <PUBCHEM_PHARMACOPHORE_FEATURES>  (1) 
9
1 2 acceptor
1 3 acceptor
1 4 donor
1 5 donor
4 4 6 8 17 cation
4 5 6 7 18 cation
6 10 13 14 16 21 22 rings
6 6 7 8 17 18 23 rings
6 9 11 12 15 19 20 rings

>  <PUBCHEM_HEAVY_ATOM_COUNT>  (1) 
25

>  <PUBCHEM_ATOM_DEF_STEREO_COUNT>  (1) 
0

>  <PUBCHEM_ATOM_UDEF_STEREO_COUNT>  (1) 
0

>  <PUBCHEM_BOND_DEF_STEREO_COUNT>  (1) 
0

>  <PUBCHEM_BOND_UDEF_STEREO_COUNT>  (1) 
0

>  <PUBCHEM_ISOTOPIC_ATOM_COUNT>  (1) 
0

>  <PUBCHEM_COMPONENT_COUNT>  (1) 
1

>  <PUBCHEM_CACTVS_TAUTO_COUNT>  (1) 
5

>  <PUBCHEM_CONFORMER_ID>  (1) 
00005A9700000001

>  <PUBCHEM_MMFF94_ENERGY>  (1) 
102.3442

>  <PUBCHEM_FEATURE_SELFOVERLAP>  (1) 
45.714

>  <PUBCHEM_SHAPE_FINGERPRINT>  (1) 
10006869 2 16605762719022699585
10411042 1 18194683653579258739
10498660 4 17398951574697687391
10670039 82 17904499411169320430
1100329 8 18410854399461501070
11014199 57 17907302044231511430
138480 1 18338798901446371047
14028597 1 17701567175799146129
14363568 33 18338255815500754059
14866123 147 17763183939767568018
15664445 248 18056497070628120191
15927050 60 18196655318387903823
15961568 22 18124033434345873558
16719943 64 18048597311900887272
167882 2 18409163333914713381
17627616 140 18336265738742031862
17859628 97 18265897049766115185
18336668 15 17969228828425736326
19591789 44 17906176509660789083
19611394 137 18188226341558298843
19930381 70 18410292484410217970
21133410 171 16111997932951380758
21344244 246 18266163098101364695
22440779 20 16034435676561880795
23559900 14 18338223870325160595
25019877 29 17345451735683001430
3178227 256 16462213323879438947
3298306 158 18337956817078477357
5265222 85 17829061149029280708
532947 4 18339929311148073959
5385378 56 18338808896531978217
6287921 2 18271516511982837458
6700243 42 17269218063111960606

>  <PUBCHEM_SHAPE_MULTIPOLES>  (1) 
479.71
8.52
7.42
0.75
7.07
0.03
0
-0.03
0
-9.15
0
-0.3
0
-0.68

>  <PUBCHEM_SHAPE_SELFOVERLAP>  (1) 
1023.267

>  <PUBCHEM_SHAPE_VOLUME>  (1) 
266.2

>  <PUBCHEM_COORDINATE_TYPE>  (1) 
2
5
10

$$$$
