23209
     RDKit          3D

 16 16  0  0  0  0  0  0  0  0999 V2000
    0.2148    0.0859    0.6192 O   0  0  0  0  0  0  0  0  0  0  0  0
    2.3205    1.5292    0.1581 O   0  0  0  0  0  0  0  0  0  0  0  0
   -0.9336    2.3325    0.2362 O   0  0  0  0  0  0  0  0  0  0  0  0
    3.7860   -0.2371   -0.1940 N   0  0  0  0  0  0  0  0  0  0  0  0
   -3.1433    2.4646   -0.3624 N   0  0  0  0  0  0  0  0  0  0  0  0
   -0.9905   -0.4934    0.2994 C   0  0  0  0  0  0  0  0  0  0  0  0
    1.3830   -0.6416    0.3052 C   0  0  0  0  0  0  0  0  0  0  0  0
   -2.0876    0.2956   -0.0213 C   0  0  0  0  0  0  0  0  0  0  0  0
    2.5348    0.3155    0.0812 C   0  0  0  0  0  0  0  0  0  0  0  0
   -1.0862   -1.8792    0.3025 C   0  0  0  0  0  0  0  0  0  0  0  0
   -3.3012   -0.3116   -0.3443 C   0  0  0  0  0  0  0  0  0  0  0  0
    4.9270    0.6443   -0.4081 C   0  0  0  0  0  0  0  0  0  0  0  0
    4.0811   -1.6653   -0.2780 C   0  0  0  0  0  0  0  0  0  0  0  0
   -2.2997   -2.4862   -0.0207 C   0  0  0  0  0  0  0  0  0  0  0  0
   -3.4071   -1.7024   -0.3441 C   0  0  0  0  0  0  0  0  0  0  0  0
   -1.9982    1.7491   -0.0289 C   0  0  0  0  0  0  0  0  0  0  0  0
  1  6  1  0
  1  7  1  0
  2  9  2  0
  3 16  2  0
  4  9  1  0
  4 12  1  0
  4 13  1  0
  5 16  1  0
  6  8  2  0
  6 10  1  0
  7  9  1  0
  8 11  1  0
  8 16  1  0
 10 14  2  0
 11 15  2  0
 14 15  1  0
M  END
>  <PUBCHEM_COMPOUND_CID>  (1) 
23209

>  <PUBCHEM_CONFORMER_RMSD>  (1) 
0.6

>  <PUBCHEM_CONFORMER_DIVERSEORDER>  (1) 
7
247
86
173
185
138
248
23
258
69
259
63
90
54
57
82
48
268
45
113
190
264
225
88
209
111
118
214
186
37
246
167
254
253
2
221
114
251
262
4
184
78
195
161
163
164
121
75
219
270
105
230
242
115
70
32
42
203
250
166
135
108
212
141
223
152
3
24
252
89
199
143
197
107
77
178
238
217
106
175
201
194
122
240
196
79
117
62
142
255
66
202
43
206
249
22
177
58
165
40
128
126
133
227
61
226
34
85
116
176
26
35
21
204
208
207
244
137
68
67
243
36
147
39
222
99
150
220
123
1
100
224
87
9
269
261
50
29
174
16
60
14
15
44
19
80
257
266
20
237
179
127
271
149
131
28
93
228
38
267
198
140
30
33
156
51
96
162
119
193
110
172
65
125
41
256
151
155
245
46
183
27
136
263
92
145
102
18
158
104
84
56
31
139
129
160
101
120
188
168
200
124
73
191
239
109
235
52
192
53
94
49
213
236
71
112
72
157
144
11
103
17
64
97
6
98
210
211
13
170
146
47
83
95
205
153
25
180
229
5
91
232
132
265
159
215
10
8
154
130
187
134
181
55
241
169
218
12
233
260
74
171
59
189
76
148
81
216
182
231
234

>  <PUBCHEM_MMFF94_PARTIAL_CHARGES>  (1) 
22
1 -0.36
10 -0.15
11 -0.15
12 0.3
13 0.3
14 -0.15
15 -0.15
16 0.54
19 0.15
2 -0.57
20 0.15
27 0.15
28 0.15
29 0.37
3 -0.57
30 0.37
4 -0.66
5 -0.8
6 0.08
7 0.34
8 0.09
9 0.57

>  <PUBCHEM_EFFECTIVE_ROTOR_COUNT>  (1) 
5

>  <PUBCHEM_PHARMACOPHORE_FEATURES>  (1) 
5
1 1 acceptor
1 2 acceptor
1 3 acceptor
1 5 donor
6 6 8 10 11 14 15 rings

>  <PUBCHEM_HEAVY_ATOM_COUNT>  (1) 
16

>  <PUBCHEM_ATOM_DEF_STEREO_COUNT>  (1) 
0

>  <PUBCHEM_ATOM_UDEF_STEREO_COUNT>  (1) 
0

>  <PUBCHEM_BOND_DEF_STEREO_COUNT>  (1) 
0

>  <PUBCHEM_BOND_UDEF_STEREO_COUNT>  (1) 
0

>  <PUBCHEM_ISOTOPIC_ATOM_COUNT>  (1) 
0

>  <PUBCHEM_COMPONENT_COUNT>  (1) 
1

>  <PUBCHEM_CACTVS_TAUTO_COUNT>  (1) 
2

>  <PUBCHEM_CONFORMER_ID>  (1) 
00005AA900000007

>  <PUBCHEM_MMFF94_ENERGY>  (1) 
53.4559

>  <PUBCHEM_FEATURE_SELFOVERLAP>  (1) 
25.399

>  <PUBCHEM_SHAPE_FINGERPRINT>  (1) 
10608611 8 18412822512574778744
10616163 171 18412267250644790702
12173636 292 18337947900784159239
14790565 3 17981051816661799697
15196674 1 18410293580075316836
15375462 6 18268711787017279782
15442244 35 18264205825390212914
16945 1 18338218458434259075
17134986 127 17759235198596753445
17870717 6 18200329740197730070
200 152 17489307515985872247
20300324 65 18409732897722248500
20510252 161 18413671309617906113
20645477 56 18410013212794240120
20645477 70 17346608430984747878
20871999 31 18411411817713102309
21501502 16 18336541608338281586
21524375 3 17972319512635419473
2306618 200 18201728340146365659
23402539 116 18341324565670990743
23557571 272 18272379680471911420
23559900 14 18271802364385556978
2748010 2 17905871932228839179
4028521 119 18260540126152088925
4214541 1 18410575055247141374
5104073 3 18411699864137489106
559249 180 18264483976089065026
573450 72 18261379032518939090
58051976 378 18339361972081168910
633830 44 17095536045834877010
81228 2 18335135453351885353
93112 12 18410293618698458470
9709674 26 18413113853234208950

>  <PUBCHEM_SHAPE_MULTIPOLES>  (1) 
301.7
8.12
2.62
0.67
9.43
0.49
0
-0.74
-1.6
-2.24
-0.08
-0.01
-0.04
0.1

>  <PUBCHEM_SHAPE_SELFOVERLAP>  (1) 
622.432

>  <PUBCHEM_SHAPE_VOLUME>  (1) 
173.9

>  <PUBCHEM_COORDINATE_TYPE>  (1) 
2
5
10

$$$$
