2320
     RDKit          3D

 31 32  0  0  0  0  0  0  0  0999 V2000
    1.3957    2.1802    1.1539 S   0  0  0  0  0  0  0  0  0  0  0  0
    0.3576   -3.4271    1.6890 P   0  0  0  0  0  0  0  0  0  0  0  0
   -0.2332   -2.0045    2.1807 O   0  0  0  0  0  0  0  0  0  0  0  0
   -4.3891    1.6732    2.1805 O   0  0  0  0  0  0  0  0  0  0  0  0
    1.1985    1.0784   -1.2355 O   0  0  0  0  0  0  0  0  0  0  0  0
   -0.1357   -3.5070    0.1511 O   0  0  0  0  0  0  0  0  0  0  0  0
    1.9468   -3.1587    1.5562 O   0  0  0  0  0  0  0  0  0  0  0  0
   -0.0257   -4.6026    2.5394 O   0  0  0  0  0  0  0  0  0  0  0  0
   -2.5844    2.0444    0.7298 N   0  0  0  0  0  0  0  0  0  0  0  0
   -2.6190   -1.7836   -1.6772 N   0  0  0  0  0  0  0  0  0  0  0  0
   -1.1702   -0.2634   -2.8594 N   0  0  0  0  0  0  0  0  0  0  0  0
   -4.1574   -0.9620   -0.0702 N   0  0  0  0  0  0  0  0  0  0  0  0
   -1.2586    2.3917    0.6353 C   0  0  0  0  0  0  0  0  0  0  0  0
   -3.3078    1.7563   -0.4999 C   0  0  0  0  0  0  0  0  0  0  0  0
   -0.2859    1.6626    1.2327 C   0  0  0  0  0  0  0  0  0  0  0  0
   -0.5557    0.4010    2.0367 C   0  0  0  0  0  0  0  0  0  0  0  0
   -2.7287    0.5790   -1.2298 C   0  0  0  0  0  0  0  0  0  0  0  0
    0.0864   -0.8435    1.4259 C   0  0  0  0  0  0  0  0  0  0  0  0
   -1.0283    3.6439   -0.1672 C   0  0  0  0  0  0  0  0  0  0  0  0
   -3.1366   -0.7230   -1.0232 C   0  0  0  0  0  0  0  0  0  0  0  0
   -3.2192    1.9693    1.9621 C   0  0  0  0  0  0  0  0  0  0  0  0
   -1.7323    0.7504   -2.1690 C   0  0  0  0  0  0  0  0  0  0  0  0
    1.9409    1.3787   -0.3085 C   0  0  0  0  0  0  0  0  0  0  0  0
   -1.6538   -1.4860   -2.5681 C   0  0  0  0  0  0  0  0  0  0  0  0
    3.3767    1.0016   -0.3514 C   0  0  0  0  0  0  0  0  0  0  0  0
   -1.0571   -2.6327   -3.3112 C   0  0  0  0  0  0  0  0  0  0  0  0
    3.7756   -0.1491   -1.0317 C   0  0  0  0  0  0  0  0  0  0  0  0
    4.3268    1.7984    0.2878 C   0  0  0  0  0  0  0  0  0  0  0  0
    5.1241   -0.5033   -1.0725 C   0  0  0  0  0  0  0  0  0  0  0  0
    5.6753    1.4441    0.2468 C   0  0  0  0  0  0  0  0  0  0  0  0
    6.0739    0.2933   -0.4333 C   0  0  0  0  0  0  0  0  0  0  0  0
  1 15  1  0
  1 23  1  0
  2  3  1  0
  2  6  1  0
  2  7  1  0
  2  8  2  0
  3 18  1  0
  4 21  2  0
  5 23  2  0
  9 13  1  0
  9 14  1  0
  9 21  1  0
 10 20  2  0
 10 24  1  0
 11 22  1  0
 11 24  2  0
 12 20  1  0
 13 15  2  0
 13 19  1  0
 14 17  1  0
 15 16  1  0
 16 18  1  0
 17 20  1  0
 17 22  2  0
 23 25  1  0
 24 26  1  0
 25 27  2  0
 25 28  1  0
 27 29  1  0
 28 30  2  0
 29 31  2  0
 30 31  1  0
M  END
>  <PUBCHEM_COMPOUND_CID>  (1) 
2320

>  <PUBCHEM_CONFORMER_RMSD>  (1) 
1

>  <PUBCHEM_CONFORMER_DIVERSEORDER>  (1) 
1
133
207
213
10
60
20
131
220
190
230
80
40
71
84
92
224
146
67
82
105
36
210
65
109
51
140
200
139
181
46
47
229
222
14
199
52
99
78
97
203
165
152
223
35
115
179
13
192
29
66
236
43
206
228
212
106
24
48
15
77
53
176
227
194
204
193
219
88
56
90
118
102
189
151
218
195
221
108
57
32
170
49
91
211
110
177
148
95
76
16
34
143
11
5
182
123
225
208
116
187
111
54
68
75
112
196
172
121
113
64
197
107
28
33
226
2
150
74
79
31
216
171
69
162
120
164
23
45
157
154
141
128
215
153
142
44
9
235
104
175
209
169
119
18
37
205
238
72
168
232
191
178
126
125
89
62
21
135
41
38
144
161
129
3
98
70
166
94
83
85
201
17
101
61
27
59
174
19
86
81
217
30
25
198
132
8
180
147
124
127
155
149
87
103
188
145
237
130
26
156
202
114
55
6
163
122
214
100
185
63
183
159
233
93
58
186
158
117
234
22
134
4
42
167
173
50
12
160
184
138
231
96
136
39
137
7
73

>  <PUBCHEM_MMFF94_PARTIAL_CHARGES>  (1) 
42
1 -0.24
10 -0.62
11 -0.62
12 -0.9
13 -0.03
14 0.44
15 -0.04
16 0.14
17 -0.14
18 0.28
19 0.14
2 1.51
20 0.41
21 0.57
22 0.16
23 0.62
24 0.48
25 0.09
26 0.14
27 -0.15
28 -0.15
29 -0.15
3 -0.55
30 -0.15
31 -0.15
4 -0.57
41 0.06
42 0.15
43 0.4
44 0.4
48 0.15
49 0.15
5 -0.57
50 0.15
51 0.15
52 0.15
53 0.5
54 0.5
6 -0.77
7 -0.77
8 -0.7
9 -0.47

>  <PUBCHEM_EFFECTIVE_ROTOR_COUNT>  (1) 
11

>  <PUBCHEM_PHARMACOPHORE_FEATURES>  (1) 
10
1 12 donor
1 4 acceptor
1 6 acceptor
1 7 acceptor
1 8 acceptor
3 10 11 24 cation
3 10 12 20 cation
4 2 6 7 8 anion
6 10 11 17 20 22 24 rings
6 25 27 28 29 30 31 rings

>  <PUBCHEM_HEAVY_ATOM_COUNT>  (1) 
31

>  <PUBCHEM_ATOM_DEF_STEREO_COUNT>  (1) 
0

>  <PUBCHEM_ATOM_UDEF_STEREO_COUNT>  (1) 
0

>  <PUBCHEM_BOND_DEF_STEREO_COUNT>  (1) 
0

>  <PUBCHEM_BOND_UDEF_STEREO_COUNT>  (1) 
1

>  <PUBCHEM_ISOTOPIC_ATOM_COUNT>  (1) 
0

>  <PUBCHEM_COMPONENT_COUNT>  (1) 
1

>  <PUBCHEM_CACTVS_TAUTO_COUNT>  (1) 
3

>  <PUBCHEM_CONFORMER_ID>  (1) 
0000091000000001

>  <PUBCHEM_MMFF94_ENERGY>  (1) 
68.6009

>  <PUBCHEM_FEATURE_SELFOVERLAP>  (1) 
50.917

>  <PUBCHEM_SHAPE_FINGERPRINT>  (1) 
107951 10 18409167680268714349
11285246 1 18050833709619159422
11578080 2 17171531970148922429
121448 382 18337380630273401928
12156800 1 16987125289614726799
12422481 6 17486530145841317747
133893 2 17171213158694018328
14114206 34 18196062603762294213
14251740 79 18335978778833744638
14279260 333 18341892949570951166
14659021 117 18126831906281308528
15274700 242 18411691072592556794
17349148 13 18260542338720187696
19319366 153 18336261232698826819
20775530 9 16912546751700495758
22121540 332 14423764347847577669
3380486 145 17190093255539340954
35225 105 17761544417543454039
469060 322 17894916251955753997
563151 248 17987538003604772073
57527585 103 17757254247725553296
59755656 520 18261123954558798882

>  <PUBCHEM_SHAPE_MULTIPOLES>  (1) 
590.52
8.82
4.47
2.94
13.25
3.49
0.32
-3.58
1.88
-1.76
-2.46
-2.2
2.8
-1.69

>  <PUBCHEM_SHAPE_SELFOVERLAP>  (1) 
1206.926

>  <PUBCHEM_SHAPE_VOLUME>  (1) 
342.2

>  <PUBCHEM_COORDINATE_TYPE>  (1) 
2
5
10

$$$$
