23202
     RDKit          3D

 21 23  0  0  1  0  0  0  0  0999 V2000
    5.2324    2.8494   -0.1509 Cl  0  0  0  0  0  0  0  0  0  0  0  0
   -0.1975   -0.5320   -0.2961 O   0  0  0  0  0  0  0  0  0  0  0  0
   -0.5932   -2.7796    0.0118 O   0  0  0  0  0  0  0  0  0  0  0  0
   -3.7871    1.3083    0.6948 N   0  0  0  0  0  0  0  0  0  0  0  0
   -3.2826    1.6037   -0.6513 C   0  0  0  0  0  0  0  0  0  0  0  0
   -3.8090   -0.1582    0.7463 C   0  0  0  0  0  0  0  0  0  0  0  0
   -4.2286    0.7230   -1.4785 C   0  0  0  0  0  0  0  0  0  0  0  0
   -4.5783   -0.4487   -0.5494 C   0  0  0  0  0  0  0  0  0  0  0  0
   -1.8126    1.1769   -0.8310 C   0  0  0  0  0  0  0  0  0  0  0  0
   -2.3929   -0.7653    0.7097 C   0  0  0  0  0  0  0  0  0  0  0  0
   -1.5856   -0.3059   -0.5118 C   0  0  0  0  0  0  0  0  0  0  0  0
   -3.1003    1.9702    1.7882 C   0  0  0  0  0  0  0  0  0  0  0  0
    0.1669   -1.8231   -0.0428 C   0  0  0  0  0  0  0  0  0  0  0  0
    1.6441   -1.9068    0.1424 C   0  0  0  0  0  0  0  0  0  0  0  0
    2.5312   -0.7327    0.0701 C   0  0  0  0  0  0  0  0  0  0  0  0
    2.1627   -3.1165    0.4067 C   0  0  0  0  0  0  0  0  0  0  0  0
    3.0965   -0.3831   -1.1456 C   0  0  0  0  0  0  0  0  0  0  0  0
    2.7818    0.0005    1.2188 C   0  0  0  0  0  0  0  0  0  0  0  0
    3.9350    0.7294   -1.2145 C   0  0  0  0  0  0  0  0  0  0  0  0
    3.6203    1.1130    1.1499 C   0  0  0  0  0  0  0  0  0  0  0  0
    4.1969    1.4774   -0.0667 C   0  0  0  0  0  0  0  0  0  0  0  0
  1 21  1  0
  2 11  1  0
  2 13  1  0
  3 13  2  0
  4  5  1  0
  4  6  1  0
  4 12  1  0
  5  7  1  0
  5  9  1  0
  6  8  1  0
  6 10  1  0
  7  8  1  0
  9 11  1  0
 10 11  1  0
 13 14  1  0
 14 15  1  0
 14 16  2  0
 15 17  2  0
 15 18  1  0
 17 19  1  0
 18 20  2  0
 19 21  2  0
 20 21  1  0
M  END
>  <PUBCHEM_COMPOUND_CID>  (1) 
23202

>  <PUBCHEM_CONFORMER_RMSD>  (1) 
0.8

>  <PUBCHEM_CONFORMER_DIVERSEORDER>  (1) 
1
55
44
30
34
31
23
26
50
45
33
17
22
6
53
52
48
24
56
37
47
3
40
46
16
4
32
51
14
2
5
36
38
42
39
13
8
49
41
15
29
10
27
43
54
19
28
25
18
35
9
11
20
7
12
21

>  <PUBCHEM_MMFF94_PARTIAL_CHARGES>  (1) 
23
1 -0.18
11 0.28
12 0.27
13 0.71
14 -0.01
15 0.03
16 -0.3
17 -0.15
18 -0.15
19 -0.15
2 -0.43
20 -0.15
21 0.18
3 -0.57
36 0.15
37 0.15
38 0.15
39 0.15
4 -0.81
40 0.15
41 0.15
5 0.27
6 0.27

>  <PUBCHEM_EFFECTIVE_ROTOR_COUNT>  (1) 
5.2

>  <PUBCHEM_PHARMACOPHORE_FEATURES>  (1) 
5
1 16 hydrophobe
1 3 acceptor
1 4 cation
6 15 17 18 19 20 21 rings
8 4 5 6 7 8 9 10 11 rings

>  <PUBCHEM_HEAVY_ATOM_COUNT>  (1) 
21

>  <PUBCHEM_ATOM_DEF_STEREO_COUNT>  (1) 
0

>  <PUBCHEM_ATOM_UDEF_STEREO_COUNT>  (1) 
2

>  <PUBCHEM_BOND_DEF_STEREO_COUNT>  (1) 
0

>  <PUBCHEM_BOND_UDEF_STEREO_COUNT>  (1) 
0

>  <PUBCHEM_ISOTOPIC_ATOM_COUNT>  (1) 
0

>  <PUBCHEM_COMPONENT_COUNT>  (1) 
1

>  <PUBCHEM_CACTVS_TAUTO_COUNT>  (1) 
1

>  <PUBCHEM_CONFORMER_ID>  (1) 
00005AA200000001

>  <PUBCHEM_MMFF94_ENERGY>  (1) 
59.0301

>  <PUBCHEM_FEATURE_SELFOVERLAP>  (1) 
25.371

>  <PUBCHEM_SHAPE_FINGERPRINT>  (1) 
10498660 4 18409449197783913932
10670039 82 18411147922301908564
11543360 7 16558744633141553407
12390115 104 18193009312218299420
12788726 201 16885280006495084138
13224815 77 18335701607282174975
13583140 156 16008743653930376213
13965767 371 17822559573949761172
14123255 52 18336546105406008086
14251764 38 17971457521083702157
14289901 80 17749395806446915323
14528608 73 18342170064458841901
14787075 74 18270675501978836943
14848178 96 18411981338750435856
15342168 16 18410576167322145045
1798214 55 18408323302493636172
18186145 218 18270965635124345687
19141452 34 11386364850937693953
204376 136 18408600391944824998
20626108 58 10954036929998129685
21033648 29 17240765021714538605
21250096 35 9367351431266229684
21864079 5 17987524714670165297
22182937 141 18267028438973289720
23227448 37 18194682794221335396
23559900 14 18044929078542965851
2637199 183 18200606821348764030
283562 15 18048875496432216914
2838139 119 17775283915582828720
312423 11 18058167233022160623
469060 322 18044390545847790571
474 4 18409727352623966280
49207404 50 18114471088612772403
5104073 3 18187650137835779523
5161694 15 13182732620028475121
5281201 14 17131840832724980068
559249 180 9726820260855738687
5895379 119 16556788456338218064
633830 44 18130233648780171741
6442390 28 18337117868559149730
7808743 9 18192149519905939588
7970288 3 9583526416657006348

>  <PUBCHEM_SHAPE_MULTIPOLES>  (1) 
417.32
10.64
2.89
1.31
1.09
1.05
-0.14
-7.43
0.77
2.38
-0.39
-0.46
-0.53
-0.33

>  <PUBCHEM_SHAPE_SELFOVERLAP>  (1) 
884.449

>  <PUBCHEM_SHAPE_VOLUME>  (1) 
235.7

>  <PUBCHEM_COORDINATE_TYPE>  (1) 
2
5
10

$$$$
