23203
     RDKit          3D

 10  9  0  0  0  0  0  0  0  0999 V2000
    5.2715   -0.5494    0.2518 O   0  0  0  0  0  0  0  0  0  0  0  0
   -2.9011   -0.1676   -0.2879 C   0  0  0  0  0  0  0  0  0  0  0  0
   -4.2659    0.0181    0.3759 C   0  0  0  0  0  0  0  0  0  0  0  0
   -1.8976    0.8769    0.2049 C   0  0  0  0  0  0  0  0  0  0  0  0
   -5.2572   -1.0392   -0.0830 C   0  0  0  0  0  0  0  0  0  0  0  0
   -0.5484    0.6747   -0.4231 C   0  0  0  0  0  0  0  0  0  0  0  0
    0.5596    0.3852    0.2753 C   0  0  0  0  0  0  0  0  0  0  0  0
    1.8533    0.1875   -0.3393 C   0  0  0  0  0  0  0  0  0  0  0  0
    2.9525   -0.1012    0.3678 C   0  0  0  0  0  0  0  0  0  0  0  0
    4.2332   -0.2851   -0.3425 C   0  0  0  0  0  0  0  0  0  0  0  0
  1 10  2  0
  2  3  1  0
  2  4  1  0
  3  5  1  0
  4  6  1  0
  6  7  2  0
  7  8  1  0
  8  9  2  0
  9 10  1  0
M  END
>  <PUBCHEM_COMPOUND_CID>  (1) 
23203

>  <PUBCHEM_CONFORMER_RMSD>  (1) 
0.6

>  <PUBCHEM_CONFORMER_DIVERSEORDER>  (1) 
2
21
18
33
13
5
17
32
29
34
24
25
30
1
26
36
20
4
37
14
35
16
23
19
9
10
27
8
22
7
15
6
31
11
28
12
3

>  <PUBCHEM_MMFF94_PARTIAL_CHARGES>  (1) 
12
1 -0.57
10 0.5
20 0.15
21 0.15
22 0.15
23 0.15
24 0.06
4 0.14
6 -0.29
7 -0.15
8 -0.15
9 -0.14

>  <PUBCHEM_EFFECTIVE_ROTOR_COUNT>  (1) 
5

>  <PUBCHEM_PHARMACOPHORE_FEATURES>  (1) 
3
1 1 acceptor
1 5 hydrophobe
4 2 3 4 6 hydrophobe

>  <PUBCHEM_HEAVY_ATOM_COUNT>  (1) 
10

>  <PUBCHEM_ATOM_DEF_STEREO_COUNT>  (1) 
0

>  <PUBCHEM_ATOM_UDEF_STEREO_COUNT>  (1) 
0

>  <PUBCHEM_BOND_DEF_STEREO_COUNT>  (1) 
0

>  <PUBCHEM_BOND_UDEF_STEREO_COUNT>  (1) 
2

>  <PUBCHEM_ISOTOPIC_ATOM_COUNT>  (1) 
0

>  <PUBCHEM_COMPONENT_COUNT>  (1) 
1

>  <PUBCHEM_CACTVS_TAUTO_COUNT>  (1) 
1

>  <PUBCHEM_CONFORMER_ID>  (1) 
00005AA300000002

>  <PUBCHEM_MMFF94_ENERGY>  (1) 
1.4667

>  <PUBCHEM_FEATURE_SELFOVERLAP>  (1) 
15.223

>  <PUBCHEM_SHAPE_FINGERPRINT>  (1) 
100836 57 10159699113924133067
11062470 55 8574710204467675636
114248 4 14418136222881356241
12714333 28 13406793337103866446
13690532 89 18113900459315601042
14123238 8 18343866619242462652
14252887 29 17060349500075966094
15242439 84 13118005496057040148
15501527 16 8862941689016303551
15501527 24 17168147857551246842
17834072 33 18409451426982606524
18342897 14 12607403290859694626
187816 3 15429755081650919637
20432913 95 18131077017106501419
20645477 56 9079114462397714857
20645477 70 13912590625027683128
20719005 15 18410856563940038118
20724930 31 18273215304845092720
20724930 69 9583520919140136429
20767249 13 18187081762837606643
20767249 213 11167940260488868555
20828058 44 17489868258658205119
21119208 17 15357697500429113899
21293036 1 15719111361666727229
22485316 2 18409164394344380455
23402539 116 18113614569418569405
23402655 69 12973873819686150419
42 15 17918277549567155149
42788 4 18410575084694844352
449060 50 13973967601261580701
49783359 22 17704351082947501223

>  <PUBCHEM_SHAPE_MULTIPOLES>  (1) 
199.93
11.74
0.9
0.7
0.64
0.01
0.01
4.53
-0.56
-0.54
0.01
0.01
-0.02
-0.12

>  <PUBCHEM_SHAPE_SELFOVERLAP>  (1) 
366.347

>  <PUBCHEM_SHAPE_VOLUME>  (1) 
126.4

>  <PUBCHEM_COORDINATE_TYPE>  (1) 
2
5
10

$$$$
