23219
     RDKit          3D

 15 15  0  0  0  0  0  0  0  0999 V2000
   -2.2710   -1.5957   -0.6487 O   0  0  0  0  0  0  0  0  0  0  0  0
   -4.4484    0.1943   -0.7604 O   0  0  0  0  0  0  0  0  0  0  0  0
   -0.5985   -0.8561    0.7853 N   0  0  0  0  0  0  0  0  0  0  0  0
   -2.4973    0.4177    0.5037 N   0  0  0  0  0  0  0  0  0  0  0  0
   -4.1383    2.0311    0.5853 N   0  0  0  0  0  0  0  0  0  0  0  0
    1.2967   -1.7307   -0.5394 C   0  0  0  0  0  0  0  0  0  0  0  0
    0.3118   -1.9635    0.6036 C   0  0  0  0  0  0  0  0  0  0  0  0
    2.1801   -0.5272   -0.3192 C   0  0  0  0  0  0  0  0  0  0  0  0
    1.7653    0.7137   -0.7775 C   0  0  0  0  0  0  0  0  0  0  0  0
    3.3906   -0.6831    0.3380 C   0  0  0  0  0  0  0  0  0  0  0  0
    2.5815    1.8262   -0.5739 C   0  0  0  0  0  0  0  0  0  0  0  0
    4.2068    0.4295    0.5417 C   0  0  0  0  0  0  0  0  0  0  0  0
    3.8023    1.6842    0.0857 C   0  0  0  0  0  0  0  0  0  0  0  0
   -1.8286   -0.7602    0.1380 C   0  0  0  0  0  0  0  0  0  0  0  0
   -3.7530    0.8197    0.0378 C   0  0  0  0  0  0  0  0  0  0  0  0
  1 14  2  0
  2 15  2  0
  3  7  1  0
  3 14  1  0
  4 14  1  0
  4 15  1  0
  5 15  1  0
  6  7  1  0
  6  8  1  0
  8  9  2  0
  8 10  1  0
  9 11  1  0
 10 12  2  0
 11 13  2  0
 12 13  1  0
M  END
>  <PUBCHEM_COMPOUND_CID>  (1) 
23219

>  <PUBCHEM_CONFORMER_RMSD>  (1) 
0.6

>  <PUBCHEM_CONFORMER_DIVERSEORDER>  (1) 
1
7
69
2
54
21
48
57
29
27
40
43
67
3
44
33
70
75
25
60
28
24
36
4
22
56
20
19
66
23
26
13
17
63
52
78
53
18
10
73
58
11
35
62
46
61
5
59
31
16
55
34
50
79
37
49
6
51
47
42
41
72
74
15
39
38
12
71
9
30
77
64
32
8
65
76
14
45
68

>  <PUBCHEM_MMFF94_PARTIAL_CHARGES>  (1) 
24
1 -0.57
10 -0.15
11 -0.15
12 -0.15
13 -0.15
14 0.69
15 0.69
2 -0.57
20 0.37
21 0.15
22 0.15
23 0.15
24 0.15
25 0.15
26 0.37
27 0.37
28 0.37
3 -0.73
4 -0.49
5 -0.8
6 0.14
7 0.3
8 -0.14
9 -0.15

>  <PUBCHEM_EFFECTIVE_ROTOR_COUNT>  (1) 
6

>  <PUBCHEM_PHARMACOPHORE_FEATURES>  (1) 
6
1 1 acceptor
1 2 acceptor
1 3 donor
1 4 donor
1 5 donor
6 8 9 10 11 12 13 rings

>  <PUBCHEM_HEAVY_ATOM_COUNT>  (1) 
15

>  <PUBCHEM_ATOM_DEF_STEREO_COUNT>  (1) 
0

>  <PUBCHEM_ATOM_UDEF_STEREO_COUNT>  (1) 
0

>  <PUBCHEM_BOND_DEF_STEREO_COUNT>  (1) 
0

>  <PUBCHEM_BOND_UDEF_STEREO_COUNT>  (1) 
0

>  <PUBCHEM_ISOTOPIC_ATOM_COUNT>  (1) 
0

>  <PUBCHEM_COMPONENT_COUNT>  (1) 
1

>  <PUBCHEM_CACTVS_TAUTO_COUNT>  (1) 
8

>  <PUBCHEM_CONFORMER_ID>  (1) 
00005AB300000001

>  <PUBCHEM_MMFF94_ENERGY>  (1) 
27.395

>  <PUBCHEM_FEATURE_SELFOVERLAP>  (1) 
30.55

>  <PUBCHEM_SHAPE_FINGERPRINT>  (1) 
10064457 181 15502381157702662784
10465860 228 18410296869883232434
12006461 19 8646768893600834357
12162725 195 18336546139576095646
122479 349 18335144214747584810
12633257 1 17458893938330799088
13922767 16 18408040706525017418
14123255 352 18334293205727637516
14123255 52 18410855438969992371
14251710 61 9367341539956637897
14252887 29 12179841689414477186
14415576 193 18341897376595029830
14897335 6 18412262830922761967
15239191 94 8935003659151217265
15775835 57 18411702114304601996
17834072 32 18337116786164042276
18186145 218 18200893823700646642
20871999 31 12535358882508639243
21524375 3 18335417988958794283
21665062 11 18040437681196965788
21713013 43 11743574171152367256
22646028 28 9583523117867934345
231179 274 17822002078108796831
23402539 116 18271517684904197068
23402655 69 18342740736726563876
235170 7 15339121225587313113
23557571 272 17703792564988878831
351380 180 18335415759754593172
474 4 18261110789724342283
6328613 192 18334583473467851708
6786 2 12762560981972714126
94968 8 10159693590775466972

>  <PUBCHEM_SHAPE_MULTIPOLES>  (1) 
282.01
8.78
2.15
0.86
5.53
0.08
0.03
4.9
-0.43
-0.06
-0.03
0.01
-0.03
-0.47

>  <PUBCHEM_SHAPE_SELFOVERLAP>  (1) 
574.797

>  <PUBCHEM_SHAPE_VOLUME>  (1) 
162

>  <PUBCHEM_COORDINATE_TYPE>  (1) 
2
5
10

$$$$
