23214
     RDKit          3D

 25 28  0  0  0  0  0  0  0  0999 V2000
    4.4103   -2.1536    1.4518 O   0  0  0  0  0  0  0  0  0  0  0  0
    5.8523   -2.3030   -0.4733 O   0  0  0  0  0  0  0  0  0  0  0  0
   -3.3011    0.7539   -1.8255 O   0  0  0  0  0  0  0  0  0  0  0  0
    1.2558    1.8565    0.4535 N   0  0  0  0  0  0  0  0  0  0  0  0
   -1.6102    1.8021    0.0769 N   0  0  0  0  0  0  0  0  0  0  0  0
    0.6365    0.9975   -0.5633 C   0  0  0  0  0  0  0  0  0  0  0  0
    0.4335    3.0502    0.6865 C   0  0  0  0  0  0  0  0  0  0  0  0
   -0.7882    0.6079   -0.1541 C   0  0  0  0  0  0  0  0  0  0  0  0
   -0.9914    2.6606    1.0944 C   0  0  0  0  0  0  0  0  0  0  0  0
    2.6133    2.2298    0.0608 C   0  0  0  0  0  0  0  0  0  0  0  0
   -2.9683    1.4298    0.4679 C   0  0  0  0  0  0  0  0  0  0  0  0
    3.4978    1.0242   -0.1150 C   0  0  0  0  0  0  0  0  0  0  0  0
   -3.5954    0.6051   -0.6413 C   0  0  0  0  0  0  0  0  0  0  0  0
    3.4679    0.0136    0.8394 C   0  0  0  0  0  0  0  0  0  0  0  0
    4.3314    0.9477   -1.2365 C   0  0  0  0  0  0  0  0  0  0  0  0
    4.2961   -1.0708    0.6351 C   0  0  0  0  0  0  0  0  0  0  0  0
   -4.6103   -0.4265   -0.2725 C   0  0  0  0  0  0  0  0  0  0  0  0
    5.1196   -1.1563   -0.4641 C   0  0  0  0  0  0  0  0  0  0  0  0
    5.1604   -0.1617   -1.4196 C   0  0  0  0  0  0  0  0  0  0  0  0
    5.3975   -2.9302    0.7430 C   0  0  0  0  0  0  0  0  0  0  0  0
   -5.3893   -0.2146    0.8415 C   0  0  0  0  0  0  0  0  0  0  0  0
   -4.7262   -1.5476   -1.0614 C   0  0  0  0  0  0  0  0  0  0  0  0
   -6.3375   -1.1780    1.1859 C   0  0  0  0  0  0  0  0  0  0  0  0
   -5.6745   -2.5108   -0.7169 C   0  0  0  0  0  0  0  0  0  0  0  0
   -6.4801   -2.3259    0.4068 C   0  0  0  0  0  0  0  0  0  0  0  0
  1 16  1  0
  1 20  1  0
  2 18  1  0
  2 20  1  0
  3 13  2  0
  4  6  1  0
  4  7  1  0
  4 10  1  0
  5  8  1  0
  5  9  1  0
  5 11  1  0
  6  8  1  0
  7  9  1  0
 10 12  1  0
 11 13  1  0
 12 14  1  0
 12 15  2  0
 13 17  1  0
 14 16  2  0
 15 19  1  0
 16 18  1  0
 17 21  2  0
 17 22  1  0
 18 19  2  0
 21 23  1  0
 22 24  2  0
 23 25  2  0
 24 25  1  0
M  END
>  <PUBCHEM_COMPOUND_CID>  (1) 
23214

>  <PUBCHEM_CONFORMER_RMSD>  (1) 
0.8

>  <PUBCHEM_CONFORMER_DIVERSEORDER>  (1) 
1
116
104
195
143
165
202
141
186
148
178
55
117
79
3
56
201
125
31
69
49
205
170
77
76
28
200
54
68
42
72
133
74
153
193
67
144
157
107
9
150
203
176
96
194
129
103
190
185
155
158
13
126
161
33
25
11
66
147
156
123
24
169
162
51
109
35
20
192
191
196
26
199
119
88
10
166
127
7
4
163
14
101
48
6
5
114
188
160
198
138
179
23
71
15
108
52
2
189
132
58
73
137
151
27
30
172
111
145
159
121
204
65
181
64
173
19
171
18
98
134
152
187
106
29
46
177
83
89
149
37
47
182
120
184
91
45
16
94
167
62
95
142
44
140
110
112
180
209
40
168
93
183
128
124
34
90
22
86
207
206
57
59
61
63
174
97
75
164
32
53
70
131
17
154
60
80
99
41
78
12
113
136
92
36
197
118
130
50
39
85
175
115
81
8
139
105
102
100
122
82
87
84
38
208
146
43
135
21

>  <PUBCHEM_MMFF94_PARTIAL_CHARGES>  (1) 
33
1 -0.36
10 0.41
11 0.33
12 -0.14
13 0.42
14 -0.15
15 -0.15
16 0.08
17 0.09
18 0.08
19 -0.15
2 -0.36
20 0.56
21 -0.15
22 -0.15
23 -0.15
24 -0.15
25 -0.15
3 -0.57
38 0.15
39 0.15
4 -0.81
40 0.15
43 0.15
44 0.15
45 0.15
46 0.15
47 0.15
5 -0.81
6 0.27
7 0.27
8 0.27
9 0.27

>  <PUBCHEM_EFFECTIVE_ROTOR_COUNT>  (1) 
6.8

>  <PUBCHEM_PHARMACOPHORE_FEATURES>  (1) 
9
1 1 acceptor
1 2 acceptor
1 3 acceptor
1 4 cation
1 5 cation
5 1 2 16 18 20 rings
6 12 14 15 16 18 19 rings
6 17 21 22 23 24 25 rings
6 4 5 6 7 8 9 rings

>  <PUBCHEM_HEAVY_ATOM_COUNT>  (1) 
25

>  <PUBCHEM_ATOM_DEF_STEREO_COUNT>  (1) 
0

>  <PUBCHEM_ATOM_UDEF_STEREO_COUNT>  (1) 
0

>  <PUBCHEM_BOND_DEF_STEREO_COUNT>  (1) 
0

>  <PUBCHEM_BOND_UDEF_STEREO_COUNT>  (1) 
0

>  <PUBCHEM_ISOTOPIC_ATOM_COUNT>  (1) 
0

>  <PUBCHEM_COMPONENT_COUNT>  (1) 
1

>  <PUBCHEM_CACTVS_TAUTO_COUNT>  (1) 
2

>  <PUBCHEM_CONFORMER_ID>  (1) 
00005AAE00000001

>  <PUBCHEM_MMFF94_ENERGY>  (1) 
69.326

>  <PUBCHEM_FEATURE_SELFOVERLAP>  (1) 
45.83

>  <PUBCHEM_SHAPE_FINGERPRINT>  (1) 
10074138 170 17129875915479218225
10319926 262 16845305925384291337
10498660 4 12180140739466194908
10622 236 17898278412711958802
10928967 22 18271229591088108047
117089 54 18127704720919822806
11763715 3 18189918477216250076
11796584 16 18267584598631194236
11991303 11 17825381891650600085
12107183 9 18129958840511148457
12166972 35 18113624482028872670
12403259 118 11095869484653204533
12422481 6 16917073248020138525
12633257 1 15267048276946018744
13073987 5 18413670222886347600
13103583 49 17988937690744999313
13167372 99 9871751273917134630
13533116 47 18337675312084507104
1361 4 18335987587580014875
13690498 29 18187362104381028845
13782708 43 18261670467630362319
13911852 28 18412821408931635873
13955234 65 18055630874182230296
14123256 34 18343025450267144206
14251740 57 18341606040689730584
14251764 30 18410293622898330813
14347332 77 18335417954873291117
14480069 147 18259985955228326403
14528608 73 11819266780833610733
14951699 99 12391507624573585106
15019793 15 17979071909879433363
15348495 7 14692285183628515447
15519825 34 14835543887254977439
15927050 60 17624412374055312540
17134984 74 17676208009108652898
17492 89 18411697669182807896
17810953 82 9655580712449155450
18393751 57 10807948080950582853
1979834 28 16702034079336980261
20028762 73 18272369771751011126
20058555 10 9295288339818492531
20398071 356 18411705357010756863
20567600 247 18334294283685125626
21585483 132 17913755374850867511
22122407 14 10592045777726840399
22950370 63 18412830200503201321
23522609 53 18122942856055231929
23559900 14 18336537335552781701
270888 7 9295277344749135410
2748736 6 8790887358911232643
2838139 119 10087377603289591075
3004659 81 18187363208224267386
3089732 80 18334858354978809347
328310 630 11025786592862722287
33382 64 18335142020272491057
34797466 226 16153994654998410685
351380 3 18342178881673304917
3680242 22 18343309197102128131
3862424 121 17097233829386282419
397830 11 12319452251381792053
439807 62 18260831492808013463
44062 13 18263355911217973069
46194498 28 17241327005121347372
465052 167 18272093803158873892
474113 269 17988352789768051879
5104073 3 17917993871220046609
59682541 52 14923932428146087384
6034566 193 8718535155944430329
6058803 2 18046362838244328012
636775 8 18199762362787388422
7970288 3 18412823573105003891
8863177 126 18338519771727837755

>  <PUBCHEM_SHAPE_MULTIPOLES>  (1) 
486.92
17.95
3.4
1.29
8.63
0.23
-0.16
17.59
-0.02
-1.4
0.89
-0.06
0.15
-1.08

>  <PUBCHEM_SHAPE_SELFOVERLAP>  (1) 
1058.117

>  <PUBCHEM_SHAPE_VOLUME>  (1) 
265.5

>  <PUBCHEM_COORDINATE_TYPE>  (1) 
2
5
10

$$$$
