23227
     RDKit          3D

 27 28  0  0  1  0  0  0  0  0999 V2000
    2.6113    1.8093    0.3219 O   0  0  0  0  0  0  0  0  0  0  0  0
    3.6812   -0.2137    0.1706 O   0  0  0  0  0  0  0  0  0  0  0  0
   -2.4140    2.2435   -0.1181 N   0  0  0  0  0  0  0  0  0  0  0  0
    1.3493   -0.0409   -0.5960 C   0  0  0  0  0  0  0  0  0  0  0  0
    1.6730   -0.4532   -2.0932 C   0  0  0  0  0  0  0  0  0  0  0  0
    0.2520    1.0836   -0.5332 C   0  0  0  0  0  0  0  0  0  0  0  0
    0.8285   -1.2056    0.2945 C   0  0  0  0  0  0  0  0  0  0  0  0
   -0.3460    1.3550    0.8577 C   0  0  0  0  0  0  0  0  0  0  0  0
    2.6810    0.4812    0.0188 C   0  0  0  0  0  0  0  0  0  0  0  0
    2.7292   -1.5688   -2.2181 C   0  0  0  0  0  0  0  0  0  0  0  0
    2.1223    0.7132   -2.9916 C   0  0  0  0  0  0  0  0  0  0  0  0
   -1.3256    2.5294    0.8092 C   0  0  0  0  0  0  0  0  0  0  0  0
   -0.3621   -1.8910    0.0025 C   0  0  0  0  0  0  0  0  0  0  0  0
    1.5942   -1.5512    1.4085 C   0  0  0  0  0  0  0  0  0  0  0  0
   -0.7816   -2.9419    0.8525 C   0  0  0  0  0  0  0  0  0  0  0  0
    1.1817   -2.5850    2.2440 C   0  0  0  0  0  0  0  0  0  0  0  0
   -1.1453   -1.5566   -1.1142 C   0  0  0  0  0  0  0  0  0  0  0  0
   -3.0745    3.4818   -0.5348 C   0  0  0  0  0  0  0  0  0  0  0  0
   -3.3835    1.3311    0.4907 C   0  0  0  0  0  0  0  0  0  0  0  0
    0.0016   -3.2767    1.9691 C   0  0  0  0  0  0  0  0  0  0  0  0
   -1.9721   -3.6275    0.5606 C   0  0  0  0  0  0  0  0  0  0  0  0
    3.8067    2.3930    0.8499 C   0  0  0  0  0  0  0  0  0  0  0  0
   -2.3254   -2.2483   -1.3888 C   0  0  0  0  0  0  0  0  0  0  0  0
   -2.7380   -3.2818   -0.5530 C   0  0  0  0  0  0  0  0  0  0  0  0
   -3.7126    4.1889    0.6488 C   0  0  0  0  0  0  0  0  0  0  0  0
   -4.4891    0.9724   -0.4877 C   0  0  0  0  0  0  0  0  0  0  0  0
    3.5575    3.8598    1.1292 C   0  0  0  0  0  0  0  0  0  0  0  0
  1  9  1  0
  1 22  1  0
  2  9  2  0
  3 12  1  0
  3 18  1  0
  3 19  1  0
  4  5  1  0
  4  6  1  0
  4  7  1  0
  4  9  1  0
  5 10  1  0
  5 11  1  0
  6  8  1  0
  7 13  2  0
  7 14  1  0
  8 12  1  0
 13 15  1  0
 13 17  1  0
 14 16  2  0
 15 20  2  0
 15 21  1  0
 16 20  1  0
 17 23  2  0
 18 25  1  0
 19 26  1  0
 21 24  2  0
 22 27  1  0
 23 24  1  0
M  END
>  <PUBCHEM_COMPOUND_CID>  (1) 
23227

>  <PUBCHEM_CONFORMER_RMSD>  (1) 
1

>  <PUBCHEM_CONFORMER_DIVERSEORDER>  (1) 
1
12
89
60
14
39
51
48
27
38
19
86
100
62
71
46
6
24
79
11
44
84
90
41
49
88
94
33
55
67
91
8
18
76
2
50
25
63
82
74
3
87
54
47
53
45
78
10
75
61
35
43
69
56
95
96
65
40
57
17
36
93
92
16
99
59
80
9
98
73
66
5
42
23
4
34
103
72
13
31
83
21
81
28
30
68
64
37
97
22
20
85
70
29
102
58
101
15
77
7
52
32
26

>  <PUBCHEM_MMFF94_PARTIAL_CHARGES>  (1) 
24
1 -0.43
12 0.27
14 -0.15
16 -0.15
17 -0.15
18 0.27
19 0.27
2 -0.57
20 -0.15
21 -0.15
22 0.28
23 -0.15
24 -0.15
3 -0.81
4 0.2
41 0.15
42 0.15
43 0.15
48 0.15
49 0.15
52 0.15
53 0.15
7 -0.14
9 0.66

>  <PUBCHEM_EFFECTIVE_ROTOR_COUNT>  (1) 
11

>  <PUBCHEM_PHARMACOPHORE_FEATURES>  (1) 
6
1 2 acceptor
1 3 cation
3 5 10 11 hydrophobe
4 4 5 6 8 hydrophobe
6 13 15 17 21 23 24 rings
6 7 13 14 15 16 20 rings

>  <PUBCHEM_HEAVY_ATOM_COUNT>  (1) 
27

>  <PUBCHEM_ATOM_DEF_STEREO_COUNT>  (1) 
0

>  <PUBCHEM_ATOM_UDEF_STEREO_COUNT>  (1) 
1

>  <PUBCHEM_BOND_DEF_STEREO_COUNT>  (1) 
0

>  <PUBCHEM_BOND_UDEF_STEREO_COUNT>  (1) 
0

>  <PUBCHEM_ISOTOPIC_ATOM_COUNT>  (1) 
0

>  <PUBCHEM_COMPONENT_COUNT>  (1) 
1

>  <PUBCHEM_CACTVS_TAUTO_COUNT>  (1) 
1

>  <PUBCHEM_CONFORMER_ID>  (1) 
00005ABB00000001

>  <PUBCHEM_MMFF94_ENERGY>  (1) 
91.1049

>  <PUBCHEM_FEATURE_SELFOVERLAP>  (1) 
30.49

>  <PUBCHEM_SHAPE_FINGERPRINT>  (1) 
108634 29 18341614858231371439
10906281 52 17762915659030351049
1100329 8 18265600006023281682
11578080 2 17128496217200693936
12293681 4 17687740957922837035
12788726 201 17900566736658087615
13149001 5 17985576397483128652
14863182 85 17402895523022681299
14955137 171 17760645871730743282
18681886 176 17909817743978913195
20600515 1 17610052743347959383
22393880 68 18123191195543253653
23558518 356 18336825394250035948
23559900 14 17485079700693832733
3052486 1 18189892196378891225
3060560 45 17907584627151548644
3493558 16 16306813782872522924
35225 105 17607843696003059843
469060 322 17531803697014568759
57527573 199 18120649399205185841
5845 1 12339904404018084754
7226269 152 17757533523958726136
81228 2 18122370100516309337

>  <PUBCHEM_SHAPE_MULTIPOLES>  (1) 
538.93
6.34
5.83
2.1
1.11
1.86
0.94
6.27
0.36
3.95
-2.49
-1.71
-1.1
0.24

>  <PUBCHEM_SHAPE_SELFOVERLAP>  (1) 
1112.704

>  <PUBCHEM_SHAPE_VOLUME>  (1) 
311

>  <PUBCHEM_COORDINATE_TYPE>  (1) 
2
5
10

$$$$
