23221
     RDKit          3D

 16 16  0  0  0  0  0  0  0  0999 V2000
    2.6675    0.7383    1.4501 O   0  0  0  0  0  0  0  0  0  0  0  0
    4.8153   -1.0436    1.0384 O   0  0  0  0  0  0  0  0  0  0  0  0
    1.6002    1.3013   -0.5360 N   0  0  0  0  0  0  0  0  0  0  0  0
    3.3947   -0.1426   -0.5817 N   0  0  0  0  0  0  0  0  0  0  0  0
    5.0880   -1.5847   -1.1783 N   0  0  0  0  0  0  0  0  0  0  0  0
   -0.6781    1.4483    0.4169 C   0  0  0  0  0  0  0  0  0  0  0  0
   -1.3966    0.7594   -0.7510 C   0  0  0  0  0  0  0  0  0  0  0  0
    0.6031    2.1827    0.0268 C   0  0  0  0  0  0  0  0  0  0  0  0
   -2.6785    0.0697   -0.3576 C   0  0  0  0  0  0  0  0  0  0  0  0
   -2.6427   -1.2578    0.0417 C   0  0  0  0  0  0  0  0  0  0  0  0
   -3.8722    0.7743   -0.4010 C   0  0  0  0  0  0  0  0  0  0  0  0
   -3.8284   -1.8959    0.4060 C   0  0  0  0  0  0  0  0  0  0  0  0
   -5.0579    0.1361   -0.0367 C   0  0  0  0  0  0  0  0  0  0  0  0
   -5.0358   -1.1990    0.3668 C   0  0  0  0  0  0  0  0  0  0  0  0
    2.5619    0.6437    0.2284 C   0  0  0  0  0  0  0  0  0  0  0  0
    4.4595   -0.9302   -0.1330 C   0  0  0  0  0  0  0  0  0  0  0  0
  1 15  2  0
  2 16  2  0
  3  8  1  0
  3 15  1  0
  4 15  1  0
  4 16  1  0
  5 16  1  0
  6  7  1  0
  6  8  1  0
  7  9  1  0
  9 10  2  0
  9 11  1  0
 10 12  1  0
 11 13  2  0
 12 14  2  0
 13 14  1  0
M  END
>  <PUBCHEM_COMPOUND_CID>  (1) 
23221

>  <PUBCHEM_CONFORMER_RMSD>  (1) 
0.8

>  <PUBCHEM_CONFORMER_DIVERSEORDER>  (1) 
1
69
81
16
93
79
67
91
36
88
48
53
32
49
25
96
64
55
26
90
8
78
59
71
45
83
44
43
76
61
3
94
85
30
40
46
34
66
6
38
14
75
4
82
92
77
22
12
33
65
17
68
80
23
35
42
95
63
86
39
87
19
11
89
56
47
24
51
10
5
84
13
50
52
15
70
72
27
54
73
60
29
74
31
2
62
7
37
41
20
21
28
9
18
57
58

>  <PUBCHEM_MMFF94_PARTIAL_CHARGES>  (1) 
24
1 -0.57
10 -0.15
11 -0.15
12 -0.15
13 -0.15
14 -0.15
15 0.69
16 0.69
2 -0.57
23 0.37
24 0.15
25 0.15
26 0.15
27 0.15
28 0.15
29 0.37
3 -0.73
30 0.37
31 0.37
4 -0.49
5 -0.8
7 0.14
8 0.3
9 -0.14

>  <PUBCHEM_EFFECTIVE_ROTOR_COUNT>  (1) 
7

>  <PUBCHEM_PHARMACOPHORE_FEATURES>  (1) 
6
1 1 acceptor
1 2 acceptor
1 3 donor
1 4 donor
1 5 donor
6 9 10 11 12 13 14 rings

>  <PUBCHEM_HEAVY_ATOM_COUNT>  (1) 
16

>  <PUBCHEM_ATOM_DEF_STEREO_COUNT>  (1) 
0

>  <PUBCHEM_ATOM_UDEF_STEREO_COUNT>  (1) 
0

>  <PUBCHEM_BOND_DEF_STEREO_COUNT>  (1) 
0

>  <PUBCHEM_BOND_UDEF_STEREO_COUNT>  (1) 
0

>  <PUBCHEM_ISOTOPIC_ATOM_COUNT>  (1) 
0

>  <PUBCHEM_COMPONENT_COUNT>  (1) 
1

>  <PUBCHEM_CACTVS_TAUTO_COUNT>  (1) 
8

>  <PUBCHEM_CONFORMER_ID>  (1) 
00005AB500000001

>  <PUBCHEM_MMFF94_ENERGY>  (1) 
27.3627

>  <PUBCHEM_FEATURE_SELFOVERLAP>  (1) 
30.55

>  <PUBCHEM_SHAPE_FINGERPRINT>  (1) 
10498660 4 8718556016358039407
11128504 68 15719396139615661574
11458722 379 18186802478500263867
12555020 224 18337380622290102975
12596602 18 15051724304908314391
13255334 9 18263084481974400395
13533116 47 18198623440164637523
13675066 3 18273207634181513457
14123255 352 9583516508087410574
14123255 52 9007056855327464756
1420 369 18413109459186798114
14251710 61 18410576201433762132
14251731 8 18261391122682942077
14251764 30 17531540870648740107
14252887 29 18341044224502635080
14386348 63 18341896277136136678
14420673 8 18338524040841252163
15196674 1 18409166653455012631
15352361 1 18411139117138422846
15531645 54 18411981343704753701
17804303 29 18334858350963059597
17834072 8 18260259738335003557
1813 80 17313380171148109173
193927 3 18411426106837089888
19784866 240 18410583867945292741
20281475 54 18336267928774763941
20374829 77 18333446534460687041
20388580 30 18114186354146410844
20403669 9 18411702071313101382
20645477 70 18262517112351736925
2215653 11 18411130334367866959
22926399 37 11891329846628115253
23016692 55 18341062847617526012
23402655 69 12396294859250680029
23403322 49 18408604755773853623
23559900 14 18410006671590963021
245318 6 13540741418794767898
3004659 81 18186805773014122718
314173 41 18408324393230595908
328317 168 9079116652736129241
3421961 26 18342455984642755896
351380 180 10519984859283770718
351380 3 18334575728876847770
5104073 3 18270406104640112953
559249 180 18334571292433697617
59345606 38 9151173146998607304
9709674 26 18044940310145714971

>  <PUBCHEM_SHAPE_MULTIPOLES>  (1) 
302.59
12.46
1.97
0.94
4.97
0.05
0.08
-7.34
-0.07
0.15
0.04
0.8
-0.06
0.84

>  <PUBCHEM_SHAPE_SELFOVERLAP>  (1) 
611.655

>  <PUBCHEM_SHAPE_VOLUME>  (1) 
175.3

>  <PUBCHEM_COORDINATE_TYPE>  (1) 
2
5
10

$$$$
