23223
     RDKit          3D

 17 17  0  0  0  0  0  0  0  0999 V2000
   -5.6228    0.6410   -0.2180 O   0  0  0  0  0  0  0  0  0  0  0  0
    2.7780    1.2303   -0.3586 O   0  0  0  0  0  0  0  0  0  0  0  0
    5.5601    1.3397    0.0951 O   0  0  0  0  0  0  0  0  0  0  0  0
    1.9856   -0.9529   -0.4343 N   0  0  0  0  0  0  0  0  0  0  0  0
    4.2292   -0.5718   -0.0766 N   0  0  0  0  0  0  0  0  0  0  0  0
    6.4944   -0.7499    0.2973 N   0  0  0  0  0  0  0  0  0  0  0  0
   -0.1639   -0.4896    0.6493 C   0  0  0  0  0  0  0  0  0  0  0  0
   -1.6230   -0.1876    0.4172 C   0  0  0  0  0  0  0  0  0  0  0  0
    0.5941   -0.6426   -0.6699 C   0  0  0  0  0  0  0  0  0  0  0  0
   -2.0370    1.1316    0.3161 C   0  0  0  0  0  0  0  0  0  0  0  0
   -2.5259   -1.2343    0.3093 C   0  0  0  0  0  0  0  0  0  0  0  0
   -3.3867    1.4110    0.1017 C   0  0  0  0  0  0  0  0  0  0  0  0
   -3.8755   -0.9549    0.0948 C   0  0  0  0  0  0  0  0  0  0  0  0
   -4.3060    0.3678   -0.0091 C   0  0  0  0  0  0  0  0  0  0  0  0
    2.9754    0.0180   -0.2966 C   0  0  0  0  0  0  0  0  0  0  0  0
   -6.5087   -0.4727   -0.3216 C   0  0  0  0  0  0  0  0  0  0  0  0
    5.4327    0.1168    0.1041 C   0  0  0  0  0  0  0  0  0  0  0  0
  1 14  1  0
  1 16  1  0
  2 15  2  0
  3 17  2  0
  4  9  1  0
  4 15  1  0
  5 15  1  0
  5 17  1  0
  6 17  1  0
  7  8  1  0
  7  9  1  0
  8 10  2  0
  8 11  1  0
 10 12  1  0
 11 13  2  0
 12 14  2  0
 13 14  1  0
M  END
>  <PUBCHEM_COMPOUND_CID>  (1) 
23223

>  <PUBCHEM_CONFORMER_RMSD>  (1) 
0.8

>  <PUBCHEM_CONFORMER_DIVERSEORDER>  (1) 
1
19
44
41
39
22
53
55
24
4
54
3
35
57
31
42
27
2
56
52
16
18
7
15
46
21
17
45
11
20
36
14
10
48
47
13
40
6
33
49
43
5
51
23
34
29
30
58
59
12
25
32
28
38
37
50
8
26
9

>  <PUBCHEM_MMFF94_PARTIAL_CHARGES>  (1) 
25
1 -0.36
10 -0.15
11 -0.15
12 -0.15
13 -0.15
14 0.08
15 0.69
16 0.28
17 0.69
2 -0.57
22 0.15
23 0.15
24 0.37
25 0.15
26 0.15
27 0.37
3 -0.57
31 0.37
32 0.37
4 -0.73
5 -0.49
6 -0.8
7 0.14
8 -0.14
9 0.3

>  <PUBCHEM_EFFECTIVE_ROTOR_COUNT>  (1) 
7

>  <PUBCHEM_PHARMACOPHORE_FEATURES>  (1) 
7
1 1 acceptor
1 2 acceptor
1 3 acceptor
1 4 donor
1 5 donor
1 6 donor
6 8 10 11 12 13 14 rings

>  <PUBCHEM_HEAVY_ATOM_COUNT>  (1) 
17

>  <PUBCHEM_ATOM_DEF_STEREO_COUNT>  (1) 
0

>  <PUBCHEM_ATOM_UDEF_STEREO_COUNT>  (1) 
0

>  <PUBCHEM_BOND_DEF_STEREO_COUNT>  (1) 
0

>  <PUBCHEM_BOND_UDEF_STEREO_COUNT>  (1) 
0

>  <PUBCHEM_ISOTOPIC_ATOM_COUNT>  (1) 
0

>  <PUBCHEM_COMPONENT_COUNT>  (1) 
1

>  <PUBCHEM_CACTVS_TAUTO_COUNT>  (1) 
8

>  <PUBCHEM_CONFORMER_ID>  (1) 
00005AB700000001

>  <PUBCHEM_MMFF94_ENERGY>  (1) 
42.0013

>  <PUBCHEM_FEATURE_SELFOVERLAP>  (1) 
35.626

>  <PUBCHEM_SHAPE_FINGERPRINT>  (1) 
10968037 39 18343020000148505967
11128504 68 14189571957939729058
11315181 36 18260554436830281152
11401426 45 18259987076203864119
12107183 9 17614557039187222050
12236239 1 17894628145470462283
12507557 5 18408606984672275008
12596602 18 17022907895245866136
12714333 28 18131350804138893667
13533116 47 17603857854741180146
14123238 8 13542466462301579766
14251718 22 18201999932735649983
14251764 18 18260827103794210864
14617045 38 9655579621047933965
17834076 25 18187082853891285535
19489759 90 18335421257370546611
200 152 17632858612073910241
20281389 69 18113898256003010372
20645477 70 17346045450708203150
20767249 213 18410575093279406844
23035841 295 12607404386187047213
23402539 116 18409444812759402919
23557571 272 18060143102530123641
23559900 14 18339636858145589393
300161 21 18113049437226278618
34797466 226 17489596688002978412
351380 180 18408323302298470096
3545911 37 18410576175722097558
42788 4 18410856559650345570
4325135 7 18272930527523744047
542803 24 17417817235846250586
59755656 215 18337114475751199022
59755656 520 17240479234849723291
67856867 119 18262521536331842300

>  <PUBCHEM_SHAPE_MULTIPOLES>  (1) 
317.3
15.96
1.28
0.7
10.46
0.23
0.01
0.65
-0.46
-0.23
0.02
-0.07
-0.05
-0.03

>  <PUBCHEM_SHAPE_SELFOVERLAP>  (1) 
646.571

>  <PUBCHEM_SHAPE_VOLUME>  (1) 
183.3

>  <PUBCHEM_COORDINATE_TYPE>  (1) 
2
5
10

$$$$
