23225
     RDKit          3D

 29 31  0  0  1  0  0  0  0  0999 V2000
    2.0213   -0.0494    0.4982 O   0  0  0  0  0  0  0  0  0  0  0  0
    1.4995   -2.0586   -0.5569 O   0  0  0  0  0  0  0  0  0  0  0  0
    0.2266    4.1848    0.2803 N   0  0  0  0  0  0  0  0  0  0  0  0
   -0.2556   -0.8626    0.6924 C   0  0  0  0  0  0  0  0  0  0  0  0
   -0.5155   -1.9915    1.7751 C   0  0  0  0  0  0  0  0  0  0  0  0
   -0.2493    0.5606    1.3653 C   0  0  0  0  0  0  0  0  0  0  0  0
   -1.2966   -0.7925   -0.4573 C   0  0  0  0  0  0  0  0  0  0  0  0
    0.0589    1.7419    0.4307 C   0  0  0  0  0  0  0  0  0  0  0  0
    1.1708   -1.0877    0.1166 C   0  0  0  0  0  0  0  0  0  0  0  0
   -0.5938   -3.4145    1.1918 C   0  0  0  0  0  0  0  0  0  0  0  0
    0.5091   -2.0192    2.9246 C   0  0  0  0  0  0  0  0  0  0  0  0
   -2.6284   -0.5975   -0.1710 C   0  0  0  0  0  0  0  0  0  0  0  0
   -0.0600    3.0719    1.1778 C   0  0  0  0  0  0  0  0  0  0  0  0
   -0.7837   -0.9367   -1.7205 C   0  0  0  0  0  0  0  0  0  0  0  0
   -3.5266   -0.5429   -1.2633 C   0  0  0  0  0  0  0  0  0  0  0  0
   -1.6669   -0.8827   -2.7947 C   0  0  0  0  0  0  0  0  0  0  0  0
   -3.1253   -0.4530    1.1346 C   0  0  0  0  0  0  0  0  0  0  0  0
   -3.0299   -0.6871   -2.5691 C   0  0  0  0  0  0  0  0  0  0  0  0
   -4.8953   -0.3453   -1.0179 C   0  0  0  0  0  0  0  0  0  0  0  0
   -4.4882   -0.2576    1.3600 C   0  0  0  0  0  0  0  0  0  0  0  0
    0.0909    5.4617    0.9832 C   0  0  0  0  0  0  0  0  0  0  0  0
   -0.6600    4.1495   -0.8840 C   0  0  0  0  0  0  0  0  0  0  0  0
   -5.3715   -0.2039    0.2859 C   0  0  0  0  0  0  0  0  0  0  0  0
    3.3236   -0.1917    0.0116 C   0  0  0  0  0  0  0  0  0  0  0  0
    3.6353    0.3556   -1.2129 C   0  0  0  0  0  0  0  0  0  0  0  0
    4.2436   -0.8743    0.7758 C   0  0  0  0  0  0  0  0  0  0  0  0
    4.9349    0.2128   -1.6988 C   0  0  0  0  0  0  0  0  0  0  0  0
    5.5433   -1.0168    0.2899 C   0  0  0  0  0  0  0  0  0  0  0  0
    5.8889   -0.4733   -0.9474 C   0  0  0  0  0  0  0  0  0  0  0  0
  1  9  1  0
  1 24  1  0
  2  9  2  0
  3 13  1  0
  3 21  1  0
  3 22  1  0
  4  5  1  0
  4  6  1  0
  4  7  1  0
  4  9  1  0
  5 10  1  0
  5 11  1  0
  6  8  1  0
  7 12  1  0
  7 14  2  0
  8 13  1  0
 12 15  2  0
 12 17  1  0
 14 16  1  0
 15 18  1  0
 15 19  1  0
 16 18  2  0
 17 20  2  0
 19 23  2  0
 20 23  1  0
 24 25  2  0
 24 26  1  0
 25 27  1  0
 26 28  2  0
 27 29  2  0
 28 29  1  0
M  END
>  <PUBCHEM_COMPOUND_CID>  (1) 
23225

>  <PUBCHEM_CONFORMER_RMSD>  (1) 
1

>  <PUBCHEM_CONFORMER_DIVERSEORDER>  (1) 
1
8
30
51
15
33
34
39
38
43
37
20
10
47
49
35
17
46
41
50
22
14
31
19
32
6
29
24
42
3
12
11
48
21
25
40
13
18
45
26
9
44
7
28
4
5
27
23
16
2
36

>  <PUBCHEM_MMFF94_PARTIAL_CHARGES>  (1) 
34
1 -0.23
13 0.27
14 -0.15
16 -0.15
17 -0.15
18 -0.15
19 -0.15
2 -0.57
20 -0.15
21 0.27
22 0.27
23 -0.15
24 0.08
25 -0.15
26 -0.15
27 -0.15
28 -0.15
29 -0.15
3 -0.81
4 0.2
43 0.15
44 0.15
45 0.15
46 0.15
47 0.15
48 0.15
55 0.15
56 0.15
57 0.15
58 0.15
59 0.15
60 0.15
7 -0.14
9 0.66

>  <PUBCHEM_EFFECTIVE_ROTOR_COUNT>  (1) 
9

>  <PUBCHEM_PHARMACOPHORE_FEATURES>  (1) 
7
1 2 acceptor
1 3 cation
3 5 10 11 hydrophobe
4 4 5 6 8 hydrophobe
6 12 15 17 19 20 23 rings
6 24 25 26 27 28 29 rings
6 7 12 14 15 16 18 rings

>  <PUBCHEM_HEAVY_ATOM_COUNT>  (1) 
29

>  <PUBCHEM_ATOM_DEF_STEREO_COUNT>  (1) 
0

>  <PUBCHEM_ATOM_UDEF_STEREO_COUNT>  (1) 
1

>  <PUBCHEM_BOND_DEF_STEREO_COUNT>  (1) 
0

>  <PUBCHEM_BOND_UDEF_STEREO_COUNT>  (1) 
0

>  <PUBCHEM_ISOTOPIC_ATOM_COUNT>  (1) 
0

>  <PUBCHEM_COMPONENT_COUNT>  (1) 
1

>  <PUBCHEM_CACTVS_TAUTO_COUNT>  (1) 
1

>  <PUBCHEM_CONFORMER_ID>  (1) 
00005AB900000001

>  <PUBCHEM_MMFF94_ENERGY>  (1) 
126.5561

>  <PUBCHEM_FEATURE_SELFOVERLAP>  (1) 
35.566

>  <PUBCHEM_SHAPE_FINGERPRINT>  (1) 
10006869 2 17906453230203973777
10165383 225 17676489449825708455
10366900 7 17822837759213579343
11421498 54 18263357014897486779
11578080 2 17753625833848209436
11582403 64 15524405183250667599
12058002 1 17608409815294322511
12293681 4 18337966644063877427
12788726 201 18336548214319548016
13009979 54 17417527055345487719
13149001 5 18191020320830892834
133893 2 17768807920316239580
13590594 115 18343021095049402617
13782708 43 17749394823021231363
13911987 19 18187657911268083942
14028597 1 18042118765518677328
14294032 229 17982746177255027544
14347332 77 18199192776718993790
14787075 74 18187088381635716203
14840074 17 18060144253718236484
14955137 171 18201448025058607809
15219462 58 17757870781902832602
15439362 3 18121777494226218049
15775530 1 17612313356503380754
15840311 113 17418098741320502969
15849732 13 17632298978099063597
17349148 13 18336263458230792770
17980427 23 17915491404535779769
1813 80 18202282524077005092
20691752 17 18056732460489667466
21033648 29 17241034500763117668
21285901 2 17846230903627705788
21304303 64 18341329015257401328
21641784 216 18261690168424199908
23402539 116 18342739598338905226
23419403 2 17901957657426990867
23558518 356 17975424507739300498
23559900 14 18335142051064918194
283562 15 18264209119255498488
3004659 81 16200154292395640070
3027735 51 18265899055884854186
340366 18 17846212327941668781
3493558 16 17387969781587847949
469060 322 18264786392735409336
513202 73 18055928593046429550
5171179 24 17903084665567505363
7164475 11 18267583494993001270
7226269 152 18260537940583402146

>  <PUBCHEM_SHAPE_MULTIPOLES>  (1) 
580.09
9.68
4.29
2.33
7.15
9.14
-0.49
-3.63
-3.32
0.06
2.17
-1.02
-1.04
-0.4

>  <PUBCHEM_SHAPE_SELFOVERLAP>  (1) 
1240.452

>  <PUBCHEM_SHAPE_VOLUME>  (1) 
321.6

>  <PUBCHEM_COORDINATE_TYPE>  (1) 
2
5
10

$$$$
