23239
     RDKit          3D

 11 12  0  0  0  0  0  0  0  0999 V2000
   -0.8281   -1.0647   -0.2395 O   0  0  0  0  0  0  0  0  0  0  0  0
   -0.8153    1.2012   -0.1972 N   0  0  0  0  0  0  0  0  0  0  0  0
   -1.5299    0.1018   -0.2949 C   0  0  0  0  0  0  0  0  0  0  0  0
   -2.9860   -0.0303   -0.4571 C   0  0  0  0  0  0  0  0  0  0  0  0
    0.4655   -0.6539   -0.0900 C   0  0  0  0  0  0  0  0  0  0  0  0
    0.4695    0.7329   -0.0647 C   0  0  0  0  0  0  0  0  0  0  0  0
    1.5983   -1.4510    0.0199 C   0  0  0  0  0  0  0  0  0  0  0  0
    1.6916    1.4046    0.0812 C   0  0  0  0  0  0  0  0  0  0  0  0
   -3.7325   -0.1087    0.8822 C   0  0  0  0  0  0  0  0  0  0  0  0
    2.8092   -0.7655    0.1649 C   0  0  0  0  0  0  0  0  0  0  0  0
    2.8577    0.6337    0.1951 C   0  0  0  0  0  0  0  0  0  0  0  0
  1  3  1  0
  1  5  1  0
  2  3  2  0
  2  6  1  0
  3  4  1  0
  4  9  1  0
  5  6  2  0
  5  7  1  0
  6  8  1  0
  7 10  2  0
  8 11  2  0
 10 11  1  0
M  END
>  <PUBCHEM_COMPOUND_CID>  (1) 
23239

>  <PUBCHEM_CONFORMER_RMSD>  (1) 
0.4

>  <PUBCHEM_CONFORMER_DIVERSEORDER>  (1) 
2
4
1
3

>  <PUBCHEM_MMFF94_PARTIAL_CHARGES>  (1) 
14
1 -0.28
10 -0.15
11 -0.15
14 0.15
15 0.15
19 0.15
2 -0.57
20 0.15
3 0.3
4 0.18
5 0.14
6 0.23
7 -0.15
8 -0.15

>  <PUBCHEM_EFFECTIVE_ROTOR_COUNT>  (1) 
1

>  <PUBCHEM_PHARMACOPHORE_FEATURES>  (1) 
3
1 9 hydrophobe
5 1 2 3 5 6 rings
6 5 6 7 8 10 11 rings

>  <PUBCHEM_HEAVY_ATOM_COUNT>  (1) 
11

>  <PUBCHEM_ATOM_DEF_STEREO_COUNT>  (1) 
0

>  <PUBCHEM_ATOM_UDEF_STEREO_COUNT>  (1) 
0

>  <PUBCHEM_BOND_DEF_STEREO_COUNT>  (1) 
0

>  <PUBCHEM_BOND_UDEF_STEREO_COUNT>  (1) 
0

>  <PUBCHEM_ISOTOPIC_ATOM_COUNT>  (1) 
0

>  <PUBCHEM_COMPONENT_COUNT>  (1) 
1

>  <PUBCHEM_CACTVS_TAUTO_COUNT>  (1) 
2

>  <PUBCHEM_CONFORMER_ID>  (1) 
00005AC700000002

>  <PUBCHEM_MMFF94_ENERGY>  (1) 
12.7179

>  <PUBCHEM_FEATURE_SELFOVERLAP>  (1) 
15.341

>  <PUBCHEM_SHAPE_FINGERPRINT>  (1) 
10219947 1 18410575089195429605
10857977 72 17749107811725517689
11471102 20 18410849954185901293
12032990 46 18337394833687967022
12932764 1 17988916782269215141
13380535 21 18265905824473887302
14325111 11 18411134749225118117
15501101 241 18335139803847794325
16945 1 18411129242987256996
17844478 74 18040718056561679093
20201158 50 18334011674926804043
20645477 70 18338224969525831607
20871998 22 18055356834241807774
21040471 1 18194676206026235596
23235685 24 18337101362925471492
23402655 69 18341033143940464941
23552423 10 18262512705941910798
2748010 2 18051684456603520228
29004967 10 18260267442862708640
5084963 1 18271519823513125816
528886 8 18340197587626967354
53812653 166 18200024183318226496

>  <PUBCHEM_SHAPE_MULTIPOLES>  (1) 
215.52
5.19
1.36
0.72
3.25
0.01
-0.06
-0.2
-0.95
-0.78
0.01
0.32
-0.01
0.05

>  <PUBCHEM_SHAPE_SELFOVERLAP>  (1) 
465.632

>  <PUBCHEM_SHAPE_VOLUME>  (1) 
120.6

>  <PUBCHEM_COORDINATE_TYPE>  (1) 
2
5
10

$$$$
