23240
     RDKit          3D

 15 16  0  0  0  0  0  0  0  0999 V2000
   -1.0540    0.8565   -0.7548 O   0  0  0  0  0  0  0  0  0  0  0  0
   -1.1629   -1.3313   -0.1734 N   0  0  0  0  0  0  0  0  0  0  0  0
    3.3900   -0.1992   -0.5763 C   0  0  0  0  0  0  0  0  0  0  0  0
    1.9518   -0.1078   -0.0630 C   0  0  0  0  0  0  0  0  0  0  0  0
    4.3966    0.1344    0.5260 C   0  0  0  0  0  0  0  0  0  0  0  0
    0.9444   -0.4094   -1.1761 C   0  0  0  0  0  0  0  0  0  0  0  0
    5.8320    0.0754    0.0043 C   0  0  0  0  0  0  0  0  0  0  0  0
   -0.4741   -0.3558   -0.6676 C   0  0  0  0  0  0  0  0  0  0  0  0
    6.8341    0.4388    1.0883 C   0  0  0  0  0  0  0  0  0  0  0  0
   -2.2959    0.6195   -0.2391 C   0  0  0  0  0  0  0  0  0  0  0  0
   -2.3589   -0.7200    0.1153 C   0  0  0  0  0  0  0  0  0  0  0  0
   -3.3340    1.5295   -0.0824 C   0  0  0  0  0  0  0  0  0  0  0  0
   -3.5445   -1.2182    0.6743 C   0  0  0  0  0  0  0  0  0  0  0  0
   -4.5096    1.0167    0.4765 C   0  0  0  0  0  0  0  0  0  0  0  0
   -4.6152   -0.3292    0.8481 C   0  0  0  0  0  0  0  0  0  0  0  0
  1  8  1  0
  1 10  1  0
  2  8  2  0
  2 11  1  0
  3  4  1  0
  3  5  1  0
  4  6  1  0
  5  7  1  0
  6  8  1  0
  7  9  1  0
 10 11  2  0
 10 12  1  0
 11 13  1  0
 12 14  2  0
 13 15  2  0
 14 15  1  0
M  END
>  <PUBCHEM_COMPOUND_CID>  (1) 
23240

>  <PUBCHEM_CONFORMER_RMSD>  (1) 
0.6

>  <PUBCHEM_CONFORMER_DIVERSEORDER>  (1) 
1
63
47
69
40
4
18
35
13
25
41
68
15
7
30
74
37
28
75
45
73
2
22
23
12
70
43
6
10
21
72
36
17
38
39
5
51
44
52
11
14
24
42
54
62
71
32
3
53
49
34
16
67
59
9
58
27
61
56
8
29
46
64
57
33
66
31
55
60
20
65
26
48
50
19

>  <PUBCHEM_MMFF94_PARTIAL_CHARGES>  (1) 
14
1 -0.28
10 0.14
11 0.23
12 -0.15
13 -0.15
14 -0.15
15 -0.15
2 -0.57
29 0.15
30 0.15
31 0.15
32 0.15
6 0.18
8 0.3

>  <PUBCHEM_EFFECTIVE_ROTOR_COUNT>  (1) 
5

>  <PUBCHEM_PHARMACOPHORE_FEATURES>  (1) 
4
1 9 hydrophobe
5 1 2 8 10 11 rings
5 3 4 5 6 7 hydrophobe
6 10 11 12 13 14 15 rings

>  <PUBCHEM_HEAVY_ATOM_COUNT>  (1) 
15

>  <PUBCHEM_ATOM_DEF_STEREO_COUNT>  (1) 
0

>  <PUBCHEM_ATOM_UDEF_STEREO_COUNT>  (1) 
0

>  <PUBCHEM_BOND_DEF_STEREO_COUNT>  (1) 
0

>  <PUBCHEM_BOND_UDEF_STEREO_COUNT>  (1) 
0

>  <PUBCHEM_ISOTOPIC_ATOM_COUNT>  (1) 
0

>  <PUBCHEM_COMPONENT_COUNT>  (1) 
1

>  <PUBCHEM_CACTVS_TAUTO_COUNT>  (1) 
2

>  <PUBCHEM_CONFORMER_ID>  (1) 
00005AC800000001

>  <PUBCHEM_MMFF94_ENERGY>  (1) 
12.8703

>  <PUBCHEM_FEATURE_SELFOVERLAP>  (1) 
20.419

>  <PUBCHEM_SHAPE_FINGERPRINT>  (1) 
100836 57 17132115758367018560
10803635 8 8502659190399013640
10968037 39 8934997079714825114
11315181 36 17822012037985079308
12236239 1 17022907860579756620
12251169 10 18334298677404845655
12507557 5 18202847672911315736
12507560 40 18340208483938151894
12596602 18 17967813860314485704
13214271 11 18272370871567632637
13288520 33 10809345537952653369
13551218 46 16950835917562924290
1420 363 13479133484888499872
14251718 22 9943803392082750168
14455015 7 13695870316171946528
14528608 73 12175615197061743178
14848160 23 12179842810575131576
15242439 84 8430315723369284926
15501527 16 17917709124063181464
15716309 27 16515400764463301448
1813 80 16009037133836993358
200 152 14129057023652787782
20281389 69 17846776313398991544
20374829 77 8142084243252631580
20432913 95 15719391711757528544
204376 136 16988564597564165590
20645477 56 17989485225612174908
20645477 70 16271376201661325926
20767249 213 17203608194389890184
23198884 109 13326855539256531848
23402539 116 18409726283572885295
23402655 69 12607415364234335682
23403322 49 11314024673473398216
23559900 14 18194988260869895126
26918003 58 15791454824596452961
2767999 5 15841546371651524250
2916195 48 17917705816811795720
3004659 81 11527682856216988036
351380 3 15646768999050294568
42 15 17822013107727283262
5104073 3 18265341616037137083

>  <PUBCHEM_SHAPE_MULTIPOLES>  (1) 
297.84
14.04
1.18
0.99
22.63
0.09
0
2.73
5.69
-1.39
0.03
0.31
-0.03
0.61

>  <PUBCHEM_SHAPE_SELFOVERLAP>  (1) 
618.363

>  <PUBCHEM_SHAPE_VOLUME>  (1) 
171.2

>  <PUBCHEM_COORDINATE_TYPE>  (1) 
2
5
10

$$$$
