23247
     RDKit          3D

 16 18  0  0  1  0  0  0  0  0999 V2000
   -0.1428   -1.2041   -1.1688 O   0  0  0  0  0  0  0  0  0  0  0  0
    0.4702    0.5166    0.4060 C   0  0  0  0  0  0  0  0  0  0  0  0
    1.1379    1.7150   -0.3475 C   0  0  0  0  0  0  0  0  0  0  0  0
    1.8364   -0.1012    0.4356 C   0  0  0  0  0  0  0  0  0  0  0  0
    2.4226    0.9510   -0.2255 C   0  0  0  0  0  0  0  0  0  0  0  0
   -0.5317   -0.3576   -0.3674 C   0  0  0  0  0  0  0  0  0  0  0  0
    2.5563   -1.1984    0.8461 C   0  0  0  0  0  0  0  0  0  0  0  0
    3.7660    0.9725   -0.5181 C   0  0  0  0  0  0  0  0  0  0  0  0
   -1.9911   -0.1673   -0.1332 C   0  0  0  0  0  0  0  0  0  0  0  0
    3.9248   -1.2067    0.5638 C   0  0  0  0  0  0  0  0  0  0  0  0
    4.5258   -0.1282   -0.1139 C   0  0  0  0  0  0  0  0  0  0  0  0
   -2.4465    1.0829    0.2221 C   0  0  0  0  0  0  0  0  0  0  0  0
   -2.8309   -1.2488   -0.2802 C   0  0  0  0  0  0  0  0  0  0  0  0
   -3.8125    1.2610    0.4416 C   0  0  0  0  0  0  0  0  0  0  0  0
   -4.1968   -1.0708   -0.0607 C   0  0  0  0  0  0  0  0  0  0  0  0
   -4.6876    0.1840    0.3001 C   0  0  0  0  0  0  0  0  0  0  0  0
  1  6  2  0
  2  3  1  0
  2  4  1  0
  2  6  1  0
  3  5  1  0
  4  5  2  0
  4  7  1  0
  5  8  1  0
  6  9  1  0
  7 10  2  0
  8 11  2  0
  9 12  2  0
  9 13  1  0
 10 11  1  0
 12 14  1  0
 13 15  2  0
 14 16  2  0
 15 16  1  0
M  END
>  <PUBCHEM_COMPOUND_CID>  (1) 
23247

>  <PUBCHEM_CONFORMER_RMSD>  (1) 
0.6

>  <PUBCHEM_CONFORMER_DIVERSEORDER>  (1) 
2
14
3
1
13
11
12
4
10
16
9
15
8
18
17
7
5
6

>  <PUBCHEM_MMFF94_PARTIAL_CHARGES>  (1) 
25
1 -0.57
10 -0.15
11 -0.15
12 -0.15
13 -0.15
14 -0.15
15 -0.15
16 -0.15
2 0.16
20 0.15
21 0.15
22 0.15
23 0.15
24 0.15
25 0.15
26 0.15
27 0.15
28 0.15
3 0.11
4 -0.11
5 -0.11
6 0.43
7 -0.15
8 -0.15
9 0.09

>  <PUBCHEM_EFFECTIVE_ROTOR_COUNT>  (1) 
2.4

>  <PUBCHEM_PHARMACOPHORE_FEATURES>  (1) 
4
1 1 acceptor
4 2 3 4 5 rings
6 4 5 7 8 10 11 rings
6 9 12 13 14 15 16 rings

>  <PUBCHEM_HEAVY_ATOM_COUNT>  (1) 
16

>  <PUBCHEM_ATOM_DEF_STEREO_COUNT>  (1) 
0

>  <PUBCHEM_ATOM_UDEF_STEREO_COUNT>  (1) 
1

>  <PUBCHEM_BOND_DEF_STEREO_COUNT>  (1) 
0

>  <PUBCHEM_BOND_UDEF_STEREO_COUNT>  (1) 
0

>  <PUBCHEM_ISOTOPIC_ATOM_COUNT>  (1) 
0

>  <PUBCHEM_COMPONENT_COUNT>  (1) 
1

>  <PUBCHEM_CACTVS_TAUTO_COUNT>  (1) 
2

>  <PUBCHEM_CONFORMER_ID>  (1) 
00005ACF00000002

>  <PUBCHEM_MMFF94_ENERGY>  (1) 
49.0744

>  <PUBCHEM_FEATURE_SELFOVERLAP>  (1) 
20.546

>  <PUBCHEM_SHAPE_FINGERPRINT>  (1) 
10062212 137 18272083907633455319
10616163 171 18339364179230674343
11471102 20 18040997354179790092
12107183 9 17759800338782782761
12236239 1 18411983559596395224
12251169 10 18410012130815590975
12346177 29 16630232701831609839
12670546 56 18412537734520278017
128620 24 11386369231376938067
13167823 11 18409166619026903971
13675066 3 17846775204616953226
13760787 19 18408888451016723126
14004511 7 18273496762758004849
14144814 61 18410853265463209641
14341114 176 18261683640041604723
15196674 1 18410573985151470649
15375462 189 18113611249308597010
15442244 35 18337108969122752680
17804303 29 18202001044900103625
17834072 33 18334295400355374070
1813 80 17531254898519471550
18186145 218 17530960285095182266
19422 9 18335421274508204642
200 152 18341323470797052559
20233049 118 17917993880004795784
20279233 1 15769776862006924661
20281475 54 18333723620076072098
20645477 70 18259981548549715034
21267235 1 18409738356346243322
2255824 54 18114183077144002524
22646028 1 18411696599687926171
23402539 116 16988838367807461429
23402655 69 18260265226617652252
23463225 33 18410855447248560741
23559900 14 18341887536714354040
42 15 18409730651143031882
4214541 1 18409448068428983089
465052 167 18339930419350350215
474 4 17678740265786396084
4990 188 18273224088306388470
5104073 3 18411136956637790641
522135 26 18259703398040727938
542803 24 13830133905521477579
573450 72 18341889675976968707
77779 3 18335422374093691977
8272917 22 18335705987890724266
83771 10 17967809423248888268
9709674 26 18410300224116079771
9981440 41 17328019287867111504

>  <PUBCHEM_SHAPE_MULTIPOLES>  (1) 
323.4
9.5
1.54
0.82
2.13
0.11
0.03
-0.75
-0.73
-0.06
0.02
-0.14
-0.11
-0.82

>  <PUBCHEM_SHAPE_SELFOVERLAP>  (1) 
716.561

>  <PUBCHEM_SHAPE_VOLUME>  (1) 
174.3

>  <PUBCHEM_COORDINATE_TYPE>  (1) 
2
5
10

$$$$
