23243
     RDKit          3D

 18 19  0  0  0  0  0  0  0  0999 V2000
   -7.4345   -0.9403    0.0869 Cl  0  0  0  0  0  0  0  0  0  0  0  0
    7.4344   -0.9403   -0.0870 Cl  0  0  0  0  0  0  0  0  0  0  0  0
   -3.6056    0.2758   -0.2079 N   0  0  0  0  0  0  0  0  0  0  0  0
    3.6056    0.2758    0.2080 N   0  0  0  0  0  0  0  0  0  0  0  0
   -0.7134    0.2601    0.2710 C   0  0  0  0  0  0  0  0  0  0  0  0
    0.7133    0.2602   -0.2710 C   0  0  0  0  0  0  0  0  0  0  0  0
   -1.4774   -0.9858   -0.1894 C   0  0  0  0  0  0  0  0  0  0  0  0
   -1.4682    1.5207   -0.1644 C   0  0  0  0  0  0  0  0  0  0  0  0
    1.4775   -0.9859    0.1894 C   0  0  0  0  0  0  0  0  0  0  0  0
    1.4681    1.5207    0.1644 C   0  0  0  0  0  0  0  0  0  0  0  0
   -2.9375   -0.9434    0.2665 C   0  0  0  0  0  0  0  0  0  0  0  0
   -2.9283    1.4801    0.2912 C   0  0  0  0  0  0  0  0  0  0  0  0
    2.9376   -0.9434   -0.2665 C   0  0  0  0  0  0  0  0  0  0  0  0
    2.9283    1.4801   -0.2912 C   0  0  0  0  0  0  0  0  0  0  0  0
   -5.0126    0.2770    0.1918 C   0  0  0  0  0  0  0  0  0  0  0  0
    5.0127    0.2770   -0.1919 C   0  0  0  0  0  0  0  0  0  0  0  0
   -5.7166   -0.9443   -0.3789 C   0  0  0  0  0  0  0  0  0  0  0  0
    5.7167   -0.9442    0.3789 C   0  0  0  0  0  0  0  0  0  0  0  0
  1 17  1  0
  2 18  1  0
  3 11  1  0
  3 12  1  0
  3 15  1  0
  4 13  1  0
  4 14  1  0
  4 16  1  0
  5  6  1  0
  5  7  1  0
  5  8  1  0
  6  9  1  0
  6 10  1  0
  7 11  1  0
  8 12  1  0
  9 13  1  0
 10 14  1  0
 15 17  1  0
 16 18  1  0
M  END
>  <PUBCHEM_COMPOUND_CID>  (1) 
23243

>  <PUBCHEM_CONFORMER_RMSD>  (1) 
0.8

>  <PUBCHEM_CONFORMER_DIVERSEORDER>  (1) 
1
118
59
47
80
95
100
86
40
76
85
121
18
116
34
89
96
125
117
113
101
57
15
87
46
102
23
12
5
35
13
53
8
17
33
99
104
50
6
92
31
26
106
55
107
11
124
105
72
43
110
84
2
9
112
41
4
65
109
71
3
83
73
75
29
67
19
78
82
30
62
68
20
37
120
58
36
49
52
64
56
48
103
51
32
61
128
7
126
60
10
42
97
45
66
94
98
54
63
127
93
14
108
74
16
44
70
130
79
27
69
90
129
88
81
111
28
123
77
122
131
24
114
119
22
25
115
21
39
38
91

>  <PUBCHEM_MMFF94_PARTIAL_CHARGES>  (1) 
12
1 -0.29
11 0.27
12 0.27
13 0.27
14 0.27
15 0.27
16 0.27
17 0.29
18 0.29
2 -0.29
3 -0.81
4 -0.81

>  <PUBCHEM_EFFECTIVE_ROTOR_COUNT>  (1) 
7.4

>  <PUBCHEM_PHARMACOPHORE_FEATURES>  (1) 
4
1 3 cation
1 4 cation
6 3 5 7 8 11 12 rings
6 4 6 9 10 13 14 rings

>  <PUBCHEM_HEAVY_ATOM_COUNT>  (1) 
18

>  <PUBCHEM_ATOM_DEF_STEREO_COUNT>  (1) 
0

>  <PUBCHEM_ATOM_UDEF_STEREO_COUNT>  (1) 
0

>  <PUBCHEM_BOND_DEF_STEREO_COUNT>  (1) 
0

>  <PUBCHEM_BOND_UDEF_STEREO_COUNT>  (1) 
0

>  <PUBCHEM_ISOTOPIC_ATOM_COUNT>  (1) 
0

>  <PUBCHEM_COMPONENT_COUNT>  (1) 
1

>  <PUBCHEM_CACTVS_TAUTO_COUNT>  (1) 
1

>  <PUBCHEM_CONFORMER_ID>  (1) 
00005ACB00000001

>  <PUBCHEM_MMFF94_ENERGY>  (1) 
21.8515

>  <PUBCHEM_FEATURE_SELFOVERLAP>  (1) 
20.298

>  <PUBCHEM_SHAPE_FINGERPRINT>  (1) 
106641 1 15841263830858363546
10968037 39 18335421274909183303
11315181 36 18343022185538085369
11524674 6 16487254387262217063
12166972 35 18408042930939080612
12236239 1 18410857659156919465
13073987 5 15841282440946486314
13288520 33 18411699876853604533
13533116 47 17241033327936515154
13685833 64 18412545410006559714
13862211 1 18410575084663078913
1420 363 18413673512867706255
14251764 18 18412829096849281712
14251764 46 18412262835027792675
14350574 20 18335137600756281829
15196674 1 18410575088958494437
17834072 33 18341894129900207077
17834076 25 18411981364335408878
200 152 18201718457547988241
20612939 158 17894639179721727756
20621476 38 18339643339800098782
20645477 70 18411702058312219982
20735858 18 17131833166118666454
21150785 3 15791733009596644302
21267235 1 18410860957686307169
22224240 67 15985099721527072879
23035841 295 18341613733277058467
23402539 116 18343015589016866901
23559900 14 18263923413699422001
3004659 81 18114177553388980400
335352 9 18409449210579054318
34797466 226 17203615917369290628
3545911 37 18410292510180197134
4214541 1 18410575054646209353
4325135 7 18413388735530663095
4340502 62 15051734183976290492
465052 167 18341335573302885679
5104073 3 18341054119859034400
542803 24 12973882611120143637
559249 180 18337669724231594217
59682541 35 18131345341452430482
59755656 215 18334577923373306806
59755656 520 17313098687866735763
7495541 125 17632012060955761905
8209 1 18333449845854254398

>  <PUBCHEM_SHAPE_MULTIPOLES>  (1) 
364.21
17.56
1.56
0.67
0
0.4
0
-7.86
0
0
0
0
-0.01
-0.24

>  <PUBCHEM_SHAPE_SELFOVERLAP>  (1) 
700.989

>  <PUBCHEM_SHAPE_VOLUME>  (1) 
222

>  <PUBCHEM_COORDINATE_TYPE>  (1) 
2
5
10

$$$$
