2324
     RDKit          3D

 37 40  0  0  1  0  0  0  0  0999 V2000
    0.0922    2.2205    0.2520 O   0  0  0  0  0  0  0  0  0  0  0  0
   -0.2993    1.7062   -1.9710 O   0  0  0  0  0  0  0  0  0  0  0  0
    3.8218   -0.1575    2.3860 O   0  0  0  0  0  0  0  0  0  0  0  0
    4.9974   -1.6353    1.0469 O   0  0  0  0  0  0  0  0  0  0  0  0
   -1.2545   -4.5516    0.7522 O   0  0  0  0  0  0  0  0  0  0  0  0
   -1.0099   -2.8923    2.1686 O   0  0  0  0  0  0  0  0  0  0  0  0
   -3.5114    1.8221    1.0575 N   0  0  0  0  0  0  0  0  0  0  0  0
    4.0839    1.6740   -1.6900 N   0  0  0  0  0  0  0  0  0  0  0  0
   -0.7435   -3.4528    1.0780 N   0  0  0  0  0  0  0  0  0  0  0  0
   -1.2623    2.6278    0.4143 C   0  0  0  0  0  0  0  0  0  0  0  0
   -1.3400    3.7386    1.4586 C   0  0  0  0  0  0  0  0  0  0  0  0
   -2.1185    1.4239    0.8174 C   0  0  0  0  0  0  0  0  0  0  0  0
   -2.7926    4.0856    1.7585 C   0  0  0  0  0  0  0  0  0  0  0  0
   -3.5987    2.8358    2.1184 C   0  0  0  0  0  0  0  0  0  0  0  0
   -4.3268    0.6558    1.3951 C   0  0  0  0  0  0  0  0  0  0  0  0
    2.2612    0.3302    0.0128 C   0  0  0  0  0  0  0  0  0  0  0  0
    1.8385    1.4061   -0.9925 C   0  0  0  0  0  0  0  0  0  0  0  0
    0.4168    1.7878   -0.9902 C   0  0  0  0  0  0  0  0  0  0  0  0
   -4.6573   -0.1683    0.1792 C   0  0  0  0  0  0  0  0  0  0  0  0
    3.7828    0.1749    0.1167 C   0  0  0  0  0  0  0  0  0  0  0  0
    2.7422    2.0003   -1.8040 C   0  0  0  0  0  0  0  0  0  0  0  0
    1.6363   -0.9858   -0.3525 C   0  0  0  0  0  0  0  0  0  0  0  0
    4.6129    0.8272   -0.7287 C   0  0  0  0  0  0  0  0  0  0  0  0
   -5.8133    0.1018   -0.5532 C   0  0  0  0  0  0  0  0  0  0  0  0
   -3.8079   -1.2022   -0.2148 C   0  0  0  0  0  0  0  0  0  0  0  0
    2.4265    3.0271   -2.8579 C   0  0  0  0  0  0  0  0  0  0  0  0
    0.7448   -1.6027    0.5252 C   0  0  0  0  0  0  0  0  0  0  0  0
    1.9475   -1.5908   -1.5701 C   0  0  0  0  0  0  0  0  0  0  0  0
    4.2858   -0.6627    1.2176 C   0  0  0  0  0  0  0  0  0  0  0  0
    6.1136    0.7154   -0.7368 C   0  0  0  0  0  0  0  0  0  0  0  0
   -6.1197   -0.6617   -1.6796 C   0  0  0  0  0  0  0  0  0  0  0  0
   -4.1143   -1.9657   -1.3412 C   0  0  0  0  0  0  0  0  0  0  0  0
    0.1644   -2.8246    0.1851 C   0  0  0  0  0  0  0  0  0  0  0  0
    1.3670   -2.8128   -1.9102 C   0  0  0  0  0  0  0  0  0  0  0  0
   -5.2702   -1.6955   -2.0737 C   0  0  0  0  0  0  0  0  0  0  0  0
    0.4756   -3.4296   -1.0325 C   0  0  0  0  0  0  0  0  0  0  0  0
    4.2292   -0.8692    3.5592 C   0  0  0  0  0  0  0  0  0  0  0  0
  1 10  1  0
  1 18  1  0
  2 18  2  0
  3 29  1  0
  3 37  1  0
  4 29  2  0
  5  9  1  0
  6  9  2  0
  7 12  1  0
  7 14  1  0
  7 15  1  0
  8 21  1  0
  8 23  1  0
  9 33  1  0
 10 11  1  0
 10 12  1  0
 11 13  1  0
 13 14  1  0
 15 19  1  0
 16 17  1  0
 16 20  1  0
 16 22  1  0
 17 18  1  0
 17 21  2  0
 19 24  2  0
 19 25  1  0
 20 23  2  0
 20 29  1  0
 21 26  1  0
 22 27  2  0
 22 28  1  0
 23 30  1  0
 24 31  1  0
 25 32  2  0
 27 33  1  0
 28 34  2  0
 31 35  2  0
 32 35  1  0
 33 36  2  0
 34 36  1  0
M  CHG  2   5  -1   9   1
M  END
>  <PUBCHEM_COMPOUND_CID>  (1) 
2324

>  <PUBCHEM_CONFORMER_RMSD>  (1) 
1.2

>  <PUBCHEM_CONFORMER_DIVERSEORDER>  (1) 
1
216
83
324
54
251
225
329
135
284
201
265
174
348
190
15
167
142
333
278
185
355
110
272
177
97
183
75
294
332
119
66
353
350
150
302
79
192
287
176
257
305
195
137
139
40
336
351
231
168
244
163
200
164
89
233
352
300
296
134
226
312
155
223
157
283
264
292
282
91
82
16
339
266
154
212
269
347
274
340
256
309
204
45
313
24
193
263
326
286
247
199
288
343
232
187
228
196
27
325
273
214
156
96
86
315
144
115
308
346
117
341
88
50
49
334
102
303
218
105
254
319
304
171
143
261
194
253
111
60
249
203
243
318
322
255
48
271
248
92
62
335
258
354
166
21
188
344
191
77
180
109
56
153
291
5
120
290
3
314
349
178
151
215
108
37
170
141
210
70
72
239
279
63
59
133
6
222
138
327
342
125
230
306
276
94
80
162
245
159
126
42
76
330
36
136
173
268
13
160
240
87
227
181
149
337
311
213
28
299
338
121
275
161
43
289
241
301
321
224
331
95
152
189
58
262
345
145
116
31
217
237
52
270
29
35
165
208
281
130
65
317
103
182
74
252
229
179
295
267
123
234
186
172
64
320
106
175
38
277
316
17
101
260
209
285
198
328
19
57
310
67
53
132
236
206
238
131
113
122
84
235
90
85
259
39
307
12
207
221
147
99
128
73
33
219
81
323
2
242
47
46
211
246
118
32
158
140
297
146
98
41
100
4
14
10
293
112
44
51
129
25
107
11
298
93
78
34
220
205
280
68
169
197
69
55
250
148
20
22
61
114
71
8
7
18
30
184
9
127
124
26
23
202
104

>  <PUBCHEM_MMFF94_PARTIAL_CHARGES>  (1) 
45
1 -0.43
10 0.28
12 0.27
14 0.27
15 0.41
16 0.42
17 -0.12
18 0.71
19 -0.14
2 -0.57
20 -0.12
21 -0.04
22 -0.14
23 -0.04
24 -0.15
25 -0.15
26 0.14
27 -0.15
28 -0.15
29 0.71
3 -0.43
30 0.14
31 -0.15
32 -0.15
33 0.13
34 -0.15
35 -0.15
36 -0.15
37 0.28
4 -0.57
5 -0.52
50 0.4
51 0.15
52 0.15
56 0.15
57 0.15
6 -0.52
61 0.15
62 0.15
63 0.15
64 0.15
65 0.15
7 -0.81
8 -0.6
9 0.91

>  <PUBCHEM_EFFECTIVE_ROTOR_COUNT>  (1) 
10.6

>  <PUBCHEM_PHARMACOPHORE_FEATURES>  (1) 
12
1 2 acceptor
1 4 acceptor
1 5 acceptor
1 5 anion
1 6 acceptor
1 7 cation
1 8 cation
1 8 donor
6 19 24 25 31 32 35 rings
6 22 27 28 33 34 36 rings
6 7 10 11 12 13 14 rings
6 8 16 17 20 21 23 rings

>  <PUBCHEM_HEAVY_ATOM_COUNT>  (1) 
37

>  <PUBCHEM_ATOM_DEF_STEREO_COUNT>  (1) 
0

>  <PUBCHEM_ATOM_UDEF_STEREO_COUNT>  (1) 
2

>  <PUBCHEM_BOND_DEF_STEREO_COUNT>  (1) 
0

>  <PUBCHEM_BOND_UDEF_STEREO_COUNT>  (1) 
0

>  <PUBCHEM_ISOTOPIC_ATOM_COUNT>  (1) 
0

>  <PUBCHEM_COMPONENT_COUNT>  (1) 
1

>  <PUBCHEM_CACTVS_TAUTO_COUNT>  (1) 
3

>  <PUBCHEM_CONFORMER_ID>  (1) 
0000091400000001

>  <PUBCHEM_MMFF94_ENERGY>  (1) 
95.8537

>  <PUBCHEM_FEATURE_SELFOVERLAP>  (1) 
60.978

>  <PUBCHEM_SHAPE_FINGERPRINT>  (1) 
10032420 55 18342453747107349265
11421498 54 18273491265505873287
11513181 2 18128550279277780542
12106331 60 18408613547413724760
12422481 6 18124587592463998298
12788726 201 18341899622778529497
13583140 156 16951138394322790778
13782708 43 16343713118407011772
14068700 675 18200866375039671509
14178342 30 18196372511549175528
15297060 5 18129963246366644618
17138139 8 18198899391655078919
17349148 13 18408325479609583789
17909252 39 17488756574908990270
20028762 73 18341609279016613166
20587220 46 14328333856187011463
20764821 26 18193023549882281723
20775438 99 16475123737883246535
3380486 77 17967800644093356658
392239 28 18130494288891895297
463206 1 18342174531652142791
581034 39 18201723903271263475
6287921 2 18126578811926302463
66674814 147 18334856164777018965

>  <PUBCHEM_SHAPE_MULTIPOLES>  (1) 
711.28
11.95
5.04
2.71
4.46
0.35
0.68
0.03
-1.04
3.08
1
-1.79
-0.46
-3.96

>  <PUBCHEM_SHAPE_SELFOVERLAP>  (1) 
1526.088

>  <PUBCHEM_SHAPE_VOLUME>  (1) 
391.3

>  <PUBCHEM_COORDINATE_TYPE>  (1) 
2
5
10

$$$$
