23256
     RDKit          3D

 10 10  0  0  0  0  0  0  0  0999 V2000
    0.9089   -2.5805   -0.0008 Cl  0  0  0  0  0  0  0  0  0  0  0  0
   -2.3636    0.6372    0.0010 O   0  0  0  0  0  0  0  0  0  0  0  0
   -1.9055   -1.5097   -0.0004 O   0  0  0  0  0  0  0  0  0  0  0  0
    1.7531    1.0569    0.0002 N   0  0  0  0  0  0  0  0  0  0  0  0
    2.1222   -0.2354    0.0008 N   0  0  0  0  0  0  0  0  0  0  0  0
   -1.5260   -0.3064    0.0003 N   0  0  0  0  0  0  0  0  0  0  0  0
    0.4020    1.2441   -0.0001 C   0  0  0  0  0  0  0  0  0  0  0  0
   -0.1512   -0.0130   -0.0003 C   0  0  0  0  0  0  0  0  0  0  0  0
   -0.1945    2.5912   -0.0010 C   0  0  0  0  0  0  0  0  0  0  0  0
    0.9546   -0.8843    0.0005 C   0  0  0  0  0  0  0  0  0  0  0  0
  1 10  1  0
  2  6  1  0
  3  6  2  0
  4  5  1  0
  4  7  1  0
  5 10  2  0
  6  8  1  0
  7  8  2  0
  7  9  1  0
  8 10  1  0
M  CHG  2   2  -1   6   1
M  END
>  <PUBCHEM_COMPOUND_CID>  (1) 
23256

>  <PUBCHEM_CONFORMER_RMSD>  (1) 
0.4

>  <PUBCHEM_CONFORMER_DIVERSEORDER>  (1) 
1

>  <PUBCHEM_MMFF94_PARTIAL_CHARGES>  (1) 
11
1 -0.12
10 0.41
11 0.27
2 -0.52
3 -0.52
4 0.3
5 -0.71
6 0.96
7 -0.33
8 0.08
9 0.18

>  <PUBCHEM_EFFECTIVE_ROTOR_COUNT>  (1) 
1

>  <PUBCHEM_PHARMACOPHORE_FEATURES>  (1) 
6
1 2 acceptor
1 2 anion
1 3 acceptor
1 4 donor
1 5 acceptor
5 4 5 7 8 10 rings

>  <PUBCHEM_HEAVY_ATOM_COUNT>  (1) 
10

>  <PUBCHEM_ATOM_DEF_STEREO_COUNT>  (1) 
0

>  <PUBCHEM_ATOM_UDEF_STEREO_COUNT>  (1) 
0

>  <PUBCHEM_BOND_DEF_STEREO_COUNT>  (1) 
0

>  <PUBCHEM_BOND_UDEF_STEREO_COUNT>  (1) 
0

>  <PUBCHEM_ISOTOPIC_ATOM_COUNT>  (1) 
0

>  <PUBCHEM_COMPONENT_COUNT>  (1) 
1

>  <PUBCHEM_CACTVS_TAUTO_COUNT>  (1) 
2

>  <PUBCHEM_CONFORMER_ID>  (1) 
00005AD800000001

>  <PUBCHEM_MMFF94_ENERGY>  (1) 
11.7163

>  <PUBCHEM_FEATURE_SELFOVERLAP>  (1) 
30.528

>  <PUBCHEM_SHAPE_FINGERPRINT>  (1) 
16945 1 18266459810851511364
18185500 45 18412262835112052299
193761 8 18050285860654264128
21040471 1 18050287269335062880
23552423 10 17829622660152144502
241688 4 17544757824488937944
2748010 2 18338797926367501660
29004967 10 18408609162199250944
5084963 1 17842566420081876435

>  <PUBCHEM_SHAPE_MULTIPOLES>  (1) 
180.98
2.79
2.37
0.57
0.43
0.9
0
-0.31
0
-0.15
0
0.02
-0.03
0

>  <PUBCHEM_SHAPE_SELFOVERLAP>  (1) 
367.88

>  <PUBCHEM_SHAPE_VOLUME>  (1) 
107.9

>  <PUBCHEM_COORDINATE_TYPE>  (1) 
2
5
10

$$$$
