23255
     RDKit          3D

 15 16  0  0  1  0  0  0  0  0999 V2000
    2.5385    0.1724   -0.2425 O   0  0  0  0  0  0  0  0  0  0  0  0
    1.2909    0.1059    0.3906 N   0  0  0  0  0  0  0  0  0  0  0  0
   -0.8787    1.3409    0.5765 C   0  0  0  0  0  0  0  0  0  0  0  0
   -1.3278    0.5560    1.8540 C   0  0  0  0  0  0  0  0  0  0  0  0
   -1.8774    0.5073   -0.1697 C   0  0  0  0  0  0  0  0  0  0  0  0
   -2.2720   -0.1814    0.9518 C   0  0  0  0  0  0  0  0  0  0  0  0
    0.5507    1.1175    0.0542 C   0  0  0  0  0  0  0  0  0  0  0  0
   -2.4238    0.2620   -1.4074 C   0  0  0  0  0  0  0  0  0  0  0  0
   -3.2378   -1.1592    0.9066 C   0  0  0  0  0  0  0  0  0  0  0  0
   -3.4085   -0.7260   -1.4868 C   0  0  0  0  0  0  0  0  0  0  0  0
   -3.8129   -1.4321   -0.3372 C   0  0  0  0  0  0  0  0  0  0  0  0
    1.1280    2.1310   -0.8999 C   0  0  0  0  0  0  0  0  0  0  0  0
    3.3000   -0.9549    0.1622 C   0  0  0  0  0  0  0  0  0  0  0  0
    4.6339   -0.8974   -0.5053 C   0  0  0  0  0  0  0  0  0  0  0  0
    5.7970   -0.8419    0.1529 C   0  0  0  0  0  0  0  0  0  0  0  0
  1  2  1  0
  1 13  1  0
  2  7  2  0
  3  4  1  0
  3  5  1  0
  3  7  1  0
  4  6  1  0
  5  6  2  0
  5  8  1  0
  6  9  1  0
  7 12  1  0
  8 10  2  0
  9 11  2  0
 10 11  1  0
 13 14  1  0
 14 15  2  0
M  END
>  <PUBCHEM_COMPOUND_CID>  (1) 
23255

>  <PUBCHEM_CONFORMER_RMSD>  (1) 
0.6

>  <PUBCHEM_CONFORMER_DIVERSEORDER>  (1) 
2
41
15
48
60
32
30
38
50
34
53
14
18
46
16
54
49
45
4
19
27
20
56
47
62
58
28
25
17
65
5
33
31
1
12
8
23
57
55
3
9
24
43
52
59
42
44
6
13
39
36
51
22
63
10
11
61
21
29
7
64
35
40
26
37

>  <PUBCHEM_MMFF94_PARTIAL_CHARGES>  (1) 
22
1 -0.22
10 -0.15
11 -0.15
12 0.06
13 0.42
14 -0.29
15 -0.3
19 0.15
2 -0.51
20 0.15
21 0.15
25 0.15
28 0.15
29 0.15
3 0.16
30 0.15
4 0.11
5 -0.11
6 -0.11
7 0.34
8 -0.15
9 -0.15

>  <PUBCHEM_EFFECTIVE_ROTOR_COUNT>  (1) 
4.4

>  <PUBCHEM_PHARMACOPHORE_FEATURES>  (1) 
4
1 15 hydrophobe
1 2 acceptor
4 3 4 5 6 rings
6 5 6 8 9 10 11 rings

>  <PUBCHEM_HEAVY_ATOM_COUNT>  (1) 
15

>  <PUBCHEM_ATOM_DEF_STEREO_COUNT>  (1) 
0

>  <PUBCHEM_ATOM_UDEF_STEREO_COUNT>  (1) 
1

>  <PUBCHEM_BOND_DEF_STEREO_COUNT>  (1) 
0

>  <PUBCHEM_BOND_UDEF_STEREO_COUNT>  (1) 
1

>  <PUBCHEM_ISOTOPIC_ATOM_COUNT>  (1) 
0

>  <PUBCHEM_COMPONENT_COUNT>  (1) 
1

>  <PUBCHEM_CACTVS_TAUTO_COUNT>  (1) 
1

>  <PUBCHEM_CONFORMER_ID>  (1) 
00005AD700000002

>  <PUBCHEM_MMFF94_ENERGY>  (1) 
34.8948

>  <PUBCHEM_FEATURE_SELFOVERLAP>  (1) 
20.546

>  <PUBCHEM_SHAPE_FINGERPRINT>  (1) 
11046707 91 18202844340237953910
11127187 94 17603588530057929651
11137873 295 18187087247647928755
12186901 62 14707212136618244801
12251169 10 14548735127248882889
13214271 11 11959729369669891443
14123260 362 11819278853749361526
14251764 38 13768793307618736590
15534591 1 11241975879670654496
17870717 6 17530969051118567722
1813 80 18200890516839618860
18186145 218 17240756333127748901
193927 3 18271816734718635302
19433438 38 17168144524794009242
19489759 90 16370440047613788604
19784866 170 12463581676931342274
19784866 240 18271806860815571319
200 152 18410854365011819114
20112054 13 10735880577594765496
20300324 65 15285362829234367079
20361792 2 18059573650286294989
20645477 56 13479142271795468920
20671657 53 18334861640407023916
20871999 31 17167859751134358461
21650355 55 16128654176205897339
22646028 28 18413673508730981542
23402539 116 18261394400001406042
23403322 49 18260828181045401922
23559900 14 16660646255035612324
27216 239 11455883663752426287
4028521 119 12901544650196868886
57265010 4 15123792881272478951
90316 7 16487265365240479041

>  <PUBCHEM_SHAPE_MULTIPOLES>  (1) 
297.84
9.39
1.62
1.37
14.32
0.48
0.09
-6.22
-1.27
0.03
-0.2
-1.34
0.1
-0.28

>  <PUBCHEM_SHAPE_SELFOVERLAP>  (1) 
620.186

>  <PUBCHEM_SHAPE_VOLUME>  (1) 
171.7

>  <PUBCHEM_COORDINATE_TYPE>  (1) 
2
5
10

$$$$
