23269
     RDKit          3D

 12 13  0  0  1  0  0  0  0  0999 V2000
   -2.9661    0.4142    0.1683 O   0  0  0  0  0  0  0  0  0  0  0  0
   -1.4538    1.8396   -0.7976 O   0  0  0  0  0  0  0  0  0  0  0  0
   -0.8865   -0.5039   -0.4273 C   0  0  0  0  0  0  0  0  0  0  0  0
   -1.5494   -1.3843    0.6167 C   0  0  0  0  0  0  0  0  0  0  0  0
   -2.9974   -0.9777    0.5036 C   0  0  0  0  0  0  0  0  0  0  0  0
    0.5783   -0.2524   -0.1781 C   0  0  0  0  0  0  0  0  0  0  0  0
   -1.7514    0.7306   -0.3810 C   0  0  0  0  0  0  0  0  0  0  0  0
    1.5376   -1.0748   -0.7687 C   0  0  0  0  0  0  0  0  0  0  0  0
    0.9747    0.8027    0.6436 C   0  0  0  0  0  0  0  0  0  0  0  0
    2.8934   -0.8423   -0.5378 C   0  0  0  0  0  0  0  0  0  0  0  0
    2.3306    1.0354    0.8745 C   0  0  0  0  0  0  0  0  0  0  0  0
    3.2899    0.2129    0.2839 C   0  0  0  0  0  0  0  0  0  0  0  0
  1  5  1  0
  1  7  1  0
  2  7  2  0
  3  4  1  0
  3  6  1  0
  3  7  1  0
  4  5  1  0
  6  8  2  0
  6  9  1  0
  8 10  1  0
  9 11  2  0
 10 12  2  0
 11 12  1  0
M  END
>  <PUBCHEM_COMPOUND_CID>  (1) 
23269

>  <PUBCHEM_CONFORMER_RMSD>  (1) 
0.4

>  <PUBCHEM_CONFORMER_DIVERSEORDER>  (1) 
1
4
3
2

>  <PUBCHEM_MMFF94_PARTIAL_CHARGES>  (1) 
16
1 -0.43
10 -0.15
11 -0.15
12 -0.15
18 0.15
19 0.15
2 -0.57
20 0.15
21 0.15
22 0.15
3 0.2
5 0.28
6 -0.14
7 0.66
8 -0.15
9 -0.15

>  <PUBCHEM_EFFECTIVE_ROTOR_COUNT>  (1) 
1.8

>  <PUBCHEM_PHARMACOPHORE_FEATURES>  (1) 
3
1 2 acceptor
5 1 3 4 5 7 rings
6 6 8 9 10 11 12 rings

>  <PUBCHEM_HEAVY_ATOM_COUNT>  (1) 
12

>  <PUBCHEM_ATOM_DEF_STEREO_COUNT>  (1) 
0

>  <PUBCHEM_ATOM_UDEF_STEREO_COUNT>  (1) 
1

>  <PUBCHEM_BOND_DEF_STEREO_COUNT>  (1) 
0

>  <PUBCHEM_BOND_UDEF_STEREO_COUNT>  (1) 
0

>  <PUBCHEM_ISOTOPIC_ATOM_COUNT>  (1) 
0

>  <PUBCHEM_COMPONENT_COUNT>  (1) 
1

>  <PUBCHEM_CACTVS_TAUTO_COUNT>  (1) 
2

>  <PUBCHEM_CONFORMER_ID>  (1) 
00005AE500000001

>  <PUBCHEM_MMFF94_ENERGY>  (1) 
25.1516

>  <PUBCHEM_FEATURE_SELFOVERLAP>  (1) 
15.223

>  <PUBCHEM_SHAPE_FINGERPRINT>  (1) 
10608611 8 18413384332651348176
10857977 72 18261393394546522611
124424 183 18339349761283326830
12696612 119 18339080509504102228
12716758 59 18189334576189805210
12932764 1 18272649056425574406
13380536 127 17458058248884137916
14325111 11 18272369793114142090
15219456 202 18343019990973015328
16945 1 18333447646846712686
17844478 74 18411143545175709097
18175812 5 18341614849430323055
19049666 15 18196092144684303894
19973954 147 18411699885227462604
200 152 17417799665372536567
20201158 50 18343865498092701890
20279233 1 18411979165333265326
20645464 45 18412259536556122027
20715346 28 18342172280361253380
23402539 116 18335407006917257735
23559900 14 18051408475676737470
2748010 2 18343297029322485828
369184 2 17489586779265188171
5084963 1 18409737256807994864
77492 1 15267342920228888830
8809292 202 18409737235644797650

>  <PUBCHEM_SHAPE_MULTIPOLES>  (1) 
235.22
5.08
1.46
0.91
0.31
0.19
0.01
-0.3
0.57
-0.24
-0.1
0.04
0.05
0.87

>  <PUBCHEM_SHAPE_SELFOVERLAP>  (1) 
503.724

>  <PUBCHEM_SHAPE_VOLUME>  (1) 
131.4

>  <PUBCHEM_COORDINATE_TYPE>  (1) 
2
5
10

$$$$
