23262
     RDKit          3D

 22 24  0  0  1  0  0  0  0  0999 V2000
    1.1651   -4.9611    0.8058 Cl  0  0  0  0  0  0  0  0  0  0  0  0
   -0.8514    0.4720   -1.6647 S   0  0  0  0  0  0  0  0  0  0  0  0
    0.9072    1.2121    0.7007 O   0  0  0  0  0  0  0  0  0  0  0  0
    4.3655    1.7030   -0.4394 N   0  0  0  0  0  0  0  0  0  0  0  0
    0.1861    0.1348    1.2928 C   0  0  0  0  0  0  0  0  0  0  0  0
   -1.2164    0.5711    1.7328 C   0  0  0  0  0  0  0  0  0  0  0  0
    0.1775   -1.0863    0.4045 C   0  0  0  0  0  0  0  0  0  0  0  0
   -2.3270    0.8896    0.7469 C   0  0  0  0  0  0  0  0  0  0  0  0
   -0.2881   -1.0437   -0.9194 C   0  0  0  0  0  0  0  0  0  0  0  0
   -2.2751    0.8678   -0.6594 C   0  0  0  0  0  0  0  0  0  0  0  0
    2.2552    0.8499    0.4610 C   0  0  0  0  0  0  0  0  0  0  0  0
    2.9683    2.0245   -0.1897 C   0  0  0  0  0  0  0  0  0  0  0  0
    0.6235   -2.3131    0.9257 C   0  0  0  0  0  0  0  0  0  0  0  0
   -3.5535    1.2491    1.3569 C   0  0  0  0  0  0  0  0  0  0  0  0
   -0.2834   -2.2083   -1.7009 C   0  0  0  0  0  0  0  0  0  0  0  0
   -3.4273    1.2116   -1.3983 C   0  0  0  0  0  0  0  0  0  0  0  0
    0.6186   -3.4687    0.1448 C   0  0  0  0  0  0  0  0  0  0  0  0
    0.1662   -3.4158   -1.1690 C   0  0  0  0  0  0  0  0  0  0  0  0
   -4.6850    1.5789    0.6133 C   0  0  0  0  0  0  0  0  0  0  0  0
   -4.6208    1.5609   -0.7697 C   0  0  0  0  0  0  0  0  0  0  0  0
    5.0455    1.3440    0.8075 C   0  0  0  0  0  0  0  0  0  0  0  0
    5.0494    2.8278   -1.0822 C   0  0  0  0  0  0  0  0  0  0  0  0
  1 17  1  0
  2  9  1  0
  2 10  1  0
  3  5  1  0
  3 11  1  0
  4 12  1  0
  4 21  1  0
  4 22  1  0
  5  6  1  0
  5  7  1  0
  6  8  1  0
  7  9  2  0
  7 13  1  0
  8 10  2  0
  8 14  1  0
  9 15  1  0
 10 16  1  0
 11 12  1  0
 13 17  2  0
 14 19  2  0
 15 18  2  0
 16 20  2  0
 17 18  1  0
 19 20  1  0
M  END
>  <PUBCHEM_COMPOUND_CID>  (1) 
23262

>  <PUBCHEM_CONFORMER_RMSD>  (1) 
0.8

>  <PUBCHEM_CONFORMER_DIVERSEORDER>  (1) 
1
8
17
16
10
3
5
18
4
19
11
7
6
2
12
14
9
20
13
15

>  <PUBCHEM_MMFF94_PARTIAL_CHARGES>  (1) 
29
1 -0.18
10 0.1
11 0.28
12 0.27
13 -0.15
14 -0.15
15 -0.15
16 -0.15
17 0.18
18 -0.15
19 -0.15
2 -0.2
20 -0.15
21 0.27
22 0.27
3 -0.56
30 0.15
31 0.15
32 0.15
33 0.15
34 0.15
35 0.15
36 0.15
4 -0.81
5 0.42
6 0.14
7 -0.14
8 -0.14
9 0.1

>  <PUBCHEM_EFFECTIVE_ROTOR_COUNT>  (1) 
4.6

>  <PUBCHEM_PHARMACOPHORE_FEATURES>  (1) 
5
1 3 acceptor
1 4 cation
6 7 9 13 15 17 18 rings
6 8 10 14 16 19 20 rings
7 2 5 6 7 8 9 10 rings

>  <PUBCHEM_HEAVY_ATOM_COUNT>  (1) 
22

>  <PUBCHEM_ATOM_DEF_STEREO_COUNT>  (1) 
0

>  <PUBCHEM_ATOM_UDEF_STEREO_COUNT>  (1) 
1

>  <PUBCHEM_BOND_DEF_STEREO_COUNT>  (1) 
0

>  <PUBCHEM_BOND_UDEF_STEREO_COUNT>  (1) 
0

>  <PUBCHEM_ISOTOPIC_ATOM_COUNT>  (1) 
0

>  <PUBCHEM_COMPONENT_COUNT>  (1) 
1

>  <PUBCHEM_CACTVS_TAUTO_COUNT>  (1) 
1

>  <PUBCHEM_CONFORMER_ID>  (1) 
00005ADE00000001

>  <PUBCHEM_MMFF94_ENERGY>  (1) 
71.0372

>  <PUBCHEM_FEATURE_SELFOVERLAP>  (1) 
25.384

>  <PUBCHEM_SHAPE_FINGERPRINT>  (1) 
10369192 42 18262534666237094941
105312 117 18339093695349301900
10764073 3 15938913511578834152
107951 10 18341342192364486414
11101153 10 16893148180402502748
11578080 2 17392242500995529889
11823591 26 18340476833352705749
12592029 89 18338231557630694802
12788726 201 17979905339740201798
13134695 92 17758958125782218567
13149001 5 17701534241178290176
133893 2 18053396404549995586
13681431 1 17836926698430611655
14251757 17 14836402540615493136
14840074 17 18050257329688268866
15163728 17 18263104165693752941
15463212 79 18267287897889878648
17980427 23 14129060318409603533
17980427 26 17266994953610395562
1813 80 17481140103286773735
18785283 64 18189611657779215898
18915476 22 18190173495304231653
200 152 11383843666412236120
20197701 30 18341895207662717630
204376 136 18409168822271371133
20600515 1 16688792355771519249
20645476 183 18341610489991272076
20739085 24 17697021544683624563
21120745 212 17181677580228238972
2255824 54 18055632815949909639
22907989 373 17765721604199196220
23366157 5 18122069697623993505
23419403 2 17695679208616259871
23526113 38 11455598838611294123
23557571 272 17332782346700344000
23558518 356 17909255124674884228
23559900 14 16734963215907561719
3729539 64 18194424203437280142
3759504 43 18338802328714378248
394222 165 18271527477108274899
404807 14 14471660251996634452
458136 41 18410855426084986625
474 4 18340768148030386992
53917941 68 18197765799330407784
559249 180 18340485660396105136
58260988 587 18263379009646652969
59755656 520 18340773736115369636
633830 44 18057904488150024988
6669772 16 18412551994397510414
6786 2 18337964466489389646
81228 2 17621021492942743443
81539 233 18410575041855973785

>  <PUBCHEM_SHAPE_MULTIPOLES>  (1) 
447.62
8.11
4.79
1.68
2.14
7.54
0.18
-11.71
0.26
5.08
0.19
-0.65
0.07
-0.91

>  <PUBCHEM_SHAPE_SELFOVERLAP>  (1) 
927.886

>  <PUBCHEM_SHAPE_VOLUME>  (1) 
256.7

>  <PUBCHEM_COORDINATE_TYPE>  (1) 
2
5
10

$$$$
