23271
     RDKit          3D

 20 22  0  0  0  0  0  0  0  0999 V2000
   -2.8136   -2.9909    0.0016 Cl  0  0  0  0  0  0  0  0  0  0  0  0
    2.8136    2.9910    0.0020 Cl  0  0  0  0  0  0  0  0  0  0  0  0
   -0.0942   -2.6688   -0.0027 O   0  0  0  0  0  0  0  0  0  0  0  0
    0.0941    2.6686   -0.0025 O   0  0  0  0  0  0  0  0  0  0  0  0
   -2.4313    2.8773   -0.0006 O   0  0  0  0  0  0  0  0  0  0  0  0
    2.4314   -2.8774   -0.0003 O   0  0  0  0  0  0  0  0  0  0  0  0
   -1.2382    0.7583   -0.0003 C   0  0  0  0  0  0  0  0  0  0  0  0
    1.2382   -0.7584   -0.0003 C   0  0  0  0  0  0  0  0  0  0  0  0
   -1.3050   -0.6365    0.0001 C   0  0  0  0  0  0  0  0  0  0  0  0
    1.3051    0.6365   -0.0001 C   0  0  0  0  0  0  0  0  0  0  0  0
   -0.0692   -1.4458   -0.0005 C   0  0  0  0  0  0  0  0  0  0  0  0
    0.0693    1.4457   -0.0007 C   0  0  0  0  0  0  0  0  0  0  0  0
   -2.4168    1.5139   -0.0001 C   0  0  0  0  0  0  0  0  0  0  0  0
    2.4169   -1.5138    0.0000 C   0  0  0  0  0  0  0  0  0  0  0  0
   -2.5506   -1.2758    0.0006 C   0  0  0  0  0  0  0  0  0  0  0  0
    2.5505    1.2758    0.0006 C   0  0  0  0  0  0  0  0  0  0  0  0
   -3.6560    0.8727    0.0007 C   0  0  0  0  0  0  0  0  0  0  0  0
    3.6560   -0.8727    0.0004 C   0  0  0  0  0  0  0  0  0  0  0  0
   -3.7227   -0.5191    0.0011 C   0  0  0  0  0  0  0  0  0  0  0  0
    3.7226    0.5192    0.0009 C   0  0  0  0  0  0  0  0  0  0  0  0
  1 15  1  0
  2 16  1  0
  3 11  2  0
  4 12  2  0
  5 13  1  0
  6 14  1  0
  7  9  2  0
  7 12  1  0
  7 13  1  0
  8 10  2  0
  8 11  1  0
  8 14  1  0
  9 11  1  0
  9 15  1  0
 10 12  1  0
 10 16  1  0
 13 17  2  0
 14 18  2  0
 15 19  2  0
 16 20  2  0
 17 19  1  0
 18 20  1  0
M  END
>  <PUBCHEM_COMPOUND_CID>  (1) 
23271

>  <PUBCHEM_CONFORMER_RMSD>  (1) 
0.6

>  <PUBCHEM_CONFORMER_DIVERSEORDER>  (1) 
1

>  <PUBCHEM_MMFF94_PARTIAL_CHARGES>  (1) 
26
1 -0.18
10 0.09
11 0.4
12 0.4
13 0.08
14 0.08
15 0.18
16 0.18
17 -0.15
18 -0.15
19 -0.15
2 -0.18
20 -0.15
21 0.15
22 0.15
23 0.15
24 0.15
25 0.45
26 0.45
3 -0.57
4 -0.57
5 -0.53
6 -0.53
7 0.09
8 0.09
9 0.09

>  <PUBCHEM_EFFECTIVE_ROTOR_COUNT>  (1) 
0

>  <PUBCHEM_PHARMACOPHORE_FEATURES>  (1) 
7
1 3 acceptor
1 4 acceptor
1 5 donor
1 6 donor
6 7 8 9 10 11 12 rings
6 7 9 13 15 17 19 rings
6 8 10 14 16 18 20 rings

>  <PUBCHEM_HEAVY_ATOM_COUNT>  (1) 
20

>  <PUBCHEM_ATOM_DEF_STEREO_COUNT>  (1) 
0

>  <PUBCHEM_ATOM_UDEF_STEREO_COUNT>  (1) 
0

>  <PUBCHEM_BOND_DEF_STEREO_COUNT>  (1) 
0

>  <PUBCHEM_BOND_UDEF_STEREO_COUNT>  (1) 
0

>  <PUBCHEM_ISOTOPIC_ATOM_COUNT>  (1) 
0

>  <PUBCHEM_COMPONENT_COUNT>  (1) 
1

>  <PUBCHEM_CACTVS_TAUTO_COUNT>  (1) 
9

>  <PUBCHEM_CONFORMER_ID>  (1) 
00005AE700000001

>  <PUBCHEM_MMFF94_ENERGY>  (1) 
69.8264

>  <PUBCHEM_FEATURE_SELFOVERLAP>  (1) 
35.562

>  <PUBCHEM_SHAPE_FINGERPRINT>  (1) 
10411042 1 17834396004921640870
10608611 8 18410572889993059784
10616163 171 18411703226548462727
10863032 1 18411982481037299433
10967382 1 18338516326694314502
1100329 8 17834394523141144856
11132069 177 18410849971175814432
11578080 2 17241865654276025148
12553582 1 18266742583003615763
13140716 1 18410856568229724560
138480 1 16897646784797271203
14178342 30 18338782477649778128
14223421 5 18410856606889711075
14790565 3 17327756496456820389
15196674 1 18338517572229529605
15442244 35 18266457599001538690
15536298 74 18343019991131283808
16945 1 18338517572229529604
17492 89 18410011069611581170
193761 8 18338799051501207559
19591789 44 17834399299197538262
20510252 161 18126289876580894737
20739085 24 17402642665218229712
20905425 154 18269561700567469574
21267235 1 18410865347153829447
21501502 16 18410856602594737288
221490 88 18337398239723594386
2334 1 18410855477308030983
23366157 5 18113617898318773936
23402539 116 18342166800078163358
23463225 33 18409449154707295988
23558518 356 18260550077433136113
23559900 14 18413384333199760008
238 59 16960655496733142469
2748010 2 18410855451538227327
335352 9 17906170646497329597
34934 24 18410284809351412123
350125 39 18410016537083206776
5104073 3 18338517555049661392
58051976 378 18412823611949237084
7097593 13 17970892385218741738
7364860 26 18412825798356693800
7832392 63 18339641127342756426
8809292 202 18334297595279114147
9709674 26 18412829070668326790

>  <PUBCHEM_SHAPE_MULTIPOLES>  (1) 
391.85
6.48
3.6
0.6
0
0
0
0
0
0
0
0
0
0

>  <PUBCHEM_SHAPE_SELFOVERLAP>  (1) 
873.272

>  <PUBCHEM_SHAPE_VOLUME>  (1) 
207.5

>  <PUBCHEM_COORDINATE_TYPE>  (1) 
2
5
10

$$$$
