23277
     RDKit          3D

 14 15  0  0  0  0  0  0  0  0999 V2000
    3.8547   -1.9048    0.1294 O   0  0  0  0  0  0  0  0  0  0  0  0
   -2.9452   -0.7271    0.0136 N   0  0  0  0  0  0  0  0  0  0  0  0
    1.9450    1.8574   -0.0769 N   0  0  0  0  0  0  0  0  0  0  0  0
    0.6942    0.0120    0.0055 C   0  0  0  0  0  0  0  0  0  0  0  0
    0.6446    1.4058   -0.0648 C   0  0  0  0  0  0  0  0  0  0  0  0
   -1.7281   -0.0110   -0.0129 C   0  0  0  0  0  0  0  0  0  0  0  0
   -0.5159   -0.7092    0.0317 C   0  0  0  0  0  0  0  0  0  0  0  0
    2.0684   -0.3560    0.0351 C   0  0  0  0  0  0  0  0  0  0  0  0
   -0.5596    2.1172   -0.1105 C   0  0  0  0  0  0  0  0  0  0  0  0
   -1.7472    1.3805   -0.0829 C   0  0  0  0  0  0  0  0  0  0  0  0
    2.8127    0.8001   -0.0166 C   0  0  0  0  0  0  0  0  0  0  0  0
   -4.1299   -0.1354    0.6005 C   0  0  0  0  0  0  0  0  0  0  0  0
   -3.0256   -2.0554   -0.5582 C   0  0  0  0  0  0  0  0  0  0  0  0
    2.6319   -1.6742    0.1070 C   0  0  0  0  0  0  0  0  0  0  0  0
  1 14  2  0
  2  6  1  0
  2 12  1  0
  2 13  1  0
  3  5  1  0
  3 11  1  0
  4  5  2  0
  4  7  1  0
  4  8  1  0
  5  9  1  0
  6  7  2  0
  6 10  1  0
  8 11  2  0
  8 14  1  0
  9 10  2  0
M  END
>  <PUBCHEM_COMPOUND_CID>  (1) 
23277

>  <PUBCHEM_CONFORMER_RMSD>  (1) 
0.6

>  <PUBCHEM_CONFORMER_DIVERSEORDER>  (1) 
1
2

>  <PUBCHEM_MMFF94_PARTIAL_CHARGES>  (1) 
19
1 -0.57
10 -0.15
11 -0.3
12 0.37
13 0.37
14 0.6
15 0.15
16 0.15
17 0.15
18 0.27
19 0.15
2 -0.84
26 0.06
3 0.03
5 -0.15
6 0.1
7 -0.15
8 -0.09
9 -0.15

>  <PUBCHEM_EFFECTIVE_ROTOR_COUNT>  (1) 
2

>  <PUBCHEM_PHARMACOPHORE_FEATURES>  (1) 
6
1 1 acceptor
1 2 cation
1 3 cation
1 3 donor
5 3 4 5 8 11 rings
6 4 5 6 7 9 10 rings

>  <PUBCHEM_HEAVY_ATOM_COUNT>  (1) 
14

>  <PUBCHEM_ATOM_DEF_STEREO_COUNT>  (1) 
0

>  <PUBCHEM_ATOM_UDEF_STEREO_COUNT>  (1) 
0

>  <PUBCHEM_BOND_DEF_STEREO_COUNT>  (1) 
0

>  <PUBCHEM_BOND_UDEF_STEREO_COUNT>  (1) 
0

>  <PUBCHEM_ISOTOPIC_ATOM_COUNT>  (1) 
0

>  <PUBCHEM_COMPONENT_COUNT>  (1) 
1

>  <PUBCHEM_CACTVS_TAUTO_COUNT>  (1) 
3

>  <PUBCHEM_CONFORMER_ID>  (1) 
00005AED00000001

>  <PUBCHEM_MMFF94_ENERGY>  (1) 
40.6457

>  <PUBCHEM_FEATURE_SELFOVERLAP>  (1) 
30.537

>  <PUBCHEM_SHAPE_FINGERPRINT>  (1) 
10618630 7 18408886226218161678
10967382 1 18338234993462132590
11471102 20 18408881858600464077
11769659 78 18411976966341632327
11806522 49 18408038520624202918
12032990 46 18334862701379698115
12251169 10 18272092673455822251
12553582 1 18337104566781748466
13296908 3 18334011705270902971
14576447 43 17983004845844152383
15375462 189 18270689799835099891
15442244 35 18412548686850361273
15536298 74 18342457054052208488
16945 1 18265050412906752756
17804303 29 18270685242700725246
18186145 218 17385436635751763635
19422 9 18341897437072757427
20201158 50 18261672700322110315
20281475 54 18411419552880526503
20645477 70 18408878564424260959
20711985 365 18338516331306013845
20871998 184 18128811933080068374
20871998 22 18198911314342250726
21267235 1 18410303488137932131
21501502 16 18410580556710208196
21501925 9 18409719652174885690
22445834 79 18270403926843597827
2334 1 18409729568843142660
23463225 33 18411984671634202783
23552423 10 18260551104194141708
23559900 14 17908132180628863154
2748010 2 18337099082065956292
7364860 26 18341331180126445552
83771 10 18408045086943357370
8809292 202 18260554415508769923

>  <PUBCHEM_SHAPE_MULTIPOLES>  (1) 
272.28
6.1
2.28
0.65
1.54
0.02
0
3.26
0.53
-0.6
-0.19
0.19
0.04
-0.34

>  <PUBCHEM_SHAPE_SELFOVERLAP>  (1) 
588.133

>  <PUBCHEM_SHAPE_VOLUME>  (1) 
152

>  <PUBCHEM_COORDINATE_TYPE>  (1) 
2
5
10

$$$$
