23275
     RDKit          3D

 15 16  0  0  0  0  0  0  0  0999 V2000
    1.4287    2.3536   -0.1750 N   0  0  0  0  0  0  0  0  0  0  0  0
   -2.9589   -1.0076    0.0582 N   0  0  0  0  0  0  0  0  0  0  0  0
    3.4737   -2.3467   -1.0426 N   0  0  0  0  0  0  0  0  0  0  0  0
    0.4820    0.3774    0.2436 C   0  0  0  0  0  0  0  0  0  0  0  0
    0.2270    1.6820   -0.1844 C   0  0  0  0  0  0  0  0  0  0  0  0
    1.8771    0.2903    0.5097 C   0  0  0  0  0  0  0  0  0  0  0  0
   -1.8776   -0.1023   -0.0218 C   0  0  0  0  0  0  0  0  0  0  0  0
   -0.5916   -0.5314    0.3260 C   0  0  0  0  0  0  0  0  0  0  0  0
   -1.0531    2.1248   -0.5357 C   0  0  0  0  0  0  0  0  0  0  0  0
    2.4318    1.5210    0.2433 C   0  0  0  0  0  0  0  0  0  0  0  0
   -2.1025    1.2058   -0.4457 C   0  0  0  0  0  0  0  0  0  0  0  0
    2.6085   -0.9014    0.9854 C   0  0  0  0  0  0  0  0  0  0  0  0
   -4.2948   -0.5284    0.3468 C   0  0  0  0  0  0  0  0  0  0  0  0
   -2.7459   -2.4233   -0.1614 C   0  0  0  0  0  0  0  0  0  0  0  0
    3.0957   -1.7139   -0.1465 C   0  0  0  0  0  0  0  0  0  0  0  0
  1  5  1  0
  1 10  1  0
  2  7  1  0
  2 13  1  0
  2 14  1  0
  3 15  3  0
  4  5  2  0
  4  6  1  0
  4  8  1  0
  5  9  1  0
  6 10  2  0
  6 12  1  0
  7  8  2  0
  7 11  1  0
  9 11  2  0
 12 15  1  0
M  END
>  <PUBCHEM_COMPOUND_CID>  (1) 
23275

>  <PUBCHEM_CONFORMER_RMSD>  (1) 
0.6

>  <PUBCHEM_CONFORMER_DIVERSEORDER>  (1) 
1
6
8
3
7
5
2
4

>  <PUBCHEM_MMFF94_PARTIAL_CHARGES>  (1) 
19
1 0.03
10 -0.3
11 -0.15
12 0.38
13 0.37
14 0.37
15 0.36
16 0.15
17 0.27
18 0.15
19 0.15
2 -0.84
20 0.15
3 -0.56
5 -0.15
6 -0.18
7 0.1
8 -0.15
9 -0.15

>  <PUBCHEM_EFFECTIVE_ROTOR_COUNT>  (1) 
2

>  <PUBCHEM_PHARMACOPHORE_FEATURES>  (1) 
6
1 1 cation
1 1 donor
1 2 cation
1 3 acceptor
5 1 4 5 6 10 rings
6 4 5 7 8 9 11 rings

>  <PUBCHEM_HEAVY_ATOM_COUNT>  (1) 
15

>  <PUBCHEM_ATOM_DEF_STEREO_COUNT>  (1) 
0

>  <PUBCHEM_ATOM_UDEF_STEREO_COUNT>  (1) 
0

>  <PUBCHEM_BOND_DEF_STEREO_COUNT>  (1) 
0

>  <PUBCHEM_BOND_UDEF_STEREO_COUNT>  (1) 
0

>  <PUBCHEM_ISOTOPIC_ATOM_COUNT>  (1) 
0

>  <PUBCHEM_COMPONENT_COUNT>  (1) 
1

>  <PUBCHEM_CACTVS_TAUTO_COUNT>  (1) 
1

>  <PUBCHEM_CONFORMER_ID>  (1) 
00005AEB00000001

>  <PUBCHEM_MMFF94_ENERGY>  (1) 
40.4405

>  <PUBCHEM_FEATURE_SELFOVERLAP>  (1) 
30.537

>  <PUBCHEM_SHAPE_FINGERPRINT>  (1) 
10967382 1 18263640839184203049
11127187 94 18118403947242147702
11543360 7 14129349493941124139
116883 192 18410851032238536333
12032990 46 18408604730062039683
12553582 1 18335978671048521563
14252887 29 18337114578392070739
14790565 3 17474963025809312444
15442244 35 18411703175457144257
16945 1 17974274444072338720
17804303 29 18339927000307988405
17990270 104 18409444804206125088
19141452 34 18272649039541351023
19591789 44 16899340036566561937
20645477 70 18336537335135965943
20871998 22 18411134706438884634
20871999 31 18191032209585302286
21501502 16 18408323284876202696
22213442 358 18411136896993563750
2255824 54 17759242190777260861
2334 1 18334569174503455625
23463225 33 18337388344102821243
23552423 10 18113614590613973712
23557571 272 18341048498485405914
23559900 14 18411970378352852568
2748010 2 18263065682760049412
4416823 128 18411140199485895182
5902787 121 18262787463885208834
7364860 26 18341048631270832360
9709674 26 18263644129240512843

>  <PUBCHEM_SHAPE_MULTIPOLES>  (1) 
293.75
6.12
2.75
0.81
2
0.17
-0.01
4.08
0
-0.85
-0.64
-0.35
0.17
0.6

>  <PUBCHEM_SHAPE_SELFOVERLAP>  (1) 
628.728

>  <PUBCHEM_SHAPE_VOLUME>  (1) 
163.8

>  <PUBCHEM_COORDINATE_TYPE>  (1) 
2
5
10

$$$$
