23276
     RDKit          3D

 16 17  0  0  0  0  0  0  0  0999 V2000
    0.9420    2.7542    0.0427 N   0  0  0  0  0  0  0  0  0  0  0  0
    2.4323   -1.5903    0.1404 N   0  0  0  0  0  0  0  0  0  0  0  0
   -2.8713   -1.2518   -0.0679 N   0  0  0  0  0  0  0  0  0  0  0  0
    0.3309    0.6236   -0.2102 C   0  0  0  0  0  0  0  0  0  0  0  0
    1.7390    0.7276   -0.3870 C   0  0  0  0  0  0  0  0  0  0  0  0
   -0.1445    1.9090    0.0582 C   0  0  0  0  0  0  0  0  0  0  0  0
    2.6715   -0.3771   -0.6893 C   0  0  0  0  0  0  0  0  0  0  0  0
   -0.5877   -0.4440   -0.2530 C   0  0  0  0  0  0  0  0  0  0  0  0
    2.0848    2.0495   -0.2253 C   0  0  0  0  0  0  0  0  0  0  0  0
   -1.9447   -0.1866   -0.0259 C   0  0  0  0  0  0  0  0  0  0  0  0
   -1.4980    2.1812    0.2870 C   0  0  0  0  0  0  0  0  0  0  0  0
   -2.3906    1.1066    0.2396 C   0  0  0  0  0  0  0  0  0  0  0  0
    2.5899   -1.2548    1.5458 C   0  0  0  0  0  0  0  0  0  0  0  0
    3.3510   -2.6417   -0.2624 C   0  0  0  0  0  0  0  0  0  0  0  0
   -4.2797   -1.0063    0.1635 C   0  0  0  0  0  0  0  0  0  0  0  0
   -2.4248   -2.5992   -0.3565 C   0  0  0  0  0  0  0  0  0  0  0  0
  1  6  1  0
  1  9  1  0
  2  7  1  0
  2 13  1  0
  2 14  1  0
  3 10  1  0
  3 15  1  0
  3 16  1  0
  4  5  1  0
  4  6  2  0
  4  8  1  0
  5  7  1  0
  5  9  2  0
  6 11  1  0
  8 10  2  0
 10 12  1  0
 11 12  2  0
M  END
>  <PUBCHEM_COMPOUND_CID>  (1) 
23276

>  <PUBCHEM_CONFORMER_RMSD>  (1) 
0.6

>  <PUBCHEM_CONFORMER_DIVERSEORDER>  (1) 
4
14
3
12
7
1
6
8
2
10
5
11
13
9

>  <PUBCHEM_MMFF94_PARTIAL_CHARGES>  (1) 
20
1 0.03
10 0.1
11 -0.15
12 -0.15
13 0.27
14 0.27
15 0.37
16 0.37
19 0.15
2 -0.81
20 0.15
21 0.27
22 0.15
23 0.15
3 -0.84
5 -0.18
6 -0.15
7 0.45
8 -0.15
9 -0.3

>  <PUBCHEM_EFFECTIVE_ROTOR_COUNT>  (1) 
3

>  <PUBCHEM_PHARMACOPHORE_FEATURES>  (1) 
6
1 1 cation
1 1 donor
1 2 cation
1 3 cation
5 1 4 5 6 9 rings
6 4 6 8 10 11 12 rings

>  <PUBCHEM_HEAVY_ATOM_COUNT>  (1) 
16

>  <PUBCHEM_ATOM_DEF_STEREO_COUNT>  (1) 
0

>  <PUBCHEM_ATOM_UDEF_STEREO_COUNT>  (1) 
0

>  <PUBCHEM_BOND_DEF_STEREO_COUNT>  (1) 
0

>  <PUBCHEM_BOND_UDEF_STEREO_COUNT>  (1) 
0

>  <PUBCHEM_ISOTOPIC_ATOM_COUNT>  (1) 
0

>  <PUBCHEM_COMPONENT_COUNT>  (1) 
1

>  <PUBCHEM_CACTVS_TAUTO_COUNT>  (1) 
1

>  <PUBCHEM_CONFORMER_ID>  (1) 
00005AEC00000004

>  <PUBCHEM_MMFF94_ENERGY>  (1) 
51.2953

>  <PUBCHEM_FEATURE_SELFOVERLAP>  (1) 
30.538

>  <PUBCHEM_SHAPE_FINGERPRINT>  (1) 
10967382 1 18267588090243991663
11578080 2 17532071835965078900
11725454 13 13913755154065545270
12553582 1 18411702097061910119
13140716 1 18269276768105500161
14178342 30 18339068286227384960
1420 336 18336829693037591299
15001771 113 18410014299521088776
15375462 189 18115316574589477314
15442244 35 18412550885989745745
16752209 62 17757827827744410220
16945 1 18266743665214113581
17804303 29 17911519792574292718
19591789 44 16683173838632004311
20291156 8 18337112267657733386
20442098 301 18343580771746795919
20510252 161 17479449041876899144
20559304 39 18411419548390445284
20600515 1 17911525298738580372
20645477 70 18264765627011449479
20871998 184 18057598768235617230
20871998 22 18411698764425276890
21421861 104 18334293205716906553
21501502 16 18412272735201885493
21501925 9 18411691101887226744
21634736 98 18334868194891133974
21650355 55 18049707539223900344
22445834 79 18339932618225457913
2255824 54 18047194330056851412
23184049 29 18410289181701836044
232386 152 18337958861809847382
2334 1 18410576197096765773
23419403 2 17537952109917732356
23463225 33 18412549825069292839
23552423 10 18335427927434093541
23559900 14 17981318994488141630
257057 1 18410285883219700316
2748010 2 18411975832491592756
33824 294 18050285070338161635
34934 24 18126564746198428373
43471831 8 18266174131497807688
58807428 26 17116358364475564649
6338986 31 18340474638666258231
7364860 26 18340768259963352256
74978 22 18410010992333084357
81228 2 18052244103627058840
8199 65 17690560105693918614

>  <PUBCHEM_SHAPE_MULTIPOLES>  (1) 
314.33
5.86
3.24
0.83
2.01
0.03
-0.22
-4.38
-0.23
-0.74
0.05
-0.49
-0.21
-0.48

>  <PUBCHEM_SHAPE_SELFOVERLAP>  (1) 
663.553

>  <PUBCHEM_SHAPE_VOLUME>  (1) 
180.7

>  <PUBCHEM_COORDINATE_TYPE>  (1) 
2
5
10

$$$$
