2327
     RDKit          3D

 18 18  0  0  1  0  0  0  0  0999 V2000
    1.4238   -1.8277    0.5906 O   0  0  0  0  0  0  0  0  0  0  0  0
   -5.4670    0.1872   -1.7279 O   0  0  0  0  0  0  0  0  0  0  0  0
    4.0585   -2.0412   -0.1915 O   0  0  0  0  0  0  0  0  0  0  0  0
   -2.8107   -1.1184   -0.7587 O   0  0  0  0  0  0  0  0  0  0  0  0
    5.5298    0.2437   -0.7193 O   0  0  0  0  0  0  0  0  0  0  0  0
   -0.7707    0.6937   -0.2629 N   0  0  0  0  0  0  0  0  0  0  0  0
   -2.0756    0.8841    0.1607 N   0  0  0  0  0  0  0  0  0  0  0  0
   -4.4400   -0.2558    1.7817 N   0  0  0  0  0  0  0  0  0  0  0  0
    0.1345    0.6931    0.8783 C   0  0  0  0  0  0  0  0  0  0  0  0
    1.5724    0.5547    0.4538 C   0  0  0  0  0  0  0  0  0  0  0  0
   -4.4004    0.2784    0.4225 C   0  0  0  0  0  0  0  0  0  0  0  0
    2.1483   -0.7024    0.3281 C   0  0  0  0  0  0  0  0  0  0  0  0
   -3.0266   -0.0802   -0.1360 C   0  0  0  0  0  0  0  0  0  0  0  0
    2.3055    1.7046    0.1910 C   0  0  0  0  0  0  0  0  0  0  0  0
   -5.5283   -0.3340   -0.4046 C   0  0  0  0  0  0  0  0  0  0  0  0
    3.4815   -0.8119   -0.0674 C   0  0  0  0  0  0  0  0  0  0  0  0
    3.6385    1.5952   -0.2046 C   0  0  0  0  0  0  0  0  0  0  0  0
    4.2265    0.3370   -0.3338 C   0  0  0  0  0  0  0  0  0  0  0  0
  1 12  1  0
  2 15  1  0
  3 16  1  0
  4 13  2  0
  5 18  1  0
  6  7  1  0
  6  9  1  0
  7 13  1  0
  8 11  1  0
  9 10  1  0
 10 12  2  0
 10 14  1  0
 11 13  1  0
 11 15  1  0
 12 16  1  0
 14 17  2  0
 16 18  2  0
 17 18  1  0
M  END
>  <PUBCHEM_COMPOUND_CID>  (1) 
2327

>  <PUBCHEM_CONFORMER_RMSD>  (1) 
0.8

>  <PUBCHEM_CONFORMER_DIVERSEORDER>  (1) 
1
43
26
17
19
82
56
58
46
48
86
89
6
7
54
85
61
95
4
69
15
27
59
13
64
36
45
91
31
55
83
60
22
57
50
11
20
10
80
42
5
2
63
3
75
96
18
14
76
53
92
12
29
8
30
37
72
68
73
52
51
93
25
62
78
32
34
87
66
49
98
38
39
81
65
67
99
90
74
33
97
9
70
84
24
28
79
88
94
21
71
16
47
77
35
23
41
44
40

>  <PUBCHEM_MMFF94_PARTIAL_CHARGES>  (1) 
28
1 -0.53
10 -0.14
11 0.33
12 0.08
13 0.57
14 -0.15
15 0.28
16 0.08
17 -0.15
18 0.08
2 -0.68
22 0.36
23 0.15
24 0.37
27 0.15
28 0.36
29 0.36
3 -0.53
30 0.45
31 0.4
32 0.45
33 0.45
4 -0.57
5 -0.53
6 -0.64
7 -0.42
8 -0.99
9 0.41

>  <PUBCHEM_EFFECTIVE_ROTOR_COUNT>  (1) 
6

>  <PUBCHEM_PHARMACOPHORE_FEATURES>  (1) 
11
1 1 donor
1 2 acceptor
1 2 donor
1 3 donor
1 4 acceptor
1 5 donor
1 6 donor
1 7 donor
1 8 cation
1 8 donor
6 10 12 14 16 17 18 rings

>  <PUBCHEM_HEAVY_ATOM_COUNT>  (1) 
18

>  <PUBCHEM_ATOM_DEF_STEREO_COUNT>  (1) 
0

>  <PUBCHEM_ATOM_UDEF_STEREO_COUNT>  (1) 
1

>  <PUBCHEM_BOND_DEF_STEREO_COUNT>  (1) 
0

>  <PUBCHEM_BOND_UDEF_STEREO_COUNT>  (1) 
0

>  <PUBCHEM_ISOTOPIC_ATOM_COUNT>  (1) 
0

>  <PUBCHEM_COMPONENT_COUNT>  (1) 
1

>  <PUBCHEM_CACTVS_TAUTO_COUNT>  (1) 
38

>  <PUBCHEM_CONFORMER_ID>  (1) 
0000091700000001

>  <PUBCHEM_MMFF94_ENERGY>  (1) 
32.7592

>  <PUBCHEM_FEATURE_SELFOVERLAP>  (1) 
57.327

>  <PUBCHEM_SHAPE_FINGERPRINT>  (1) 
10912923 1 17489872652483647537
11287383 113 17385449850954774320
11471102 20 18409448089792848504
12107183 9 17624427372154716777
12236239 1 17703796911733107488
12507557 5 10303814280904902131
12596602 18 16200430281902424883
128620 24 16225765224740094785
13760787 5 18343304769048764409
13836976 161 18410578409574382462
14573314 32 18040710342990430301
14576447 43 18343866602468788348
15188451 53 14332829531531401421
15242433 33 18342176678291817471
15375358 24 17676202490138578025
15477762 27 18411703158567282256
17834072 33 18131066069593176901
19489759 90 15195571191431226761
200 152 18272369763397719273
20281475 54 18202278117529970099
20645477 70 18410288090806672639
22289505 5 18041270011198765692
23402539 116 15285356249397035203
23402655 69 18408603647530035332
23557571 272 17095234796312070349
23559900 14 18269268122394453096
23596394 208 17968086482899056791
2871803 45 18260544493991455856
29717793 49 17847063276637284517
3060560 45 18334294279964956910
42 15 12031790275064456777
42630746 31 18343297102869939688
465052 167 17846781836083265159
522135 26 18413106165057625864
5281201 14 18113618958653794940
542803 24 12829489238234117277
573450 72 16988846068889181369
77779 3 18411139134423800057

>  <PUBCHEM_SHAPE_MULTIPOLES>  (1) 
326.14
12.91
1.52
1.03
10.16
0.31
0.04
0.99
-2.97
-1.9
0.05
1.36
0.01
-0.16

>  <PUBCHEM_SHAPE_SELFOVERLAP>  (1) 
671.204

>  <PUBCHEM_SHAPE_VOLUME>  (1) 
186.9

>  <PUBCHEM_COORDINATE_TYPE>  (1) 
2
5
10

$$$$
