23282
     RDKit          3D

 13 14  0  0  0  0  0  0  0  0999 V2000
   -2.4034   -0.1810    0.0004 N   0  0  0  0  0  0  0  0  0  0  0  0
    3.0928    0.6984    0.0003 N   0  0  0  0  0  0  0  0  0  0  0  0
   -0.9868    0.1123    0.0012 C   0  0  0  0  0  0  0  0  0  0  0  0
   -3.2201    0.9314   -0.7165 C   0  0  0  0  0  0  0  0  0  0  0  0
   -2.9617   -0.3246    1.4448 C   0  0  0  0  0  0  0  0  0  0  0  0
   -2.8041   -1.5060   -0.7210 C   0  0  0  0  0  0  0  0  0  0  0  0
   -0.0647   -0.9406   -0.0048 C   0  0  0  0  0  0  0  0  0  0  0  0
    1.3135   -0.6473   -0.0047 C   0  0  0  0  0  0  0  0  0  0  0  0
   -0.5560    1.4375    0.0073 C   0  0  0  0  0  0  0  0  0  0  0  0
    1.7161    0.6899    0.0015 C   0  0  0  0  0  0  0  0  0  0  0  0
    0.8058    1.7528    0.0076 C   0  0  0  0  0  0  0  0  0  0  0  0
    2.4957   -1.4394   -0.0096 C   0  0  0  0  0  0  0  0  0  0  0  0
    3.5730   -0.5835   -0.0065 C   0  0  0  0  0  0  0  0  0  0  0  0
  1  3  1  0
  1  4  1  0
  1  5  1  0
  1  6  1  0
  2 10  1  0
  2 13  1  0
  3  7  2  0
  3  9  1  0
  7  8  1  0
  8 10  2  0
  8 12  1  0
  9 11  2  0
 10 11  1  0
 12 13  2  0
M  CHG  1   1   1
M  END
>  <PUBCHEM_COMPOUND_CID>  (1) 
23282

>  <PUBCHEM_CONFORMER_RMSD>  (1) 
0.4

>  <PUBCHEM_CONFORMER_DIVERSEORDER>  (1) 
1
2

>  <PUBCHEM_MMFF94_PARTIAL_CHARGES>  (1) 
18
1 -0.87
10 -0.15
11 -0.15
12 -0.15
13 -0.3
2 0.03
23 0.15
24 0.15
25 0.15
26 0.15
27 0.27
28 0.15
3 0.36
4 0.5
5 0.5
6 0.5
7 -0.15
9 -0.15

>  <PUBCHEM_EFFECTIVE_ROTOR_COUNT>  (1) 
1

>  <PUBCHEM_PHARMACOPHORE_FEATURES>  (1) 
5
1 1 cation
1 2 cation
1 2 donor
5 2 8 10 12 13 rings
6 3 7 8 9 10 11 rings

>  <PUBCHEM_HEAVY_ATOM_COUNT>  (1) 
13

>  <PUBCHEM_ATOM_DEF_STEREO_COUNT>  (1) 
0

>  <PUBCHEM_ATOM_UDEF_STEREO_COUNT>  (1) 
0

>  <PUBCHEM_BOND_DEF_STEREO_COUNT>  (1) 
0

>  <PUBCHEM_BOND_UDEF_STEREO_COUNT>  (1) 
0

>  <PUBCHEM_ISOTOPIC_ATOM_COUNT>  (1) 
0

>  <PUBCHEM_COMPONENT_COUNT>  (1) 
1

>  <PUBCHEM_CACTVS_TAUTO_COUNT>  (1) 
1

>  <PUBCHEM_CONFORMER_ID>  (1) 
00005AF200000001

>  <PUBCHEM_MMFF94_ENERGY>  (1) 
45.4989

>  <PUBCHEM_FEATURE_SELFOVERLAP>  (1) 
25.463

>  <PUBCHEM_SHAPE_FINGERPRINT>  (1) 
10219947 1 18343866601988818430
10608611 8 18334851723158875220
11132069 177 18343013385450561610
11401426 45 18411125931736302708
11471102 20 18410007728083923981
11543360 7 15502672519578030346
11769659 78 18341886407201108998
12032990 46 18409456860195356986
12251169 10 18201730556512974835
124424 183 18114737149051837399
12932764 1 18412549833400764503
13296908 3 18334297552155166323
13571099 22 18341326721443782365
14128692 85 18342737459207529044
14144814 61 18344146994507241395
14325111 11 18410291423648306412
14993402 34 18202842162409921398
15309172 13 18272094885137515979
16945 1 18343867692894706760
17844478 74 17967824855113933521
18186145 218 18131357427099867880
19026448 5 15913327983538023912
193761 8 17546164568312952758
200 152 18059282202062824045
20201158 50 18335699412274376682
20279233 1 18260546723100666011
20281407 28 18412825763743488080
20645477 70 18339636733338486135
23402539 116 18337662054069058070
23402655 69 18411130308107790525
23463225 33 18411136905335656502
23552423 10 18334856164154611021
23559900 14 18339918226475896730
2748010 2 18266737978893347372
3248919 1 17312820506633340871
3312278 4 18408605837862908720
528886 8 18412255121276870795
63268167 104 18413389855994809897
7364860 26 18127406971973799704
81228 2 18118687604242248600
8809292 202 18187089450855719867

>  <PUBCHEM_SHAPE_MULTIPOLES>  (1) 
257.57
5.74
1.64
0.85
0.1
0.18
0.18
-1.12
-0.05
0.03
-0.17
-0.74
-0.09
0.05

>  <PUBCHEM_SHAPE_SELFOVERLAP>  (1) 
548.285

>  <PUBCHEM_SHAPE_VOLUME>  (1) 
147.9

>  <PUBCHEM_COORDINATE_TYPE>  (1) 
2
5
10

$$$$
