23286
     RDKit          3D

  8  8  0  0  1  0  0  0  0  0999 V2000
    1.7485   -1.4803    0.2019 O   0  0  0  0  0  0  0  0  0  0  0  0
    1.8749    1.4037   -0.1841 N   0  0  0  0  0  0  0  0  0  0  0  0
    0.6851    0.6863    0.2829 C   0  0  0  0  0  0  0  0  0  0  0  0
    0.6417   -0.7344   -0.3013 C   0  0  0  0  0  0  0  0  0  0  0  0
   -0.5664    1.4853   -0.0980 C   0  0  0  0  0  0  0  0  0  0  0  0
   -0.6501   -1.4569    0.0881 C   0  0  0  0  0  0  0  0  0  0  0  0
   -1.8445    0.7509    0.3007 C   0  0  0  0  0  0  0  0  0  0  0  0
   -1.8892   -0.6546   -0.2903 C   0  0  0  0  0  0  0  0  0  0  0  0
  1  4  1  0
  2  3  1  0
  3  4  1  0
  3  5  1  0
  4  6  1  0
  5  7  1  0
  6  8  1  0
  7  8  1  0
M  END
>  <PUBCHEM_COMPOUND_CID>  (1) 
23286

>  <PUBCHEM_CONFORMER_RMSD>  (1) 
0.4

>  <PUBCHEM_CONFORMER_DIVERSEORDER>  (1) 
2
6
3
5
1
7
8
4

>  <PUBCHEM_MMFF94_PARTIAL_CHARGES>  (1) 
7
1 -0.68
19 0.36
2 -0.99
20 0.36
21 0.4
3 0.27
4 0.28

>  <PUBCHEM_EFFECTIVE_ROTOR_COUNT>  (1) 
1.2

>  <PUBCHEM_PHARMACOPHORE_FEATURES>  (1) 
5
1 1 acceptor
1 1 donor
1 2 cation
1 2 donor
6 3 4 5 6 7 8 rings

>  <PUBCHEM_HEAVY_ATOM_COUNT>  (1) 
8

>  <PUBCHEM_ATOM_DEF_STEREO_COUNT>  (1) 
0

>  <PUBCHEM_ATOM_UDEF_STEREO_COUNT>  (1) 
2

>  <PUBCHEM_BOND_DEF_STEREO_COUNT>  (1) 
0

>  <PUBCHEM_BOND_UDEF_STEREO_COUNT>  (1) 
0

>  <PUBCHEM_ISOTOPIC_ATOM_COUNT>  (1) 
0

>  <PUBCHEM_COMPONENT_COUNT>  (1) 
1

>  <PUBCHEM_CACTVS_TAUTO_COUNT>  (1) 
1

>  <PUBCHEM_CONFORMER_ID>  (1) 
00005AF600000002

>  <PUBCHEM_MMFF94_ENERGY>  (1) 
2.1423

>  <PUBCHEM_FEATURE_SELFOVERLAP>  (1) 
25.373

>  <PUBCHEM_SHAPE_FINGERPRINT>  (1) 
16714656 1 17978797040313516756
18185500 45 18196649811885895519
21040471 1 18339923817647648737
23552423 10 18334859432746159478
241688 4 18337950087017523297
29004967 10 18115876363494473889
5084963 1 18200867358159440163

>  <PUBCHEM_SHAPE_MULTIPOLES>  (1) 
153.79
2.38
1.85
0.65
0.02
0.06
0
-0.09
0.01
0.34
-0.01
-0.05
0
-0.15

>  <PUBCHEM_SHAPE_SELFOVERLAP>  (1) 
295.554

>  <PUBCHEM_SHAPE_VOLUME>  (1) 
93.3

>  <PUBCHEM_COORDINATE_TYPE>  (1) 
2
5
10

$$$$
