23285
     RDKit          3D

 10 10  0  0  0  0  0  0  0  0999 V2000
   -2.9890    1.6234   -0.2053 Cl  0  0  0  0  0  0  0  0  0  0  0  0
    1.9671    0.3099   -0.0080 N   0  0  0  0  0  0  0  0  0  0  0  0
    0.6163   -0.0952    0.0191 C   0  0  0  0  0  0  0  0  0  0  0  0
   -0.3997    0.8540   -0.0929 C   0  0  0  0  0  0  0  0  0  0  0  0
    0.2967   -1.4459    0.1570 C   0  0  0  0  0  0  0  0  0  0  0  0
    2.9882   -0.5751   -0.5320 C   0  0  0  0  0  0  0  0  0  0  0  0
    2.3494    1.6219    0.4750 C   0  0  0  0  0  0  0  0  0  0  0  0
   -1.7352    0.4525   -0.0671 C   0  0  0  0  0  0  0  0  0  0  0  0
   -1.0388   -1.8474    0.1831 C   0  0  0  0  0  0  0  0  0  0  0  0
   -2.0548   -0.8982    0.0711 C   0  0  0  0  0  0  0  0  0  0  0  0
  1  8  1  0
  2  3  1  0
  2  6  1  0
  2  7  1  0
  3  4  2  0
  3  5  1  0
  4  8  1  0
  5  9  2  0
  8 10  2  0
  9 10  1  0
M  END
>  <PUBCHEM_COMPOUND_CID>  (1) 
23285

>  <PUBCHEM_CONFORMER_RMSD>  (1) 
0.4

>  <PUBCHEM_CONFORMER_DIVERSEORDER>  (1) 
1
2

>  <PUBCHEM_MMFF94_PARTIAL_CHARGES>  (1) 
14
1 -0.18
10 -0.15
11 0.15
12 0.15
19 0.15
2 -0.84
20 0.15
3 0.1
4 -0.15
5 -0.15
6 0.37
7 0.37
8 0.18
9 -0.15

>  <PUBCHEM_EFFECTIVE_ROTOR_COUNT>  (1) 
1

>  <PUBCHEM_PHARMACOPHORE_FEATURES>  (1) 
2
1 2 cation
6 3 4 5 8 9 10 rings

>  <PUBCHEM_HEAVY_ATOM_COUNT>  (1) 
10

>  <PUBCHEM_ATOM_DEF_STEREO_COUNT>  (1) 
0

>  <PUBCHEM_ATOM_UDEF_STEREO_COUNT>  (1) 
0

>  <PUBCHEM_BOND_DEF_STEREO_COUNT>  (1) 
0

>  <PUBCHEM_BOND_UDEF_STEREO_COUNT>  (1) 
0

>  <PUBCHEM_ISOTOPIC_ATOM_COUNT>  (1) 
0

>  <PUBCHEM_COMPONENT_COUNT>  (1) 
1

>  <PUBCHEM_CACTVS_TAUTO_COUNT>  (1) 
1

>  <PUBCHEM_CONFORMER_ID>  (1) 
00005AF500000001

>  <PUBCHEM_MMFF94_ENERGY>  (1) 
37.7796

>  <PUBCHEM_FEATURE_SELFOVERLAP>  (1) 
10.148

>  <PUBCHEM_SHAPE_FINGERPRINT>  (1) 
10608611 8 18341329010962414664
12716758 59 18410574006652752458
12932764 1 17773884271107021542
13380535 76 18337387120026904183
14325111 11 18410573993773229132
14390081 3 18411976957910076689
15775835 57 18187931629575724644
16945 1 18341331072214011027
19973954 147 18339363092582336208
20645464 45 18342733061488091632
20653085 51 18410019831328098913
20871998 184 18126573554992067527
21028194 46 18409172082304256749
21040471 1 18408040693318401063
23235685 24 18336261232857147045
23402655 69 18123173621043630101
23552423 10 18188211025957225022
23559900 14 18342183220650700742
241688 4 17833828657258649875
2748010 2 18410857697816705109
369184 2 18201158870269064626
5084963 1 18271529783399860466
53812653 166 18338797805987176056
6333449 129 18410852191863888357

>  <PUBCHEM_SHAPE_MULTIPOLES>  (1) 
202.68
4.27
1.95
0.68
0.77
0.12
0.01
-1.65
0.4
-0.5
-0.17
0.1
-0.02
0.42

>  <PUBCHEM_SHAPE_SELFOVERLAP>  (1) 
403.604

>  <PUBCHEM_SHAPE_VOLUME>  (1) 
122.2

>  <PUBCHEM_COORDINATE_TYPE>  (1) 
2
5
10

$$$$
