2328
     RDKit          3D

 16 17  0  0  0  0  0  0  0  0999 V2000
    1.0158    1.6193   -0.2026 S   0  0  0  0  0  0  0  0  0  0  0  0
    0.8330    1.7840   -1.6331 O   0  0  0  0  0  0  0  0  0  0  0  0
    1.9584    2.4574    0.5151 O   0  0  0  0  0  0  0  0  0  0  0  0
    0.5984   -2.2567    0.1374 O   0  0  0  0  0  0  0  0  0  0  0  0
    1.3582   -0.0405    0.1122 N   0  0  0  0  0  0  0  0  0  0  0  0
   -0.4943    1.7585    0.5769 N   0  0  0  0  0  0  0  0  0  0  0  0
    2.7896   -0.4333   -0.0425 C   0  0  0  0  0  0  0  0  0  0  0  0
    0.3370   -1.0599    0.1084 C   0  0  0  0  0  0  0  0  0  0  0  0
   -1.0752   -0.5971    0.0687 C   0  0  0  0  0  0  0  0  0  0  0  0
   -1.4505    0.7407    0.2491 C   0  0  0  0  0  0  0  0  0  0  0  0
    2.9011   -1.4926   -1.1293 C   0  0  0  0  0  0  0  0  0  0  0  0
    3.3084   -0.9415    1.2948 C   0  0  0  0  0  0  0  0  0  0  0  0
   -2.0699   -1.5601   -0.1614 C   0  0  0  0  0  0  0  0  0  0  0  0
   -2.8066    1.0915    0.2607 C   0  0  0  0  0  0  0  0  0  0  0  0
   -3.4174   -1.1968   -0.1852 C   0  0  0  0  0  0  0  0  0  0  0  0
   -3.7860    0.1271    0.0310 C   0  0  0  0  0  0  0  0  0  0  0  0
  1  2  2  0
  1  3  2  0
  1  5  1  0
  1  6  1  0
  4  8  2  0
  5  7  1  0
  5  8  1  0
  6 10  1  0
  7 11  1  0
  7 12  1  0
  8  9  1  0
  9 10  2  0
  9 13  1  0
 10 14  1  0
 13 15  2  0
 14 16  2  0
 15 16  1  0
M  END
>  <PUBCHEM_COMPOUND_CID>  (1) 
2328

>  <PUBCHEM_CONFORMER_RMSD>  (1) 
0.6

>  <PUBCHEM_CONFORMER_DIVERSEORDER>  (1) 
1
2
3

>  <PUBCHEM_MMFF94_PARTIAL_CHARGES>  (1) 
19
1 1.58
10 0.2
13 -0.15
14 -0.15
15 -0.15
16 -0.15
18 0.42
2 -0.65
25 0.15
26 0.15
27 0.15
28 0.15
3 -0.65
4 -0.57
5 -0.73
6 -0.76
7 0.36
8 0.72
9 0.09

>  <PUBCHEM_EFFECTIVE_ROTOR_COUNT>  (1) 
1.4

>  <PUBCHEM_PHARMACOPHORE_FEATURES>  (1) 
5
1 4 acceptor
1 6 donor
3 7 11 12 hydrophobe
6 1 5 6 8 9 10 rings
6 9 10 13 14 15 16 rings

>  <PUBCHEM_HEAVY_ATOM_COUNT>  (1) 
16

>  <PUBCHEM_ATOM_DEF_STEREO_COUNT>  (1) 
0

>  <PUBCHEM_ATOM_UDEF_STEREO_COUNT>  (1) 
0

>  <PUBCHEM_BOND_DEF_STEREO_COUNT>  (1) 
0

>  <PUBCHEM_BOND_UDEF_STEREO_COUNT>  (1) 
0

>  <PUBCHEM_ISOTOPIC_ATOM_COUNT>  (1) 
0

>  <PUBCHEM_COMPONENT_COUNT>  (1) 
1

>  <PUBCHEM_CACTVS_TAUTO_COUNT>  (1) 
2

>  <PUBCHEM_CONFORMER_ID>  (1) 
0000091800000001

>  <PUBCHEM_MMFF94_ENERGY>  (1) 
49.0966

>  <PUBCHEM_FEATURE_SELFOVERLAP>  (1) 
25.394

>  <PUBCHEM_SHAPE_FINGERPRINT>  (1) 
10062212 137 18409441480059940435
10465860 71 18268169607372857998
10967382 1 18196090164851930651
11132069 177 18339637828612791906
11578080 2 17459725087559535836
11680986 33 18191028009049232026
12382932 28 18269550546489935571
13140716 1 18410295847733569129
13221675 6 18411140199675890227
13380535 76 18123466352369487112
14181834 199 18262797488027745204
15536298 74 18271807968632244792
15775835 57 18198069268707839073
16945 1 18340205168096564753
17804303 29 18412547582769342584
18186145 218 18113897195541545183
19591789 44 16398332148616634264
20511035 2 18192998333706851766
20559304 39 18341335581882121066
20645477 70 18341044220555580447
21267235 1 18411991234434362987
21501502 16 18339924943255985009
21501925 9 18340757230234044275
2255824 54 18113904909012534974
2334 1 18266742578708278273
23402539 116 18341320116243458694
23419403 2 17046760734441565848
23463225 33 18408601478539701073
23552423 10 18334859475964779715
23557571 272 16988847219629491983
23559900 14 18202003171378342110
2748010 2 18337392772092784097
5104073 3 18339364171246707067
7364860 26 18200035169612480224
7832392 63 18198628722510265897
81228 2 18121228579945390520
90316 7 17971176037754043872

>  <PUBCHEM_SHAPE_MULTIPOLES>  (1) 
305.55
5.64
2.35
0.97
1.53
0.66
0.15
-1.62
-0.36
-0.71
0.13
-0.73
0.08
-0.14

>  <PUBCHEM_SHAPE_SELFOVERLAP>  (1) 
632.483

>  <PUBCHEM_SHAPE_VOLUME>  (1) 
174.4

>  <PUBCHEM_COORDINATE_TYPE>  (1) 
2
5
10

$$$$
