23289
     RDKit          3D

 16 17  0  0  0  0  0  0  0  0999 V2000
   -5.0090    1.9852   -0.1304 Br  0  0  0  0  0  0  0  0  0  0  0  0
   -2.0713    1.7915   -0.0479 O   0  0  0  0  0  0  0  0  0  0  0  0
   -0.8154   -2.5919    0.0550 N   0  0  0  0  0  0  0  0  0  0  0  0
    3.1464    1.2684   -0.0022 N   0  0  0  0  0  0  0  0  0  0  0  0
   -0.1365   -0.4672    0.0133 C   0  0  0  0  0  0  0  0  0  0  0  0
    0.3048   -1.7918    0.0453 C   0  0  0  0  0  0  0  0  0  0  0  0
   -1.5591   -0.5011    0.0042 C   0  0  0  0  0  0  0  0  0  0  0  0
    2.1813    0.2373    0.0141 C   0  0  0  0  0  0  0  0  0  0  0  0
    0.8210    0.5664   -0.0027 C   0  0  0  0  0  0  0  0  0  0  0  0
    1.6612   -2.1357    0.0623 C   0  0  0  0  0  0  0  0  0  0  0  0
   -1.9466   -1.8210    0.0305 C   0  0  0  0  0  0  0  0  0  0  0  0
    2.5927   -1.0936    0.0459 C   0  0  0  0  0  0  0  0  0  0  0  0
   -2.4722    0.6060   -0.0253 C   0  0  0  0  0  0  0  0  0  0  0  0
    4.4408    1.0497   -0.6140 C   0  0  0  0  0  0  0  0  0  0  0  0
    2.8471    2.5603    0.5804 C   0  0  0  0  0  0  0  0  0  0  0  0
   -3.9852    0.3376   -0.0286 C   0  0  0  0  0  0  0  0  0  0  0  0
  1 16  1  0
  2 13  2  0
  3  6  1  0
  3 11  1  0
  4  8  1  0
  4 14  1  0
  4 15  1  0
  5  6  2  0
  5  7  1  0
  5  9  1  0
  6 10  1  0
  7 11  2  0
  7 13  1  0
  8  9  2  0
  8 12  1  0
 10 12  2  0
 13 16  1  0
M  END
>  <PUBCHEM_COMPOUND_CID>  (1) 
23289

>  <PUBCHEM_CONFORMER_RMSD>  (1) 
0.6

>  <PUBCHEM_CONFORMER_DIVERSEORDER>  (1) 
1
22
9
2
8
5
17
23
16
24
15
13
18
7
11
21
4
20
3
10
14
19
6
12

>  <PUBCHEM_MMFF94_PARTIAL_CHARGES>  (1) 
20
1 -0.23
10 -0.15
11 -0.3
12 -0.15
13 0.6
14 0.37
15 0.37
16 0.29
17 0.15
18 0.27
19 0.15
2 -0.57
20 0.15
21 0.15
3 0.03
4 -0.84
6 -0.15
7 -0.09
8 0.1
9 -0.15

>  <PUBCHEM_EFFECTIVE_ROTOR_COUNT>  (1) 
3

>  <PUBCHEM_PHARMACOPHORE_FEATURES>  (1) 
7
1 1 hydrophobe
1 2 acceptor
1 3 cation
1 3 donor
1 4 cation
5 3 5 6 7 11 rings
6 5 6 8 9 10 12 rings

>  <PUBCHEM_HEAVY_ATOM_COUNT>  (1) 
16

>  <PUBCHEM_ATOM_DEF_STEREO_COUNT>  (1) 
0

>  <PUBCHEM_ATOM_UDEF_STEREO_COUNT>  (1) 
0

>  <PUBCHEM_BOND_DEF_STEREO_COUNT>  (1) 
0

>  <PUBCHEM_BOND_UDEF_STEREO_COUNT>  (1) 
0

>  <PUBCHEM_ISOTOPIC_ATOM_COUNT>  (1) 
0

>  <PUBCHEM_COMPONENT_COUNT>  (1) 
1

>  <PUBCHEM_CACTVS_TAUTO_COUNT>  (1) 
5

>  <PUBCHEM_CONFORMER_ID>  (1) 
00005AF900000001

>  <PUBCHEM_MMFF94_ENERGY>  (1) 
48.2689

>  <PUBCHEM_FEATURE_SELFOVERLAP>  (1) 
35.612

>  <PUBCHEM_SHAPE_FINGERPRINT>  (1) 
10411042 1 17257652219101199707
10608611 8 18410855490192932896
10967382 1 18410855430232306232
11471102 20 18267300933194320951
12173636 292 18122623026987835036
122479 349 18334297582504728635
12390115 104 18268168597813138209
12644460 14 18115311068425677282
13140716 1 18335695035824281602
13380535 21 18410018757734182154
13380535 76 18411135848610405142
13583140 156 16515948329427416253
14123255 52 18410853278570001817
14897335 6 18410852174573327319
15196674 1 18409730638759315871
15342168 16 18260552225296923909
15775835 57 18410296916811205684
16945 1 18339360751762051282
1741750 31 18341331175250924386
17834072 32 18336269049698106596
18186145 218 18272093742934424757
20510252 161 17981329207213139362
20645477 56 18410014376793641780
20645477 70 18269552737477254975
21501502 16 18410283735646764710
21524375 3 18409446972869385762
23402539 116 18343293782121624797
23402655 69 18272083860409868741
23557571 272 18199199566276077790
23558518 356 17973159823023480330
23559900 14 18272368629663756262
25 1 18411698777083325526
2748010 2 18337680796705171942
335352 9 18410573942887769214
350125 39 18191870024265548340
449060 62 18339361868727588457
474 4 18339360752120422817
5104073 3 18334859385986693315
6333272 397 18410011001249787241
633830 44 18270962320031845453
7364860 26 18340770334596333446
84936 182 18200306624441260225
9999458 23 18116155467501979271

>  <PUBCHEM_SHAPE_MULTIPOLES>  (1) 
319.38
7.99
2.85
0.66
4.81
0.23
-0.01
-6.58
-0.74
-0.52
0.22
-0.12
-0.1
0.15

>  <PUBCHEM_SHAPE_SELFOVERLAP>  (1) 
668.753

>  <PUBCHEM_SHAPE_VOLUME>  (1) 
188.1

>  <PUBCHEM_COORDINATE_TYPE>  (1) 
2
5
10

$$$$
