23296
     RDKit          3D

 14 13  0  0  0  0  0  0  0  0999 V2000
   -0.0092    2.1179   -0.2803 C   0  0  0  0  0  0  0  0  0  0  0  0
    1.0149    1.4820    0.6827 C   0  0  0  0  0  0  0  0  0  0  0  0
   -0.8970    1.1099   -1.0400 C   0  0  0  0  0  0  0  0  0  0  0  0
    1.9733    0.5025   -0.0015 C   0  0  0  0  0  0  0  0  0  0  0  0
   -1.9008    0.3412   -0.1727 C   0  0  0  0  0  0  0  0  0  0  0  0
    3.0501   -0.0566    0.9377 C   0  0  0  0  0  0  0  0  0  0  0  0
   -2.7832   -0.5716   -1.0325 C   0  0  0  0  0  0  0  0  0  0  0  0
   -0.8605    3.1427    0.4778 C   0  0  0  0  0  0  0  0  0  0  0  0
    4.0055   -1.1004    0.3290 C   0  0  0  0  0  0  0  0  0  0  0  0
   -3.7976   -1.3923   -0.2143 C   0  0  0  0  0  0  0  0  0  0  0  0
    3.1981   -2.2818   -0.2170 C   0  0  0  0  0  0  0  0  0  0  0  0
    4.8803   -0.5161   -0.7803 C   0  0  0  0  0  0  0  0  0  0  0  0
   -3.0579   -2.2668    0.8015 C   0  0  0  0  0  0  0  0  0  0  0  0
   -4.8159   -0.5106    0.5097 C   0  0  0  0  0  0  0  0  0  0  0  0
  1  2  1  0
  1  3  1  0
  1  8  1  0
  2  4  1  0
  3  5  1  0
  4  6  1  0
  5  7  1  0
  6  9  1  0
  7 10  1  0
  9 11  1  0
  9 12  1  0
 10 13  1  0
 10 14  1  0
M  END
>  <PUBCHEM_COMPOUND_CID>  (1) 
23296

>  <PUBCHEM_CONFORMER_RMSD>  (1) 
0.8

>  <PUBCHEM_CONFORMER_DIVERSEORDER>  (1) 
1
10
3
5
9
15
14
18
17
7
8
20
4
16
6
19
12
13
2
11

>  <PUBCHEM_MMFF94_PARTIAL_CHARGES>  (1) 
0

>  <PUBCHEM_EFFECTIVE_ROTOR_COUNT>  (1) 
8

>  <PUBCHEM_PHARMACOPHORE_FEATURES>  (1) 
3
1 8 hydrophobe
3 10 13 14 hydrophobe
3 9 11 12 hydrophobe

>  <PUBCHEM_HEAVY_ATOM_COUNT>  (1) 
14

>  <PUBCHEM_ATOM_DEF_STEREO_COUNT>  (1) 
0

>  <PUBCHEM_ATOM_UDEF_STEREO_COUNT>  (1) 
0

>  <PUBCHEM_BOND_DEF_STEREO_COUNT>  (1) 
0

>  <PUBCHEM_BOND_UDEF_STEREO_COUNT>  (1) 
0

>  <PUBCHEM_ISOTOPIC_ATOM_COUNT>  (1) 
0

>  <PUBCHEM_COMPONENT_COUNT>  (1) 
1

>  <PUBCHEM_CACTVS_TAUTO_COUNT>  (1) 
1

>  <PUBCHEM_CONFORMER_ID>  (1) 
00005B0000000001

>  <PUBCHEM_MMFF94_ENERGY>  (1) 
13.8786

>  <PUBCHEM_FEATURE_SELFOVERLAP>  (1) 
15.223

>  <PUBCHEM_SHAPE_FINGERPRINT>  (1) 
10618630 7 18410569587326479708
11543360 7 15864067676274936438
117890 22 18264210394903411787
12006461 19 18337670918522607515
12077114 3 9871457742930287892
12506688 2 18410009978641356280
12553582 1 18341321258387923638
12596602 18 16128368332799612242
12841375 25 18408884057360274308
13533116 47 18051692445950117915
14123255 352 9871742503599554586
14123255 52 9295291642183554329
14251705 54 18341047411500178854
14251710 61 18409165519441293158
14252887 29 18340759455217215768
14957384 54 10663811945660029974
15352361 1 18410009948608746931
15531645 54 18409725150292369101
15885798 251 18411982464290297801
18915474 69 18186523202768179366
19766037 51 18334013912483250950
20281475 54 18409166627458563493
20291156 8 18410571799018378727
20388580 30 18187365475482015284
20645477 70 18119790650854319751
20671657 53 17240195538894365852
20871998 22 18339635736906118585
20871999 31 17967809414390175541
21354914 83 18267018363069677462
21665056 4 17545595652502647660
23382010 3 12035448354550485237
23557571 272 18340773633115061470
238078 22 18334300876686661260
314173 41 18261110815589273659
314173 85 18343012298475799528
328317 168 8790885177093856283
351380 180 10015586094785838006
43658 37 8790888479849840829
4416823 128 18410290324078721292

>  <PUBCHEM_SHAPE_MULTIPOLES>  (1) 
288.11
9.49
2.94
1.01
1.82
1.24
-0.06
-7.39
0.07
-0.68
0.44
-0.06
0
0.49

>  <PUBCHEM_SHAPE_SELFOVERLAP>  (1) 
519.954

>  <PUBCHEM_SHAPE_VOLUME>  (1) 
188.5

>  <PUBCHEM_COORDINATE_TYPE>  (1) 
2
5
10

$$$$
