23291
     RDKit          3D

 12 11  0  0  0  0  0  0  0  0999 V2000
   -0.0924   -1.0240   -0.8334 S   0  0  0  0  0  0  0  0  0  0  0  0
    0.0921    1.0244   -0.8334 S   0  0  0  0  0  0  0  0  0  0  0  0
   -3.1925   -0.8286   -1.0763 O   0  0  0  0  0  0  0  0  0  0  0  0
    3.1926    0.8287   -1.0763 O   0  0  0  0  0  0  0  0  0  0  0  0
   -3.0367    0.3992    0.8910 N   0  0  0  0  0  0  0  0  0  0  0  0
    3.0368   -0.3994    0.8909 N   0  0  0  0  0  0  0  0  0  0  0  0
   -4.1665    1.1425    0.6154 N   0  0  0  0  0  0  0  0  0  0  0  0
    4.1663   -1.1428    0.6152 N   0  0  0  0  0  0  0  0  0  0  0  0
   -1.3724   -1.2783    0.4187 C   0  0  0  0  0  0  0  0  0  0  0  0
    1.3726    1.2784    0.4190 C   0  0  0  0  0  0  0  0  0  0  0  0
   -2.6294   -0.5624   -0.0155 C   0  0  0  0  0  0  0  0  0  0  0  0
    2.6295    0.5623   -0.0153 C   0  0  0  0  0  0  0  0  0  0  0  0
  1  2  1  0
  1  9  1  0
  2 10  1  0
  3 11  2  0
  4 12  2  0
  5  7  1  0
  5 11  1  0
  6  8  1  0
  6 12  1  0
  9 11  1  0
 10 12  1  0
M  END
>  <PUBCHEM_COMPOUND_CID>  (1) 
23291

>  <PUBCHEM_CONFORMER_RMSD>  (1) 
0.8

>  <PUBCHEM_CONFORMER_DIVERSEORDER>  (1) 
1
37
6
51
63
32
33
59
36
78
88
73
3
95
86
67
31
57
81
101
35
62
27
68
92
7
84
20
50
90
75
69
97
19
12
65
10
15
14
5
41
34
9
43
89
96
60
64
70
38
83
42
22
23
61
55
28
94
30
52
98
54
72
85
87
79
16
39
45
17
66
44
13
56
48
24
47
91
71
53
74
100
93
21
4
80
99
77
82
8
2
76
40
25
58
11
18
29
46
49
26

>  <PUBCHEM_MMFF94_PARTIAL_CHARGES>  (1) 
18
1 -0.23
10 0.29
11 0.57
12 0.57
17 0.37
18 0.37
19 0.36
2 -0.23
20 0.36
21 0.36
22 0.36
3 -0.57
4 -0.57
5 -0.42
6 -0.42
7 -0.73
8 -0.73
9 0.29

>  <PUBCHEM_EFFECTIVE_ROTOR_COUNT>  (1) 
7

>  <PUBCHEM_PHARMACOPHORE_FEATURES>  (1) 
7
1 3 acceptor
1 4 acceptor
1 5 donor
1 6 donor
1 7 donor
1 8 donor
4 1 2 9 10 hydrophobe

>  <PUBCHEM_HEAVY_ATOM_COUNT>  (1) 
12

>  <PUBCHEM_ATOM_DEF_STEREO_COUNT>  (1) 
0

>  <PUBCHEM_ATOM_UDEF_STEREO_COUNT>  (1) 
0

>  <PUBCHEM_BOND_DEF_STEREO_COUNT>  (1) 
0

>  <PUBCHEM_BOND_UDEF_STEREO_COUNT>  (1) 
0

>  <PUBCHEM_ISOTOPIC_ATOM_COUNT>  (1) 
0

>  <PUBCHEM_COMPONENT_COUNT>  (1) 
1

>  <PUBCHEM_CACTVS_TAUTO_COUNT>  (1) 
3

>  <PUBCHEM_CONFORMER_ID>  (1) 
00005AFB00000001

>  <PUBCHEM_MMFF94_ENERGY>  (1) 
9.0956

>  <PUBCHEM_FEATURE_SELFOVERLAP>  (1) 
38.546

>  <PUBCHEM_SHAPE_FINGERPRINT>  (1) 
10130415 120 18335416876820396296
12162725 195 18130224960198468733
124424 183 18407755932844709293
13296908 3 15719385165821154964
14144814 61 18410855507372802088
15775835 57 18413114969735379481
17834069 15 18335419058479296245
18186145 218 16153705435989891192
18511873 20 18410855468718096616
190213 19 15719387356249201276
19422 9 18187366575051489530
20645477 70 17603851317600644086
20711983 171 18343305885265507717
207724 885 18040436637303433693
21293036 1 11097861778601033710
23402539 116 17489297578254436677
23557571 272 16486710155181984957
305870 269 18342183228549759431
328317 168 11023810795889213786
528716 315 11746933183522774793
57812782 119 15769779069377378617
59345606 63 18409730651169431779

>  <PUBCHEM_SHAPE_MULTIPOLES>  (1) 
222.99
7.28
1.47
1.09
0
0
-0.14
0
1.53
0
0.02
0
0
-0.85

>  <PUBCHEM_SHAPE_SELFOVERLAP>  (1) 
396.928

>  <PUBCHEM_SHAPE_VOLUME>  (1) 
146.5

>  <PUBCHEM_COORDINATE_TYPE>  (1) 
2
5
10

$$$$
