23305
     RDKit          3D

 10 11  0  0  1  0  0  0  0  0999 V2000
   -1.2112   -1.1445   -0.1137 N   0  0  0  0  0  0  0  0  0  0  0  0
   -2.0776    0.0027   -0.3807 C   0  0  0  0  0  0  0  0  0  0  0  0
   -1.2389    1.2762   -0.0918 C   0  0  0  0  0  0  0  0  0  0  0  0
    0.1494    0.7240   -0.0560 C   0  0  0  0  0  0  0  0  0  0  0  0
    0.0968   -0.6711   -0.0796 C   0  0  0  0  0  0  0  0  0  0  0  0
   -3.3311   -0.0750    0.4758 C   0  0  0  0  0  0  0  0  0  0  0  0
    1.3515    1.4039    0.0305 C   0  0  0  0  0  0  0  0  0  0  0  0
    1.2558   -1.4210    0.0175 C   0  0  0  0  0  0  0  0  0  0  0  0
    2.5264    0.6538    0.1006 C   0  0  0  0  0  0  0  0  0  0  0  0
    2.4788   -0.7492    0.0974 C   0  0  0  0  0  0  0  0  0  0  0  0
  1  2  1  0
  1  5  1  0
  2  3  1  0
  2  6  1  0
  3  4  1  0
  4  5  2  0
  4  7  1  0
  5  8  1  0
  7  9  2  0
  8 10  2  0
  9 10  1  0
M  END
>  <PUBCHEM_COMPOUND_CID>  (1) 
23305

>  <PUBCHEM_CONFORMER_RMSD>  (1) 
0.4

>  <PUBCHEM_CONFORMER_DIVERSEORDER>  (1) 
2
1

>  <PUBCHEM_MMFF94_PARTIAL_CHARGES>  (1) 
14
1 -0.87
10 -0.15
14 0.4
18 0.15
19 0.15
2 0.37
20 0.15
21 0.15
3 0.14
4 -0.14
5 0.1
7 -0.15
8 -0.15
9 -0.15

>  <PUBCHEM_EFFECTIVE_ROTOR_COUNT>  (1) 
0.6

>  <PUBCHEM_PHARMACOPHORE_FEATURES>  (1) 
4
1 1 cation
1 1 donor
5 1 2 3 4 5 rings
6 4 5 7 8 9 10 rings

>  <PUBCHEM_HEAVY_ATOM_COUNT>  (1) 
10

>  <PUBCHEM_ATOM_DEF_STEREO_COUNT>  (1) 
0

>  <PUBCHEM_ATOM_UDEF_STEREO_COUNT>  (1) 
1

>  <PUBCHEM_BOND_DEF_STEREO_COUNT>  (1) 
0

>  <PUBCHEM_BOND_UDEF_STEREO_COUNT>  (1) 
0

>  <PUBCHEM_ISOTOPIC_ATOM_COUNT>  (1) 
0

>  <PUBCHEM_COMPONENT_COUNT>  (1) 
1

>  <PUBCHEM_CACTVS_TAUTO_COUNT>  (1) 
1

>  <PUBCHEM_CONFORMER_ID>  (1) 
00005B0900000002

>  <PUBCHEM_MMFF94_ENERGY>  (1) 
35.5174

>  <PUBCHEM_FEATURE_SELFOVERLAP>  (1) 
20.387

>  <PUBCHEM_SHAPE_FINGERPRINT>  (1) 
10857977 72 18113899390100801121
12032990 46 18338804403373720054
12897270 3 18409445886274159140
14325111 11 18410855468997866117
16945 1 18411131446215815524
17844478 74 18041005033465335789
193761 8 17402330369550252198
20201158 50 18335419054147503115
20871998 22 18054794975099329294
21040471 1 18194680599624785604
23235685 24 18337104661333780236
23402655 69 18196071289114789285
23552423 10 18333730251500049038
2748010 2 18122900928351308180
29004967 10 18260831492301371040
369184 2 18410849958301442377
5084963 1 18342454824631943984
528886 8 18339919411021622762

>  <PUBCHEM_SHAPE_MULTIPOLES>  (1) 
200.81
4.09
1.49
0.65
1.65
0.05
-0.01
-0.15
-0.47
-0.45
0.01
0.1
0
0.03

>  <PUBCHEM_SHAPE_SELFOVERLAP>  (1) 
429.642

>  <PUBCHEM_SHAPE_VOLUME>  (1) 
113.2

>  <PUBCHEM_COORDINATE_TYPE>  (1) 
2
5
10

$$$$
