2330
     RDKit          3D

 23 23  0  0  0  0  0  0  0  0999 V2000
    4.3747   -1.6273    0.0517 N   0  0  0  0  0  0  0  0  0  0  0  0
    3.2601   -0.8756   -0.5711 C   0  0  0  0  0  0  0  0  0  0  0  0
    1.9188   -1.3531   -0.0285 C   0  0  0  0  0  0  0  0  0  0  0  0
    5.7283   -1.1583   -0.5020 C   0  0  0  0  0  0  0  0  0  0  0  0
    0.7232   -0.5816   -0.5946 C   0  0  0  0  0  0  0  0  0  0  0  0
    4.2430   -3.1319   -0.2265 C   0  0  0  0  0  0  0  0  0  0  0  0
    4.3885   -1.4250    1.5741 C   0  0  0  0  0  0  0  0  0  0  0  0
   -0.5882   -1.0494    0.0409 C   0  0  0  0  0  0  0  0  0  0  0  0
   -1.7805   -0.2531   -0.4922 C   0  0  0  0  0  0  0  0  0  0  0  0
   -3.0950   -0.7442    0.1185 C   0  0  0  0  0  0  0  0  0  0  0  0
    6.0105    0.2876   -0.2180 C   0  0  0  0  0  0  0  0  0  0  0  0
   -4.2824    0.0749   -0.3906 C   0  0  0  0  0  0  0  0  0  0  0  0
   -5.6304   -0.3946    0.1651 C   0  0  0  0  0  0  0  0  0  0  0  0
   -6.8486    0.4402   -0.2419 C   0  0  0  0  0  0  0  0  0  0  0  0
   -8.1564   -0.0396    0.3927 C   0  0  0  0  0  0  0  0  0  0  0  0
    5.6090    1.2678   -1.1256 C   0  0  0  0  0  0  0  0  0  0  0  0
    6.6737    0.6519    0.9539 C   0  0  0  0  0  0  0  0  0  0  0  0
   -9.3484    0.7735   -0.1197 C   0  0  0  0  0  0  0  0  0  0  0  0
  -10.6821    0.3509    0.4999 C   0  0  0  0  0  0  0  0  0  0  0  0
    5.8711    2.6122   -0.8617 C   0  0  0  0  0  0  0  0  0  0  0  0
    6.9357    1.9963    1.2177 C   0  0  0  0  0  0  0  0  0  0  0  0
    6.5343    2.9765    0.3100 C   0  0  0  0  0  0  0  0  0  0  0  0
  -11.8587    1.2020    0.0478 C   0  0  0  0  0  0  0  0  0  0  0  0
  1  2  1  0
  1  4  1  0
  1  6  1  0
  1  7  1  0
  2  3  1  0
  3  5  1  0
  4 11  1  0
  5  8  1  0
  8  9  1  0
  9 10  1  0
 10 12  1  0
 11 16  2  0
 11 17  1  0
 12 13  1  0
 13 14  1  0
 14 15  1  0
 15 18  1  0
 16 20  1  0
 17 21  2  0
 18 19  1  0
 19 23  1  0
 20 22  2  0
 21 22  1  0
M  CHG  1   1   1
M  END
>  <PUBCHEM_COMPOUND_CID>  (1) 
2330

>  <PUBCHEM_CONFORMER_RMSD>  (1) 
1.4

>  <PUBCHEM_CONFORMER_DIVERSEORDER>  (1) 
1
43
41
95
91
68
46
2
66
56
63
73
20
23
62
92
19
84
31
28
82
10
72
21
83
94
81
96
64
26
77
33
35
61
30
67
65
40
4
80
8
34
25
49
51
97
78
7
6
89
18
93
86
88
48
16
69
75
100
99
12
55
53
13
54
15
11
79
38
14
37
3
60
24
44
76
57
85
32
50
71
17
22
90
9
29
36
70
47
42
39
52
27
98
87
58
59
5
45
74

>  <PUBCHEM_MMFF94_PARTIAL_CHARGES>  (1) 
16
1 -1.01
11 -0.14
16 -0.15
17 -0.15
2 0.5
20 -0.15
21 -0.15
22 -0.15
4 0.65
52 0.15
53 0.15
58 0.15
59 0.15
6 0.5
60 0.15
7 0.5

>  <PUBCHEM_EFFECTIVE_ROTOR_COUNT>  (1) 
14

>  <PUBCHEM_PHARMACOPHORE_FEATURES>  (1) 
3
1 1 cation
1 23 hydrophobe
6 11 16 17 20 21 22 rings

>  <PUBCHEM_HEAVY_ATOM_COUNT>  (1) 
23

>  <PUBCHEM_ATOM_DEF_STEREO_COUNT>  (1) 
0

>  <PUBCHEM_ATOM_UDEF_STEREO_COUNT>  (1) 
0

>  <PUBCHEM_BOND_DEF_STEREO_COUNT>  (1) 
0

>  <PUBCHEM_BOND_UDEF_STEREO_COUNT>  (1) 
0

>  <PUBCHEM_ISOTOPIC_ATOM_COUNT>  (1) 
0

>  <PUBCHEM_COMPONENT_COUNT>  (1) 
1

>  <PUBCHEM_CACTVS_TAUTO_COUNT>  (1) 
1

>  <PUBCHEM_CONFORMER_ID>  (1) 
0000091A00000001

>  <PUBCHEM_MMFF94_ENERGY>  (1) 
40.7501

>  <PUBCHEM_FEATURE_SELFOVERLAP>  (1) 
15.223

>  <PUBCHEM_SHAPE_FINGERPRINT>  (1) 
10411042 1 17978792308500130318
10666366 153 11383841450335082315
11211813 74 18343863333666860633
11315181 36 18060142038665215523
11638347 137 15864065459966258568
11719270 70 12685087086007982616
11966995 178 18341339954544321044
12089408 11 18059855044491986039
125118 31 18408042892204961500
12592606 108 8286211555984201748
12838862 33 16950275218784269163
13617811 41 15482676775355814808
14216079 64 9727638301722610987
14251757 52 18413670218522178361
14251764 46 11095878259746176559
14400156 188 17824254901049223458
14428016 248 17775571923673847129
14461889 52 18041282179189333546
14537116 161 16559033804990075584
14617042 71 18338519741257482485
15152005 1 9437200107036345420
15840311 113 18411422799701859494
16120349 18 18410291428354918893
1754908 1 17167869669036986065
1818759 1 9871749097065424717
20157964 124 18410575081048925086
20771845 140 14779539102299408384
20771845 171 17131844140108261646
20812841 46 18259704493152224717
21095086 128 8718825384866018593
21360442 33 11311789354087993028
21360442 67 17275390897446797143
21360443 126 16487254391593711463
21362267 2 18341036485578936765
21362267 313 18192428577237835403
21792934 111 17749389256838106277
22224240 67 17967814947062738379
23378982 100 14779534674826274597
28498 318 9655578505020652891
33532 11 8862944970171052365
33684 2 12107792900803421311
34797466 226 18202568358603751078
4340502 62 17458339763222637746
437795 160 17240490252046946971
444735 82 18260552229317851012
445580 126 18342449375347041808
57676310 1 17547015126479340424
57676310 151 16917080975105018776
57676310 78 17988376871870532022
57828716 16 13551458251335139061
59520647 147 16811257559045417940
59521099 67 17418375780150151248
59521506 201 17057787793415631176
59682541 35 17894917326483457339
60111433 81 17842834706006689616
6438161 24 10303820865422200036
67123 10 18412263931431278959

>  <PUBCHEM_SHAPE_MULTIPOLES>  (1) 
468.35
38.2
2.55
1.01
122.07
0.45
-0.18
21.97
-4.88
-8
-0.01
-1.62
0.13
0.13

>  <PUBCHEM_SHAPE_SELFOVERLAP>  (1) 
896.817

>  <PUBCHEM_SHAPE_VOLUME>  (1) 
288

>  <PUBCHEM_COORDINATE_TYPE>  (1) 
2
5
10

$$$$
