23309
     RDKit          3D

 16 16  0  0  0  0  0  0  0  0999 V2000
   -4.4418   -0.4105    0.5496 Br  0  0  0  0  0  0  0  0  0  0  0  0
   -1.9390    0.3422   -1.6793 O   0  0  0  0  0  0  0  0  0  0  0  0
   -1.0457    0.0269    0.4746 N   0  0  0  0  0  0  0  0  0  0  0  0
    1.2610    1.7044    0.1489 C   0  0  0  0  0  0  0  0  0  0  0  0
    1.3336    0.1709    0.0621 C   0  0  0  0  0  0  0  0  0  0  0  0
    2.6669    2.3041   -0.0699 C   0  0  0  0  0  0  0  0  0  0  0  0
    0.7420    2.1220    1.5419 C   0  0  0  0  0  0  0  0  0  0  0  0
    0.3231    2.3461   -0.8985 C   0  0  0  0  0  0  0  0  0  0  0  0
    0.1929   -0.5749    0.2268 C   0  0  0  0  0  0  0  0  0  0  0  0
    2.5665   -0.3863   -0.1820 C   0  0  0  0  0  0  0  0  0  0  0  0
    0.2889   -1.9640    0.1426 C   0  0  0  0  0  0  0  0  0  0  0  0
    2.6625   -1.7753   -0.2661 C   0  0  0  0  0  0  0  0  0  0  0  0
    1.5237   -2.5642   -0.1039 C   0  0  0  0  0  0  0  0  0  0  0  0
   -0.9129   -2.8361    0.3118 C   0  0  0  0  0  0  0  0  0  0  0  0
   -2.0036    0.4432   -0.4570 C   0  0  0  0  0  0  0  0  0  0  0  0
   -3.2180    1.0515    0.1984 C   0  0  0  0  0  0  0  0  0  0  0  0
  1 16  1  0
  2 15  2  0
  3  9  1  0
  3 15  1  0
  4  5  1  0
  4  6  1  0
  4  7  1  0
  4  8  1  0
  5  9  2  0
  5 10  1  0
  9 11  1  0
 10 12  2  0
 11 13  2  0
 11 14  1  0
 12 13  1  0
 15 16  1  0
M  END
>  <PUBCHEM_COMPOUND_CID>  (1) 
23309

>  <PUBCHEM_CONFORMER_RMSD>  (1) 
0.6

>  <PUBCHEM_CONFORMER_DIVERSEORDER>  (1) 
1
8
9
7
4
6
3
2
5

>  <PUBCHEM_MMFF94_PARTIAL_CHARGES>  (1) 
17
1 -0.23
10 -0.15
11 -0.14
12 -0.15
13 -0.15
14 0.14
15 0.57
16 0.29
2 -0.57
26 0.15
27 0.15
28 0.15
29 0.37
3 -0.55
4 0.14
5 -0.14
9 0.12

>  <PUBCHEM_EFFECTIVE_ROTOR_COUNT>  (1) 
4

>  <PUBCHEM_PHARMACOPHORE_FEATURES>  (1) 
5
1 1 hydrophobe
1 2 acceptor
1 3 donor
4 4 6 7 8 hydrophobe
6 5 9 10 11 12 13 rings

>  <PUBCHEM_HEAVY_ATOM_COUNT>  (1) 
16

>  <PUBCHEM_ATOM_DEF_STEREO_COUNT>  (1) 
0

>  <PUBCHEM_ATOM_UDEF_STEREO_COUNT>  (1) 
0

>  <PUBCHEM_BOND_DEF_STEREO_COUNT>  (1) 
0

>  <PUBCHEM_BOND_UDEF_STEREO_COUNT>  (1) 
0

>  <PUBCHEM_ISOTOPIC_ATOM_COUNT>  (1) 
0

>  <PUBCHEM_COMPONENT_COUNT>  (1) 
1

>  <PUBCHEM_CACTVS_TAUTO_COUNT>  (1) 
2

>  <PUBCHEM_CONFORMER_ID>  (1) 
00005B0D00000001

>  <PUBCHEM_MMFF94_ENERGY>  (1) 
84.1872

>  <PUBCHEM_FEATURE_SELFOVERLAP>  (1) 
25.371

>  <PUBCHEM_SHAPE_FINGERPRINT>  (1) 
104564 63 17695911025075248188
108231 29 18266460906052640082
10967382 1 18410295838779682666
11680986 33 18337400451341699082
13132413 78 18055354634812318240
13140716 1 18338509859064508306
13380535 21 18265622171811380070
13380535 76 18265890452759424754
14251717 144 18410292502144150471
14817 1 10364670376548546620
15852999 172 17689953080870501797
16945 1 18336256847858925238
193761 8 18266461103763599346
20588541 1 18409731746734362142
20645477 70 18410002227006115607
20708731 107 18408611357075401053
21041028 32 18200880552383694505
21501502 16 18194678391748156674
221490 88 18336838549740346475
22802520 49 18044645404474395717
2334 1 18194117658377434346
23402539 116 18125996066901552726
23419403 2 14939060440828602618
23598291 2 18060412517528519117
238 59 18119215456049559599
25 1 18412545448302679652
2748010 2 18266745864664364198
3060560 45 18339351960232898679
3286 77 18335141964580295519
350125 39 18050011296200850600
353137 74 17904198122927561174
589210 1 18194118740366619878
7364860 26 18342177773619176243
81228 2 17116620052548147577
8272917 22 18341905039539209953
84936 182 18131348643665577001

>  <PUBCHEM_SHAPE_MULTIPOLES>  (1) 
324.36
5.15
3.28
1.01
5.89
0.82
-0.04
-0.31
0.23
-1.96
0.2
0.24
-0.47
0.36

>  <PUBCHEM_SHAPE_SELFOVERLAP>  (1) 
653.47

>  <PUBCHEM_SHAPE_VOLUME>  (1) 
196.3

>  <PUBCHEM_COORDINATE_TYPE>  (1) 
2
5
10

$$$$
