23307
     RDKit          3D

 27 30  0  0  0  0  0  0  0  0999 V2000
    5.9209    0.2730    0.0167 O   0  0  0  0  0  0  0  0  0  0  0  0
    5.0023   -2.3313   -0.2824 O   0  0  0  0  0  0  0  0  0  0  0  0
   -4.5292   -2.4391   -0.2680 O   0  0  0  0  0  0  0  0  0  0  0  0
   -6.1182   -0.1758   -0.0046 O   0  0  0  0  0  0  0  0  0  0  0  0
    0.0171    1.6192    0.1862 N   0  0  0  0  0  0  0  0  0  0  0  0
   -0.4931    0.3420    0.0407 C   0  0  0  0  0  0  0  0  0  0  0  0
    1.3581    1.8356    0.2071 C   0  0  0  0  0  0  0  0  0  0  0  0
    2.2906    0.8087    0.0868 C   0  0  0  0  0  0  0  0  0  0  0  0
   -1.9260    0.1681    0.0245 C   0  0  0  0  0  0  0  0  0  0  0  0
    1.8270   -0.5016   -0.0630 C   0  0  0  0  0  0  0  0  0  0  0  0
    0.4464   -0.7207   -0.0846 C   0  0  0  0  0  0  0  0  0  0  0  0
   -2.7606    1.2990    0.1571 C   0  0  0  0  0  0  0  0  0  0  0  0
   -0.8121    2.6815    0.3112 C   0  0  0  0  0  0  0  0  0  0  0  0
   -2.1871    2.5538    0.3004 C   0  0  0  0  0  0  0  0  0  0  0  0
    3.6735    1.0565    0.1123 C   0  0  0  0  0  0  0  0  0  0  0  0
   -2.5739   -1.0845   -0.1186 C   0  0  0  0  0  0  0  0  0  0  0  0
    1.8721    3.2440    0.3691 C   0  0  0  0  0  0  0  0  0  0  0  0
    2.7540   -1.5518   -0.1864 C   0  0  0  0  0  0  0  0  0  0  0  0
   -4.1605    1.1686    0.1455 C   0  0  0  0  0  0  0  0  0  0  0  0
    4.5850    0.0080   -0.0106 C   0  0  0  0  0  0  0  0  0  0  0  0
    4.1252   -1.2965   -0.1601 C   0  0  0  0  0  0  0  0  0  0  0  0
   -3.9664   -1.2063   -0.1292 C   0  0  0  0  0  0  0  0  0  0  0  0
   -4.7607   -0.0781    0.0030 C   0  0  0  0  0  0  0  0  0  0  0  0
    6.5534    0.5449   -1.2325 C   0  0  0  0  0  0  0  0  0  0  0  0
    5.4236   -2.9699    0.9215 C   0  0  0  0  0  0  0  0  0  0  0  0
   -4.7921   -3.1700    0.9281 C   0  0  0  0  0  0  0  0  0  0  0  0
   -6.7693   -0.0770   -1.2703 C   0  0  0  0  0  0  0  0  0  0  0  0
  1 20  1  0
  1 24  1  0
  2 21  1  0
  2 25  1  0
  3 22  1  0
  3 26  1  0
  4 23  1  0
  4 27  1  0
  5  6  1  0
  5  7  2  0
  5 13  1  0
  6  9  1  0
  6 11  2  0
  7  8  1  0
  7 17  1  0
  8 10  2  0
  8 15  1  0
  9 12  2  0
  9 16  1  0
 10 11  1  0
 10 18  1  0
 12 14  1  0
 12 19  1  0
 13 14  2  0
 15 20  2  0
 16 22  2  0
 18 21  2  0
 19 23  2  0
 20 21  1  0
 22 23  1  0
M  CHG  1   5   1
M  END
>  <PUBCHEM_COMPOUND_CID>  (1) 
23307

>  <PUBCHEM_CONFORMER_RMSD>  (1) 
0.8

>  <PUBCHEM_CONFORMER_DIVERSEORDER>  (1) 
1
2

>  <PUBCHEM_MMFF94_PARTIAL_CHARGES>  (1) 
30
1 -0.36
11 -0.15
13 0.21
14 -0.15
15 -0.15
16 -0.15
17 0.14
18 -0.15
19 -0.15
2 -0.36
20 0.08
21 0.08
22 0.08
23 0.08
24 0.28
25 0.28
26 0.28
27 0.28
28 0.15
29 0.15
3 -0.36
30 0.15
31 0.15
32 0.15
33 0.15
37 0.15
4 -0.36
5 -0.08
6 0.36
7 0.22

>  <PUBCHEM_EFFECTIVE_ROTOR_COUNT>  (1) 
4

>  <PUBCHEM_PHARMACOPHORE_FEATURES>  (1) 
8
1 1 acceptor
1 2 acceptor
1 3 acceptor
1 4 acceptor
6 5 6 7 8 10 11 rings
6 5 6 9 12 13 14 rings
6 8 10 15 18 20 21 rings
6 9 12 16 19 22 23 rings

>  <PUBCHEM_HEAVY_ATOM_COUNT>  (1) 
27

>  <PUBCHEM_ATOM_DEF_STEREO_COUNT>  (1) 
0

>  <PUBCHEM_ATOM_UDEF_STEREO_COUNT>  (1) 
0

>  <PUBCHEM_BOND_DEF_STEREO_COUNT>  (1) 
0

>  <PUBCHEM_BOND_UDEF_STEREO_COUNT>  (1) 
0

>  <PUBCHEM_ISOTOPIC_ATOM_COUNT>  (1) 
0

>  <PUBCHEM_COMPONENT_COUNT>  (1) 
1

>  <PUBCHEM_CACTVS_TAUTO_COUNT>  (1) 
1

>  <PUBCHEM_CONFORMER_ID>  (1) 
00005B0B00000001

>  <PUBCHEM_MMFF94_ENERGY>  (1) 
146.7863

>  <PUBCHEM_FEATURE_SELFOVERLAP>  (1) 
40.685

>  <PUBCHEM_SHAPE_FINGERPRINT>  (1) 
10595046 47 18408045113388368476
11135609 187 18045507666979162748
11796584 16 17675921023388117283
11963148 33 18261388984006513618
12107183 9 17617378381776620066
12166972 35 17968101880699704892
12236239 1 18187086109249584132
12403259 226 18410851066419530664
12516196 113 18202560683286157097
12760667 363 18342735183428854039
13140716 1 18342183275910366465
13533116 47 18336262354239458298
138480 1 14736767648628112296
13862211 1 18341046324493365295
14341114 176 18411142415530647399
14790565 3 17257934226284667881
14866123 147 18197783202843905025
15042514 8 18124594180953931434
15196674 1 18339643326619446960
15250474 111 18263359205479053090
15352361 1 18412263939024129449
15927050 60 17623569061943924188
16087824 20 18339362947667317281
17492 89 18266177417237557427
17857418 61 18413387631291388703
1813 80 17748545931124449796
20028762 73 18130781231283450063
21033650 10 16877930630388534845
21236236 1 18271526391061908049
21267235 1 18340774823037331905
221490 88 18338238287939555585
22393880 68 18041547123010494355
22950370 63 18411421683289806848
23522609 53 18126034648229282720
23559900 14 18410285952350724793
3004659 81 18260826037772377045
335352 9 18412262848951866589
34797466 226 16988843895862933512
350125 39 18412265046941569181
4015057 19 18270107046457785729
4073 2 18187649166577389698
4214541 1 18339924805426927249
4325135 7 18335143085835642572
46194498 28 17603304877517333796
5104073 3 18272652328995215994
59755656 215 18411418405802622311
9709674 26 18264209278359231291

>  <PUBCHEM_SHAPE_MULTIPOLES>  (1) 
527.19
15.36
3.31
0.81
0.04
0.35
-0.09
8.36
-2.84
-0.24
0.91
0.02
0.13
-0.2

>  <PUBCHEM_SHAPE_SELFOVERLAP>  (1) 
1171.523

>  <PUBCHEM_SHAPE_VOLUME>  (1) 
285.8

>  <PUBCHEM_COORDINATE_TYPE>  (1) 
2
5
10

$$$$
