23316
     RDKit          3D

 18 19  0  0  0  0  0  0  0  0999 V2000
   -3.6943   -0.5912   -0.7846 F   0  0  0  0  0  0  0  0  0  0  0  0
   -4.3429    0.8670    0.7083 F   0  0  0  0  0  0  0  0  0  0  0  0
   -3.6459    1.5354   -1.2410 F   0  0  0  0  0  0  0  0  0  0  0  0
   -1.6540    1.7837    0.8071 O   0  0  0  0  0  0  0  0  0  0  0  0
   -0.4391   -2.5515    0.1712 N   0  0  0  0  0  0  0  0  0  0  0  0
    3.6236    1.1931   -0.0979 N   0  0  0  0  0  0  0  0  0  0  0  0
    0.2997   -0.4469    0.1290 C   0  0  0  0  0  0  0  0  0  0  0  0
    0.7012   -1.7840    0.0944 C   0  0  0  0  0  0  0  0  0  0  0  0
   -1.1198   -0.4395    0.2290 C   0  0  0  0  0  0  0  0  0  0  0  0
    2.6313    0.1903   -0.0322 C   0  0  0  0  0  0  0  0  0  0  0  0
    1.2845    0.5588    0.0643 C   0  0  0  0  0  0  0  0  0  0  0  0
    2.0436   -2.1673   -0.0019 C   0  0  0  0  0  0  0  0  0  0  0  0
   -1.5447   -1.7479    0.2530 C   0  0  0  0  0  0  0  0  0  0  0  0
    3.0027   -1.1524   -0.0647 C   0  0  0  0  0  0  0  0  0  0  0  0
   -1.9979    0.6939    0.2972 C   0  0  0  0  0  0  0  0  0  0  0  0
    4.8601    0.9537   -0.8131 C   0  0  0  0  0  0  0  0  0  0  0  0
    3.4098    2.4771    0.5375 C   0  0  0  0  0  0  0  0  0  0  0  0
   -3.4179    0.6278   -0.2556 C   0  0  0  0  0  0  0  0  0  0  0  0
  1 18  1  0
  2 18  1  0
  3 18  1  0
  4 15  2  0
  5  8  1  0
  5 13  1  0
  6 10  1  0
  6 16  1  0
  6 17  1  0
  7  8  2  0
  7  9  1  0
  7 11  1  0
  8 12  1  0
  9 13  2  0
  9 15  1  0
 10 11  2  0
 10 14  1  0
 12 14  2  0
 15 18  1  0
M  END
>  <PUBCHEM_COMPOUND_CID>  (1) 
23316

>  <PUBCHEM_CONFORMER_RMSD>  (1) 
0.6

>  <PUBCHEM_CONFORMER_DIVERSEORDER>  (1) 
1
6
3
5
7
4
2

>  <PUBCHEM_MMFF94_PARTIAL_CHARGES>  (1) 
22
1 -0.34
10 0.1
11 -0.15
12 -0.15
13 -0.3
14 -0.15
15 0.6
16 0.37
17 0.37
18 1.08
19 0.15
2 -0.34
20 0.27
21 0.15
22 0.15
23 0.15
3 -0.34
4 -0.57
5 0.03
6 -0.84
8 -0.15
9 -0.09

>  <PUBCHEM_EFFECTIVE_ROTOR_COUNT>  (1) 
3

>  <PUBCHEM_PHARMACOPHORE_FEATURES>  (1) 
6
1 4 acceptor
1 5 cation
1 5 donor
1 6 cation
5 5 7 8 9 13 rings
6 7 8 10 11 12 14 rings

>  <PUBCHEM_HEAVY_ATOM_COUNT>  (1) 
18

>  <PUBCHEM_ATOM_DEF_STEREO_COUNT>  (1) 
0

>  <PUBCHEM_ATOM_UDEF_STEREO_COUNT>  (1) 
0

>  <PUBCHEM_BOND_DEF_STEREO_COUNT>  (1) 
0

>  <PUBCHEM_BOND_UDEF_STEREO_COUNT>  (1) 
0

>  <PUBCHEM_ISOTOPIC_ATOM_COUNT>  (1) 
0

>  <PUBCHEM_COMPONENT_COUNT>  (1) 
1

>  <PUBCHEM_CACTVS_TAUTO_COUNT>  (1) 
3

>  <PUBCHEM_CONFORMER_ID>  (1) 
00005B1400000001

>  <PUBCHEM_MMFF94_ENERGY>  (1) 
50.3134

>  <PUBCHEM_FEATURE_SELFOVERLAP>  (1) 
30.537

>  <PUBCHEM_SHAPE_FINGERPRINT>  (1) 
10411042 1 17401488143818449579
10498660 4 18410856607201343716
10608611 8 18408321077241497766
10967382 1 18411140216845060552
11543360 7 16056593309107665868
12403259 226 18044934563141947118
12403259 415 18041284249215344093
12403260 363 18192137218428254122
13140716 1 18408323280686828362
13380535 76 18411136948412150834
13583140 156 16515954960714405649
14123255 52 18409163346383150092
14250199 8 18270117881789647207
14897335 6 18410009953198833978
15196674 1 18410294705072074163
15442244 35 18124316004385776546
16945 1 18267873778457499946
1741750 31 18340206392378593506
17834072 32 18263933309647060820
18186145 218 18342177717663223695
200 152 16558757827576511572
20510252 161 17981049922859725210
20602899 9 16415206705961445630
20645477 56 18337115669450920016
21499 59 18410008827743277295
21501502 16 18411130355426569234
21524375 3 18409166610716544186
21639500 275 18338786819444904774
231179 274 18040715853427949100
23402539 116 18272647965456395500
23402655 69 18271241625628253533
23557571 272 18198920286191367518
23559900 14 18201442523812461896
25 1 18412263926207786346
2748010 2 18337405910340194522
335352 9 18410294684288250086
3545911 37 18408891754183988956
4028521 119 18411981385973860276
474 4 18409169895928688833
5104073 3 18408042909542827171
57096353 35 18201146707227494951
6333272 397 18409731750733807138
633830 44 18129107731878102197
7364860 26 18341054008780948382
84936 182 18271238327067191640
9709674 26 18341899597235956006
9981440 41 18265886046550475114

>  <PUBCHEM_SHAPE_MULTIPOLES>  (1) 
332.78
7.86
2.52
0.8
0.01
0.49
0.08
-4.8
1.47
0.85
-0.26
-0.22
-0.23
0.18

>  <PUBCHEM_SHAPE_SELFOVERLAP>  (1) 
722.513

>  <PUBCHEM_SHAPE_VOLUME>  (1) 
185.1

>  <PUBCHEM_COORDINATE_TYPE>  (1) 
2
5
10

$$$$
