23312
     RDKit          3D

 40 45  0  0  1  0  0  0  0  0999 V2000
   -3.9150    1.2813    0.9239 O   0  0  0  0  0  0  0  0  0  0  0  0
    2.4282    0.3376    1.8538 O   0  0  0  0  0  0  0  0  0  0  0  0
   -0.8071   -2.9248   -1.1267 O   0  0  0  0  0  0  0  0  0  0  0  0
    3.9866    0.0565   -0.4517 O   0  0  0  0  0  0  0  0  0  0  0  0
    0.9439   -2.6593    2.3788 O   0  0  0  0  0  0  0  0  0  0  0  0
   -8.3645    0.0949    0.1963 O   0  0  0  0  0  0  0  0  0  0  0  0
    5.5996    1.1024   -1.8500 O   0  0  0  0  0  0  0  0  0  0  0  0
   -8.4445    2.3301    0.7378 O   0  0  0  0  0  0  0  0  0  0  0  0
    5.5776   -2.2388   -0.3148 O   0  0  0  0  0  0  0  0  0  0  0  0
    6.0759   -0.0980    1.4474 O   0  0  0  0  0  0  0  0  0  0  0  0
    8.1072    1.7531    0.7911 O   0  0  0  0  0  0  0  0  0  0  0  0
   -3.0902    0.4954    0.0486 C   0  0  0  0  0  0  0  0  0  0  0  0
   -1.7103    0.2911    0.7319 C   0  0  0  0  0  0  0  0  0  0  0  0
   -3.8318   -0.8313   -0.2561 C   0  0  0  0  0  0  0  0  0  0  0  0
   -0.7773   -0.7267   -0.0076 C   0  0  0  0  0  0  0  0  0  0  0  0
    0.6131   -0.9073    0.7392 C   0  0  0  0  0  0  0  0  0  0  0  0
    1.2787    0.4871    1.0035 C   0  0  0  0  0  0  0  0  0  0  0  0
   -1.5478   -2.0471   -0.2814 C   0  0  0  0  0  0  0  0  0  0  0  0
   -2.8868   -1.8129   -0.9876 C   0  0  0  0  0  0  0  0  0  0  0  0
   -4.9548   -0.3785   -1.2481 C   0  0  0  0  0  0  0  0  0  0  0  0
   -3.0447    1.2043   -1.3167 C   0  0  0  0  0  0  0  0  0  0  0  0
   -1.0011    1.6347    0.9833 C   0  0  0  0  0  0  0  0  0  0  0  0
    0.3223    1.4571    1.7112 C   0  0  0  0  0  0  0  0  0  0  0  0
   -4.2869    0.7330   -2.0857 C   0  0  0  0  0  0  0  0  0  0  0  0
    1.6481   -1.7894   -0.0158 C   0  0  0  0  0  0  0  0  0  0  0  0
    1.8055    1.1214   -0.3138 C   0  0  0  0  0  0  0  0  0  0  0  0
   -4.3835   -1.5265    1.0051 C   0  0  0  0  0  0  0  0  0  0  0  0
    2.1258   -1.1769   -1.3311 C   0  0  0  0  0  0  0  0  0  0  0  0
    2.7347    0.2049   -1.1181 C   0  0  0  0  0  0  0  0  0  0  0  0
    0.3828   -1.6150    2.0637 C   0  0  0  0  0  0  0  0  0  0  0  0
   -6.2306    0.1269   -0.6324 C   0  0  0  0  0  0  0  0  0  0  0  0
   -7.3807   -0.7665   -0.3862 C   0  0  0  0  0  0  0  0  0  0  0  0
   -6.4964    1.3713   -0.2441 C   0  0  0  0  0  0  0  0  0  0  0  0
    5.0493   -0.1315   -1.3802 C   0  0  0  0  0  0  0  0  0  0  0  0
   -7.8602    1.3599    0.2872 C   0  0  0  0  0  0  0  0  0  0  0  0
    6.1436   -1.0235   -0.7868 C   0  0  0  0  0  0  0  0  0  0  0  0
    6.9218   -0.3160    0.3218 C   0  0  0  0  0  0  0  0  0  0  0  0
    6.3623    1.8622   -0.9037 C   0  0  0  0  0  0  0  0  0  0  0  0
    7.4497    1.0113   -0.2270 C   0  0  0  0  0  0  0  0  0  0  0  0
    5.4575    2.6532    0.0410 C   0  0  0  0  0  0  0  0  0  0  0  0
  1 12  1  0
  2 17  1  0
  3 18  1  0
  4 29  1  0
  4 34  1  0
  5 30  2  0
  6 32  1  0
  6 35  1  0
  7 34  1  0
  7 38  1  0
  8 35  2  0
  9 36  1  0
 10 37  1  0
 11 39  1  0
 12 13  1  0
 12 14  1  0
 12 21  1  0
 13 15  1  0
 13 22  1  0
 14 19  1  0
 14 20  1  0
 14 27  1  0
 15 16  1  0
 15 18  1  0
 16 17  1  0
 16 25  1  0
 16 30  1  0
 17 23  1  0
 17 26  1  0
 18 19  1  0
 20 24  1  0
 20 31  1  0
 21 24  1  0
 22 23  1  0
 25 28  1  0
 26 29  1  0
 28 29  1  0
 31 32  1  0
 31 33  2  0
 33 35  1  0
 34 36  1  0
 36 37  1  0
 37 39  1  0
 38 39  1  0
 38 40  1  0
M  END
>  <PUBCHEM_COMPOUND_CID>  (1) 
23312

>  <PUBCHEM_CONFORMER_RMSD>  (1) 
1

>  <PUBCHEM_CONFORMER_DIVERSEORDER>  (1) 
6
140
107
53
25
3
152
66
99
93
51
52
154
143
22
75
62
90
13
125
110
72
29
50
123
80
144
148
58
156
23
14
163
114
126
43
118
38
111
9
34
158
134
150
89
41
83
59
151
55
136
56
86
162
7
149
70
74
81
106
20
32
42
119
60
133
160
131
8
153
139
28
116
91
87
54
18
146
92
128
26
79
117
5
142
155
95
102
49
129
97
69
127
44
63
65
161
40
15
88
2
39
141
130
108
68
11
85
94
45
33
47
164
104
31
112
48
77
157
124
82
17
98
101
113
61
96
67
30
12
24
46
37
78
19
21
138
57
147
35
71
16
132
1
4
76
100
121
109
105
122
36
135
64
73
103
159
120
27
84
145
137
10
115

>  <PUBCHEM_MMFF94_PARTIAL_CHARGES>  (1) 
35
1 -0.68
10 -0.68
11 -0.68
12 0.28
16 0.06
17 0.28
18 0.28
2 -0.68
20 0.14
29 0.28
3 -0.68
30 0.45
31 -0.28
32 0.42
33 -0.14
34 0.56
35 0.71
36 0.28
37 0.28
38 0.28
39 0.28
4 -0.56
5 -0.57
6 -0.43
65 0.4
66 0.06
67 0.4
68 0.4
7 -0.56
71 0.15
77 0.4
8 -0.57
81 0.4
82 0.4
9 -0.68

>  <PUBCHEM_EFFECTIVE_ROTOR_COUNT>  (1) 
7.8

>  <PUBCHEM_PHARMACOPHORE_FEATURES>  (1) 
22
1 1 acceptor
1 1 donor
1 10 acceptor
1 10 donor
1 11 acceptor
1 11 donor
1 2 acceptor
1 2 donor
1 3 acceptor
1 3 donor
1 4 acceptor
1 5 acceptor
1 7 acceptor
1 8 acceptor
1 9 acceptor
1 9 donor
5 12 14 20 21 24 rings
5 6 31 32 33 35 rings
6 12 13 14 15 18 19 rings
6 13 15 16 17 22 23 rings
6 16 17 25 26 28 29 rings
6 7 34 36 37 38 39 rings

>  <PUBCHEM_HEAVY_ATOM_COUNT>  (1) 
40

>  <PUBCHEM_ATOM_DEF_STEREO_COUNT>  (1) 
9

>  <PUBCHEM_ATOM_UDEF_STEREO_COUNT>  (1) 
5

>  <PUBCHEM_BOND_DEF_STEREO_COUNT>  (1) 
0

>  <PUBCHEM_BOND_UDEF_STEREO_COUNT>  (1) 
0

>  <PUBCHEM_ISOTOPIC_ATOM_COUNT>  (1) 
0

>  <PUBCHEM_COMPONENT_COUNT>  (1) 
1

>  <PUBCHEM_CACTVS_TAUTO_COUNT>  (1) 
1

>  <PUBCHEM_CONFORMER_ID>  (1) 
00005B1000000006

>  <PUBCHEM_MMFF94_ENERGY>  (1) 
145.842

>  <PUBCHEM_FEATURE_SELFOVERLAP>  (1) 
111.959

>  <PUBCHEM_SHAPE_FINGERPRINT>  (1) 
10 15 11963396249432970500
10165383 225 18411138031112954015
10674148 151 17846497019558759537
11115154 58 15267350604585064219
11135609 187 18202004305059973031
11135926 11 17821720633598251559
11621639 179 17773875303859750001
13811026 1 18342461439282486966
14856354 85 13326854465245916429
15082195 135 18059866095179425620
15131766 46 13914327991007776494
15183329 4 18273219711750570332
15198563 99 14045476521975590706
15301273 46 9655578508687970168
15392192 104 13912617052045532840
15439362 3 17415264303012595712
15840311 113 18334297539808516926
18608769 82 18341051904500148655
19319366 153 18114455682729164523
20157964 124 18408323281482964966
20511986 3 18337942481479982366
21033648 29 17531529901302401844
23559900 14 17274810398773182025
23576562 1 18128812131213190253
24771750 20 17840309152912668580
2838139 119 16225759748604142852
3009799 131 17346317111378355326
335352 9 17917987283673377437
3383291 50 8574710187536428373
3633792 109 18411142420812181806
4093350 32 17095514063986736274
4098825 35 18410855426248770389
4149490 64 17967816011692597010
4325135 7 15267344033363994372
563151 248 15140682513683090731
6081469 158 12823302273166499468

>  <PUBCHEM_SHAPE_MULTIPOLES>  (1) 
758.62
22.61
2.43
1.68
2.65
0.44
0.27
-10.9
-2.75
-0.59
0.3
-0.5
0.23
-0.46

>  <PUBCHEM_SHAPE_SELFOVERLAP>  (1) 
1643.122

>  <PUBCHEM_SHAPE_VOLUME>  (1) 
408.5

>  <PUBCHEM_COORDINATE_TYPE>  (1) 
2
5
10

$$$$
