23326
     RDKit          3D

 16 18  0  0  0  0  0  0  0  0999 V2000
   -2.6370    1.5772    0.3530 O   0  0  0  0  0  0  0  0  0  0  0  0
   -4.0562   -0.8496    0.1416 N   0  0  0  0  0  0  0  0  0  0  0  0
   -0.5852    0.3867    0.1445 C   0  0  0  0  0  0  0  0  0  0  0  0
    0.3674    1.5603    0.2368 C   0  0  0  0  0  0  0  0  0  0  0  0
    0.1313   -0.8207   -0.0151 C   0  0  0  0  0  0  0  0  0  0  0  0
    1.7128    0.8765    0.1106 C   0  0  0  0  0  0  0  0  0  0  0  0
    1.5465   -0.5191   -0.0360 C   0  0  0  0  0  0  0  0  0  0  0  0
   -1.9679    0.4051    0.1994 C   0  0  0  0  0  0  0  0  0  0  0  0
   -0.5391   -2.0277   -0.1216 C   0  0  0  0  0  0  0  0  0  0  0  0
    2.9687    1.4573    0.1265 C   0  0  0  0  0  0  0  0  0  0  0  0
    2.6474   -1.3486   -0.1686 C   0  0  0  0  0  0  0  0  0  0  0  0
   -2.6434   -0.8118    0.0918 C   0  0  0  0  0  0  0  0  0  0  0  0
   -1.9363   -2.0161   -0.0671 C   0  0  0  0  0  0  0  0  0  0  0  0
    4.0783    0.6209   -0.0072 C   0  0  0  0  0  0  0  0  0  0  0  0
    3.9193   -0.7681   -0.1532 C   0  0  0  0  0  0  0  0  0  0  0  0
   -3.0065    2.2777   -0.8354 C   0  0  0  0  0  0  0  0  0  0  0  0
  1  8  1  0
  1 16  1  0
  2 12  1  0
  3  4  1  0
  3  5  2  0
  3  8  1  0
  4  6  1  0
  5  7  1  0
  5  9  1  0
  6  7  2  0
  6 10  1  0
  7 11  1  0
  8 12  2  0
  9 13  2  0
 10 14  2  0
 11 15  2  0
 12 13  1  0
 14 15  1  0
M  END
>  <PUBCHEM_COMPOUND_CID>  (1) 
23326

>  <PUBCHEM_CONFORMER_RMSD>  (1) 
0.6

>  <PUBCHEM_CONFORMER_DIVERSEORDER>  (1) 
1

>  <PUBCHEM_MMFF94_PARTIAL_CHARGES>  (1) 
22
1 -0.36
10 -0.15
11 -0.15
12 0.1
13 -0.15
14 -0.15
15 -0.15
16 0.28
19 0.15
2 -0.9
20 0.15
21 0.15
22 0.15
23 0.15
24 0.15
25 0.4
26 0.4
3 -0.14
4 0.29
6 -0.14
8 0.08
9 -0.15

>  <PUBCHEM_EFFECTIVE_ROTOR_COUNT>  (1) 
1.2

>  <PUBCHEM_PHARMACOPHORE_FEATURES>  (1) 
6
1 1 acceptor
1 2 cation
1 2 donor
5 3 4 5 6 7 rings
6 3 5 8 9 12 13 rings
6 6 7 10 11 14 15 rings

>  <PUBCHEM_HEAVY_ATOM_COUNT>  (1) 
16

>  <PUBCHEM_ATOM_DEF_STEREO_COUNT>  (1) 
0

>  <PUBCHEM_ATOM_UDEF_STEREO_COUNT>  (1) 
0

>  <PUBCHEM_BOND_DEF_STEREO_COUNT>  (1) 
0

>  <PUBCHEM_BOND_UDEF_STEREO_COUNT>  (1) 
0

>  <PUBCHEM_ISOTOPIC_ATOM_COUNT>  (1) 
0

>  <PUBCHEM_COMPONENT_COUNT>  (1) 
1

>  <PUBCHEM_CACTVS_TAUTO_COUNT>  (1) 
1

>  <PUBCHEM_CONFORMER_ID>  (1) 
00005B1E00000001

>  <PUBCHEM_MMFF94_ENERGY>  (1) 
74.3572

>  <PUBCHEM_FEATURE_SELFOVERLAP>  (1) 
30.61

>  <PUBCHEM_SHAPE_FINGERPRINT>  (1) 
10411042 1 15745848573605759302
10608611 8 18412260666380596600
10922523 26 18412267237574772270
10967382 1 18412265064337274474
11132069 177 18341890852671491610
11471102 20 18340767138950514270
12032990 46 18412552024029478594
12500047 106 18410568462124448732
12730499 353 17828760639358809797
13140716 1 18339361833977278554
13221675 6 18338799021510601434
13296908 3 18342741801767624894
13380535 76 18269834233359044239
14144814 61 18411420622258889506
14325111 11 18411420600736599608
15196674 1 18411419488572042074
15219456 202 18341894082560627676
15442244 35 18339079290028691874
15536298 74 18272090522020111194
16945 1 18267302225594452570
17802600 8 18412541041550020529
17844478 74 18261119620435695819
18186145 218 18271251508384898732
200 152 17774996912734645159
20510252 161 18343586239450972265
21267235 1 18411429427137349746
21501502 16 18411138065071628950
2334 1 18411982463862724528
23402539 116 18342169012318688727
23463225 33 18410576201803059726
23559900 14 18200030634881402670
238 59 17033557511448472077
25 1 18122056507974924605
2748010 2 18412548682265146148
335352 9 18122907530001008814
350125 39 18410862070515853841
474 4 17024318637610678412
5104073 3 18411136918473584978
559249 180 18262512577583963602
69090 78 18272368706630191839
7364860 26 18126848420304233928
8809292 202 18263367047878105042
9709674 26 18341619234713777782

>  <PUBCHEM_SHAPE_MULTIPOLES>  (1) 
318.42
6.73
2.27
0.67
1.74
0.18
-0.04
0.66
-0.29
-1.26
-0.23
-0.11
0.1
0.42

>  <PUBCHEM_SHAPE_SELFOVERLAP>  (1) 
710.828

>  <PUBCHEM_SHAPE_VOLUME>  (1) 
172.2

>  <PUBCHEM_COORDINATE_TYPE>  (1) 
2
5
10

$$$$
