23329
     RDKit          3D

 15 15  0  0  0  0  0  0  0  0999 V2000
   -2.0546   -0.0655    0.0164 N   0  0  0  0  0  0  0  0  0  0  0  0
    2.3433    1.2579   -0.3205 N   0  0  0  0  0  0  0  0  0  0  0  0
   -0.6083    0.0677    0.4710 C   0  0  0  0  0  0  0  0  0  0  0  0
   -2.2509   -1.4133   -0.6628 C   0  0  0  0  0  0  0  0  0  0  0  0
   -2.9766    0.0337    1.2231 C   0  0  0  0  0  0  0  0  0  0  0  0
   -2.3826    1.0499   -0.9657 C   0  0  0  0  0  0  0  0  0  0  0  0
    0.3324   -0.0292   -0.7253 C   0  0  0  0  0  0  0  0  0  0  0  0
   -1.9234   -2.5178    0.3182 C   0  0  0  0  0  0  0  0  0  0  0  0
   -2.7770    1.3753    1.8938 C   0  0  0  0  0  0  0  0  0  0  0  0
   -3.8213    0.9122   -1.4138 C   0  0  0  0  0  0  0  0  0  0  0  0
    1.7931    0.0314   -0.3524 C   0  0  0  0  0  0  0  0  0  0  0  0
    2.4553   -1.1445   -0.0750 C   0  0  0  0  0  0  0  0  0  0  0  0
    3.8004   -1.0544    0.2654 C   0  0  0  0  0  0  0  0  0  0  0  0
    3.6523    1.3061    0.0143 C   0  0  0  0  0  0  0  0  0  0  0  0
    4.4178    0.1906    0.3132 C   0  0  0  0  0  0  0  0  0  0  0  0
  1  3  1  0
  1  4  1  0
  1  5  1  0
  1  6  1  0
  2 11  2  0
  2 14  1  0
  3  7  1  0
  4  8  1  0
  5  9  1  0
  6 10  1  0
  7 11  1  0
 11 12  1  0
 12 13  2  0
 13 15  1  0
 14 15  2  0
M  CHG  1   1   1
M  END
>  <PUBCHEM_COMPOUND_CID>  (1) 
23329

>  <PUBCHEM_CONFORMER_RMSD>  (1) 
0.6

>  <PUBCHEM_CONFORMER_DIVERSEORDER>  (1) 
8
10
1
3
7
2
4
5
12
11
6
9

>  <PUBCHEM_MMFF94_PARTIAL_CHARGES>  (1) 
16
1 -1.01
11 0.17
12 -0.15
13 -0.15
14 0.16
15 -0.15
2 -0.62
3 0.5
35 0.15
36 0.15
37 0.15
38 0.15
4 0.5
5 0.5
6 0.5
7 0.14

>  <PUBCHEM_EFFECTIVE_ROTOR_COUNT>  (1) 
6

>  <PUBCHEM_PHARMACOPHORE_FEATURES>  (1) 
3
1 1 cation
1 2 acceptor
6 2 11 12 13 14 15 rings

>  <PUBCHEM_HEAVY_ATOM_COUNT>  (1) 
15

>  <PUBCHEM_ATOM_DEF_STEREO_COUNT>  (1) 
0

>  <PUBCHEM_ATOM_UDEF_STEREO_COUNT>  (1) 
0

>  <PUBCHEM_BOND_DEF_STEREO_COUNT>  (1) 
0

>  <PUBCHEM_BOND_UDEF_STEREO_COUNT>  (1) 
0

>  <PUBCHEM_ISOTOPIC_ATOM_COUNT>  (1) 
0

>  <PUBCHEM_COMPONENT_COUNT>  (1) 
1

>  <PUBCHEM_CACTVS_TAUTO_COUNT>  (1) 
2

>  <PUBCHEM_CONFORMER_ID>  (1) 
00005B2100000008

>  <PUBCHEM_MMFF94_ENERGY>  (1) 
55.9533

>  <PUBCHEM_FEATURE_SELFOVERLAP>  (1) 
15.223

>  <PUBCHEM_SHAPE_FINGERPRINT>  (1) 
10014705 185 18261103093180105253
10366900 7 17632286887497145610
10608611 8 18334850658370755404
10680689 15 18040438802103970998
10922523 26 17894912893127726630
11132069 177 18335413582749285172
12173636 292 18059587866580188865
12251169 10 18412835685012453336
124424 183 17968089781486785236
12500047 106 18334001800833777446
12507557 5 18341324587262099016
12592029 89 18042959883709476315
12932764 1 18187654604264260542
13024252 1 15430035479017860035
13296908 3 17385445418791000940
13675066 3 17603589607994455088
13764800 53 17131571486603992699
14004511 7 18341334418204414258
14144814 61 18341897372479222136
14289901 80 17894910780294038492
14445660 50 18341339954417291384
14577589 140 17822009779006452519
15653759 3 17167868547259262812
18186145 218 18412270523509687558
187816 3 17917980677807908941
200 152 17988632030422212687
20279233 1 18186518787193515950
20645477 56 18187359930837413661
20645477 70 18262508183526419214
21339142 149 17418094304497829691
22169311 21 18410284835448094622
22959321 105 18336262448332761990
2306618 200 18411134736598899929
23402539 116 17989199331441378597
23559900 14 18340196424197459698
3248919 1 17917714591066016982
5104073 3 18410570725999346074
633830 44 17775016691085644492
69090 78 18261383434596569215
74978 22 18409728465152377812
93112 12 18335133198388299900
9709674 26 18410291428028365110

>  <PUBCHEM_SHAPE_MULTIPOLES>  (1) 
298.73
8.18
1.81
1.27
5.43
0.87
-0.29
-1.43
-0.24
-0.74
-0.15
-1.67
-0.47
-0.14

>  <PUBCHEM_SHAPE_SELFOVERLAP>  (1) 
589.56

>  <PUBCHEM_SHAPE_VOLUME>  (1) 
178

>  <PUBCHEM_COORDINATE_TYPE>  (1) 
2
5
10

$$$$
