23331
     RDKit          3D

 12 12  0  0  0  0  0  0  0  0999 V2000
   -2.7643    0.0008    0.1196 N   0  0  0  0  0  0  0  0  0  0  0  0
    1.6377   -1.1936   -0.1654 N   0  0  0  0  0  0  0  0  0  0  0  0
   -1.3086    0.0481    0.5612 C   0  0  0  0  0  0  0  0  0  0  0  0
   -0.3876    0.0396   -0.6541 C   0  0  0  0  0  0  0  0  0  0  0  0
   -3.6669    0.0130    1.3450 C   0  0  0  0  0  0  0  0  0  0  0  0
   -3.0706    1.2130   -0.7482 C   0  0  0  0  0  0  0  0  0  0  0  0
   -3.0112   -1.2707   -0.6795 C   0  0  0  0  0  0  0  0  0  0  0  0
    1.0792    0.0221   -0.3010 C   0  0  0  0  0  0  0  0  0  0  0  0
    1.7373    1.2219   -0.1437 C   0  0  0  0  0  0  0  0  0  0  0  0
    3.0882    1.1707    0.1815 C   0  0  0  0  0  0  0  0  0  0  0  0
    2.9520   -1.2036    0.1510 C   0  0  0  0  0  0  0  0  0  0  0  0
    3.7148   -0.0614    0.3336 C   0  0  0  0  0  0  0  0  0  0  0  0
  1  3  1  0
  1  5  1  0
  1  6  1  0
  1  7  1  0
  2  8  2  0
  2 11  1  0
  3  4  1  0
  4  8  1  0
  8  9  1  0
  9 10  2  0
 10 12  1  0
 11 12  2  0
M  CHG  1   1   1
M  END
>  <PUBCHEM_COMPOUND_CID>  (1) 
23331

>  <PUBCHEM_CONFORMER_RMSD>  (1) 
0.6

>  <PUBCHEM_CONFORMER_DIVERSEORDER>  (1) 
1
2

>  <PUBCHEM_MMFF94_PARTIAL_CHARGES>  (1) 
16
1 -1.01
10 -0.15
11 0.16
12 -0.15
2 -0.62
26 0.15
27 0.15
28 0.15
29 0.15
3 0.5
4 0.14
5 0.5
6 0.5
7 0.5
8 0.17
9 -0.15

>  <PUBCHEM_EFFECTIVE_ROTOR_COUNT>  (1) 
3

>  <PUBCHEM_PHARMACOPHORE_FEATURES>  (1) 
3
1 1 cation
1 2 acceptor
6 2 8 9 10 11 12 rings

>  <PUBCHEM_HEAVY_ATOM_COUNT>  (1) 
12

>  <PUBCHEM_ATOM_DEF_STEREO_COUNT>  (1) 
0

>  <PUBCHEM_ATOM_UDEF_STEREO_COUNT>  (1) 
0

>  <PUBCHEM_BOND_DEF_STEREO_COUNT>  (1) 
0

>  <PUBCHEM_BOND_UDEF_STEREO_COUNT>  (1) 
0

>  <PUBCHEM_ISOTOPIC_ATOM_COUNT>  (1) 
0

>  <PUBCHEM_COMPONENT_COUNT>  (1) 
1

>  <PUBCHEM_CACTVS_TAUTO_COUNT>  (1) 
2

>  <PUBCHEM_CONFORMER_ID>  (1) 
00005B2300000001

>  <PUBCHEM_MMFF94_ENERGY>  (1) 
38.7426

>  <PUBCHEM_FEATURE_SELFOVERLAP>  (1) 
15.223

>  <PUBCHEM_SHAPE_FINGERPRINT>  (1) 
10219947 1 18335419084460031604
10608611 8 18334570239608073772
10922523 26 18187927227244828549
10980938 120 18412542137251971148
12251169 10 18343025488568051457
124424 183 18114453466346022101
12932764 1 18410580586695552861
13296908 3 17967816033055831211
14144814 61 18272088300910089422
14325111 11 18411416232622880404
14445660 50 18131078142651313427
15219456 202 18333446521586542644
15501101 241 18334293180300608284
15775835 57 18202569509332972625
18186145 218 18201443570929627958
190213 19 17632856429961518030
200 152 18201708583723974303
20201158 50 18259983760399473442
20279233 1 17749105595390647627
20645477 70 18337944584990818135
20871998 22 17983862186168276046
23402655 69 18411416189689298188
3248919 1 17346882230226840815
57812782 119 18113052748782973441
581208 293 18335134323891322702
69090 78 18409165532748480627

>  <PUBCHEM_SHAPE_MULTIPOLES>  (1) 
236.99
7.36
1.34
0.94
1.11
0.02
0.15
0.05
1.12
-0.29
-0.19
0.84
-0.01
0.01

>  <PUBCHEM_SHAPE_SELFOVERLAP>  (1) 
468.631

>  <PUBCHEM_SHAPE_VOLUME>  (1) 
143.4

>  <PUBCHEM_COORDINATE_TYPE>  (1) 
2
5
10

$$$$
