23334
     RDKit          3D

 19 20  0  0  0  0  0  0  0  0999 V2000
    2.9087    3.9921   -0.4870 Cl  0  0  0  0  0  0  0  0  0  0  0  0
    6.1034   -2.0790    0.3708 Cl  0  0  0  0  0  0  0  0  0  0  0  0
    2.6785    0.0237    0.1458 N   0  0  0  0  0  0  0  0  0  0  0  0
   -0.5160   -0.8572   -1.2677 N   0  0  0  0  0  0  0  0  0  0  0  0
   -0.1806   -0.3735    0.8755 N   0  0  0  0  0  0  0  0  0  0  0  0
    1.8240   -1.0049   -0.4671 C   0  0  0  0  0  0  0  0  0  0  0  0
    0.3900   -0.7383   -0.2507 C   0  0  0  0  0  0  0  0  0  0  0  0
   -1.7535   -0.5485   -0.7641 C   0  0  0  0  0  0  0  0  0  0  0  0
    2.3783    1.3326   -0.4258 C   0  0  0  0  0  0  0  0  0  0  0  0
    4.0858   -0.3140   -0.0436 C   0  0  0  0  0  0  0  0  0  0  0  0
   -1.5177   -0.2502    0.5750 C   0  0  0  0  0  0  0  0  0  0  0  0
   -3.0204   -0.5060   -1.3473 C   0  0  0  0  0  0  0  0  0  0  0  0
   -4.0843   -0.1415   -0.5155 C   0  0  0  0  0  0  0  0  0  0  0  0
   -3.8792    0.1636    0.8319 C   0  0  0  0  0  0  0  0  0  0  0  0
   -2.5982    0.1142    1.3959 C   0  0  0  0  0  0  0  0  0  0  0  0
    3.2818    2.3892    0.1908 C   0  0  0  0  0  0  0  0  0  0  0  0
    4.3843   -1.6683    0.5806 C   0  0  0  0  0  0  0  0  0  0  0  0
   -5.4577   -0.0863   -1.1054 C   0  0  0  0  0  0  0  0  0  0  0  0
   -5.0272    0.5522    1.7077 C   0  0  0  0  0  0  0  0  0  0  0  0
  1 16  1  0
  2 17  1  0
  3  6  1  0
  3  9  1  0
  3 10  1  0
  4  7  1  0
  4  8  1  0
  5  7  2  0
  5 11  1  0
  6  7  1  0
  8 11  2  0
  8 12  1  0
  9 16  1  0
 10 17  1  0
 11 15  1  0
 12 13  2  0
 13 14  1  0
 13 18  1  0
 14 15  2  0
 14 19  1  0
M  END
>  <PUBCHEM_COMPOUND_CID>  (1) 
23334

>  <PUBCHEM_CONFORMER_RMSD>  (1) 
0.8

>  <PUBCHEM_CONFORMER_DIVERSEORDER>  (1) 
1
12
13
6
11
5
8
15
2
9
14
10
7
4
3
16

>  <PUBCHEM_MMFF94_PARTIAL_CHARGES>  (1) 
22
1 -0.29
10 0.27
11 0.23
12 -0.15
13 -0.14
14 -0.14
15 -0.15
16 0.29
17 0.29
18 0.14
19 0.14
2 -0.29
26 0.27
27 0.15
28 0.15
3 -0.81
4 0.03
5 -0.57
6 0.45
7 0.01
8 -0.15
9 0.27

>  <PUBCHEM_EFFECTIVE_ROTOR_COUNT>  (1) 
6

>  <PUBCHEM_PHARMACOPHORE_FEATURES>  (1) 
5
1 3 cation
1 4 donor
3 4 5 7 cation
5 4 5 7 8 11 rings
6 8 11 12 13 14 15 rings

>  <PUBCHEM_HEAVY_ATOM_COUNT>  (1) 
19

>  <PUBCHEM_ATOM_DEF_STEREO_COUNT>  (1) 
0

>  <PUBCHEM_ATOM_UDEF_STEREO_COUNT>  (1) 
0

>  <PUBCHEM_BOND_DEF_STEREO_COUNT>  (1) 
0

>  <PUBCHEM_BOND_UDEF_STEREO_COUNT>  (1) 
0

>  <PUBCHEM_ISOTOPIC_ATOM_COUNT>  (1) 
0

>  <PUBCHEM_COMPONENT_COUNT>  (1) 
1

>  <PUBCHEM_CACTVS_TAUTO_COUNT>  (1) 
1

>  <PUBCHEM_CONFORMER_ID>  (1) 
00005B2600000001

>  <PUBCHEM_MMFF94_ENERGY>  (1) 
36.7223

>  <PUBCHEM_FEATURE_SELFOVERLAP>  (1) 
25.481

>  <PUBCHEM_SHAPE_FINGERPRINT>  (1) 
10366900 7 17458339702269883226
10937287 8 17617378828554452020
11045977 3 17894353293380742971
11405975 8 18409451422460980874
11545043 162 17095248012026491145
12166972 35 18202277000933588032
12236239 1 17917426510604016026
12403259 118 18130798819680247193
12403259 415 17385444327922029261
12403260 363 18343300357843187665
12616971 3 18202572773967021201
12916754 54 18337385036904514351
13134695 92 18335137588383161020
13583140 156 18187648041417439531
13590594 115 18337110056214169984
13675066 3 17313386755353715039
13911852 28 18121212074803654250
14739800 52 17202187711720337856
15342168 16 18192157215923065805
17804303 29 15357986663587377111
17980427 23 17346305008508837100
1813 80 18270970025504140630
18186145 218 18408044034697540318
192875 21 18343302556987671944
19433438 15 17917996083349203645
20612939 158 18411697712100494612
20832881 197 17968652710292385522
21033648 29 17458334265073603221
21065201 7 15936406749663572779
212916 134 15936676143403980593
2297311 6 15792022133889231151
23175994 123 18260267404688024934
23366157 5 17487641640544121991
23402539 116 16056587725481304618
23557571 272 14476970011967731314
23559900 14 16732703843739401638
345986 75 18120921825303054618
4409770 3 15894789895213431822
474 4 18339078323323563528
5104073 3 18272936067515065771
53777708 50 18198056087411146366
57724786 102 18261120715542268556
633830 44 18200609063189791399
67856867 119 18059284474369750376
9971528 1 18342170060527773768
9981440 41 17549524654657781576

>  <PUBCHEM_SHAPE_MULTIPOLES>  (1) 
379.81
12.5
2.54
1.3
0.83
3.65
0.15
-3.03
1.54
6.16
-0.26
-1.87
-0.06
-1.14

>  <PUBCHEM_SHAPE_SELFOVERLAP>  (1) 
772.719

>  <PUBCHEM_SHAPE_VOLUME>  (1) 
224.6

>  <PUBCHEM_COORDINATE_TYPE>  (1) 
2
5
10

$$$$
