23335
     RDKit          3D

 20 23  0  0  1  0  0  0  0  0999 V2000
    0.4760    2.7636   -0.3807 O   0  0  0  0  0  0  0  0  0  0  0  0
    3.1200    2.2962   -0.4329 O   0  0  0  0  0  0  0  0  0  0  0  0
    0.1642   -3.3675   -0.1290 N   0  0  0  0  0  0  0  0  0  0  0  0
   -0.4214   -2.0785    0.2694 C   0  0  0  0  0  0  0  0  0  0  0  0
    0.5170   -0.9031    0.0492 C   0  0  0  0  0  0  0  0  0  0  0  0
   -1.7315   -1.8693   -0.5050 C   0  0  0  0  0  0  0  0  0  0  0  0
    1.9076   -1.1227   -0.0118 C   0  0  0  0  0  0  0  0  0  0  0  0
   -0.0209    0.4051   -0.0258 C   0  0  0  0  0  0  0  0  0  0  0  0
    2.4648   -2.5232    0.0181 C   0  0  0  0  0  0  0  0  0  0  0  0
    1.4587   -3.5570    0.5239 C   0  0  0  0  0  0  0  0  0  0  0  0
   -2.3378   -0.5213   -0.1848 C   0  0  0  0  0  0  0  0  0  0  0  0
   -1.4911    0.5900    0.0408 C   0  0  0  0  0  0  0  0  0  0  0  0
    0.8790    1.4721   -0.1881 C   0  0  0  0  0  0  0  0  0  0  0  0
    2.7700   -0.0361   -0.1743 C   0  0  0  0  0  0  0  0  0  0  0  0
    2.2573    1.2542   -0.2587 C   0  0  0  0  0  0  0  0  0  0  0  0
   -3.7330   -0.3762   -0.1623 C   0  0  0  0  0  0  0  0  0  0  0  0
   -2.0987    1.8252    0.3277 C   0  0  0  0  0  0  0  0  0  0  0  0
   -4.3058    0.8608    0.1151 C   0  0  0  0  0  0  0  0  0  0  0  0
   -3.4898    1.9586    0.3648 C   0  0  0  0  0  0  0  0  0  0  0  0
    3.6154    2.9291    0.7444 C   0  0  0  0  0  0  0  0  0  0  0  0
  1 13  1  0
  2 15  1  0
  2 20  1  0
  3  4  1  0
  3 10  1  0
  4  5  1  0
  4  6  1  0
  5  7  2  0
  5  8  1  0
  6 11  1  0
  7  9  1  0
  7 14  1  0
  8 12  1  0
  8 13  2  0
  9 10  1  0
 11 12  2  0
 11 16  1  0
 12 17  1  0
 13 15  1  0
 14 15  2  0
 16 18  2  0
 17 19  2  0
 18 19  1  0
M  END
>  <PUBCHEM_COMPOUND_CID>  (1) 
23335

>  <PUBCHEM_CONFORMER_RMSD>  (1) 
0.6

>  <PUBCHEM_CONFORMER_DIVERSEORDER>  (1) 
1

>  <PUBCHEM_MMFF94_PARTIAL_CHARGES>  (1) 
25
1 -0.53
10 0.27
11 -0.14
13 0.08
14 -0.15
15 0.08
16 -0.15
17 -0.15
18 -0.15
19 -0.15
2 -0.36
20 0.28
26 0.36
29 0.15
3 -0.9
30 0.15
31 0.15
32 0.15
33 0.15
34 0.45
4 0.41
5 -0.14
6 0.14
7 -0.14
9 0.14

>  <PUBCHEM_EFFECTIVE_ROTOR_COUNT>  (1) 
1.8

>  <PUBCHEM_PHARMACOPHORE_FEATURES>  (1) 
8
1 1 donor
1 2 acceptor
1 3 cation
1 3 donor
6 11 12 16 17 18 19 rings
6 3 4 5 7 9 10 rings
6 4 5 6 8 11 12 rings
6 5 7 8 13 14 15 rings

>  <PUBCHEM_HEAVY_ATOM_COUNT>  (1) 
20

>  <PUBCHEM_ATOM_DEF_STEREO_COUNT>  (1) 
1

>  <PUBCHEM_ATOM_UDEF_STEREO_COUNT>  (1) 
0

>  <PUBCHEM_BOND_DEF_STEREO_COUNT>  (1) 
0

>  <PUBCHEM_BOND_UDEF_STEREO_COUNT>  (1) 
0

>  <PUBCHEM_ISOTOPIC_ATOM_COUNT>  (1) 
0

>  <PUBCHEM_COMPONENT_COUNT>  (1) 
1

>  <PUBCHEM_CACTVS_TAUTO_COUNT>  (1) 
3

>  <PUBCHEM_CONFORMER_ID>  (1) 
00005B2700000001

>  <PUBCHEM_MMFF94_ENERGY>  (1) 
71.4586

>  <PUBCHEM_FEATURE_SELFOVERLAP>  (1) 
40.686

>  <PUBCHEM_SHAPE_FINGERPRINT>  (1) 
10319926 262 17622989602543094864
10411042 1 17617658752847359179
10493431 412 18267306615199112025
10967382 1 18410013204293755351
1100329 8 18410572864619161426
11370993 70 18339636862245475048
11578080 2 12077792883935862353
11680986 33 18335711549925951331
12173636 292 18267020733601669781
12553582 1 17905608796103482671
12788726 201 17108189539243434536
13132413 78 17980760437325895551
13140716 1 18409164420124864002
138480 1 18122063100617705554
14178342 30 18339911735872957880
14223421 5 18334862693058801843
14790565 3 18337121103001917684
14955137 171 17693972620561941755
15042514 8 17615689974145467634
15196674 1 18411420631091527509
15442244 35 18123471566517832689
15475509 35 16879651271416947825
15475509 8 17053048562283643815
15536298 74 18343021047318679316
16945 1 18049729812486427772
19591789 44 18409736179061516398
20510252 161 18054233407818889713
20645477 70 18261950744231894077
20671657 1 18339929207720673054
21267235 1 18123479276221915003
221490 88 18335713693499896843
2255824 54 18338239258554698062
2334 1 18410294739278591412
23366157 5 18114185189930412466
23419403 2 17461696442871896830
23463225 33 18122064200250750071
23558518 356 18189618434884349922
23559900 14 18268422438985662009
2748010 2 18336276724756704454
3071541 12 18339082588109881462
3091708 16 9259963217144880682
335352 9 17689717459323352645
350125 39 18410015433249828688
352729 6 17832147499389179870
43471831 8 18336826489223791595
474 4 18409165506635460697
5104073 3 18409173178043352497
58807428 26 18337375124457332832
5939293 188 18052256198070425951
6992083 37 17406563502349856729
7364860 26 18339642230991160938
7832392 63 18196370308436486119
81228 2 17476369768814922770
84936 182 18272650147157649712
90316 7 17327166655238061363
9981440 41 18265325295182160602

>  <PUBCHEM_SHAPE_MULTIPOLES>  (1) 
394.87
6.12
4.13
0.7
3.8
1.11
0.03
-3.17
0.39
-3.6
0.42
-0.08
-0.05
-0.27

>  <PUBCHEM_SHAPE_SELFOVERLAP>  (1) 
881.379

>  <PUBCHEM_SHAPE_VOLUME>  (1) 
208.6

>  <PUBCHEM_COORDINATE_TYPE>  (1) 
2
5
10

$$$$
