23336
     RDKit          3D

 14 13  0  0  0  0  0  0  0  0999 V2000
    4.2000   -0.7924   -0.0175 O   0  0  0  0  0  0  0  0  0  0  0  0
   -4.2000    0.7925   -0.0236 O   0  0  0  0  0  0  0  0  0  0  0  0
    3.3426    1.3522    0.0671 O   0  0  0  0  0  0  0  0  0  0  0  0
   -3.3419   -1.3524    0.0457 O   0  0  0  0  0  0  0  0  0  0  0  0
    0.6706    0.3724    0.0264 C   0  0  0  0  0  0  0  0  0  0  0  0
   -0.6703   -0.3733    0.0360 C   0  0  0  0  0  0  0  0  0  0  0  0
    1.8658   -0.5808    0.0499 C   0  0  0  0  0  0  0  0  0  0  0  0
   -1.8652    0.5802    0.0109 C   0  0  0  0  0  0  0  0  0  0  0  0
    3.1990    0.1366    0.0448 C   0  0  0  0  0  0  0  0  0  0  0  0
   -3.1985   -0.1368    0.0235 C   0  0  0  0  0  0  0  0  0  0  0  0
    5.4384   -0.3056   -0.0567 C   0  0  0  0  0  0  0  0  0  0  0  0
   -5.4389    0.3061   -0.0467 C   0  0  0  0  0  0  0  0  0  0  0  0
    6.5548    0.1330   -0.0934 C   0  0  0  0  0  0  0  0  0  0  0  0
   -6.5561   -0.1316   -0.0664 C   0  0  0  0  0  0  0  0  0  0  0  0
  1  9  1  0
  1 11  1  0
  2 10  1  0
  2 12  1  0
  3  9  2  0
  4 10  2  0
  5  6  1  0
  5  7  1  0
  6  8  1  0
  7  9  1  0
  8 10  1  0
 11 13  3  0
 12 14  3  0
M  END
>  <PUBCHEM_COMPOUND_CID>  (1) 
23336

>  <PUBCHEM_CONFORMER_RMSD>  (1) 
0.8

>  <PUBCHEM_CONFORMER_DIVERSEORDER>  (1) 
1
154
6
133
87
28
155
126
165
38
162
145
95
19
134
88
143
89
148
101
93
52
59
166
9
78
34
13
144
137
97
129
151
81
110
11
163
40
29
130
153
124
15
10
58
5
167
104
14
49
24
43
140
85
120
102
100
26
160
123
156
96
36
99
80
17
147
157
23
45
7
117
27
76
39
141
69
131
152
63
106
73
107
83
111
116
33
164
142
112
67
30
90
94
121
75
159
31
53
2
113
48
42
161
16
64
20
32
77
68
136
132
127
54
65
135
18
66
4
119
72
115
91
37
50
57
21
125
139
60
118
122
62
108
56
86
92
46
146
8
114
12
138
79
35
3
51
149
41
128
82
22
44
70
98
84
158
55
25
71
74
103
150
105
47
109
61

>  <PUBCHEM_MMFF94_PARTIAL_CHARGES>  (1) 
14
1 -0.19
10 0.66
11 0.04
12 0.04
13 -0.18
14 -0.18
2 -0.19
23 0.18
24 0.18
3 -0.57
4 -0.57
7 0.06
8 0.06
9 0.66

>  <PUBCHEM_EFFECTIVE_ROTOR_COUNT>  (1) 
7

>  <PUBCHEM_PHARMACOPHORE_FEATURES>  (1) 
3
1 3 acceptor
1 4 acceptor
4 5 6 7 8 hydrophobe

>  <PUBCHEM_HEAVY_ATOM_COUNT>  (1) 
14

>  <PUBCHEM_ATOM_DEF_STEREO_COUNT>  (1) 
0

>  <PUBCHEM_ATOM_UDEF_STEREO_COUNT>  (1) 
0

>  <PUBCHEM_BOND_DEF_STEREO_COUNT>  (1) 
0

>  <PUBCHEM_BOND_UDEF_STEREO_COUNT>  (1) 
0

>  <PUBCHEM_ISOTOPIC_ATOM_COUNT>  (1) 
0

>  <PUBCHEM_COMPONENT_COUNT>  (1) 
1

>  <PUBCHEM_CACTVS_TAUTO_COUNT>  (1) 
1

>  <PUBCHEM_CONFORMER_ID>  (1) 
00005B2800000001

>  <PUBCHEM_MMFF94_ENERGY>  (1) 
8.28

>  <PUBCHEM_FEATURE_SELFOVERLAP>  (1) 
15.223

>  <PUBCHEM_SHAPE_FINGERPRINT>  (1) 
10968037 39 18409730664629288039
12091667 2 17821729430007284585
12815109 37 18410293605391407462
13533116 47 15123515753351227382
1420 363 18333456438998202051
14251764 46 17022621979135437659
15242439 84 18410573993746667146
17834072 33 18272930553135317997
17834072 8 18410855464428403982
17834076 25 16443064997466149530
187816 3 16056880230071356843
20281389 69 18113897152254483020
20645477 70 18200878357455245118
23402539 116 18343578555627736102
23521765 1 18341894086539083791
23559900 14 18341607165617896624
3545911 37 18410856555355404263
42788 4 18410856555561171556
8209 1 18410573980861765109

>  <PUBCHEM_SHAPE_MULTIPOLES>  (1) 
264.64
17.28
0.96
0.59
0.01
0
0
-0.01
-0.64
0
0.01
0
0
0.03

>  <PUBCHEM_SHAPE_SELFOVERLAP>  (1) 
509.135

>  <PUBCHEM_SHAPE_VOLUME>  (1) 
158.9

>  <PUBCHEM_COORDINATE_TYPE>  (1) 
2
5
10

$$$$
