23345
     RDKit          3D

 17 19  0  0  0  0  0  0  0  0999 V2000
    0.2220    1.2093   -0.0001 N   0  0  0  0  0  0  0  0  0  0  0  0
    0.6831   -1.1400    0.0000 C   0  0  0  0  0  0  0  0  0  0  0  0
   -0.3196   -0.0296   -0.0001 C   0  0  0  0  0  0  0  0  0  0  0  0
   -1.6910   -0.2924   -0.0001 C   0  0  0  0  0  0  0  0  0  0  0  0
   -2.5657    0.8139   -0.0002 C   0  0  0  0  0  0  0  0  0  0  0  0
    2.1199   -0.6642   -0.0001 C   0  0  0  0  0  0  0  0  0  0  0  0
   -2.2139   -1.5961    0.0002 C   0  0  0  0  0  0  0  0  0  0  0  0
   -2.0248    2.1050   -0.0003 C   0  0  0  0  0  0  0  0  0  0  0  0
   -3.9520    0.5890    0.0000 C   0  0  0  0  0  0  0  0  0  0  0  0
    2.7611   -0.4517    1.2080 C   0  0  0  0  0  0  0  0  0  0  0  0
    2.7614   -0.4525   -1.2081 C   0  0  0  0  0  0  0  0  0  0  0  0
   -0.6453    2.2439   -0.0003 C   0  0  0  0  0  0  0  0  0  0  0  0
   -3.5933   -1.8011    0.0002 C   0  0  0  0  0  0  0  0  0  0  0  0
   -4.4605   -0.7110    0.0002 C   0  0  0  0  0  0  0  0  0  0  0  0
    4.0853   -0.0134    1.2081 C   0  0  0  0  0  0  0  0  0  0  0  0
    4.0857   -0.0144   -1.2079 C   0  0  0  0  0  0  0  0  0  0  0  0
    4.7476    0.2051    0.0003 C   0  0  0  0  0  0  0  0  0  0  0  0
  1  3  2  0
  1 12  1  0
  2  3  1  0
  2  6  1  0
  3  4  1  0
  4  5  2  0
  4  7  1  0
  5  8  1  0
  5  9  1  0
  6 10  2  0
  6 11  1  0
  7 13  2  0
  8 12  2  0
  9 14  2  0
 10 15  1  0
 11 16  2  0
 13 14  1  0
 15 17  2  0
 16 17  1  0
M  END
>  <PUBCHEM_COMPOUND_CID>  (1) 
23345

>  <PUBCHEM_CONFORMER_RMSD>  (1) 
0.6

>  <PUBCHEM_CONFORMER_DIVERSEORDER>  (1) 
1
8
2
11
9
10
3
4
7
5
6

>  <PUBCHEM_MMFF94_PARTIAL_CHARGES>  (1) 
26
1 -0.62
10 -0.15
11 -0.15
12 0.16
13 -0.15
14 -0.15
15 -0.15
16 -0.15
17 -0.15
2 0.29
20 0.15
21 0.15
22 0.15
23 0.15
24 0.15
25 0.15
26 0.15
27 0.15
28 0.15
29 0.15
3 0.17
30 0.15
6 -0.14
7 -0.15
8 -0.15
9 -0.15

>  <PUBCHEM_EFFECTIVE_ROTOR_COUNT>  (1) 
2

>  <PUBCHEM_PHARMACOPHORE_FEATURES>  (1) 
4
1 1 acceptor
6 1 3 4 5 8 12 rings
6 4 5 7 9 13 14 rings
6 6 10 11 15 16 17 rings

>  <PUBCHEM_HEAVY_ATOM_COUNT>  (1) 
17

>  <PUBCHEM_ATOM_DEF_STEREO_COUNT>  (1) 
0

>  <PUBCHEM_ATOM_UDEF_STEREO_COUNT>  (1) 
0

>  <PUBCHEM_BOND_DEF_STEREO_COUNT>  (1) 
0

>  <PUBCHEM_BOND_UDEF_STEREO_COUNT>  (1) 
0

>  <PUBCHEM_ISOTOPIC_ATOM_COUNT>  (1) 
0

>  <PUBCHEM_COMPONENT_COUNT>  (1) 
1

>  <PUBCHEM_CACTVS_TAUTO_COUNT>  (1) 
1

>  <PUBCHEM_CONFORMER_ID>  (1) 
00005B3100000001

>  <PUBCHEM_MMFF94_ENERGY>  (1) 
52.7519

>  <PUBCHEM_FEATURE_SELFOVERLAP>  (1) 
20.324

>  <PUBCHEM_SHAPE_FINGERPRINT>  (1) 
10062212 137 18259987097789444463
10498660 4 18410575046272481300
11132069 177 18413109446280660775
11543360 7 15791733057078609459
11552529 35 15051155926385113967
12173636 292 18050846624501604309
12236239 1 17749107786203724650
12390115 104 17914347779599989273
12553582 1 18410011082928512435
12592029 89 14490460976527502393
128620 24 18334860515162288182
13140716 1 18266462182121761139
13214271 11 18271801328660109247
14004511 7 8070028869602051943
14386348 63 17917714599608576182
14790565 3 17907866102693658065
15375358 24 18201717345019622391
15375462 189 18040432196307301979
15536298 74 18270399524154375672
16945 1 18410573942639751493
17349148 13 17603302639981549914
17804303 29 18342738546309171153
18186145 218 12324237248085559191
19050596 39 18114178623057175546
19141452 34 17775005738914057367
192875 21 17095523993951195660
200 152 16370721526294655342
20028762 73 17985833868284267807
20510252 161 18200313212868156233
21029758 27 18260555562771063125
21079973 296 18342174496395638082
21267235 1 18337963375963114307
21486144 27 16415183612027425626
22854114 59 17561361790198547354
2297311 6 18342470239380300302
23048698 100 16950002521955450050
23366157 5 17825949505273502333
23402539 116 18409441501170845086
23532345 42 18342453772354322456
23536379 177 15936403434465875727
23557571 272 18201447947548957460
23559900 14 18270122293037708030
2748010 2 18267294520998227437
3268164 11 18411973650800934181
34934 24 18337665326828804235
4340502 62 16154282598617999001
5104073 3 18341613651118805826
5281201 14 17346606248919743220
573450 72 18114734954297162738
6049 1 17775284933062361808
7097593 13 17538265260114942266
7364860 26 18055072318196149401
77492 1 17676209048384872610
81228 2 18266756700592578057
9709674 26 18340212890464178454

>  <PUBCHEM_SHAPE_MULTIPOLES>  (1) 
344.87
9.18
1.81
0.96
3.5
0.67
0
-1.53
0
-1.88
0
1.19
-0.08
0

>  <PUBCHEM_SHAPE_SELFOVERLAP>  (1) 
765.716

>  <PUBCHEM_SHAPE_VOLUME>  (1) 
183.3

>  <PUBCHEM_COORDINATE_TYPE>  (1) 
2
5
10

$$$$
