23346
     RDKit          3D

 15 15  0  0  0  0  0  0  0  0999 V2000
    3.1550   -1.0387    0.8723 O   0  0  0  0  0  0  0  0  0  0  0  0
    0.6020    2.5806    1.3235 O   0  0  0  0  0  0  0  0  0  0  0  0
    1.2253   -1.2114   -0.4177 N   0  0  0  0  0  0  0  0  0  0  0  0
    0.8903    1.1626   -0.4999 N   0  0  0  0  0  0  0  0  0  0  0  0
    0.5036   -0.0815    0.1531 C   0  0  0  0  0  0  0  0  0  0  0  0
   -0.9950   -0.2949    0.0680 C   0  0  0  0  0  0  0  0  0  0  0  0
   -1.6750    0.1468   -1.0519 C   0  0  0  0  0  0  0  0  0  0  0  0
   -1.6450   -0.9266    1.1124 C   0  0  0  0  0  0  0  0  0  0  0  0
   -3.0538   -0.0496   -1.1303 C   0  0  0  0  0  0  0  0  0  0  0  0
   -3.0238   -1.1231    1.0338 C   0  0  0  0  0  0  0  0  0  0  0  0
    2.4923   -1.5886   -0.0032 C   0  0  0  0  0  0  0  0  0  0  0  0
    0.9040    2.3865    0.1491 C   0  0  0  0  0  0  0  0  0  0  0  0
   -3.7281   -0.6847   -0.0876 C   0  0  0  0  0  0  0  0  0  0  0  0
    3.0059   -2.7810   -0.7635 C   0  0  0  0  0  0  0  0  0  0  0  0
    1.3423    3.5037   -0.7580 C   0  0  0  0  0  0  0  0  0  0  0  0
  1 11  2  0
  2 12  2  0
  3  5  1  0
  3 11  1  0
  4  5  1  0
  4 12  1  0
  5  6  1  0
  6  7  2  0
  6  8  1  0
  7  9  1  0
  8 10  2  0
  9 13  2  0
 10 13  1  0
 11 14  1  0
 12 15  1  0
M  END
>  <PUBCHEM_COMPOUND_CID>  (1) 
23346

>  <PUBCHEM_CONFORMER_RMSD>  (1) 
0.6

>  <PUBCHEM_CONFORMER_DIVERSEORDER>  (1) 
1
2
3
5
4
8
6
7

>  <PUBCHEM_MMFF94_PARTIAL_CHARGES>  (1) 
22
1 -0.57
10 -0.15
11 0.57
12 0.57
13 -0.15
14 0.06
15 0.06
17 0.37
18 0.37
19 0.15
2 -0.57
20 0.15
21 0.15
22 0.15
23 0.15
3 -0.73
4 -0.73
5 0.74
6 -0.14
7 -0.15
8 -0.15
9 -0.15

>  <PUBCHEM_EFFECTIVE_ROTOR_COUNT>  (1) 
5

>  <PUBCHEM_PHARMACOPHORE_FEATURES>  (1) 
5
1 1 acceptor
1 2 acceptor
1 3 donor
1 4 donor
6 6 7 8 9 10 13 rings

>  <PUBCHEM_HEAVY_ATOM_COUNT>  (1) 
15

>  <PUBCHEM_ATOM_DEF_STEREO_COUNT>  (1) 
0

>  <PUBCHEM_ATOM_UDEF_STEREO_COUNT>  (1) 
0

>  <PUBCHEM_BOND_DEF_STEREO_COUNT>  (1) 
0

>  <PUBCHEM_BOND_UDEF_STEREO_COUNT>  (1) 
0

>  <PUBCHEM_ISOTOPIC_ATOM_COUNT>  (1) 
0

>  <PUBCHEM_COMPONENT_COUNT>  (1) 
1

>  <PUBCHEM_CACTVS_TAUTO_COUNT>  (1) 
3

>  <PUBCHEM_CONFORMER_ID>  (1) 
00005B3200000001

>  <PUBCHEM_MMFF94_ENERGY>  (1) 
28.0563

>  <PUBCHEM_FEATURE_SELFOVERLAP>  (1) 
25.403

>  <PUBCHEM_SHAPE_FINGERPRINT>  (1) 
1 1 18122344850430222780
10465860 250 18041826329922856082
12326174 3 18057060183478756772
12532896 13 17041763085000339324
12759256 9 18341045315276290558
13681431 1 18411139143003087628
14648413 74 18261105335358794285
15219456 202 18115022043044042249
15309172 13 17615412897178396573
15490181 7 17618225447869032364
16945 1 18339083803638191957
17841504 4 18410298020976555371
18380122 1 17608094492133558379
18410436 195 18341609283052525928
19765921 60 17126764615257324633
20097449 115 18409727318459504272
20361792 2 18272091539326370247
20645477 70 18336821013642110463
20671657 53 18411422769526519331
20711985 344 17832986053304947914
21061003 4 18339086994973388403
21296965 67 18339640031957427343
21524375 3 17615687779264029576
23175994 123 18336270029024087271
23526113 38 18186516596596905211
23557571 272 18195240019405409038
2748010 2 18267850710324945900
305870 269 17981318203243585425
31174 14 18263659513966049067
3729539 64 17828517917840109812
458136 41 17905067080710569729
4663303 62 18336545031384635117
6049 1 17967535709684230927
7364860 26 18338800142438750980
7615 1 17846225496638413059
81228 2 17979075981470435032
84936 31 18199741608486717062

>  <PUBCHEM_SHAPE_MULTIPOLES>  (1) 
286.99
5.32
3.36
1.16
2.15
2.85
-0.08
-3.73
0.29
-4.18
0.28
0.37
0.08
0.59

>  <PUBCHEM_SHAPE_SELFOVERLAP>  (1) 
583.262

>  <PUBCHEM_SHAPE_VOLUME>  (1) 
165.7

>  <PUBCHEM_COORDINATE_TYPE>  (1) 
2
5
10

$$$$
