23348
     RDKit          3D

 29 32  0  0  0  0  0  0  0  0999 V2000
   -3.3395    1.4044   -0.9771 O   0  0  0  0  0  0  0  0  0  0  0  0
    2.9778    1.9948   -0.0825 N   0  0  0  0  0  0  0  0  0  0  0  0
   -6.4148   -0.0886    0.3962 N   0  0  0  0  0  0  0  0  0  0  0  0
    2.9534   -0.2214    0.0393 C   0  0  0  0  0  0  0  0  0  0  0  0
    2.1667    0.8931   -0.1392 C   0  0  0  0  0  0  0  0  0  0  0  0
    4.2957    0.2188    0.2114 C   0  0  0  0  0  0  0  0  0  0  0  0
    4.2832    1.6130    0.1306 C   0  0  0  0  0  0  0  0  0  0  0  0
    0.7433    1.0249   -0.3559 C   0  0  0  0  0  0  0  0  0  0  0  0
   -5.5084    0.4568   -0.6032 C   0  0  0  0  0  0  0  0  0  0  0  0
    2.4343   -1.5619    0.0400 C   0  0  0  0  0  0  0  0  0  0  0  0
    5.5237   -0.4369    0.4287 C   0  0  0  0  0  0  0  0  0  0  0  0
   -7.6580   -0.5484   -0.2276 C   0  0  0  0  0  0  0  0  0  0  0  0
   -6.7066    0.9073    1.4301 C   0  0  0  0  0  0  0  0  0  0  0  0
   -4.2014    0.8937    0.0389 C   0  0  0  0  0  0  0  0  0  0  0  0
    5.4420    2.3872    0.2567 C   0  0  0  0  0  0  0  0  0  0  0  0
    0.2355    1.0212   -1.6532 C   0  0  0  0  0  0  0  0  0  0  0  0
   -0.1151    1.1553    0.7334 C   0  0  0  0  0  0  0  0  0  0  0  0
   -1.9997    1.2794   -0.7734 C   0  0  0  0  0  0  0  0  0  0  0  0
    6.6910    0.3246    0.5570 C   0  0  0  0  0  0  0  0  0  0  0  0
    6.6484    1.7148    0.4719 C   0  0  0  0  0  0  0  0  0  0  0  0
   -1.1378    1.1486   -1.8622 C   0  0  0  0  0  0  0  0  0  0  0  0
   -1.4884    1.2826    0.5245 C   0  0  0  0  0  0  0  0  0  0  0  0
    2.3585   -2.2793   -1.1529 C   0  0  0  0  0  0  0  0  0  0  0  0
    2.0077   -2.1422    1.2336 C   0  0  0  0  0  0  0  0  0  0  0  0
   -7.3815   -1.5835   -1.3049 C   0  0  0  0  0  0  0  0  0  0  0  0
   -7.5970    0.3270    2.5157 C   0  0  0  0  0  0  0  0  0  0  0  0
    1.8550   -3.5802   -1.1521 C   0  0  0  0  0  0  0  0  0  0  0  0
    1.5043   -3.4431    1.2344 C   0  0  0  0  0  0  0  0  0  0  0  0
    1.4278   -4.1620    0.0417 C   0  0  0  0  0  0  0  0  0  0  0  0
  1 14  1  0
  1 18  1  0
  2  5  1  0
  2  7  1  0
  3  9  1  0
  3 12  1  0
  3 13  1  0
  4  5  2  0
  4  6  1  0
  4 10  1  0
  5  8  1  0
  6  7  2  0
  6 11  1  0
  7 15  1  0
  8 16  2  0
  8 17  1  0
  9 14  1  0
 10 23  2  0
 10 24  1  0
 11 19  2  0
 12 25  1  0
 13 26  1  0
 15 20  2  0
 16 21  1  0
 17 22  2  0
 18 21  2  0
 18 22  1  0
 19 20  1  0
 23 27  1  0
 24 28  2  0
 27 29  2  0
 28 29  1  0
M  END
>  <PUBCHEM_COMPOUND_CID>  (1) 
23348

>  <PUBCHEM_CONFORMER_RMSD>  (1) 
1

>  <PUBCHEM_CONFORMER_DIVERSEORDER>  (1) 
1
10
14
21
3
17
19
8
12
11
13
2
18
5
22
20
9
16
23
4
15
6
7

>  <PUBCHEM_MMFF94_PARTIAL_CHARGES>  (1) 
40
1 -0.36
10 0.05
11 -0.15
12 0.27
13 0.27
14 0.28
15 -0.15
16 -0.15
17 -0.15
18 0.08
19 -0.15
2 0.03
20 -0.15
21 -0.15
22 -0.15
23 -0.15
24 -0.15
27 -0.15
28 -0.15
29 -0.15
3 -0.81
30 0.27
33 0.15
4 -0.05
40 0.15
41 0.15
42 0.15
43 0.15
44 0.15
45 0.15
46 0.15
47 0.15
48 0.15
5 -0.2
55 0.15
56 0.15
57 0.15
7 -0.15
8 0.05
9 0.27

>  <PUBCHEM_EFFECTIVE_ROTOR_COUNT>  (1) 
8

>  <PUBCHEM_PHARMACOPHORE_FEATURES>  (1) 
8
1 1 acceptor
1 2 cation
1 2 donor
1 3 cation
5 2 4 5 6 7 rings
6 10 23 24 27 28 29 rings
6 6 7 11 15 19 20 rings
6 8 16 17 18 21 22 rings

>  <PUBCHEM_HEAVY_ATOM_COUNT>  (1) 
29

>  <PUBCHEM_ATOM_DEF_STEREO_COUNT>  (1) 
0

>  <PUBCHEM_ATOM_UDEF_STEREO_COUNT>  (1) 
0

>  <PUBCHEM_BOND_DEF_STEREO_COUNT>  (1) 
0

>  <PUBCHEM_BOND_UDEF_STEREO_COUNT>  (1) 
0

>  <PUBCHEM_ISOTOPIC_ATOM_COUNT>  (1) 
0

>  <PUBCHEM_COMPONENT_COUNT>  (1) 
1

>  <PUBCHEM_CACTVS_TAUTO_COUNT>  (1) 
1

>  <PUBCHEM_CONFORMER_ID>  (1) 
00005B3400000001

>  <PUBCHEM_MMFF94_ENERGY>  (1) 
80.1234

>  <PUBCHEM_FEATURE_SELFOVERLAP>  (1) 
40.689

>  <PUBCHEM_SHAPE_FINGERPRINT>  (1) 
10169797 241 18189627046404996827
10258939 38 17749102257985482333
10674148 151 16128656358429130620
11421498 54 17775003432400295864
11719270 70 18409161113079102226
12166972 35 11963392950871759207
12596602 18 17775570832124211393
12730499 353 18335702715578890128
13692114 37 18199174247998177818
13782708 43 17750230305470243170
13878862 14 10087347860525249691
14028597 1 17917437497235569201
14394314 77 18413393112683002225
15183329 4 9007064543719955153
15849732 13 12396298158207719280
17492 89 18125438609889010415
19315958 150 18410580544642847577
20771845 140 17274811429618671782
21133410 38 18344149185991199527
21197605 99 18408604794334302363
21344244 181 18059866039286939846
21521721 280 18342174509813712584
21623969 137 18333734606997735867
21781051 124 18114474388150014370
21792961 116 11599739359106440608
22224240 67 18410569626145001488
2260408 40 18189915136153121081
22956985 138 17608077677732994034
23569917 315 18341331107503067270
25222932 49 18131061663104450815
3178227 256 18408885140303962856
3663271 9 17989492905604550409
4073 2 18187928327337146477
4340502 62 18411702084340155300
4874694 18 18334568015869867317
5104073 3 18191590753219165921
57359948 33 17241323556700004151
5758199 1 18272651281181833824
7399639 24 18115293497999780260

>  <PUBCHEM_SHAPE_MULTIPOLES>  (1) 
580.98
19.75
3.58
1.51
34.99
4.93
0.2
-5.11
6.08
-4.28
-0.12
2.45
0.15
-0.49

>  <PUBCHEM_SHAPE_SELFOVERLAP>  (1) 
1263.729

>  <PUBCHEM_SHAPE_VOLUME>  (1) 
320.9

>  <PUBCHEM_COORDINATE_TYPE>  (1) 
2
5
10

$$$$
