23353
     RDKit          3D

 14 13  0  0  0  0  0  0  0  0999 V2000
   -1.8697   -0.3783    0.3180 P   0  0  0  0  0  0  0  0  0  0  0  0
   -0.9999    0.9370    0.6219 O   0  0  0  0  0  0  0  0  0  0  0  0
   -3.3879    0.1515    0.5170 O   0  0  0  0  0  0  0  0  0  0  0  0
   -1.7462   -0.5525   -1.2881 O   0  0  0  0  0  0  0  0  0  0  0  0
   -1.5078   -1.5936    1.1233 O   0  0  0  0  0  0  0  0  0  0  0  0
    3.1876    1.0369   -0.4565 O   0  0  0  0  0  0  0  0  0  0  0  0
    3.1897   -1.2294    0.0465 N   0  0  0  0  0  0  0  0  0  0  0  0
    0.3672    0.9772    0.4509 C   0  0  0  0  0  0  0  0  0  0  0  0
    1.1159   -0.0535    0.0205 C   0  0  0  0  0  0  0  0  0  0  0  0
    0.9668    2.3051    0.7959 C   0  0  0  0  0  0  0  0  0  0  0  0
    2.5959    0.0049   -0.1591 C   0  0  0  0  0  0  0  0  0  0  0  0
   -4.4553   -0.7229    0.1951 C   0  0  0  0  0  0  0  0  0  0  0  0
   -2.0716    0.5529   -2.1130 C   0  0  0  0  0  0  0  0  0  0  0  0
    4.6152   -1.4353   -0.0723 C   0  0  0  0  0  0  0  0  0  0  0  0
  1  2  1  0
  1  3  1  0
  1  4  1  0
  1  5  2  0
  2  8  1  0
  3 12  1  0
  4 13  1  0
  6 11  2  0
  7 11  1  0
  7 14  1  0
  8  9  2  0
  8 10  1  0
  9 11  1  0
M  END
>  <PUBCHEM_COMPOUND_CID>  (1) 
23353

>  <PUBCHEM_CONFORMER_RMSD>  (1) 
0.6

>  <PUBCHEM_CONFORMER_DIVERSEORDER>  (1) 
9
13
118
87
17
56
109
84
85
57
14
67
117
61
47
7
68
75
28
34
71
52
58
83
107
99
86
41
10
62
78
19
39
44
2
20
46
111
95
113
15
60
108
38
116
73
36
115
94
5
101
105
29
88
114
48
25
81
106
64
102
69
18
98
89
80
11
112
3
24
119
26
1
45
27
93
32
76
59
42
54
96
12
97
21
16
79
6
55
51
40
82
37
4
74
49
100
91
104
90
63
110
70
22
8
103
30
35
33
53
92
66
77
31
72
65
23
50
43

>  <PUBCHEM_MMFF94_PARTIAL_CHARGES>  (1) 
16
1 1.51
10 0.14
11 0.62
12 0.28
13 0.28
14 0.3
15 0.15
19 0.37
2 -0.35
3 -0.55
4 -0.55
5 -0.7
6 -0.57
7 -0.73
8 -0.06
9 -0.14

>  <PUBCHEM_EFFECTIVE_ROTOR_COUNT>  (1) 
6

>  <PUBCHEM_PHARMACOPHORE_FEATURES>  (1) 
3
1 5 acceptor
1 6 acceptor
1 7 donor

>  <PUBCHEM_HEAVY_ATOM_COUNT>  (1) 
14

>  <PUBCHEM_ATOM_DEF_STEREO_COUNT>  (1) 
0

>  <PUBCHEM_ATOM_UDEF_STEREO_COUNT>  (1) 
0

>  <PUBCHEM_BOND_DEF_STEREO_COUNT>  (1) 
0

>  <PUBCHEM_BOND_UDEF_STEREO_COUNT>  (1) 
1

>  <PUBCHEM_ISOTOPIC_ATOM_COUNT>  (1) 
0

>  <PUBCHEM_COMPONENT_COUNT>  (1) 
1

>  <PUBCHEM_CACTVS_TAUTO_COUNT>  (1) 
2

>  <PUBCHEM_CONFORMER_ID>  (1) 
00005B3900000009

>  <PUBCHEM_MMFF94_ENERGY>  (1) 
22.6331

>  <PUBCHEM_FEATURE_SELFOVERLAP>  (1) 
15.223

>  <PUBCHEM_SHAPE_FINGERPRINT>  (1) 
10130415 120 18411703175293360698
12186901 62 16588016875695181391
12251169 10 15913324684945163882
12932764 1 17022900151324567304
13083527 12 12028926124894917349
14115302 16 18114194058884923927
14123260 362 12324535203231794094
18186145 218 17894907404233498448
18511873 20 17988927781949277761
20201158 50 18408610244694994554
20361792 2 18131624582682123980
20645477 70 18410579483158379230
20653085 51 16298392318651730652
20871998 184 17630328536928947116
20871999 31 17313387790250936206
21119208 17 16515689939625653986
22802520 49 17750500806837213204
23402539 116 18201433623627160282
23557571 272 17385999615707114148
3286 77 18411699932825219063
81228 2 18056774121894023792

>  <PUBCHEM_SHAPE_MULTIPOLES>  (1) 
257.64
7.48
1.69
1.24
1.88
0.59
-0.7
-3.78
-0.22
1.1
0.46
-1.06
0.1
0.34

>  <PUBCHEM_SHAPE_SELFOVERLAP>  (1) 
476.581

>  <PUBCHEM_SHAPE_VOLUME>  (1) 
163.2

>  <PUBCHEM_COORDINATE_TYPE>  (1) 
2
5
10

$$$$
