23350
     RDKit          3D

  7  6  0  0  0  0  0  0  0  0999 V2000
    0.0001    0.0394   -0.0087 N   0  0  0  0  0  0  0  0  0  0  0  0
   -1.2001   -0.7861    0.0014 C   0  0  0  0  0  0  0  0  0  0  0  0
    1.2001   -0.7862    0.0013 C   0  0  0  0  0  0  0  0  0  0  0  0
   -2.4077    0.0452    0.0016 C   0  0  0  0  0  0  0  0  0  0  0  0
    2.4077    0.0452    0.0013 C   0  0  0  0  0  0  0  0  0  0  0  0
   -3.4000    0.7213    0.0015 C   0  0  0  0  0  0  0  0  0  0  0  0
    3.4000    0.7213    0.0017 C   0  0  0  0  0  0  0  0  0  0  0  0
  1  2  1  0
  1  3  1  0
  2  4  1  0
  3  5  1  0
  4  6  3  0
  5  7  3  0
M  END
>  <PUBCHEM_COMPOUND_CID>  (1) 
23350

>  <PUBCHEM_CONFORMER_RMSD>  (1) 
0.4

>  <PUBCHEM_CONFORMER_DIVERSEORDER>  (1) 
1
4
5
2
3

>  <PUBCHEM_MMFF94_PARTIAL_CHARGES>  (1) 
10
1 -0.9
13 0.18
14 0.18
2 0.47
3 0.47
4 -0.2
5 -0.2
6 -0.18
7 -0.18
8 0.36

>  <PUBCHEM_EFFECTIVE_ROTOR_COUNT>  (1) 
2

>  <PUBCHEM_PHARMACOPHORE_FEATURES>  (1) 
4
1 1 cation
1 1 donor
1 6 hydrophobe
1 7 hydrophobe

>  <PUBCHEM_HEAVY_ATOM_COUNT>  (1) 
7

>  <PUBCHEM_ATOM_DEF_STEREO_COUNT>  (1) 
0

>  <PUBCHEM_ATOM_UDEF_STEREO_COUNT>  (1) 
0

>  <PUBCHEM_BOND_DEF_STEREO_COUNT>  (1) 
0

>  <PUBCHEM_BOND_UDEF_STEREO_COUNT>  (1) 
0

>  <PUBCHEM_ISOTOPIC_ATOM_COUNT>  (1) 
0

>  <PUBCHEM_COMPONENT_COUNT>  (1) 
1

>  <PUBCHEM_CACTVS_TAUTO_COUNT>  (1) 
1

>  <PUBCHEM_CONFORMER_ID>  (1) 
00005B3600000001

>  <PUBCHEM_MMFF94_ENERGY>  (1) 
2.3698

>  <PUBCHEM_FEATURE_SELFOVERLAP>  (1) 
20.297

>  <PUBCHEM_SHAPE_FINGERPRINT>  (1) 
11062470 55 18411418410102812041
12932741 1 15697706116526214403
14325111 11 18410855464449736711
14390081 3 18413669114757820185
177051 138 10665229250038375528
21293036 1 16487252192354111893
5460574 1 9295288343769990243

>  <PUBCHEM_SHAPE_MULTIPOLES>  (1) 
139.08
6.17
0.94
0.6
0
0.03
0
-2.22
0.01
0
0
0
0
0

>  <PUBCHEM_SHAPE_SELFOVERLAP>  (1) 
250.031

>  <PUBCHEM_SHAPE_VOLUME>  (1) 
88.4

>  <PUBCHEM_COORDINATE_TYPE>  (1) 
2
5
10

$$$$
