23355
     RDKit          3D

 16 16  0  0  1  0  0  0  0  0999 V2000
    0.6190    3.2440    0.4229 O   0  0  0  0  0  0  0  0  0  0  0  0
    2.6482   -1.2268    2.0527 O   0  0  0  0  0  0  0  0  0  0  0  0
    3.6704   -2.1406   -0.3654 O   0  0  0  0  0  0  0  0  0  0  0  0
   -1.9356    0.6569   -0.3161 N   0  0  0  0  0  0  0  0  0  0  0  0
   -3.8395   -0.9509   -0.3405 C   0  0  0  0  0  0  0  0  0  0  0  0
   -3.1780    0.2605    0.3387 C   0  0  0  0  0  0  0  0  0  0  0  0
   -1.3057    1.7612    0.3930 C   0  0  0  0  0  0  0  0  0  0  0  0
    0.0150    2.1578   -0.2782 C   0  0  0  0  0  0  0  0  0  0  0  0
    0.9945    1.0049   -0.2984 C   0  0  0  0  0  0  0  0  0  0  0  0
   -2.8661   -2.1326   -0.3508 C   0  0  0  0  0  0  0  0  0  0  0  0
   -5.1455   -1.3662    0.3419 C   0  0  0  0  0  0  0  0  0  0  0  0
    1.3702    0.4167    0.8969 C   0  0  0  0  0  0  0  0  0  0  0  0
    1.4943    0.5634   -1.5114 C   0  0  0  0  0  0  0  0  0  0  0  0
    2.2737   -0.6458    0.8787 C   0  0  0  0  0  0  0  0  0  0  0  0
    2.3979   -0.4990   -1.5295 C   0  0  0  0  0  0  0  0  0  0  0  0
    2.7876   -1.1036   -0.3344 C   0  0  0  0  0  0  0  0  0  0  0  0
  1  8  1  0
  2 14  1  0
  3 16  1  0
  4  6  1  0
  4  7  1  0
  5  6  1  0
  5 10  1  0
  5 11  1  0
  7  8  1  0
  8  9  1  0
  9 12  2  0
  9 13  1  0
 12 14  1  0
 13 15  2  0
 14 16  2  0
 15 16  1  0
M  END
>  <PUBCHEM_COMPOUND_CID>  (1) 
23355

>  <PUBCHEM_CONFORMER_RMSD>  (1) 
0.6

>  <PUBCHEM_CONFORMER_DIVERSEORDER>  (1) 
2
10
28
20
60
22
49
58
24
40
31
36
50
21
23
1
61
47
52
25
30
43
11
35
56
16
34
59
19
3
51
9
45
55
54
27
7
32
38
4
17
13
44
39
33
18
48
6
29
5
12
57
8
42
37
26
46
53
14
41
15

>  <PUBCHEM_MMFF94_PARTIAL_CHARGES>  (1) 
20
1 -0.68
12 -0.15
13 -0.15
14 0.08
15 -0.15
16 0.08
2 -0.53
23 0.36
3 -0.53
30 0.15
31 0.15
32 0.4
33 0.15
34 0.45
35 0.45
4 -0.9
6 0.27
7 0.27
8 0.42
9 -0.14

>  <PUBCHEM_EFFECTIVE_ROTOR_COUNT>  (1) 
5

>  <PUBCHEM_PHARMACOPHORE_FEATURES>  (1) 
8
1 1 acceptor
1 1 donor
1 2 donor
1 3 donor
1 4 cation
1 4 donor
3 5 10 11 hydrophobe
6 9 12 13 14 15 16 rings

>  <PUBCHEM_HEAVY_ATOM_COUNT>  (1) 
16

>  <PUBCHEM_ATOM_DEF_STEREO_COUNT>  (1) 
0

>  <PUBCHEM_ATOM_UDEF_STEREO_COUNT>  (1) 
1

>  <PUBCHEM_BOND_DEF_STEREO_COUNT>  (1) 
0

>  <PUBCHEM_BOND_UDEF_STEREO_COUNT>  (1) 
0

>  <PUBCHEM_ISOTOPIC_ATOM_COUNT>  (1) 
0

>  <PUBCHEM_COMPONENT_COUNT>  (1) 
1

>  <PUBCHEM_CACTVS_TAUTO_COUNT>  (1) 
10

>  <PUBCHEM_CONFORMER_ID>  (1) 
00005B3B00000002

>  <PUBCHEM_MMFF94_ENERGY>  (1) 
27.6424

>  <PUBCHEM_FEATURE_SELFOVERLAP>  (1) 
40.601

>  <PUBCHEM_SHAPE_FINGERPRINT>  (1) 
10618630 7 18413109442006851127
11471102 22 16056308411194832300
11578080 2 17822832218047164812
11725454 13 14203104858591963300
12363563 72 18412262822506712383
12553582 1 18411705383064929607
12633257 1 15841543063836090567
13965767 371 11383841415490430211
14252887 29 18342739653999166561
14787075 74 18261393399321888632
17134986 127 8574714606656309761
1741750 31 9439105559841774900
17834072 32 8718529610936377799
1798214 55 9223232957667246259
18186145 218 12108075413827757356
20291156 8 18408324367482053491
20369508 70 18337103575155206973
20442098 301 17987520493054903791
20600515 1 18057048995184610400
20645477 70 18267018552369966103
20871998 22 18413669123458875313
21713013 43 16371308708817785475
21731516 1 18408330977478926721
21756936 100 13684576240285268026
2255824 54 18118972639867946277
232386 152 18409728447930317247
23419403 2 17464769723974550584
23598291 2 17896057476232341725
568465 68 16844725314134887254
5902787 121 18411415107468354633
7364860 26 18198344159241417009
7808743 9 9222644701350038998
81228 2 17771063787395934553
81539 233 17976817910836296813
94968 8 18261961842073939503

>  <PUBCHEM_SHAPE_MULTIPOLES>  (1) 
306.68
7.49
2.65
1.29
9.06
1.26
-0.14
-6.1
-0.24
-0.41
-0.18
-1.28
-0.3
-0.31

>  <PUBCHEM_SHAPE_SELFOVERLAP>  (1) 
618.568

>  <PUBCHEM_SHAPE_VOLUME>  (1) 
181

>  <PUBCHEM_COORDINATE_TYPE>  (1) 
2
5
10

$$$$
