23363
     RDKit          3D

 11 12  0  0  0  0  0  0  0  0999 V2000
    1.6417    2.1207   -0.0001 O   0  0  0  0  0  0  0  0  0  0  0  0
    1.3230    0.8834    0.0001 N   0  0  0  0  0  0  0  0  0  0  0  0
    0.6999   -1.8357   -0.0001 N   0  0  0  0  0  0  0  0  0  0  0  0
   -0.0053    0.4648   -0.0001 C   0  0  0  0  0  0  0  0  0  0  0  0
   -0.2829   -0.9191   -0.0001 C   0  0  0  0  0  0  0  0  0  0  0  0
   -1.0359    1.4154    0.0000 C   0  0  0  0  0  0  0  0  0  0  0  0
   -1.6194   -1.3068    0.0000 C   0  0  0  0  0  0  0  0  0  0  0  0
   -2.3619    0.9957    0.0001 C   0  0  0  0  0  0  0  0  0  0  0  0
   -2.6535   -0.3650    0.0001 C   0  0  0  0  0  0  0  0  0  0  0  0
    2.3199   -0.0593    0.0002 C   0  0  0  0  0  0  0  0  0  0  0  0
    1.9742   -1.3942    0.0000 C   0  0  0  0  0  0  0  0  0  0  0  0
  1  2  1  0
  2  4  2  0
  2 10  1  0
  3  5  2  0
  3 11  1  0
  4  5  1  0
  4  6  1  0
  5  7  1  0
  6  8  2  0
  7  9  2  0
  8  9  1  0
 10 11  2  0
M  CHG  2   1  -1   2   1
M  END
>  <PUBCHEM_COMPOUND_CID>  (1) 
23363

>  <PUBCHEM_CONFORMER_RMSD>  (1) 
0.4

>  <PUBCHEM_CONFORMER_DIVERSEORDER>  (1) 
1

>  <PUBCHEM_MMFF94_PARTIAL_CHARGES>  (1) 
17
1 -0.75
10 -0.06
11 0.16
12 0.15
13 0.15
14 0.15
15 0.15
16 0.15
17 0.15
2 0.57
3 -0.62
4 0.09
5 0.31
6 -0.15
7 -0.15
8 -0.15
9 -0.15

>  <PUBCHEM_EFFECTIVE_ROTOR_COUNT>  (1) 
0

>  <PUBCHEM_PHARMACOPHORE_FEATURES>  (1) 
4
1 1 anion
1 3 acceptor
6 2 3 4 5 10 11 rings
6 4 5 6 7 8 9 rings

>  <PUBCHEM_HEAVY_ATOM_COUNT>  (1) 
11

>  <PUBCHEM_ATOM_DEF_STEREO_COUNT>  (1) 
0

>  <PUBCHEM_ATOM_UDEF_STEREO_COUNT>  (1) 
0

>  <PUBCHEM_BOND_DEF_STEREO_COUNT>  (1) 
0

>  <PUBCHEM_BOND_UDEF_STEREO_COUNT>  (1) 
0

>  <PUBCHEM_ISOTOPIC_ATOM_COUNT>  (1) 
0

>  <PUBCHEM_COMPONENT_COUNT>  (1) 
1

>  <PUBCHEM_CACTVS_TAUTO_COUNT>  (1) 
1

>  <PUBCHEM_CONFORMER_ID>  (1) 
00005B4300000001

>  <PUBCHEM_MMFF94_ENERGY>  (1) 
31.4134

>  <PUBCHEM_FEATURE_SELFOVERLAP>  (1) 
20.331

>  <PUBCHEM_SHAPE_FINGERPRINT>  (1) 
11206711 2 18408888403792955013
12524768 44 18408323306561639495
12897270 3 18410011069752947149
16945 1 18410575059041104615
18185500 45 18194401087089563027
193761 8 15456213033486907363
19973954 147 18410858758842399713
21040471 1 18122343742354793604
23402655 69 18196356036787988125
23552423 10 18335139821085549247
241688 4 17834678192951716842
2748010 2 18194122038800860791
5084963 1 18273495675872738171
528886 8 18339356375095028499
63268167 104 18337675191751348961
66348 1 18410294752210992037

>  <PUBCHEM_SHAPE_MULTIPOLES>  (1) 
210.54
3.45
1.97
0.59
0.46
0.29
0
-0.03
0
-0.46
0
0.03
-0.01
0

>  <PUBCHEM_SHAPE_SELFOVERLAP>  (1) 
462.148

>  <PUBCHEM_SHAPE_VOLUME>  (1) 
112.8

>  <PUBCHEM_COORDINATE_TYPE>  (1) 
2
5
10

$$$$
