23362
     RDKit          3D

 14 15  0  0  0  0  0  0  0  0999 V2000
    0.4818    0.3889    0.0097 N   0  0  0  0  0  0  0  0  0  0  0  0
    2.6619    1.3433   -0.1094 N   0  0  0  0  0  0  0  0  0  0  0  0
   -0.4390   -0.7687    0.1235 C   0  0  0  0  0  0  0  0  0  0  0  0
   -1.8746   -0.3704    0.0542 C   0  0  0  0  0  0  0  0  0  0  0  0
   -2.5664   -0.0492    1.2221 C   0  0  0  0  0  0  0  0  0  0  0  0
   -2.5255   -0.3184   -1.1785 C   0  0  0  0  0  0  0  0  0  0  0  0
    1.8381    0.2436   -0.0027 C   0  0  0  0  0  0  0  0  0  0  0  0
   -3.9091    0.3236    1.1574 C   0  0  0  0  0  0  0  0  0  0  0  0
   -3.8681    0.0545   -1.2432 C   0  0  0  0  0  0  0  0  0  0  0  0
    2.3912   -1.0503    0.0958 C   0  0  0  0  0  0  0  0  0  0  0  0
   -4.5598    0.3755   -0.0751 C   0  0  0  0  0  0  0  0  0  0  0  0
    3.7720   -1.2148    0.0852 C   0  0  0  0  0  0  0  0  0  0  0  0
    4.5983   -0.1017   -0.0227 C   0  0  0  0  0  0  0  0  0  0  0  0
    3.9991    1.1442   -0.1164 C   0  0  0  0  0  0  0  0  0  0  0  0
  1  3  1  0
  1  7  1  0
  2  7  2  0
  2 14  1  0
  3  4  1  0
  4  5  2  0
  4  6  1  0
  5  8  1  0
  6  9  2  0
  7 10  1  0
  8 11  2  0
  9 11  1  0
 10 12  2  0
 12 13  1  0
 13 14  2  0
M  END
>  <PUBCHEM_COMPOUND_CID>  (1) 
23362

>  <PUBCHEM_CONFORMER_RMSD>  (1) 
0.6

>  <PUBCHEM_CONFORMER_DIVERSEORDER>  (1) 
2
16
18
12
7
21
15
4
1
20
10
19
14
13
17
8
3
5
11
9
6

>  <PUBCHEM_MMFF94_PARTIAL_CHARGES>  (1) 
24
1 -0.87
10 -0.15
11 -0.15
12 -0.15
13 -0.15
14 0.16
17 0.4
18 0.15
19 0.15
2 -0.62
20 0.15
21 0.15
22 0.15
23 0.15
24 0.15
25 0.15
26 0.15
3 0.51
4 -0.14
5 -0.15
6 -0.15
7 0.41
8 -0.15
9 -0.15

>  <PUBCHEM_EFFECTIVE_ROTOR_COUNT>  (1) 
3

>  <PUBCHEM_PHARMACOPHORE_FEATURES>  (1) 
5
1 1 cation
1 1 donor
1 2 acceptor
6 2 7 10 12 13 14 rings
6 4 5 6 8 9 11 rings

>  <PUBCHEM_HEAVY_ATOM_COUNT>  (1) 
14

>  <PUBCHEM_ATOM_DEF_STEREO_COUNT>  (1) 
0

>  <PUBCHEM_ATOM_UDEF_STEREO_COUNT>  (1) 
0

>  <PUBCHEM_BOND_DEF_STEREO_COUNT>  (1) 
0

>  <PUBCHEM_BOND_UDEF_STEREO_COUNT>  (1) 
0

>  <PUBCHEM_ISOTOPIC_ATOM_COUNT>  (1) 
0

>  <PUBCHEM_COMPONENT_COUNT>  (1) 
1

>  <PUBCHEM_CACTVS_TAUTO_COUNT>  (1) 
2

>  <PUBCHEM_CONFORMER_ID>  (1) 
00005B4200000002

>  <PUBCHEM_MMFF94_ENERGY>  (1) 
43.6724

>  <PUBCHEM_FEATURE_SELFOVERLAP>  (1) 
25.371

>  <PUBCHEM_SHAPE_FINGERPRINT>  (1) 
10680689 15 17313105263255280963
11471102 20 18408885135892547934
12236239 1 17846498123307338379
13167823 11 17632857520720032014
13675066 3 17530969098199255466
14123238 8 17095526205416065790
15242439 84 17603584106009525622
15375358 24 17749388169725992290
15653759 3 16805324400747332925
17834072 33 18272929466086787375
18186145 218 18334297569583059322
1986462 14 16225766311430241083
200 152 18202559575252906565
20279233 1 17676206870435747971
20300324 65 16702300170194432057
20645477 56 17531245092797677103
20645477 70 18334853875327990890
20828058 21 15574714694408825242
22485316 2 17458063763579974266
22646028 1 17703788115360321830
2297311 6 16081377310493952695
23048698 100 18343303660525066082
23402539 116 16415474926969416153
23402655 69 18342175583460129508
23557571 272 16298387899035665015
23559900 14 16371002949980100778
26918003 58 18186802482757963688
300161 21 17846773010004612160
3268164 11 15769489842533740945
522135 26 18409448072897880782
542803 24 17847064384638262529
573450 72 16988559065815118679
9971528 1 18131350796208432992

>  <PUBCHEM_SHAPE_MULTIPOLES>  (1) 
278.15
10.5
1.09
1.04
1.37
0.04
-0.01
1.06
-0.29
1.13
-0.01
-1.33
-0.01
-0.37

>  <PUBCHEM_SHAPE_SELFOVERLAP>  (1) 
588.808

>  <PUBCHEM_SHAPE_VOLUME>  (1) 
153.1

>  <PUBCHEM_COORDINATE_TYPE>  (1) 
2
5
10

$$$$
