23377
     RDKit          3D

 15 14  0  0  0  0  0  0  0  0999 V2000
    0.0228   -3.4109   -0.9957 O   0  0  0  0  0  0  0  0  0  0  0  0
   -0.0087   -1.5810    0.0598 N   0  0  0  0  0  0  0  0  0  0  0  0
   -0.3854   -2.8443    0.0252 N   0  0  0  0  0  0  0  0  0  0  0  0
   -2.1244   -0.3629   -0.1430 C   0  0  0  0  0  0  0  0  0  0  0  0
    2.0425   -0.2345   -0.1192 C   0  0  0  0  0  0  0  0  0  0  0  0
   -0.9620   -0.7391    0.7751 C   0  0  0  0  0  0  0  0  0  0  0  0
    1.3414   -1.3800    0.6105 C   0  0  0  0  0  0  0  0  0  0  0  0
   -3.1747    0.5185    0.5404 C   0  0  0  0  0  0  0  0  0  0  0  0
    3.4560    0.0411    0.4035 C   0  0  0  0  0  0  0  0  0  0  0  0
   -4.3533    0.8758   -0.3680 C   0  0  0  0  0  0  0  0  0  0  0  0
    4.1513    1.2045   -0.3071 C   0  0  0  0  0  0  0  0  0  0  0  0
   -5.3325    1.8138    0.3393 C   0  0  0  0  0  0  0  0  0  0  0  0
    5.5815    1.3885    0.2023 C   0  0  0  0  0  0  0  0  0  0  0  0
   -6.5224    2.1478   -0.5463 C   0  0  0  0  0  0  0  0  0  0  0  0
    6.2680    2.5628   -0.4769 C   0  0  0  0  0  0  0  0  0  0  0  0
  1  3  2  0
  2  3  1  0
  2  6  1  0
  2  7  1  0
  4  6  1  0
  4  8  1  0
  5  7  1  0
  5  9  1  0
  8 10  1  0
  9 11  1  0
 10 12  1  0
 11 13  1  0
 12 14  1  0
 13 15  1  0
M  END
>  <PUBCHEM_COMPOUND_CID>  (1) 
23377

>  <PUBCHEM_CONFORMER_RMSD>  (1) 
1.2

>  <PUBCHEM_CONFORMER_DIVERSEORDER>  (1) 
1
25
5
23
8
16
13
33
3
35
6
24
20
4
31
29
17
10
28
22
26
9
21
7
12
2
15
19
11
34
18
30
14
27
32

>  <PUBCHEM_MMFF94_PARTIAL_CHARGES>  (1) 
5
1 -0.16
2 -0.36
3 -0.01
6 0.27
7 0.27

>  <PUBCHEM_EFFECTIVE_ROTOR_COUNT>  (1) 
11

>  <PUBCHEM_PHARMACOPHORE_FEATURES>  (1) 
4
1 14 hydrophobe
1 15 hydrophobe
4 4 8 10 12 hydrophobe
4 5 9 11 13 hydrophobe

>  <PUBCHEM_HEAVY_ATOM_COUNT>  (1) 
15

>  <PUBCHEM_ATOM_DEF_STEREO_COUNT>  (1) 
0

>  <PUBCHEM_ATOM_UDEF_STEREO_COUNT>  (1) 
0

>  <PUBCHEM_BOND_DEF_STEREO_COUNT>  (1) 
0

>  <PUBCHEM_BOND_UDEF_STEREO_COUNT>  (1) 
0

>  <PUBCHEM_ISOTOPIC_ATOM_COUNT>  (1) 
0

>  <PUBCHEM_COMPONENT_COUNT>  (1) 
1

>  <PUBCHEM_CACTVS_TAUTO_COUNT>  (1) 
1

>  <PUBCHEM_CONFORMER_ID>  (1) 
00005B5100000001

>  <PUBCHEM_MMFF94_ENERGY>  (1) 
6.1575

>  <PUBCHEM_FEATURE_SELFOVERLAP>  (1) 
20.3

>  <PUBCHEM_SHAPE_FINGERPRINT>  (1) 
10014705 185 18268152131646639904
10753850 27 10952051138952351916
12633257 1 15285646533451987664
13955234 65 18046350730283030875
14123255 352 18408888438142468296
14123256 34 10159696914927764421
1420 369 9151178657805963384
14251764 30 8790886267805066404
14774955 27 18336542725335480253
15061688 2 18408888433826395459
15342168 16 18408602548134225015
167882 2 18342462496019249334
17539 30 17769646826108440742
17834072 32 18337392737865291316
20526848 3 18409451375427694185
20621476 21 14044871873039728261
20621476 66 18188214312209002652
20645477 56 18128266777498180506
21426921 1 18052258689763712086
21499 59 18341328916467781327
22765269 38 18259980449391515149
23590187 49 18408603664736245793
270888 7 18408884035822342093
293599 30 18410576201645031616
314194 84 9078815399424685473
3472631 163 18411421752025478492
351380 3 9943808876334598088
5283384 27 17894901920030182773
59682541 35 18187096079055842553
59682541 52 17489318438815590164
6327066 14 18409729590534504092
7062679 13 10231765470054411316
77188 2 17399793804916102474
7970288 3 9511463316312671300

>  <PUBCHEM_SHAPE_MULTIPOLES>  (1) 
292.86
15.44
3.24
0.81
1.08
1.9
-0.01
-20.73
-1.61
-0.48
-0.86
0.12
0.13
-0.21

>  <PUBCHEM_SHAPE_SELFOVERLAP>  (1) 
528.466

>  <PUBCHEM_SHAPE_VOLUME>  (1) 
189.4

>  <PUBCHEM_COORDINATE_TYPE>  (1) 
2
5
10

$$$$
