23376
     RDKit          3D

 13 13  0  0  0  0  0  0  0  0999 V2000
   -0.0833    0.9835   -0.2212 O   0  0  0  0  0  0  0  0  0  0  0  0
    1.0602   -0.7112   -1.2862 O   0  0  0  0  0  0  0  0  0  0  0  0
    3.6277   -1.0150   -0.5361 O   0  0  0  0  0  0  0  0  0  0  0  0
   -1.3474    0.3567   -0.4097 C   0  0  0  0  0  0  0  0  0  0  0  0
   -1.4496   -0.8732    0.4915 C   0  0  0  0  0  0  0  0  0  0  0  0
   -2.4647    1.3588   -0.1231 C   0  0  0  0  0  0  0  0  0  0  0  0
   -2.8253   -1.5248    0.3980 C   0  0  0  0  0  0  0  0  0  0  0  0
   -3.8406    0.7073   -0.2167 C   0  0  0  0  0  0  0  0  0  0  0  0
   -3.9420   -0.5230    0.6821 C   0  0  0  0  0  0  0  0  0  0  0  0
    1.0143    0.2027   -0.4751 C   0  0  0  0  0  0  0  0  0  0  0  0
    2.1578    0.6672    0.3926 C   0  0  0  0  0  0  0  0  0  0  0  0
    3.4762   -0.0616    0.2256 C   0  0  0  0  0  0  0  0  0  0  0  0
    4.6169    0.4326    1.0783 C   0  0  0  0  0  0  0  0  0  0  0  0
  1  4  1  0
  1 10  1  0
  2 10  2  0
  3 12  2  0
  4  5  1  0
  4  6  1  0
  5  7  1  0
  6  8  1  0
  7  9  1  0
  8  9  1  0
 10 11  1  0
 11 12  1  0
 12 13  1  0
M  END
>  <PUBCHEM_COMPOUND_CID>  (1) 
23376

>  <PUBCHEM_CONFORMER_RMSD>  (1) 
0.6

>  <PUBCHEM_CONFORMER_DIVERSEORDER>  (1) 
1
210
178
20
89
142
31
212
35
64
175
29
101
47
158
209
126
44
187
216
193
49
155
132
7
205
180
54
211
203
217
24
144
164
139
57
26
19
51
86
60
21
99
190
143
114
207
80
182
124
204
214
120
189
94
42
46
152
138
160
73
98
9
5
23
202
112
61
91
58
131
33
174
48
41
184
16
119
45
177
103
34
2
213
36
176
109
90
173
37
87
151
81
77
62
159
113
4
72
133
192
167
194
107
148
79
149
76
156
13
186
95
3
125
96
15
165
157
50
43
106
27
82
140
92
55
200
93
17
110
169
97
78
170
6
195
115
181
12
111
105
183
53
150
52
117
215
59
171
121
68
69
127
145
65
32
197
85
146
129
206
199
198
38
163
39
137
10
66
188
40
218
11
104
135
130
153
74
168
196
14
18
100
70
141
201
147
108
63
118
88
25
134
122
179
8
161
71
28
67
102
30
172
84
123
191
128
116
208
75
162
56
22
154
136
166
83
185
219

>  <PUBCHEM_MMFF94_PARTIAL_CHARGES>  (1) 
8
1 -0.43
10 0.66
11 0.12
12 0.45
13 0.06
2 -0.57
3 -0.57
4 0.28

>  <PUBCHEM_EFFECTIVE_ROTOR_COUNT>  (1) 
5.2

>  <PUBCHEM_PHARMACOPHORE_FEATURES>  (1) 
4
1 11 anion
1 2 acceptor
1 3 acceptor
6 4 5 6 7 8 9 rings

>  <PUBCHEM_HEAVY_ATOM_COUNT>  (1) 
13

>  <PUBCHEM_ATOM_DEF_STEREO_COUNT>  (1) 
0

>  <PUBCHEM_ATOM_UDEF_STEREO_COUNT>  (1) 
0

>  <PUBCHEM_BOND_DEF_STEREO_COUNT>  (1) 
0

>  <PUBCHEM_BOND_UDEF_STEREO_COUNT>  (1) 
0

>  <PUBCHEM_ISOTOPIC_ATOM_COUNT>  (1) 
0

>  <PUBCHEM_COMPONENT_COUNT>  (1) 
1

>  <PUBCHEM_CACTVS_TAUTO_COUNT>  (1) 
5

>  <PUBCHEM_CONFORMER_ID>  (1) 
00005B5000000001

>  <PUBCHEM_MMFF94_ENERGY>  (1) 
13.2333

>  <PUBCHEM_FEATURE_SELFOVERLAP>  (1) 
20.304

>  <PUBCHEM_SHAPE_FINGERPRINT>  (1) 
10219947 1 17561082501486732420
10465860 250 18408035217198506952
11132069 177 18408321085847243641
12119455 92 17632291267952317830
12251169 10 18412824720056034976
124424 183 18411132541580331417
13214271 11 18272928336705573877
13581323 91 18186523202319636901
14252887 29 18343306950997613370
15219456 202 18272935990084016246
15375358 24 18342174449156253119
15653759 3 18410574002373674448
17834072 33 17967540112020603756
18186145 218 15985103033384623056
200 152 17346871261376336445
20201158 50 18343868801138655023
20279233 1 18343586235018744207
20281407 28 18335990813083928314
204376 136 17060336357528768310
20528008 55 18273493472580953879
20645464 45 18343306959561018207
20645477 70 17560798767599889294
20828058 44 18260260850457129096
21293036 1 11458423544123181276
21501925 9 18335138730200785868
22485316 2 18114176432634345514
22854114 59 17775566450793417016
22959321 60 18202274832106933192
23048698 100 16056881321267129194
232386 152 18041287654950349367
23402539 116 18410844465692554813
23559900 14 18337392635060233630
42 15 18113618984238611802
449060 50 18131066074025567056
474 4 14907312287859095170
573450 72 17749096777654062152
57812782 119 18412824694048750505
69090 78 18272647952856401679

>  <PUBCHEM_SHAPE_MULTIPOLES>  (1) 
249.93
8.62
1.28
0.93
4.66
0.1
0.04
0.47
-2.16
-0.95
-0.02
0.48
0.09
0.64

>  <PUBCHEM_SHAPE_SELFOVERLAP>  (1) 
490.632

>  <PUBCHEM_SHAPE_VOLUME>  (1) 
147.7

>  <PUBCHEM_COORDINATE_TYPE>  (1) 
2
5
10

$$$$
