23375
     RDKit          3D

  9  8  0  0  0  0  0  0  0  0999 V2000
    3.0640   -0.9440    0.0100 O   0  0  0  0  0  0  0  0  0  0  0  0
    2.5075    1.2679   -0.0340 O   0  0  0  0  0  0  0  0  0  0  0  0
   -1.7044    0.0199   -0.0108 C   0  0  0  0  0  0  0  0  0  0  0  0
   -2.4888    0.5208   -1.2377 C   0  0  0  0  0  0  0  0  0  0  0  0
   -1.8143   -1.5144    0.0454 C   0  0  0  0  0  0  0  0  0  0  0  0
   -2.3453    0.6168    1.2548 C   0  0  0  0  0  0  0  0  0  0  0  0
   -0.2272    0.3918   -0.0174 C   0  0  0  0  0  0  0  0  0  0  0  0
    0.8172   -0.4492    0.0001 C   0  0  0  0  0  0  0  0  0  0  0  0
    2.1914    0.0904   -0.0104 C   0  0  0  0  0  0  0  0  0  0  0  0
  1  9  1  0
  2  9  2  0
  3  4  1  0
  3  5  1  0
  3  6  1  0
  3  7  1  0
  7  8  2  0
  8  9  1  0
M  END
>  <PUBCHEM_COMPOUND_CID>  (1) 
23375

>  <PUBCHEM_CONFORMER_RMSD>  (1) 
0.4

>  <PUBCHEM_CONFORMER_DIVERSEORDER>  (1) 
1

>  <PUBCHEM_MMFF94_PARTIAL_CHARGES>  (1) 
9
1 -0.65
19 0.15
2 -0.57
20 0.15
21 0.5
3 0.14
7 -0.29
8 -0.14
9 0.71

>  <PUBCHEM_EFFECTIVE_ROTOR_COUNT>  (1) 
2

>  <PUBCHEM_PHARMACOPHORE_FEATURES>  (1) 
4
1 1 acceptor
1 2 acceptor
3 1 2 9 anion
4 3 4 5 6 hydrophobe

>  <PUBCHEM_HEAVY_ATOM_COUNT>  (1) 
9

>  <PUBCHEM_ATOM_DEF_STEREO_COUNT>  (1) 
0

>  <PUBCHEM_ATOM_UDEF_STEREO_COUNT>  (1) 
0

>  <PUBCHEM_BOND_DEF_STEREO_COUNT>  (1) 
0

>  <PUBCHEM_BOND_UDEF_STEREO_COUNT>  (1) 
1

>  <PUBCHEM_ISOTOPIC_ATOM_COUNT>  (1) 
0

>  <PUBCHEM_COMPONENT_COUNT>  (1) 
1

>  <PUBCHEM_CACTVS_TAUTO_COUNT>  (1) 
1

>  <PUBCHEM_CONFORMER_ID>  (1) 
00005B4F00000001

>  <PUBCHEM_MMFF94_ENERGY>  (1) 
19.0225

>  <PUBCHEM_FEATURE_SELFOVERLAP>  (1) 
20.353

>  <PUBCHEM_SHAPE_FINGERPRINT>  (1) 
12897270 3 18409162225248713614
12932741 1 17821728329714980580
12932764 1 17967816046056842682
14325111 11 18410011065516027982
14390081 3 17749379365058950813
20653085 51 18114736045556693333
23552423 10 18260548956678942562
29004967 10 17167868568718138696
3248919 1 18059855064895807334
369184 2 18334294279590410403
5084963 1 18334294313718131107
8030462 33 17847060003903580276

>  <PUBCHEM_SHAPE_MULTIPOLES>  (1) 
173.48
4.67
1.2
0.96
2.55
0.26
-0.01
-0.19
0.1
-0.04
-0.03
-0.88
-0.21
-0.03

>  <PUBCHEM_SHAPE_SELFOVERLAP>  (1) 
327.499

>  <PUBCHEM_SHAPE_VOLUME>  (1) 
109.1

>  <PUBCHEM_COORDINATE_TYPE>  (1) 
2
5
10

$$$$
