23372
     RDKit          3D

  8  7  0  0  0  0  0  0  0  0999 V2000
    4.2428    0.2540   -0.0136 S   0  0  0  0  0  0  0  0  0  0  0  0
   -3.2677    0.7635   -0.0308 O   0  0  0  0  0  0  0  0  0  0  0  0
   -2.2590   -1.2722   -0.0006 O   0  0  0  0  0  0  0  0  0  0  0  0
    0.2137   -0.2510    0.0173 N   0  0  0  0  0  0  0  0  0  0  0  0
    1.5023    0.4352    0.0202 C   0  0  0  0  0  0  0  0  0  0  0  0
   -0.8824    0.7064    0.0170 C   0  0  0  0  0  0  0  0  0  0  0  0
    2.6323   -0.5860   -0.0174 C   0  0  0  0  0  0  0  0  0  0  0  0
   -2.1820   -0.0501    0.0080 C   0  0  0  0  0  0  0  0  0  0  0  0
  1  7  1  0
  2  8  1  0
  3  8  2  0
  4  5  1  0
  4  6  1  0
  5  7  1  0
  6  8  1  0
M  END
>  <PUBCHEM_COMPOUND_CID>  (1) 
23372

>  <PUBCHEM_CONFORMER_RMSD>  (1) 
0.6

>  <PUBCHEM_CONFORMER_DIVERSEORDER>  (1) 
1
13
9
21
5
19
8
14
6
2
17
20
12
3
4
16
10
18
11
15
7

>  <PUBCHEM_MMFF94_PARTIAL_CHARGES>  (1) 
11
1 -0.41
11 0.36
16 0.18
17 0.5
2 -0.65
3 -0.57
4 -0.9
5 0.27
6 0.33
7 0.23
8 0.66

>  <PUBCHEM_EFFECTIVE_ROTOR_COUNT>  (1) 
4

>  <PUBCHEM_PHARMACOPHORE_FEATURES>  (1) 
5
1 2 acceptor
1 3 acceptor
1 4 cation
1 4 donor
3 2 3 8 anion

>  <PUBCHEM_HEAVY_ATOM_COUNT>  (1) 
8

>  <PUBCHEM_ATOM_DEF_STEREO_COUNT>  (1) 
0

>  <PUBCHEM_ATOM_UDEF_STEREO_COUNT>  (1) 
0

>  <PUBCHEM_BOND_DEF_STEREO_COUNT>  (1) 
0

>  <PUBCHEM_BOND_UDEF_STEREO_COUNT>  (1) 
0

>  <PUBCHEM_ISOTOPIC_ATOM_COUNT>  (1) 
0

>  <PUBCHEM_COMPONENT_COUNT>  (1) 
1

>  <PUBCHEM_CACTVS_TAUTO_COUNT>  (1) 
1

>  <PUBCHEM_CONFORMER_ID>  (1) 
00005B4C00000001

>  <PUBCHEM_MMFF94_ENERGY>  (1) 
4.0663

>  <PUBCHEM_FEATURE_SELFOVERLAP>  (1) 
25.429

>  <PUBCHEM_SHAPE_FINGERPRINT>  (1) 
11062470 55 18333169457820683244
12932764 1 17313373535296749836
14325111 11 18410575089359011810
190213 19 17561085813170177216
5460574 1 9151172052135348712

>  <PUBCHEM_SHAPE_MULTIPOLES>  (1) 
151.77
6.92
0.96
0.59
3.59
0.12
0
-0.31
0.07
-0.39
0
0.12
-0.01
0.01

>  <PUBCHEM_SHAPE_SELFOVERLAP>  (1) 
264.977

>  <PUBCHEM_SHAPE_VOLUME>  (1) 
101.1

>  <PUBCHEM_COORDINATE_TYPE>  (1) 
2
5
10

$$$$
