23373
     RDKit          3D

 23 23  0  0  1  0  0  0  0  0999 V2000
   -6.4155    2.8532    0.8808 Cl  0  0  0  0  0  0  0  0  0  0  0  0
   -4.9912   -4.0731    0.1434 Cl  0  0  0  0  0  0  0  0  0  0  0  0
    2.5470    0.4484    0.0100 S   0  0  0  0  0  0  0  0  0  0  0  0
    2.4496   -1.0010    0.0029 O   0  0  0  0  0  0  0  0  0  0  0  0
    2.2426    1.2052    1.2121 O   0  0  0  0  0  0  0  0  0  0  0  0
    4.8740   -1.7028    1.2601 O   0  0  0  0  0  0  0  0  0  0  0  0
    6.4355   -1.4156   -0.3583 O   0  0  0  0  0  0  0  0  0  0  0  0
   -3.8858   -0.1894    0.0727 N   0  0  0  0  0  0  0  0  0  0  0  0
    6.4651    1.2827    0.2004 N   0  0  0  0  0  0  0  0  0  0  0  0
    1.5025    1.0633   -1.2908 C   0  0  0  0  0  0  0  0  0  0  0  0
    4.1700    0.8946   -0.5262 C   0  0  0  0  0  0  0  0  0  0  0  0
    0.0862    0.7342   -0.9326 C   0  0  0  0  0  0  0  0  0  0  0  0
    5.2428    0.5319    0.4935 C   0  0  0  0  0  0  0  0  0  0  0  0
   -2.5521    0.1208   -0.2650 C   0  0  0  0  0  0  0  0  0  0  0  0
   -0.4744   -0.4750   -1.3443 C   0  0  0  0  0  0  0  0  0  0  0  0
   -0.6725    1.6366   -0.1871 C   0  0  0  0  0  0  0  0  0  0  0  0
   -1.7935   -0.7817   -1.0105 C   0  0  0  0  0  0  0  0  0  0  0  0
   -1.9916    1.3299    0.1468 C   0  0  0  0  0  0  0  0  0  0  0  0
   -4.6824    0.7415    0.8471 C   0  0  0  0  0  0  0  0  0  0  0  0
   -4.4819   -1.4370   -0.3623 C   0  0  0  0  0  0  0  0  0  0  0  0
    5.6036   -0.9402    0.4048 C   0  0  0  0  0  0  0  0  0  0  0  0
   -5.4244    1.7105   -0.0601 C   0  0  0  0  0  0  0  0  0  0  0  0
   -4.2537   -2.5370    0.6626 C   0  0  0  0  0  0  0  0  0  0  0  0
  1 22  1  0
  2 23  1  0
  3  4  2  0
  3  5  2  0
  3 10  1  0
  3 11  1  0
  6 21  1  0
  7 21  2  0
  8 14  1  0
  8 19  1  0
  8 20  1  0
  9 13  1  0
 10 12  1  0
 11 13  1  0
 12 15  2  0
 12 16  1  0
 13 21  1  0
 14 17  2  0
 14 18  1  0
 15 17  1  0
 16 18  2  0
 19 22  1  0
 20 23  1  0
M  END
>  <PUBCHEM_COMPOUND_CID>  (1) 
23373

>  <PUBCHEM_CONFORMER_RMSD>  (1) 
1

>  <PUBCHEM_CONFORMER_DIVERSEORDER>  (1) 
2
35
46
17
8
16
5
55
54
52
12
64
48
40
34
59
36
57
31
29
58
38
32
30
37
39
24
49
6
61
56
50
11
19
15
63
28
60
14
9
7
20
53
47
62
25
41
27
51
21
45
42
26
18
22
33
44
43
23
13
10
1
3
4

>  <PUBCHEM_MMFF94_PARTIAL_CHARGES>  (1) 
30
1 -0.29
10 0.25
11 0.11
12 -0.14
13 0.33
14 0.1
15 -0.15
16 -0.15
17 -0.15
18 -0.15
19 0.37
2 -0.29
20 0.37
21 0.66
22 0.29
23 0.29
29 0.15
3 1.09
30 0.15
31 0.15
32 0.15
37 0.36
38 0.36
4 -0.65
43 0.5
5 -0.65
6 -0.65
7 -0.57
8 -0.84
9 -0.99

>  <PUBCHEM_EFFECTIVE_ROTOR_COUNT>  (1) 
10

>  <PUBCHEM_PHARMACOPHORE_FEATURES>  (1) 
9
1 4 acceptor
1 5 acceptor
1 6 acceptor
1 7 acceptor
1 8 cation
1 9 cation
1 9 donor
3 6 7 21 anion
6 12 14 15 16 17 18 rings

>  <PUBCHEM_HEAVY_ATOM_COUNT>  (1) 
23

>  <PUBCHEM_ATOM_DEF_STEREO_COUNT>  (1) 
0

>  <PUBCHEM_ATOM_UDEF_STEREO_COUNT>  (1) 
1

>  <PUBCHEM_BOND_DEF_STEREO_COUNT>  (1) 
0

>  <PUBCHEM_BOND_UDEF_STEREO_COUNT>  (1) 
0

>  <PUBCHEM_ISOTOPIC_ATOM_COUNT>  (1) 
0

>  <PUBCHEM_COMPONENT_COUNT>  (1) 
1

>  <PUBCHEM_CACTVS_TAUTO_COUNT>  (1) 
1

>  <PUBCHEM_CONFORMER_ID>  (1) 
00005B4D00000002

>  <PUBCHEM_MMFF94_ENERGY>  (1) 
51.7268

>  <PUBCHEM_FEATURE_SELFOVERLAP>  (1) 
45.75

>  <PUBCHEM_SHAPE_FINGERPRINT>  (1) 
10319926 262 18272080617514316841
11089746 13 17703781501475163597
11545043 162 18201156650140095091
11796584 16 18412267211815738638
12107183 9 18334861567735523065
12236239 1 18410293614424752716
12596602 18 18343021116565709722
12616971 3 17385733503696221301
12633257 1 16701739479045850214
13583140 156 17988924505100292375
14211702 104 18263370333433511014
14251764 18 18410856551788755565
14341114 176 18409731742618976760
14420673 8 18340208484022827070
14844126 61 18339364184285173851
15348495 7 18343018925700073360
15537594 2 17095518474480351291
1813 80 17894917304581425108
18222031 100 17458337568272498060
200 152 15719387335054284028
20028762 73 18335698390711353858
21033648 29 17632283597409999705
21150785 3 9799395720538770316
21859007 373 17753892714800673813
220451 1 18041001722008471470
22950370 63 18333448755401955780
23402539 116 17561073701078047021
23522609 53 17897190020533135044
23559900 14 18412261714057016333
2838139 119 10591770887061640042
312425 54 18408599253978763800
4073 2 18408608071441464898
5104073 3 18342737454991917440
559249 180 18407759227649062791
57724786 102 14261064467589338730
5924683 9 18337673118063197867
7226269 152 18201720596901177185

>  <PUBCHEM_SHAPE_MULTIPOLES>  (1) 
447.48
17.08
3.11
1.09
11.94
2.59
0.08
1.13
-4.89
-7.06
-0.71
0.14
-0.06
-0.93

>  <PUBCHEM_SHAPE_SELFOVERLAP>  (1) 
873.516

>  <PUBCHEM_SHAPE_VOLUME>  (1) 
271.5

>  <PUBCHEM_COORDINATE_TYPE>  (1) 
2
5
10

$$$$
