23389
     RDKit          3D

 16 18  0  0  0  0  0  0  0  0999 V2000
    4.3864   -1.6785    0.0001 O   0  0  0  0  0  0  0  0  0  0  0  0
    3.8090    0.6169   -0.0003 N   0  0  0  0  0  0  0  0  0  0  0  0
   -0.6429   -1.6914    0.0001 C   0  0  0  0  0  0  0  0  0  0  0  0
    0.3319   -0.5324    0.0000 C   0  0  0  0  0  0  0  0  0  0  0  0
   -0.3626    0.6982   -0.0001 C   0  0  0  0  0  0  0  0  0  0  0  0
   -1.9762   -0.9733   -0.0001 C   0  0  0  0  0  0  0  0  0  0  0  0
   -1.7841    0.4266   -0.0002 C   0  0  0  0  0  0  0  0  0  0  0  0
    1.7149   -0.5821    0.0004 C   0  0  0  0  0  0  0  0  0  0  0  0
    0.3304    1.8971    0.0001 C   0  0  0  0  0  0  0  0  0  0  0  0
   -3.2434   -1.5292   -0.0001 C   0  0  0  0  0  0  0  0  0  0  0  0
   -2.8702    1.2858   -0.0001 C   0  0  0  0  0  0  0  0  0  0  0  0
    2.4132    0.6267    0.0003 C   0  0  0  0  0  0  0  0  0  0  0  0
    1.7280    1.8539    0.0001 C   0  0  0  0  0  0  0  0  0  0  0  0
   -4.3381   -0.6629    0.0000 C   0  0  0  0  0  0  0  0  0  0  0  0
   -4.1534    0.7305    0.0001 C   0  0  0  0  0  0  0  0  0  0  0  0
    4.6571   -0.4858   -0.0003 C   0  0  0  0  0  0  0  0  0  0  0  0
  1 16  2  0
  2 12  1  0
  2 16  1  0
  3  4  1  0
  3  6  1  0
  4  5  2  0
  4  8  1  0
  5  7  1  0
  5  9  1  0
  6  7  2  0
  6 10  1  0
  7 11  1  0
  8 12  2  0
  9 13  2  0
 10 14  2  0
 11 15  2  0
 12 13  1  0
 14 15  1  0
M  END
>  <PUBCHEM_COMPOUND_CID>  (1) 
23389

>  <PUBCHEM_CONFORMER_RMSD>  (1) 
0.6

>  <PUBCHEM_CONFORMER_DIVERSEORDER>  (1) 
1
3
2
4

>  <PUBCHEM_MMFF94_PARTIAL_CHARGES>  (1) 
23
1 -0.57
10 -0.15
11 -0.15
12 0.12
13 -0.15
14 -0.15
15 -0.15
16 0.57
19 0.15
2 -0.55
20 0.15
21 0.15
22 0.15
23 0.15
24 0.15
25 0.15
26 0.37
27 0.06
3 0.29
4 -0.14
6 -0.14
8 -0.15
9 -0.15

>  <PUBCHEM_EFFECTIVE_ROTOR_COUNT>  (1) 
2.2

>  <PUBCHEM_PHARMACOPHORE_FEATURES>  (1) 
5
1 1 acceptor
1 2 donor
5 3 4 5 6 7 rings
6 4 5 8 9 12 13 rings
6 6 7 10 11 14 15 rings

>  <PUBCHEM_HEAVY_ATOM_COUNT>  (1) 
16

>  <PUBCHEM_ATOM_DEF_STEREO_COUNT>  (1) 
0

>  <PUBCHEM_ATOM_UDEF_STEREO_COUNT>  (1) 
0

>  <PUBCHEM_BOND_DEF_STEREO_COUNT>  (1) 
0

>  <PUBCHEM_BOND_UDEF_STEREO_COUNT>  (1) 
0

>  <PUBCHEM_ISOTOPIC_ATOM_COUNT>  (1) 
0

>  <PUBCHEM_COMPONENT_COUNT>  (1) 
1

>  <PUBCHEM_CACTVS_TAUTO_COUNT>  (1) 
2

>  <PUBCHEM_CONFORMER_ID>  (1) 
00005B5D00000001

>  <PUBCHEM_MMFF94_ENERGY>  (1) 
54.7833

>  <PUBCHEM_FEATURE_SELFOVERLAP>  (1) 
25.536

>  <PUBCHEM_SHAPE_FINGERPRINT>  (1) 
10062212 137 18342452651542210903
10608611 8 18339357582382154929
10967382 1 18410575054719737575
11132069 177 18411132541364034192
11401426 45 18341608226437739136
11471102 20 18410289237436099796
12032990 46 18410014350960255136
12403259 226 18340199808405095409
13140716 1 18339932596961884681
13288520 33 18412266112525527166
13380535 76 18411702097351865471
13675066 3 18343579676682707056
13690532 89 18411136939410395760
13862211 1 18410568470466658318
14115302 16 17822302309302823134
14790565 3 15821870254563910464
14866123 147 17263856784648650866
15099037 51 18409727352861421263
15196674 1 18410293631177197893
15442244 35 18411420626385259472
15536298 74 18342174513860545296
16945 1 18050568744390875333
17802600 8 18411133671367791805
17804303 29 18411703205136799765
1813 80 17458062647426261828
18186145 218 17676761058750668423
18522853 276 18342457057978131601
200 152 17988920098384615031
20645477 70 18342178869205316494
21267235 1 18410301314952987139
21501502 16 18267025148912354893
221490 88 18191030203503194131
23175994 123 17346604070801553960
23366157 5 17969779885773372788
23402539 116 18272643537139157717
23463225 33 18409730672892200988
23559900 14 18342735239437716712
2748010 2 18338514265632472797
296302 2 9439409033904589673
3004659 81 18187932734258325022
335352 9 18410856521449496373
4214541 1 18410855443027641249
5104073 3 18411982493932823249
633830 44 17313383460908265537
69090 78 18273210936863554255
7364860 26 18197216060696512232
77779 3 18409450310079937316
8809292 202 18261115226726506019
9709674 26 18265053720079069499
9981440 41 17255679119319694160

>  <PUBCHEM_SHAPE_MULTIPOLES>  (1) 
318.42
8.4
1.9
0.61
3.24
0.13
0
-1.97
0
0.14
0
-0.05
0.01
0

>  <PUBCHEM_SHAPE_SELFOVERLAP>  (1) 
710.871

>  <PUBCHEM_SHAPE_VOLUME>  (1) 
169.2

>  <PUBCHEM_COORDINATE_TYPE>  (1) 
2
5
10

$$$$
