23383
     RDKit          3D

 12 13  0  0  0  0  0  0  0  0999 V2000
   -4.1287    0.9700    0.1675 Cl  0  0  0  0  0  0  0  0  0  0  0  0
    3.9966    0.3948    0.8931 O   0  0  0  0  0  0  0  0  0  0  0  0
    1.0762    1.0710   -0.2563 N   0  0  0  0  0  0  0  0  0  0  0  0
    1.3455   -1.1332   -0.1605 N   0  0  0  0  0  0  0  0  0  0  0  0
   -0.1869    0.5532   -0.1267 C   0  0  0  0  0  0  0  0  0  0  0  0
    0.0078   -0.8240   -0.0691 C   0  0  0  0  0  0  0  0  0  0  0  0
    1.9564    0.0250   -0.2719 C   0  0  0  0  0  0  0  0  0  0  0  0
   -1.4447    1.1531   -0.0571 C   0  0  0  0  0  0  0  0  0  0  0  0
   -1.1073   -1.6683    0.0660 C   0  0  0  0  0  0  0  0  0  0  0  0
    3.4086    0.2485   -0.3999 C   0  0  0  0  0  0  0  0  0  0  0  0
   -2.5434    0.2979    0.0770 C   0  0  0  0  0  0  0  0  0  0  0  0
   -2.3800   -1.0881    0.1379 C   0  0  0  0  0  0  0  0  0  0  0  0
  1 11  1  0
  2 10  1  0
  3  5  1  0
  3  7  1  0
  4  6  1  0
  4  7  2  0
  5  6  2  0
  5  8  1  0
  6  9  1  0
  7 10  1  0
  8 11  2  0
  9 12  2  0
 11 12  1  0
M  END
>  <PUBCHEM_COMPOUND_CID>  (1) 
23383

>  <PUBCHEM_CONFORMER_RMSD>  (1) 
0.4

>  <PUBCHEM_CONFORMER_DIVERSEORDER>  (1) 
2
3
4
1

>  <PUBCHEM_MMFF94_PARTIAL_CHARGES>  (1) 
17
1 -0.18
10 0.46
11 0.18
12 -0.15
13 0.27
14 0.15
15 0.15
18 0.15
19 0.4
2 -0.68
3 0.03
4 -0.57
5 -0.15
6 0.23
7 0.01
8 -0.15
9 -0.15

>  <PUBCHEM_EFFECTIVE_ROTOR_COUNT>  (1) 
1

>  <PUBCHEM_PHARMACOPHORE_FEATURES>  (1) 
6
1 2 acceptor
1 2 donor
1 3 donor
3 3 4 7 cation
5 3 4 5 6 7 rings
6 5 6 8 9 11 12 rings

>  <PUBCHEM_HEAVY_ATOM_COUNT>  (1) 
12

>  <PUBCHEM_ATOM_DEF_STEREO_COUNT>  (1) 
0

>  <PUBCHEM_ATOM_UDEF_STEREO_COUNT>  (1) 
0

>  <PUBCHEM_BOND_DEF_STEREO_COUNT>  (1) 
0

>  <PUBCHEM_BOND_UDEF_STEREO_COUNT>  (1) 
0

>  <PUBCHEM_ISOTOPIC_ATOM_COUNT>  (1) 
0

>  <PUBCHEM_COMPONENT_COUNT>  (1) 
1

>  <PUBCHEM_CACTVS_TAUTO_COUNT>  (1) 
2

>  <PUBCHEM_CONFORMER_ID>  (1) 
00005B5700000002

>  <PUBCHEM_MMFF94_ENERGY>  (1) 
16.4516

>  <PUBCHEM_FEATURE_SELFOVERLAP>  (1) 
30.553

>  <PUBCHEM_SHAPE_FINGERPRINT>  (1) 
11062470 55 17704072880440308201
11132069 177 18411982463852239956
11543360 7 15769481093437315413
12119455 92 17346311588139927702
12932764 1 16878216545722710076
13024252 1 14201111323677685383
13380535 76 18410857646562284927
14325111 11 18410577279401955748
14897335 6 18411979135532238431
15219456 202 18201166472503863406
15775835 57 18335143068233695353
16945 1 18409456889975057711
17846911 113 18413103944322274097
19026448 5 16081096999410992711
193761 8 17833837444851219565
20645464 45 18202285813815965423
20871998 184 18129388261857052015
21501502 16 18192715767676702717
23235685 24 18411416189900093189
23402539 116 18342448245243206669
23402655 69 18269263583552901253
23463225 33 18260264131875576426
23552423 10 17970914589840328774
23559900 14 18343308063731610444
2748010 2 18047194038104291109
366044 4 18410575072284741643
528886 8 18410572877382250211
53812653 166 18342453742279112512
6333449 129 18342173397084483343
69090 78 18272366469115553191
7364860 26 18197778800091125342

>  <PUBCHEM_SHAPE_MULTIPOLES>  (1) 
232.99
6.15
1.43
0.68
1.41
0.37
-0.04
-1.87
-0.81
-0.69
0
0.22
-0.03
0.07

>  <PUBCHEM_SHAPE_SELFOVERLAP>  (1) 
497.47

>  <PUBCHEM_SHAPE_VOLUME>  (1) 
132.1

>  <PUBCHEM_COORDINATE_TYPE>  (1) 
2
5
10

$$$$
