23388
     RDKit          3D

 16 17  0  0  0  0  0  0  0  0999 V2000
   -4.2529    1.2831    0.2330 O   0  0  0  0  0  0  0  0  0  0  0  0
    1.0776   -2.0141   -0.3105 O   0  0  0  0  0  0  0  0  0  0  0  0
    0.1826    0.1011   -0.0193 N   0  0  0  0  0  0  0  0  0  0  0  0
   -1.0891   -0.3604   -0.0787 N   0  0  0  0  0  0  0  0  0  0  0  0
    5.1667    0.8294    0.1238 N   0  0  0  0  0  0  0  0  0  0  0  0
    2.5889   -0.2374   -0.0516 C   0  0  0  0  0  0  0  0  0  0  0  0
   -3.4290    0.2472    0.0522 C   0  0  0  0  0  0  0  0  0  0  0  0
    1.2486   -0.7926   -0.1442 C   0  0  0  0  0  0  0  0  0  0  0  0
    3.6435   -1.0292    0.3893 C   0  0  0  0  0  0  0  0  0  0  0  0
    2.8217    1.0872   -0.4048 C   0  0  0  0  0  0  0  0  0  0  0  0
   -4.0559   -0.9258   -0.1316 C   0  0  0  0  0  0  0  0  0  0  0  0
   -1.9884    0.5551    0.0833 C   0  0  0  0  0  0  0  0  0  0  0  0
   -5.4330   -0.6070   -0.0610 C   0  0  0  0  0  0  0  0  0  0  0  0
   -5.5003    0.7486    0.1619 C   0  0  0  0  0  0  0  0  0  0  0  0
    4.9020   -0.4534    0.4583 C   0  0  0  0  0  0  0  0  0  0  0  0
    4.1169    1.5682   -0.3001 C   0  0  0  0  0  0  0  0  0  0  0  0
  1  7  1  0
  1 14  1  0
  2  8  2  0
  3  4  1  0
  3  8  1  0
  4 12  2  0
  5 15  2  0
  5 16  1  0
  6  8  1  0
  6  9  2  0
  6 10  1  0
  7 11  2  0
  7 12  1  0
  9 15  1  0
 10 16  2  0
 11 13  1  0
 13 14  2  0
M  END
>  <PUBCHEM_COMPOUND_CID>  (1) 
23388

>  <PUBCHEM_CONFORMER_RMSD>  (1) 
0.6

>  <PUBCHEM_CONFORMER_DIVERSEORDER>  (1) 
1
6
3
5
4
2

>  <PUBCHEM_MMFF94_PARTIAL_CHARGES>  (1) 
25
1 -0.28
10 -0.15
11 -0.15
12 0.47
13 -0.15
14 -0.01
15 0.16
16 0.16
17 0.15
18 0.15
19 0.15
2 -0.57
20 0.06
21 0.15
22 0.37
23 0.15
24 0.15
25 0.15
3 -0.37
4 -0.51
5 -0.62
6 0.09
7 0.05
8 0.54
9 -0.15

>  <PUBCHEM_EFFECTIVE_ROTOR_COUNT>  (1) 
4

>  <PUBCHEM_PHARMACOPHORE_FEATURES>  (1) 
7
1 1 acceptor
1 2 acceptor
1 3 donor
1 4 acceptor
1 5 acceptor
5 1 7 11 13 14 rings
6 5 6 9 10 15 16 rings

>  <PUBCHEM_HEAVY_ATOM_COUNT>  (1) 
16

>  <PUBCHEM_ATOM_DEF_STEREO_COUNT>  (1) 
0

>  <PUBCHEM_ATOM_UDEF_STEREO_COUNT>  (1) 
0

>  <PUBCHEM_BOND_DEF_STEREO_COUNT>  (1) 
0

>  <PUBCHEM_BOND_UDEF_STEREO_COUNT>  (1) 
1

>  <PUBCHEM_ISOTOPIC_ATOM_COUNT>  (1) 
0

>  <PUBCHEM_COMPONENT_COUNT>  (1) 
1

>  <PUBCHEM_CACTVS_TAUTO_COUNT>  (1) 
2

>  <PUBCHEM_CONFORMER_ID>  (1) 
00005B5C00000001

>  <PUBCHEM_MMFF94_ENERGY>  (1) 
32.3757

>  <PUBCHEM_FEATURE_SELFOVERLAP>  (1) 
35.528

>  <PUBCHEM_SHAPE_FINGERPRINT>  (1) 
10354089 29 18334012800709180984
10688039 33 17458060443671027436
10912923 1 18412262826806928699
10937287 8 16813790863910626988
11287383 113 18334579061718377875
12107183 9 17617376186800503017
12236239 1 18201718452920542679
12916748 109 15913332394168860714
13167372 99 18340208475422349617
13167823 11 18408319982246825227
13533116 47 17095795521683279706
14123238 8 18410573993757222989
1420 363 18113344119754795859
14251764 18 18260824913392564528
14528608 73 18412828018395804717
17834072 33 18341611542437289351
19489759 90 15357690886601503997
200 152 18344144791658322145
20645477 70 18339362968292288702
212847 35 18342455959062622328
23402539 116 17967808349665268007
23402655 69 18273496766725865999
23559900 14 18127128572119910919
2916195 48 17774712164892894864
300161 21 18408880712208101885
34797466 226 17131559439321246237
351380 180 18186801382998558688
3545911 37 18410294722499687822
4214541 1 18409448064350254605
42630746 31 18343302540013777830
42788 4 18410855460138711321
4325135 7 18342173397422171791
474229 33 18411981386069091535
5104073 3 18408605863959734939
542803 24 18410012134973447225
7495541 125 17988357177952652627
77779 3 18411420588067878079
9971528 1 17385726889456953036

>  <PUBCHEM_SHAPE_MULTIPOLES>  (1) 
302.59
14.01
1.44
0.64
7.41
0.07
0
-2.26
1.02
-0.72
-0.09
-0.12
0
-0.47

>  <PUBCHEM_SHAPE_SELFOVERLAP>  (1) 
649.947

>  <PUBCHEM_SHAPE_VOLUME>  (1) 
166.4

>  <PUBCHEM_COORDINATE_TYPE>  (1) 
2
5
10

$$$$
