23382
     RDKit          3D

 14 15  0  0  0  0  0  0  0  0999 V2000
    2.4638    0.3042    1.4190 O   0  0  0  0  0  0  0  0  0  0  0  0
    3.9198    1.0496   -0.7162 O   0  0  0  0  0  0  0  0  0  0  0  0
    2.6769    0.4193   -0.8733 N   0  0  0  0  0  0  0  0  0  0  0  0
   -0.4941    0.1616    0.0637 C   0  0  0  0  0  0  0  0  0  0  0  0
   -1.7189   -0.5310   -0.0871 C   0  0  0  0  0  0  0  0  0  0  0  0
    0.7036   -0.5686    0.1329 C   0  0  0  0  0  0  0  0  0  0  0  0
   -0.5031    1.5638    0.1407 C   0  0  0  0  0  0  0  0  0  0  0  0
   -1.7101   -1.9333   -0.1645 C   0  0  0  0  0  0  0  0  0  0  0  0
    0.6939   -1.9617    0.0548 C   0  0  0  0  0  0  0  0  0  0  0  0
   -2.9167    0.1989   -0.1565 C   0  0  0  0  0  0  0  0  0  0  0  0
   -0.5107   -2.6427   -0.0939 C   0  0  0  0  0  0  0  0  0  0  0  0
   -1.7024    2.2730    0.0703 C   0  0  0  0  0  0  0  0  0  0  0  0
   -2.9071    1.5919   -0.0779 C   0  0  0  0  0  0  0  0  0  0  0  0
    2.0051    0.0749    0.2880 C   0  0  0  0  0  0  0  0  0  0  0  0
  1 14  2  0
  2  3  1  0
  3 14  1  0
  4  5  1  0
  4  6  2  0
  4  7  1  0
  5  8  2  0
  5 10  1  0
  6  9  1  0
  6 14  1  0
  7 12  2  0
  8 11  1  0
  9 11  2  0
 10 13  2  0
 12 13  1  0
M  END
>  <PUBCHEM_COMPOUND_CID>  (1) 
23382

>  <PUBCHEM_CONFORMER_RMSD>  (1) 
0.6

>  <PUBCHEM_CONFORMER_DIVERSEORDER>  (1) 
1
3
2

>  <PUBCHEM_MMFF94_PARTIAL_CHARGES>  (1) 
21
1 -0.57
10 -0.15
11 -0.15
12 -0.15
13 -0.15
14 0.54
15 0.15
16 0.15
17 0.15
18 0.15
19 0.15
2 -0.44
20 0.15
21 0.15
22 0.37
23 0.4
3 -0.39
6 0.09
7 -0.15
8 -0.15
9 -0.15

>  <PUBCHEM_EFFECTIVE_ROTOR_COUNT>  (1) 
2

>  <PUBCHEM_PHARMACOPHORE_FEATURES>  (1) 
4
1 1 acceptor
1 3 donor
6 4 5 6 8 9 11 rings
6 4 5 7 10 12 13 rings

>  <PUBCHEM_HEAVY_ATOM_COUNT>  (1) 
14

>  <PUBCHEM_ATOM_DEF_STEREO_COUNT>  (1) 
0

>  <PUBCHEM_ATOM_UDEF_STEREO_COUNT>  (1) 
0

>  <PUBCHEM_BOND_DEF_STEREO_COUNT>  (1) 
0

>  <PUBCHEM_BOND_UDEF_STEREO_COUNT>  (1) 
0

>  <PUBCHEM_ISOTOPIC_ATOM_COUNT>  (1) 
0

>  <PUBCHEM_COMPONENT_COUNT>  (1) 
1

>  <PUBCHEM_CACTVS_TAUTO_COUNT>  (1) 
3

>  <PUBCHEM_CONFORMER_ID>  (1) 
00005B5600000001

>  <PUBCHEM_MMFF94_ENERGY>  (1) 
46.992

>  <PUBCHEM_FEATURE_SELFOVERLAP>  (1) 
20.324

>  <PUBCHEM_SHAPE_FINGERPRINT>  (1) 
10967382 1 18267300933162737337
11206711 2 18339911736221156623
13140716 1 18122902294551783187
13380535 21 18269846328292917795
13380535 76 18267013973360107739
13538477 17 18187918534325966778
14614273 12 18261667082668619069
14648413 74 17615974300974973649
15490181 8 18193556666697140963
15669948 3 18337667624277546510
15775835 57 18340772541745105049
16945 1 18411974793314936451
17134986 127 18191874413832901444
193761 8 18195524801238236855
19868273 325 18193839472865605134
20510252 161 18341899652821993960
20511035 2 17837755747615376151
20645476 183 18113620113862697742
20871998 184 18270687592116778415
21501502 16 18124591986193962211
21524375 3 18340199674807227155
22802520 49 18129959922051368950
2334 1 17762612193963379737
23402539 116 18342167912226656446
23419403 2 16044995811071955387
23552423 10 17977945679417143247
23557571 272 18055087711796561020
23559900 14 18273498962646293692
241688 4 16034362970853450427
2748010 2 18267023847748189287
3071541 158 17545321873885733430
458136 41 18125459526548417195
53812653 8 18408042917974251881
57177213 63 18336828572219535587
7364860 26 17767958740772940751
77492 1 17749379416999231544
81228 2 18125150782671785659

>  <PUBCHEM_SHAPE_MULTIPOLES>  (1) 
271.39
4.53
2.59
0.79
2.44
1.04
-0.09
-2.57
0.58
-0.94
0.1
0.48
-0.11
-0.25

>  <PUBCHEM_SHAPE_SELFOVERLAP>  (1) 
593.906

>  <PUBCHEM_SHAPE_VOLUME>  (1) 
147.9

>  <PUBCHEM_COORDINATE_TYPE>  (1) 
2
5
10

$$$$
