23384
     RDKit          3D

 13 14  0  0  0  0  0  0  0  0999 V2000
   -4.4969   -0.4603    0.0013 Br  0  0  0  0  0  0  0  0  0  0  0  0
    1.9457    1.9944    0.0000 O   0  0  0  0  0  0  0  0  0  0  0  0
    3.6856   -0.0356    0.0008 O   0  0  0  0  0  0  0  0  0  0  0  0
    0.0665    0.5462   -0.0005 C   0  0  0  0  0  0  0  0  0  0  0  0
   -0.3394   -0.7945   -0.0007 C   0  0  0  0  0  0  0  0  0  0  0  0
    1.5080    0.8551   -0.0001 C   0  0  0  0  0  0  0  0  0  0  0  0
    0.6429   -1.8812   -0.0003 C   0  0  0  0  0  0  0  0  0  0  0  0
   -0.8721    1.5822   -0.0002 C   0  0  0  0  0  0  0  0  0  0  0  0
   -1.7092   -1.0849   -0.0006 C   0  0  0  0  0  0  0  0  0  0  0  0
    2.4898   -0.2846    0.0001 C   0  0  0  0  0  0  0  0  0  0  0  0
    1.9616   -1.6614    0.0004 C   0  0  0  0  0  0  0  0  0  0  0  0
   -2.2323    1.2774    0.0001 C   0  0  0  0  0  0  0  0  0  0  0  0
   -2.6503   -0.0527   -0.0002 C   0  0  0  0  0  0  0  0  0  0  0  0
  1 13  1  0
  2  6  2  0
  3 10  2  0
  4  5  2  0
  4  6  1  0
  4  8  1  0
  5  7  1  0
  5  9  1  0
  6 10  1  0
  7 11  2  0
  8 12  2  0
  9 13  2  0
 10 11  1  0
 12 13  1  0
M  END
>  <PUBCHEM_COMPOUND_CID>  (1) 
23384

>  <PUBCHEM_CONFORMER_RMSD>  (1) 
0.4

>  <PUBCHEM_CONFORMER_DIVERSEORDER>  (1) 
1

>  <PUBCHEM_MMFF94_PARTIAL_CHARGES>  (1) 
18
1 -0.11
10 0.56
11 -0.14
12 -0.15
13 0.11
14 0.15
15 0.15
16 0.15
17 0.15
18 0.15
2 -0.57
3 -0.57
4 0.09
5 0.03
6 0.48
7 -0.18
8 -0.15
9 -0.15

>  <PUBCHEM_EFFECTIVE_ROTOR_COUNT>  (1) 
0

>  <PUBCHEM_PHARMACOPHORE_FEATURES>  (1) 
5
1 1 hydrophobe
1 2 acceptor
1 3 acceptor
6 4 5 6 7 10 11 rings
6 4 5 8 9 12 13 rings

>  <PUBCHEM_HEAVY_ATOM_COUNT>  (1) 
13

>  <PUBCHEM_ATOM_DEF_STEREO_COUNT>  (1) 
0

>  <PUBCHEM_ATOM_UDEF_STEREO_COUNT>  (1) 
0

>  <PUBCHEM_BOND_DEF_STEREO_COUNT>  (1) 
0

>  <PUBCHEM_BOND_UDEF_STEREO_COUNT>  (1) 
0

>  <PUBCHEM_ISOTOPIC_ATOM_COUNT>  (1) 
0

>  <PUBCHEM_COMPONENT_COUNT>  (1) 
1

>  <PUBCHEM_CACTVS_TAUTO_COUNT>  (1) 
1

>  <PUBCHEM_CONFORMER_ID>  (1) 
00005B5800000001

>  <PUBCHEM_MMFF94_ENERGY>  (1) 
29.0196

>  <PUBCHEM_FEATURE_SELFOVERLAP>  (1) 
25.402

>  <PUBCHEM_SHAPE_FINGERPRINT>  (1) 
10608611 8 18336260172195611645
10967382 1 18410855485897991559
11132069 177 18341604966763374451
11471102 20 18410289207735312607
12032990 46 18409454691395082595
13140716 1 18266454502235166586
13221675 6 18411702079982014239
13380535 76 18409449197641625475
13897977 150 18266456684273627413
14144814 61 18339360768941491859
14251717 144 18412259558468892879
14325111 11 18338797818903784773
14576447 43 18128519635260993463
15196674 1 18338517439085549926
15536298 74 18343864424266235012
15775835 57 18200878481903164605
16945 1 18410856546770835367
17844478 74 18113625564682474981
17990270 104 18339361838298904978
193761 8 17834114143470843143
200 152 18201992227754062799
20201158 50 18408323276486526867
20645477 70 18412258420598101735
21267235 1 18411146813598666783
21501502 16 18265897951877714657
21501925 9 18337380569932609763
2334 1 17978511167253306694
23402539 116 18342728624945215055
23402655 69 18340760456403382189
23463225 33 18408322176758393793
23552423 10 18335422369730133421
2748010 2 18122066678193542374
5084963 1 18202002131273498584
528886 8 18411132558543968378
53655031 270 18413392029564642769
53812653 166 18342733018649169128
581208 293 18340481261669086009
63268167 104 18338237037898162240
7364860 26 18343584066413791344
8809292 202 18187369873723848043

>  <PUBCHEM_SHAPE_MULTIPOLES>  (1) 
261.74
5.83
1.91
0.61
3.34
0.12
0
-0.6
0
-0.6
0
0.09
-0.02
0

>  <PUBCHEM_SHAPE_SELFOVERLAP>  (1) 
559.836

>  <PUBCHEM_SHAPE_VOLUME>  (1) 
148.3

>  <PUBCHEM_COORDINATE_TYPE>  (1) 
2
5
10

$$$$
