23395
     RDKit          3D

  9  8  0  0  0  0  0  0  0  0999 V2000
   -0.3258   -0.3881    0.2439 O   0  0  0  0  0  0  0  0  0  0  0  0
   -3.3171    1.6554   -0.2424 N   0  0  0  0  0  0  0  0  0  0  0  0
    1.9943    0.2036    0.2489 C   0  0  0  0  0  0  0  0  0  0  0  0
    3.3772   -0.1046   -0.3180 C   0  0  0  0  0  0  0  0  0  0  0  0
    0.9356   -0.7364   -0.3097 C   0  0  0  0  0  0  0  0  0  0  0  0
    4.4240    0.8637    0.2092 C   0  0  0  0  0  0  0  0  0  0  0  0
   -1.3603   -1.2334   -0.2411 C   0  0  0  0  0  0  0  0  0  0  0  0
   -2.6888   -0.8226    0.3785 C   0  0  0  0  0  0  0  0  0  0  0  0
   -3.0391    0.5626    0.0307 C   0  0  0  0  0  0  0  0  0  0  0  0
  1  5  1  0
  1  7  1  0
  2  9  3  0
  3  4  1  0
  3  5  1  0
  4  6  1  0
  7  8  1  0
  8  9  1  0
M  END
>  <PUBCHEM_COMPOUND_CID>  (1) 
23395

>  <PUBCHEM_CONFORMER_RMSD>  (1) 
0.6

>  <PUBCHEM_CONFORMER_DIVERSEORDER>  (1) 
1
24
22
20
12
59
71
65
62
5
70
11
61
41
37
50
52
33
16
54
43
55
6
57
53
49
17
36
30
63
72
15
66
23
67
27
25
13
56
14
51
9
28
69
42
64
48
60
38
46
3
35
29
26
39
32
10
21
68
44
8
40
45
31
18
58
34
7
4
2
19
47

>  <PUBCHEM_MMFF94_PARTIAL_CHARGES>  (1) 
6
1 -0.56
2 -0.56
5 0.28
7 0.28
8 0.2
9 0.36

>  <PUBCHEM_EFFECTIVE_ROTOR_COUNT>  (1) 
5

>  <PUBCHEM_PHARMACOPHORE_FEATURES>  (1) 
3
1 1 acceptor
1 2 acceptor
1 6 hydrophobe

>  <PUBCHEM_HEAVY_ATOM_COUNT>  (1) 
9

>  <PUBCHEM_ATOM_DEF_STEREO_COUNT>  (1) 
0

>  <PUBCHEM_ATOM_UDEF_STEREO_COUNT>  (1) 
0

>  <PUBCHEM_BOND_DEF_STEREO_COUNT>  (1) 
0

>  <PUBCHEM_BOND_UDEF_STEREO_COUNT>  (1) 
0

>  <PUBCHEM_ISOTOPIC_ATOM_COUNT>  (1) 
0

>  <PUBCHEM_COMPONENT_COUNT>  (1) 
1

>  <PUBCHEM_CACTVS_TAUTO_COUNT>  (1) 
1

>  <PUBCHEM_CONFORMER_ID>  (1) 
00005B6300000001

>  <PUBCHEM_MMFF94_ENERGY>  (1) 
3.3123

>  <PUBCHEM_FEATURE_SELFOVERLAP>  (1) 
15.223

>  <PUBCHEM_SHAPE_FINGERPRINT>  (1) 
11062470 55 18131354137339535450
11987891 27 13398634918382452468
12932764 1 17917424367125230474
14251710 61 9727342554506675093
14325111 11 18411420617958809670
14390081 3 18411981338961159547
177051 138 9151169852996087632
18342897 55 16128655258331901654
190213 19 17530964704653556886
20211469 26 10809344459926483115
20645477 56 18413111671068432371
20645477 70 17131567063373422542
20765181 27 17989200464927493010
21293036 1 16917065572686700527
23402539 116 18336821005009886983

>  <PUBCHEM_SHAPE_MULTIPOLES>  (1) 
174.37
7.97
1.31
0.67
4.62
0.27
0
3.2
0.17
-1.09
-0.09
0.03
-0.02
0.34

>  <PUBCHEM_SHAPE_SELFOVERLAP>  (1) 
310.757

>  <PUBCHEM_SHAPE_VOLUME>  (1) 
111.5

>  <PUBCHEM_COORDINATE_TYPE>  (1) 
2
5
10

$$$$
