23393
     RDKit          3D

  8  8  0  0  0  0  0  0  0  0999 V2000
    2.9319    0.0271   -0.8166 Cl  0  0  0  0  0  0  0  0  0  0  0  0
   -0.0933   -1.2002    0.1821 N   0  0  0  0  0  0  0  0  0  0  0  0
    0.4923    0.0096    0.3272 C   0  0  0  0  0  0  0  0  0  0  0  0
   -0.1736    1.2161    0.1830 C   0  0  0  0  0  0  0  0  0  0  0  0
    1.9467    0.0129    0.6629 C   0  0  0  0  0  0  0  0  0  0  0  0
   -1.5278    1.1785   -0.1298 C   0  0  0  0  0  0  0  0  0  0  0  0
   -2.1656   -0.0471   -0.2868 C   0  0  0  0  0  0  0  0  0  0  0  0
   -1.4106   -1.1970   -0.1220 C   0  0  0  0  0  0  0  0  0  0  0  0
  1  5  1  0
  2  3  2  0
  2  8  1  0
  3  4  1  0
  3  5  1  0
  4  6  2  0
  6  7  1  0
  7  8  2  0
M  END
>  <PUBCHEM_COMPOUND_CID>  (1) 
23393

>  <PUBCHEM_CONFORMER_RMSD>  (1) 
0.4

>  <PUBCHEM_CONFORMER_DIVERSEORDER>  (1) 
1
4
3
2

>  <PUBCHEM_MMFF94_PARTIAL_CHARGES>  (1) 
12
1 -0.29
12 0.15
13 0.15
14 0.15
2 -0.62
3 0.17
4 -0.15
5 0.43
6 -0.15
7 -0.15
8 0.16
9 0.15

>  <PUBCHEM_EFFECTIVE_ROTOR_COUNT>  (1) 
1

>  <PUBCHEM_PHARMACOPHORE_FEATURES>  (1) 
2
1 2 acceptor
6 2 3 4 6 7 8 rings

>  <PUBCHEM_HEAVY_ATOM_COUNT>  (1) 
8

>  <PUBCHEM_ATOM_DEF_STEREO_COUNT>  (1) 
0

>  <PUBCHEM_ATOM_UDEF_STEREO_COUNT>  (1) 
0

>  <PUBCHEM_BOND_DEF_STEREO_COUNT>  (1) 
0

>  <PUBCHEM_BOND_UDEF_STEREO_COUNT>  (1) 
0

>  <PUBCHEM_ISOTOPIC_ATOM_COUNT>  (1) 
0

>  <PUBCHEM_COMPONENT_COUNT>  (1) 
1

>  <PUBCHEM_CACTVS_TAUTO_COUNT>  (1) 
1

>  <PUBCHEM_CONFORMER_ID>  (1) 
00005B6100000001

>  <PUBCHEM_MMFF94_ENERGY>  (1) 
15.9636

>  <PUBCHEM_FEATURE_SELFOVERLAP>  (1) 
10.148

>  <PUBCHEM_SHAPE_FINGERPRINT>  (1) 
12897270 3 18411422825719433260
15310529 11 16805316682612026209
16714656 1 18410576184195831717
20645464 45 17916849305669548200
21040471 1 18267010657550208401
23552423 10 18116147775294634434
29004967 10 16343981420766140074
5084963 1 17822562807543046600

>  <PUBCHEM_SHAPE_MULTIPOLES>  (1) 
161.52
3.47
1.3
0.8
2.11
0.01
-0.04
-0.04
-0.83
-0.58
0.01
0.35
0.01
0

>  <PUBCHEM_SHAPE_SELFOVERLAP>  (1) 
319.475

>  <PUBCHEM_SHAPE_VOLUME>  (1) 
96.9

>  <PUBCHEM_COORDINATE_TYPE>  (1) 
2
5
10

$$$$
