23400
     RDKit          3D

 10 10  0  0  1  0  0  0  0  0999 V2000
    3.0301   -0.3082    1.1715 O   0  0  0  0  0  0  0  0  0  0  0  0
   -1.4621    0.8375    0.5613 O   0  0  0  0  0  0  0  0  0  0  0  0
    1.2458    0.2003   -0.3661 C   0  0  0  0  0  0  0  0  0  0  0  0
    0.2720   -0.8002    0.2703 C   0  0  0  0  0  0  0  0  0  0  0  0
    2.7049   -0.2399   -0.2140 C   0  0  0  0  0  0  0  0  0  0  0  0
   -1.1620   -0.3757    0.0730 C   0  0  0  0  0  0  0  0  0  0  0  0
    3.6505    0.7416   -0.8932 C   0  0  0  0  0  0  0  0  0  0  0  0
   -2.2124   -0.9915   -0.5077 C   0  0  0  0  0  0  0  0  0  0  0  0
   -3.2872   -0.0802   -0.3759 C   0  0  0  0  0  0  0  0  0  0  0  0
   -2.7797    1.0165    0.2809 C   0  0  0  0  0  0  0  0  0  0  0  0
  1  5  1  0
  2  6  1  0
  2 10  1  0
  3  4  1  0
  3  5  1  0
  4  6  1  0
  5  7  1  0
  6  8  2  0
  8  9  1  0
  9 10  2  0
M  END
>  <PUBCHEM_COMPOUND_CID>  (1) 
23400

>  <PUBCHEM_CONFORMER_RMSD>  (1) 
0.6

>  <PUBCHEM_CONFORMER_DIVERSEORDER>  (1) 
1
18
11
9
17
13
4
6
5
19
14
15
3
7
20
10
2
8
16
12

>  <PUBCHEM_MMFF94_PARTIAL_CHARGES>  (1) 
12
1 -0.68
10 -0.01
19 0.15
2 -0.28
20 0.4
21 0.15
22 0.15
4 0.18
5 0.28
6 -0.04
8 -0.15
9 -0.15

>  <PUBCHEM_EFFECTIVE_ROTOR_COUNT>  (1) 
3

>  <PUBCHEM_PHARMACOPHORE_FEATURES>  (1) 
4
1 1 acceptor
1 1 donor
1 2 acceptor
5 2 6 8 9 10 rings

>  <PUBCHEM_HEAVY_ATOM_COUNT>  (1) 
10

>  <PUBCHEM_ATOM_DEF_STEREO_COUNT>  (1) 
0

>  <PUBCHEM_ATOM_UDEF_STEREO_COUNT>  (1) 
1

>  <PUBCHEM_BOND_DEF_STEREO_COUNT>  (1) 
0

>  <PUBCHEM_BOND_UDEF_STEREO_COUNT>  (1) 
0

>  <PUBCHEM_ISOTOPIC_ATOM_COUNT>  (1) 
0

>  <PUBCHEM_COMPONENT_COUNT>  (1) 
1

>  <PUBCHEM_CACTVS_TAUTO_COUNT>  (1) 
1

>  <PUBCHEM_CONFORMER_ID>  (1) 
00005B6800000001

>  <PUBCHEM_MMFF94_ENERGY>  (1) 
6.2266

>  <PUBCHEM_FEATURE_SELFOVERLAP>  (1) 
20.297

>  <PUBCHEM_SHAPE_FINGERPRINT>  (1) 
11062470 55 17967532380477986644
12897270 3 17275387590252697966
12932764 1 17346880048336208942
14144814 61 18187365428337263532
14325111 11 18408606954675854846
14390081 3 17988921145823898283
15775835 57 18113902671276545156
20201158 50 15985110699489725142
20279233 1 16773793697339671366
20645477 70 16443610329706848986
22485316 2 10591762052213269660
3248919 1 18334856117094859802
369184 2 16732702748860156147
57812782 119 16774077362802288038

>  <PUBCHEM_SHAPE_MULTIPOLES>  (1) 
194.06
6.44
1.02
0.88
2.83
0.05
0.05
1.07
-0.71
-0.35
-0.01
0.43
0
-0.59

>  <PUBCHEM_SHAPE_SELFOVERLAP>  (1) 
387.516

>  <PUBCHEM_SHAPE_VOLUME>  (1) 
116.8

>  <PUBCHEM_COORDINATE_TYPE>  (1) 
2
5
10

$$$$
