2341
     RDKit          3D

 18 19  0  0  1  0  0  0  0  0999 V2000
   -0.6960    0.4882    0.6931 N   0  0  0  0  0  0  0  0  0  0  0  0
    0.7123    0.8154    0.4511 C   0  0  0  0  0  0  0  0  0  0  0  0
    1.3795   -0.3302   -0.3317 C   0  0  0  0  0  0  0  0  0  0  0  0
   -1.4029    0.3180   -0.5744 C   0  0  0  0  0  0  0  0  0  0  0  0
    0.7750    2.1485   -0.2946 C   0  0  0  0  0  0  0  0  0  0  0  0
    2.8827   -0.3625   -0.1925 C   0  0  0  0  0  0  0  0  0  0  0  0
   -1.3282    1.5309    1.4983 C   0  0  0  0  0  0  0  0  0  0  0  0
   -2.8412   -0.0751   -0.3660 C   0  0  0  0  0  0  0  0  0  0  0  0
    3.6634    0.3426   -1.0944 C   0  0  0  0  0  0  0  0  0  0  0  0
    3.4537   -1.0969    0.8344 C   0  0  0  0  0  0  0  0  0  0  0  0
   -3.1783   -1.4193   -0.2913 C   0  0  0  0  0  0  0  0  0  0  0  0
   -3.8096    0.9123   -0.2519 C   0  0  0  0  0  0  0  0  0  0  0  0
    5.0520    0.3124   -0.9660 C   0  0  0  0  0  0  0  0  0  0  0  0
    4.8423   -1.1269    0.9629 C   0  0  0  0  0  0  0  0  0  0  0  0
   -4.5109   -1.7834   -0.0985 C   0  0  0  0  0  0  0  0  0  0  0  0
   -5.1423    0.5481   -0.0591 C   0  0  0  0  0  0  0  0  0  0  0  0
    5.6415   -0.4222    0.0628 C   0  0  0  0  0  0  0  0  0  0  0  0
   -5.4929   -0.7997    0.0177 C   0  0  0  0  0  0  0  0  0  0  0  0
  1  2  1  0
  1  4  1  0
  1  7  1  0
  2  3  1  0
  2  5  1  0
  3  6  1  0
  4  8  1  0
  6  9  2  0
  6 10  1  0
  8 11  2  0
  8 12  1  0
  9 13  1  0
 10 14  2  0
 11 15  1  0
 12 16  2  0
 13 17  2  0
 14 17  1  0
 15 18  2  0
 16 18  1  0
M  END
>  <PUBCHEM_COMPOUND_CID>  (1) 
2341

>  <PUBCHEM_CONFORMER_RMSD>  (1) 
0.6

>  <PUBCHEM_CONFORMER_DIVERSEORDER>  (1) 
1
50
62
23
36
57
30
17
35
10
27
48
19
45
16
63
21
13
26
29
3
61
43
2
34
55
40
18
64
41
47
15
33
52
56
53
39
46
25
5
51
58
7
8
6
38
24
9
54
28
32
59
20
4
22
31
60
42
11
49
12
37
44
14

>  <PUBCHEM_MMFF94_PARTIAL_CHARGES>  (1) 
27
1 -0.81
10 -0.15
11 -0.15
12 -0.15
13 -0.15
14 -0.15
15 -0.15
16 -0.15
17 -0.15
18 -0.15
2 0.27
3 0.14
30 0.15
31 0.15
32 0.15
33 0.15
34 0.15
35 0.15
36 0.15
37 0.15
38 0.15
39 0.15
4 0.41
6 -0.14
7 0.27
8 -0.14
9 -0.15

>  <PUBCHEM_EFFECTIVE_ROTOR_COUNT>  (1) 
5

>  <PUBCHEM_PHARMACOPHORE_FEATURES>  (1) 
3
1 1 cation
6 6 9 10 13 14 17 rings
6 8 11 12 15 16 18 rings

>  <PUBCHEM_HEAVY_ATOM_COUNT>  (1) 
18

>  <PUBCHEM_ATOM_DEF_STEREO_COUNT>  (1) 
0

>  <PUBCHEM_ATOM_UDEF_STEREO_COUNT>  (1) 
1

>  <PUBCHEM_BOND_DEF_STEREO_COUNT>  (1) 
0

>  <PUBCHEM_BOND_UDEF_STEREO_COUNT>  (1) 
0

>  <PUBCHEM_ISOTOPIC_ATOM_COUNT>  (1) 
0

>  <PUBCHEM_COMPONENT_COUNT>  (1) 
1

>  <PUBCHEM_CACTVS_TAUTO_COUNT>  (1) 
1

>  <PUBCHEM_CONFORMER_ID>  (1) 
0000092500000001

>  <PUBCHEM_MMFF94_ENERGY>  (1) 
56.1051

>  <PUBCHEM_FEATURE_SELFOVERLAP>  (1) 
15.223

>  <PUBCHEM_SHAPE_FINGERPRINT>  (1) 
10465860 250 18060135444988231969
10595046 47 18040155132130024924
10803635 8 18261104158885752687
10912923 1 18260551099857008960
11045515 52 18040996224050276957
11128504 68 17022903470980794214
11287383 113 16225772929811216464
11315181 36 18342741818615314817
11552529 35 12822423819152946924
12107183 9 17467058653453046912
12236239 1 18334577928073851910
12516196 113 17203607099088879345
12788726 201 18272091535331869337
13167823 11 18114178618620075546
13288520 33 18408886239656945135
13533116 47 17968090881689574866
13675066 3 17132396124904543837
13685833 64 18343022237726552139
13740256 8 18341612663434446019
1420 363 17561367275040517982
14251731 8 18411698781826666341
14251752 14 17895185559332364885
14251764 18 18412548713358604331
14252887 29 16702028564815210550
14386348 63 17489873734398752735
15788980 27 17822010895523681132
17834072 33 18260831513966170028
17834072 8 18341608214286196925
17844677 252 18341897411060659665
18222031 100 17775001301795829572
19141452 34 15697991959605770653
200 152 17967814929523588248
20374829 77 18412542128656781303
20645477 70 17022900104470551370
21033648 29 15841259346975830259
21033650 10 17825691970576011524
21250096 35 18413669106157303608
21267235 1 18341339949922026399
220451 1 18260835881800288346
22950370 63 18334012791554763565
2297311 6 17561093492260712972
23035841 295 18341896268841743902
23175994 123 17561083622805675217
23402539 116 16877659037334675405
23536379 177 17748825194155676509
23557571 272 17559968636057680316
23559900 14 18341886450562472761
23622692 118 17559096899883973695
239999 70 18131071558935934062
26918003 58 18202843253626948393
2838139 119 8790613563658080115
300161 21 18187077356153688302
3004659 81 18186519882858868006
314173 85 17275389802345601921
3411729 13 17914884564707543744
34797466 226 17131842005742045356
351380 180 9871750191295537527
351380 3 18412823603153853399
3759504 43 9151164363959850841
4214541 1 18408602548440459341
465052 167 18412831312799452486
4921388 177 16153999044571097115
5104073 3 18200879599333140659
542803 24 17240203226875093996
559249 180 18336541630139996667
67856867 119 18336265759895595708
7164475 11 17969218928853250924
7226269 152 17632019637864011745
7495541 125 18334858358941077388
8863177 126 18120661490108349931

>  <PUBCHEM_SHAPE_MULTIPOLES>  (1) 
365.45
13.63
1.62
1.03
1.36
0.19
0.15
-4.78
-0.92
-0.87
0.2
0.65
0.16
-0.87

>  <PUBCHEM_SHAPE_SELFOVERLAP>  (1) 
765.563

>  <PUBCHEM_SHAPE_VOLUME>  (1) 
207.7

>  <PUBCHEM_COORDINATE_TYPE>  (1) 
2
5
10

$$$$
