23415
     RDKit          3D

 11 10  0  0  0  0  0  0  0  0999 V2000
   -1.5688    1.1126   -0.3798 C   0  0  0  0  0  0  0  0  0  0  0  0
   -0.4279    0.3355    0.2851 C   0  0  0  0  0  0  0  0  0  0  0  0
   -2.9561    0.9240    0.2465 C   0  0  0  0  0  0  0  0  0  0  0  0
    0.9371    0.6000   -0.3552 C   0  0  0  0  0  0  0  0  0  0  0  0
   -3.5214   -0.5081    0.2029 C   0  0  0  0  0  0  0  0  0  0  0  0
    2.0891   -0.1153    0.3580 C   0  0  0  0  0  0  0  0  0  0  0  0
    3.4513    0.1289   -0.2954 C   0  0  0  0  0  0  0  0  0  0  0  0
   -3.6031   -0.9870   -1.2492 C   0  0  0  0  0  0  0  0  0  0  0  0
   -4.8990   -0.6100    0.8584 C   0  0  0  0  0  0  0  0  0  0  0  0
    4.5732   -0.5458    0.4951 C   0  0  0  0  0  0  0  0  0  0  0  0
    5.9256   -0.3347   -0.1665 C   0  0  0  0  0  0  0  0  0  0  0  0
  1  2  1  0
  1  3  1  0
  2  4  1  0
  3  5  1  0
  4  6  1  0
  5  8  1  0
  5  9  1  0
  6  7  1  0
  7 10  1  0
 10 11  1  0
M  END
>  <PUBCHEM_COMPOUND_CID>  (1) 
23415

>  <PUBCHEM_CONFORMER_RMSD>  (1) 
0.6

>  <PUBCHEM_CONFORMER_DIVERSEORDER>  (1) 
1
23
98
48
83
58
2
35
6
88
87
16
70
60
51
45
18
84
29
82
89
13
25
32
5
106
103
90
20
33
49
40
94
8
24
95
81
37
12
14
22
73
65
3
78
102
74
77
61
62
34
91
38
76
79
85
56
69
10
93
66
36
47
46
67
97
21
41
96
92
9
86
43
57
17
75
44
100
31
52
4
71
7
59
55
64
80
105
11
39
15
30
99
53
27
104
42
28
68
19
72
26
101
54
50
63

>  <PUBCHEM_MMFF94_PARTIAL_CHARGES>  (1) 
0

>  <PUBCHEM_EFFECTIVE_ROTOR_COUNT>  (1) 
7

>  <PUBCHEM_PHARMACOPHORE_FEATURES>  (1) 
2
1 11 hydrophobe
3 5 8 9 hydrophobe

>  <PUBCHEM_HEAVY_ATOM_COUNT>  (1) 
11

>  <PUBCHEM_ATOM_DEF_STEREO_COUNT>  (1) 
0

>  <PUBCHEM_ATOM_UDEF_STEREO_COUNT>  (1) 
0

>  <PUBCHEM_BOND_DEF_STEREO_COUNT>  (1) 
0

>  <PUBCHEM_BOND_UDEF_STEREO_COUNT>  (1) 
0

>  <PUBCHEM_ISOTOPIC_ATOM_COUNT>  (1) 
0

>  <PUBCHEM_COMPONENT_COUNT>  (1) 
1

>  <PUBCHEM_CACTVS_TAUTO_COUNT>  (1) 
1

>  <PUBCHEM_CONFORMER_ID>  (1) 
00005B7700000001

>  <PUBCHEM_MMFF94_ENERGY>  (1) 
0.7501

>  <PUBCHEM_FEATURE_SELFOVERLAP>  (1) 
10.149

>  <PUBCHEM_SHAPE_FINGERPRINT>  (1) 
10680689 15 18272647935280841405
11401426 45 10953743309254507784
114248 4 15791451534746293866
13214271 11 14405185075734449721
13288520 33 18334860510951677773
13690532 89 17821449062346172392
14123238 8 18408885131655589908
14123255 352 10447929468511298714
1420 363 18334299768775029050
14251718 22 16443068317929569530
14350574 20 17023191556307825337
15501527 16 10735873980324662178
17834072 33 18410013260750952476
17834076 25 8502654805263446560
18342897 14 14045741521557882050
200 152 17822007605563064052
20112054 13 14045748118791256769
20281389 69 11383832654115803458
20300324 65 13623525762536922623
20645477 56 10809343334850870741
20645477 70 13912589529985057016
20671657 53 17603590741818680365
20719005 15 18260831492865762936
20724930 69 11095883765445668676
20767249 213 11959731560472503571
20828058 44 17275102842495109598
21426921 1 18114460050821518181
22485316 2 18201717323481306854
23402539 116 17894909599025174908
23402655 69 15140949634857764702
351380 3 18408602565240591802
42788 4 18186522094729809864
49783359 22 17703785920869586166
57265010 4 16630531752162849555
57483677 66 18341611478419319094

>  <PUBCHEM_SHAPE_MULTIPOLES>  (1) 
226.37
12.79
1.04
0.91
10.63
0.08
-0.11
-4.04
0.95
-0.76
-0.1
-0.71
-0.17
-0.26

>  <PUBCHEM_SHAPE_SELFOVERLAP>  (1) 
398.336

>  <PUBCHEM_SHAPE_VOLUME>  (1) 
150.2

>  <PUBCHEM_COORDINATE_TYPE>  (1) 
2
5
10

$$$$
