23413
     RDKit          3D

 14 14  0  0  0  0  0  0  0  0999 V2000
    0.1595    1.0205   -0.5543 O   0  0  0  0  0  0  0  0  0  0  0  0
    3.6150   -0.1828    0.1790 N   0  0  0  0  0  0  0  0  0  0  0  0
    2.4780    0.8183    0.0334 C   0  0  0  0  0  0  0  0  0  0  0  0
    3.8264   -0.9063   -1.1431 C   0  0  0  0  0  0  0  0  0  0  0  0
    4.8909    0.5516    0.5652 C   0  0  0  0  0  0  0  0  0  0  0  0
    3.2649   -1.1946    1.2606 C   0  0  0  0  0  0  0  0  0  0  0  0
    1.2169    0.0864   -0.3814 C   0  0  0  0  0  0  0  0  0  0  0  0
   -1.1110    0.5678   -0.3115 C   0  0  0  0  0  0  0  0  0  0  0  0
   -1.4176   -0.7701   -0.5322 C   0  0  0  0  0  0  0  0  0  0  0  0
   -2.0800    1.4502    0.1518 C   0  0  0  0  0  0  0  0  0  0  0  0
   -3.6885   -0.3523    0.1786 C   0  0  0  0  0  0  0  0  0  0  0  0
   -2.7108   -1.2317   -0.2863 C   0  0  0  0  0  0  0  0  0  0  0  0
   -3.3731    0.9887    0.3978 C   0  0  0  0  0  0  0  0  0  0  0  0
   -5.0707   -0.8456    0.4425 C   0  0  0  0  0  0  0  0  0  0  0  0
  1  7  1  0
  1  8  1  0
  2  3  1  0
  2  4  1  0
  2  5  1  0
  2  6  1  0
  3  7  1  0
  8  9  2  0
  8 10  1  0
  9 12  1  0
 10 13  2  0
 11 12  2  0
 11 13  1  0
 11 14  1  0
M  CHG  1   2   1
M  END
>  <PUBCHEM_COMPOUND_CID>  (1) 
23413

>  <PUBCHEM_CONFORMER_RMSD>  (1) 
0.6

>  <PUBCHEM_CONFORMER_DIVERSEORDER>  (1) 
2
5
7
10
1
8
4
3
9
6

>  <PUBCHEM_MMFF94_PARTIAL_CHARGES>  (1) 
18
1 -0.36
10 -0.15
11 -0.14
12 -0.15
13 -0.15
14 0.14
2 -1.01
28 0.15
29 0.15
3 0.5
30 0.15
31 0.15
4 0.5
5 0.5
6 0.5
7 0.28
8 0.08
9 -0.15

>  <PUBCHEM_EFFECTIVE_ROTOR_COUNT>  (1) 
4

>  <PUBCHEM_PHARMACOPHORE_FEATURES>  (1) 
3
1 1 acceptor
1 2 cation
6 8 9 10 11 12 13 rings

>  <PUBCHEM_HEAVY_ATOM_COUNT>  (1) 
14

>  <PUBCHEM_ATOM_DEF_STEREO_COUNT>  (1) 
0

>  <PUBCHEM_ATOM_UDEF_STEREO_COUNT>  (1) 
0

>  <PUBCHEM_BOND_DEF_STEREO_COUNT>  (1) 
0

>  <PUBCHEM_BOND_UDEF_STEREO_COUNT>  (1) 
0

>  <PUBCHEM_ISOTOPIC_ATOM_COUNT>  (1) 
0

>  <PUBCHEM_COMPONENT_COUNT>  (1) 
1

>  <PUBCHEM_CACTVS_TAUTO_COUNT>  (1) 
1

>  <PUBCHEM_CONFORMER_ID>  (1) 
00005B7500000002

>  <PUBCHEM_MMFF94_ENERGY>  (1) 
53.0409

>  <PUBCHEM_FEATURE_SELFOVERLAP>  (1) 
15.223

>  <PUBCHEM_SHAPE_FINGERPRINT>  (1) 
12251169 10 18343581871347873596
13675066 3 18060420205103188565
13690532 89 18260548952763517135
14123238 8 18343584057538857760
14144814 61 18409164381401423840
14252887 29 18343025484637113486
14911166 2 10953455254509309927
15375462 189 18333724715540347328
17804303 29 18341899588714203261
17834072 33 18335987566326282972
19422 9 18040999492714736048
200 152 15357693097876684493
20281475 54 17895193268724632526
20432913 95 17676206861840330984
20510252 161 18131635543291048489
21065199 12 18131069307792926120
21119208 17 9223232953108223080
22079108 93 14261348089975739959
22485316 2 18113331994608431816
2255824 54 17895764005796945532
22646028 1 18113898256034314408
22854114 59 17275105032907266527
2297311 6 18130521772530144196
23402539 116 18060414729916685285
23559900 14 18059581226618810700
26918003 58 17967812782055771219
2838139 119 14188743901383358979
42 15 18411140229365900501
43471831 8 18335421206079547443
449060 50 17775282785663161524
5104073 3 18342458093212794298
5374978 207 18272369797398761425
542803 24 15123792898578636960
573450 72 18261948557645245209
77779 3 18343866606510645476

>  <PUBCHEM_SHAPE_MULTIPOLES>  (1) 
277.26
10.43
1.37
0.94
2.57
0.05
0.06
-1.88
1.98
-0.41
0.04
0.72
-0.22
-0.01

>  <PUBCHEM_SHAPE_SELFOVERLAP>  (1) 
551.205

>  <PUBCHEM_SHAPE_VOLUME>  (1) 
168.9

>  <PUBCHEM_COORDINATE_TYPE>  (1) 
2
5
10

$$$$
