23417
     RDKit          3D

 29 33  0  0  1  0  0  0  0  0999 V2000
    1.1631    2.3592   -1.2210 O   0  0  0  0  0  0  0  0  0  0  0  0
   -5.0102    0.5100   -0.6762 O   0  0  0  0  0  0  0  0  0  0  0  0
   -5.7761   -0.7400    1.7155 O   0  0  0  0  0  0  0  0  0  0  0  0
   -3.3550   -1.8360   -2.4449 O   0  0  0  0  0  0  0  0  0  0  0  0
    5.7441   -1.7057    0.0934 O   0  0  0  0  0  0  0  0  0  0  0  0
    7.5207   -0.2922    0.4709 O   0  0  0  0  0  0  0  0  0  0  0  0
   -1.3207   -0.2905   -0.0763 C   0  0  0  0  0  0  0  0  0  0  0  0
   -0.7782    1.0381   -0.6727 C   0  0  0  0  0  0  0  0  0  0  0  0
   -2.8231   -0.5471   -0.4646 C   0  0  0  0  0  0  0  0  0  0  0  0
    0.7149    1.3110   -0.3338 C   0  0  0  0  0  0  0  0  0  0  0  0
    1.6608    0.0783   -0.5192 C   0  0  0  0  0  0  0  0  0  0  0  0
   -3.7103    0.6829   -0.0884 C   0  0  0  0  0  0  0  0  0  0  0  0
   -0.3864   -1.4557   -0.4587 C   0  0  0  0  0  0  0  0  0  0  0  0
   -1.6777    2.2283   -0.2830 C   0  0  0  0  0  0  0  0  0  0  0  0
    1.0333   -1.2169    0.0385 C   0  0  0  0  0  0  0  0  0  0  0  0
   -3.1396    1.9996   -0.6422 C   0  0  0  0  0  0  0  0  0  0  0  0
   -3.4163   -1.8216    0.1989 C   0  0  0  0  0  0  0  0  0  0  0  0
    0.9981    1.7893    1.1058 C   0  0  0  0  0  0  0  0  0  0  0  0
   -3.9091    0.7925    1.4482 C   0  0  0  0  0  0  0  0  0  0  0  0
    2.8162    0.4786    0.3890 C   0  0  0  0  0  0  0  0  0  0  0  0
   -3.5782   -1.7020    1.7131 C   0  0  0  0  0  0  0  0  0  0  0  0
   -4.4251   -0.4948    2.0987 C   0  0  0  0  0  0  0  0  0  0  0  0
    2.0799   -0.1119   -1.9891 C   0  0  0  0  0  0  0  0  0  0  0  0
   -2.9013   -0.8050   -1.9596 C   0  0  0  0  0  0  0  0  0  0  0  0
    2.4349    1.4037    1.2817 C   0  0  0  0  0  0  0  0  0  0  0  0
    4.1189   -0.1141    0.3345 C   0  0  0  0  0  0  0  0  0  0  0  0
    4.3207   -1.5493    0.0531 C   0  0  0  0  0  0  0  0  0  0  0  0
    5.2773    0.5120    0.5204 C   0  0  0  0  0  0  0  0  0  0  0  0
    6.3242   -0.5008    0.3678 C   0  0  0  0  0  0  0  0  0  0  0  0
  1 10  1  0
  2 12  1  0
  3 22  1  0
  4 24  2  0
  5 27  1  0
  5 29  1  0
  6 29  2  0
  7  8  1  0
  7  9  1  0
  7 13  1  0
  8 10  1  0
  8 14  1  0
  9 12  1  0
  9 17  1  0
  9 24  1  0
 10 11  1  0
 10 18  1  0
 11 15  1  0
 11 20  1  0
 11 23  1  0
 12 16  1  0
 12 19  1  0
 13 15  1  0
 14 16  1  0
 17 21  1  0
 18 25  1  0
 19 22  1  0
 20 25  2  0
 20 26  1  0
 21 22  1  0
 26 27  1  0
 26 28  2  0
 28 29  1  0
M  END
>  <PUBCHEM_COMPOUND_CID>  (1) 
23417

>  <PUBCHEM_CONFORMER_RMSD>  (1) 
0.8

>  <PUBCHEM_CONFORMER_DIVERSEORDER>  (1) 
1
13
6
16
17
7
8
12
4
14
15
9
2
5
11
10
3

>  <PUBCHEM_MMFF94_PARTIAL_CHARGES>  (1) 
25
1 -0.68
10 0.28
11 0.14
12 0.28
18 0.14
2 -0.68
20 -0.14
22 0.28
24 0.45
25 -0.29
26 -0.14
27 0.42
28 -0.14
29 0.71
3 -0.68
4 -0.57
5 -0.43
52 0.06
53 0.15
54 0.4
55 0.4
56 0.4
59 0.15
6 -0.57
9 0.06

>  <PUBCHEM_EFFECTIVE_ROTOR_COUNT>  (1) 
4.2

>  <PUBCHEM_PHARMACOPHORE_FEATURES>  (1) 
13
1 1 acceptor
1 1 donor
1 2 acceptor
1 2 donor
1 3 acceptor
1 3 donor
1 4 acceptor
1 6 acceptor
5 10 11 18 20 25 rings
5 5 26 27 28 29 rings
6 7 8 10 11 13 15 rings
6 7 8 9 12 14 16 rings
6 9 12 17 19 21 22 rings

>  <PUBCHEM_HEAVY_ATOM_COUNT>  (1) 
29

>  <PUBCHEM_ATOM_DEF_STEREO_COUNT>  (1) 
5

>  <PUBCHEM_ATOM_UDEF_STEREO_COUNT>  (1) 
2

>  <PUBCHEM_BOND_DEF_STEREO_COUNT>  (1) 
0

>  <PUBCHEM_BOND_UDEF_STEREO_COUNT>  (1) 
0

>  <PUBCHEM_ISOTOPIC_ATOM_COUNT>  (1) 
0

>  <PUBCHEM_COMPONENT_COUNT>  (1) 
1

>  <PUBCHEM_CACTVS_TAUTO_COUNT>  (1) 
1

>  <PUBCHEM_CONFORMER_ID>  (1) 
00005B7900000001

>  <PUBCHEM_MMFF94_ENERGY>  (1) 
92.2604

>  <PUBCHEM_FEATURE_SELFOVERLAP>  (1) 
66.2

>  <PUBCHEM_SHAPE_FINGERPRINT>  (1) 
10 15 18337662097451358720
10291535 26 13038914326326620867
10675989 125 16612227842445739048
11135609 12 18041009426947750593
11315181 36 17203602713795388201
11552529 35 16772936151142175295
11578080 2 13254258024653055528
12236239 1 14045739305755677476
12422481 6 18271253715977002838
12633257 1 17489592285255077809
13009979 54 17895206497060926652
13103583 49 17418095433762972960
13140716 1 18268999854758344195
13224815 77 18340773757695623005
13544653 18 18412543206719965860
13583140 156 18410852153261865371
13673619 4 16588034545343520409
14068700 675 16198999890985263685
14341114 176 18334299781296064096
14856354 85 18041012751105134139
14955137 171 18333739004939291108
15209289 33 18413103970213312602
15788980 27 18261110772739651998
17349148 13 17240492390228366736
17844677 252 18113343011553240436
17980427 23 15626222441846250336
1813 80 18336841818268176012
18927931 339 18334579035737778903
20775530 9 14781257768081013801
21033648 29 18271228461437746056
21267235 1 18335423464904589367
22182313 1 18198634232615645126
23402539 116 18412254039361824390
23522609 53 18058190456322352440
23559900 14 18187358852558204297
25147074 1 17987237913934085389
2838139 119 8430315736655340810
335352 9 18409442579608537389
3633792 109 17202762584692610109
3737641 26 18266462014645118282
392239 28 17988632009221715592
484985 159 18040991874044724539
5104073 3 17560231552395965202
59755656 215 17749106690781882291
6009941 240 17822291228028807905
7226269 152 16343708698711356842

>  <PUBCHEM_SHAPE_MULTIPOLES>  (1) 
561.59
13.29
2.11
1.71
15.46
0.4
-0.2
-4.36
4.42
-0.78
-0.19
-2.18
-0.38
0.36

>  <PUBCHEM_SHAPE_SELFOVERLAP>  (1) 
1234.85

>  <PUBCHEM_SHAPE_VOLUME>  (1) 
300.7

>  <PUBCHEM_COORDINATE_TYPE>  (1) 
2
5
10

$$$$
