23419
     RDKit          3D

  7  6  0  0  1  0  0  0  0  0999 V2000
    1.9890   -1.3249   -0.5677 Cl  0  0  0  0  0  0  0  0  0  0  0  0
   -1.9894    1.3249   -0.5676 Cl  0  0  0  0  0  0  0  0  0  0  0  0
    0.0002    0.0000    0.5289 O   0  0  0  0  0  0  0  0  0  0  0  0
    1.1743    0.2285   -0.2487 C   0  0  0  0  0  0  0  0  0  0  0  0
   -1.1742   -0.2284   -0.2488 C   0  0  0  0  0  0  0  0  0  0  0  0
    2.1026    1.1259    0.5519 C   0  0  0  0  0  0  0  0  0  0  0  0
   -2.1024   -1.1260    0.5520 C   0  0  0  0  0  0  0  0  0  0  0  0
  1  4  1  0
  2  5  1  0
  3  4  1  0
  3  5  1  0
  4  6  1  0
  5  7  1  0
M  END
>  <PUBCHEM_COMPOUND_CID>  (1) 
23419

>  <PUBCHEM_CONFORMER_RMSD>  (1) 
0.4

>  <PUBCHEM_CONFORMER_DIVERSEORDER>  (1) 
2
8
10
15
5
3
14
7
13
12
11
9
1
6
4

>  <PUBCHEM_MMFF94_PARTIAL_CHARGES>  (1) 
5
1 -0.29
2 -0.29
3 -0.56
4 0.57
5 0.57

>  <PUBCHEM_EFFECTIVE_ROTOR_COUNT>  (1) 
2

>  <PUBCHEM_PHARMACOPHORE_FEATURES>  (1) 
1
1 3 acceptor

>  <PUBCHEM_HEAVY_ATOM_COUNT>  (1) 
7

>  <PUBCHEM_ATOM_DEF_STEREO_COUNT>  (1) 
0

>  <PUBCHEM_ATOM_UDEF_STEREO_COUNT>  (1) 
2

>  <PUBCHEM_BOND_DEF_STEREO_COUNT>  (1) 
0

>  <PUBCHEM_BOND_UDEF_STEREO_COUNT>  (1) 
0

>  <PUBCHEM_ISOTOPIC_ATOM_COUNT>  (1) 
0

>  <PUBCHEM_COMPONENT_COUNT>  (1) 
1

>  <PUBCHEM_CACTVS_TAUTO_COUNT>  (1) 
1

>  <PUBCHEM_CONFORMER_ID>  (1) 
00005B7B00000002

>  <PUBCHEM_MMFF94_ENERGY>  (1) 
8.229

>  <PUBCHEM_FEATURE_SELFOVERLAP>  (1) 
5.074

>  <PUBCHEM_SHAPE_FINGERPRINT>  (1) 
12932741 1 18410855438653325567
14390081 3 18411972576895865121
16714656 1 17751368282951670765
19973954 147 18409449189067463172
20096714 4 18115863014694088629
20711978 78 17560537139129047830
21040471 1 17896592882565553661
23211744 41 18265603471761182912
23552423 10 18113905952526200502
24536 1 18114176462398475261
29004967 10 18342462598549045626

>  <PUBCHEM_SHAPE_MULTIPOLES>  (1) 
141.93
3.55
1.55
0.85
0
0
-0.01
0
-0.07
0
-0.04
0
0
0.83

>  <PUBCHEM_SHAPE_SELFOVERLAP>  (1) 
234.372

>  <PUBCHEM_SHAPE_VOLUME>  (1) 
98.8

>  <PUBCHEM_COORDINATE_TYPE>  (1) 
2
5
10

$$$$
