2342
     RDKit          3D

 29 31  0  0  1  0  0  0  0  0999 V2000
    1.9370    1.6134    0.6809 O   0  0  0  0  0  0  0  0  0  0  0  0
    4.0937   -0.3085    1.5977 O   0  0  0  0  0  0  0  0  0  0  0  0
   -4.7843    1.7019   -1.0522 O   0  0  0  0  0  0  0  0  0  0  0  0
   -6.1004   -0.6483   -0.3771 O   0  0  0  0  0  0  0  0  0  0  0  0
    1.3453    3.4078   -0.6484 O   0  0  0  0  0  0  0  0  0  0  0  0
    0.1665   -1.4671    0.7884 N   0  0  0  0  0  0  0  0  0  0  0  0
    4.7449   -0.6253   -0.6110 N   0  0  0  0  0  0  0  0  0  0  0  0
   -0.4797   -0.1593    0.5043 C   0  0  0  0  0  0  0  0  0  0  0  0
    2.3663   -0.6772    0.0305 C   0  0  0  0  0  0  0  0  0  0  0  0
    0.2760    0.5113   -0.6722 C   0  0  0  0  0  0  0  0  0  0  0  0
    1.7719    0.6699   -0.3786 C   0  0  0  0  0  0  0  0  0  0  0  0
    1.5744   -1.3086    1.1779 C   0  0  0  0  0  0  0  0  0  0  0  0
   -0.5760   -2.2047    1.8134 C   0  0  0  0  0  0  0  0  0  0  0  0
   -1.9806   -0.2910    0.2394 C   0  0  0  0  0  0  0  0  0  0  0  0
   -1.9319   -2.6161    1.2448 C   0  0  0  0  0  0  0  0  0  0  0  0
   -2.6687   -1.4592    0.6240 C   0  0  0  0  0  0  0  0  0  0  0  0
    3.8066   -0.5197    0.4164 C   0  0  0  0  0  0  0  0  0  0  0  0
   -2.7239    0.7711   -0.3024 C   0  0  0  0  0  0  0  0  0  0  0  0
   -4.0490   -1.5729    0.3968 C   0  0  0  0  0  0  0  0  0  0  0  0
   -4.0995    0.6542   -0.5135 C   0  0  0  0  0  0  0  0  0  0  0  0
   -4.7606   -0.5201   -0.1717 C   0  0  0  0  0  0  0  0  0  0  0  0
    6.1770   -0.4927   -0.3754 C   0  0  0  0  0  0  0  0  0  0  0  0
    4.3603   -0.8763   -1.9976 C   0  0  0  0  0  0  0  0  0  0  0  0
    1.4365    2.8604    0.4422 C   0  0  0  0  0  0  0  0  0  0  0  0
    6.6310    0.9458   -0.5118 C   0  0  0  0  0  0  0  0  0  0  0  0
    4.3054   -2.3599   -2.2982 C   0  0  0  0  0  0  0  0  0  0  0  0
    1.0015    3.4844    1.7335 C   0  0  0  0  0  0  0  0  0  0  0  0
   -5.3233    2.6594   -0.1431 C   0  0  0  0  0  0  0  0  0  0  0  0
   -6.5165   -1.1728   -1.6368 C   0  0  0  0  0  0  0  0  0  0  0  0
  1 11  1  0
  1 24  1  0
  2 17  2  0
  3 20  1  0
  3 28  1  0
  4 21  1  0
  4 29  1  0
  5 24  2  0
  6  8  1  0
  6 12  1  0
  6 13  1  0
  7 17  1  0
  7 22  1  0
  7 23  1  0
  8 10  1  0
  8 14  1  0
  9 11  1  0
  9 12  1  0
  9 17  1  0
 10 11  1  0
 13 15  1  0
 14 16  2  0
 14 18  1  0
 15 16  1  0
 16 19  1  0
 18 20  2  0
 19 21  2  0
 20 21  1  0
 22 25  1  0
 23 26  1  0
 24 27  1  0
M  END
>  <PUBCHEM_COMPOUND_CID>  (1) 
2342

>  <PUBCHEM_CONFORMER_RMSD>  (1) 
1

>  <PUBCHEM_CONFORMER_DIVERSEORDER>  (1) 
1
21
68
47
34
41
67
50
66
49
100
60
94
65
40
39
23
3
70
81
82
20
58
16
19
80
15
104
91
96
14
9
29
2
101
13
32
46
85
62
78
72
84
28
75
88
44
38
57
79
22
97
8
33
48
52
56
86
69
93
76
30
53
37
43
45
95
31
27
5
55
18
7
83
63
25
24
6
74
89
77
11
71
73
35
51
103
59
36
87
4
99
26
92
17
90
10
42
54
12
102
61
98
64

>  <PUBCHEM_MMFF94_PARTIAL_CHARGES>  (1) 
28
1 -0.43
11 0.28
12 0.27
13 0.27
14 -0.14
15 0.14
16 -0.14
17 0.57
18 -0.15
19 -0.15
2 -0.57
20 0.08
21 0.08
22 0.3
23 0.3
24 0.66
27 0.06
28 0.28
29 0.28
3 -0.36
4 -0.36
41 0.15
42 0.15
5 -0.57
6 -0.81
7 -0.66
8 0.41
9 0.06

>  <PUBCHEM_EFFECTIVE_ROTOR_COUNT>  (1) 
9.2

>  <PUBCHEM_PHARMACOPHORE_FEATURES>  (1) 
8
1 2 acceptor
1 3 acceptor
1 4 acceptor
1 5 acceptor
1 6 cation
6 14 16 18 19 20 21 rings
6 6 8 13 14 15 16 rings
6 6 8 9 10 11 12 rings

>  <PUBCHEM_HEAVY_ATOM_COUNT>  (1) 
29

>  <PUBCHEM_ATOM_DEF_STEREO_COUNT>  (1) 
0

>  <PUBCHEM_ATOM_UDEF_STEREO_COUNT>  (1) 
3

>  <PUBCHEM_BOND_DEF_STEREO_COUNT>  (1) 
0

>  <PUBCHEM_BOND_UDEF_STEREO_COUNT>  (1) 
0

>  <PUBCHEM_ISOTOPIC_ATOM_COUNT>  (1) 
0

>  <PUBCHEM_COMPONENT_COUNT>  (1) 
1

>  <PUBCHEM_CACTVS_TAUTO_COUNT>  (1) 
1

>  <PUBCHEM_CONFORMER_ID>  (1) 
0000092600000001

>  <PUBCHEM_MMFF94_ENERGY>  (1) 
90.1828

>  <PUBCHEM_FEATURE_SELFOVERLAP>  (1) 
40.645

>  <PUBCHEM_SHAPE_FINGERPRINT>  (1) 
10165383 225 17968660411353662269
10366900 7 17967247590382635505
10906281 52 18339659853585114664
12011746 2 18259982686499601598
12107698 1 18272367594681977373
12166972 35 16988561342142199417
12236239 1 16732702774909989722
12403259 415 17968366932001128085
12516196 113 18273495672031607240
12788726 201 18340206263846358936
13540713 4 17973165316334508459
14466204 15 18261659381818618329
14790565 3 17969223339299263021
14931854 50 18334006164821159311
15183329 4 18040996232634293190
15238133 3 18114737144946826472
15475509 8 18197795318381780333
1601671 61 18261951856053378426
17349148 13 13973966501881802262
17913733 40 11241962711543544204
17980427 23 17345775052103885320
18608769 82 17895767313069703667
18681886 176 18201991162175191315
19319366 153 17022895736098584146
21033648 29 17417513748898495355
21033650 10 17679041317539825478
21267235 1 18334861645366570859
21279426 13 18336547097158422718
21285901 2 18200600194530698886
22122407 14 14129061387724988735
221357 26 18411697699447590781
22224240 67 8574427604220018014
22393880 68 18336533963902799101
23559900 14 18262796414370323513
23569943 247 17985276165958013958
3004659 81 17822291233215669898
3411729 13 18120926459684049608
34797466 226 18343026609454484102
350125 39 18187082858755763865
4340502 62 11818995175544170328
46194498 28 18271243923567561015
465052 167 13398631675513637430
513532 50 18272641334407023538
5283173 99 18334579023422777556
6004065 56 18130503141130708534
6328613 192 17967817188703091332
9709674 26 18119811562881558075

>  <PUBCHEM_SHAPE_MULTIPOLES>  (1) 
557.5
14.4
3.24
1.62
1.62
2.73
0.19
-1.6
7.17
0.42
-0.73
-0.86
-0.72
1.58

>  <PUBCHEM_SHAPE_SELFOVERLAP>  (1) 
1163.498

>  <PUBCHEM_SHAPE_VOLUME>  (1) 
315.5

>  <PUBCHEM_COORDINATE_TYPE>  (1) 
2
5
10

$$$$
