23425
     RDKit          3D

 14 15  0  0  0  0  0  0  0  0999 V2000
   -0.6220   -1.4448   -0.4270 O   0  0  0  0  0  0  0  0  0  0  0  0
   -0.1677    0.0839    1.1835 N   0  0  0  0  0  0  0  0  0  0  0  0
    2.6223   -1.2433   -0.1825 C   0  0  0  0  0  0  0  0  0  0  0  0
    3.0499    0.1912    0.1431 C   0  0  0  0  0  0  0  0  0  0  0  0
    1.4772   -1.7488    0.7022 C   0  0  0  0  0  0  0  0  0  0  0  0
    4.2089    0.6391   -0.7483 C   0  0  0  0  0  0  0  0  0  0  0  0
    0.1994   -0.9661    0.5264 C   0  0  0  0  0  0  0  0  0  0  0  0
    4.6636    2.0485   -0.4040 C   0  0  0  0  0  0  0  0  0  0  0  0
   -1.6685   -0.5694   -0.3705 C   0  0  0  0  0  0  0  0  0  0  0  0
   -1.3871    0.3642    0.6160 C   0  0  0  0  0  0  0  0  0  0  0  0
   -2.8224   -0.5803   -1.1441 C   0  0  0  0  0  0  0  0  0  0  0  0
   -2.3177    1.3815    0.8716 C   0  0  0  0  0  0  0  0  0  0  0  0
   -3.7404    0.4409   -0.8767 C   0  0  0  0  0  0  0  0  0  0  0  0
   -3.4954    1.4035    0.1104 C   0  0  0  0  0  0  0  0  0  0  0  0
  1  7  1  0
  1  9  1  0
  2  7  2  0
  2 10  1  0
  3  4  1  0
  3  5  1  0
  4  6  1  0
  5  7  1  0
  6  8  1  0
  9 10  2  0
  9 11  1  0
 10 12  1  0
 11 13  2  0
 12 14  2  0
 13 14  1  0
M  END
>  <PUBCHEM_COMPOUND_CID>  (1) 
23425

>  <PUBCHEM_CONFORMER_RMSD>  (1) 
0.6

>  <PUBCHEM_CONFORMER_DIVERSEORDER>  (1) 
1
7
32
30
11
23
12
31
27
29
4
6
19
9
28
24
5
8
2
3
25
17
20
26
16
18
21
15
14
22
13
10

>  <PUBCHEM_MMFF94_PARTIAL_CHARGES>  (1) 
14
1 -0.28
10 0.23
11 -0.15
12 -0.15
13 -0.15
14 -0.15
2 -0.57
26 0.15
27 0.15
28 0.15
29 0.15
5 0.18
7 0.3
9 0.14

>  <PUBCHEM_EFFECTIVE_ROTOR_COUNT>  (1) 
4

>  <PUBCHEM_PHARMACOPHORE_FEATURES>  (1) 
4
1 8 hydrophobe
4 3 4 5 6 hydrophobe
5 1 2 7 9 10 rings
6 9 10 11 12 13 14 rings

>  <PUBCHEM_HEAVY_ATOM_COUNT>  (1) 
14

>  <PUBCHEM_ATOM_DEF_STEREO_COUNT>  (1) 
0

>  <PUBCHEM_ATOM_UDEF_STEREO_COUNT>  (1) 
0

>  <PUBCHEM_BOND_DEF_STEREO_COUNT>  (1) 
0

>  <PUBCHEM_BOND_UDEF_STEREO_COUNT>  (1) 
0

>  <PUBCHEM_ISOTOPIC_ATOM_COUNT>  (1) 
0

>  <PUBCHEM_COMPONENT_COUNT>  (1) 
1

>  <PUBCHEM_CACTVS_TAUTO_COUNT>  (1) 
2

>  <PUBCHEM_CONFORMER_ID>  (1) 
00005B8100000001

>  <PUBCHEM_MMFF94_ENERGY>  (1) 
13.2488

>  <PUBCHEM_FEATURE_SELFOVERLAP>  (1) 
20.419

>  <PUBCHEM_SHAPE_FINGERPRINT>  (1) 
10465860 71 16917345939551332008
11137873 295 12031790231988060025
11543360 7 17346600811385547748
11769659 78 9367334929685360851
12006461 19 9943807785676187980
14123260 362 18335713770724684828
14252887 29 10952042334933968454
15239191 94 10735882763949604924
15342168 16 18041009444043425308
15775835 57 18410578366313648188
16945 1 17488158423941225667
17804303 29 11097847476407469346
17834072 32 18043259140046237804
18186145 218 18041282058613497042
20300324 65 17988644129113125964
20361792 2 12103845648799536810
20645476 183 18272645740558101263
20671657 53 15339123442259241466
20871999 31 17560795576164946543
21499 59 18334575741682517938
22079108 93 17967827028615383601
2255824 54 18192428572220863450
22926399 37 18408882945037461341
23559900 14 17774432755859217894
2748010 2 17485609897721987571
328317 168 18336263535191791324
4028521 119 18412828018849582708
474 4 18186240653901990548
57096353 35 18130210610702261599
58807428 26 11675148204102775221
633830 44 18264775367564532555
83771 10 10592047955670611910
9981440 41 18266170829005438026

>  <PUBCHEM_SHAPE_MULTIPOLES>  (1) 
277.26
8.21
1.83
1.06
6.15
0.2
-0.01
5.05
-2.46
1.2
0.09
-0.43
0.01
-0.85

>  <PUBCHEM_SHAPE_SELFOVERLAP>  (1) 
580.918

>  <PUBCHEM_SHAPE_VOLUME>  (1) 
158

>  <PUBCHEM_COORDINATE_TYPE>  (1) 
2
5
10

$$$$
