23428
     RDKit          3D

 16 16  0  0  0  0  0  0  0  0999 V2000
   -0.7200    1.3271   -0.0162 O   0  0  0  0  0  0  0  0  0  0  0  0
   -1.8418   -0.7381   -0.0070 N   0  0  0  0  0  0  0  0  0  0  0  0
    3.1098   -0.5706   -0.0157 C   0  0  0  0  0  0  0  0  0  0  0  0
    4.3208    0.3652    0.0142 C   0  0  0  0  0  0  0  0  0  0  0  0
    1.7988    0.2226   -0.0257 C   0  0  0  0  0  0  0  0  0  0  0  0
    5.6616   -0.3746    0.0134 C   0  0  0  0  0  0  0  0  0  0  0  0
    0.5683   -0.6835   -0.0193 C   0  0  0  0  0  0  0  0  0  0  0  0
    6.8719    0.5601    0.0189 C   0  0  0  0  0  0  0  0  0  0  0  0
    8.1763   -0.2226    0.0052 C   0  0  0  0  0  0  0  0  0  0  0  0
   -0.7338    0.0994   -0.0126 C   0  0  0  0  0  0  0  0  0  0  0  0
   -3.2060   -0.3629    0.0001 C   0  0  0  0  0  0  0  0  0  0  0  0
   -4.1799   -1.3480    0.0074 C   0  0  0  0  0  0  0  0  0  0  0  0
   -3.5394    0.9817    0.0002 C   0  0  0  0  0  0  0  0  0  0  0  0
   -5.5248   -0.9783    0.0146 C   0  0  0  0  0  0  0  0  0  0  0  0
   -4.8845    1.3513    0.0076 C   0  0  0  0  0  0  0  0  0  0  0  0
   -5.8771    0.3712    0.0148 C   0  0  0  0  0  0  0  0  0  0  0  0
  1 10  2  0
  2 10  1  0
  2 11  1  0
  3  4  1  0
  3  5  1  0
  4  6  1  0
  5  7  1  0
  6  8  1  0
  7 10  1  0
  8  9  1  0
 11 12  2  0
 11 13  1  0
 12 14  1  0
 13 15  2  0
 14 16  2  0
 15 16  1  0
M  END
>  <PUBCHEM_COMPOUND_CID>  (1) 
23428

>  <PUBCHEM_CONFORMER_RMSD>  (1) 
0.8

>  <PUBCHEM_CONFORMER_DIVERSEORDER>  (1) 
1
8
100
23
55
104
57
86
66
4
93
36
39
94
41
98
75
11
59
101
76
103
3
48
20
82
35
67
58
78
92
12
90
15
31
89
53
68
2
30
34
85
80
43
27
102
14
6
26
70
84
74
54
42
72
5
96
7
52
65
29
77
64
38
19
91
13
44
69
9
25
18
49
33
79
16
61
88
17
99
46
24
63
37
51
87
47
50
81
60
73
10
45
97
40
83
22
95
56
62
71
28
21
32

>  <PUBCHEM_MMFF94_PARTIAL_CHARGES>  (1) 
16
1 -0.57
10 0.57
11 0.12
12 -0.15
13 -0.15
14 -0.15
15 -0.15
16 -0.15
2 -0.55
32 0.37
33 0.15
34 0.15
35 0.15
36 0.15
37 0.15
7 0.06

>  <PUBCHEM_EFFECTIVE_ROTOR_COUNT>  (1) 
8

>  <PUBCHEM_PHARMACOPHORE_FEATURES>  (1) 
6
1 1 acceptor
1 2 donor
1 9 hydrophobe
3 3 5 7 hydrophobe
3 4 6 8 hydrophobe
6 11 12 13 14 15 16 rings

>  <PUBCHEM_HEAVY_ATOM_COUNT>  (1) 
16

>  <PUBCHEM_ATOM_DEF_STEREO_COUNT>  (1) 
0

>  <PUBCHEM_ATOM_UDEF_STEREO_COUNT>  (1) 
0

>  <PUBCHEM_BOND_DEF_STEREO_COUNT>  (1) 
0

>  <PUBCHEM_BOND_UDEF_STEREO_COUNT>  (1) 
0

>  <PUBCHEM_ISOTOPIC_ATOM_COUNT>  (1) 
0

>  <PUBCHEM_COMPONENT_COUNT>  (1) 
1

>  <PUBCHEM_CACTVS_TAUTO_COUNT>  (1) 
2

>  <PUBCHEM_CONFORMER_ID>  (1) 
00005B8400000001

>  <PUBCHEM_MMFF94_ENERGY>  (1) 
25.7504

>  <PUBCHEM_FEATURE_SELFOVERLAP>  (1) 
30.458

>  <PUBCHEM_SHAPE_FINGERPRINT>  (1) 
10968037 39 18409166614963811311
11315181 36 18412827997490686913
11524674 6 16845570933045290494
12091667 2 18412826897704745819
12236239 1 18186238424871791218
13288520 33 18411699911709065639
13533116 47 17168132409445193728
1420 363 17917997178697700542
14251718 22 18412263938923909202
14251764 18 18113897161492952274
14251764 46 17312822679918473651
14933364 13 18412826893694615176
15716309 27 18410572890446662558
17093844 174 18333167271808982345
17834076 25 17822010913104450946
19489759 90 18333450941339829873
20281389 69 18261108578491788340
21267235 1 18336831987436064723
21315763 28 18409729582213185332
220451 1 17240198842125188602
22224240 67 16200145504955531286
23035841 295 18259983773685269482
23402539 116 18410007745263715334
23521765 1 18342176670271497510
23536379 177 18408040697929860202
23559900 14 18343577473385856321
300161 21 18113613465348281971
33684 2 18408321085889571571
3545911 37 18413670206217531518
4073 2 17968382359581976778
42788 4 18410855468718096390
4325135 7 18333731316878688014
4463277 17 18411699894149563688
57583515 80 18187086156810670754
59755656 215 18343306934087140134
59755656 520 17821723966382383146
8209 1 18410292514965573494

>  <PUBCHEM_SHAPE_MULTIPOLES>  (1) 
318.42
20.68
1.19
0.61
31.47
0.08
0
0.28
0.18
-1.49
0
0.01
0
0.01

>  <PUBCHEM_SHAPE_SELFOVERLAP>  (1) 
627.734

>  <PUBCHEM_SHAPE_VOLUME>  (1) 
190.3

>  <PUBCHEM_COORDINATE_TYPE>  (1) 
2
5
10

$$$$
