23421
     RDKit          3D

 16 17  0  0  0  0  0  0  0  0999 V2000
    2.3764   -1.3316    0.9368 O   0  0  0  0  0  0  0  0  0  0  0  0
    0.6614   -1.7696   -0.6102 O   0  0  0  0  0  0  0  0  0  0  0  0
   -1.3988    0.4542    0.9491 O   0  0  0  0  0  0  0  0  0  0  0  0
   -2.0188   -0.0136   -1.2424 O   0  0  0  0  0  0  0  0  0  0  0  0
   -3.2953   -0.7686    0.5416 N   0  0  0  0  0  0  0  0  0  0  0  0
    1.0353   -1.0020    0.5445 C   0  0  0  0  0  0  0  0  0  0  0  0
    0.8952    0.4704    0.2531 C   0  0  0  0  0  0  0  0  0  0  0  0
    2.6409   -2.5654    0.2711 C   0  0  0  0  0  0  0  0  0  0  0  0
    1.8548   -2.4462   -1.0060 C   0  0  0  0  0  0  0  0  0  0  0  0
   -0.3159    1.1280    0.4697 C   0  0  0  0  0  0  0  0  0  0  0  0
    1.9934    1.1759   -0.2387 C   0  0  0  0  0  0  0  0  0  0  0  0
   -0.4284    2.4909    0.1947 C   0  0  0  0  0  0  0  0  0  0  0  0
    1.8808    2.5388   -0.5136 C   0  0  0  0  0  0  0  0  0  0  0  0
    0.6700    3.1963   -0.2970 C   0  0  0  0  0  0  0  0  0  0  0  0
   -2.2303   -0.1096   -0.0371 C   0  0  0  0  0  0  0  0  0  0  0  0
   -4.3206   -1.4481   -0.2155 C   0  0  0  0  0  0  0  0  0  0  0  0
  1  6  1  0
  1  8  1  0
  2  6  1  0
  2  9  1  0
  3 10  1  0
  3 15  1  0
  4 15  2  0
  5 15  1  0
  5 16  1  0
  6  7  1  0
  7 10  2  0
  7 11  1  0
  8  9  1  0
 10 12  1  0
 11 13  2  0
 12 14  2  0
 13 14  1  0
M  END
>  <PUBCHEM_COMPOUND_CID>  (1) 
23421

>  <PUBCHEM_CONFORMER_RMSD>  (1) 
0.6

>  <PUBCHEM_CONFORMER_DIVERSEORDER>  (1) 
1
4
68
59
75
7
69
72
51
24
17
47
63
55
25
36
67
56
76
16
14
33
19
64
50
37
18
11
42
29
22
74
41
6
60
21
61
45
43
52
13
44
30
5
3
32
35
53
70
71
46
12
2
62
73
26
48
38
20
49
40
27
65
8
54
15
31
66
57
9
39
34
28
10
58
23

>  <PUBCHEM_MMFF94_PARTIAL_CHARGES>  (1) 
21
1 -0.56
10 0.08
11 -0.15
12 -0.15
13 -0.15
14 -0.15
15 0.78
16 0.3
2 -0.56
22 0.15
23 0.15
24 0.15
25 0.15
26 0.37
3 -0.23
4 -0.57
5 -0.73
6 0.7
7 -0.14
8 0.28
9 0.28

>  <PUBCHEM_EFFECTIVE_ROTOR_COUNT>  (1) 
5

>  <PUBCHEM_PHARMACOPHORE_FEATURES>  (1) 
6
1 1 acceptor
1 2 acceptor
1 4 acceptor
1 5 donor
5 1 2 6 8 9 rings
6 7 10 11 12 13 14 rings

>  <PUBCHEM_HEAVY_ATOM_COUNT>  (1) 
16

>  <PUBCHEM_ATOM_DEF_STEREO_COUNT>  (1) 
0

>  <PUBCHEM_ATOM_UDEF_STEREO_COUNT>  (1) 
0

>  <PUBCHEM_BOND_DEF_STEREO_COUNT>  (1) 
0

>  <PUBCHEM_BOND_UDEF_STEREO_COUNT>  (1) 
0

>  <PUBCHEM_ISOTOPIC_ATOM_COUNT>  (1) 
0

>  <PUBCHEM_COMPONENT_COUNT>  (1) 
1

>  <PUBCHEM_CACTVS_TAUTO_COUNT>  (1) 
2

>  <PUBCHEM_CONFORMER_ID>  (1) 
00005B7D00000001

>  <PUBCHEM_MMFF94_ENERGY>  (1) 
39.6024

>  <PUBCHEM_FEATURE_SELFOVERLAP>  (1) 
30.487

>  <PUBCHEM_SHAPE_FINGERPRINT>  (1) 
1 1 18120091938061765196
116883 192 18195801873968297941
12532896 13 17474106978211685788
12553582 1 18193569878027443875
13083527 12 18263063492743076994
13836976 161 18049158062545982871
15442244 35 18339930303665730297
15669948 3 17325218329608600898
16945 1 18263077876161575328
17990270 104 18409729556206108787
19591789 44 17617947271169092954
20645476 183 17175755580694703756
20645477 70 18336538439237985999
20871998 184 17402341373346388776
21452121 199 18336814321407369002
21524375 3 17829887994467637928
2255824 54 18123472936617954089
2334 1 18410295765823475376
23388829 49 18341041961165444624
23419403 2 17680110132857268068
23530152 11 17834117828531632189
23557571 272 17695625157069862230
23559900 14 16758312273591280838
23728640 28 16749582150469466283
238 59 17903880634876719943
257057 1 18263918830852778938
2748010 2 18267291037394699936
3060560 45 18047750695988996861
3071541 250 18410302388615358543
458136 41 17974872849228351169
528862 383 18339079414355812143
6338986 31 18265329508455510419
7364860 26 18339081600325315281
81228 2 17835232351070315833
81539 233 18044092586390458301
8272917 22 18340495581580784695

>  <PUBCHEM_SHAPE_MULTIPOLES>  (1) 
300.81
4.76
3.69
0.93
6.36
0.84
0.07
-3.15
0.17
-3.08
0.52
-0.03
-0.2
-0.33

>  <PUBCHEM_SHAPE_SELFOVERLAP>  (1) 
632.819

>  <PUBCHEM_SHAPE_VOLUME>  (1) 
167.8

>  <PUBCHEM_COORDINATE_TYPE>  (1) 
2
5
10

$$$$
