23438
     RDKit          3D

 11 10  0  0  0  0  0  0  0  0999 V2000
   -1.2168    3.5033    0.3088 O   0  0  0  0  0  0  0  0  0  0  0  0
    3.6424   -0.6980    0.3088 O   0  0  0  0  0  0  0  0  0  0  0  0
   -2.4259   -2.8051    0.3088 O   0  0  0  0  0  0  0  0  0  0  0  0
    0.0001   -0.0001   -0.1061 N   0  0  0  0  0  0  0  0  0  0  0  0
   -0.0025    1.4348    0.4012 C   0  0  0  0  0  0  0  0  0  0  0  0
    1.2439   -0.7153    0.4012 C   0  0  0  0  0  0  0  0  0  0  0  0
   -1.2414   -0.7194    0.4012 C   0  0  0  0  0  0  0  0  0  0  0  0
    0.0002   -0.0001   -1.6281 C   0  0  0  0  0  0  0  0  0  0  0  0
   -1.2270    2.1519   -0.1320 C   0  0  0  0  0  0  0  0  0  0  0  0
    2.4773   -0.0133   -0.1319 C   0  0  0  0  0  0  0  0  0  0  0  0
   -1.2504   -2.1386   -0.1319 C   0  0  0  0  0  0  0  0  0  0  0  0
  1  9  1  0
  2 10  1  0
  3 11  1  0
  4  5  1  0
  4  6  1  0
  4  7  1  0
  4  8  1  0
  5  9  1  0
  6 10  1  0
  7 11  1  0
M  CHG  1   4   1
M  END
>  <PUBCHEM_COMPOUND_CID>  (1) 
23438

>  <PUBCHEM_CONFORMER_RMSD>  (1) 
0.6

>  <PUBCHEM_CONFORMER_DIVERSEORDER>  (1) 
1
10
6
11
3
7
8
9
5
4
2

>  <PUBCHEM_MMFF94_PARTIAL_CHARGES>  (1) 
14
1 -0.68
10 0.28
11 0.28
2 -0.68
27 0.4
28 0.4
29 0.4
3 -0.68
4 -1.01
5 0.5
6 0.5
7 0.5
8 0.5
9 0.28

>  <PUBCHEM_EFFECTIVE_ROTOR_COUNT>  (1) 
6

>  <PUBCHEM_PHARMACOPHORE_FEATURES>  (1) 
7
1 1 acceptor
1 1 donor
1 2 acceptor
1 2 donor
1 3 acceptor
1 3 donor
1 4 cation

>  <PUBCHEM_HEAVY_ATOM_COUNT>  (1) 
11

>  <PUBCHEM_ATOM_DEF_STEREO_COUNT>  (1) 
0

>  <PUBCHEM_ATOM_UDEF_STEREO_COUNT>  (1) 
0

>  <PUBCHEM_BOND_DEF_STEREO_COUNT>  (1) 
0

>  <PUBCHEM_BOND_UDEF_STEREO_COUNT>  (1) 
0

>  <PUBCHEM_ISOTOPIC_ATOM_COUNT>  (1) 
0

>  <PUBCHEM_COMPONENT_COUNT>  (1) 
1

>  <PUBCHEM_CACTVS_TAUTO_COUNT>  (1) 
1

>  <PUBCHEM_CONFORMER_ID>  (1) 
00005B8E00000001

>  <PUBCHEM_MMFF94_ENERGY>  (1) 
38.9375

>  <PUBCHEM_FEATURE_SELFOVERLAP>  (1) 
35.522

>  <PUBCHEM_SHAPE_FINGERPRINT>  (1) 
1 1 17329429445804134124
12423570 1 11661388258066663861
13380537 58 18194980538544582764
14817 1 8498419237048626854
15906896 17 18198610051965703014
16945 1 18410581647531349820
18410436 195 18194680603766934575
19021347 4 18050285868938198256
20711985 344 18339343206772986210
21040471 1 18050569547528699680
21524375 3 17624962842876242208
305870 269 17473260977223689480
528862 383 17403449075423725968
7364860 26 17474674326364514563
76951 1 17181688549352861684
81228 2 18410573972266549457

>  <PUBCHEM_SHAPE_MULTIPOLES>  (1) 
203.79
3.31
3.31
0.92
3.15
2.27
-0.41
-2.27
0.52
-3.15
0.52
0
0
0

>  <PUBCHEM_SHAPE_SELFOVERLAP>  (1) 
370.929

>  <PUBCHEM_SHAPE_VOLUME>  (1) 
132.2

>  <PUBCHEM_COORDINATE_TYPE>  (1) 
2
5
10

$$$$
