23439
     RDKit          3D

 20 21  0  0  0  0  0  0  0  0999 V2000
   -6.8140   -1.9779   -0.1042 Cl  0  0  0  0  0  0  0  0  0  0  0  0
   -1.4457    1.2296    0.0914 S   0  0  0  0  0  0  0  0  0  0  0  0
    2.3251   -0.0145   -1.3263 S   0  0  0  0  0  0  0  0  0  0  0  0
   -1.5538    2.3256   -0.8522 O   0  0  0  0  0  0  0  0  0  0  0  0
   -1.1619    1.4890    1.4904 O   0  0  0  0  0  0  0  0  0  0  0  0
   -0.3395    0.0561   -0.5210 N   0  0  0  0  0  0  0  0  0  0  0  0
    2.8387    0.8416    1.0334 N   0  0  0  0  0  0  0  0  0  0  0  0
    1.4619    0.7136    0.9740 N   0  0  0  0  0  0  0  0  0  0  0  0
    5.5226   -0.8144    0.0000 C   0  0  0  0  0  0  0  0  0  0  0  0
    4.8627    0.5183   -0.3647 C   0  0  0  0  0  0  0  0  0  0  0  0
    7.0312   -0.7713   -0.2431 C   0  0  0  0  0  0  0  0  0  0  0  0
    3.3795    0.4936   -0.0938 C   0  0  0  0  0  0  0  0  0  0  0  0
   -2.9647    0.3239    0.0369 C   0  0  0  0  0  0  0  0  0  0  0  0
    7.6976   -2.0785    0.1551 C   0  0  0  0  0  0  0  0  0  0  0  0
    1.0632    0.2761   -0.2013 C   0  0  0  0  0  0  0  0  0  0  0  0
   -3.3454   -0.4205    1.1387 C   0  0  0  0  0  0  0  0  0  0  0  0
   -3.7402    0.3773   -1.1073 C   0  0  0  0  0  0  0  0  0  0  0  0
   -4.5422   -1.1356    1.0949 C   0  0  0  0  0  0  0  0  0  0  0  0
   -4.9370   -0.3378   -1.1511 C   0  0  0  0  0  0  0  0  0  0  0  0
   -5.3381   -1.0943   -0.0498 C   0  0  0  0  0  0  0  0  0  0  0  0
  1 20  1  0
  2  4  2  0
  2  5  2  0
  2  6  1  0
  2 13  1  0
  3 12  1  0
  3 15  1  0
  6 15  1  0
  7  8  1  0
  7 12  2  0
  8 15  2  0
  9 10  1  0
  9 11  1  0
 10 12  1  0
 11 14  1  0
 13 16  2  0
 13 17  1  0
 16 18  1  0
 17 19  2  0
 18 20  2  0
 19 20  1  0
M  END
>  <PUBCHEM_COMPOUND_CID>  (1) 
23439

>  <PUBCHEM_CONFORMER_RMSD>  (1) 
0.8

>  <PUBCHEM_CONFORMER_DIVERSEORDER>  (1) 
1
91
70
34
78
58
77
27
32
6
71
7
17
87
59
46
53
86
33
80
56
18
79
30
49
13
3
42
94
57
75
40
15
76
69
82
45
90
10
83
55
85
81
39
72
47
28
38
25
19
65
41
2
16
50
5
93
89
96
22
84
95
36
48
24
51
31
44
88
37
54
23
14
8
29
92
12
64
61
4
73
66
35
74
20
60
52
43
67
26
21
11
9
68
63
62

>  <PUBCHEM_MMFF94_PARTIAL_CHARGES>  (1) 
22
1 -0.18
10 0.18
12 0.2
13 -0.01
15 0.52
16 -0.15
17 -0.15
18 -0.15
19 -0.15
2 1.45
20 0.18
3 -0.08
30 0.42
31 0.15
32 0.15
33 0.15
34 0.15
4 -0.65
5 -0.65
6 -0.7
7 -0.34
8 -0.34

>  <PUBCHEM_EFFECTIVE_ROTOR_COUNT>  (1) 
6

>  <PUBCHEM_PHARMACOPHORE_FEATURES>  (1) 
8
1 14 hydrophobe
1 4 acceptor
1 5 acceptor
1 6 donor
1 7 acceptor
1 8 acceptor
5 3 7 8 12 15 rings
6 13 16 17 18 19 20 rings

>  <PUBCHEM_HEAVY_ATOM_COUNT>  (1) 
20

>  <PUBCHEM_ATOM_DEF_STEREO_COUNT>  (1) 
0

>  <PUBCHEM_ATOM_UDEF_STEREO_COUNT>  (1) 
0

>  <PUBCHEM_BOND_DEF_STEREO_COUNT>  (1) 
0

>  <PUBCHEM_BOND_UDEF_STEREO_COUNT>  (1) 
0

>  <PUBCHEM_ISOTOPIC_ATOM_COUNT>  (1) 
0

>  <PUBCHEM_COMPONENT_COUNT>  (1) 
1

>  <PUBCHEM_CACTVS_TAUTO_COUNT>  (1) 
2

>  <PUBCHEM_CONFORMER_ID>  (1) 
00005B8F00000001

>  <PUBCHEM_MMFF94_ENERGY>  (1) 
15.8653

>  <PUBCHEM_FEATURE_SELFOVERLAP>  (1) 
42.112

>  <PUBCHEM_SHAPE_FINGERPRINT>  (1) 
10 15 12751234809710619022
10066227 112 8286195050921229798
11315181 36 18334017189548825957
117890 112 9583518716143582462
12011746 2 14706927345879308694
12166972 35 18260269676525784532
12596602 18 11743842464694994702
12616971 3 16558746857929721029
12670543 26 15213018224750442138
13288520 33 18333169466516177989
13668630 136 18113617901933714002
13862211 1 18272370884262805558
1420 363 18341897406728210318
14251764 18 17275381024223499066
14528608 73 15430038785884215292
14848160 23 18334574663566306638
14849402 71 15338539661931044514
15048467 5 8934998170826591174
15183329 4 15719105855766541242
15706992 2 12391507638149823506
15716309 27 17989487424593310182
17870717 6 17530965791670647059
1813 80 17987534726534824877
18681886 176 17531246201358396100
18927931 339 18335427841718935335
19489759 90 17675923192430880461
200 152 17385441037935161877
2026 5 18262235509186332642
20281389 69 11383838155937131090
20526848 3 9007060171084545214
20621476 66 9295289447692740294
21150785 3 17385446531730953822
21267235 1 18410295821594538719
21307412 95 18041557070545869723
21623969 137 18060140916914100774
21637258 2 18202281437703135779
22224240 67 14333408952124960725
2297311 6 18039871449956926885
23035841 295 18408887351932343803
23402539 116 18408888416646630108
23402655 69 14562802261993171725
23522609 53 17985298323883854288
23559900 14 17676772088153325324
2916195 48 9871749087520370031
29717793 49 17530967994656515318
3004659 81 17313381257568742373
465052 167 18273496771891271542
5104073 3 15984274998028853438
5718773 13 18340766052561788935
59755656 215 17894347770190489626
6328613 192 7997963583826868926
7495541 125 18201719574624808480

>  <PUBCHEM_SHAPE_MULTIPOLES>  (1) 
394.48
19.02
1.73
1.19
18.66
0.17
-0.06
15.01
1.28
-0.28
-0.07
-0.73
-0.18
0.24

>  <PUBCHEM_SHAPE_SELFOVERLAP>  (1) 
782.005

>  <PUBCHEM_SHAPE_VOLUME>  (1) 
235.8

>  <PUBCHEM_COORDINATE_TYPE>  (1) 
2
5
10

$$$$
