23435
     RDKit          3D

  8  7  0  0  0  0  0  0  0  0999 V2000
   -2.2879   -0.0599    0.9189 O   0  0  0  0  0  0  0  0  0  0  0  0
    1.2460    0.0052   -0.2011 N   0  0  0  0  0  0  0  0  0  0  0  0
   -0.2106    0.0264   -0.3882 C   0  0  0  0  0  0  0  0  0  0  0  0
   -0.8676   -0.0545    1.0017 C   0  0  0  0  0  0  0  0  0  0  0  0
   -0.5982   -1.1770   -1.2585 C   0  0  0  0  0  0  0  0  0  0  0  0
   -0.6066    1.3256   -1.1049 C   0  0  0  0  0  0  0  0  0  0  0  0
    1.6523   -1.2327    0.4585 C   0  0  0  0  0  0  0  0  0  0  0  0
    1.6725    1.1670    0.5737 C   0  0  0  0  0  0  0  0  0  0  0  0
  1  4  1  0
  2  3  1  0
  2  7  1  0
  2  8  1  0
  3  4  1  0
  3  5  1  0
  3  6  1  0
M  END
>  <PUBCHEM_COMPOUND_CID>  (1) 
23435

>  <PUBCHEM_CONFORMER_RMSD>  (1) 
0.4

>  <PUBCHEM_CONFORMER_DIVERSEORDER>  (1) 
2
6
5
1
7
4
3

>  <PUBCHEM_MMFF94_PARTIAL_CHARGES>  (1) 
7
1 -0.68
2 -0.81
23 0.4
3 0.27
4 0.28
7 0.27
8 0.27

>  <PUBCHEM_EFFECTIVE_ROTOR_COUNT>  (1) 
2

>  <PUBCHEM_PHARMACOPHORE_FEATURES>  (1) 
4
1 1 acceptor
1 1 donor
1 2 cation
3 3 5 6 hydrophobe

>  <PUBCHEM_HEAVY_ATOM_COUNT>  (1) 
8

>  <PUBCHEM_ATOM_DEF_STEREO_COUNT>  (1) 
0

>  <PUBCHEM_ATOM_UDEF_STEREO_COUNT>  (1) 
0

>  <PUBCHEM_BOND_DEF_STEREO_COUNT>  (1) 
0

>  <PUBCHEM_BOND_UDEF_STEREO_COUNT>  (1) 
0

>  <PUBCHEM_ISOTOPIC_ATOM_COUNT>  (1) 
0

>  <PUBCHEM_COMPONENT_COUNT>  (1) 
1

>  <PUBCHEM_CACTVS_TAUTO_COUNT>  (1) 
1

>  <PUBCHEM_CONFORMER_ID>  (1) 
00005B8B00000002

>  <PUBCHEM_MMFF94_ENERGY>  (1) 
28.1672

>  <PUBCHEM_FEATURE_SELFOVERLAP>  (1) 
20.297

>  <PUBCHEM_SHAPE_FINGERPRINT>  (1) 
137420 1 12986354156707632605
20653091 64 15070625000331996753
21040471 1 16200159772045558491
23552333 60 17911204477028167054
24536 1 17241028934506548532
29004967 10 17822293534447111105
5943 1 8811558280486706549

>  <PUBCHEM_SHAPE_MULTIPOLES>  (1) 
153.79
2.2
1.4
1.27
0.18
0.04
-0.03
-0.02
0.72
0.34
-0.32
-0.58
-0.03
0.03

>  <PUBCHEM_SHAPE_SELFOVERLAP>  (1) 
282.008

>  <PUBCHEM_SHAPE_VOLUME>  (1) 
100.5

>  <PUBCHEM_COORDINATE_TYPE>  (1) 
2
5
10

$$$$
