2344
     RDKit          3D

 23 26  0  0  1  0  0  0  0  0999 V2000
   -0.1100   -0.4121   -0.6546 O   0  0  0  0  0  0  0  0  0  0  0  0
   -4.1003   -1.0191   -0.4264 N   0  0  0  0  0  0  0  0  0  0  0  0
   -3.4802   -1.1038    0.9095 C   0  0  0  0  0  0  0  0  0  0  0  0
   -3.7955    0.3642   -0.8389 C   0  0  0  0  0  0  0  0  0  0  0  0
   -3.8337    0.2276    1.5812 C   0  0  0  0  0  0  0  0  0  0  0  0
   -4.0433    1.2027    0.4199 C   0  0  0  0  0  0  0  0  0  0  0  0
   -1.9633   -1.2441    0.6743 C   0  0  0  0  0  0  0  0  0  0  0  0
   -2.3109    0.3749   -1.2538 C   0  0  0  0  0  0  0  0  0  0  0  0
   -1.3791   -0.0631   -0.1151 C   0  0  0  0  0  0  0  0  0  0  0  0
   -5.5336   -1.2998   -0.4037 C   0  0  0  0  0  0  0  0  0  0  0  0
    0.9403   -0.1249    0.2580 C   0  0  0  0  0  0  0  0  0  0  0  0
    2.0473   -1.1487    0.1160 C   0  0  0  0  0  0  0  0  0  0  0  0
    1.4345    1.3019    0.1163 C   0  0  0  0  0  0  0  0  0  0  0  0
    2.8172   -1.4670    1.2206 C   0  0  0  0  0  0  0  0  0  0  0  0
    1.9446    1.9501    1.2258 C   0  0  0  0  0  0  0  0  0  0  0  0
    2.2633   -1.7418   -1.1150 C   0  0  0  0  0  0  0  0  0  0  0  0
    1.3623    1.9188   -1.1187 C   0  0  0  0  0  0  0  0  0  0  0  0
    3.8369   -2.4097    1.0896 C   0  0  0  0  0  0  0  0  0  0  0  0
    2.3989    3.2625    1.0954 C   0  0  0  0  0  0  0  0  0  0  0  0
    3.2830   -2.6845   -1.2459 C   0  0  0  0  0  0  0  0  0  0  0  0
    1.8166    3.2312   -1.2491 C   0  0  0  0  0  0  0  0  0  0  0  0
    4.0697   -3.0186   -0.1436 C   0  0  0  0  0  0  0  0  0  0  0  0
    2.3350    3.9031   -0.1420 C   0  0  0  0  0  0  0  0  0  0  0  0
  1  9  1  0
  1 11  1  0
  2  3  1  0
  2  4  1  0
  2 10  1  0
  3  5  1  0
  3  7  1  0
  4  6  1  0
  4  8  1  0
  5  6  1  0
  7  9  1  0
  8  9  1  0
 11 12  1  0
 11 13  1  0
 12 14  2  0
 12 16  1  0
 13 15  2  0
 13 17  1  0
 14 18  1  0
 15 19  1  0
 16 20  2  0
 17 21  2  0
 18 22  2  0
 19 23  2  0
 20 22  1  0
 21 23  1  0
M  END
>  <PUBCHEM_COMPOUND_CID>  (1) 
2344

>  <PUBCHEM_CONFORMER_RMSD>  (1) 
0.8

>  <PUBCHEM_CONFORMER_DIVERSEORDER>  (1) 
1
4
5
7
8
9
6
3
10
2

>  <PUBCHEM_MMFF94_PARTIAL_CHARGES>  (1) 
29
1 -0.56
10 0.27
11 0.57
12 -0.14
13 -0.14
14 -0.15
15 -0.15
16 -0.15
17 -0.15
18 -0.15
19 -0.15
2 -0.81
20 -0.15
21 -0.15
22 -0.15
23 -0.15
3 0.27
39 0.15
4 0.27
40 0.15
41 0.15
42 0.15
43 0.15
44 0.15
45 0.15
46 0.15
47 0.15
48 0.15
9 0.28

>  <PUBCHEM_EFFECTIVE_ROTOR_COUNT>  (1) 
5.2

>  <PUBCHEM_PHARMACOPHORE_FEATURES>  (1) 
5
1 1 acceptor
1 2 cation
6 12 14 16 18 20 22 rings
6 13 15 17 19 21 23 rings
8 2 3 4 5 6 7 8 9 rings

>  <PUBCHEM_HEAVY_ATOM_COUNT>  (1) 
23

>  <PUBCHEM_ATOM_DEF_STEREO_COUNT>  (1) 
0

>  <PUBCHEM_ATOM_UDEF_STEREO_COUNT>  (1) 
2

>  <PUBCHEM_BOND_DEF_STEREO_COUNT>  (1) 
0

>  <PUBCHEM_BOND_UDEF_STEREO_COUNT>  (1) 
0

>  <PUBCHEM_ISOTOPIC_ATOM_COUNT>  (1) 
0

>  <PUBCHEM_COMPONENT_COUNT>  (1) 
1

>  <PUBCHEM_CACTVS_TAUTO_COUNT>  (1) 
1

>  <PUBCHEM_CONFORMER_ID>  (1) 
0000092800000001

>  <PUBCHEM_MMFF94_ENERGY>  (1) 
65.2931

>  <PUBCHEM_FEATURE_SELFOVERLAP>  (1) 
25.373

>  <PUBCHEM_SHAPE_FINGERPRINT>  (1) 
11405975 8 18411140217309141441
12363563 72 18265617585034773510
12422481 6 18123436515875468856
12516196 113 18338796702634768210
12549972 3 17822585966355107393
12553582 1 18191311476595719619
12633257 1 18269850722413610033
12707595 3 18334861567287260002
12714826 92 17751083496354818703
12788726 201 17756991104075859586
12916754 54 18412262844482871119
13009979 54 17845665750118652177
13134695 92 18411976923661004484
133893 2 18265075637497654280
13533116 47 18410577331791071235
13681431 1 18411989031363631232
13955234 65 18338520862285274523
14347329 18 15938646300684575301
14466204 15 17976823086746356393
14739800 52 17560515222180345673
14856354 85 16012667949002982312
14866123 147 16680627361017994355
14950920 106 18120971410826782641
14955137 171 18272089435599100738
15230672 131 9137771272952610393
15842332 3 17846778559387202023
1601671 61 18412544323659454184
17492 89 18341611551386693207
17980427 23 17702943626127344329
1813 80 18270404867404785454
18785283 64 18262797501245138024
19078846 21 18267030465844360421
20097449 115 18337951165244231372
20369508 70 18260260837192997107
20600515 1 18200036131848879810
20739085 24 18272933778719314066
21033648 29 17129559277446700147
21049683 271 18334583455934210612
21120745 212 17910697384084474228
21524375 3 17907579486292141804
2255824 54 18410296938423497606
22849341 161 18054535537261743496
23175994 123 18265336105688859335
23366157 5 18261678167910475556
23419403 2 17972566993320574548
23557571 272 17980195284851011926
23559900 14 18333725832406086171
249057 25 17775008947882251721
283562 15 17975136440410342370
312423 11 18271255988494627099
314173 85 18198060270862396610
3411729 13 18337665421328758104
38695281 34 18198063780166714460
4409770 3 17468751892770212036
5104073 3 18411991286759604099
59755656 215 18262235650460375316
6049 1 17967251996813430829
6442390 28 17618236434295226720
67856867 119 18271237335224755227
6786 2 17613181945441635804
7364860 26 18340487863039250668
7615 1 17918001585471270553
81228 2 17763754191534254848
9709674 26 18334293214792390707
9841814 1 18260543407686685250
9971528 1 18201154343489761154
9981440 41 17979347895575762313

>  <PUBCHEM_SHAPE_MULTIPOLES>  (1) 
462.48
9.26
4.23
1.41
10.58
3.13
-0.06
-5.54
-0.56
-7.15
0.28
-0.22
0.11
0.16

>  <PUBCHEM_SHAPE_SELFOVERLAP>  (1) 
1002.626

>  <PUBCHEM_SHAPE_VOLUME>  (1) 
253.7

>  <PUBCHEM_COORDINATE_TYPE>  (1) 
2
5
10

$$$$
