23453
     RDKit          3D

 26 30  0  0  0  0  0  0  0  0999 V2000
   -0.1359   -0.0151    0.0046 N   0  0  0  0  0  0  0  0  0  0  0  0
    2.7421   -0.0077   -0.0007 N   0  0  0  0  0  0  0  0  0  0  0  0
   -4.3036   -0.0112    0.0090 N   0  0  0  0  0  0  0  0  0  0  0  0
   -1.5283   -0.0176    0.0073 C   0  0  0  0  0  0  0  0  0  0  0  0
   -2.2109    1.1981   -0.0375 C   0  0  0  0  0  0  0  0  0  0  0  0
    0.6154   -0.0685   -1.2492 C   0  0  0  0  0  0  0  0  0  0  0  0
    0.6197    0.0422    1.2558 C   0  0  0  0  0  0  0  0  0  0  0  0
   -1.4481    2.4903   -0.1381 C   0  0  0  0  0  0  0  0  0  0  0  0
    1.9883   -0.7125   -1.0375 C   0  0  0  0  0  0  0  0  0  0  0  0
    1.9886    0.6931    1.0390 C   0  0  0  0  0  0  0  0  0  0  0  0
   -2.3028    3.7186    0.1722 C   0  0  0  0  0  0  0  0  0  0  0  0
   -3.6029    1.1504   -0.0500 C   0  0  0  0  0  0  0  0  0  0  0  0
   -3.6432    3.6333   -0.5485 C   0  0  0  0  0  0  0  0  0  0  0  0
   -4.4247    2.4123   -0.0687 C   0  0  0  0  0  0  0  0  0  0  0  0
   -2.2294   -1.2284    0.0614 C   0  0  0  0  0  0  0  0  0  0  0  0
   -3.6356   -1.1779    0.0613 C   0  0  0  0  0  0  0  0  0  0  0  0
    4.1345   -0.0032   -0.0038 C   0  0  0  0  0  0  0  0  0  0  0  0
   -1.5632   -2.4650    0.1133 C   0  0  0  0  0  0  0  0  0  0  0  0
   -4.3351   -2.3804    0.1166 C   0  0  0  0  0  0  0  0  0  0  0  0
    4.8729   -1.0874   -0.5335 C   0  0  0  0  0  0  0  0  0  0  0  0
    4.8687    1.0859    0.5218 C   0  0  0  0  0  0  0  0  0  0  0  0
   -2.2863   -3.6530    0.1672 C   0  0  0  0  0  0  0  0  0  0  0  0
   -3.6746   -3.6101    0.1693 C   0  0  0  0  0  0  0  0  0  0  0  0
    6.2679   -1.0829   -0.5375 C   0  0  0  0  0  0  0  0  0  0  0  0
    6.2635    1.0905    0.5178 C   0  0  0  0  0  0  0  0  0  0  0  0
    6.9631    0.0061   -0.0118 C   0  0  0  0  0  0  0  0  0  0  0  0
  1  4  1  0
  1  6  1  0
  1  7  1  0
  2  9  1  0
  2 10  1  0
  2 17  1  0
  3 12  2  0
  3 16  1  0
  4  5  2  0
  4 15  1  0
  5  8  1  0
  5 12  1  0
  6  9  1  0
  7 10  1  0
  8 11  1  0
 11 13  1  0
 12 14  1  0
 13 14  1  0
 15 16  2  0
 15 18  1  0
 16 19  1  0
 17 20  2  0
 17 21  1  0
 18 22  2  0
 19 23  2  0
 20 24  1  0
 21 25  2  0
 22 23  1  0
 24 26  2  0
 25 26  1  0
M  END
>  <PUBCHEM_COMPOUND_CID>  (1) 
23453

>  <PUBCHEM_CONFORMER_RMSD>  (1) 
0.8

>  <PUBCHEM_CONFORMER_DIVERSEORDER>  (1) 
1
2
7
6
3
5
4

>  <PUBCHEM_MMFF94_PARTIAL_CHARGES>  (1) 
32
1 -0.84
10 0.37
12 0.17
14 0.14
16 0.31
17 0.1
18 -0.15
19 -0.15
2 -0.84
20 -0.15
21 -0.15
22 -0.15
23 -0.15
24 -0.15
25 -0.15
26 -0.15
3 -0.62
4 0.1
43 0.15
44 0.15
45 0.15
46 0.15
47 0.15
48 0.15
49 0.15
5 -0.14
50 0.15
51 0.15
6 0.37
7 0.37
8 0.14
9 0.37

>  <PUBCHEM_EFFECTIVE_ROTOR_COUNT>  (1) 
4

>  <PUBCHEM_PHARMACOPHORE_FEATURES>  (1) 
8
1 1 cation
1 2 cation
1 3 acceptor
6 1 2 6 7 9 10 rings
6 15 16 18 19 22 23 rings
6 17 20 21 24 25 26 rings
6 3 4 5 12 15 16 rings
6 5 8 11 12 13 14 rings

>  <PUBCHEM_HEAVY_ATOM_COUNT>  (1) 
26

>  <PUBCHEM_ATOM_DEF_STEREO_COUNT>  (1) 
0

>  <PUBCHEM_ATOM_UDEF_STEREO_COUNT>  (1) 
0

>  <PUBCHEM_BOND_DEF_STEREO_COUNT>  (1) 
0

>  <PUBCHEM_BOND_UDEF_STEREO_COUNT>  (1) 
0

>  <PUBCHEM_ISOTOPIC_ATOM_COUNT>  (1) 
0

>  <PUBCHEM_COMPONENT_COUNT>  (1) 
1

>  <PUBCHEM_CACTVS_TAUTO_COUNT>  (1) 
1

>  <PUBCHEM_CONFORMER_ID>  (1) 
00005B9D00000001

>  <PUBCHEM_MMFF94_ENERGY>  (1) 
103.9141

>  <PUBCHEM_FEATURE_SELFOVERLAP>  (1) 
40.656

>  <PUBCHEM_SHAPE_FINGERPRINT>  (1) 
10165383 225 18270687442389243297
10319688 140 16608854089815947843
10319926 262 18340754984810258658
10411042 1 18121500421864961059
10595046 47 18261675965346477236
10835480 77 18273208704098031288
11056379 131 18410012134714945371
11315181 36 18040997379896755606
11796584 16 18340487760619873290
12107183 9 17901939752251802602
12236239 1 17530964682993967666
12741549 16 17346321552749015451
12788726 201 18117015461640937119
13009979 54 17969232307386253599
13140716 1 18193847157669782899
13583140 156 17988639718635218286
13782708 43 17774720973786792990
13911987 19 16774077388794066668
14251757 5 18412824672695422168
14341114 176 18411705400450552972
14508225 48 18196639921277956663
14790565 3 17834678197368334625
14844126 61 18335704983353732555
14856354 85 18337681935156504830
15042514 8 18336834190654197219
15131766 46 15143535802429063399
15230672 131 18120094988375470222
15250474 111 18261097548952924034
15463212 79 18115023000647669923
15927050 60 18267864987166210943
16087824 20 18409446970088168533
17844677 252 18410017667392711692
17980427 26 17547560484387791773
18927931 339 18409454716943619807
19958102 18 18264768753531090702
20101258 96 18264775526868615657
21033648 29 17774706620290549832
21033650 10 18190205445971927204
21065198 57 18411418406445979406
21236236 1 18341894099666819191
21279426 13 18199474273065149822
21315763 129 18410291441656636520
2132832 1 18042126625140329132
21792961 116 17846787291794218844
22122407 14 15985115132001567891
22393880 68 18411703145761871914
23081809 10 17676207971018007362
23402539 116 18408600383354702230
23557571 272 18343023302313965108
23559900 14 18340760550249071352
23569943 247 14475857190996214724
255183 313 18269858466513867273
283562 15 18340485553032849105
335352 9 18337951294737108167
3418910 222 18044666527741203620
3610482 184 17823156600226333054
4073 2 18334861628350388042
4214541 1 18411138030806875096
4409770 3 18408317783840287071
484989 97 18189327031214063839
497634 4 18186800309662813268
5104073 3 18344143696789964858
5265222 85 18270127945731829326
5283173 99 18411982447273764248
531348 171 18336266743548387426
58260988 114 16009613363665302939
5969126 39 18200021962978357831
59755656 520 18262514775936871005
6327066 14 18044369427594193125
6700243 42 17769132164556023612
77188 2 17977386363296165783
7808743 9 18336824191226904009
9981440 41 18118693119438907129

>  <PUBCHEM_SHAPE_MULTIPOLES>  (1) 
520.12
14
4.11
0.88
26.48
0.17
-0.01
0.04
-0.14
-8.57
-0.01
0.43
0.04
1.14

>  <PUBCHEM_SHAPE_SELFOVERLAP>  (1) 
1146.772

>  <PUBCHEM_SHAPE_VOLUME>  (1) 
272.8

>  <PUBCHEM_COORDINATE_TYPE>  (1) 
2
5
10

$$$$
