23451
     RDKit          3D

 18 19  0  0  0  0  0  0  0  0999 V2000
    5.5343    1.0567   -0.3118 O   0  0  0  0  0  0  0  0  0  0  0  0
    5.4694   -1.1361   -0.2305 O   0  0  0  0  0  0  0  0  0  0  0  0
   -1.2387    0.1524   -0.4869 N   0  0  0  0  0  0  0  0  0  0  0  0
   -0.6469    0.1758    0.6171 N   0  0  0  0  0  0  0  0  0  0  0  0
    4.9003   -0.0187   -0.1845 N   0  0  0  0  0  0  0  0  0  0  0  0
   -3.3652   -0.9717   -0.1391 C   0  0  0  0  0  0  0  0  0  0  0  0
   -2.6239    0.2008   -0.2863 C   0  0  0  0  0  0  0  0  0  0  0  0
   -4.7441   -0.9045    0.0609 C   0  0  0  0  0  0  0  0  0  0  0  0
    0.7432    0.1271    0.4163 C   0  0  0  0  0  0  0  0  0  0  0  0
   -3.2616    1.4404   -0.2336 C   0  0  0  0  0  0  0  0  0  0  0  0
   -2.7046   -2.3104   -0.1905 C   0  0  0  0  0  0  0  0  0  0  0  0
    3.4958    0.0304    0.0182 C   0  0  0  0  0  0  0  0  0  0  0  0
   -5.3816    0.3351    0.1136 C   0  0  0  0  0  0  0  0  0  0  0  0
    1.4620    1.3097    0.2729 C   0  0  0  0  0  0  0  0  0  0  0  0
    1.3903   -1.1036    0.3622 C   0  0  0  0  0  0  0  0  0  0  0  0
   -4.6404    1.5074   -0.0337 C   0  0  0  0  0  0  0  0  0  0  0  0
    2.8417    1.2613    0.0732 C   0  0  0  0  0  0  0  0  0  0  0  0
    2.7700   -1.1521    0.1625 C   0  0  0  0  0  0  0  0  0  0  0  0
  1  5  1  0
  2  5  2  0
  3  4  2  0
  3  7  1  0
  4  9  1  0
  5 12  1  0
  6  7  2  0
  6  8  1  0
  6 11  1  0
  7 10  1  0
  8 13  2  0
  9 14  2  0
  9 15  1  0
 10 16  2  0
 12 17  2  0
 12 18  1  0
 13 16  1  0
 14 17  1  0
 15 18  2  0
M  CHG  2   1  -1   5   1
M  END
>  <PUBCHEM_COMPOUND_CID>  (1) 
23451

>  <PUBCHEM_CONFORMER_RMSD>  (1) 
0.6

>  <PUBCHEM_CONFORMER_DIVERSEORDER>  (1) 
1
2
3

>  <PUBCHEM_MMFF94_PARTIAL_CHARGES>  (1) 
26
1 -0.52
10 -0.15
11 0.14
12 0.13
13 -0.15
14 -0.15
15 -0.15
16 -0.15
17 -0.15
18 -0.15
19 0.15
2 -0.52
20 0.15
24 0.15
25 0.15
26 0.15
27 0.15
28 0.15
29 0.15
3 -0.18
4 -0.18
5 0.91
6 -0.14
7 0.18
8 -0.15
9 0.18

>  <PUBCHEM_EFFECTIVE_ROTOR_COUNT>  (1) 
3

>  <PUBCHEM_PHARMACOPHORE_FEATURES>  (1) 
5
1 1 acceptor
1 1 anion
1 2 acceptor
6 6 7 8 10 13 16 rings
6 9 12 14 15 17 18 rings

>  <PUBCHEM_HEAVY_ATOM_COUNT>  (1) 
18

>  <PUBCHEM_ATOM_DEF_STEREO_COUNT>  (1) 
0

>  <PUBCHEM_ATOM_UDEF_STEREO_COUNT>  (1) 
0

>  <PUBCHEM_BOND_DEF_STEREO_COUNT>  (1) 
0

>  <PUBCHEM_BOND_UDEF_STEREO_COUNT>  (1) 
0

>  <PUBCHEM_ISOTOPIC_ATOM_COUNT>  (1) 
0

>  <PUBCHEM_COMPONENT_COUNT>  (1) 
1

>  <PUBCHEM_CACTVS_TAUTO_COUNT>  (1) 
1

>  <PUBCHEM_CONFORMER_ID>  (1) 
00005B9B00000001

>  <PUBCHEM_MMFF94_ENERGY>  (1) 
53.2842

>  <PUBCHEM_FEATURE_SELFOVERLAP>  (1) 
25.453

>  <PUBCHEM_SHAPE_FINGERPRINT>  (1) 
10616163 171 18340204189155907247
11287383 113 18407761451967381472
11315181 36 17489590073420695577
12107183 9 17688869731320692761
12236239 1 18202284692855985464
12788726 201 17702665428337028273
13167823 11 18408320003542118706
13760787 19 18409444782478360307
14251731 8 18342457028203289933
14341114 176 18410579491384128557
15042514 8 18266180724837291291
15196674 1 18410855477508640462
15242433 33 18410855442996031731
15788980 27 18408605863822700986
17834072 33 18411701001924058996
17844677 252 18412832395010047488
18186145 218 18187071875759672169
19489759 90 10087643693345229455
200 152 18202846564899040753
20645477 56 18409164399014069533
20645477 70 18271810060566453622
20681677 155 18408602561135320939
21267235 1 18409736183667661547
21709351 56 18334570265367016612
221490 88 18266181827730698410
2297311 6 18342464742186320509
23175994 123 17132116853341138393
23402539 116 17240479204299031460
23402655 69 18409728456557207384
23536379 177 18409167693063964712
23557571 272 18412267207383829517
23559900 14 18270109232010648729
300161 21 18335693936238423633
3004659 81 18335704897871039662
34797466 226 17845946224785162268
3545911 37 18410855456281749833
4073 2 18113904918008827370
4214541 1 18411418406240413393
42788 4 18409167705642898340
474 4 17386291020278870029
4921388 177 17023474148002751563
4990 188 18343306959497779838
5104073 3 18410853286906366000
542803 24 17530966886333374068
58051976 100 18410853295876276839
59755656 520 16877664556420619587
633830 44 17676485102917696512
77779 3 18410292519123442681
9709674 26 18412548721469114703

>  <PUBCHEM_SHAPE_MULTIPOLES>  (1) 
343.75
12.79
1.74
0.66
4.98
0.37
-0.02
-0.74
1.04
-0.87
0.06
-0.04
0
-0.04

>  <PUBCHEM_SHAPE_SELFOVERLAP>  (1) 
740.379

>  <PUBCHEM_SHAPE_VOLUME>  (1) 
189.9

>  <PUBCHEM_COORDINATE_TYPE>  (1) 
2
5
10

$$$$
