23452
     RDKit          3D

 21 24  0  0  0  0  0  0  0  0999 V2000
   -1.2674    0.0229    0.0119 N   0  0  0  0  0  0  0  0  0  0  0  0
   -4.1101   -0.2545    0.0458 N   0  0  0  0  0  0  0  0  0  0  0  0
    2.9071    0.0407    0.0011 N   0  0  0  0  0  0  0  0  0  0  0  0
    0.1319    0.0327    0.0092 C   0  0  0  0  0  0  0  0  0  0  0  0
    0.8209   -1.1799    0.0410 C   0  0  0  0  0  0  0  0  0  0  0  0
   -1.9922    0.0450    1.2862 C   0  0  0  0  0  0  0  0  0  0  0  0
   -1.9548   -0.6482   -1.0985 C   0  0  0  0  0  0  0  0  0  0  0  0
    0.0646   -2.4796    0.0274 C   0  0  0  0  0  0  0  0  0  0  0  0
   -3.4280    0.5339    1.0791 C   0  0  0  0  0  0  0  0  0  0  0  0
   -3.3911   -0.1359   -1.2287 C   0  0  0  0  0  0  0  0  0  0  0  0
    0.9270   -3.6808    0.4135 C   0  0  0  0  0  0  0  0  0  0  0  0
    2.2124   -1.1258    0.0202 C   0  0  0  0  0  0  0  0  0  0  0  0
    2.2644   -3.6356   -0.3162 C   0  0  0  0  0  0  0  0  0  0  0  0
    3.0411   -2.3822    0.0804 C   0  0  0  0  0  0  0  0  0  0  0  0
    0.8267    1.2482   -0.0179 C   0  0  0  0  0  0  0  0  0  0  0  0
    2.2331    1.2048   -0.0200 C   0  0  0  0  0  0  0  0  0  0  0  0
   -5.4964    0.1866   -0.1045 C   0  0  0  0  0  0  0  0  0  0  0  0
    0.1540    2.4819   -0.0441 C   0  0  0  0  0  0  0  0  0  0  0  0
    2.9264    2.4119   -0.0455 C   0  0  0  0  0  0  0  0  0  0  0  0
    0.8709    3.6747   -0.0701 C   0  0  0  0  0  0  0  0  0  0  0  0
    2.2595    3.6391   -0.0704 C   0  0  0  0  0  0  0  0  0  0  0  0
  1  4  1  0
  1  6  1  0
  1  7  1  0
  2  9  1  0
  2 10  1  0
  2 17  1  0
  3 12  2  0
  3 16  1  0
  4  5  2  0
  4 15  1  0
  5  8  1  0
  5 12  1  0
  6  9  1  0
  7 10  1  0
  8 11  1  0
 11 13  1  0
 12 14  1  0
 13 14  1  0
 15 16  2  0
 15 18  1  0
 16 19  1  0
 18 20  2  0
 19 21  2  0
 20 21  1  0
M  END
>  <PUBCHEM_COMPOUND_CID>  (1) 
23452

>  <PUBCHEM_CONFORMER_RMSD>  (1) 
0.6

>  <PUBCHEM_CONFORMER_DIVERSEORDER>  (1) 
1
2
3

>  <PUBCHEM_MMFF94_PARTIAL_CHARGES>  (1) 
22
1 -0.84
10 0.27
12 0.17
14 0.14
16 0.31
17 0.27
18 -0.15
19 -0.15
2 -0.81
20 -0.15
21 -0.15
3 -0.62
4 0.1
41 0.15
42 0.15
43 0.15
44 0.15
5 -0.14
6 0.37
7 0.37
8 0.14
9 0.27

>  <PUBCHEM_EFFECTIVE_ROTOR_COUNT>  (1) 
3

>  <PUBCHEM_PHARMACOPHORE_FEATURES>  (1) 
7
1 1 cation
1 2 cation
1 3 acceptor
6 1 2 6 7 9 10 rings
6 15 16 18 19 20 21 rings
6 3 4 5 12 15 16 rings
6 5 8 11 12 13 14 rings

>  <PUBCHEM_HEAVY_ATOM_COUNT>  (1) 
21

>  <PUBCHEM_ATOM_DEF_STEREO_COUNT>  (1) 
0

>  <PUBCHEM_ATOM_UDEF_STEREO_COUNT>  (1) 
0

>  <PUBCHEM_BOND_DEF_STEREO_COUNT>  (1) 
0

>  <PUBCHEM_BOND_UDEF_STEREO_COUNT>  (1) 
0

>  <PUBCHEM_ISOTOPIC_ATOM_COUNT>  (1) 
0

>  <PUBCHEM_COMPONENT_COUNT>  (1) 
1

>  <PUBCHEM_CACTVS_TAUTO_COUNT>  (1) 
1

>  <PUBCHEM_CONFORMER_ID>  (1) 
00005B9C00000001

>  <PUBCHEM_MMFF94_ENERGY>  (1) 
74.8531

>  <PUBCHEM_FEATURE_SELFOVERLAP>  (1) 
35.579

>  <PUBCHEM_SHAPE_FINGERPRINT>  (1) 
10411042 1 18122343467266617663
10693767 8 18202569453878746094
10967382 1 18410575085048207274
1100329 8 18338513149020233570
116883 192 17762896567679089917
11725454 13 16809778569886296839
12173636 292 17690559014967540909
12236239 1 17846779607264224323
12553582 1 18194968443843369582
12643181 29 18122632919369403260
12730499 353 18263370342671421707
12788726 201 17253155224790009547
13004483 165 17762043347015099603
13009979 54 17774730736204966579
13134695 92 18336263431764267319
13140716 1 18265608965467498730
138480 1 18338517426227015298
13911987 19 18116739368875778046
14178342 30 18127671919684065083
14790565 3 18337969964607171844
16087824 20 17401769619101323213
16945 1 18410294726836801136
17818456 19 17486783974240385241
1813 80 17985277274132624230
18785283 64 18334298712054753643
19591789 44 17977392951248704434
19930381 70 18337106860694587465
20157964 124 18410006659702697213
20645477 70 18334571339631014571
21041028 32 18121781625424684726
21478907 32 17761211012285751139
21639500 275 18337664308546865973
2255824 54 18412827996936811822
22907989 373 16750435981383037100
2334 1 17905890628179150602
23419403 2 17389625706497559606
23558518 356 17836078249232298238
23559900 14 18410008832481453899
23598291 2 18059029267360222537
238 59 17758066645084520637
25 1 18264766738885720156
2748010 2 15314911500341357716
3060560 45 18411139177315295044
3091708 16 9215997062817229232
350125 39 17688036722424201920
352729 6 17474382955935952902
3886686 26 17405955911092690504
474 4 18340205301383131665
54173680 148 17401487048706368074
6443956 14 18264490585499739045
7364860 26 18410573989456967949
77492 1 17846780711081342931
81228 2 17542774322908791328
8272917 22 18411985767225383653
84936 182 18129941316163690441
9981440 41 17908130328463536288

>  <PUBCHEM_SHAPE_MULTIPOLES>  (1) 
417.23
6.65
4.74
0.89
10.14
0.15
-0.01
0.02
0.21
-6.1
0.03
0.71
-0.07
-0.23

>  <PUBCHEM_SHAPE_SELFOVERLAP>  (1) 
908.872

>  <PUBCHEM_SHAPE_VOLUME>  (1) 
222.7

>  <PUBCHEM_COORDINATE_TYPE>  (1) 
2
5
10

$$$$
