23488
     RDKit          3D

 14 16  0  0  0  0  0  0  0  0999 V2000
   -1.3483   -2.5485   -0.0004 N   0  0  0  0  0  0  0  0  0  0  0  0
    0.2469    2.0337   -0.0001 C   0  0  0  0  0  0  0  0  0  0  0  0
   -0.6527   -0.1978   -0.0001 C   0  0  0  0  0  0  0  0  0  0  0  0
   -0.9987    1.1723   -0.0001 C   0  0  0  0  0  0  0  0  0  0  0  0
    1.3441    0.9897   -0.0002 C   0  0  0  0  0  0  0  0  0  0  0  0
    0.7900   -0.3102   -0.0001 C   0  0  0  0  0  0  0  0  0  0  0  0
   -1.6370   -1.1719    0.0002 C   0  0  0  0  0  0  0  0  0  0  0  0
   -2.3198    1.5844    0.0001 C   0  0  0  0  0  0  0  0  0  0  0  0
    2.7130    1.1923   -0.0001 C   0  0  0  0  0  0  0  0  0  0  0  0
    1.6116   -1.4251    0.0001 C   0  0  0  0  0  0  0  0  0  0  0  0
   -2.9739   -0.7622    0.0002 C   0  0  0  0  0  0  0  0  0  0  0  0
   -3.3117    0.6022    0.0002 C   0  0  0  0  0  0  0  0  0  0  0  0
    3.5409    0.0683    0.0001 C   0  0  0  0  0  0  0  0  0  0  0  0
    2.9957   -1.2273    0.0003 C   0  0  0  0  0  0  0  0  0  0  0  0
  1  7  1  0
  2  4  1  0
  2  5  1  0
  3  4  2  0
  3  6  1  0
  3  7  1  0
  4  8  1  0
  5  6  2  0
  5  9  1  0
  6 10  1  0
  7 11  2  0
  8 12  2  0
  9 13  2  0
 10 14  2  0
 11 12  1  0
 13 14  1  0
M  END
>  <PUBCHEM_COMPOUND_CID>  (1) 
23488

>  <PUBCHEM_CONFORMER_RMSD>  (1) 
0.4

>  <PUBCHEM_CONFORMER_DIVERSEORDER>  (1) 
1

>  <PUBCHEM_MMFF94_PARTIAL_CHARGES>  (1) 
21
1 -0.9
10 -0.15
11 -0.15
12 -0.15
13 -0.15
14 -0.15
17 0.15
18 0.15
19 0.15
2 0.29
20 0.15
21 0.15
22 0.15
23 0.15
24 0.4
25 0.4
4 -0.14
5 -0.14
7 0.1
8 -0.15
9 -0.15

>  <PUBCHEM_EFFECTIVE_ROTOR_COUNT>  (1) 
0.2

>  <PUBCHEM_PHARMACOPHORE_FEATURES>  (1) 
5
1 1 cation
1 1 donor
5 2 3 4 5 6 rings
6 3 4 7 8 11 12 rings
6 5 6 9 10 13 14 rings

>  <PUBCHEM_HEAVY_ATOM_COUNT>  (1) 
14

>  <PUBCHEM_ATOM_DEF_STEREO_COUNT>  (1) 
0

>  <PUBCHEM_ATOM_UDEF_STEREO_COUNT>  (1) 
0

>  <PUBCHEM_BOND_DEF_STEREO_COUNT>  (1) 
0

>  <PUBCHEM_BOND_UDEF_STEREO_COUNT>  (1) 
0

>  <PUBCHEM_ISOTOPIC_ATOM_COUNT>  (1) 
0

>  <PUBCHEM_COMPONENT_COUNT>  (1) 
1

>  <PUBCHEM_CACTVS_TAUTO_COUNT>  (1) 
1

>  <PUBCHEM_CONFORMER_ID>  (1) 
00005BC000000001

>  <PUBCHEM_MMFF94_ENERGY>  (1) 
61.6385

>  <PUBCHEM_FEATURE_SELFOVERLAP>  (1) 
25.536

>  <PUBCHEM_SHAPE_FINGERPRINT>  (1) 
10411042 1 16104732437276592818
10608611 8 18411414012177984048
10967382 1 18410856521011516134
11132069 177 18411130355584396232
11471102 20 18410569570014936701
12032990 46 18410580569341636146
12382932 28 18412543214961689082
12491281 212 18339936917192504313
13140716 1 17978511163079607185
13221675 6 18410012134720246106
13380535 21 18338809982335400692
13380535 76 18412823568762336591
14144814 61 18410575071778203168
14325111 11 18410855434369212833
15196674 1 18410573976561516551
15309172 13 18339652135486302715
15442244 35 18266740169294935282
15536298 74 18343019987042096804
16945 1 18338516459938728837
17804303 29 18341333288970958702
17844478 74 17967542254913982417
18186145 218 18268149760139150141
193761 8 18050286173880928132
19591789 44 15533073608016469488
200 152 18060125553704890741
20201158 50 18411418397260134182
20510252 161 18200876171343096361
20588541 1 18412827966924671284
20871998 184 18201161048139549175
21267235 1 18410583880814480682
21501502 16 18411136969496291868
22721475 48 18410578404678092973
2334 1 18410573950928979745
23402539 116 18271232855431551349
23463225 33 18408885114101258828
23552423 10 18189899888369971100
23559900 14 18342739603509286380
25 1 17901652783943491325
2748010 2 18337955571643345877
3312278 4 18411423946521339544
335352 9 18050285864648525524
5104073 3 18411136930825749896
528886 8 18411414012251362992
53812653 166 18271520983312811360
6333449 129 18411134723328681285
69090 78 18412821378761350359
7364860 26 18269555112336115768
8809292 202 18334580173988618818
9709674 26 18413393141740198126

>  <PUBCHEM_SHAPE_MULTIPOLES>  (1) 
283.13
5.31
2.16
0.61
0.85
0.37
0
0.2
0
-0.39
0
0.01
-0.02
0

>  <PUBCHEM_SHAPE_SELFOVERLAP>  (1) 
639.002

>  <PUBCHEM_SHAPE_VOLUME>  (1) 
150.1

>  <PUBCHEM_COORDINATE_TYPE>  (1) 
2
5
10

$$$$
