23493
     RDKit          3D

 17 18  0  0  0  0  0  0  0  0999 V2000
    1.0128    0.3998   -0.6065 O   0  0  0  0  0  0  0  0  0  0  0  0
    1.3356    0.4482    1.6885 O   0  0  0  0  0  0  0  0  0  0  0  0
    4.7655   -0.6772   -1.1638 O   0  0  0  0  0  0  0  0  0  0  0  0
    3.1123   -0.1288    0.3104 N   0  0  0  0  0  0  0  0  0  0  0  0
    3.5783   -0.3429   -1.0864 N   0  0  0  0  0  0  0  0  0  0  0  0
   -1.2996   -0.1811   -0.2181 C   0  0  0  0  0  0  0  0  0  0  0  0
   -2.6290    0.2549   -0.0054 C   0  0  0  0  0  0  0  0  0  0  0  0
   -0.2847    0.7727   -0.3983 C   0  0  0  0  0  0  0  0  0  0  0  0
   -2.9043    1.6319    0.0209 C   0  0  0  0  0  0  0  0  0  0  0  0
   -1.0246   -1.5580   -0.2438 C   0  0  0  0  0  0  0  0  0  0  0  0
   -3.6442   -0.6987    0.1754 C   0  0  0  0  0  0  0  0  0  0  0  0
   -0.5761    2.1368   -0.3695 C   0  0  0  0  0  0  0  0  0  0  0  0
   -1.8835    2.5655   -0.1602 C   0  0  0  0  0  0  0  0  0  0  0  0
   -2.0453   -2.4916   -0.0628 C   0  0  0  0  0  0  0  0  0  0  0  0
   -3.3527   -2.0629    0.1465 C   0  0  0  0  0  0  0  0  0  0  0  0
    1.7938    0.2527    0.5633 C   0  0  0  0  0  0  0  0  0  0  0  0
    4.0455   -0.3212    1.4098 C   0  0  0  0  0  0  0  0  0  0  0  0
  1  8  1  0
  1 16  1  0
  2 16  2  0
  3  5  2  0
  4  5  1  0
  4 16  1  0
  4 17  1  0
  6  7  1  0
  6  8  2  0
  6 10  1  0
  7  9  2  0
  7 11  1  0
  8 12  1  0
  9 13  1  0
 10 14  2  0
 11 15  2  0
 12 13  2  0
 14 15  1  0
M  END
>  <PUBCHEM_COMPOUND_CID>  (1) 
23493

>  <PUBCHEM_CONFORMER_RMSD>  (1) 
0.6

>  <PUBCHEM_CONFORMER_DIVERSEORDER>  (1) 
2
34
17
46
54
32
41
40
1
20
57
49
56
28
31
35
4
44
45
23
24
8
9
27
15
39
36
19
7
42
52
29
53
21
51
30
22
33
50
47
55
14
43
5
6
37
25
13
48
26
11
18
58
3
38
12
16
10

>  <PUBCHEM_MMFF94_PARTIAL_CHARGES>  (1) 
22
1 -0.23
10 -0.15
11 -0.15
12 -0.15
13 -0.15
14 -0.15
15 -0.15
16 0.78
17 0.3
18 0.15
19 0.15
2 -0.57
20 0.15
21 0.15
22 0.15
23 0.15
24 0.15
3 -0.16
4 -0.18
5 -0.02
8 0.08
9 -0.15

>  <PUBCHEM_EFFECTIVE_ROTOR_COUNT>  (1) 
4

>  <PUBCHEM_PHARMACOPHORE_FEATURES>  (1) 
3
1 2 acceptor
6 6 7 10 11 14 15 rings
6 6 7 8 9 12 13 rings

>  <PUBCHEM_HEAVY_ATOM_COUNT>  (1) 
17

>  <PUBCHEM_ATOM_DEF_STEREO_COUNT>  (1) 
0

>  <PUBCHEM_ATOM_UDEF_STEREO_COUNT>  (1) 
0

>  <PUBCHEM_BOND_DEF_STEREO_COUNT>  (1) 
0

>  <PUBCHEM_BOND_UDEF_STEREO_COUNT>  (1) 
0

>  <PUBCHEM_ISOTOPIC_ATOM_COUNT>  (1) 
0

>  <PUBCHEM_COMPONENT_COUNT>  (1) 
1

>  <PUBCHEM_CACTVS_TAUTO_COUNT>  (1) 
1

>  <PUBCHEM_CONFORMER_ID>  (1) 
00005BC500000002

>  <PUBCHEM_MMFF94_ENERGY>  (1) 
52.5235

>  <PUBCHEM_FEATURE_SELFOVERLAP>  (1) 
15.249

>  <PUBCHEM_SHAPE_FINGERPRINT>  (1) 
10616163 171 18409170991467492358
12186901 62 18336831896413492197
12236239 1 17531251638560003284
12553582 1 18335137652201320651
13140716 1 18266463290418456785
13862211 1 18409723002671902215
14420673 8 17832694683214997290
15375462 189 17822285807916964539
15653759 3 18131347514204501160
15669948 3 18333448720720366460
16752209 62 18261374647272745023
16945 1 18409443692078711637
17804303 29 18342460365308469883
19049666 15 17916867889850664746
19422 9 17822008671015517122
200 152 15864061057925525144
20510252 161 18343580724760605793
20871998 184 18343298184684421871
20871999 31 18409738356757498844
21029758 27 18114190773862612093
21634736 98 18114749359786447332
21650355 55 18337941359712939313
22094290 60 18410017632505192916
2297311 6 18341062873318744774
23175994 123 17131839741908814400
23402539 116 18270949216292386063
23526113 38 17487341434887680030
23557571 272 18272100365647434052
23559900 14 18270965631641573574
23598294 1 18335134254908258201
2748010 2 18194669591792618997
3286 77 16845009130069318603
43471831 8 18262232205991893883
6049 1 18131910477322672136
7364860 26 17763745790383428257
77492 1 17530966860764069332
81228 2 18410003356181814977

>  <PUBCHEM_SHAPE_MULTIPOLES>  (1) 
322.28
7.28
2.42
1.03
8.3
0.3
0.18
-2.62
-0.07
-2.89
-0.18
1.26
-0.05
0.23

>  <PUBCHEM_SHAPE_SELFOVERLAP>  (1) 
691.463

>  <PUBCHEM_SHAPE_VOLUME>  (1) 
177.8

>  <PUBCHEM_COORDINATE_TYPE>  (1) 
2
5
10

$$$$
