23499
     RDKit          3D

 22 25  0  0  0  0  0  0  0  0999 V2000
   -1.0040   -0.6880    2.3580 O   0  0  0  0  0  0  0  0  0  0  0  0
   -2.0062   -0.9429    0.2610 N   0  0  0  0  0  0  0  0  0  0  0  0
    2.6369    0.8977   -0.5292 N   0  0  0  0  0  0  0  0  0  0  0  0
    1.2948   -0.9631    0.2325 C   0  0  0  0  0  0  0  0  0  0  0  0
   -3.3113   -1.4890    0.6571 C   0  0  0  0  0  0  0  0  0  0  0  0
   -1.8061   -0.8267   -1.1838 C   0  0  0  0  0  0  0  0  0  0  0  0
   -4.4427   -0.6479    0.0722 C   0  0  0  0  0  0  0  0  0  0  0  0
   -2.9081    0.0219   -1.8135 C   0  0  0  0  0  0  0  0  0  0  0  0
   -4.2951   -0.5035   -1.4428 C   0  0  0  0  0  0  0  0  0  0  0  0
    1.0954   -2.4414    0.4232 C   0  0  0  0  0  0  0  0  0  0  0  0
    0.2725   -0.0703    0.5547 C   0  0  0  0  0  0  0  0  0  0  0  0
    2.3989   -3.2367    0.3602 C   0  0  0  0  0  0  0  0  0  0  0  0
    3.2432   -2.7865   -0.8263 C   0  0  0  0  0  0  0  0  0  0  0  0
    2.4565   -0.4322   -0.3229 C   0  0  0  0  0  0  0  0  0  0  0  0
    3.6242   -1.3154   -0.6762 C   0  0  0  0  0  0  0  0  0  0  0  0
   -0.9727   -0.5916    1.1321 C   0  0  0  0  0  0  0  0  0  0  0  0
    0.4328    1.3048    0.3444 C   0  0  0  0  0  0  0  0  0  0  0  0
    1.6483    1.7512   -0.2062 C   0  0  0  0  0  0  0  0  0  0  0  0
   -0.5806    2.2236    0.6670 C   0  0  0  0  0  0  0  0  0  0  0  0
    1.8109    3.1181   -0.4150 C   0  0  0  0  0  0  0  0  0  0  0  0
   -0.3931    3.5851    0.4476 C   0  0  0  0  0  0  0  0  0  0  0  0
    0.8052    4.0329   -0.0939 C   0  0  0  0  0  0  0  0  0  0  0  0
  1 16  2  0
  2  5  1  0
  2  6  1  0
  2 16  1  0
  3 14  2  0
  3 18  1  0
  4 10  1  0
  4 11  2  0
  4 14  1  0
  5  7  1  0
  6  8  1  0
  7  9  1  0
  8  9  1  0
 10 12  1  0
 11 16  1  0
 11 17  1  0
 12 13  1  0
 13 15  1  0
 14 15  1  0
 17 18  2  0
 17 19  1  0
 18 20  1  0
 19 21  2  0
 20 22  2  0
 21 22  1  0
M  END
>  <PUBCHEM_COMPOUND_CID>  (1) 
23499

>  <PUBCHEM_CONFORMER_RMSD>  (1) 
0.6

>  <PUBCHEM_CONFORMER_DIVERSEORDER>  (1) 
1
2
5
3
4
6

>  <PUBCHEM_MMFF94_PARTIAL_CHARGES>  (1) 
20
1 -0.57
10 0.14
11 0.09
14 0.17
15 0.14
16 0.54
18 0.31
19 -0.15
2 -0.66
20 -0.15
21 -0.15
22 -0.15
3 -0.62
4 -0.14
41 0.15
42 0.15
43 0.15
44 0.15
5 0.3
6 0.3

>  <PUBCHEM_EFFECTIVE_ROTOR_COUNT>  (1) 
4

>  <PUBCHEM_PHARMACOPHORE_FEATURES>  (1) 
6
1 1 acceptor
1 3 acceptor
6 17 18 19 20 21 22 rings
6 2 5 6 7 8 9 rings
6 3 4 11 14 17 18 rings
6 4 10 12 13 14 15 rings

>  <PUBCHEM_HEAVY_ATOM_COUNT>  (1) 
22

>  <PUBCHEM_ATOM_DEF_STEREO_COUNT>  (1) 
0

>  <PUBCHEM_ATOM_UDEF_STEREO_COUNT>  (1) 
0

>  <PUBCHEM_BOND_DEF_STEREO_COUNT>  (1) 
0

>  <PUBCHEM_BOND_UDEF_STEREO_COUNT>  (1) 
0

>  <PUBCHEM_ISOTOPIC_ATOM_COUNT>  (1) 
0

>  <PUBCHEM_COMPONENT_COUNT>  (1) 
1

>  <PUBCHEM_CACTVS_TAUTO_COUNT>  (1) 
1

>  <PUBCHEM_CONFORMER_ID>  (1) 
00005BCB00000001

>  <PUBCHEM_MMFF94_ENERGY>  (1) 
55.8395

>  <PUBCHEM_FEATURE_SELFOVERLAP>  (1) 
30.504

>  <PUBCHEM_SHAPE_FINGERPRINT>  (1) 
10165383 225 17325520055108322145
104564 63 18054506906994027711
10764073 3 17185809214271390937
10906281 52 18335147531005981192
10967382 1 18266753543976069352
11101153 10 18338238151455715462
11578080 2 17487878052090745984
116883 192 18125438601183063855
12035759 4 17109294019594568541
12553582 1 18338812108423898866
12623949 98 17905356226958989331
12730499 353 18047192131740386571
12788726 201 17833826080114761243
13004483 165 18196920081267109326
13009979 54 17775292651350805259
13134695 92 18411131441873356343
13140716 1 17979357787586798144
13681431 1 18339909489547000665
13911987 19 18190198921932799606
14790565 3 17832748833988656136
14866123 147 16895948043232335587
15042514 8 17690849960183342370
15131766 46 15365932774245468070
15906896 17 17618509778729969507
16087824 20 17906179447677746457
16945 1 18409443725889739427
17138139 8 16900691418188903285
1813 80 18059868211664522647
18219364 16 17688607368748281257
19930381 70 18122065566266316251
21524375 3 17469028321086288864
221357 26 18335691707952244381
22620623 9 17696768657568178454
23114952 82 18187649166635450957
2334 1 18265357074278426016
23419403 2 17393552092643426576
23526113 38 18186803599397012123
23558518 356 17901395498164205418
23598291 2 17986979438586268657
238 59 17905017572680805399
25 1 18049441736261475877
266924 87 18409733941710986244
2748010 2 18337125479552064408
3323516 105 18260267477602618871
3886686 26 16832595845830161448
6287921 2 17827366797589359631
6438718 38 17698436624890786301
6442390 28 17472704001817644843
6443956 14 18409172116590109812
70251023 43 18270407062075382638
7164475 11 17978505343510151806
7399639 24 17613722939422013107
7471813 234 18340759356496284382
81228 2 18122333588973153968
84936 182 17842281651060974785
9925002 15 16530009695624575203

>  <PUBCHEM_SHAPE_MULTIPOLES>  (1) 
436.92
6.1
4.43
1.34
4.55
4.16
-0.09
-4.88
2.35
-3.36
-0.19
0.99
-0.38
0.01

>  <PUBCHEM_SHAPE_SELFOVERLAP>  (1) 
956.019

>  <PUBCHEM_SHAPE_VOLUME>  (1) 
235.3

>  <PUBCHEM_COORDINATE_TYPE>  (1) 
2
5
10

$$$$
