23492
     RDKit          3D

 13 14  0  0  0  0  0  0  0  0999 V2000
   -0.8425    1.6937    0.0180 N   0  0  0  0  0  0  0  0  0  0  0  0
    4.5086   -0.6396    0.3415 N   0  0  0  0  0  0  0  0  0  0  0  0
    0.9314    0.4187   -0.3757 C   0  0  0  0  0  0  0  0  0  0  0  0
   -0.1979   -0.4303   -0.2063 C   0  0  0  0  0  0  0  0  0  0  0  0
   -1.2976    0.3945    0.0395 C   0  0  0  0  0  0  0  0  0  0  0  0
    2.3177   -0.0078   -0.6546 C   0  0  0  0  0  0  0  0  0  0  0  0
    0.5033    1.7185   -0.2320 C   0  0  0  0  0  0  0  0  0  0  0  0
   -0.3905   -1.8257   -0.2386 C   0  0  0  0  0  0  0  0  0  0  0  0
    3.1333   -0.2476    0.6304 C   0  0  0  0  0  0  0  0  0  0  0  0
   -2.5855   -0.1084    0.2553 C   0  0  0  0  0  0  0  0  0  0  0  0
   -1.6548    2.8729    0.2275 C   0  0  0  0  0  0  0  0  0  0  0  0
   -1.6732   -2.3431   -0.0241 C   0  0  0  0  0  0  0  0  0  0  0  0
   -2.7523   -1.4958    0.2189 C   0  0  0  0  0  0  0  0  0  0  0  0
  1  5  1  0
  1  7  1  0
  1 11  1  0
  2  9  1  0
  3  4  1  0
  3  6  1  0
  3  7  2  0
  4  5  2  0
  4  8  1  0
  5 10  1  0
  6  9  1  0
  8 12  2  0
 10 13  2  0
 12 13  1  0
M  END
>  <PUBCHEM_COMPOUND_CID>  (1) 
23492

>  <PUBCHEM_CONFORMER_RMSD>  (1) 
0.6

>  <PUBCHEM_CONFORMER_DIVERSEORDER>  (1) 
1
4
3
2

>  <PUBCHEM_MMFF94_PARTIAL_CHARGES>  (1) 
19
1 0.05
10 -0.15
11 0.26
12 -0.15
13 -0.15
16 0.15
19 0.15
2 -0.99
20 0.15
24 0.15
25 0.15
26 0.36
27 0.36
3 -0.18
5 -0.15
6 0.18
7 -0.3
8 -0.15
9 0.27

>  <PUBCHEM_EFFECTIVE_ROTOR_COUNT>  (1) 
2

>  <PUBCHEM_PHARMACOPHORE_FEATURES>  (1) 
5
1 1 cation
1 2 cation
1 2 donor
5 1 3 4 5 7 rings
6 4 5 8 10 12 13 rings

>  <PUBCHEM_HEAVY_ATOM_COUNT>  (1) 
13

>  <PUBCHEM_ATOM_DEF_STEREO_COUNT>  (1) 
0

>  <PUBCHEM_ATOM_UDEF_STEREO_COUNT>  (1) 
0

>  <PUBCHEM_BOND_DEF_STEREO_COUNT>  (1) 
0

>  <PUBCHEM_BOND_UDEF_STEREO_COUNT>  (1) 
0

>  <PUBCHEM_ISOTOPIC_ATOM_COUNT>  (1) 
0

>  <PUBCHEM_COMPONENT_COUNT>  (1) 
1

>  <PUBCHEM_CACTVS_TAUTO_COUNT>  (1) 
1

>  <PUBCHEM_CONFORMER_ID>  (1) 
00005BC400000001

>  <PUBCHEM_MMFF94_ENERGY>  (1) 
15.873

>  <PUBCHEM_FEATURE_SELFOVERLAP>  (1) 
25.463

>  <PUBCHEM_SHAPE_FINGERPRINT>  (1) 
10130415 120 18263648531502531995
11357001 24 18408040684638770016
13024252 1 14634873007025761837
13140716 1 18339651160512941329
13380535 76 18122341277186179013
16945 1 18411710871721787173
17804303 29 18342462538867935162
17841504 4 17904486551435309667
193761 8 17906177248358149703
20510252 161 18272370824101725656
20711985 365 18409166627511369524
20871998 184 18272369771882139374
21650355 55 18339068402075541642
232386 152 18336550529159298974
2334 1 18051418671084358367
23402539 116 18272079496886489991
23419403 2 14760920053914352503
23463225 33 18337113487412491334
23552423 10 17401210465718532767
23559900 14 18341611495815102420
23598294 1 18336257930254033280
257057 1 18052810635535790751
2748010 2 18196656422014637501
43471831 8 18262235495900068786
53812654 25 18198907091914450247
5706482 22 18195235625031223560
7364860 26 17549267376978130977
81228 2 18411430491919740273
84936 182 17118874055812860136

>  <PUBCHEM_SHAPE_MULTIPOLES>  (1) 
257.57
4.91
2.63
0.71
5.71
1.13
0
-1.94
0.97
-2.05
0.07
0.19
-0.02
-0.2

>  <PUBCHEM_SHAPE_SELFOVERLAP>  (1) 
549.59

>  <PUBCHEM_SHAPE_VOLUME>  (1) 
145.8

>  <PUBCHEM_COORDINATE_TYPE>  (1) 
2
5
10

$$$$
