23498
     RDKit          3D

 21 23  0  0  0  0  0  0  0  0999 V2000
    1.5895   -0.7768    1.9930 O   0  0  0  0  0  0  0  0  0  0  0  0
   -2.3052    1.2228   -0.2661 N   0  0  0  0  0  0  0  0  0  0  0  0
    2.1392   -1.1775   -0.2435 N   0  0  0  0  0  0  0  0  0  0  0  0
    0.0596    1.3391    0.2219 C   0  0  0  0  0  0  0  0  0  0  0  0
    1.3390    2.1235    0.3178 C   0  0  0  0  0  0  0  0  0  0  0  0
    1.1138    3.6329    0.3982 C   0  0  0  0  0  0  0  0  0  0  0  0
    0.0909    4.0771   -0.6407 C   0  0  0  0  0  0  0  0  0  0  0  0
   -1.2566    3.4097   -0.3752 C   0  0  0  0  0  0  0  0  0  0  0  0
   -1.1493    1.9251   -0.1456 C   0  0  0  0  0  0  0  0  0  0  0  0
    0.0635   -0.0385    0.4412 C   0  0  0  0  0  0  0  0  0  0  0  0
   -1.1146   -0.7848    0.3159 C   0  0  0  0  0  0  0  0  0  0  0  0
   -2.2925   -0.1040   -0.0436 C   0  0  0  0  0  0  0  0  0  0  0  0
    1.3234   -0.6986    0.7911 C   0  0  0  0  0  0  0  0  0  0  0  0
   -1.1359   -2.1724    0.5377 C   0  0  0  0  0  0  0  0  0  0  0  0
    3.4044   -1.8228    0.0783 C   0  0  0  0  0  0  0  0  0  0  0  0
    1.8206   -1.0836   -1.6665 C   0  0  0  0  0  0  0  0  0  0  0  0
   -3.4655   -0.8434   -0.1678 C   0  0  0  0  0  0  0  0  0  0  0  0
   -2.3220   -2.8887    0.4061 C   0  0  0  0  0  0  0  0  0  0  0  0
   -3.4888   -2.2225    0.0532 C   0  0  0  0  0  0  0  0  0  0  0  0
    4.5389   -0.8209    0.1376 C   0  0  0  0  0  0  0  0  0  0  0  0
    1.0475   -2.2959   -2.1432 C   0  0  0  0  0  0  0  0  0  0  0  0
  1 13  2  0
  2  9  2  0
  2 12  1  0
  3 13  1  0
  3 15  1  0
  3 16  1  0
  4  5  1  0
  4  9  1  0
  4 10  2  0
  5  6  1  0
  6  7  1  0
  7  8  1  0
  8  9  1  0
 10 11  1  0
 10 13  1  0
 11 12  2  0
 11 14  1  0
 12 17  1  0
 14 18  2  0
 15 20  1  0
 16 21  1  0
 17 19  2  0
 18 19  1  0
M  END
>  <PUBCHEM_COMPOUND_CID>  (1) 
23498

>  <PUBCHEM_CONFORMER_RMSD>  (1) 
0.8

>  <PUBCHEM_CONFORMER_DIVERSEORDER>  (1) 
1
2
3
4

>  <PUBCHEM_MMFF94_PARTIAL_CHARGES>  (1) 
20
1 -0.57
10 0.09
12 0.31
13 0.54
14 -0.15
15 0.3
16 0.3
17 -0.15
18 -0.15
19 -0.15
2 -0.62
3 -0.66
30 0.15
35 0.15
36 0.15
37 0.15
4 -0.14
5 0.14
8 0.14
9 0.17

>  <PUBCHEM_EFFECTIVE_ROTOR_COUNT>  (1) 
4.8

>  <PUBCHEM_PHARMACOPHORE_FEATURES>  (1) 
5
1 1 acceptor
1 2 acceptor
6 11 12 14 17 18 19 rings
6 2 4 9 10 11 12 rings
6 4 5 6 7 8 9 rings

>  <PUBCHEM_HEAVY_ATOM_COUNT>  (1) 
21

>  <PUBCHEM_ATOM_DEF_STEREO_COUNT>  (1) 
0

>  <PUBCHEM_ATOM_UDEF_STEREO_COUNT>  (1) 
0

>  <PUBCHEM_BOND_DEF_STEREO_COUNT>  (1) 
0

>  <PUBCHEM_BOND_UDEF_STEREO_COUNT>  (1) 
0

>  <PUBCHEM_ISOTOPIC_ATOM_COUNT>  (1) 
0

>  <PUBCHEM_COMPONENT_COUNT>  (1) 
1

>  <PUBCHEM_CACTVS_TAUTO_COUNT>  (1) 
1

>  <PUBCHEM_CONFORMER_ID>  (1) 
00005BCA00000001

>  <PUBCHEM_MMFF94_ENERGY>  (1) 
54.5123

>  <PUBCHEM_FEATURE_SELFOVERLAP>  (1) 
25.427

>  <PUBCHEM_SHAPE_FINGERPRINT>  (1) 
10411042 1 18409165545206400547
10906281 52 18342187621953078669
10967382 1 17688024636475986321
1100329 8 18337956688609695145
11578080 2 16663696321064078614
11640471 11 17244445005644253652
11725454 13 16619485894798583586
12173636 292 17760362193672920260
12553582 1 18339663177647098367
12592029 89 17474116873795094163
12788726 201 18119272600167335246
13140716 1 18410015433898864009
138480 1 15239472087240058976
14022347 108 18264507100060773667
14713325 29 16389647196436829711
14787075 74 18041842956105073570
14790565 3 18050575032055270073
15042514 8 18192153694097109075
15490181 7 17259636845766897499
16945 1 18264471919761820235
17134986 127 16967455885808754436
17921350 177 16682519865832325909
19591789 44 16896524788424610225
20510252 161 17980478958112577808
20645477 70 17905599257719674639
20905425 154 18337393854446083684
21285901 2 18057891234271158383
21330990 113 16541921869219088433
2334 1 18336254747841749425
23402539 116 18340477864044409254
23419403 2 17702357633631987504
23557571 272 18199474264385050486
23559900 14 18266732678555401617
2748010 2 18337092536957790185
3060560 45 17547008984495167709
352729 6 17471841512043835745
6138700 20 18048605008582989372
7364860 26 18050568735726964473
81228 2 18126024692494155075
9709674 26 17974845387487711051
9981440 41 17254829781030897560

>  <PUBCHEM_SHAPE_MULTIPOLES>  (1) 
416.34
5.12
4.75
1.23
1.18
4.64
0.35
-4.05
-0.43
-2.36
0.94
-0.54
-0.84
0.42

>  <PUBCHEM_SHAPE_SELFOVERLAP>  (1) 
896.209

>  <PUBCHEM_SHAPE_VOLUME>  (1) 
229.7

>  <PUBCHEM_COORDINATE_TYPE>  (1) 
2
5
10

$$$$
