23504
     RDKit          3D

 12 11  0  0  0  0  0  0  0  0999 V2000
   -3.0101    0.5244   -0.0065 O   0  0  0  0  0  0  0  0  0  0  0  0
    3.0100   -0.5243   -0.0099 O   0  0  0  0  0  0  0  0  0  0  0  0
   -4.4594   -1.2639    0.0267 O   0  0  0  0  0  0  0  0  0  0  0  0
    4.4593    1.2639    0.0272 O   0  0  0  0  0  0  0  0  0  0  0  0
   -5.2358    0.9003    0.0042 N   0  0  0  0  0  0  0  0  0  0  0  0
    5.2358   -0.9003    0.0098 N   0  0  0  0  0  0  0  0  0  0  0  0
   -0.6168    0.4481   -0.0222 C   0  0  0  0  0  0  0  0  0  0  0  0
    0.6168   -0.4479   -0.0352 C   0  0  0  0  0  0  0  0  0  0  0  0
   -1.9027   -0.3660   -0.0027 C   0  0  0  0  0  0  0  0  0  0  0  0
    1.9027    0.3659   -0.0114 C   0  0  0  0  0  0  0  0  0  0  0  0
   -4.2502   -0.0555    0.0096 C   0  0  0  0  0  0  0  0  0  0  0  0
    4.2502    0.0555    0.0105 C   0  0  0  0  0  0  0  0  0  0  0  0
  1  9  1  0
  1 11  1  0
  2 10  1  0
  2 12  1  0
  3 11  2  0
  4 12  2  0
  5 11  1  0
  6 12  1  0
  7  8  1  0
  7  9  1  0
  8 10  1  0
M  END
>  <PUBCHEM_COMPOUND_CID>  (1) 
23504

>  <PUBCHEM_CONFORMER_RMSD>  (1) 
0.8

>  <PUBCHEM_CONFORMER_DIVERSEORDER>  (1) 
1
75
24
51
8
10
56
29
74
70
79
27
77
25
78
5
2
35
20
3
84
54
17
62
65
22
47
45
13
23
50
59
63
61
36
82
41
33
44
6
15
66
14
85
26
39
60
19
48
81
11
30
34
72
9
32
37
57
76
55
52
7
83
38
18
80
71
69
49
43
42
86
16
21
46
40
31
4
28
58
73
12
64
53
68
67

>  <PUBCHEM_MMFF94_PARTIAL_CHARGES>  (1) 
14
1 -0.43
10 0.28
11 0.78
12 0.78
2 -0.43
21 0.37
22 0.37
23 0.37
24 0.37
3 -0.57
4 -0.57
5 -0.8
6 -0.8
9 0.28

>  <PUBCHEM_EFFECTIVE_ROTOR_COUNT>  (1) 
7

>  <PUBCHEM_PHARMACOPHORE_FEATURES>  (1) 
4
1 3 acceptor
1 4 acceptor
1 5 donor
1 6 donor

>  <PUBCHEM_HEAVY_ATOM_COUNT>  (1) 
12

>  <PUBCHEM_ATOM_DEF_STEREO_COUNT>  (1) 
0

>  <PUBCHEM_ATOM_UDEF_STEREO_COUNT>  (1) 
0

>  <PUBCHEM_BOND_DEF_STEREO_COUNT>  (1) 
0

>  <PUBCHEM_BOND_UDEF_STEREO_COUNT>  (1) 
0

>  <PUBCHEM_ISOTOPIC_ATOM_COUNT>  (1) 
0

>  <PUBCHEM_COMPONENT_COUNT>  (1) 
1

>  <PUBCHEM_CACTVS_TAUTO_COUNT>  (1) 
3

>  <PUBCHEM_CONFORMER_ID>  (1) 
00005BD000000001

>  <PUBCHEM_MMFF94_ENERGY>  (1) 
11.5216

>  <PUBCHEM_FEATURE_SELFOVERLAP>  (1) 
20.298

>  <PUBCHEM_SHAPE_FINGERPRINT>  (1) 
11062470 55 18410575088958052709
11287383 113 18411138069166142810
14123238 8 18410575106137915477
17834072 33 18343301513025567764
17834076 25 18410012126130272513
20645477 70 18341334397226015318
20719005 15 18410573985425796710
20828058 44 18411982472816831391
22485316 2 18408884031727451611
23402539 116 18412821387366999021
42 15 18409449180630093654
42788 4 18410855460370845861
57483677 66 18408882927926397682

>  <PUBCHEM_SHAPE_MULTIPOLES>  (1) 
213.52
12.81
1.01
0.57
0
0
0
0
0.14
0
0.01
0
0
0.02

>  <PUBCHEM_SHAPE_SELFOVERLAP>  (1) 
402.335

>  <PUBCHEM_SHAPE_VOLUME>  (1) 
131.5

>  <PUBCHEM_COORDINATE_TYPE>  (1) 
2
5
10

$$$$
