23511
     RDKit          3D

 29 33  0  0  1  0  0  0  0  0999 V2000
   -3.4681    0.1110   -2.0163 O   0  0  0  0  0  0  0  0  0  0  0  0
    0.3624   -3.0755   -0.2630 N   0  0  0  0  0  0  0  0  0  0  0  0
    4.8830    0.7233    0.9816 N   0  0  0  0  0  0  0  0  0  0  0  0
   -2.4710   -0.6440   -0.0249 N   0  0  0  0  0  0  0  0  0  0  0  0
   -4.4686    0.4810   -0.0223 N   0  0  0  0  0  0  0  0  0  0  0  0
   -4.4671    0.3498    1.3284 N   0  0  0  0  0  0  0  0  0  0  0  0
    1.1149   -0.9021   -1.2387 C   0  0  0  0  0  0  0  0  0  0  0  0
    1.5061   -2.1447   -0.3363 C   0  0  0  0  0  0  0  0  0  0  0  0
   -0.1625   -0.2312   -0.7161 C   0  0  0  0  0  0  0  0  0  0  0  0
   -1.2879   -1.2565   -0.5804 C   0  0  0  0  0  0  0  0  0  0  0  0
    2.1335   -1.7599    1.0613 C   0  0  0  0  0  0  0  0  0  0  0  0
    2.2478    0.0993   -1.3070 C   0  0  0  0  0  0  0  0  0  0  0  0
   -0.8559   -2.4568    0.2683 C   0  0  0  0  0  0  0  0  0  0  0  0
    3.1590    0.1210   -0.2461 C   0  0  0  0  0  0  0  0  0  0  0  0
    3.1813   -0.7104    0.8914 C   0  0  0  0  0  0  0  0  0  0  0  0
    4.2170    1.0075   -0.1910 C   0  0  0  0  0  0  0  0  0  0  0  0
    0.6741   -4.3147    0.4435 C   0  0  0  0  0  0  0  0  0  0  0  0
    4.2617   -0.3164    1.6456 C   0  0  0  0  0  0  0  0  0  0  0  0
    2.4416    1.0369   -2.3263 C   0  0  0  0  0  0  0  0  0  0  0  0
    4.4296    1.9447   -1.2027 C   0  0  0  0  0  0  0  0  0  0  0  0
    3.5157    1.9385   -2.2715 C   0  0  0  0  0  0  0  0  0  0  0  0
    6.0646    1.4065    1.4616 C   0  0  0  0  0  0  0  0  0  0  0  0
   -3.4272   -0.0298   -0.8038 C   0  0  0  0  0  0  0  0  0  0  0  0
    5.7230    2.6000    2.3370 C   0  0  0  0  0  0  0  0  0  0  0  0
   -5.5845    1.1532   -0.4719 C   0  0  0  0  0  0  0  0  0  0  0  0
   -6.3310    1.4675    0.6366 C   0  0  0  0  0  0  0  0  0  0  0  0
   -5.5947    0.9499    1.7132 C   0  0  0  0  0  0  0  0  0  0  0  0
   -5.8580    1.4450   -1.8940 C   0  0  0  0  0  0  0  0  0  0  0  0
   -5.9389    1.0068    3.1438 C   0  0  0  0  0  0  0  0  0  0  0  0
  1 23  2  0
  2  8  1  0
  2 13  1  0
  2 17  1  0
  3 16  1  0
  3 18  1  0
  3 22  1  0
  4 10  1  0
  4 23  1  0
  5  6  1  0
  5 23  1  0
  5 25  1  0
  6 27  2  0
  7  8  1  0
  7  9  1  0
  7 12  1  0
  8 11  1  0
  9 10  1  0
 10 13  1  0
 11 15  1  0
 12 14  2  0
 12 19  1  0
 14 15  1  0
 14 16  1  0
 15 18  2  0
 16 20  2  0
 19 21  2  0
 20 21  1  0
 22 24  1  0
 25 26  2  0
 25 28  1  0
 26 27  1  0
 27 29  1  0
M  END
>  <PUBCHEM_COMPOUND_CID>  (1) 
23511

>  <PUBCHEM_CONFORMER_RMSD>  (1) 
0.8

>  <PUBCHEM_CONFORMER_DIVERSEORDER>  (1) 
1
86
44
79
45
101
84
57
19
21
46
91
5
26
104
30
25
29
36
90
64
51
67
69
50
92
11
59
82
14
22
83
95
47
37
65
53
87
98
58
15
35
61
38
17
10
9
78
49
63
34
20
32
24
89
54
93
41
71
3
105
70
96
72
42
76
62
109
94
81
99
18
55
74
12
52
106
6
108
73
8
60
80
2
28
107
13
103
27
100
4
23
48
40
68
66
112
111
56
16
43
75
33
110
7
88
39
85
97
102
31
77

>  <PUBCHEM_MMFF94_PARTIAL_CHARGES>  (1) 
32
1 -0.57
10 0.3
11 0.18
12 -0.14
13 0.27
15 -0.18
16 -0.15
17 0.27
18 -0.3
19 -0.15
2 -0.81
20 -0.15
21 -0.15
22 0.26
23 0.64
25 -0.33
26 -0.15
27 0.11
28 0.18
29 0.18
3 0.05
4 -0.73
42 0.15
43 0.15
44 0.37
45 0.15
46 0.15
5 0.56
52 0.15
6 -0.71
7 0.14
8 0.27

>  <PUBCHEM_EFFECTIVE_ROTOR_COUNT>  (1) 
5

>  <PUBCHEM_PHARMACOPHORE_FEATURES>  (1) 
10
1 1 acceptor
1 2 cation
1 3 cation
1 4 donor
1 6 acceptor
5 3 14 15 16 18 rings
5 5 6 25 26 27 rings
6 12 14 16 19 20 21 rings
6 2 7 8 9 10 13 rings
6 7 8 11 12 14 15 rings

>  <PUBCHEM_HEAVY_ATOM_COUNT>  (1) 
29

>  <PUBCHEM_ATOM_DEF_STEREO_COUNT>  (1) 
0

>  <PUBCHEM_ATOM_UDEF_STEREO_COUNT>  (1) 
3

>  <PUBCHEM_BOND_DEF_STEREO_COUNT>  (1) 
0

>  <PUBCHEM_BOND_UDEF_STEREO_COUNT>  (1) 
0

>  <PUBCHEM_ISOTOPIC_ATOM_COUNT>  (1) 
0

>  <PUBCHEM_COMPONENT_COUNT>  (1) 
1

>  <PUBCHEM_CACTVS_TAUTO_COUNT>  (1) 
2

>  <PUBCHEM_CONFORMER_ID>  (1) 
00005BD700000001

>  <PUBCHEM_MMFF94_ENERGY>  (1) 
57.3445

>  <PUBCHEM_FEATURE_SELFOVERLAP>  (1) 
51.021

>  <PUBCHEM_SHAPE_FINGERPRINT>  (1) 
10 15 17676212389901350445
10319926 262 16298668287749165565
10622 236 12686533013272352865
10674148 151 17968956292331036580
10693767 8 11527406921738013828
10721379 63 16414091680943406262
11796584 16 12614682011371744472
12403259 118 17968090979624463631
12422481 6 17676481744042326687
12633257 1 16950280736719842794
12788726 201 17904766930985032567
13540713 5 17461718695640769886
13583140 156 16153970396849231503
13631057 29 18199455736456013303
13690498 29 13829550095593044941
13782708 43 12829750935166511864
14251764 30 12757138066080954736
14294032 229 18195822975079761203
144659 39 17748828527330068499
14950920 106 15864066598370260669
15082195 135 15554449639106271912
15183329 4 13254804516729453163
15188451 53 14490478621060093561
15238133 3 18338797927022051652
15348495 7 16588029013415476797
15475509 35 14273725262368660016
15950262 2 17416394575702255192
17913733 40 18408325462925625931
1813 80 7853571296892159639
18222031 100 7781513690132463903
19246450 95 17315043646346791408
19377110 9 18335988649127702067
1979834 28 18114190691999647543
20642791 268 17971175170925062996
21033648 29 18339081600805285386
21774942 28 16917069928353355656
21859007 373 15647881615003294471
22061861 79 11527942332070248425
22149856 69 18266199283495933907
23559900 14 17825119112423577807
2838139 119 17632300055450267185
312425 54 15140680280727727697
3178227 256 18041567932174977642
3472631 163 17774996933940774448
34797466 226 15410888579189517137
5104073 3 17532928518773947616
543368 44 17704069591244595329
6058803 2 17535746640375185862
7970288 3 7853576824425561744
8863177 126 14779263129181071696
960060 61 12319453260356039149

>  <PUBCHEM_SHAPE_MULTIPOLES>  (1) 
566.03
16.05
3.12
2.47
16.81
3.37
0.72
-14.98
8.02
-2.26
0.33
0.46
-1.76
-0.1

>  <PUBCHEM_SHAPE_SELFOVERLAP>  (1) 
1238.832

>  <PUBCHEM_SHAPE_VOLUME>  (1) 
308.5

>  <PUBCHEM_COORDINATE_TYPE>  (1) 
2
5
10

$$$$
