23512
     RDKit          3D

 17 18  0  0  1  0  0  0  0  0999 V2000
   -4.6584    0.9713    0.4544 F   0  0  0  0  0  0  0  0  0  0  0  0
   -4.4350   -0.1316   -1.3997 F   0  0  0  0  0  0  0  0  0  0  0  0
   -4.5057   -1.1975    0.4944 F   0  0  0  0  0  0  0  0  0  0  0  0
    2.3231   -1.0432    0.4665 O   0  0  0  0  0  0  0  0  0  0  0  0
    5.7691   -0.1605   -0.1405 O   0  0  0  0  0  0  0  0  0  0  0  0
    3.8413    0.9250   -0.7554 N   0  0  0  0  0  0  0  0  0  0  0  0
    1.7672    0.2720    0.3729 C   0  0  0  0  0  0  0  0  0  0  0  0
    2.3954    0.9477   -0.8386 C   0  0  0  0  0  0  0  0  0  0  0  0
    0.2639    0.1793    0.2477 C   0  0  0  0  0  0  0  0  0  0  0  0
    3.7059   -0.9993    0.7591 C   0  0  0  0  0  0  0  0  0  0  0  0
   -0.5451    1.1866    0.7758 C   0  0  0  0  0  0  0  0  0  0  0  0
   -0.3180   -0.9137   -0.3963 C   0  0  0  0  0  0  0  0  0  0  0  0
    4.5432   -0.0629   -0.0988 C   0  0  0  0  0  0  0  0  0  0  0  0
   -2.5128    0.0081    0.0168 C   0  0  0  0  0  0  0  0  0  0  0  0
   -1.9326    1.1010    0.6606 C   0  0  0  0  0  0  0  0  0  0  0  0
   -1.7054   -0.9992   -0.5118 C   0  0  0  0  0  0  0  0  0  0  0  0
   -3.9961   -0.0833   -0.1071 C   0  0  0  0  0  0  0  0  0  0  0  0
  1 17  1  0
  2 17  1  0
  3 17  1  0
  4  7  1  0
  4 10  1  0
  5 13  2  0
  6  8  1  0
  6 13  1  0
  7  8  1  0
  7  9  1  0
  9 11  2  0
  9 12  1  0
 10 13  1  0
 11 15  1  0
 12 16  2  0
 14 15  2  0
 14 16  1  0
 14 17  1  0
M  END
>  <PUBCHEM_COMPOUND_CID>  (1) 
23512

>  <PUBCHEM_CONFORMER_RMSD>  (1) 
0.6

>  <PUBCHEM_CONFORMER_DIVERSEORDER>  (1) 
1
3
4
2
6
5

>  <PUBCHEM_MMFF94_PARTIAL_CHARGES>  (1) 
22
1 -0.34
10 0.34
11 -0.15
12 -0.15
13 0.57
14 -0.14
15 -0.15
16 -0.15
17 1.16
2 -0.34
21 0.37
24 0.15
25 0.15
26 0.15
27 0.15
3 -0.34
4 -0.56
5 -0.57
6 -0.73
7 0.42
8 0.3
9 -0.14

>  <PUBCHEM_EFFECTIVE_ROTOR_COUNT>  (1) 
3

>  <PUBCHEM_PHARMACOPHORE_FEATURES>  (1) 
5
1 4 acceptor
1 5 acceptor
1 6 donor
6 4 6 7 8 10 13 rings
6 9 11 12 14 15 16 rings

>  <PUBCHEM_HEAVY_ATOM_COUNT>  (1) 
17

>  <PUBCHEM_ATOM_DEF_STEREO_COUNT>  (1) 
0

>  <PUBCHEM_ATOM_UDEF_STEREO_COUNT>  (1) 
1

>  <PUBCHEM_BOND_DEF_STEREO_COUNT>  (1) 
0

>  <PUBCHEM_BOND_UDEF_STEREO_COUNT>  (1) 
0

>  <PUBCHEM_ISOTOPIC_ATOM_COUNT>  (1) 
0

>  <PUBCHEM_COMPONENT_COUNT>  (1) 
1

>  <PUBCHEM_CACTVS_TAUTO_COUNT>  (1) 
2

>  <PUBCHEM_CONFORMER_ID>  (1) 
00005BD800000001

>  <PUBCHEM_MMFF94_ENERGY>  (1) 
36.3281

>  <PUBCHEM_FEATURE_SELFOVERLAP>  (1) 
25.371

>  <PUBCHEM_SHAPE_FINGERPRINT>  (1) 
10968037 39 18342459266108078460
11287383 113 17095528421671866704
11401426 45 17703788111439933373
11471102 20 17749109993938169196
11543360 7 17530964734897585083
12119455 92 15864067684838458506
12236239 1 18409450280574231520
13288520 33 17988646272517915508
13690532 89 18411419509841189216
13760787 19 18260264149097760795
13760787 5 18411981377695019061
13862211 1 18059851783599088527
14115302 16 18411422851510303478
14123238 8 17894630357367979018
14993402 34 18410292518812271356
17834072 33 18113902697099206710
18186145 218 17313098661832485793
19026448 4 16877943836932479993
200 152 18408322185443365008
20279233 1 16056885745072758476
20645477 70 17313096403043997314
21029758 27 18412829109676395353
21119208 17 18334575750388256796
21267235 1 18411710880691698634
2297311 6 17560813117127958984
23402539 116 17775562026845499805
23402655 69 18040713645477220332
23557571 272 17275111591887148488
23559900 14 18060134392974523584
26918003 58 17967534579701656962
29717793 49 18343586214039741212
474 4 17897169233308016748
4990 188 16917072157013912292
5104073 3 18410294743589507320
542803 24 18411139134428899340
69090 78 15482665788465448900
77779 3 18040435498999917611

>  <PUBCHEM_SHAPE_MULTIPOLES>  (1) 
311.31
10.57
1.21
0.92
2.28
0.03
-0.1
-0.84
-0.8
-0.25
0.11
-0.08
0.04
-0.68

>  <PUBCHEM_SHAPE_SELFOVERLAP>  (1) 
664.099

>  <PUBCHEM_SHAPE_VOLUME>  (1) 
173.9

>  <PUBCHEM_COORDINATE_TYPE>  (1) 
2
5
10

$$$$
