23520
     RDKit          3D

 16 18  0  0  0  0  0  0  0  0999 V2000
    4.5920   -0.7662    0.0002 O   0  0  0  0  0  0  0  0  0  0  0  0
   -0.4056    1.5977   -0.0001 N   0  0  0  0  0  0  0  0  0  0  0  0
   -0.1369   -2.5850   -0.0008 N   0  0  0  0  0  0  0  0  0  0  0  0
    0.9399   -0.3969    0.0000 C   0  0  0  0  0  0  0  0  0  0  0  0
   -1.4844   -0.5528    0.0001 C   0  0  0  0  0  0  0  0  0  0  0  0
   -0.2277   -1.1666    0.0002 C   0  0  0  0  0  0  0  0  0  0  0  0
    0.8022    1.0015   -0.0001 C   0  0  0  0  0  0  0  0  0  0  0  0
   -1.5271    0.8515   -0.0001 C   0  0  0  0  0  0  0  0  0  0  0  0
    2.2158   -0.9871    0.0002 C   0  0  0  0  0  0  0  0  0  0  0  0
   -2.6741   -1.3018    0.0003 C   0  0  0  0  0  0  0  0  0  0  0  0
    1.9611    1.7733   -0.0002 C   0  0  0  0  0  0  0  0  0  0  0  0
   -2.7753    1.4685   -0.0002 C   0  0  0  0  0  0  0  0  0  0  0  0
    3.3586   -0.1929    0.0001 C   0  0  0  0  0  0  0  0  0  0  0  0
    3.2306    1.1902    0.0000 C   0  0  0  0  0  0  0  0  0  0  0  0
   -3.9093   -0.6607    0.0002 C   0  0  0  0  0  0  0  0  0  0  0  0
   -3.9597    0.7274    0.0000 C   0  0  0  0  0  0  0  0  0  0  0  0
  1 13  1  0
  2  7  2  0
  2  8  1  0
  3  6  1  0
  4  6  2  0
  4  7  1  0
  4  9  1  0
  5  6  1  0
  5  8  2  0
  5 10  1  0
  7 11  1  0
  8 12  1  0
  9 13  2  0
 10 15  2  0
 11 14  2  0
 12 16  2  0
 13 14  1  0
 15 16  1  0
M  END
>  <PUBCHEM_COMPOUND_CID>  (1) 
23520

>  <PUBCHEM_CONFORMER_RMSD>  (1) 
0.4

>  <PUBCHEM_CONFORMER_DIVERSEORDER>  (1) 
1

>  <PUBCHEM_MMFF94_PARTIAL_CHARGES>  (1) 
24
1 -0.53
10 -0.15
11 -0.15
12 -0.15
13 0.08
14 -0.15
15 -0.15
16 -0.15
17 0.15
18 0.15
19 0.15
2 -0.62
20 0.15
21 0.15
22 0.15
23 0.15
24 0.4
25 0.4
26 0.45
3 -0.9
6 0.1
7 0.31
8 0.31
9 -0.15

>  <PUBCHEM_EFFECTIVE_ROTOR_COUNT>  (1) 
0

>  <PUBCHEM_PHARMACOPHORE_FEATURES>  (1) 
7
1 1 donor
1 2 acceptor
1 3 cation
1 3 donor
6 2 4 5 6 7 8 rings
6 4 7 9 11 13 14 rings
6 5 8 10 12 15 16 rings

>  <PUBCHEM_HEAVY_ATOM_COUNT>  (1) 
16

>  <PUBCHEM_ATOM_DEF_STEREO_COUNT>  (1) 
0

>  <PUBCHEM_ATOM_UDEF_STEREO_COUNT>  (1) 
0

>  <PUBCHEM_BOND_DEF_STEREO_COUNT>  (1) 
0

>  <PUBCHEM_BOND_UDEF_STEREO_COUNT>  (1) 
0

>  <PUBCHEM_ISOTOPIC_ATOM_COUNT>  (1) 
0

>  <PUBCHEM_COMPONENT_COUNT>  (1) 
1

>  <PUBCHEM_CACTVS_TAUTO_COUNT>  (1) 
12

>  <PUBCHEM_CONFORMER_ID>  (1) 
00005BE000000001

>  <PUBCHEM_MMFF94_ENERGY>  (1) 
66.7756

>  <PUBCHEM_FEATURE_SELFOVERLAP>  (1) 
35.581

>  <PUBCHEM_SHAPE_FINGERPRINT>  (1) 
10062212 137 18411691076275899315
10411042 1 15672386907403319908
10608611 8 18411133666698531457
10967382 1 18410573955102543303
11132069 177 18412820291702023416
11471102 20 18410569604327156812
12032990 46 18410296929727743107
13140716 1 18411142445827767825
13221675 6 18410009939986676587
13288520 33 18340489976463801790
13380535 76 18410575067752579375
13690532 89 18409448064165417450
14144814 61 18410292523075590201
14325111 11 18410574006732120449
15196674 1 18410856589715201093
15309172 13 18411990160739693675
15442244 35 18266740177752988106
15536298 74 18342457071248103256
15775835 57 18334579031426811729
16945 1 18410855464423129094
17802600 8 18410569591447600997
17804303 29 18411704287521292900
18186145 218 18410009922817506517
18522853 276 18342173371378093648
193761 8 17689997830029211649
200 152 18060411426696450853
20510252 161 18272653462882860713
20645476 183 17824562965244166518
21267235 1 18410583889430782547
21501502 16 18267585882462061476
221490 88 18263933296392328618
2334 1 18338799021621254181
23402539 116 18271798021297882086
23402655 69 18341609300485823885
23463225 33 18408040701845077628
23559900 14 18343863338515436392
2748010 2 18410012164996124301
335352 9 18338517417700449629
43471831 8 18335416807742873170
474 4 16951978477632259092
5104073 3 18411138064697187480
528886 8 18411132528515899721
53812653 166 18413386523026302680
54173680 148 18120657087202290715
69090 78 18343015627149274503
7364860 26 18197216945032468327
8809292 202 18260834833981353171
9709674 26 18340492252401245550
9981440 41 17325488199615885352

>  <PUBCHEM_SHAPE_MULTIPOLES>  (1) 
313.44
7
2
0.6
0.85
0.3
0
-0.15
0
-0.05
0
-0.02
-0.01
0

>  <PUBCHEM_SHAPE_SELFOVERLAP>  (1) 
712.93

>  <PUBCHEM_SHAPE_VOLUME>  (1) 
163.6

>  <PUBCHEM_COORDINATE_TYPE>  (1) 
2
5
10

$$$$
