23531
     RDKit          3D

 10  9  0  0  1  0  0  0  0  0999 V2000
   -1.5091    0.6787   -0.3600 C   0  0  0  0  0  0  0  0  0  0  0  0
   -2.0340   -0.7739   -0.1638 C   0  0  0  0  0  0  0  0  0  0  0  0
   -0.0874    0.9129    0.2051 C   0  0  0  0  0  0  0  0  0  0  0  0
    0.9959   -0.0150   -0.3552 C   0  0  0  0  0  0  0  0  0  0  0  0
   -2.4816    1.7226    0.2085 C   0  0  0  0  0  0  0  0  0  0  0  0
    2.3756    0.3539    0.1969 C   0  0  0  0  0  0  0  0  0  0  0  0
   -2.1661   -1.1467    1.3179 C   0  0  0  0  0  0  0  0  0  0  0  0
   -3.3934   -0.9879   -0.8437 C   0  0  0  0  0  0  0  0  0  0  0  0
    3.4665   -0.5428   -0.3883 C   0  0  0  0  0  0  0  0  0  0  0  0
    4.8336   -0.2018    0.1827 C   0  0  0  0  0  0  0  0  0  0  0  0
  1  2  1  0
  1  3  1  0
  1  5  1  0
  2  7  1  0
  2  8  1  0
  3  4  1  0
  4  6  1  0
  6  9  1  0
  9 10  1  0
M  END
>  <PUBCHEM_COMPOUND_CID>  (1) 
23531

>  <PUBCHEM_CONFORMER_RMSD>  (1) 
0.6

>  <PUBCHEM_CONFORMER_DIVERSEORDER>  (1) 
4
26
53
41
50
93
98
6
43
65
55
91
102
13
99
8
103
71
45
87
24
47
78
36
100
51
38
81
66
11
69
2
72
29
82
5
85
73
88
52
30
16
104
62
97
40
79
37
90
101
83
15
44
75
57
92
34
3
89
21
7
80
12
42
68
56
74
1
18
95
84
10
48
63
23
33
25
77
86
9
49
64
20
28
94
14
46
39
35
19
70
76
58
67
96
27
59
17
31
61
54
60
22
32

>  <PUBCHEM_MMFF94_PARTIAL_CHARGES>  (1) 
0

>  <PUBCHEM_EFFECTIVE_ROTOR_COUNT>  (1) 
5

>  <PUBCHEM_PHARMACOPHORE_FEATURES>  (1) 
5
1 10 hydrophobe
1 5 hydrophobe
3 1 2 3 hydrophobe
3 2 7 8 hydrophobe
3 4 6 9 hydrophobe

>  <PUBCHEM_HEAVY_ATOM_COUNT>  (1) 
10

>  <PUBCHEM_ATOM_DEF_STEREO_COUNT>  (1) 
0

>  <PUBCHEM_ATOM_UDEF_STEREO_COUNT>  (1) 
1

>  <PUBCHEM_BOND_DEF_STEREO_COUNT>  (1) 
0

>  <PUBCHEM_BOND_UDEF_STEREO_COUNT>  (1) 
0

>  <PUBCHEM_ISOTOPIC_ATOM_COUNT>  (1) 
0

>  <PUBCHEM_COMPONENT_COUNT>  (1) 
1

>  <PUBCHEM_CACTVS_TAUTO_COUNT>  (1) 
1

>  <PUBCHEM_CONFORMER_ID>  (1) 
00005BEB00000004

>  <PUBCHEM_MMFF94_ENERGY>  (1) 
7.1717

>  <PUBCHEM_FEATURE_SELFOVERLAP>  (1) 
25.979

>  <PUBCHEM_SHAPE_FINGERPRINT>  (1) 
10680689 15 18272658939387694612
11127187 94 17822010968892020859
12932764 1 17917714621352314444
13024252 1 11818996284020064485
14325111 11 18341612594957542956
177051 138 18343301474861505054
187816 3 18114453535751255671
190213 19 17749108902874142166
20201158 50 18408040719067443650
20211469 26 18409444808284814646
20279233 1 17846219917138214052
20281407 28 18131072627944992694
20645464 45 17703799089160044773
20645476 183 16081361994677719707
20645477 70 17130708258881870318
20711983 138 18260832660928049555
20828058 44 18411697648150478906
21061003 4 17704075118002290280
21119208 17 16298380271163028574
22485316 2 18272084972832739478
2306618 200 17418097585483670161
23402539 116 18341041957060316805
3248919 1 18113341911956820366
528716 315 17822298993477268242
75552 356 18334016090110732822

>  <PUBCHEM_SHAPE_MULTIPOLES>  (1) 
205.8
7.7
1.38
0.92
9.26
0.31
0.16
-1.71
-0.34
-1.4
0.14
-0.56
-0.26
0.04

>  <PUBCHEM_SHAPE_SELFOVERLAP>  (1) 
364.302

>  <PUBCHEM_SHAPE_VOLUME>  (1) 
136.9

>  <PUBCHEM_COORDINATE_TYPE>  (1) 
2
5
10

$$$$
