23534
     RDKit          3D

 19 19  0  0  1  0  0  0  0  0999 V2000
   -2.9962   -1.3297    0.0909 O   0  0  0  0  0  0  0  0  0  0  0  0
   -3.6742    0.9309    0.0906 O   0  0  0  0  0  0  0  0  0  0  0  0
   -1.5075    0.3730   -0.8392 C   0  0  0  0  0  0  0  0  0  0  0  0
   -0.7508    0.4738    0.5071 C   0  0  0  0  0  0  0  0  0  0  0  0
   -2.9716   -0.0921   -0.6304 C   0  0  0  0  0  0  0  0  0  0  0  0
    0.7517    0.4176    0.3654 C   0  0  0  0  0  0  0  0  0  0  0  0
   -1.4803    1.7109   -1.5904 C   0  0  0  0  0  0  0  0  0  0  0  0
    3.5086    0.3147    0.1073 C   0  0  0  0  0  0  0  0  0  0  0  0
    4.9925    0.2597   -0.0318 C   0  0  0  0  0  0  0  0  0  0  0  0
    1.3921   -0.8099    0.4121 C   0  0  0  0  0  0  0  0  0  0  0  0
    1.4615    1.5950    0.1923 C   0  0  0  0  0  0  0  0  0  0  0  0
    2.7798   -0.8619    0.2823 C   0  0  0  0  0  0  0  0  0  0  0  0
    2.8493    1.5431    0.0623 C   0  0  0  0  0  0  0  0  0  0  0  0
    5.4384   -0.5314   -1.2761 C   0  0  0  0  0  0  0  0  0  0  0  0
    5.6809   -0.3094    1.2233 C   0  0  0  0  0  0  0  0  0  0  0  0
   -2.3210   -2.3830   -0.5826 C   0  0  0  0  0  0  0  0  0  0  0  0
   -5.0423    0.6060    0.2978 C   0  0  0  0  0  0  0  0  0  0  0  0
   -2.4045   -3.6392    0.2578 C   0  0  0  0  0  0  0  0  0  0  0  0
   -5.7063    1.7320    1.0613 C   0  0  0  0  0  0  0  0  0  0  0  0
  1  5  1  0
  1 16  1  0
  2  5  1  0
  2 17  1  0
  3  4  1  0
  3  5  1  0
  3  7  1  0
  4  6  1  0
  6 10  2  0
  6 11  1  0
  8  9  1  0
  8 12  2  0
  8 13  1  0
  9 14  1  0
  9 15  1  0
 10 12  1  0
 11 13  2  0
 16 18  1  0
 17 19  1  0
M  END
>  <PUBCHEM_COMPOUND_CID>  (1) 
23534

>  <PUBCHEM_CONFORMER_RMSD>  (1) 
0.8

>  <PUBCHEM_CONFORMER_DIVERSEORDER>  (1) 
1
42
27
34
39
46
57
82
81
50
77
48
33
70
36
52
64
53
71
61
5
75
41
43
83
80
59
51
35
73
72
56
49
78
47
65
4
14
29
23
40
68
55
63
19
62
32
66
9
74
67
54
79
30
38
15
31
21
24
44
3
7
58
45
37
76
60
10
28
8
13
2
16
69
18
22
20
84
17
25
12
6
26
11

>  <PUBCHEM_MMFF94_PARTIAL_CHARGES>  (1) 
17
1 -0.56
10 -0.15
11 -0.15
12 -0.15
13 -0.15
16 0.28
17 0.28
2 -0.56
28 0.15
29 0.15
30 0.15
31 0.15
4 0.14
5 0.56
6 -0.14
8 -0.14
9 0.14

>  <PUBCHEM_EFFECTIVE_ROTOR_COUNT>  (1) 
8

>  <PUBCHEM_PHARMACOPHORE_FEATURES>  (1) 
5
1 1 acceptor
1 2 acceptor
1 7 hydrophobe
3 9 14 15 hydrophobe
6 6 8 10 11 12 13 rings

>  <PUBCHEM_HEAVY_ATOM_COUNT>  (1) 
19

>  <PUBCHEM_ATOM_DEF_STEREO_COUNT>  (1) 
0

>  <PUBCHEM_ATOM_UDEF_STEREO_COUNT>  (1) 
1

>  <PUBCHEM_BOND_DEF_STEREO_COUNT>  (1) 
0

>  <PUBCHEM_BOND_UDEF_STEREO_COUNT>  (1) 
0

>  <PUBCHEM_ISOTOPIC_ATOM_COUNT>  (1) 
0

>  <PUBCHEM_COMPONENT_COUNT>  (1) 
1

>  <PUBCHEM_CACTVS_TAUTO_COUNT>  (1) 
1

>  <PUBCHEM_CONFORMER_ID>  (1) 
00005BEE00000001

>  <PUBCHEM_MMFF94_ENERGY>  (1) 
44.1528

>  <PUBCHEM_FEATURE_SELFOVERLAP>  (1) 
25.41

>  <PUBCHEM_SHAPE_FINGERPRINT>  (1) 
10493431 412 18411139109023157531
10616163 171 18339358672855721655
11036077 3 18340212895360123011
11089746 13 17275094025075431417
11405975 8 18340483473419235136
12166972 35 12822996643731579411
12236239 1 17704070676964057328
12549972 3 17702372030584040019
12553582 1 18261940903844744405
12596602 18 14405180707489232614
12616971 3 17530960298433803662
12633257 1 18409440388694869097
12670546 177 18334867155856838148
12788726 201 17631456661449391441
13675066 3 17632573885923137388
14617045 38 18334582312760967215
15196674 1 18338514265537280354
15238133 3 18059585667346755377
15537594 2 17894347769920983522
18186145 218 18335973246852557308
19141452 34 18409729577596386759
20645477 70 16271932558792500860
20681677 155 18342454837580188555
220451 1 18186517705589770698
221490 88 18193839473398394098
23035841 295 18410293580344400626
23402539 116 17022613178805496460
23402655 69 18409450314812767496
23559900 14 18272647983190178696
23622692 88 18409733950316517741
26918003 58 18060415829022098560
351380 180 9295286136093418783
4214541 1 18412543245147753257
5104073 3 18338227288712908016
53777708 50 18118688965635786981
58051976 100 18410009970172929534
59755656 215 18271534087521808150
59755656 520 18342735201030658271
633830 44 17386285510173179288
7495541 125 16081381773134024964

>  <PUBCHEM_SHAPE_MULTIPOLES>  (1) 
379.27
12.46
2.48
1.1
3.71
2.52
0.2
-1.84
-2.07
-3.32
0
0.19
-0.23
-0.37

>  <PUBCHEM_SHAPE_SELFOVERLAP>  (1) 
748.566

>  <PUBCHEM_SHAPE_VOLUME>  (1) 
227.1

>  <PUBCHEM_COORDINATE_TYPE>  (1) 
2
5
10

$$$$
