23532
     RDKit          3D

 12 12  0  0  0  0  0  0  0  0999 V2000
   -2.7136    2.0499    0.0001 Cl  0  0  0  0  0  0  0  0  0  0  0  0
    1.4186   -2.1318    0.0001 O   0  0  0  0  0  0  0  0  0  0  0  0
    2.4687    1.8091   -0.0004 O   0  0  0  0  0  0  0  0  0  0  0  0
    3.0745   -0.3009    0.0002 O   0  0  0  0  0  0  0  0  0  0  0  0
    2.1893    0.5870   -0.0001 N   0  0  0  0  0  0  0  0  0  0  0  0
   -1.8687   -0.5406   -0.0002 C   0  0  0  0  0  0  0  0  0  0  0  0
    0.8224    0.1946    0.0003 C   0  0  0  0  0  0  0  0  0  0  0  0
   -0.8775   -1.5220   -0.0003 C   0  0  0  0  0  0  0  0  0  0  0  0
    0.4680   -1.1545   -0.0001 C   0  0  0  0  0  0  0  0  0  0  0  0
   -1.5143    0.8085   -0.0001 C   0  0  0  0  0  0  0  0  0  0  0  0
   -0.1688    1.1761    0.0004 C   0  0  0  0  0  0  0  0  0  0  0  0
   -3.2986   -0.9755    0.0002 C   0  0  0  0  0  0  0  0  0  0  0  0
  1 10  1  0
  2  9  1  0
  3  5  1  0
  4  5  2  0
  5  7  1  0
  6  8  2  0
  6 10  1  0
  6 12  1  0
  7  9  2  0
  7 11  1  0
  8  9  1  0
 10 11  2  0
M  CHG  2   3  -1   5   1
M  END
>  <PUBCHEM_COMPOUND_CID>  (1) 
23532

>  <PUBCHEM_CONFORMER_RMSD>  (1) 
0.4

>  <PUBCHEM_CONFORMER_DIVERSEORDER>  (1) 
1

>  <PUBCHEM_MMFF94_PARTIAL_CHARGES>  (1) 
15
1 -0.18
10 0.18
11 -0.15
12 0.14
13 0.15
14 0.15
18 0.45
2 -0.53
3 -0.52
4 -0.52
5 0.91
6 -0.14
7 0.13
8 -0.15
9 0.08

>  <PUBCHEM_EFFECTIVE_ROTOR_COUNT>  (1) 
1

>  <PUBCHEM_PHARMACOPHORE_FEATURES>  (1) 
5
1 2 donor
1 3 acceptor
1 3 anion
1 4 acceptor
6 6 7 8 9 10 11 rings

>  <PUBCHEM_HEAVY_ATOM_COUNT>  (1) 
12

>  <PUBCHEM_ATOM_DEF_STEREO_COUNT>  (1) 
0

>  <PUBCHEM_ATOM_UDEF_STEREO_COUNT>  (1) 
0

>  <PUBCHEM_BOND_DEF_STEREO_COUNT>  (1) 
0

>  <PUBCHEM_BOND_UDEF_STEREO_COUNT>  (1) 
0

>  <PUBCHEM_ISOTOPIC_ATOM_COUNT>  (1) 
0

>  <PUBCHEM_COMPONENT_COUNT>  (1) 
1

>  <PUBCHEM_CACTVS_TAUTO_COUNT>  (1) 
9

>  <PUBCHEM_CONFORMER_ID>  (1) 
00005BEC00000001

>  <PUBCHEM_MMFF94_ENERGY>  (1) 
37.5741

>  <PUBCHEM_FEATURE_SELFOVERLAP>  (1) 
25.453

>  <PUBCHEM_SHAPE_FINGERPRINT>  (1) 
11206711 2 18410574002695460557
12897270 3 18410291440907270927
12932764 1 17561074834817004751
13380535 21 18266753393483428285
13380535 76 18338511920437637999
14325111 11 18410855473076659520
14648413 74 18194686964645122499
14897335 6 18267296548075195557
16945 1 18338516442832654215
193761 8 18266740186464332775
19973954 147 18338798909994114125
21040471 1 18410573967976915168
21501502 16 18337669703025867547
2334 1 18410575050619923107
23402655 69 18196917904615333709
23463225 33 18334853905302506634
23552423 10 18335140843266829015
23559900 14 18272095960076403844
2748010 2 18338801100496123967
5084963 1 18202004364635419448
528886 8 18339073770568338217
53812653 166 18342734070510228096

>  <PUBCHEM_SHAPE_MULTIPOLES>  (1) 
226.24
4.4
2.17
0.59
0.15
0.15
0
0.78
0
-0.32
0
-0.09
0.01
0

>  <PUBCHEM_SHAPE_SELFOVERLAP>  (1) 
468.361

>  <PUBCHEM_SHAPE_VOLUME>  (1) 
130.8

>  <PUBCHEM_COORDINATE_TYPE>  (1) 
2
5
10

$$$$
