23549
     RDKit          3D

 13 13  0  0  0  0  0  0  0  0999 V2000
   -1.7382    1.6173    0.0061 O   0  0  0  0  0  0  0  0  0  0  0  0
   -0.9184   -0.5600    0.0019 N   0  0  0  0  0  0  0  0  0  0  0  0
   -3.2382   -0.1459   -0.0025 N   0  0  0  0  0  0  0  0  0  0  0  0
    0.4813   -0.3386    0.0012 C   0  0  0  0  0  0  0  0  0  0  0  0
    3.2153    0.0930   -0.0002 C   0  0  0  0  0  0  0  0  0  0  0  0
    1.3371   -1.4264    0.0094 C   0  0  0  0  0  0  0  0  0  0  0  0
    0.9601    0.9601   -0.0078 C   0  0  0  0  0  0  0  0  0  0  0  0
    2.7149   -1.2088    0.0089 C   0  0  0  0  0  0  0  0  0  0  0  0
    2.3380    1.1775   -0.0085 C   0  0  0  0  0  0  0  0  0  0  0  0
   -1.9335    0.4000   -0.0055 C   0  0  0  0  0  0  0  0  0  0  0  0
    4.6884    0.3258   -0.0015 C   0  0  0  0  0  0  0  0  0  0  0  0
   -4.4294    0.6935    0.0145 C   0  0  0  0  0  0  0  0  0  0  0  0
   -3.4774   -1.5875   -0.0161 C   0  0  0  0  0  0  0  0  0  0  0  0
  1 10  2  0
  2  4  1  0
  2 10  1  0
  3 10  1  0
  3 12  1  0
  3 13  1  0
  4  6  2  0
  4  7  1  0
  5  8  2  0
  5  9  1  0
  5 11  1  0
  6  8  1  0
  7  9  2  0
M  END
>  <PUBCHEM_COMPOUND_CID>  (1) 
23549

>  <PUBCHEM_CONFORMER_RMSD>  (1) 
0.6

>  <PUBCHEM_CONFORMER_DIVERSEORDER>  (1) 
1
4
5
3
2

>  <PUBCHEM_MMFF94_PARTIAL_CHARGES>  (1) 
18
1 -0.57
10 0.69
11 0.14
12 0.3
13 0.3
14 0.37
15 0.15
16 0.15
17 0.15
18 0.15
2 -0.55
3 -0.66
4 0.12
5 -0.14
6 -0.15
7 -0.15
8 -0.15
9 -0.15

>  <PUBCHEM_EFFECTIVE_ROTOR_COUNT>  (1) 
3

>  <PUBCHEM_PHARMACOPHORE_FEATURES>  (1) 
3
1 1 acceptor
1 2 donor
6 4 5 6 7 8 9 rings

>  <PUBCHEM_HEAVY_ATOM_COUNT>  (1) 
13

>  <PUBCHEM_ATOM_DEF_STEREO_COUNT>  (1) 
0

>  <PUBCHEM_ATOM_UDEF_STEREO_COUNT>  (1) 
0

>  <PUBCHEM_BOND_DEF_STEREO_COUNT>  (1) 
0

>  <PUBCHEM_BOND_UDEF_STEREO_COUNT>  (1) 
0

>  <PUBCHEM_ISOTOPIC_ATOM_COUNT>  (1) 
0

>  <PUBCHEM_COMPONENT_COUNT>  (1) 
1

>  <PUBCHEM_CACTVS_TAUTO_COUNT>  (1) 
2

>  <PUBCHEM_CONFORMER_ID>  (1) 
00005BFD00000001

>  <PUBCHEM_MMFF94_ENERGY>  (1) 
39.5939

>  <PUBCHEM_FEATURE_SELFOVERLAP>  (1) 
15.223

>  <PUBCHEM_SHAPE_FINGERPRINT>  (1) 
10608611 8 18409443678766814669
11132069 177 18410853274063661273
11401426 45 18410851070698050008
11471102 20 18411416189752341724
11806522 49 18409166644833520534
12032990 46 18341337725529848206
12932764 1 17131537380294912566
13380535 76 18408605876855711730
14144814 61 18411982433787449530
14325111 11 18410575093268844261
14445660 50 18272098179920355009
15196674 1 18410855485950765062
15442244 35 18123188991881801282
15775835 57 18343303673351913071
18186145 218 18113897143627436719
18522853 276 18341892978601376712
19050596 39 18409166618979255819
200 152 18202558493174362127
20201158 50 18408605850821819603
20279233 1 18041005033312374723
20645477 70 18341047398362251383
21267235 1 18338806701197067151
22485316 2 18408601448575254091
23402539 116 18261385671947443654
23402655 69 18411978031657110725
23559900 14 18411980222401888698
3312278 4 18412546513744531147
4990 188 18059586780190859590
5104073 3 18410573989462432067
58051976 378 18343301452885638710
8809292 202 18260271888280824611

>  <PUBCHEM_SHAPE_MULTIPOLES>  (1) 
251.7
8.29
1.52
0.6
2.2
0.18
0
-0.32
0.01
0.35
0
-0.04
0.01
-0.02

>  <PUBCHEM_SHAPE_SELFOVERLAP>  (1) 
511.852

>  <PUBCHEM_SHAPE_VOLUME>  (1) 
147.2

>  <PUBCHEM_COORDINATE_TYPE>  (1) 
2
5
10

$$$$
