23544
     RDKit          3D

 10  9  0  0  1  0  0  0  0  0999 V2000
    1.1210    0.4910    0.0376 C   0  0  0  0  0  0  0  0  0  0  0  0
   -0.4090    0.7250   -0.1542 C   0  0  0  0  0  0  0  0  0  0  0  0
   -1.3766   -0.2111    0.6114 C   0  0  0  0  0  0  0  0  0  0  0  0
    1.6030   -0.8831   -0.5084 C   0  0  0  0  0  0  0  0  0  0  0  0
    1.5194    0.5743    1.5230 C   0  0  0  0  0  0  0  0  0  0  0  0
    1.8618    1.6295   -0.7010 C   0  0  0  0  0  0  0  0  0  0  0  0
   -2.8444    0.2447    0.4364 C   0  0  0  0  0  0  0  0  0  0  0  0
   -1.2200   -1.6763    0.1856 C   0  0  0  0  0  0  0  0  0  0  0  0
    3.1025   -1.1434   -0.4323 C   0  0  0  0  0  0  0  0  0  0  0  0
   -3.3578    0.2493   -0.9980 C   0  0  0  0  0  0  0  0  0  0  0  0
  1  2  1  0
  1  4  1  0
  1  5  1  0
  1  6  1  0
  2  3  1  0
  3  7  1  0
  3  8  1  0
  4  9  1  0
  7 10  1  0
M  END
>  <PUBCHEM_COMPOUND_CID>  (1) 
23544

>  <PUBCHEM_CONFORMER_RMSD>  (1) 
0.6

>  <PUBCHEM_CONFORMER_DIVERSEORDER>  (1) 
7
11
8
4
5
6
10
9
2
12
3
1

>  <PUBCHEM_MMFF94_PARTIAL_CHARGES>  (1) 
0

>  <PUBCHEM_EFFECTIVE_ROTOR_COUNT>  (1) 
4

>  <PUBCHEM_PHARMACOPHORE_FEATURES>  (1) 
5
1 10 hydrophobe
1 8 hydrophobe
1 9 hydrophobe
3 1 5 6 hydrophobe
5 1 2 3 4 7 hydrophobe

>  <PUBCHEM_HEAVY_ATOM_COUNT>  (1) 
10

>  <PUBCHEM_ATOM_DEF_STEREO_COUNT>  (1) 
0

>  <PUBCHEM_ATOM_UDEF_STEREO_COUNT>  (1) 
1

>  <PUBCHEM_BOND_DEF_STEREO_COUNT>  (1) 
0

>  <PUBCHEM_BOND_UDEF_STEREO_COUNT>  (1) 
0

>  <PUBCHEM_ISOTOPIC_ATOM_COUNT>  (1) 
0

>  <PUBCHEM_COMPONENT_COUNT>  (1) 
1

>  <PUBCHEM_CACTVS_TAUTO_COUNT>  (1) 
1

>  <PUBCHEM_CONFORMER_ID>  (1) 
00005BF800000007

>  <PUBCHEM_MMFF94_ENERGY>  (1) 
26.0352

>  <PUBCHEM_FEATURE_SELFOVERLAP>  (1) 
25.758

>  <PUBCHEM_SHAPE_FINGERPRINT>  (1) 
12423570 1 12746520142289098064
12932741 1 17822299010725605257
12932764 1 17022902367601506009
14128692 85 18270136664056127118
14325111 11 18408888460176174981
14648413 74 18261683686938280044
15279308 100 18113335297554249373
16945 1 18338814316005063510
18186145 218 18335410241370399573
20201158 50 18342462491264962742
20653085 51 18259704489199999365
20711985 344 17898003530029907996
20715346 28 17968384540960762209
21040471 1 18341332304938131899
23552423 10 18262241130611876050
2748010 2 18266187299334637806
3248919 1 18411416250034955673
5084963 1 18343582906614268481
8030462 33 17845942917333017097

>  <PUBCHEM_SHAPE_MULTIPOLES>  (1) 
205.8
4.83
1.5
1.1
2
0.19
0.23
0.37
-1.06
-0.69
-0.19
-0.1
-0.19
0.26

>  <PUBCHEM_SHAPE_SELFOVERLAP>  (1) 
371.269

>  <PUBCHEM_SHAPE_VOLUME>  (1) 
136.2

>  <PUBCHEM_COORDINATE_TYPE>  (1) 
2
5
10

$$$$
