23543
     RDKit          3D

 16 17  0  0  0  0  0  0  0  0999 V2000
    1.7171   -0.7390   -0.2140 O   0  0  0  0  0  0  0  0  0  0  0  0
   -2.9220    0.5280    0.3983 O   0  0  0  0  0  0  0  0  0  0  0  0
    2.3617    1.8959   -0.4319 O   0  0  0  0  0  0  0  0  0  0  0  0
   -2.1114   -1.9921    0.3984 O   0  0  0  0  0  0  0  0  0  0  0  0
   -0.6233   -0.1649    0.0978 C   0  0  0  0  0  0  0  0  0  0  0  0
    0.7097    0.1869   -0.1113 C   0  0  0  0  0  0  0  0  0  0  0  0
   -1.6078    0.8213    0.1947 C   0  0  0  0  0  0  0  0  0  0  0  0
    1.0659    1.5310   -0.2250 C   0  0  0  0  0  0  0  0  0  0  0  0
   -0.9712   -1.5897    0.2142 C   0  0  0  0  0  0  0  0  0  0  0  0
    1.3916   -2.0815   -0.1040 C   0  0  0  0  0  0  0  0  0  0  0  0
   -1.2483    2.1648    0.0809 C   0  0  0  0  0  0  0  0  0  0  0  0
    0.0854    2.5190   -0.1284 C   0  0  0  0  0  0  0  0  0  0  0  0
    0.1488   -2.5435    0.0973 C   0  0  0  0  0  0  0  0  0  0  0  0
    2.5707   -2.9935   -0.2318 C   0  0  0  0  0  0  0  0  0  0  0  0
   -3.7296    0.3304   -0.7607 C   0  0  0  0  0  0  0  0  0  0  0  0
    3.1628    2.1270    0.7254 C   0  0  0  0  0  0  0  0  0  0  0  0
  1  6  1  0
  1 10  1  0
  2  7  1  0
  2 15  1  0
  3  8  1  0
  3 16  1  0
  4  9  2  0
  5  6  2  0
  5  7  1  0
  5  9  1  0
  6  8  1  0
  7 11  2  0
  8 12  2  0
  9 13  1  0
 10 13  2  0
 10 14  1  0
 11 12  1  0
M  END
>  <PUBCHEM_COMPOUND_CID>  (1) 
23543

>  <PUBCHEM_CONFORMER_RMSD>  (1) 
0.6

>  <PUBCHEM_CONFORMER_DIVERSEORDER>  (1) 
2
1

>  <PUBCHEM_MMFF94_PARTIAL_CHARGES>  (1) 
19
1 -0.16
10 -0.06
11 -0.15
12 -0.15
13 -0.14
14 0.14
15 0.28
16 0.28
17 0.15
18 0.15
19 0.15
2 -0.36
3 -0.36
4 -0.57
5 0.09
6 0.08
7 0.08
8 0.08
9 0.47

>  <PUBCHEM_EFFECTIVE_ROTOR_COUNT>  (1) 
2

>  <PUBCHEM_PHARMACOPHORE_FEATURES>  (1) 
6
1 1 acceptor
1 2 acceptor
1 3 acceptor
1 4 acceptor
6 1 5 6 9 10 13 rings
6 5 6 7 8 11 12 rings

>  <PUBCHEM_HEAVY_ATOM_COUNT>  (1) 
16

>  <PUBCHEM_ATOM_DEF_STEREO_COUNT>  (1) 
0

>  <PUBCHEM_ATOM_UDEF_STEREO_COUNT>  (1) 
0

>  <PUBCHEM_BOND_DEF_STEREO_COUNT>  (1) 
0

>  <PUBCHEM_BOND_UDEF_STEREO_COUNT>  (1) 
0

>  <PUBCHEM_ISOTOPIC_ATOM_COUNT>  (1) 
0

>  <PUBCHEM_COMPONENT_COUNT>  (1) 
1

>  <PUBCHEM_CACTVS_TAUTO_COUNT>  (1) 
3

>  <PUBCHEM_CONFORMER_ID>  (1) 
00005BF700000002

>  <PUBCHEM_MMFF94_ENERGY>  (1) 
64.0034

>  <PUBCHEM_FEATURE_SELFOVERLAP>  (1) 
30.491

>  <PUBCHEM_SHAPE_FINGERPRINT>  (1) 
108231 29 17907299853840447082
10967382 1 18410295817299564909
11206711 2 17903081027682355927
11680986 33 18409172112195143051
12423570 1 12532584891817362083
13027679 85 17690564078739413220
13140716 1 18409735075043951098
13380535 76 18336821013040138929
14790565 3 17615998911433420465
16945 1 18337962177155269499
193761 8 18410298007770068994
19591789 44 18050018971212735702
19868273 325 17689437083452022567
20510252 161 17911528910399823256
20588541 1 18336545022879531829
20645476 183 17608099981028247772
20645477 70 18336537241015508981
20739085 24 16891482390104878947
21029758 11 18123746452882783982
221490 88 18408045109225757031
2334 1 18266184022358818062
23419403 2 17462814650497580478
23559900 14 18126299764593331004
2748010 2 18265910209524668270
352729 6 18121503715366034977
43471831 8 18265050409054715362
58807428 26 18339077215438032752
7364860 26 18341892952942024258

>  <PUBCHEM_SHAPE_MULTIPOLES>  (1) 
305.8
4.32
3.74
0.71
1.42
0.35
0
-0.62
0.33
-2.61
-0.2
0.05
0.06
0.35

>  <PUBCHEM_SHAPE_SELFOVERLAP>  (1) 
658.461

>  <PUBCHEM_SHAPE_VOLUME>  (1) 
169

>  <PUBCHEM_COORDINATE_TYPE>  (1) 
2
5
10

$$$$
