23542
     RDKit          3D

 10 10  0  0  0  0  0  0  0  0999 V2000
    0.4218    2.6199   -0.2986 Br  0  0  0  0  0  0  0  0  0  0  0  0
    2.6300   -1.2329   -1.0008 Cl  0  0  0  0  0  0  0  0  0  0  0  0
    2.2614    0.3724    1.0445 O   0  0  0  0  0  0  0  0  0  0  0  0
    0.2274   -0.2348    0.0797 C   0  0  0  0  0  0  0  0  0  0  0  0
   -0.4725    0.9562   -0.1135 C   0  0  0  0  0  0  0  0  0  0  0  0
   -0.4662   -1.4379    0.2104 C   0  0  0  0  0  0  0  0  0  0  0  0
   -1.8658    0.9442   -0.1757 C   0  0  0  0  0  0  0  0  0  0  0  0
   -1.8596   -1.4501    0.1480 C   0  0  0  0  0  0  0  0  0  0  0  0
   -2.5594   -0.2590   -0.0450 C   0  0  0  0  0  0  0  0  0  0  0  0
    1.6830   -0.2779    0.1511 C   0  0  0  0  0  0  0  0  0  0  0  0
  1  5  1  0
  2 10  1  0
  3 10  2  0
  4  5  2  0
  4  6  1  0
  4 10  1  0
  5  7  1  0
  6  8  2  0
  7  9  2  0
  8  9  1  0
M  END
>  <PUBCHEM_COMPOUND_CID>  (1) 
23542

>  <PUBCHEM_CONFORMER_RMSD>  (1) 
0.4

>  <PUBCHEM_CONFORMER_DIVERSEORDER>  (1) 
1
3
2
4

>  <PUBCHEM_MMFF94_PARTIAL_CHARGES>  (1) 
14
1 -0.11
10 0.69
11 0.15
12 0.15
13 0.15
14 0.15
2 -0.21
3 -0.57
4 0.09
5 0.11
6 -0.15
7 -0.15
8 -0.15
9 -0.15

>  <PUBCHEM_EFFECTIVE_ROTOR_COUNT>  (1) 
1

>  <PUBCHEM_PHARMACOPHORE_FEATURES>  (1) 
2
1 1 hydrophobe
6 4 5 6 7 8 9 rings

>  <PUBCHEM_HEAVY_ATOM_COUNT>  (1) 
10

>  <PUBCHEM_ATOM_DEF_STEREO_COUNT>  (1) 
0

>  <PUBCHEM_ATOM_UDEF_STEREO_COUNT>  (1) 
0

>  <PUBCHEM_BOND_DEF_STEREO_COUNT>  (1) 
0

>  <PUBCHEM_BOND_UDEF_STEREO_COUNT>  (1) 
0

>  <PUBCHEM_ISOTOPIC_ATOM_COUNT>  (1) 
0

>  <PUBCHEM_COMPONENT_COUNT>  (1) 
1

>  <PUBCHEM_CACTVS_TAUTO_COUNT>  (1) 
1

>  <PUBCHEM_CONFORMER_ID>  (1) 
00005BF600000001

>  <PUBCHEM_MMFF94_ENERGY>  (1) 
28.8917

>  <PUBCHEM_FEATURE_SELFOVERLAP>  (1) 
10.148

>  <PUBCHEM_SHAPE_FINGERPRINT>  (1) 
10857977 72 18337658810751317937
12524768 44 18341887511044425874
12716758 59 17764594214038811270
16945 1 18334855030636750595
17990270 104 18266742561301562230
20645477 70 17977378666742093639
20711985 344 18194685860796238384
21040471 1 18047184151010395593
22802520 49 18127418856116328046
23552423 10 18189898801827673655
23559900 14 18053946148550548574
241688 4 18339085865154052352
2748010 2 18411132515652109725
29004967 10 18060698420231461114
5084963 1 18271529706058794043
7364860 26 18125448758780939596

>  <PUBCHEM_SHAPE_MULTIPOLES>  (1) 
207.74
3.43
2.29
0.83
0.63
1.51
0
-1.3
-0.31
0.11
-0.26
0.44
-0.03
0.4

>  <PUBCHEM_SHAPE_SELFOVERLAP>  (1) 
409.48

>  <PUBCHEM_SHAPE_VOLUME>  (1) 
128.4

>  <PUBCHEM_COORDINATE_TYPE>  (1) 
2
5
10

$$$$
