23554
     RDKit          3D

 26 27  0  0  1  0  0  0  0  0999 V2000
    4.0332    0.9192    2.2963 Cl  0  0  0  0  0  0  0  0  0  0  0  0
   -3.5254   -1.7743    0.7723 Cl  0  0  0  0  0  0  0  0  0  0  0  0
    3.3071   -0.9746   -0.7224 N   0  0  0  0  0  0  0  0  0  0  0  0
   -3.7080    1.4947   -0.8108 N   0  0  0  0  0  0  0  0  0  0  0  0
    0.4654   -0.0460   -0.5733 C   0  0  0  0  0  0  0  0  0  0  0  0
   -0.7935    0.5806   -1.1821 C   0  0  0  0  0  0  0  0  0  0  0  0
    0.9457   -1.2434   -1.4018 C   0  0  0  0  0  0  0  0  0  0  0  0
   -1.2899    1.7565   -0.3319 C   0  0  0  0  0  0  0  0  0  0  0  0
    2.1946   -1.9209   -0.8135 C   0  0  0  0  0  0  0  0  0  0  0  0
   -2.5837    2.4315   -0.8226 C   0  0  0  0  0  0  0  0  0  0  0  0
    2.6093   -3.1188   -1.6675 C   0  0  0  0  0  0  0  0  0  0  0  0
   -2.4378    3.0606   -2.2070 C   0  0  0  0  0  0  0  0  0  0  0  0
    4.2692   -1.4068    0.2790 C   0  0  0  0  0  0  0  0  0  0  0  0
   -4.1520    1.2414    0.5505 C   0  0  0  0  0  0  0  0  0  0  0  0
    5.4257   -0.4498    0.3953 C   0  0  0  0  0  0  0  0  0  0  0  0
   -5.3088    0.2787    0.5933 C   0  0  0  0  0  0  0  0  0  0  0  0
    5.3988    0.6265    1.2823 C   0  0  0  0  0  0  0  0  0  0  0  0
   -5.1117   -1.0987    0.6928 C   0  0  0  0  0  0  0  0  0  0  0  0
    6.5438   -0.6608   -0.4115 C   0  0  0  0  0  0  0  0  0  0  0  0
   -6.6030    0.7952    0.5309 C   0  0  0  0  0  0  0  0  0  0  0  0
    6.4901    1.4917    1.3622 C   0  0  0  0  0  0  0  0  0  0  0  0
   -6.2089   -1.9593    0.7301 C   0  0  0  0  0  0  0  0  0  0  0  0
    7.6350    0.2045   -0.3315 C   0  0  0  0  0  0  0  0  0  0  0  0
   -7.7001   -0.0655    0.5681 C   0  0  0  0  0  0  0  0  0  0  0  0
    7.6081    1.2807    0.5553 C   0  0  0  0  0  0  0  0  0  0  0  0
   -7.5031   -1.4427    0.6676 C   0  0  0  0  0  0  0  0  0  0  0  0
  1 17  1  0
  2 18  1  0
  3  9  1  0
  3 13  1  0
  4 10  1  0
  4 14  1  0
  5  6  1  0
  5  7  1  0
  6  8  1  0
  7  9  1  0
  8 10  1  0
  9 11  1  0
 10 12  1  0
 13 15  1  0
 14 16  1  0
 15 17  2  0
 15 19  1  0
 16 18  2  0
 16 20  1  0
 17 21  1  0
 18 22  1  0
 19 23  2  0
 20 24  2  0
 21 25  2  0
 22 26  2  0
 23 25  1  0
 24 26  1  0
M  END
>  <PUBCHEM_COMPOUND_CID>  (1) 
23554

>  <PUBCHEM_CONFORMER_RMSD>  (1) 
1.4

>  <PUBCHEM_CONFORMER_DIVERSEORDER>  (1) 
1
43
8
5
3
82
53
121
37
26
135
124
71
75
119
29
85
59
15
69
81
39
16
87
62
97
25
132
78
126
32
24
112
2
34
51
72
7
65
110
60
105
106
123
21
27
115
128
31
133
14
61
47
88
79
33
92
67
42
127
35
94
4
107
125
118
104
93
48
49
101
91
86
54
28
23
55
58
108
122
70
103
129
95
116
117
113
50
68
131
22
109
100
46
30
111
74
99
83
73
10
41
114
80
66
36
89
77
90
17
130
18
64
76
98
40
38
20
19
96
45
12
56
134
52
102
120
84
13
63
44
6
57
9
11

>  <PUBCHEM_MMFF94_PARTIAL_CHARGES>  (1) 
30
1 -0.18
10 0.27
13 0.41
14 0.41
15 -0.14
16 -0.14
17 0.18
18 0.18
19 -0.15
2 -0.18
20 -0.15
21 -0.15
22 -0.15
23 -0.15
24 -0.15
25 -0.15
26 -0.15
3 -0.9
37 0.36
38 0.36
4 -0.9
49 0.15
50 0.15
51 0.15
52 0.15
53 0.15
54 0.15
55 0.15
56 0.15
9 0.27

>  <PUBCHEM_EFFECTIVE_ROTOR_COUNT>  (1) 
11

>  <PUBCHEM_PHARMACOPHORE_FEATURES>  (1) 
7
1 3 cation
1 3 donor
1 4 cation
1 4 donor
4 5 6 7 8 hydrophobe
6 15 17 19 21 23 25 rings
6 16 18 20 22 24 26 rings

>  <PUBCHEM_HEAVY_ATOM_COUNT>  (1) 
26

>  <PUBCHEM_ATOM_DEF_STEREO_COUNT>  (1) 
0

>  <PUBCHEM_ATOM_UDEF_STEREO_COUNT>  (1) 
2

>  <PUBCHEM_BOND_DEF_STEREO_COUNT>  (1) 
0

>  <PUBCHEM_BOND_UDEF_STEREO_COUNT>  (1) 
0

>  <PUBCHEM_ISOTOPIC_ATOM_COUNT>  (1) 
0

>  <PUBCHEM_COMPONENT_COUNT>  (1) 
1

>  <PUBCHEM_CACTVS_TAUTO_COUNT>  (1) 
1

>  <PUBCHEM_CONFORMER_ID>  (1) 
00005C0200000001

>  <PUBCHEM_MMFF94_ENERGY>  (1) 
42.4951

>  <PUBCHEM_FEATURE_SELFOVERLAP>  (1) 
35.52

>  <PUBCHEM_SHAPE_FINGERPRINT>  (1) 
10 15 18342457049404157574
11408170 108 14779535739767251320
11443803 9 17678201445881956014
12730499 353 18202282468954632214
12838862 33 18114455692262434791
12857493 111 18261107483165209813
14251752 14 11527947850881515508
14394314 77 18113901516716722337
14840074 17 15123509194941168067
15052358 14 9655575218632128525
15183329 4 9727638301780646612
15419008 47 18412823590285172480
1768 85 17845641664306592288
18608769 82 18412823608060282650
19303781 99 17898855914685011163
19315958 150 17987808415220779991
20621476 91 18187081750200637765
21223535 225 12180109944656587231
21458453 9 18337957895157349880
21623969 137 18202283593634384552
22224240 67 18342739632593460350
3009799 131 11386365941727596196
3383291 50 18041292053904976243
38570 142 13758076290103652743
397830 11 18410573942286181204
4280585 95 17894916252546662477
4325135 7 18186523206915297440
437795 51 17918274264260065442
444735 79 18408322202602219774
474113 269 9943265722993506004
5104073 3 18195807375356855650
531348 171 8214128656405862417
563151 40 14117792527264100789
57035037 87 17703515394772257393
59682541 35 18411702114204407907
9689198 14 16630530639191144664

>  <PUBCHEM_SHAPE_MULTIPOLES>  (1) 
528.85
24.93
2.82
1.67
2.74
0
0.12
0.53
-10.09
-1.3
1.41
0.95
-0.48
3.71

>  <PUBCHEM_SHAPE_SELFOVERLAP>  (1) 
1057.38

>  <PUBCHEM_SHAPE_VOLUME>  (1) 
310.4

>  <PUBCHEM_COORDINATE_TYPE>  (1) 
2
5
10

$$$$
