23566
     RDKit          3D

 24 26  0  0  1  0  0  0  0  0999 V2000
   -0.5358   -0.6710   -1.0725 S   0  0  0  0  0  0  0  0  0  0  0  0
   -2.1263    2.1835    1.8697 O   0  0  0  0  0  0  0  0  0  0  0  0
   -4.8949    0.6158   -0.0408 O   0  0  0  0  0  0  0  0  0  0  0  0
   -4.9581   -1.5195    0.7546 O   0  0  0  0  0  0  0  0  0  0  0  0
    1.8544    2.0102   -1.6275 O   0  0  0  0  0  0  0  0  0  0  0  0
   -2.3670    0.8729   -0.0783 N   0  0  0  0  0  0  0  0  0  0  0  0
    0.6545    1.7779    0.3430 N   0  0  0  0  0  0  0  0  0  0  0  0
    4.1924    2.1810   -0.1658 N   0  0  0  0  0  0  0  0  0  0  0  0
   -1.3183    0.9820   -1.0972 C   0  0  0  0  0  0  0  0  0  0  0  0
   -2.1534   -1.4688   -0.6118 C   0  0  0  0  0  0  0  0  0  0  0  0
   -2.8177   -0.4446    0.3353 C   0  0  0  0  0  0  0  0  0  0  0  0
   -0.6708    2.0648   -0.2234 C   0  0  0  0  0  0  0  0  0  0  0  0
   -1.8370    1.8170    0.7533 C   0  0  0  0  0  0  0  0  0  0  0  0
   -2.9384   -1.7238   -1.9068 C   0  0  0  0  0  0  0  0  0  0  0  0
   -1.8711   -2.7939    0.0993 C   0  0  0  0  0  0  0  0  0  0  0  0
   -4.3282   -0.5395    0.3851 C   0  0  0  0  0  0  0  0  0  0  0  0
    1.8245    1.7750   -0.4206 C   0  0  0  0  0  0  0  0  0  0  0  0
    3.0663    1.4272    0.3930 C   0  0  0  0  0  0  0  0  0  0  0  0
    3.3134   -0.0671    0.3890 C   0  0  0  0  0  0  0  0  0  0  0  0
    2.7416   -0.8478    1.3777 C   0  0  0  0  0  0  0  0  0  0  0  0
    4.1050   -0.6172   -0.6036 C   0  0  0  0  0  0  0  0  0  0  0  0
    2.9689   -2.2240    1.3740 C   0  0  0  0  0  0  0  0  0  0  0  0
    4.3321   -1.9935   -0.6073 C   0  0  0  0  0  0  0  0  0  0  0  0
    3.7640   -2.7968    0.3816 C   0  0  0  0  0  0  0  0  0  0  0  0
  1  9  1  0
  1 10  1  0
  2 13  2  0
  3 16  1  0
  4 16  2  0
  5 17  2  0
  6  9  1  0
  6 11  1  0
  6 13  1  0
  7 12  1  0
  7 17  1  0
  8 18  1  0
  9 12  1  0
 10 11  1  0
 10 14  1  0
 10 15  1  0
 11 16  1  0
 12 13  1  0
 17 18  1  0
 18 19  1  0
 19 20  2  0
 19 21  1  0
 20 22  1  0
 21 23  2  0
 22 24  2  0
 23 24  1  0
M  END
>  <PUBCHEM_COMPOUND_CID>  (1) 
23566

>  <PUBCHEM_CONFORMER_RMSD>  (1) 
0.8

>  <PUBCHEM_CONFORMER_DIVERSEORDER>  (1) 
2
4
19
39
27
30
18
17
38
22
11
23
36
35
5
7
37
1
16
34
6
24
25
40
9
33
13
12
29
14
10
20
15
21
31
3
26
28
8
32

>  <PUBCHEM_MMFF94_PARTIAL_CHARGES>  (1) 
31
1 -0.45
10 0.23
11 0.36
12 0.28
13 0.58
16 0.66
17 0.57
18 0.47
19 -0.14
2 -0.57
20 -0.15
21 -0.15
22 -0.15
23 -0.15
24 -0.15
3 -0.65
34 0.37
36 0.5
37 0.36
38 0.36
39 0.15
4 -0.57
40 0.15
41 0.15
42 0.15
43 0.15
5 -0.57
6 -0.59
7 -0.65
8 -0.99
9 0.44

>  <PUBCHEM_EFFECTIVE_ROTOR_COUNT>  (1) 
5.8

>  <PUBCHEM_PHARMACOPHORE_FEATURES>  (1) 
11
1 2 acceptor
1 3 acceptor
1 4 acceptor
1 5 acceptor
1 7 donor
1 8 cation
1 8 donor
3 10 14 15 hydrophobe
3 3 4 16 anion
6 19 20 21 22 23 24 rings
7 1 6 9 10 11 12 13 rings

>  <PUBCHEM_HEAVY_ATOM_COUNT>  (1) 
24

>  <PUBCHEM_ATOM_DEF_STEREO_COUNT>  (1) 
3

>  <PUBCHEM_ATOM_UDEF_STEREO_COUNT>  (1) 
1

>  <PUBCHEM_BOND_DEF_STEREO_COUNT>  (1) 
0

>  <PUBCHEM_BOND_UDEF_STEREO_COUNT>  (1) 
0

>  <PUBCHEM_ISOTOPIC_ATOM_COUNT>  (1) 
0

>  <PUBCHEM_COMPONENT_COUNT>  (1) 
1

>  <PUBCHEM_CACTVS_TAUTO_COUNT>  (1) 
2

>  <PUBCHEM_CONFORMER_ID>  (1) 
00005C0E00000002

>  <PUBCHEM_MMFF94_ENERGY>  (1) 
64.7805

>  <PUBCHEM_FEATURE_SELFOVERLAP>  (1) 
55.876

>  <PUBCHEM_SHAPE_FINGERPRINT>  (1) 
10616163 171 18267585899810950118
12403259 327 16487246681874479322
12422481 6 18055938523458782353
12553582 1 18335973212508714742
12596599 1 18338794495015822970
12633257 1 18201445709644175394
12788726 201 17846232063179744089
13224815 77 18259979366890607106
13533116 47 18343301478876975433
15537594 2 18269283511166932774
17349148 13 18059850645596142789
17492 89 18409449180509372091
17818456 19 18200880569653383769
1813 80 17240482537267539149
19930381 70 18261952947118328259
20291156 8 18337105679478224334
20442098 301 18343293769595184934
21033648 29 14189306945345927739
21634736 98 18408604726210275074
21703447 108 16909728738507524447
23559900 14 18410009927112291724
312423 11 18411428280238241224
339767 52 18335972078610806026
463206 1 18265051512629305850
7097593 13 18412545422665049996

>  <PUBCHEM_SHAPE_MULTIPOLES>  (1) 
459.34
9.44
3.28
1.38
0.43
0.3
-0.08
3.81
0.95
-1.41
0.18
0.23
0.07
-1.14

>  <PUBCHEM_SHAPE_SELFOVERLAP>  (1) 
965.963

>  <PUBCHEM_SHAPE_VOLUME>  (1) 
261.2

>  <PUBCHEM_COORDINATE_TYPE>  (1) 
2
5
10

$$$$
