23562
     RDKit          3D

  9  9  0  0  0  0  0  0  0  0999 V2000
    2.3476    0.0002    0.0002 N   0  0  0  0  0  0  0  0  0  0  0  0
   -1.8217    0.0002    0.0001 C   0  0  0  0  0  0  0  0  0  0  0  0
   -1.1241    1.2080    0.0001 C   0  0  0  0  0  0  0  0  0  0  0  0
   -1.1246   -1.2080    0.0001 C   0  0  0  0  0  0  0  0  0  0  0  0
    0.2708    1.2076    0.0000 C   0  0  0  0  0  0  0  0  0  0  0  0
    0.2703   -1.2085    0.0001 C   0  0  0  0  0  0  0  0  0  0  0  0
    0.9681   -0.0005    0.0001 C   0  0  0  0  0  0  0  0  0  0  0  0
   -3.3130    0.0006   -0.0004 C   0  0  0  0  0  0  0  0  0  0  0  0
    3.5266    0.0005   -0.0004 C   0  0  0  0  0  0  0  0  0  0  0  0
  1  7  1  0
  1  9  3  0
  2  3  2  0
  2  4  1  0
  2  8  1  0
  3  5  1  0
  4  6  2  0
  5  7  2  0
  6  7  1  0
M  CHG  2   1   1   9  -1
M  END
>  <PUBCHEM_COMPOUND_CID>  (1) 
23562

>  <PUBCHEM_CONFORMER_RMSD>  (1) 
0.4

>  <PUBCHEM_CONFORMER_DIVERSEORDER>  (1) 
1

>  <PUBCHEM_MMFF94_PARTIAL_CHARGES>  (1) 
13
1 0.23
10 0.15
11 0.15
12 0.15
13 0.15
2 -0.14
3 -0.15
4 -0.15
5 -0.15
6 -0.15
7 0.14
8 0.14
9 -0.37

>  <PUBCHEM_EFFECTIVE_ROTOR_COUNT>  (1) 
0

>  <PUBCHEM_PHARMACOPHORE_FEATURES>  (1) 
1
6 2 3 4 5 6 7 rings

>  <PUBCHEM_HEAVY_ATOM_COUNT>  (1) 
9

>  <PUBCHEM_ATOM_DEF_STEREO_COUNT>  (1) 
0

>  <PUBCHEM_ATOM_UDEF_STEREO_COUNT>  (1) 
0

>  <PUBCHEM_BOND_DEF_STEREO_COUNT>  (1) 
0

>  <PUBCHEM_BOND_UDEF_STEREO_COUNT>  (1) 
0

>  <PUBCHEM_ISOTOPIC_ATOM_COUNT>  (1) 
0

>  <PUBCHEM_COMPONENT_COUNT>  (1) 
1

>  <PUBCHEM_CACTVS_TAUTO_COUNT>  (1) 
1

>  <PUBCHEM_CONFORMER_ID>  (1) 
00005C0A00000001

>  <PUBCHEM_MMFF94_ENERGY>  (1) 
18.0485

>  <PUBCHEM_FEATURE_SELFOVERLAP>  (1) 
5.074

>  <PUBCHEM_SHAPE_FINGERPRINT>  (1) 
10857977 72 18411129268625250608
11062470 55 15195569004575558755
12032990 46 18411145744167543379
14325111 11 18410855421732016416
15310529 11 16515672330143384016
16714656 1 18410855460149260830
16945 1 18410575084773848711
193761 8 17690280404680963461
20871998 184 18129949012539252431
21040471 1 18338797814598105573
21293036 1 18409162225338384493
23235685 24 18410851053671083653
23402655 69 18123169244545808637
23552423 10 18044092590764585724
2748010 2 18122624126298976391
29004967 10 18260836985828267305
369184 2 18411696586813534850
5084963 1 18342457045098445969

>  <PUBCHEM_SHAPE_MULTIPOLES>  (1) 
180.23
4.54
1.27
0.61
1.77
0
0
0
0
-0.26
0
-0.02
0
0

>  <PUBCHEM_SHAPE_SELFOVERLAP>  (1) 
370.394

>  <PUBCHEM_SHAPE_VOLUME>  (1) 
104.9

>  <PUBCHEM_COORDINATE_TYPE>  (1) 
2
5
10

$$$$
