23563
     RDKit          3D

 15 16  0  0  0  0  0  0  0  0999 V2000
   -0.0001   -0.8179   -0.5803 N   0  0  0  0  0  0  0  0  0  0  0  0
    1.2056   -0.2348    0.0064 C   0  0  0  0  0  0  0  0  0  0  0  0
   -1.1968   -0.2179    0.0076 C   0  0  0  0  0  0  0  0  0  0  0  0
    2.4707   -0.8488   -0.5949 C   0  0  0  0  0  0  0  0  0  0  0  0
    1.1915    1.2905   -0.1794 C   0  0  0  0  0  0  0  0  0  0  0  0
   -1.2208    1.2985   -0.2430 C   0  0  0  0  0  0  0  0  0  0  0  0
   -2.4583   -0.8844   -0.5413 C   0  0  0  0  0  0  0  0  0  0  0  0
    3.7371   -0.3114    0.0802 C   0  0  0  0  0  0  0  0  0  0  0  0
    2.5798    1.9301   -0.0699 C   0  0  0  0  0  0  0  0  0  0  0  0
   -2.6212    1.9109   -0.1359 C   0  0  0  0  0  0  0  0  0  0  0  0
   -3.7232   -0.3469    0.1366 C   0  0  0  0  0  0  0  0  0  0  0  0
    3.5574    1.0680    0.7164 C   0  0  0  0  0  0  0  0  0  0  0  0
   -3.5637    1.0635    0.7071 C   0  0  0  0  0  0  0  0  0  0  0  0
   -0.0109   -2.2685   -0.3918 C   0  0  0  0  0  0  0  0  0  0  0  0
    0.0530   -2.6311    1.0821 C   0  0  0  0  0  0  0  0  0  0  0  0
  1  2  1  0
  1  3  1  0
  1 14  1  0
  2  4  1  0
  2  5  1  0
  3  6  1  0
  3  7  1  0
  4  8  1  0
  5  9  1  0
  6 10  1  0
  7 11  1  0
  8 12  1  0
  9 12  1  0
 10 13  1  0
 11 13  1  0
 14 15  1  0
M  END
>  <PUBCHEM_COMPOUND_CID>  (1) 
23563

>  <PUBCHEM_CONFORMER_RMSD>  (1) 
0.6

>  <PUBCHEM_CONFORMER_DIVERSEORDER>  (1) 
1
2
3

>  <PUBCHEM_MMFF94_PARTIAL_CHARGES>  (1) 
4
1 -0.81
14 0.27
2 0.27
3 0.27

>  <PUBCHEM_EFFECTIVE_ROTOR_COUNT>  (1) 
5.4

>  <PUBCHEM_PHARMACOPHORE_FEATURES>  (1) 
3
1 1 cation
6 2 4 5 8 9 12 rings
6 3 6 7 10 11 13 rings

>  <PUBCHEM_HEAVY_ATOM_COUNT>  (1) 
15

>  <PUBCHEM_ATOM_DEF_STEREO_COUNT>  (1) 
0

>  <PUBCHEM_ATOM_UDEF_STEREO_COUNT>  (1) 
0

>  <PUBCHEM_BOND_DEF_STEREO_COUNT>  (1) 
0

>  <PUBCHEM_BOND_UDEF_STEREO_COUNT>  (1) 
0

>  <PUBCHEM_ISOTOPIC_ATOM_COUNT>  (1) 
0

>  <PUBCHEM_COMPONENT_COUNT>  (1) 
1

>  <PUBCHEM_CACTVS_TAUTO_COUNT>  (1) 
1

>  <PUBCHEM_CONFORMER_ID>  (1) 
00005C0B00000001

>  <PUBCHEM_MMFF94_ENERGY>  (1) 
69.0633

>  <PUBCHEM_FEATURE_SELFOVERLAP>  (1) 
15.223

>  <PUBCHEM_SHAPE_FINGERPRINT>  (1) 
10608611 8 18341330011362720949
10922049 32 18410860953476041314
10922523 26 18201722833971840212
10967382 1 18411419501013851892
10980938 120 18338238141689004299
11132069 177 18412260644847653329
12251169 10 18408602582383427172
12346645 44 18413107234478121883
13140716 1 18410855421484454169
13380535 76 18340767151872358958
14144814 61 18410853282780410688
14325111 11 18413388743524608932
14614273 12 18260538992666013717
15196674 1 18412826888777305068
15309172 13 18334293171309525945
15442244 35 18411696582761264566
15502708 68 18337390431103622683
15536298 74 18201721743160975052
15775835 57 18344149202183793537
16945 1 18410572877129335063
17802600 8 18412820291881670189
18186145 218 18272656714241343868
200 152 18130775768770175957
20510252 161 18343865545395566209
20645476 183 17897182401181276780
21501502 16 18195242441571525262
21524375 3 18413387656961076127
21731228 192 18410859871133506051
22854114 111 18337956696861480281
2334 1 18411136969475556741
23402539 116 18268977846960752439
23419403 2 13755793862752163478
23463225 33 18408885126870363076
23559900 14 18201722830531415118
25 1 18341335491914596342
2748010 2 18410293583964303940
2871803 45 18410004447419908975
305870 269 18262512594046011659
43471831 8 18261669290197659939
5104073 3 18413671305111988219
53812653 166 18340486660295329504
58807428 26 18408879616363856874
6333272 397 18408604798512491123
633830 44 18342460313616031317
69090 78 18202278138730688623
7364860 26 18124877850321755559
81228 2 17975686513270555675
9709674 26 18270402823074205598

>  <PUBCHEM_SHAPE_MULTIPOLES>  (1) 
303.71
6.35
2.47
0.84
0.02
0.8
0.09
-2.39
0.78
-0.01
0.29
-0.01
0.2
0.03

>  <PUBCHEM_SHAPE_SELFOVERLAP>  (1) 
606.818

>  <PUBCHEM_SHAPE_VOLUME>  (1) 
177.3

>  <PUBCHEM_COORDINATE_TYPE>  (1) 
2
5
10

$$$$
