23568
     RDKit          3D

 29 32  0  0  1  0  0  0  0  0999 V2000
   -3.1980   -2.5724    0.5563 S   0  0  0  0  0  0  0  0  0  0  0  0
   -1.8717    0.6163   -2.1771 O   0  0  0  0  0  0  0  0  0  0  0  0
   -6.1372    1.0898   -0.1076 O   0  0  0  0  0  0  0  0  0  0  0  0
   -4.1716    2.0508    0.5318 O   0  0  0  0  0  0  0  0  0  0  0  0
    1.2048   -0.2165   -2.1648 O   0  0  0  0  0  0  0  0  0  0  0  0
    1.6440    2.5001   -0.3433 O   0  0  0  0  0  0  0  0  0  0  0  0
   -2.7656   -0.1048   -0.1152 N   0  0  0  0  0  0  0  0  0  0  0  0
    0.3280   -0.6042   -0.0543 N   0  0  0  0  0  0  0  0  0  0  0  0
   -2.0404   -1.1558    0.6045 C   0  0  0  0  0  0  0  0  0  0  0  0
   -4.6647   -1.4243    0.5771 C   0  0  0  0  0  0  0  0  0  0  0  0
   -4.2005   -0.2242   -0.2761 C   0  0  0  0  0  0  0  0  0  0  0  0
   -0.9795   -1.0922   -0.5030 C   0  0  0  0  0  0  0  0  0  0  0  0
   -1.8655   -0.0007   -1.1361 C   0  0  0  0  0  0  0  0  0  0  0  0
   -5.8603   -2.1332   -0.0617 C   0  0  0  0  0  0  0  0  0  0  0  0
   -4.9761   -1.0827    2.0406 C   0  0  0  0  0  0  0  0  0  0  0  0
   -4.7974    1.0952    0.0978 C   0  0  0  0  0  0  0  0  0  0  0  0
    1.3259   -0.2008   -0.9425 C   0  0  0  0  0  0  0  0  0  0  0  0
    2.5910    0.2912   -0.3406 C   0  0  0  0  0  0  0  0  0  0  0  0
    3.6370   -0.5863   -0.0643 C   0  0  0  0  0  0  0  0  0  0  0  0
    2.6729    1.6475   -0.0720 C   0  0  0  0  0  0  0  0  0  0  0  0
    4.8210   -0.0658    0.5104 C   0  0  0  0  0  0  0  0  0  0  0  0
    3.8373    2.1593    0.4929 C   0  0  0  0  0  0  0  0  0  0  0  0
    3.5531   -1.9614   -0.3371 C   0  0  0  0  0  0  0  0  0  0  0  0
    4.9051    1.3095    0.7829 C   0  0  0  0  0  0  0  0  0  0  0  0
    5.8860   -0.9357    0.7956 C   0  0  0  0  0  0  0  0  0  0  0  0
    4.6210   -2.8111   -0.0469 C   0  0  0  0  0  0  0  0  0  0  0  0
    5.7852   -2.2993    0.5185 C   0  0  0  0  0  0  0  0  0  0  0  0
    1.0882    3.2143    0.7583 C   0  0  0  0  0  0  0  0  0  0  0  0
   -0.3720    3.4975    0.4760 C   0  0  0  0  0  0  0  0  0  0  0  0
  1  9  1  0
  1 10  1  0
  2 13  2  0
  3 16  1  0
  4 16  2  0
  5 17  2  0
  6 20  1  0
  6 28  1  0
  7  9  1  0
  7 11  1  0
  7 13  1  0
  8 12  1  0
  8 17  1  0
  9 12  1  0
 10 11  1  0
 10 14  1  0
 10 15  1  0
 11 16  1  0
 12 13  1  0
 17 18  1  0
 18 19  1  0
 18 20  2  0
 19 21  2  0
 19 23  1  0
 20 22  1  0
 21 24  1  0
 21 25  1  0
 22 24  2  0
 23 26  2  0
 25 27  2  0
 26 27  1  0
 28 29  1  0
M  END
>  <PUBCHEM_COMPOUND_CID>  (1) 
23568

>  <PUBCHEM_CONFORMER_RMSD>  (1) 
0.8

>  <PUBCHEM_CONFORMER_DIVERSEORDER>  (1) 
2
67
112
119
132
148
155
154
49
30
58
93
143
114
151
47
99
56
130
86
63
146
57
15
79
71
140
34
134
120
122
61
81
62
76
54
33
78
138
20
100
145
53
121
131
110
91
51
69
80
40
150
125
11
89
124
21
123
29
31
36
141
13
24
144
117
149
115
75
109
65
111
82
28
113
3
70
104
152
1
101
12
136
94
55
6
118
88
98
83
22
139
142
72
135
59
60
108
116
127
128
39
26
42
92
35
52
90
97
50
41
103
48
4
153
14
105
73
10
87
16
96
7
46
37
137
107
27
106
85
44
19
18
68
102
64
5
95
8
23
84
129
77
74
133
25
38
45
17
66
126
147
32
9
43

>  <PUBCHEM_MMFF94_PARTIAL_CHARGES>  (1) 
32
1 -0.45
10 0.23
11 0.36
12 0.28
13 0.58
16 0.66
17 0.54
18 0.09
2 -0.57
20 0.08
22 -0.15
23 -0.15
24 -0.15
25 -0.15
26 -0.15
27 -0.15
28 0.28
3 -0.65
39 0.37
4 -0.57
40 0.5
41 0.15
42 0.15
43 0.15
44 0.15
45 0.15
46 0.15
5 -0.57
6 -0.36
7 -0.59
8 -0.65
9 0.44

>  <PUBCHEM_EFFECTIVE_ROTOR_COUNT>  (1) 
6.8

>  <PUBCHEM_PHARMACOPHORE_FEATURES>  (1) 
12
1 2 acceptor
1 3 acceptor
1 4 acceptor
1 5 acceptor
1 6 acceptor
1 8 donor
3 10 14 15 hydrophobe
3 3 4 16 anion
4 7 9 12 13 rings
6 18 19 20 21 22 24 rings
6 19 21 23 25 26 27 rings
7 1 7 9 10 11 12 13 rings

>  <PUBCHEM_HEAVY_ATOM_COUNT>  (1) 
29

>  <PUBCHEM_ATOM_DEF_STEREO_COUNT>  (1) 
0

>  <PUBCHEM_ATOM_UDEF_STEREO_COUNT>  (1) 
3

>  <PUBCHEM_BOND_DEF_STEREO_COUNT>  (1) 
0

>  <PUBCHEM_BOND_UDEF_STEREO_COUNT>  (1) 
0

>  <PUBCHEM_ISOTOPIC_ATOM_COUNT>  (1) 
0

>  <PUBCHEM_COMPONENT_COUNT>  (1) 
1

>  <PUBCHEM_CACTVS_TAUTO_COUNT>  (1) 
2

>  <PUBCHEM_CONFORMER_ID>  (1) 
00005C1000000002

>  <PUBCHEM_MMFF94_ENERGY>  (1) 
95.6262

>  <PUBCHEM_FEATURE_SELFOVERLAP>  (1) 
64.713

>  <PUBCHEM_SHAPE_FINGERPRINT>  (1) 
10319926 262 18260553316276476467
10688039 33 18333730225825859980
11135609 12 18334288752490292248
11370993 144 18408319982151574495
11405975 8 18409731772166770258
11456790 92 18341905069846971449
11545043 162 17894632573903387427
11578080 2 14636309068814011300
12107183 9 18195531393722392755
12166972 35 18187369856348604965
12422481 6 17632298904641767732
13533116 47 18336829813734518779
13583140 156 18196938979175835803
13782708 43 17967811660716437867
14341114 176 18409733984053458472
14866123 147 17545883729086958346
15238133 3 18337682918403231236
15348495 7 18408888459786123115
15361156 5 17895201025409663382
15475509 84 17917147196465542976
15575132 122 10015576203744966825
17844677 252 18412269436571887875
21033648 29 17822835512255061957
21065198 57 18337391646611210819
21279426 13 18335415725632179853
21859007 373 17823970148589342133
23522609 53 17751388130328212828
23559900 14 18337946905016462651
24893992 56 18335703798829196241
3004659 81 18186240619943126682
3383291 50 17458633380140973635
3680242 22 18340782489279811609
392239 28 18340499928108748849
4015057 19 18267575978911295371
4073 2 18113903814075956602
4144715 1 18410302423291959259
5104073 3 18411985762460983507
79837 15 17481149995013467640
9995097 60 18410291389315338030

>  <PUBCHEM_SHAPE_MULTIPOLES>  (1) 
561.35
14.79
3.46
1.25
3.78
1.68
0.27
-6.56
-4.15
-1.5
-0.8
0.67
-0.05
0.68

>  <PUBCHEM_SHAPE_SELFOVERLAP>  (1) 
1207.891

>  <PUBCHEM_SHAPE_VOLUME>  (1) 
313.1

>  <PUBCHEM_COORDINATE_TYPE>  (1) 
2
5
10

$$$$
