23577
     RDKit          3D

  6  5  0  0  0  0  0  0  0  0999 V2000
    1.0055    0.0002    0.0001 N   0  0  0  0  0  0  0  0  0  0  0  0
   -0.4291    0.0000    0.0000 C   0  0  0  0  0  0  0  0  0  0  0  0
   -0.9146    0.2090   -1.4345 C   0  0  0  0  0  0  0  0  0  0  0  0
   -0.9147   -1.3469    0.5362 C   0  0  0  0  0  0  0  0  0  0  0  0
   -0.9149    1.1378    0.8982 C   0  0  0  0  0  0  0  0  0  0  0  0
    2.1677    0.0000    0.0000 C   0  0  0  0  0  0  0  0  0  0  0  0
  1  2  1  0
  1  6  3  0
  2  3  1  0
  2  4  1  0
  2  5  1  0
M  CHG  2   1   1   6  -1
M  END
>  <PUBCHEM_COMPOUND_CID>  (1) 
23577

>  <PUBCHEM_CONFORMER_RMSD>  (1) 
0.4

>  <PUBCHEM_CONFORMER_DIVERSEORDER>  (1) 
1

>  <PUBCHEM_MMFF94_PARTIAL_CHARGES>  (1) 
3
1 0.1
2 0.27
6 -0.37

>  <PUBCHEM_EFFECTIVE_ROTOR_COUNT>  (1) 
0

>  <PUBCHEM_PHARMACOPHORE_FEATURES>  (1) 
1
4 2 3 4 5 hydrophobe

>  <PUBCHEM_HEAVY_ATOM_COUNT>  (1) 
6

>  <PUBCHEM_ATOM_DEF_STEREO_COUNT>  (1) 
0

>  <PUBCHEM_ATOM_UDEF_STEREO_COUNT>  (1) 
0

>  <PUBCHEM_BOND_DEF_STEREO_COUNT>  (1) 
0

>  <PUBCHEM_BOND_UDEF_STEREO_COUNT>  (1) 
0

>  <PUBCHEM_ISOTOPIC_ATOM_COUNT>  (1) 
0

>  <PUBCHEM_COMPONENT_COUNT>  (1) 
1

>  <PUBCHEM_CACTVS_TAUTO_COUNT>  (1) 
1

>  <PUBCHEM_CONFORMER_ID>  (1) 
00005C1900000001

>  <PUBCHEM_MMFF94_ENERGY>  (1) 
6.9675

>  <PUBCHEM_FEATURE_SELFOVERLAP>  (1) 
5.074

>  <PUBCHEM_SHAPE_FINGERPRINT>  (1) 
20096714 4 17700703852200793888
24536 1 18413105065640846192
29004967 10 17343478270949826983
5943 1 12655698355725592967

>  <PUBCHEM_SHAPE_MULTIPOLES>  (1) 
118.5
2.02
1.15
1.15
1.63
0.29
0.27
0
0
-0.49
-0.27
-0.49
-0.29
0

>  <PUBCHEM_SHAPE_SELFOVERLAP>  (1) 
211.748

>  <PUBCHEM_SHAPE_VOLUME>  (1) 
78.4

>  <PUBCHEM_COORDINATE_TYPE>  (1) 
2
5
10

$$$$
