23579
     RDKit          3D

 15 15  0  0  0  0  0  0  0  0999 V2000
   -0.1257    0.3508    0.9274 O   0  0  0  0  0  0  0  0  0  0  0  0
    0.7256   -2.1934    1.0097 O   0  0  0  0  0  0  0  0  0  0  0  0
   -3.6739    0.5379   -0.2941 C   0  0  0  0  0  0  0  0  0  0  0  0
   -2.4365   -0.0099    0.4135 C   0  0  0  0  0  0  0  0  0  0  0  0
   -4.8858   -0.3674   -0.0756 C   0  0  0  0  0  0  0  0  0  0  0  0
   -1.2350    0.9076    0.2360 C   0  0  0  0  0  0  0  0  0  0  0  0
   -6.1280    0.1921   -0.7505 C   0  0  0  0  0  0  0  0  0  0  0  0
    1.1173    0.6031    0.4077 C   0  0  0  0  0  0  0  0  0  0  0  0
    1.9399   -0.4415   -0.0002 C   0  0  0  0  0  0  0  0  0  0  0  0
    1.5414    1.9231    0.2944 C   0  0  0  0  0  0  0  0  0  0  0  0
    3.2011   -0.1633   -0.5272 C   0  0  0  0  0  0  0  0  0  0  0  0
    1.5092   -1.8281    0.1122 C   0  0  0  0  0  0  0  0  0  0  0  0
    2.8026    2.2013   -0.2327 C   0  0  0  0  0  0  0  0  0  0  0  0
    3.6323    1.1582   -0.6434 C   0  0  0  0  0  0  0  0  0  0  0  0
    2.0155   -2.8707   -0.8771 C   0  0  0  0  0  0  0  0  0  0  0  0
  1  6  1  0
  1  8  1  0
  2 12  2  0
  3  4  1  0
  3  5  1  0
  4  6  1  0
  5  7  1  0
  8  9  2  0
  8 10  1  0
  9 11  1  0
  9 12  1  0
 10 13  2  0
 11 14  2  0
 12 15  1  0
 13 14  1  0
M  END
>  <PUBCHEM_COMPOUND_CID>  (1) 
23579

>  <PUBCHEM_CONFORMER_RMSD>  (1) 
0.8

>  <PUBCHEM_CONFORMER_DIVERSEORDER>  (1) 
2
94
93
55
67
66
86
58
80
16
46
87
22
69
32
79
63
1
57
82
90
81
3
33
68
64
34
65
45
59
28
35
50
17
89
71
47
30
76
44
9
83
61
73
27
10
95
26
74
43
88
75
70
37
15
11
36
49
12
41
31
29
60
53
20
8
42
48
4
25
84
18
6
14
85
13
91
78
52
51
5
92
19
23
72
62
77
21
56
38
24
7
54
40
39

>  <PUBCHEM_MMFF94_PARTIAL_CHARGES>  (1) 
15
1 -0.36
10 -0.15
11 -0.15
12 0.42
13 -0.15
14 -0.15
15 0.06
2 -0.57
27 0.15
28 0.15
29 0.15
30 0.15
6 0.28
8 0.08
9 0.09

>  <PUBCHEM_EFFECTIVE_ROTOR_COUNT>  (1) 
6

>  <PUBCHEM_PHARMACOPHORE_FEATURES>  (1) 
4
1 1 acceptor
1 2 acceptor
1 7 hydrophobe
6 8 9 10 11 13 14 rings

>  <PUBCHEM_HEAVY_ATOM_COUNT>  (1) 
15

>  <PUBCHEM_ATOM_DEF_STEREO_COUNT>  (1) 
0

>  <PUBCHEM_ATOM_UDEF_STEREO_COUNT>  (1) 
0

>  <PUBCHEM_BOND_DEF_STEREO_COUNT>  (1) 
0

>  <PUBCHEM_BOND_UDEF_STEREO_COUNT>  (1) 
0

>  <PUBCHEM_ISOTOPIC_ATOM_COUNT>  (1) 
0

>  <PUBCHEM_COMPONENT_COUNT>  (1) 
1

>  <PUBCHEM_CACTVS_TAUTO_COUNT>  (1) 
2

>  <PUBCHEM_CONFORMER_ID>  (1) 
00005C1B00000002

>  <PUBCHEM_MMFF94_ENERGY>  (1) 
36.7911

>  <PUBCHEM_FEATURE_SELFOVERLAP>  (1) 
20.305

>  <PUBCHEM_SHAPE_FINGERPRINT>  (1) 
10693767 8 18058737901338223750
11471102 20 18410576197070437465
12616999 72 18410292518975691141
12730499 353 18260837020520393187
13083527 12 18117546333137765586
13380535 76 18336551607206496810
13836976 161 18410294739399943564
13862211 1 18339084762260482902
14251717 144 18411139125559324923
14576447 43 18273216369791253943
15375358 24 17894631478750030489
15477762 27 18341613663934966142
16945 1 18268452195167980624
17834072 33 18341609352557804535
20388580 30 18129384795580969743
20645477 70 18411416185900655015
21054139 6 18128805520709973239
21521239 73 17988653990922293870
22289505 5 18261100843065960053
23402655 69 18411982477222607477
23557571 272 16298659495924776375
23590187 302 18273494589510152641
23596394 208 18260820459115885357
23598291 2 18056490460688963705
25 1 18409172133891330584
257057 1 17613713718069368650
2748010 2 18051438424155897856
2871803 45 18410858750273843573
3060560 45 18410576223183119932
33824 294 18409448098140079482
4072396 5 18261942008231582176
42 15 11095891475481781045
522135 26 18341890784305455541
5281201 14 18261109613473301677
543358 83 18267307530411988657
58051976 378 18409450293084671489
6025842 7 18412260640689732471
7164475 11 18199751336836251201
7364860 26 18341613685594367026
81539 233 18333732446159759038
8272917 22 18341055133914245319
960060 61 18272078397549039541

>  <PUBCHEM_SHAPE_MULTIPOLES>  (1) 
296.95
9.46
2.47
0.88
19.46
1.4
0
-1.46
-3.1
-3.2
-0.19
-0.03
0.16
0.07

>  <PUBCHEM_SHAPE_SELFOVERLAP>  (1) 
595.978

>  <PUBCHEM_SHAPE_VOLUME>  (1) 
175.9

>  <PUBCHEM_COORDINATE_TYPE>  (1) 
2
5
10

$$$$
