23583
     RDKit          3D

 14 14  0  0  0  0  0  0  0  0999 V2000
    2.7803    0.0834    0.4655 O   0  0  0  0  0  0  0  0  0  0  0  0
   -3.3648    1.1159   -0.1111 O   0  0  0  0  0  0  0  0  0  0  0  0
   -3.4735   -1.1545   -0.1304 O   0  0  0  0  0  0  0  0  0  0  0  0
    0.6851    1.2163    0.2714 C   0  0  0  0  0  0  0  0  0  0  0  0
    0.7730   -1.1982    0.2722 C   0  0  0  0  0  0  0  0  0  0  0  0
    1.4230    0.0343    0.3378 C   0  0  0  0  0  0  0  0  0  0  0  0
    1.3632    2.5449    0.3413 C   0  0  0  0  0  0  0  0  0  0  0  0
    1.5453   -2.4744    0.3397 C   0  0  0  0  0  0  0  0  0  0  0  0
   -0.7025    1.1658    0.1395 C   0  0  0  0  0  0  0  0  0  0  0  0
   -0.6147   -1.2486    0.1402 C   0  0  0  0  0  0  0  0  0  0  0  0
   -1.3524   -0.0666    0.0738 C   0  0  0  0  0  0  0  0  0  0  0  0
    1.7592    3.0658   -1.0370 C   0  0  0  0  0  0  0  0  0  0  0  0
    1.9781   -2.9627   -1.0396 C   0  0  0  0  0  0  0  0  0  0  0  0
   -2.7992   -0.1214   -0.0631 C   0  0  0  0  0  0  0  0  0  0  0  0
  1  6  1  0
  2 14  1  0
  3 14  2  0
  4  6  2  0
  4  7  1  0
  4  9  1  0
  5  6  1  0
  5  8  1  0
  5 10  2  0
  7 12  1  0
  8 13  1  0
  9 11  2  0
 10 11  1  0
 11 14  1  0
M  END
>  <PUBCHEM_COMPOUND_CID>  (1) 
23583

>  <PUBCHEM_CONFORMER_RMSD>  (1) 
0.6

>  <PUBCHEM_CONFORMER_DIVERSEORDER>  (1) 
1
6
5
7
2
4
3

>  <PUBCHEM_MMFF94_PARTIAL_CHARGES>  (1) 
16
1 -0.53
10 -0.15
11 0.09
14 0.63
19 0.15
2 -0.65
20 0.15
27 0.45
28 0.5
3 -0.57
4 -0.14
5 -0.14
6 0.08
7 0.14
8 0.14
9 -0.15

>  <PUBCHEM_EFFECTIVE_ROTOR_COUNT>  (1) 
3

>  <PUBCHEM_PHARMACOPHORE_FEATURES>  (1) 
7
1 1 donor
1 12 hydrophobe
1 13 hydrophobe
1 2 acceptor
1 3 acceptor
3 2 3 14 anion
6 4 5 6 9 10 11 rings

>  <PUBCHEM_HEAVY_ATOM_COUNT>  (1) 
14

>  <PUBCHEM_ATOM_DEF_STEREO_COUNT>  (1) 
0

>  <PUBCHEM_ATOM_UDEF_STEREO_COUNT>  (1) 
0

>  <PUBCHEM_BOND_DEF_STEREO_COUNT>  (1) 
0

>  <PUBCHEM_BOND_UDEF_STEREO_COUNT>  (1) 
0

>  <PUBCHEM_ISOTOPIC_ATOM_COUNT>  (1) 
0

>  <PUBCHEM_COMPONENT_COUNT>  (1) 
1

>  <PUBCHEM_CACTVS_TAUTO_COUNT>  (1) 
3

>  <PUBCHEM_CONFORMER_ID>  (1) 
00005C1F00000001

>  <PUBCHEM_MMFF94_ENERGY>  (1) 
34.5696

>  <PUBCHEM_FEATURE_SELFOVERLAP>  (1) 
35.578

>  <PUBCHEM_SHAPE_FINGERPRINT>  (1) 
1 1 18339357590602343740
10967382 1 18411133683893770275
12138202 97 17546745097504616316
13140716 1 18194399115709961795
13380535 76 18119804969811041272
13380536 305 18337114591382571140
14648413 74 18335420166775972593
15490181 7 17545323441796748872
15490181 8 18336827623026657539
161256 15 18125717881779743162
16945 1 18410577300987555579
17990270 104 18410289186176307499
193761 8 17834672695715454616
20511035 2 17972878339467410696
20645476 183 17684091657613783852
20645477 70 18337663226711362863
20711985 344 17544477448923855466
20871998 22 18126283038993180098
21524375 3 17901659689665243032
2334 1 17906168812556849907
23419403 2 16906881719817732304
23530152 11 17979635959021761238
23552423 10 18411136952690917057
23557571 272 17266659457221513326
241688 4 17978230456864982850
2748010 2 18122896534531146872
3071541 158 18334856069697251932
3071541 250 18267601112352893486
458136 41 18121806046956746657
53812653 217 17258503769185942062
7364860 26 18413670222790732745
81228 2 17618790154263669986

>  <PUBCHEM_SHAPE_MULTIPOLES>  (1) 
270.51
4.17
3.52
0.81
4.15
0.45
0.14
-0.53
0.39
-3.27
0.98
-0.38
0.01
0.03

>  <PUBCHEM_SHAPE_SELFOVERLAP>  (1) 
560.981

>  <PUBCHEM_SHAPE_VOLUME>  (1) 
155.7

>  <PUBCHEM_COORDINATE_TYPE>  (1) 
2
5
10

$$$$
