23586
     RDKit          3D

 19 19  0  0  0  0  0  0  0  0999 V2000
   -1.9153    0.0593   -0.2801 O   0  0  0  0  0  0  0  0  0  0  0  0
   -0.0615   -3.5637    0.0019 O   0  0  0  0  0  0  0  0  0  0  0  0
   -1.6085   -2.4828   -1.2650 O   0  0  0  0  0  0  0  0  0  0  0  0
    0.1217    1.1334    0.3517 C   0  0  0  0  0  0  0  0  0  0  0  0
    2.1596   -0.1559    0.4978 C   0  0  0  0  0  0  0  0  0  0  0  0
   -0.5771    2.4469    0.4820 C   0  0  0  0  0  0  0  0  0  0  0  0
    3.6223   -0.2310    0.7790 C   0  0  0  0  0  0  0  0  0  0  0  0
    1.4899    1.0622    0.6131 C   0  0  0  0  0  0  0  0  0  0  0  0
   -0.5771   -0.0135   -0.0250 C   0  0  0  0  0  0  0  0  0  0  0  0
   -0.5728    3.2383   -0.8324 C   0  0  0  0  0  0  0  0  0  0  0  0
    0.0926   -1.2316   -0.1403 C   0  0  0  0  0  0  0  0  0  0  0  0
    1.4609   -1.3029    0.1211 C   0  0  0  0  0  0  0  0  0  0  0  0
    4.4693    0.0211   -0.4763 C   0  0  0  0  0  0  0  0  0  0  0  0
   -1.3149    4.5589   -0.7013 C   0  0  0  0  0  0  0  0  0  0  0  0
    5.9590   -0.0229   -0.1754 C   0  0  0  0  0  0  0  0  0  0  0  0
   -0.6162   -2.4424   -0.5326 C   0  0  0  0  0  0  0  0  0  0  0  0
   -2.7954   -0.1573    0.8199 C   0  0  0  0  0  0  0  0  0  0  0  0
   -4.2016    0.0200    0.3513 C   0  0  0  0  0  0  0  0  0  0  0  0
   -5.1351   -0.9361    0.4108 C   0  0  0  0  0  0  0  0  0  0  0  0
  1  9  1  0
  1 17  1  0
  2 16  1  0
  3 16  2  0
  4  6  1  0
  4  8  2  0
  4  9  1  0
  5  7  1  0
  5  8  1  0
  5 12  2  0
  6 10  1  0
  7 13  1  0
  9 11  2  0
 10 14  1  0
 11 12  1  0
 11 16  1  0
 13 15  1  0
 17 18  1  0
 18 19  2  0
M  END
>  <PUBCHEM_COMPOUND_CID>  (1) 
23586

>  <PUBCHEM_CONFORMER_RMSD>  (1) 
0.8

>  <PUBCHEM_CONFORMER_DIVERSEORDER>  (1) 
1
54
38
59
31
29
69
48
16
44
25
34
40
57
36
5
51
53
55
62
66
28
60
47
10
68
65
61
39
30
46
45
9
56
35
6
52
22
64
27
43
23
14
58
32
63
13
19
11
20
24
8
37
49
7
50
41
15
4
26
2
67
21
18
33
42
17
12
3

>  <PUBCHEM_MMFF94_PARTIAL_CHARGES>  (1) 
21
1 -0.36
11 0.09
12 -0.15
16 0.63
17 0.42
18 -0.29
19 -0.3
2 -0.65
24 0.15
27 0.15
3 -0.57
38 0.15
39 0.5
4 -0.14
40 0.15
41 0.15
5 -0.14
6 0.14
7 0.14
8 -0.15
9 0.08

>  <PUBCHEM_EFFECTIVE_ROTOR_COUNT>  (1) 
8

>  <PUBCHEM_PHARMACOPHORE_FEATURES>  (1) 
8
1 1 acceptor
1 14 hydrophobe
1 15 hydrophobe
1 19 hydrophobe
1 2 acceptor
1 3 acceptor
3 2 3 16 anion
6 4 5 8 9 11 12 rings

>  <PUBCHEM_HEAVY_ATOM_COUNT>  (1) 
19

>  <PUBCHEM_ATOM_DEF_STEREO_COUNT>  (1) 
0

>  <PUBCHEM_ATOM_UDEF_STEREO_COUNT>  (1) 
0

>  <PUBCHEM_BOND_DEF_STEREO_COUNT>  (1) 
0

>  <PUBCHEM_BOND_UDEF_STEREO_COUNT>  (1) 
0

>  <PUBCHEM_ISOTOPIC_ATOM_COUNT>  (1) 
0

>  <PUBCHEM_COMPONENT_COUNT>  (1) 
1

>  <PUBCHEM_CACTVS_TAUTO_COUNT>  (1) 
1

>  <PUBCHEM_CONFORMER_ID>  (1) 
00005C2200000001

>  <PUBCHEM_MMFF94_ENERGY>  (1) 
46.7968

>  <PUBCHEM_FEATURE_SELFOVERLAP>  (1) 
40.659

>  <PUBCHEM_SHAPE_FINGERPRINT>  (1) 
10382601 240 18053969272005305803
10906281 52 18190482497016700729
1100329 8 18268151040155403491
11680986 33 17981599686862601587
12011746 2 18412262844008065467
12553582 1 18338220652972591274
12788726 201 18187360996052652440
13140716 1 18196644306049091338
13862211 1 18413666924293259978
14787075 74 17894915169307679186
14790565 3 18412554205741671952
14955137 171 18264219165173317587
15042514 8 18410857698223543178
16752209 62 18267564837528499472
16945 1 18340750590589111994
193761 8 17763744295571045187
19591789 44 18198628722531722050
19784866 170 18338806593912451905
20028762 73 17915459604909929303
20510252 161 18271807861558866528
20600515 1 18129398114353734117
20671657 1 18049167962541000061
20739085 24 18265353818530121001
21029758 27 18335987548945960017
21285901 2 18130242470780226206
21339142 126 18410849958712951000
21421861 104 17755022999799956251
22182313 1 17984135964199231566
2334 1 17980469389262636578
23402539 116 18272647965255896494
23558518 356 17472400064214892781
23559900 14 17548691886348381634
23566358 27 17615133616887555251
266924 87 18193831553188667061
2748010 2 17981870137053863090
283562 15 18339645533742059600
3250762 1 17762057636349771975
350125 39 18195813955779756274
352729 6 17693080878161648072
559249 180 18120089478216876490
59554788 170 18410854395325231112
68521 5 18335140856083509937
81228 2 18125984186858111554

>  <PUBCHEM_SHAPE_MULTIPOLES>  (1) 
373.4
8.15
4.08
0.9
5.61
3.63
-0.05
-1.91
0.78
-2.94
-1.54
-0.1
0.04
0.15

>  <PUBCHEM_SHAPE_SELFOVERLAP>  (1) 
756.129

>  <PUBCHEM_SHAPE_VOLUME>  (1) 
218.1

>  <PUBCHEM_COORDINATE_TYPE>  (1) 
2
5
10

$$$$
