23582
     RDKit          3D

 20 20  0  0  0  0  0  0  0  0999 V2000
    1.5810    0.0416    0.0595 O   0  0  0  0  0  0  0  0  0  0  0  0
   -4.5230   -1.2367   -0.4588 O   0  0  0  0  0  0  0  0  0  0  0  0
   -4.7255    1.0272   -0.4438 O   0  0  0  0  0  0  0  0  0  0  0  0
   -0.4795    1.2414   -0.0942 C   0  0  0  0  0  0  0  0  0  0  0  0
   -0.4679   -1.1743   -0.1248 C   0  0  0  0  0  0  0  0  0  0  0  0
    0.2150    0.0361   -0.0534 C   0  0  0  0  0  0  0  0  0  0  0  0
    0.2401    2.5476   -0.0165 C   0  0  0  0  0  0  0  0  0  0  0  0
    0.2653   -2.4746   -0.0834 C   0  0  0  0  0  0  0  0  0  0  0  0
   -1.8698    1.2361   -0.2075 C   0  0  0  0  0  0  0  0  0  0  0  0
   -1.8582   -1.1797   -0.2384 C   0  0  0  0  0  0  0  0  0  0  0  0
    0.4040    3.0339    1.4295 C   0  0  0  0  0  0  0  0  0  0  0  0
    0.4343   -2.9992    1.3485 C   0  0  0  0  0  0  0  0  0  0  0  0
   -2.5590    0.0254   -0.2797 C   0  0  0  0  0  0  0  0  0  0  0  0
    1.1669    4.3470    1.5030 C   0  0  0  0  0  0  0  0  0  0  0  0
    1.1516   -4.3394    1.3804 C   0  0  0  0  0  0  0  0  0  0  0  0
    2.3243    0.0598   -1.1517 C   0  0  0  0  0  0  0  0  0  0  0  0
   -4.0085    0.0222   -0.3984 C   0  0  0  0  0  0  0  0  0  0  0  0
    3.7934    0.0066   -0.8413 C   0  0  0  0  0  0  0  0  0  0  0  0
    4.2873   -1.2062   -0.1066 C   0  0  0  0  0  0  0  0  0  0  0  0
    4.6282    0.9853   -1.2224 C   0  0  0  0  0  0  0  0  0  0  0  0
  1  6  1  0
  1 16  1  0
  2 17  1  0
  3 17  2  0
  4  6  2  0
  4  7  1  0
  4  9  1  0
  5  6  1  0
  5  8  1  0
  5 10  2  0
  7 11  1  0
  8 12  1  0
  9 13  2  0
 10 13  1  0
 11 14  1  0
 12 15  1  0
 13 17  1  0
 16 18  1  0
 18 19  1  0
 18 20  2  0
M  END
>  <PUBCHEM_COMPOUND_CID>  (1) 
23582

>  <PUBCHEM_CONFORMER_RMSD>  (1) 
0.8

>  <PUBCHEM_CONFORMER_DIVERSEORDER>  (1) 
1
31
30
25
32
21
13
17
28
19
29
22
27
14
8
26
7
16
12
9
11
5
24
4
15
23
20
33
18
10
2
6
3

>  <PUBCHEM_MMFF94_PARTIAL_CHARGES>  (1) 
21
1 -0.36
10 -0.15
13 0.09
16 0.42
17 0.63
18 -0.28
19 0.14
2 -0.65
20 -0.3
25 0.15
26 0.15
3 -0.57
4 -0.14
42 0.15
43 0.15
44 0.5
5 -0.14
6 0.08
7 0.14
8 0.14
9 -0.15

>  <PUBCHEM_EFFECTIVE_ROTOR_COUNT>  (1) 
8

>  <PUBCHEM_PHARMACOPHORE_FEATURES>  (1) 
7
1 1 acceptor
1 14 hydrophobe
1 15 hydrophobe
1 2 acceptor
1 3 acceptor
3 2 3 17 anion
6 4 5 6 9 10 13 rings

>  <PUBCHEM_HEAVY_ATOM_COUNT>  (1) 
20

>  <PUBCHEM_ATOM_DEF_STEREO_COUNT>  (1) 
0

>  <PUBCHEM_ATOM_UDEF_STEREO_COUNT>  (1) 
0

>  <PUBCHEM_BOND_DEF_STEREO_COUNT>  (1) 
0

>  <PUBCHEM_BOND_UDEF_STEREO_COUNT>  (1) 
0

>  <PUBCHEM_ISOTOPIC_ATOM_COUNT>  (1) 
0

>  <PUBCHEM_COMPONENT_COUNT>  (1) 
1

>  <PUBCHEM_CACTVS_TAUTO_COUNT>  (1) 
1

>  <PUBCHEM_CONFORMER_ID>  (1) 
00005C1E00000001

>  <PUBCHEM_MMFF94_ENERGY>  (1) 
47.4863

>  <PUBCHEM_FEATURE_SELFOVERLAP>  (1) 
35.578

>  <PUBCHEM_SHAPE_FINGERPRINT>  (1) 
108231 29 18341336664393455104
10906281 52 18056504904843640004
11680986 33 17980483686892494049
12293681 160 18340216232301948048
12592029 89 18041282054381963490
12788726 201 18341626875935000108
13140716 1 18266735969212519889
13149001 5 18196098965181989100
14178342 30 15748101798473556577
14787075 74 18410296934007016462
14790565 3 18337121102553602669
14943834 7 17689722960912539032
16945 1 18338782473565703133
17980427 26 18124566877725810845
19591789 44 18190746521319884275
19784866 9 18260549970354424071
20510252 161 18339931420225215300
20600515 1 18338249227411468316
20645476 183 17823150080065499350
20832881 197 18343024393272646513
20905425 154 18125438601346802150
21029758 11 18272937141130450956
21421861 104 17902802864019993947
22182313 1 17902503028548709431
2334 1 17978223095786876853
23402539 116 18343580729097388062
23558518 356 17979938016146119830
23559900 14 18412267268388668764
25147074 1 18052811452186134397
2748010 2 17258503769101513750
283562 15 18339088073252850704
3178227 256 18336842973877927827
3250762 1 17762905767704727240
34934 24 18342455885979483279
352729 6 18261412030753160994
3759504 43 17895201063906204238
394222 165 17530682100416796714
43471831 8 18261393278619848586
7364860 26 17914896675724026820
81228 2 18057069959367939880

>  <PUBCHEM_SHAPE_MULTIPOLES>  (1) 
393.98
7.13
4.71
1.24
1.21
0.1
-0.39
-0.11
3.52
-2.13
-3.94
-0.76
0.2
-0.29

>  <PUBCHEM_SHAPE_SELFOVERLAP>  (1) 
797.626

>  <PUBCHEM_SHAPE_VOLUME>  (1) 
231.4

>  <PUBCHEM_COORDINATE_TYPE>  (1) 
2
5
10

$$$$
