23592
     RDKit          3D

 22 22  0  0  0  0  0  0  0  0999 V2000
    2.6158    0.2898    0.0829 O   0  0  0  0  0  0  0  0  0  0  0  0
   -3.7277    0.1826   -0.2263 N   0  0  0  0  0  0  0  0  0  0  0  0
   -1.3965   -0.4202   -0.7247 C   0  0  0  0  0  0  0  0  0  0  0  0
   -2.8503   -0.6780   -1.0191 C   0  0  0  0  0  0  0  0  0  0  0  0
    0.8248   -1.2530   -0.2666 C   0  0  0  0  0  0  0  0  0  0  0  0
    0.4241    1.1273   -0.3681 C   0  0  0  0  0  0  0  0  0  0  0  0
    1.2981    0.0563   -0.1816 C   0  0  0  0  0  0  0  0  0  0  0  0
   -0.5225   -1.4913   -0.5381 C   0  0  0  0  0  0  0  0  0  0  0  0
   -0.9231    0.8890   -0.6397 C   0  0  0  0  0  0  0  0  0  0  0  0
    1.7447   -2.4130   -0.0697 C   0  0  0  0  0  0  0  0  0  0  0  0
    0.9120    2.5358   -0.2804 C   0  0  0  0  0  0  0  0  0  0  0  0
   -3.8764   -0.3483    1.1282 C   0  0  0  0  0  0  0  0  0  0  0  0
   -5.0341    0.3128   -0.8706 C   0  0  0  0  0  0  0  0  0  0  0  0
    1.8188   -2.8508    1.3990 C   0  0  0  0  0  0  0  0  0  0  0  0
    0.8188    3.0937    1.1460 C   0  0  0  0  0  0  0  0  0  0  0  0
   -4.7855    0.5338    1.9669 C   0  0  0  0  0  0  0  0  0  0  0  0
   -5.7096   -1.0399   -1.0205 C   0  0  0  0  0  0  0  0  0  0  0  0
    2.7305   -4.0528    1.5869 C   0  0  0  0  0  0  0  0  0  0  0  0
    1.3485    4.5162    1.2344 C   0  0  0  0  0  0  0  0  0  0  0  0
    3.4921    0.3893   -1.0369 C   0  0  0  0  0  0  0  0  0  0  0  0
    4.8663    0.7007   -0.5445 C   0  0  0  0  0  0  0  0  0  0  0  0
    5.9311   -0.0801   -0.7576 C   0  0  0  0  0  0  0  0  0  0  0  0
  1  7  1  0
  1 20  1  0
  2  4  1  0
  2 12  1  0
  2 13  1  0
  3  4  1  0
  3  8  2  0
  3  9  1  0
  5  7  2  0
  5  8  1  0
  5 10  1  0
  6  7  1  0
  6  9  2  0
  6 11  1  0
 10 14  1  0
 11 15  1  0
 12 16  1  0
 13 17  1  0
 14 18  1  0
 15 19  1  0
 20 21  1  0
 21 22  2  0
M  END
>  <PUBCHEM_COMPOUND_CID>  (1) 
23592

>  <PUBCHEM_CONFORMER_RMSD>  (1) 
1

>  <PUBCHEM_CONFORMER_DIVERSEORDER>  (1) 
1
7
26
19
5
4
25
27
3
34
18
24
17
15
22
32
11
23
9
10
29
21
14
13
28
33
6
12
30
20
8
16
31
2

>  <PUBCHEM_MMFF94_PARTIAL_CHARGES>  (1) 
21
1 -0.36
10 0.14
11 0.14
12 0.27
13 0.27
2 -0.81
20 0.42
21 -0.29
22 -0.3
25 0.15
26 0.15
3 -0.14
4 0.41
5 -0.14
53 0.15
54 0.15
55 0.15
6 -0.14
7 0.08
8 -0.15
9 -0.15

>  <PUBCHEM_EFFECTIVE_ROTOR_COUNT>  (1) 
11

>  <PUBCHEM_PHARMACOPHORE_FEATURES>  (1) 
6
1 1 acceptor
1 18 hydrophobe
1 19 hydrophobe
1 2 cation
1 22 hydrophobe
6 3 5 6 7 8 9 rings

>  <PUBCHEM_HEAVY_ATOM_COUNT>  (1) 
22

>  <PUBCHEM_ATOM_DEF_STEREO_COUNT>  (1) 
0

>  <PUBCHEM_ATOM_UDEF_STEREO_COUNT>  (1) 
0

>  <PUBCHEM_BOND_DEF_STEREO_COUNT>  (1) 
0

>  <PUBCHEM_BOND_UDEF_STEREO_COUNT>  (1) 
0

>  <PUBCHEM_ISOTOPIC_ATOM_COUNT>  (1) 
0

>  <PUBCHEM_COMPONENT_COUNT>  (1) 
1

>  <PUBCHEM_CACTVS_TAUTO_COUNT>  (1) 
1

>  <PUBCHEM_CONFORMER_ID>  (1) 
00005C2800000001

>  <PUBCHEM_MMFF94_ENERGY>  (1) 
48.7849

>  <PUBCHEM_FEATURE_SELFOVERLAP>  (1) 
30.446

>  <PUBCHEM_SHAPE_FINGERPRINT>  (1) 
10006869 2 18055074259320946257
10366900 7 18260828228696003113
1100329 8 18269280221575515648
12236239 1 17846782927289788229
12293681 160 18339096977052462524
12592029 89 18040997320047158578
12644460 14 18334857177899287906
12788726 201 17905615401884347563
13134695 92 18338224969504310141
13140716 1 18121767593882508185
13533116 47 18334007295015204011
13583140 156 18336830887845549447
13590594 115 18272379667397904745
13862211 1 18412262831196880534
14787075 74 18408610270622566724
14790565 3 18337117859916591372
14955137 171 18199488669177801486
15475509 8 17702132242655141644
1601671 61 18273219681284996180
17980427 26 18052228951061631852
18681886 176 17703783777802224791
19591789 44 18045507666514412478
19784866 9 18259985972513404678
20645477 70 18042113289726226079
20832881 197 18342461477995565708
21041028 32 18122342376455155250
21521721 280 18262529207417667724
23402539 116 17704078373587617492
23558518 356 17760646967315908786
23559900 14 17346310544737447823
283562 15 18338522937514633596
3178227 256 18336274547245039969
474 4 18127401474652992297
59755656 215 18410581643954405614
81228 2 17039767488412602446
9999458 23 18337665442207450325

>  <PUBCHEM_SHAPE_MULTIPOLES>  (1) 
441.9
10.54
4.13
1.49
6.26
1.47
-0.64
-1.73
1.85
-4.81
-3.13
0.71
-0.2
-1.3

>  <PUBCHEM_SHAPE_SELFOVERLAP>  (1) 
874.241

>  <PUBCHEM_SHAPE_VOLUME>  (1) 
266.8

>  <PUBCHEM_COORDINATE_TYPE>  (1) 
2
5
10

$$$$
