23590
     RDKit          3D

 19 19  0  0  0  0  0  0  0  0999 V2000
   -1.8843    0.1673   -0.0882 O   0  0  0  0  0  0  0  0  0  0  0  0
    4.4460   -0.2345   -0.3546 N   0  0  0  0  0  0  0  0  0  0  0  0
    0.2190    1.2390    0.2809 C   0  0  0  0  0  0  0  0  0  0  0  0
    0.0646   -1.1718    0.2535 C   0  0  0  0  0  0  0  0  0  0  0  0
   -0.5437    0.0789    0.1475 C   0  0  0  0  0  0  0  0  0  0  0  0
   -0.4143    2.5870    0.1699 C   0  0  0  0  0  0  0  0  0  0  0  0
   -0.7348   -2.4252    0.1129 C   0  0  0  0  0  0  0  0  0  0  0  0
    2.1986   -0.1023    0.6262 C   0  0  0  0  0  0  0  0  0  0  0  0
    1.5902    1.1486    0.5201 C   0  0  0  0  0  0  0  0  0  0  0  0
    1.4359   -1.2624    0.4929 C   0  0  0  0  0  0  0  0  0  0  0  0
   -0.4158    3.1094   -1.2728 C   0  0  0  0  0  0  0  0  0  0  0  0
   -0.8006   -2.9106   -1.3413 C   0  0  0  0  0  0  0  0  0  0  0  0
    3.6646   -0.1984    0.8828 C   0  0  0  0  0  0  0  0  0  0  0  0
   -1.0920    4.4667   -1.3836 C   0  0  0  0  0  0  0  0  0  0  0  0
   -1.5873   -4.2049   -1.4719 C   0  0  0  0  0  0  0  0  0  0  0  0
   -2.7397    0.2083    1.0514 C   0  0  0  0  0  0  0  0  0  0  0  0
    5.8665   -0.3384   -0.0620 C   0  0  0  0  0  0  0  0  0  0  0  0
   -4.1501    0.3617    0.5873 C   0  0  0  0  0  0  0  0  0  0  0  0
   -5.1227   -0.5184    0.8491 C   0  0  0  0  0  0  0  0  0  0  0  0
  1  5  1  0
  1 16  1  0
  2 13  1  0
  2 17  1  0
  3  5  2  0
  3  6  1  0
  3  9  1  0
  4  5  1  0
  4  7  1  0
  4 10  2  0
  6 11  1  0
  7 12  1  0
  8  9  2  0
  8 10  1  0
  8 13  1  0
 11 14  1  0
 12 15  1  0
 16 18  1  0
 18 19  2  0
M  END
>  <PUBCHEM_COMPOUND_CID>  (1) 
23590

>  <PUBCHEM_CONFORMER_RMSD>  (1) 
0.8

>  <PUBCHEM_CONFORMER_DIVERSEORDER>  (1) 
1
57
3
44
24
46
37
56
6
16
38
21
34
53
42
61
64
59
30
36
70
27
71
32
72
67
69
65
33
8
54
75
50
26
20
22
62
4
5
40
47
14
68
66
7
73
63
29
41
31
23
28
55
13
18
51
45
43
48
11
60
76
35
10
12
52
19
9
49
17
58
2
39
25
15
74

>  <PUBCHEM_MMFF94_PARTIAL_CHARGES>  (1) 
21
1 -0.36
10 -0.15
13 0.41
16 0.42
17 0.27
18 -0.29
19 -0.3
2 -0.9
24 0.15
25 0.15
3 -0.14
38 0.36
4 -0.14
44 0.15
45 0.15
46 0.15
5 0.08
6 0.14
7 0.14
8 -0.14
9 -0.15

>  <PUBCHEM_EFFECTIVE_ROTOR_COUNT>  (1) 
9

>  <PUBCHEM_PHARMACOPHORE_FEATURES>  (1) 
7
1 1 acceptor
1 14 hydrophobe
1 15 hydrophobe
1 19 hydrophobe
1 2 cation
1 2 donor
6 3 4 5 8 9 10 rings

>  <PUBCHEM_HEAVY_ATOM_COUNT>  (1) 
19

>  <PUBCHEM_ATOM_DEF_STEREO_COUNT>  (1) 
0

>  <PUBCHEM_ATOM_UDEF_STEREO_COUNT>  (1) 
0

>  <PUBCHEM_BOND_DEF_STEREO_COUNT>  (1) 
0

>  <PUBCHEM_BOND_UDEF_STEREO_COUNT>  (1) 
0

>  <PUBCHEM_ISOTOPIC_ATOM_COUNT>  (1) 
0

>  <PUBCHEM_COMPONENT_COUNT>  (1) 
1

>  <PUBCHEM_CACTVS_TAUTO_COUNT>  (1) 
1

>  <PUBCHEM_CONFORMER_ID>  (1) 
00005C2600000001

>  <PUBCHEM_MMFF94_ENERGY>  (1) 
40.49

>  <PUBCHEM_FEATURE_SELFOVERLAP>  (1) 
35.52

>  <PUBCHEM_SHAPE_FINGERPRINT>  (1) 
10756046 70 18191596448007599077
10906281 52 18117017506646867265
12715332 25 18272373095944337114
13140716 1 18266732661881980474
14790565 3 18340497694151508312
14943834 7 17762903564550021605
15042514 8 18411982485644204850
16945 1 18338779161987669026
19141452 34 18201720695368588674
19591789 44 18127415540465314074
20600515 1 18130798905163043044
20671657 1 18119821463008236265
21029758 27 18261398866171678361
21285901 2 18199485297881812254
22182313 1 18053658075907432822
2334 1 18049714424014199858
23402539 116 18343861121436546887
23558518 356 17469882645942178299
23559900 14 17402886723014811850
23566358 27 17686908627826234599
23598288 3 18044356259113005058
25147074 1 18120646096760242848
2748010 2 17979908320467941650
3060560 45 18342462534694384751
59554788 170 18408603677890783636
68521 5 18187649050597837776
6992083 37 18340486784949659987
81228 2 18051671520046538866

>  <PUBCHEM_SHAPE_MULTIPOLES>  (1) 
380.16
7.72
4.66
1.24
5.86
1.3
-0.39
-1.75
2.29
-3.34
-3.95
-0.6
-0.05
-0.25

>  <PUBCHEM_SHAPE_SELFOVERLAP>  (1) 
753.838

>  <PUBCHEM_SHAPE_VOLUME>  (1) 
228.2

>  <PUBCHEM_COORDINATE_TYPE>  (1) 
2
5
10

$$$$
