23596
     RDKit          3D

 18 18  0  0  0  0  0  0  0  0999 V2000
   -1.8766    0.7482   -0.4751 O   0  0  0  0  0  0  0  0  0  0  0  0
   -0.0843    3.6599    0.0264 N   0  0  0  0  0  0  0  0  0  0  0  0
   -0.1656   -0.8675   -0.0626 C   0  0  0  0  0  0  0  0  0  0  0  0
    2.1538   -0.2444   -0.3245 C   0  0  0  0  0  0  0  0  0  0  0  0
   -1.1848   -1.9056    0.2742 C   0  0  0  0  0  0  0  0  0  0  0  0
   -0.5531    0.4226   -0.4247 C   0  0  0  0  0  0  0  0  0  0  0  0
    0.4128    1.3792   -0.7366 C   0  0  0  0  0  0  0  0  0  0  0  0
    3.6011   -0.6003   -0.2706 C   0  0  0  0  0  0  0  0  0  0  0  0
    1.1879   -1.2010   -0.0125 C   0  0  0  0  0  0  0  0  0  0  0  0
    1.7663    1.0458   -0.6867 C   0  0  0  0  0  0  0  0  0  0  0  0
   -1.6274   -2.7046   -0.9587 C   0  0  0  0  0  0  0  0  0  0  0  0
    4.2122   -0.3422    1.1138 C   0  0  0  0  0  0  0  0  0  0  0  0
    0.0174    2.7654   -1.1270 C   0  0  0  0  0  0  0  0  0  0  0  0
   -2.6397   -3.7819   -0.6028 C   0  0  0  0  0  0  0  0  0  0  0  0
    5.6787   -0.7392    1.1709 C   0  0  0  0  0  0  0  0  0  0  0  0
   -2.4633    1.2569    0.7204 C   0  0  0  0  0  0  0  0  0  0  0  0
   -3.9187    0.9257    0.7191 C   0  0  0  0  0  0  0  0  0  0  0  0
   -4.5168    0.1830    1.6571 C   0  0  0  0  0  0  0  0  0  0  0  0
  1  6  1  0
  1 16  1  0
  2 13  1  0
  3  5  1  0
  3  6  2  0
  3  9  1  0
  4  8  1  0
  4  9  2  0
  4 10  1  0
  5 11  1  0
  6  7  1  0
  7 10  2  0
  7 13  1  0
  8 12  1  0
 11 14  1  0
 12 15  1  0
 16 17  1  0
 17 18  2  0
M  END
>  <PUBCHEM_COMPOUND_CID>  (1) 
23596

>  <PUBCHEM_CONFORMER_RMSD>  (1) 
0.8

>  <PUBCHEM_CONFORMER_DIVERSEORDER>  (1) 
1
90
18
59
91
94
31
108
51
79
86
82
36
70
57
109
107
71
96
49
111
3
113
84
116
20
76
23
42
48
114
102
46
100
97
61
41
93
44
110
27
26
98
101
103
115
68
88
58
52
118
112
89
14
81
80
62
22
37
47
92
83
117
65
38
43
75
30
50
72
54
35
9
19
87
60
74
106
64
99
66
34
95
78
55
56
45
28
6
13
85
77
63
73
21
67
53
39
8
105
5
16
32
12
69
104
25
15
29
7
11
4
24
40
33
2
10
17

>  <PUBCHEM_MMFF94_PARTIAL_CHARGES>  (1) 
21
1 -0.36
10 -0.15
13 0.41
16 0.42
17 -0.29
18 -0.3
2 -0.99
23 0.15
24 0.15
3 -0.14
39 0.36
4 -0.14
40 0.36
41 0.15
42 0.15
43 0.15
5 0.14
6 0.08
7 -0.14
8 0.14
9 -0.15

>  <PUBCHEM_EFFECTIVE_ROTOR_COUNT>  (1) 
8

>  <PUBCHEM_PHARMACOPHORE_FEATURES>  (1) 
7
1 1 acceptor
1 14 hydrophobe
1 15 hydrophobe
1 18 hydrophobe
1 2 cation
1 2 donor
6 3 4 6 7 9 10 rings

>  <PUBCHEM_HEAVY_ATOM_COUNT>  (1) 
18

>  <PUBCHEM_ATOM_DEF_STEREO_COUNT>  (1) 
0

>  <PUBCHEM_ATOM_UDEF_STEREO_COUNT>  (1) 
0

>  <PUBCHEM_BOND_DEF_STEREO_COUNT>  (1) 
0

>  <PUBCHEM_BOND_UDEF_STEREO_COUNT>  (1) 
0

>  <PUBCHEM_ISOTOPIC_ATOM_COUNT>  (1) 
0

>  <PUBCHEM_COMPONENT_COUNT>  (1) 
1

>  <PUBCHEM_CACTVS_TAUTO_COUNT>  (1) 
1

>  <PUBCHEM_CONFORMER_ID>  (1) 
00005C2C00000001

>  <PUBCHEM_MMFF94_ENERGY>  (1) 
39.4035

>  <PUBCHEM_FEATURE_SELFOVERLAP>  (1) 
35.52

>  <PUBCHEM_SHAPE_FINGERPRINT>  (1) 
1100329 8 18410013281814150353
11132069 177 18341050726766129078
12251169 10 18411138017874513552
12553582 1 18408045095986856108
12633257 1 18200294577479507720
13140716 1 18336827588993823808
13540713 5 18192720165738784916
14178342 30 18342457071116669734
15042514 8 18409165493835428934
15295992 7 16988264461513645218
15375462 189 17822007601716327602
15442244 35 18266465488967257295
16945 1 18337388236802635140
17980427 23 17917146212326992877
19591789 44 17907027170562006470
20028762 73 18271815661526041695
20261772 1 18408611344058701970
20510252 161 18125433121290409120
20600515 1 18273221910415473924
21202864 24 18343016675179375530
21339142 149 17774709926982857247
21501502 16 18193563491162583244
21637258 2 15502376737938461936
22112679 90 18335700593696312374
22182313 1 17975977566303801302
2334 1 18191308388946328332
23402539 116 18342726395545867653
23419403 2 17552033653607068101
23557571 272 17774174512138714582
23558518 356 18121502620481450251
23559900 14 18202011997821082974
25 1 10951764115379138945
25147074 1 18190186865642756996
465052 167 17750537172794560097
6992083 37 18410580603933509167
7471813 234 17768515433175530519
81228 2 18340474677289666095

>  <PUBCHEM_SHAPE_MULTIPOLES>  (1) 
359.58
7.93
3.6
1.21
6.42
0.51
-0.27
2.24
-5.2
-3.13
1.32
-0.21
-0.08
-1.35

>  <PUBCHEM_SHAPE_SELFOVERLAP>  (1) 
717.102

>  <PUBCHEM_SHAPE_VOLUME>  (1) 
213.8

>  <PUBCHEM_COORDINATE_TYPE>  (1) 
2
5
10

$$$$
