23594
     RDKit          3D

 20 20  0  0  0  0  0  0  0  0999 V2000
    2.7579    0.2919    0.2778 O   0  0  0  0  0  0  0  0  0  0  0  0
   -3.5635    0.0684   -0.0998 N   0  0  0  0  0  0  0  0  0  0  0  0
   -2.6632   -0.8046   -0.8520 C   0  0  0  0  0  0  0  0  0  0  0  0
   -1.2172   -0.5126   -0.5505 C   0  0  0  0  0  0  0  0  0  0  0  0
    0.5590    1.0752   -0.2315 C   0  0  0  0  0  0  0  0  0  0  0  0
    0.9982   -1.2927   -0.0395 C   0  0  0  0  0  0  0  0  0  0  0  0
   -0.3415   -1.5638   -0.3182 C   0  0  0  0  0  0  0  0  0  0  0  0
   -0.7807    0.8042   -0.5100 C   0  0  0  0  0  0  0  0  0  0  0  0
    1.4483    0.0268    0.0038 C   0  0  0  0  0  0  0  0  0  0  0  0
   -4.9553   -0.2009   -0.4595 C   0  0  0  0  0  0  0  0  0  0  0  0
   -3.3638   -0.1082    1.3382 C   0  0  0  0  0  0  0  0  0  0  0  0
    1.0221    2.4944   -0.1887 C   0  0  0  0  0  0  0  0  0  0  0  0
    1.9347   -2.4285    0.2103 C   0  0  0  0  0  0  0  0  0  0  0  0
   -5.1955    0.0373   -1.9406 C   0  0  0  0  0  0  0  0  0  0  0  0
   -4.2920    0.7919    2.1360 C   0  0  0  0  0  0  0  0  0  0  0  0
    0.9035    3.1000    1.2067 C   0  0  0  0  0  0  0  0  0  0  0  0
    1.9994   -2.8116    1.6859 C   0  0  0  0  0  0  0  0  0  0  0  0
    3.6485    0.3661   -0.8327 C   0  0  0  0  0  0  0  0  0  0  0  0
    5.0102    0.7182   -0.3328 C   0  0  0  0  0  0  0  0  0  0  0  0
    6.0908   -0.0517   -0.5031 C   0  0  0  0  0  0  0  0  0  0  0  0
  1  9  1  0
  1 18  1  0
  2  3  1  0
  2 10  1  0
  2 11  1  0
  3  4  1  0
  4  7  2  0
  4  8  1  0
  5  8  2  0
  5  9  1  0
  5 12  1  0
  6  7  1  0
  6  9  2  0
  6 13  1  0
 10 14  1  0
 11 15  1  0
 12 16  1  0
 13 17  1  0
 18 19  1  0
 19 20  2  0
M  END
>  <PUBCHEM_COMPOUND_CID>  (1) 
23594

>  <PUBCHEM_CONFORMER_RMSD>  (1) 
0.8

>  <PUBCHEM_CONFORMER_DIVERSEORDER>  (1) 
1
55
10
50
31
6
47
28
49
54
8
51
16
56
19
58
22
59
46
33
42
3
4
35
24
48
41
26
21
45
27
34
43
39
30
15
40
18
13
36
29
23
25
2
17
57
12
38
44
37
52
9
32
7
14
5
11
53
20

>  <PUBCHEM_MMFF94_PARTIAL_CHARGES>  (1) 
21
1 -0.36
10 0.27
11 0.27
12 0.14
13 0.14
18 0.42
19 -0.29
2 -0.81
20 -0.3
23 0.15
24 0.15
3 0.41
4 -0.14
47 0.15
48 0.15
49 0.15
5 -0.14
6 -0.14
7 -0.15
8 -0.15
9 0.08

>  <PUBCHEM_EFFECTIVE_ROTOR_COUNT>  (1) 
9

>  <PUBCHEM_PHARMACOPHORE_FEATURES>  (1) 
6
1 1 acceptor
1 16 hydrophobe
1 17 hydrophobe
1 2 cation
1 20 hydrophobe
6 4 5 6 7 8 9 rings

>  <PUBCHEM_HEAVY_ATOM_COUNT>  (1) 
20

>  <PUBCHEM_ATOM_DEF_STEREO_COUNT>  (1) 
0

>  <PUBCHEM_ATOM_UDEF_STEREO_COUNT>  (1) 
0

>  <PUBCHEM_BOND_DEF_STEREO_COUNT>  (1) 
0

>  <PUBCHEM_BOND_UDEF_STEREO_COUNT>  (1) 
0

>  <PUBCHEM_ISOTOPIC_ATOM_COUNT>  (1) 
0

>  <PUBCHEM_COMPONENT_COUNT>  (1) 
1

>  <PUBCHEM_CACTVS_TAUTO_COUNT>  (1) 
1

>  <PUBCHEM_CONFORMER_ID>  (1) 
00005C2A00000001

>  <PUBCHEM_MMFF94_ENERGY>  (1) 
49.1429

>  <PUBCHEM_FEATURE_SELFOVERLAP>  (1) 
30.446

>  <PUBCHEM_SHAPE_FINGERPRINT>  (1) 
10366900 7 18187640328056842553
11578080 2 17097478817792218351
12011746 2 18409162221011846757
12236239 1 17918276454730225023
12592029 89 17603864490861167402
12644460 14 18261109638984791930
13140716 1 18193283115687028825
13862211 1 18411697682331012262
14790565 3 18338245946035679396
15048467 5 16558757801975474000
1601671 61 18413672400529185916
16945 1 18336253626274744158
18681886 176 17632003260710301111
19784866 170 17676206870435806462
19784866 9 18114178636110986138
20645477 70 18188481372732161927
20739085 24 18193860157422756451
23402539 116 17632863009835916132
23526113 38 17676477303542046953
23536379 177 16487263153495799398
2748010 2 18121486973593636332
34934 24 18410851062192927510
3493558 16 15769514057706906888
352729 6 16608557212901007492
4072396 5 18188190058137765778
474 4 18198613535506225729
7615 1 17917710193742211841
7808743 9 16342879620232071681
81228 2 17039203443300575386

>  <PUBCHEM_SHAPE_MULTIPOLES>  (1) 
400.74
10.58
2.55
1.49
0
0.27
0.49
0.59
-2.31
2.13
1.23
-1.91
-0.01
-0.95

>  <PUBCHEM_SHAPE_SELFOVERLAP>  (1) 
798.793

>  <PUBCHEM_SHAPE_VOLUME>  (1) 
240.7

>  <PUBCHEM_COORDINATE_TYPE>  (1) 
2
5
10

$$$$
