23606
     RDKit          3D

 14 14  0  0  0  0  0  0  0  0999 V2000
   -4.2158   -1.2123    0.0866 O   0  0  0  0  0  0  0  0  0  0  0  0
   -4.3562    1.0067    0.5585 O   0  0  0  0  0  0  0  0  0  0  0  0
    3.8699   -0.1456    0.2318 N   0  0  0  0  0  0  0  0  0  0  0  0
    1.8886    0.0829   -0.7047 N   0  0  0  0  0  0  0  0  0  0  0  0
    2.5059   -0.1408    0.3594 N   0  0  0  0  0  0  0  0  0  0  0  0
    0.5101    0.0685   -0.4691 C   0  0  0  0  0  0  0  0  0  0  0  0
   -2.2399    0.0408   -0.0003 C   0  0  0  0  0  0  0  0  0  0  0  0
   -0.1497    1.2464   -0.1183 C   0  0  0  0  0  0  0  0  0  0  0  0
   -0.2053   -1.1235   -0.5855 C   0  0  0  0  0  0  0  0  0  0  0  0
   -1.5247    1.2325    0.1161 C   0  0  0  0  0  0  0  0  0  0  0  0
   -1.5803   -1.1372   -0.3511 C   0  0  0  0  0  0  0  0  0  0  0  0
    4.5635    0.6596   -0.7588 C   0  0  0  0  0  0  0  0  0  0  0  0
    4.6073   -0.6044    1.3917 C   0  0  0  0  0  0  0  0  0  0  0  0
   -3.6734    0.0264    0.2437 C   0  0  0  0  0  0  0  0  0  0  0  0
  1 14  1  0
  2 14  2  0
  3  5  1  0
  3 12  1  0
  3 13  1  0
  4  5  2  0
  4  6  1  0
  6  8  2  0
  6  9  1  0
  7 10  2  0
  7 11  1  0
  7 14  1  0
  8 10  1  0
  9 11  2  0
M  END
>  <PUBCHEM_COMPOUND_CID>  (1) 
23606

>  <PUBCHEM_CONFORMER_RMSD>  (1) 
0.6

>  <PUBCHEM_CONFORMER_DIVERSEORDER>  (1) 
1
3
2

>  <PUBCHEM_MMFF94_PARTIAL_CHARGES>  (1) 
19
1 -0.65
10 -0.15
11 -0.15
12 0.3
13 0.3
14 0.63
15 0.15
16 0.15
17 0.15
18 0.15
2 -0.57
25 0.5
3 -0.54
4 -0.18
5 -0.06
6 0.18
7 0.09
8 -0.15
9 -0.15

>  <PUBCHEM_EFFECTIVE_ROTOR_COUNT>  (1) 
3

>  <PUBCHEM_PHARMACOPHORE_FEATURES>  (1) 
4
1 1 acceptor
1 2 acceptor
3 1 2 14 anion
6 6 7 8 9 10 11 rings

>  <PUBCHEM_HEAVY_ATOM_COUNT>  (1) 
14

>  <PUBCHEM_ATOM_DEF_STEREO_COUNT>  (1) 
0

>  <PUBCHEM_ATOM_UDEF_STEREO_COUNT>  (1) 
0

>  <PUBCHEM_BOND_DEF_STEREO_COUNT>  (1) 
0

>  <PUBCHEM_BOND_UDEF_STEREO_COUNT>  (1) 
0

>  <PUBCHEM_ISOTOPIC_ATOM_COUNT>  (1) 
0

>  <PUBCHEM_COMPONENT_COUNT>  (1) 
1

>  <PUBCHEM_CACTVS_TAUTO_COUNT>  (1) 
1

>  <PUBCHEM_CONFORMER_ID>  (1) 
00005C3600000001

>  <PUBCHEM_MMFF94_ENERGY>  (1) 
41.6983

>  <PUBCHEM_FEATURE_SELFOVERLAP>  (1) 
20.355

>  <PUBCHEM_SHAPE_FINGERPRINT>  (1) 
11132069 177 18060419114207823749
11401426 45 18343861104879053053
12119455 92 16558746793388797084
12236239 1 18186805790320657356
12251169 10 18342734131035181472
124424 183 18113052745020736613
13214271 11 18131068230088392421
13760787 5 17967810557014857014
13897977 58 18411423938031859156
14943859 89 14836119961715688206
15209294 21 17631744763940447625
15342168 16 15338257095890052936
17846911 113 18131631166550341112
19026448 4 15985109612847090421
200 152 16153422835800210296
20645477 56 16917339351535625976
20645477 70 15719666577201603154
21119208 17 10952048961709524026
22485316 2 15791729719698960658
22854114 59 17203887466148585346
23048698 100 17748827415044165072
23402539 116 18201993326965127309
23559900 14 18059026003496294998
2748010 2 18053114917157900725
42 15 18260546701958164906
449060 50 16272209708077637383
474 4 17460607063510263892
5374978 207 18409443696416000608
573450 72 18261105249279938161

>  <PUBCHEM_SHAPE_MULTIPOLES>  (1) 
261.43
9.3
1.23
0.9
4.9
0.03
0.12
-0.31
2.23
-0.66
-0.03
0.83
-0.08
-0.73

>  <PUBCHEM_SHAPE_SELFOVERLAP>  (1) 
537.781

>  <PUBCHEM_SHAPE_VOLUME>  (1) 
151.8

>  <PUBCHEM_COORDINATE_TYPE>  (1) 
2
5
10

$$$$
