23604
     RDKit          3D

 24 26  0  0  1  0  0  0  0  0999 V2000
   -1.7011    0.9243   -1.5178 S   0  0  0  0  0  0  0  0  0  0  0  0
   -2.6129    1.8155   -2.2110 O   0  0  0  0  0  0  0  0  0  0  0  0
   -0.6291    0.2752   -2.2478 O   0  0  0  0  0  0  0  0  0  0  0  0
    0.2002   -0.2240    0.6033 N   0  0  0  0  0  0  0  0  0  0  0  0
   -2.6159   -0.2101   -0.6259 N   0  0  0  0  0  0  0  0  0  0  0  0
    4.4926   -0.1209   -0.2588 N   0  0  0  0  0  0  0  0  0  0  0  0
    1.6491   -0.4621    0.7298 C   0  0  0  0  0  0  0  0  0  0  0  0
   -0.1454    1.1445    0.7230 C   0  0  0  0  0  0  0  0  0  0  0  0
   -0.6380   -1.3652    0.4832 C   0  0  0  0  0  0  0  0  0  0  0  0
   -0.9710    1.8170   -0.1853 C   0  0  0  0  0  0  0  0  0  0  0  0
    2.2432   -1.1293   -0.5092 C   0  0  0  0  0  0  0  0  0  0  0  0
   -1.9341   -1.3680   -0.0834 C   0  0  0  0  0  0  0  0  0  0  0  0
    3.7545   -1.3655   -0.4372 C   0  0  0  0  0  0  0  0  0  0  0  0
    0.3786    1.9109    1.7872 C   0  0  0  0  0  0  0  0  0  0  0  0
   -0.1798   -2.6141    0.9841 C   0  0  0  0  0  0  0  0  0  0  0  0
   -1.2563    3.1825   -0.0595 C   0  0  0  0  0  0  0  0  0  0  0  0
   -2.6995   -2.5562   -0.1175 C   0  0  0  0  0  0  0  0  0  0  0  0
   -3.7411    0.3060    0.2078 C   0  0  0  0  0  0  0  0  0  0  0  0
    0.0960    3.2720    1.9259 C   0  0  0  0  0  0  0  0  0  0  0  0
   -0.9413   -3.7851    0.9323 C   0  0  0  0  0  0  0  0  0  0  0  0
   -0.7190    3.9081    0.9988 C   0  0  0  0  0  0  0  0  0  0  0  0
   -2.2069   -3.7560    0.3792 C   0  0  0  0  0  0  0  0  0  0  0  0
    4.2517    0.7869   -1.3819 C   0  0  0  0  0  0  0  0  0  0  0  0
    5.9255   -0.3864   -0.1194 C   0  0  0  0  0  0  0  0  0  0  0  0
  1  2  2  0
  1  3  2  0
  1  5  1  0
  1 10  1  0
  4  7  1  0
  4  8  1  0
  4  9  1  0
  5 12  1  0
  5 18  1  0
  6 13  1  0
  6 23  1  0
  6 24  1  0
  7 11  1  0
  8 10  2  0
  8 14  1  0
  9 12  2  0
  9 15  1  0
 10 16  1  0
 11 13  1  0
 12 17  1  0
 14 19  2  0
 15 20  2  0
 16 21  2  0
 17 22  2  0
 19 21  1  0
 20 22  1  0
M  END
>  <PUBCHEM_COMPOUND_CID>  (1) 
23604

>  <PUBCHEM_CONFORMER_RMSD>  (1) 
0.8

>  <PUBCHEM_CONFORMER_DIVERSEORDER>  (1) 
1
14
28
18
22
10
23
20
8
19
24
29
12
11
15
26
16
3
17
21
27
2
25
13
4
7
9
5
6

>  <PUBCHEM_MMFF94_PARTIAL_CHARGES>  (1) 
31
1 1.45
10 -0.01
12 0.2
13 0.27
14 -0.15
15 -0.15
16 -0.15
17 -0.15
18 0.36
19 -0.15
2 -0.65
20 -0.15
21 -0.15
22 -0.15
23 0.27
24 0.27
3 -0.65
31 0.15
32 0.15
33 0.15
34 0.15
38 0.15
39 0.15
4 -0.57
40 0.15
41 0.15
5 -0.69
6 -0.81
7 0.37
8 0.1
9 0.1

>  <PUBCHEM_EFFECTIVE_ROTOR_COUNT>  (1) 
4.4

>  <PUBCHEM_PHARMACOPHORE_FEATURES>  (1) 
7
1 2 acceptor
1 3 acceptor
1 4 cation
1 6 cation
6 8 10 14 16 19 21 rings
6 9 12 15 17 20 22 rings
7 1 4 5 8 9 10 12 rings

>  <PUBCHEM_HEAVY_ATOM_COUNT>  (1) 
24

>  <PUBCHEM_ATOM_DEF_STEREO_COUNT>  (1) 
0

>  <PUBCHEM_ATOM_UDEF_STEREO_COUNT>  (1) 
0

>  <PUBCHEM_BOND_DEF_STEREO_COUNT>  (1) 
0

>  <PUBCHEM_BOND_UDEF_STEREO_COUNT>  (1) 
0

>  <PUBCHEM_ISOTOPIC_ATOM_COUNT>  (1) 
0

>  <PUBCHEM_COMPONENT_COUNT>  (1) 
1

>  <PUBCHEM_CACTVS_TAUTO_COUNT>  (1) 
1

>  <PUBCHEM_CONFORMER_ID>  (1) 
00005C3400000001

>  <PUBCHEM_MMFF94_ENERGY>  (1) 
95.7179

>  <PUBCHEM_FEATURE_SELFOVERLAP>  (1) 
35.551

>  <PUBCHEM_SHAPE_FINGERPRINT>  (1) 
10165383 225 18261387794167859205
10764073 3 15546631943338507690
1100329 8 18339370750772750009
12054548 360 18122066665604150206
121448 382 18269271262426528896
12173636 292 18122915235093404692
12293681 160 18126549146550590521
12788726 201 18342175505960892306
13027679 85 18339647840508450419
13149001 5 18268410494818846293
13583140 156 11163939189115396469
14142880 1 18043257838022163964
14251740 79 18337395929237190202
14787075 74 18340202999533751901
14790565 3 18267314144530411969
16945 1 18191852449596599867
17980427 23 16772418255622510115
19765921 60 17767684958293595696
20510252 161 18339081471397168603
20600515 1 18338254716347608453
20775438 99 17188932119357709071
21049683 271 17614015405061914830
22907989 373 18341067258744130772
22956985 138 16821936115232637850
23419403 2 18057034937692567648
23557571 272 18340779208199168862
23558518 356 18054239726069450158
23559900 14 17907854360020267067
266924 78 17325487700897927933
2748010 2 17828744472832498535
283562 15 18267587909860679241
3178227 256 18265353806193319507
394222 165 17316747777600123721
469060 322 17241917352496660177
59755656 520 18192723241610660310
7364860 26 17475802420888979835
81228 2 18057065561030778616
84936 31 17196579226938337522

>  <PUBCHEM_SHAPE_MULTIPOLES>  (1) 
471.08
6.66
4.87
1.65
12.75
0.39
-0.45
-2.67
-2.37
-3.73
2.31
-0.37
1.12
0.77

>  <PUBCHEM_SHAPE_SELFOVERLAP>  (1) 
986.098

>  <PUBCHEM_SHAPE_VOLUME>  (1) 
267.5

>  <PUBCHEM_COORDINATE_TYPE>  (1) 
2
5
10

$$$$
