23602
     RDKit          3D

 23 25  0  0  0  0  0  0  0  0999 V2000
   -0.7128    0.9187   -0.0803 O   0  0  0  0  0  0  0  0  0  0  0  0
    4.0323    0.8338   -0.0206 N   0  0  0  0  0  0  0  0  0  0  0  0
   -0.6587   -1.9418    0.1357 N   0  0  0  0  0  0  0  0  0  0  0  0
   -5.5046    0.8931   -0.1234 N   0  0  0  0  0  0  0  0  0  0  0  0
    2.9401    0.1556    0.0186 C   0  0  0  0  0  0  0  0  0  0  0  0
    2.9248   -1.3293    0.1318 C   0  0  0  0  0  0  0  0  0  0  0  0
    5.3586    0.1703    0.0446 C   0  0  0  0  0  0  0  0  0  0  0  0
    4.0211    2.3139   -0.1330 C   0  0  0  0  0  0  0  0  0  0  0  0
    0.4817    0.2191   -0.0141 C   0  0  0  0  0  0  0  0  0  0  0  0
    1.6468    0.8713   -0.0502 C   0  0  0  0  0  0  0  0  0  0  0  0
    0.4455   -1.2607    0.0968 C   0  0  0  0  0  0  0  0  0  0  0  0
    1.7461   -1.9659    0.1660 C   0  0  0  0  0  0  0  0  0  0  0  0
   -1.8719    0.1820   -0.0363 C   0  0  0  0  0  0  0  0  0  0  0  0
   -1.8579   -1.2138    0.0685 C   0  0  0  0  0  0  0  0  0  0  0  0
    4.2203   -2.0839    0.2055 C   0  0  0  0  0  0  0  0  0  0  0  0
    5.8096   -0.1830   -1.3564 C   0  0  0  0  0  0  0  0  0  0  0  0
    3.9763    2.9198    1.2534 C   0  0  0  0  0  0  0  0  0  0  0  0
   -4.2836    0.1901   -0.0584 C   0  0  0  0  0  0  0  0  0  0  0  0
   -3.0762    0.8847   -0.0994 C   0  0  0  0  0  0  0  0  0  0  0  0
   -3.0767   -1.8988    0.1085 C   0  0  0  0  0  0  0  0  0  0  0  0
   -4.2842   -1.2001    0.0454 C   0  0  0  0  0  0  0  0  0  0  0  0
   -5.5885    2.1543   -0.8330 C   0  0  0  0  0  0  0  0  0  0  0  0
   -6.6879    0.3706    0.5302 C   0  0  0  0  0  0  0  0  0  0  0  0
  1  9  1  0
  1 13  1  0
  2  5  2  3
  2  7  1  0
  2  8  1  0
  3 11  2  0
  3 14  1  0
  4 18  1  0
  4 22  1  0
  4 23  1  0
  5  6  1  0
  5 10  1  0
  6 12  2  0
  6 15  1  0
  7 16  1  0
  8 17  1  0
  9 10  2  0
  9 11  1  0
 11 12  1  0
 13 14  2  0
 13 19  1  0
 14 20  1  0
 18 19  2  0
 18 21  1  0
 20 21  2  0
M  CHG  1   2   1
M  END
>  <PUBCHEM_COMPOUND_CID>  (1) 
23602

>  <PUBCHEM_CONFORMER_RMSD>  (1) 
0.6

>  <PUBCHEM_CONFORMER_DIVERSEORDER>  (1) 
1
3
2
4

>  <PUBCHEM_MMFF94_PARTIAL_CHARGES>  (1) 
26
1 -0.16
10 -0.14
11 0.42
12 -0.14
13 0.08
14 0.18
15 0.14
18 0.1
19 -0.15
2 -0.09
20 -0.15
21 -0.15
22 0.37
23 0.37
28 0.15
29 0.15
3 -0.63
39 0.15
4 -0.84
40 0.15
41 0.15
5 0.37
6 -0.12
7 0.35
8 0.35
9 0.09

>  <PUBCHEM_EFFECTIVE_ROTOR_COUNT>  (1) 
3

>  <PUBCHEM_PHARMACOPHORE_FEATURES>  (1) 
6
1 1 acceptor
1 3 acceptor
1 4 cation
6 1 3 9 11 13 14 rings
6 13 14 18 19 20 21 rings
6 5 6 9 10 11 12 rings

>  <PUBCHEM_HEAVY_ATOM_COUNT>  (1) 
23

>  <PUBCHEM_ATOM_DEF_STEREO_COUNT>  (1) 
0

>  <PUBCHEM_ATOM_UDEF_STEREO_COUNT>  (1) 
0

>  <PUBCHEM_BOND_DEF_STEREO_COUNT>  (1) 
0

>  <PUBCHEM_BOND_UDEF_STEREO_COUNT>  (1) 
0

>  <PUBCHEM_ISOTOPIC_ATOM_COUNT>  (1) 
0

>  <PUBCHEM_COMPONENT_COUNT>  (1) 
1

>  <PUBCHEM_CACTVS_TAUTO_COUNT>  (1) 
1

>  <PUBCHEM_CONFORMER_ID>  (1) 
00005C3200000001

>  <PUBCHEM_MMFF94_ENERGY>  (1) 
112.9318

>  <PUBCHEM_FEATURE_SELFOVERLAP>  (1) 
30.516

>  <PUBCHEM_SHAPE_FINGERPRINT>  (1) 
10 15 18040438815242308113
10411042 1 17762055441838911378
11089746 13 18273208712033539068
11595378 159 16226596408096636732
12107183 9 17763466114707533705
12236239 1 17846498136318723967
12403259 415 18334570244050695213
12730499 353 18408891736814456346
12788726 201 17560243514233332233
13533116 47 18337671919044629546
14251764 18 18410858751043905395
14528608 73 18341328971932831455
14790565 3 18339645521516631337
15183329 4 18341331115596213645
15196674 1 18409448098493871075
15536298 74 18411699902591870162
17844677 252 18339650026441400609
20281389 69 18333448729648119049
20645477 56 18260265235782314061
21033648 29 18268422611243653928
21267235 1 18337961081928566210
21279426 13 18341896302969373756
21304253 335 18333454239858967397
21421861 104 17604415289993601074
21452121 103 18411409644686309170
21859007 373 17606658267522583973
221357 26 18271530806214169084
22393880 68 18341050804344949158
23402539 116 18343297089494161183
23402655 69 18412822473767228751
23559900 14 18343017809309146120
239999 70 18201444692522760470
2838139 119 18412818080295188485
29717793 49 17346324790917076276
300161 21 18410568483483058735
3004659 81 18334296431870445446
335352 9 18410575085443956998
34797466 226 17846504763643198525
34934 24 18409444791121139811
350125 39 18336827498520221500
3545911 37 18408606959192283773
4073 2 17967821586591457562
4214541 1 18409729564732557839
474 4 17749394801387521438
495365 180 17917982910932368530
5104073 3 18335419084428611283
542803 24 17385444332132737118
59755656 215 18409451349715237444
633830 44 18340477980477686982
9709674 26 18409735096772462450
9995097 60 18409165506719928109

>  <PUBCHEM_SHAPE_MULTIPOLES>  (1) 
452.52
14.71
2.56
0.81
8.88
0.65
0.04
5.32
1.26
-1.54
-0.39
-0.51
0.26
1.02

>  <PUBCHEM_SHAPE_SELFOVERLAP>  (1) 
969.053

>  <PUBCHEM_SHAPE_VOLUME>  (1) 
251.7

>  <PUBCHEM_COORDINATE_TYPE>  (1) 
2
5
10

$$$$
