23610
     RDKit          3D

 10 10  0  0  0  0  0  0  0  0999 V2000
    3.9771    0.4393    0.4292 Cl  0  0  0  0  0  0  0  0  0  0  0  0
   -4.6833    0.3141    0.4416 Cl  0  0  0  0  0  0  0  0  0  0  0  0
   -2.1224   -0.6389   -0.6812 S   0  0  0  0  0  0  0  0  0  0  0  0
   -0.3949   -0.3336   -0.3666 C   0  0  0  0  0  0  0  0  0  0  0  0
    0.1233    0.9533   -0.5113 C   0  0  0  0  0  0  0  0  0  0  0  0
    0.4387   -1.3815    0.0239 C   0  0  0  0  0  0  0  0  0  0  0  0
    1.4754    1.1922   -0.2654 C   0  0  0  0  0  0  0  0  0  0  0  0
    1.7909   -1.1426    0.2699 C   0  0  0  0  0  0  0  0  0  0  0  0
    2.3092    0.1443    0.1252 C   0  0  0  0  0  0  0  0  0  0  0  0
   -2.9140    0.4534    0.5346 C   0  0  0  0  0  0  0  0  0  0  0  0
  1  9  1  0
  2 10  1  0
  3  4  1  0
  3 10  1  0
  4  5  2  0
  4  6  1  0
  5  7  1  0
  6  8  2  0
  7  9  2  0
  8  9  1  0
M  END
>  <PUBCHEM_COMPOUND_CID>  (1) 
23610

>  <PUBCHEM_CONFORMER_RMSD>  (1) 
0.4

>  <PUBCHEM_CONFORMER_DIVERSEORDER>  (1) 
1
7
6
5
3
2
9
4
8

>  <PUBCHEM_MMFF94_PARTIAL_CHARGES>  (1) 
14
1 -0.18
10 0.52
11 0.15
12 0.15
13 0.15
14 0.15
2 -0.29
3 -0.33
4 0.1
5 -0.15
6 -0.15
7 -0.15
8 -0.15
9 0.18

>  <PUBCHEM_EFFECTIVE_ROTOR_COUNT>  (1) 
2

>  <PUBCHEM_PHARMACOPHORE_FEATURES>  (1) 
1
6 4 5 6 7 8 9 rings

>  <PUBCHEM_HEAVY_ATOM_COUNT>  (1) 
10

>  <PUBCHEM_ATOM_DEF_STEREO_COUNT>  (1) 
0

>  <PUBCHEM_ATOM_UDEF_STEREO_COUNT>  (1) 
0

>  <PUBCHEM_BOND_DEF_STEREO_COUNT>  (1) 
0

>  <PUBCHEM_BOND_UDEF_STEREO_COUNT>  (1) 
0

>  <PUBCHEM_ISOTOPIC_ATOM_COUNT>  (1) 
0

>  <PUBCHEM_COMPONENT_COUNT>  (1) 
1

>  <PUBCHEM_CACTVS_TAUTO_COUNT>  (1) 
1

>  <PUBCHEM_CONFORMER_ID>  (1) 
00005C3A00000001

>  <PUBCHEM_MMFF94_ENERGY>  (1) 
19.6962

>  <PUBCHEM_FEATURE_SELFOVERLAP>  (1) 
5.074

>  <PUBCHEM_SHAPE_FINGERPRINT>  (1) 
10219947 1 18260830392779161181
11062470 55 16200152105544778753
12251169 10 18334296483082745531
12346645 6 18343303630386721382
14252887 29 18187371990947253795
15775835 57 18131633391717901441
16945 1 18187917400554781990
17844478 74 17531242838161470997
19026448 4 16343702192273661550
20279233 1 17167863054565647651
20871998 22 18051412868652749830
21119208 17 8574712390896088905
23235685 24 18408597089346829550
23380061 451 16660637432144021745
23402539 116 16343698820772040669
23402655 69 18342166731859827205
2748010 2 18046891698492863702
29004967 10 17822007597046820102
53655031 270 18412544293014466936

>  <PUBCHEM_SHAPE_MULTIPOLES>  (1) 
213.38
7.01
1.28
0.81
4.78
0.17
-0.02
-1.54
1.91
-0.38
-0.05
0.2
-0.02
-0.3

>  <PUBCHEM_SHAPE_SELFOVERLAP>  (1) 
400.803

>  <PUBCHEM_SHAPE_VOLUME>  (1) 
132.8

>  <PUBCHEM_COORDINATE_TYPE>  (1) 
2
5
10

$$$$
