23618
     RDKit          3D

 11 11  0  0  1  0  0  0  0  0999 V2000
    2.6887    1.3453   -0.2480 O   0  0  0  0  0  0  0  0  0  0  0  0
    1.8733   -0.3230   -1.4340 O   0  0  0  0  0  0  0  0  0  0  0  0
    1.9784    0.3417   -0.3944 N   0  0  0  0  0  0  0  0  0  0  0  0
    1.2011   -0.1191    0.7828 C   0  0  0  0  0  0  0  0  0  0  0  0
   -0.2353   -0.0354    0.3895 C   0  0  0  0  0  0  0  0  0  0  0  0
    1.7301   -1.5010    1.1607 C   0  0  0  0  0  0  0  0  0  0  0  0
   -0.9576    1.1331    0.6310 C   0  0  0  0  0  0  0  0  0  0  0  0
   -0.8563   -1.1259   -0.2193 C   0  0  0  0  0  0  0  0  0  0  0  0
   -2.3010    1.2113    0.2637 C   0  0  0  0  0  0  0  0  0  0  0  0
   -2.1996   -1.0478   -0.5868 C   0  0  0  0  0  0  0  0  0  0  0  0
   -2.9219    0.1208   -0.3453 C   0  0  0  0  0  0  0  0  0  0  0  0
  1  3  1  0
  2  3  2  0
  3  4  1  0
  4  5  1  0
  4  6  1  0
  5  7  2  0
  5  8  1  0
  7  9  1  0
  8 10  2  0
  9 11  2  0
 10 11  1  0
M  CHG  2   1  -1   3   1
M  END
>  <PUBCHEM_COMPOUND_CID>  (1) 
23618

>  <PUBCHEM_CONFORMER_RMSD>  (1) 
0.4

>  <PUBCHEM_CONFORMER_DIVERSEORDER>  (1) 
3
8
6
2
5
4
7
1

>  <PUBCHEM_MMFF94_PARTIAL_CHARGES>  (1) 
15
1 -0.52
10 -0.15
11 -0.15
16 0.15
17 0.15
18 0.15
19 0.15
2 -0.52
20 0.15
3 0.8
4 0.38
5 -0.14
7 -0.15
8 -0.15
9 -0.15

>  <PUBCHEM_EFFECTIVE_ROTOR_COUNT>  (1) 
2

>  <PUBCHEM_PHARMACOPHORE_FEATURES>  (1) 
4
1 1 acceptor
1 1 anion
1 2 acceptor
6 5 7 8 9 10 11 rings

>  <PUBCHEM_HEAVY_ATOM_COUNT>  (1) 
11

>  <PUBCHEM_ATOM_DEF_STEREO_COUNT>  (1) 
0

>  <PUBCHEM_ATOM_UDEF_STEREO_COUNT>  (1) 
1

>  <PUBCHEM_BOND_DEF_STEREO_COUNT>  (1) 
0

>  <PUBCHEM_BOND_UDEF_STEREO_COUNT>  (1) 
0

>  <PUBCHEM_ISOTOPIC_ATOM_COUNT>  (1) 
0

>  <PUBCHEM_COMPONENT_COUNT>  (1) 
1

>  <PUBCHEM_CACTVS_TAUTO_COUNT>  (1) 
2

>  <PUBCHEM_CONFORMER_ID>  (1) 
00005C4200000003

>  <PUBCHEM_MMFF94_ENERGY>  (1) 
26.9099

>  <PUBCHEM_FEATURE_SELFOVERLAP>  (1) 
20.376

>  <PUBCHEM_SHAPE_FINGERPRINT>  (1) 
12326174 3 16661192660052213178
12423570 1 12428394517355838337
12524768 44 17845925351037991865
12897270 3 17916874628607054908
12932764 1 18260834756687629389
15310529 11 18040994029780066593
15775835 57 18260551099667234845
16945 1 17774994683556954123
20645464 45 16773213146525959667
21040471 1 17986105210941210705
23552423 10 18336819784790703931
2748010 2 17767945882157431451
29004967 10 15338826573613495467
3248919 1 17703784786998096281
369184 2 12324240607003198541
5084963 1 18115576033606039555
7364860 26 18341324505662819722
8030462 33 18334011683558761147

>  <PUBCHEM_SHAPE_MULTIPOLES>  (1) 
209.66
4.05
1.46
1.05
0.27
0.02
-0.08
-0.5
-0.57
-0.07
0.15
-0.52
0.16
-0.66

>  <PUBCHEM_SHAPE_SELFOVERLAP>  (1) 
432.657

>  <PUBCHEM_SHAPE_VOLUME>  (1) 
120.7

>  <PUBCHEM_COORDINATE_TYPE>  (1) 
2
5
10

$$$$
