23629
     RDKit          3D

 14 15  0  0  0  0  0  0  0  0999 V2000
   -1.1430   -0.4727   -0.1504 N   0  0  0  0  0  0  0  0  0  0  0  0
    0.5640   -0.8959    1.0032 C   0  0  0  0  0  0  0  0  0  0  0  0
   -0.3349   -1.6999    0.0533 C   0  0  0  0  0  0  0  0  0  0  0  0
   -0.6616    0.0144    1.1655 C   0  0  0  0  0  0  0  0  0  0  0  0
   -2.5623   -0.7967   -0.0694 C   0  0  0  0  0  0  0  0  0  0  0  0
    1.8735   -0.2490    0.3903 C   0  0  0  0  0  0  0  0  0  0  0  0
   -3.4064    0.4533   -0.3121 C   0  0  0  0  0  0  0  0  0  0  0  0
   -4.9002    0.1314   -0.2528 C   0  0  0  0  0  0  0  0  0  0  0  0
    2.3995    0.9384    0.9114 C   0  0  0  0  0  0  0  0  0  0  0  0
    2.5143   -0.8683   -0.6885 C   0  0  0  0  0  0  0  0  0  0  0  0
   -5.7474    1.3771   -0.4584 C   0  0  0  0  0  0  0  0  0  0  0  0
    3.5520    1.4991    0.3610 C   0  0  0  0  0  0  0  0  0  0  0  0
    3.6668   -0.3075   -1.2389 C   0  0  0  0  0  0  0  0  0  0  0  0
    4.1855    0.8763   -0.7142 C   0  0  0  0  0  0  0  0  0  0  0  0
  1  3  1  0
  1  4  1  0
  1  5  1  0
  2  3  1  0
  2  4  1  0
  2  6  1  0
  5  7  1  0
  6  9  2  0
  6 10  1  0
  7  8  1  0
  8 11  1  0
  9 12  1  0
 10 13  2  0
 12 14  2  0
 13 14  1  0
M  END
>  <PUBCHEM_COMPOUND_CID>  (1) 
23629

>  <PUBCHEM_CONFORMER_RMSD>  (1) 
0.6

>  <PUBCHEM_CONFORMER_DIVERSEORDER>  (1) 
2
20
14
25
15
10
24
17
1
23
11
12
22
4
16
18
8
13
19
5
3
9
21
6
7

>  <PUBCHEM_MMFF94_PARTIAL_CHARGES>  (1) 
16
1 -0.69
10 -0.15
12 -0.15
13 -0.15
14 -0.15
2 0.11
26 0.15
27 0.15
3 0.21
31 0.15
32 0.15
33 0.15
4 0.21
5 0.27
6 -0.11
9 -0.15

>  <PUBCHEM_EFFECTIVE_ROTOR_COUNT>  (1) 
4.8

>  <PUBCHEM_PHARMACOPHORE_FEATURES>  (1) 
4
1 1 cation
1 11 hydrophobe
4 1 2 3 4 rings
6 6 9 10 12 13 14 rings

>  <PUBCHEM_HEAVY_ATOM_COUNT>  (1) 
14

>  <PUBCHEM_ATOM_DEF_STEREO_COUNT>  (1) 
0

>  <PUBCHEM_ATOM_UDEF_STEREO_COUNT>  (1) 
0

>  <PUBCHEM_BOND_DEF_STEREO_COUNT>  (1) 
0

>  <PUBCHEM_BOND_UDEF_STEREO_COUNT>  (1) 
0

>  <PUBCHEM_ISOTOPIC_ATOM_COUNT>  (1) 
0

>  <PUBCHEM_COMPONENT_COUNT>  (1) 
1

>  <PUBCHEM_CACTVS_TAUTO_COUNT>  (1) 
1

>  <PUBCHEM_CONFORMER_ID>  (1) 
00005C4D00000002

>  <PUBCHEM_MMFF94_ENERGY>  (1) 
32.5447

>  <PUBCHEM_FEATURE_SELFOVERLAP>  (1) 
20.297

>  <PUBCHEM_SHAPE_FINGERPRINT>  (1) 
100836 57 18040157326758255156
10354089 29 14779268618175298940
10378564 45 18129380402019050869
10498660 4 18335413513977756213
11471102 20 17989491831356278450
11796584 16 12391507577803756837
12251169 10 12901545762677541058
12730499 353 18411427202365493523
12892183 10 12540683830016774279
13675066 3 7925914772901563339
13690532 89 11815894565918110741
13760787 5 16343431682084862883
1420 369 10015580623488061485
14252887 29 10809336724416310288
14366163 111 18343581828667219505
14445660 50 14562817697968386386
14528608 73 18411972560475346237
15210252 30 18333734628183519852
15885798 251 10375871883511892995
16752209 62 15338845218314648435
177051 138 10087643710319441603
1798214 20 14548738395750747853
18186145 218 18273218607559028939
193927 3 11743840317549066757
200 152 16128383666085533858
20369508 70 14548728500003848250
20432913 95 8790886302507299797
20645477 70 17489596653284537750
20671657 53 13758354475188486715
20767249 442 17967813864150107240
20871999 31 17916576678447273919
21065199 12 11674865706490948342
21119208 17 17418096528726425700
212847 35 18187362117049470616
21354914 88 11239997858753055573
21501925 9 9223229654621013947
21637258 2 13110691510460333364
221357 26 17917710171888112937
22218785 32 18272936024401790551
22224240 67 8069731954908898476
22289505 5 18272650125672269716
22854114 59 13767923524805529175
23253445 4 11386374763310808743
23402539 116 18340197587832643718
23402655 69 18060703904989055036
23557571 272 18267312099988315591
23559900 14 17917433155371915170
23590187 173 18335136496717656117
23590187 302 17418089910255688641
251288 83 8790884081945735100
270888 7 17823142396590871468
276578 36 17022616485962080202
3060560 45 17989488515641727806
31174 14 11097856319719115510
32948 21 16200153149754672977
4028521 119 18411699881138145665
4047638 21 18408603664867965218
42 15 8358261453741415559
449060 62 17967531242506851315
465052 167 12103557624071773525
4990 188 17988924474650535943
522135 26 17703789206276759815
5374978 207 13045942391475779975
633830 44 18334008415094170743
7164475 11 16772966782906790048
76465 3 12967138180988716652
960060 61 16128653059282545037

>  <PUBCHEM_SHAPE_MULTIPOLES>  (1) 
283.13
10.51
1.44
1.08
12.32
0.04
-0.05
5.51
3.42
-0.12
-0.03
-0.69
0
0.55

>  <PUBCHEM_SHAPE_SELFOVERLAP>  (1) 
574.455

>  <PUBCHEM_SHAPE_VOLUME>  (1) 
167.5

>  <PUBCHEM_COORDINATE_TYPE>  (1) 
2
5
10

$$$$
