23620
     RDKit          3D

 11 12  0  0  0  0  0  0  0  0999 V2000
   -4.1860    0.0622   -0.3514 Cl  0  0  0  0  0  0  0  0  0  0  0  0
    3.6996    0.0453   -0.3873 N   0  0  0  0  0  0  0  0  0  0  0  0
    1.8175   -0.0872    0.5423 C   0  0  0  0  0  0  0  0  0  0  0  0
    2.6551    1.0478   -0.0636 C   0  0  0  0  0  0  0  0  0  0  0  0
    2.6450   -0.9980   -0.3757 C   0  0  0  0  0  0  0  0  0  0  0  0
    0.2742   -0.0449    0.3105 C   0  0  0  0  0  0  0  0  0  0  0  0
   -0.4504   -1.2351    0.2484 C   0  0  0  0  0  0  0  0  0  0  0  0
   -0.3805    1.1786    0.1681 C   0  0  0  0  0  0  0  0  0  0  0  0
   -1.8298   -1.2020    0.0438 C   0  0  0  0  0  0  0  0  0  0  0  0
   -1.7600    1.2118   -0.0365 C   0  0  0  0  0  0  0  0  0  0  0  0
   -2.4846    0.0215   -0.0988 C   0  0  0  0  0  0  0  0  0  0  0  0
  1 11  1  0
  2  4  1  0
  2  5  1  0
  3  4  1  0
  3  5  1  0
  3  6  1  0
  6  7  2  0
  6  8  1  0
  7  9  1  0
  8 10  2  0
  9 11  2  0
 10 11  1  0
M  END
>  <PUBCHEM_COMPOUND_CID>  (1) 
23620

>  <PUBCHEM_CONFORMER_RMSD>  (1) 
0.4

>  <PUBCHEM_CONFORMER_DIVERSEORDER>  (1) 
1
2
3

>  <PUBCHEM_MMFF94_PARTIAL_CHARGES>  (1) 
16
1 -0.18
10 -0.15
11 0.18
17 0.36
18 0.15
19 0.15
2 -0.78
20 0.15
21 0.15
3 0.11
4 0.21
5 0.21
6 -0.11
7 -0.15
8 -0.15
9 -0.15

>  <PUBCHEM_EFFECTIVE_ROTOR_COUNT>  (1) 
1.8

>  <PUBCHEM_PHARMACOPHORE_FEATURES>  (1) 
4
1 2 cation
1 2 donor
4 2 3 4 5 rings
6 6 7 8 9 10 11 rings

>  <PUBCHEM_HEAVY_ATOM_COUNT>  (1) 
11

>  <PUBCHEM_ATOM_DEF_STEREO_COUNT>  (1) 
0

>  <PUBCHEM_ATOM_UDEF_STEREO_COUNT>  (1) 
0

>  <PUBCHEM_BOND_DEF_STEREO_COUNT>  (1) 
0

>  <PUBCHEM_BOND_UDEF_STEREO_COUNT>  (1) 
0

>  <PUBCHEM_ISOTOPIC_ATOM_COUNT>  (1) 
0

>  <PUBCHEM_COMPONENT_COUNT>  (1) 
1

>  <PUBCHEM_CACTVS_TAUTO_COUNT>  (1) 
1

>  <PUBCHEM_CONFORMER_ID>  (1) 
00005C4400000001

>  <PUBCHEM_MMFF94_ENERGY>  (1) 
29.8183

>  <PUBCHEM_FEATURE_SELFOVERLAP>  (1) 
20.297

>  <PUBCHEM_SHAPE_FINGERPRINT>  (1) 
11062470 55 18410573998083851869
12032990 46 18410859888788278123
12897270 3 18411420630927828266
12932764 1 17385714803250170032
14325111 11 18410292480152336369
14911166 2 18410285922248783613
14993402 34 18186239528467409421
15775835 57 17748826302246624406
16945 1 18409724049925978147
18186145 218 18260544507082086205
20201158 50 18272654536793262022
20279233 1 18202563999264543210
20645476 183 17603873329044350539
20645477 70 18272933778123572838
21119208 17 18259987071871869796
21293036 1 18335416876783472973
21501502 16 18127134065234980107
23235685 24 18408878534264037381
23402539 116 18341601612156442148
23402655 69 18342450409827706461
23552423 10 18333450971383553850
23559900 14 18413105087600973008
2748010 2 18049715514851503305
369184 2 18411138034627069298
528886 8 18410569604369361363

>  <PUBCHEM_SHAPE_MULTIPOLES>  (1) 
223.26
6.12
1.34
0.69
0.56
0
0.01
-0.14
-1.17
0.04
0.01
-0.05
0.02
0.09

>  <PUBCHEM_SHAPE_SELFOVERLAP>  (1) 
459.248

>  <PUBCHEM_SHAPE_VOLUME>  (1) 
130.4

>  <PUBCHEM_COORDINATE_TYPE>  (1) 
2
5
10

$$$$
