23625
     RDKit          3D

 11 12  0  0  0  0  0  0  0  0999 V2000
    2.9081    0.0737   -0.5363 N   0  0  0  0  0  0  0  0  0  0  0  0
    1.0305   -0.0650    0.4013 C   0  0  0  0  0  0  0  0  0  0  0  0
    1.8604    1.0723   -0.2111 C   0  0  0  0  0  0  0  0  0  0  0  0
    1.8584   -0.9743   -0.5176 C   0  0  0  0  0  0  0  0  0  0  0  0
   -0.5253   -0.0352    0.2132 C   0  0  0  0  0  0  0  0  0  0  0  0
    3.7995   -0.0971    0.6040 C   0  0  0  0  0  0  0  0  0  0  0  0
   -1.2503   -1.2257    0.1564 C   0  0  0  0  0  0  0  0  0  0  0  0
   -1.1846    1.1888    0.1000 C   0  0  0  0  0  0  0  0  0  0  0  0
   -2.6344   -1.1920   -0.0134 C   0  0  0  0  0  0  0  0  0  0  0  0
   -2.5687    1.2225   -0.0699 C   0  0  0  0  0  0  0  0  0  0  0  0
   -3.2935    0.0319   -0.1266 C   0  0  0  0  0  0  0  0  0  0  0  0
  1  3  1  0
  1  4  1  0
  1  6  1  0
  2  3  1  0
  2  4  1  0
  2  5  1  0
  5  7  2  0
  5  8  1  0
  7  9  1  0
  8 10  2  0
  9 11  2  0
 10 11  1  0
M  END
>  <PUBCHEM_COMPOUND_CID>  (1) 
23625

>  <PUBCHEM_CONFORMER_RMSD>  (1) 
0.4

>  <PUBCHEM_CONFORMER_DIVERSEORDER>  (1) 
1
3
5
4
2
6

>  <PUBCHEM_MMFF94_PARTIAL_CHARGES>  (1) 
16
1 -0.69
10 -0.15
11 -0.15
2 0.11
20 0.15
21 0.15
22 0.15
23 0.15
24 0.15
3 0.21
4 0.21
5 -0.11
6 0.27
7 -0.15
8 -0.15
9 -0.15

>  <PUBCHEM_EFFECTIVE_ROTOR_COUNT>  (1) 
1.8

>  <PUBCHEM_PHARMACOPHORE_FEATURES>  (1) 
3
1 1 cation
4 1 2 3 4 rings
6 5 7 8 9 10 11 rings

>  <PUBCHEM_HEAVY_ATOM_COUNT>  (1) 
11

>  <PUBCHEM_ATOM_DEF_STEREO_COUNT>  (1) 
0

>  <PUBCHEM_ATOM_UDEF_STEREO_COUNT>  (1) 
0

>  <PUBCHEM_BOND_DEF_STEREO_COUNT>  (1) 
0

>  <PUBCHEM_BOND_UDEF_STEREO_COUNT>  (1) 
0

>  <PUBCHEM_ISOTOPIC_ATOM_COUNT>  (1) 
0

>  <PUBCHEM_COMPONENT_COUNT>  (1) 
1

>  <PUBCHEM_CACTVS_TAUTO_COUNT>  (1) 
1

>  <PUBCHEM_CONFORMER_ID>  (1) 
00005C4900000001

>  <PUBCHEM_MMFF94_ENERGY>  (1) 
37.3873

>  <PUBCHEM_FEATURE_SELFOVERLAP>  (1) 
15.223

>  <PUBCHEM_SHAPE_FINGERPRINT>  (1) 
10608611 8 18413666920066864480
11062470 55 15985103007097724721
12162725 195 18334577966380488956
12897270 3 18411984684392458623
12932764 1 17385718097405748492
13024252 1 15719112461800671865
13380535 76 18410572864202416843
14144814 61 18335701620019325394
14325111 11 18410576162710497676
15775835 57 17967814899174045501
16945 1 18412269423665626953
19973954 147 18410862087299967133
20201158 50 18272652341780052679
20279233 1 17988924465838996774
20871998 184 18201444735135265031
23402539 116 18340192038471205381
23463225 33 18261671472251815330
23552423 10 18261113014686271599
23559900 14 18272086046933233642
2748010 2 17979071918447125651
3248919 1 18202005412623335204
369184 2 18259705605569496081
57812782 119 18342735221687829852
6333449 129 18413386540522598325
7364860 26 18196649597248930682

>  <PUBCHEM_SHAPE_MULTIPOLES>  (1) 
221.39
5.85
1.35
0.72
2.15
0.03
0.01
-0.06
0.09
-0.64
-0.04
0.23
-0.02
0.05

>  <PUBCHEM_SHAPE_SELFOVERLAP>  (1) 
462.022

>  <PUBCHEM_SHAPE_VOLUME>  (1) 
128.5

>  <PUBCHEM_COORDINATE_TYPE>  (1) 
2
5
10

$$$$
