23624
     RDKit          3D

 11 12  0  0  0  0  0  0  0  0999 V2000
    3.6785   -0.0014    0.3847 N   0  0  0  0  0  0  0  0  0  0  0  0
    1.7956    0.0000   -0.5525 C   0  0  0  0  0  0  0  0  0  0  0  0
    2.6277   -1.0351    0.2174 C   0  0  0  0  0  0  0  0  0  0  0  0
    2.6300    1.0342    0.2164 C   0  0  0  0  0  0  0  0  0  0  0  0
    0.2526    0.0026   -0.3158 C   0  0  0  0  0  0  0  0  0  0  0  0
   -0.4350   -1.2062   -0.2095 C   0  0  0  0  0  0  0  0  0  0  0  0
   -0.4381    1.2098   -0.2077 C   0  0  0  0  0  0  0  0  0  0  0  0
   -1.8133   -1.2081    0.0049 C   0  0  0  0  0  0  0  0  0  0  0  0
   -1.8164    1.2080    0.0067 C   0  0  0  0  0  0  0  0  0  0  0  0
   -2.5041   -0.0010    0.1130 C   0  0  0  0  0  0  0  0  0  0  0  0
   -3.9776   -0.0027    0.3424 C   0  0  0  0  0  0  0  0  0  0  0  0
  1  3  1  0
  1  4  1  0
  2  3  1  0
  2  4  1  0
  2  5  1  0
  5  6  2  0
  5  7  1  0
  6  8  1  0
  7  9  2  0
  8 10  2  0
  9 10  1  0
 10 11  1  0
M  END
>  <PUBCHEM_COMPOUND_CID>  (1) 
23624

>  <PUBCHEM_CONFORMER_RMSD>  (1) 
0.4

>  <PUBCHEM_CONFORMER_DIVERSEORDER>  (1) 
1
2

>  <PUBCHEM_MMFF94_PARTIAL_CHARGES>  (1) 
16
1 -0.78
10 -0.14
11 0.14
17 0.36
18 0.15
19 0.15
2 0.11
20 0.15
21 0.15
3 0.21
4 0.21
5 -0.11
6 -0.15
7 -0.15
8 -0.15
9 -0.15

>  <PUBCHEM_EFFECTIVE_ROTOR_COUNT>  (1) 
1.8

>  <PUBCHEM_PHARMACOPHORE_FEATURES>  (1) 
4
1 1 cation
1 1 donor
4 1 2 3 4 rings
6 5 6 7 8 9 10 rings

>  <PUBCHEM_HEAVY_ATOM_COUNT>  (1) 
11

>  <PUBCHEM_ATOM_DEF_STEREO_COUNT>  (1) 
0

>  <PUBCHEM_ATOM_UDEF_STEREO_COUNT>  (1) 
0

>  <PUBCHEM_BOND_DEF_STEREO_COUNT>  (1) 
0

>  <PUBCHEM_BOND_UDEF_STEREO_COUNT>  (1) 
0

>  <PUBCHEM_ISOTOPIC_ATOM_COUNT>  (1) 
0

>  <PUBCHEM_COMPONENT_COUNT>  (1) 
1

>  <PUBCHEM_CACTVS_TAUTO_COUNT>  (1) 
1

>  <PUBCHEM_CONFORMER_ID>  (1) 
00005C4800000001

>  <PUBCHEM_MMFF94_ENERGY>  (1) 
31.4561

>  <PUBCHEM_FEATURE_SELFOVERLAP>  (1) 
20.297

>  <PUBCHEM_SHAPE_FINGERPRINT>  (1) 
10219947 1 18410579487384352493
10857977 72 18411132567176016489
11062470 55 17632297882455070099
11132069 177 18343015605674275563
11401426 45 18412256238717415117
12032990 46 18335991908485386955
12251169 10 18411416224291421608
12932764 1 18410008836417413030
14144814 61 18409729534646694336
14325111 11 18411138004583540109
15775835 57 18413672422009251730
16945 1 18410864260742965815
17846911 113 18272086089276297201
20201158 50 18272089392000678622
20510252 161 18272653398521628753
20528008 55 18342451569162778057
20645464 45 18059859458425785702
20871998 184 18129947909001702255
21501502 16 18126842930855708764
22445834 79 18114737131993567242
23402539 116 18201428173846450941
23402655 69 18195511616527428365
23463225 33 18335139769482651142
23552423 10 18116436044756262828
2748010 2 18049732823617192221
369184 2 18411415115868047391
5084963 1 17895197662296919356
57812782 119 18187363212012890953
69090 78 18201432588846231167
7364860 26 18199187291671417990

>  <PUBCHEM_SHAPE_MULTIPOLES>  (1) 
221.39
5.85
1.35
0.69
0.19
0
-0.02
0
1.08
-0.05
-0.01
0.06
0
0

>  <PUBCHEM_SHAPE_SELFOVERLAP>  (1) 
462.413

>  <PUBCHEM_SHAPE_VOLUME>  (1) 
128

>  <PUBCHEM_COORDINATE_TYPE>  (1) 
2
5
10

$$$$
