23634
     RDKit          3D

 12 13  0  0  0  0  0  0  0  0999 V2000
    2.9486    0.9853   -0.5423 N   0  0  0  0  0  0  0  0  0  0  0  0
    1.1650    0.0876    0.1186 C   0  0  0  0  0  0  0  0  0  0  0  0
    1.9600    0.0923   -1.1947 C   0  0  0  0  0  0  0  0  0  0  0  0
    1.8810    1.4178    0.3925 C   0  0  0  0  0  0  0  0  0  0  0  0
    1.5705   -1.0200    1.0638 C   0  0  0  0  0  0  0  0  0  0  0  0
   -0.3783    0.1093    0.0237 C   0  0  0  0  0  0  0  0  0  0  0  0
    1.0966   -2.3671    0.5399 C   0  0  0  0  0  0  0  0  0  0  0  0
   -1.0196   -0.4731   -1.0696 C   0  0  0  0  0  0  0  0  0  0  0  0
   -1.1291    0.7164    1.0305 C   0  0  0  0  0  0  0  0  0  0  0  0
   -2.4116   -0.4483   -1.1563 C   0  0  0  0  0  0  0  0  0  0  0  0
   -2.5211    0.7411    0.9436 C   0  0  0  0  0  0  0  0  0  0  0  0
   -3.1622    0.1588   -0.1498 C   0  0  0  0  0  0  0  0  0  0  0  0
  1  3  1  0
  1  4  1  0
  2  3  1  0
  2  4  1  0
  2  5  1  0
  2  6  1  0
  5  7  1  0
  6  8  2  0
  6  9  1  0
  8 10  1  0
  9 11  2  0
 10 12  2  0
 11 12  1  0
M  END
>  <PUBCHEM_COMPOUND_CID>  (1) 
23634

>  <PUBCHEM_CONFORMER_RMSD>  (1) 
0.6

>  <PUBCHEM_CONFORMER_DIVERSEORDER>  (1) 
1
6
3
5
2
4

>  <PUBCHEM_MMFF94_PARTIAL_CHARGES>  (1) 
16
1 -0.78
10 -0.15
11 -0.15
12 -0.15
19 0.36
2 0.11
23 0.15
24 0.15
25 0.15
26 0.15
27 0.15
3 0.21
4 0.21
6 -0.11
8 -0.15
9 -0.15

>  <PUBCHEM_EFFECTIVE_ROTOR_COUNT>  (1) 
2.8

>  <PUBCHEM_PHARMACOPHORE_FEATURES>  (1) 
5
1 1 cation
1 1 donor
1 7 hydrophobe
4 1 2 3 4 rings
6 6 8 9 10 11 12 rings

>  <PUBCHEM_HEAVY_ATOM_COUNT>  (1) 
12

>  <PUBCHEM_ATOM_DEF_STEREO_COUNT>  (1) 
0

>  <PUBCHEM_ATOM_UDEF_STEREO_COUNT>  (1) 
0

>  <PUBCHEM_BOND_DEF_STEREO_COUNT>  (1) 
0

>  <PUBCHEM_BOND_UDEF_STEREO_COUNT>  (1) 
0

>  <PUBCHEM_ISOTOPIC_ATOM_COUNT>  (1) 
0

>  <PUBCHEM_COMPONENT_COUNT>  (1) 
1

>  <PUBCHEM_CACTVS_TAUTO_COUNT>  (1) 
1

>  <PUBCHEM_CONFORMER_ID>  (1) 
00005C5200000001

>  <PUBCHEM_MMFF94_ENERGY>  (1) 
35.8192

>  <PUBCHEM_FEATURE_SELFOVERLAP>  (1) 
25.371

>  <PUBCHEM_SHAPE_FINGERPRINT>  (1) 
107287 299 17603878792337254798
10857977 72 16343405285474129531
11031198 65 18113061527617057253
12326174 3 17822283523131779370
12897270 3 17203050793307667428
12932764 1 18412825768202251945
13538477 17 18130498691449527503
15219456 202 16732699424265292770
15310529 11 18335416842571570477
15775835 57 18412266133641829893
16945 1 18410571794892340017
20559304 39 18200306620050892387
20645464 45 16153423939622727065
20645476 183 18272084994333956639
21061003 4 17608361351015210450
23552423 10 18060420188108000887
23559900 14 15697449811065044228
3248919 1 17095239211770415717
369184 2 18187079551288203761
5084963 1 16343710902235235613
528862 383 18261109625820230522
77492 1 18272366455887603803
8030462 33 18342733009959007449
81228 2 17249500937987054362

>  <PUBCHEM_SHAPE_MULTIPOLES>  (1) 
241.97
4.32
1.54
1.26
1.49
0.71
-0.1
-0.86
-0.49
-0.97
0.41
0.08
0.11
-0.74

>  <PUBCHEM_SHAPE_SELFOVERLAP>  (1) 
507.676

>  <PUBCHEM_SHAPE_VOLUME>  (1) 
138.7

>  <PUBCHEM_COORDINATE_TYPE>  (1) 
2
5
10

$$$$
