23635
     RDKit          3D

 13 14  0  0  0  0  0  0  0  0999 V2000
    2.4861    1.9498   -0.2515 N   0  0  0  0  0  0  0  0  0  0  0  0
    0.9487    0.5583    0.1003 C   0  0  0  0  0  0  0  0  0  0  0  0
    1.6356    1.1296   -1.1482 C   0  0  0  0  0  0  0  0  0  0  0  0
    1.4251    1.8496    0.7804 C   0  0  0  0  0  0  0  0  0  0  0  0
    1.6441   -0.6816    0.6392 C   0  0  0  0  0  0  0  0  0  0  0  0
   -0.5596    0.2858    0.0374 C   0  0  0  0  0  0  0  0  0  0  0  0
    1.4294   -1.8858   -0.2755 C   0  0  0  0  0  0  0  0  0  0  0  0
   -1.1732   -0.0599   -1.1766 C   0  0  0  0  0  0  0  0  0  0  0  0
   -1.3510    0.3774    1.1928 C   0  0  0  0  0  0  0  0  0  0  0  0
    2.1012   -3.1323    0.2779 C   0  0  0  0  0  0  0  0  0  0  0  0
   -2.5447   -0.3076   -1.2339 C   0  0  0  0  0  0  0  0  0  0  0  0
   -2.7224    0.1296    1.1355 C   0  0  0  0  0  0  0  0  0  0  0  0
   -3.3193   -0.2129   -0.0778 C   0  0  0  0  0  0  0  0  0  0  0  0
  1  3  1  0
  1  4  1  0
  2  3  1  0
  2  4  1  0
  2  5  1  0
  2  6  1  0
  5  7  1  0
  6  8  2  0
  6  9  1  0
  7 10  1  0
  8 11  1  0
  9 12  2  0
 11 13  2  0
 12 13  1  0
M  END
>  <PUBCHEM_COMPOUND_CID>  (1) 
23635

>  <PUBCHEM_CONFORMER_RMSD>  (1) 
0.6

>  <PUBCHEM_CONFORMER_DIVERSEORDER>  (1) 
1
6
7
4
2
5
3

>  <PUBCHEM_MMFF94_PARTIAL_CHARGES>  (1) 
16
1 -0.78
11 -0.15
12 -0.15
13 -0.15
2 0.11
20 0.36
23 0.15
24 0.15
28 0.15
29 0.15
3 0.21
30 0.15
4 0.21
6 -0.11
8 -0.15
9 -0.15

>  <PUBCHEM_EFFECTIVE_ROTOR_COUNT>  (1) 
3.8

>  <PUBCHEM_PHARMACOPHORE_FEATURES>  (1) 
5
1 1 cation
1 1 donor
1 10 hydrophobe
4 1 2 3 4 rings
6 6 8 9 11 12 13 rings

>  <PUBCHEM_HEAVY_ATOM_COUNT>  (1) 
13

>  <PUBCHEM_ATOM_DEF_STEREO_COUNT>  (1) 
0

>  <PUBCHEM_ATOM_UDEF_STEREO_COUNT>  (1) 
0

>  <PUBCHEM_BOND_DEF_STEREO_COUNT>  (1) 
0

>  <PUBCHEM_BOND_UDEF_STEREO_COUNT>  (1) 
0

>  <PUBCHEM_ISOTOPIC_ATOM_COUNT>  (1) 
0

>  <PUBCHEM_COMPONENT_COUNT>  (1) 
1

>  <PUBCHEM_CACTVS_TAUTO_COUNT>  (1) 
1

>  <PUBCHEM_CONFORMER_ID>  (1) 
00005C5300000001

>  <PUBCHEM_MMFF94_ENERGY>  (1) 
35.0043

>  <PUBCHEM_FEATURE_SELFOVERLAP>  (1) 
25.371

>  <PUBCHEM_SHAPE_FINGERPRINT>  (1) 
1 1 18335700602381069078
107287 299 18040725812908566733
11031198 65 18334863865252798181
12202030 40 17604451633832682291
12326174 3 18114732781207228306
12932764 1 18131073757637715497
13538477 17 17703505592833538847
13898156 1 17704352156383096891
14817 1 9385873138295931946
15219456 202 17603862325401077825
15279307 12 18200874092647418767
15775835 57 18201162160404196741
15852999 172 17970892569722545275
16945 1 18410852161667144504
201361 129 18341628021963495441
20361792 2 18122903127380345046
20379382 53 18336275560693849797
20559304 39 18059857246754927203
20645477 70 18334284371591949703
20711985 344 17252852867777127546
21061003 4 18119248363572263034
22112679 90 17632302228708896096
22445834 79 18272933791271906619
22802520 49 17968371222135601181
23419403 2 16116760621109489107
23552423 10 18272086097887343727
23557571 272 16950573224414498507
23728640 28 16029562502833983779
305870 269 18341890826838605152
5084963 1 15123247532326943789
528862 383 18412266129283552510
7364860 26 18413388722250037634
8030462 33 18131068268563866681
81228 2 17256237151793212002
88987 49 16128371550151557921

>  <PUBCHEM_SHAPE_MULTIPOLES>  (1) 
262.55
4.36
2.34
1.25
2.66
1.29
-0.09
0.76
0.03
-3.22
0.17
0.52
-0.16
-0.42

>  <PUBCHEM_SHAPE_SELFOVERLAP>  (1) 
544.708

>  <PUBCHEM_SHAPE_VOLUME>  (1) 
151.9

>  <PUBCHEM_COORDINATE_TYPE>  (1) 
2
5
10

$$$$
