23637
     RDKit          3D

 14 15  0  0  0  0  0  0  0  0999 V2000
    1.1691   -3.0227    0.3689 N   0  0  0  0  0  0  0  0  0  0  0  0
    0.3521   -1.1392   -0.0878 C   0  0  0  0  0  0  0  0  0  0  0  0
    0.8011   -1.8486    1.1975 C   0  0  0  0  0  0  0  0  0  0  0  0
    0.1942   -2.5596   -0.6488 C   0  0  0  0  0  0  0  0  0  0  0  0
    1.4815   -0.3668   -0.7567 C   0  0  0  0  0  0  0  0  0  0  0  0
   -0.8864   -0.2389   -0.0274 C   0  0  0  0  0  0  0  0  0  0  0  0
    1.8249    0.8786    0.0592 C   0  0  0  0  0  0  0  0  0  0  0  0
    2.9836    1.6533   -0.5666 C   0  0  0  0  0  0  0  0  0  0  0  0
   -1.2232    0.4364    1.1566 C   0  0  0  0  0  0  0  0  0  0  0  0
   -1.7066   -0.0739   -1.1549 C   0  0  0  0  0  0  0  0  0  0  0  0
   -2.3512    1.2551    1.2118 C   0  0  0  0  0  0  0  0  0  0  0  0
   -2.8345    0.7449   -1.0997 C   0  0  0  0  0  0  0  0  0  0  0  0
    3.3520    2.8721    0.2643 C   0  0  0  0  0  0  0  0  0  0  0  0
   -3.1567    1.4095    0.0837 C   0  0  0  0  0  0  0  0  0  0  0  0
  1  3  1  0
  1  4  1  0
  2  3  1  0
  2  4  1  0
  2  5  1  0
  2  6  1  0
  5  7  1  0
  6  9  2  0
  6 10  1  0
  7  8  1  0
  8 13  1  0
  9 11  1  0
 10 12  2  0
 11 14  2  0
 12 14  1  0
M  END
>  <PUBCHEM_COMPOUND_CID>  (1) 
23637

>  <PUBCHEM_CONFORMER_RMSD>  (1) 
0.6

>  <PUBCHEM_CONFORMER_DIVERSEORDER>  (1) 
1
11
6
10
12
8
13
7
3
5
2
4
9

>  <PUBCHEM_MMFF94_PARTIAL_CHARGES>  (1) 
16
1 -0.78
10 -0.15
11 -0.15
12 -0.15
14 -0.15
2 0.11
21 0.36
26 0.15
27 0.15
3 0.21
31 0.15
32 0.15
33 0.15
4 0.21
6 -0.11
9 -0.15

>  <PUBCHEM_EFFECTIVE_ROTOR_COUNT>  (1) 
4.8

>  <PUBCHEM_PHARMACOPHORE_FEATURES>  (1) 
5
1 1 cation
1 1 donor
1 13 hydrophobe
4 1 2 3 4 rings
6 6 9 10 11 12 14 rings

>  <PUBCHEM_HEAVY_ATOM_COUNT>  (1) 
14

>  <PUBCHEM_ATOM_DEF_STEREO_COUNT>  (1) 
0

>  <PUBCHEM_ATOM_UDEF_STEREO_COUNT>  (1) 
0

>  <PUBCHEM_BOND_DEF_STEREO_COUNT>  (1) 
0

>  <PUBCHEM_BOND_UDEF_STEREO_COUNT>  (1) 
0

>  <PUBCHEM_ISOTOPIC_ATOM_COUNT>  (1) 
0

>  <PUBCHEM_COMPONENT_COUNT>  (1) 
1

>  <PUBCHEM_CACTVS_TAUTO_COUNT>  (1) 
1

>  <PUBCHEM_CONFORMER_ID>  (1) 
00005C5500000001

>  <PUBCHEM_MMFF94_ENERGY>  (1) 
35.1285

>  <PUBCHEM_FEATURE_SELFOVERLAP>  (1) 
25.371

>  <PUBCHEM_SHAPE_FINGERPRINT>  (1) 
1 1 18335703810568762382
11725454 13 16591077967553835333
12326174 3 17972039141148942186
12423570 1 15256325006291504726
13134695 92 17756975723417969414
14817 1 10283541979069120018
15279308 10 17913215260662830817
15775835 57 18410572915810589892
16945 1 18193279598151082631
17357990 137 17485943929791486937
18186145 218 18342186574223788036
19765921 60 18272929453196747185
20361792 2 17618218408418140983
20510252 161 17979354492924843194
20711985 344 17617927476002163226
21041028 32 17544491755681367040
21524375 3 18410012177949565452
21639500 275 18336541603884760029
220403 375 18261957443927273194
228727 97 17917988404079703133
23419403 2 16382904033911624594
23557571 272 17476934914103527836
25 1 18341067241284926780
2748010 2 18263666080717616126
305870 269 18408602552471630396
3071541 236 18049992583207768032
31174 14 18045802095391712161
4175511 71 17621049659264423735
430814 3 18413109471902797588
474 4 18412262813732421416
5706482 22 18191012594400933648
5845 1 8335572777662103038
7364860 26 18267022747840870638
81228 2 17615141304931658778
84936 182 18272082773398638200

>  <PUBCHEM_SHAPE_MULTIPOLES>  (1) 
283.13
4.7
3.11
1.21
0.89
1.47
-0.1
-5.2
0.44
2.34
-0.39
-0.53
0.02
-0.32

>  <PUBCHEM_SHAPE_SELFOVERLAP>  (1) 
582.881

>  <PUBCHEM_SHAPE_VOLUME>  (1) 
164.8

>  <PUBCHEM_COORDINATE_TYPE>  (1) 
2
5
10

$$$$
