23630
     RDKit          3D

 14 15  0  0  0  0  0  0  0  0999 V2000
   -1.3429   -0.2245   -0.3100 N   0  0  0  0  0  0  0  0  0  0  0  0
    0.4030   -1.3826   -0.1240 C   0  0  0  0  0  0  0  0  0  0  0  0
   -0.5859   -1.0780   -1.2581 C   0  0  0  0  0  0  0  0  0  0  0  0
   -0.7655   -1.0178    0.8026 C   0  0  0  0  0  0  0  0  0  0  0  0
   -2.7702   -0.5030   -0.4270 C   0  0  0  0  0  0  0  0  0  0  0  0
    1.7065   -0.4869   -0.0368 C   0  0  0  0  0  0  0  0  0  0  0  0
   -3.6217    0.4004    0.4816 C   0  0  0  0  0  0  0  0  0  0  0  0
   -3.3573    1.8700    0.1431 C   0  0  0  0  0  0  0  0  0  0  0  0
   -5.1196    0.1068    0.3643 C   0  0  0  0  0  0  0  0  0  0  0  0
    2.8865   -1.0173    0.4962 C   0  0  0  0  0  0  0  0  0  0  0  0
    1.6883    0.8408   -0.4778 C   0  0  0  0  0  0  0  0  0  0  0  0
    4.0342   -0.2297    0.5871 C   0  0  0  0  0  0  0  0  0  0  0  0
    2.8359    1.6285   -0.3869 C   0  0  0  0  0  0  0  0  0  0  0  0
    4.0089    1.0932    0.1456 C   0  0  0  0  0  0  0  0  0  0  0  0
  1  3  1  0
  1  4  1  0
  1  5  1  0
  2  3  1  0
  2  4  1  0
  2  6  1  0
  5  7  1  0
  6 10  2  0
  6 11  1  0
  7  8  1  0
  7  9  1  0
 10 12  1  0
 11 13  2  0
 12 14  2  0
 13 14  1  0
M  END
>  <PUBCHEM_COMPOUND_CID>  (1) 
23630

>  <PUBCHEM_CONFORMER_RMSD>  (1) 
0.6

>  <PUBCHEM_CONFORMER_DIVERSEORDER>  (1) 
2
1

>  <PUBCHEM_MMFF94_PARTIAL_CHARGES>  (1) 
16
1 -0.69
10 -0.15
11 -0.15
12 -0.15
13 -0.15
14 -0.15
2 0.11
29 0.15
3 0.21
30 0.15
31 0.15
32 0.15
33 0.15
4 0.21
5 0.27
6 -0.11

>  <PUBCHEM_EFFECTIVE_ROTOR_COUNT>  (1) 
3.8

>  <PUBCHEM_PHARMACOPHORE_FEATURES>  (1) 
4
1 1 cation
3 7 8 9 hydrophobe
4 1 2 3 4 rings
6 6 10 11 12 13 14 rings

>  <PUBCHEM_HEAVY_ATOM_COUNT>  (1) 
14

>  <PUBCHEM_ATOM_DEF_STEREO_COUNT>  (1) 
0

>  <PUBCHEM_ATOM_UDEF_STEREO_COUNT>  (1) 
0

>  <PUBCHEM_BOND_DEF_STEREO_COUNT>  (1) 
0

>  <PUBCHEM_BOND_UDEF_STEREO_COUNT>  (1) 
0

>  <PUBCHEM_ISOTOPIC_ATOM_COUNT>  (1) 
0

>  <PUBCHEM_COMPONENT_COUNT>  (1) 
1

>  <PUBCHEM_CACTVS_TAUTO_COUNT>  (1) 
1

>  <PUBCHEM_CONFORMER_ID>  (1) 
00005C4E00000002

>  <PUBCHEM_MMFF94_ENERGY>  (1) 
37.9203

>  <PUBCHEM_FEATURE_SELFOVERLAP>  (1) 
20.297

>  <PUBCHEM_SHAPE_FINGERPRINT>  (1) 
10354089 29 18334016103211964648
10465860 228 18270404871414759994
11543360 7 11959717292000438995
12162725 195 18410293605686826049
122479 349 18409451413870844675
12251169 10 18040999557028599015
13081056 2 18341897376668843741
13675066 3 18343579638133704298
14252887 29 13840265862490740306
14943859 89 18131631201100067979
15188451 53 16226618510804950771
15775835 57 18272089421917769612
17802600 8 18410851053903608017
17844478 74 16733253595611575046
18186145 218 18335416855113704654
20233049 118 17989483018078327208
20645477 56 17775002435556282854
20645477 70 10303819773809650385
20871999 31 15194989605272051141
21119208 17 11959731568656223681
212847 35 18272932726178039736
21524375 3 18342739619818925383
21652331 79 18410293618656591721
22485316 2 9007055755731194147
22854114 59 17748544844528962635
23402539 116 14620792678542989730
23557571 272 15769199678521464727
351380 180 18334012783376513049
4047638 21 18412547617429871786
42 15 17749389256315716963
465052 167 11674889879105090585
474 4 18261394472372395265
4921388 177 14764332873951965525
4990 188 14117515441801584991
5104073 3 18189046659336975944
6333272 397 18335424573343950403
83771 10 8790888475470587951
94968 8 8934999269989994380

>  <PUBCHEM_SHAPE_MULTIPOLES>  (1) 
283.13
8.98
1.62
0.89
4.69
0.47
0.09
3.1
-1.79
-0.23
0.08
0.04
-0.16
-0.46

>  <PUBCHEM_SHAPE_SELFOVERLAP>  (1) 
577.472

>  <PUBCHEM_SHAPE_VOLUME>  (1) 
167.2

>  <PUBCHEM_COORDINATE_TYPE>  (1) 
2
5
10

$$$$
