23647
     RDKit          3D

 21 23  0  0  0  0  0  0  0  0999 V2000
    0.7264   -2.6949    0.0066 S   0  0  0  0  0  0  0  0  0  0  0  0
   -5.4062    0.0162    0.0339 F   0  0  0  0  0  0  0  0  0  0  0  0
   -4.3455    1.5857    1.1008 F   0  0  0  0  0  0  0  0  0  0  0  0
   -4.3387    1.5574   -1.0794 F   0  0  0  0  0  0  0  0  0  0  0  0
    3.9879    2.7317    0.5762 O   0  0  0  0  0  0  0  0  0  0  0  0
    2.0094    2.7707   -0.5420 O   0  0  0  0  0  0  0  0  0  0  0  0
    0.6378    0.4289   -0.0133 N   0  0  0  0  0  0  0  0  0  0  0  0
   -0.6029   -0.2274    0.0003 C   0  0  0  0  0  0  0  0  0  0  0  0
    1.9137   -0.1562   -0.0184 C   0  0  0  0  0  0  0  0  0  0  0  0
   -0.7040   -1.6275    0.0102 C   0  0  0  0  0  0  0  0  0  0  0  0
    2.0940   -1.5481   -0.0109 C   0  0  0  0  0  0  0  0  0  0  0  0
   -1.7808    0.5392    0.0038 C   0  0  0  0  0  0  0  0  0  0  0  0
    3.0462    0.6759   -0.0313 C   0  0  0  0  0  0  0  0  0  0  0  0
   -3.0347   -0.0709    0.0176 C   0  0  0  0  0  0  0  0  0  0  0  0
   -1.9700   -2.2331    0.0238 C   0  0  0  0  0  0  0  0  0  0  0  0
   -3.1290   -1.4576    0.0275 C   0  0  0  0  0  0  0  0  0  0  0  0
    3.3923   -2.0811   -0.0172 C   0  0  0  0  0  0  0  0  0  0  0  0
    4.3327    0.1377   -0.0374 C   0  0  0  0  0  0  0  0  0  0  0  0
    4.5055   -1.2414   -0.0305 C   0  0  0  0  0  0  0  0  0  0  0  0
   -4.2706    0.7634    0.0208 C   0  0  0  0  0  0  0  0  0  0  0  0
    2.9363    2.1313   -0.0412 C   0  0  0  0  0  0  0  0  0  0  0  0
  1 10  1  0
  1 11  1  0
  2 20  1  0
  3 20  1  0
  4 20  1  0
  5 21  1  0
  6 21  2  0
  7  8  1  0
  7  9  1  0
  8 10  2  0
  8 12  1  0
  9 11  2  0
  9 13  1  0
 10 15  1  0
 11 17  1  0
 12 14  2  0
 13 18  2  0
 13 21  1  0
 14 16  1  0
 14 20  1  0
 15 16  2  0
 17 19  2  0
 18 19  1  0
M  END
>  <PUBCHEM_COMPOUND_CID>  (1) 
23647

>  <PUBCHEM_CONFORMER_RMSD>  (1) 
0.6

>  <PUBCHEM_CONFORMER_DIVERSEORDER>  (1) 
1

>  <PUBCHEM_MMFF94_PARTIAL_CHARGES>  (1) 
29
1 -0.2
10 0.1
11 0.1
12 -0.15
13 0.09
14 -0.14
15 -0.15
16 -0.15
17 -0.15
18 -0.15
19 -0.15
2 -0.34
20 1.16
21 0.63
22 0.4
23 0.15
24 0.15
25 0.15
26 0.15
27 0.15
28 0.15
29 0.5
3 -0.34
4 -0.34
5 -0.65
6 -0.57
7 -0.6
8 0.1
9 0.1

>  <PUBCHEM_EFFECTIVE_ROTOR_COUNT>  (1) 
2.4

>  <PUBCHEM_PHARMACOPHORE_FEATURES>  (1) 
8
1 5 acceptor
1 6 acceptor
1 7 cation
1 7 donor
3 5 6 21 anion
6 1 7 8 9 10 11 rings
6 8 10 12 14 15 16 rings
6 9 11 13 17 18 19 rings

>  <PUBCHEM_HEAVY_ATOM_COUNT>  (1) 
21

>  <PUBCHEM_ATOM_DEF_STEREO_COUNT>  (1) 
0

>  <PUBCHEM_ATOM_UDEF_STEREO_COUNT>  (1) 
0

>  <PUBCHEM_BOND_DEF_STEREO_COUNT>  (1) 
0

>  <PUBCHEM_BOND_UDEF_STEREO_COUNT>  (1) 
0

>  <PUBCHEM_ISOTOPIC_ATOM_COUNT>  (1) 
0

>  <PUBCHEM_COMPONENT_COUNT>  (1) 
1

>  <PUBCHEM_CACTVS_TAUTO_COUNT>  (1) 
2

>  <PUBCHEM_CONFORMER_ID>  (1) 
00005C5F00000001

>  <PUBCHEM_MMFF94_ENERGY>  (1) 
63.0073

>  <PUBCHEM_FEATURE_SELFOVERLAP>  (1) 
40.682

>  <PUBCHEM_SHAPE_FINGERPRINT>  (1) 
10411042 1 17618222806196263223
10608611 8 18337107964100314374
10616163 171 18267588103071397486
10967382 1 18338235955993996166
11405975 8 18409730672739434914
11471102 20 18410854322268069374
12173636 292 18195806494888852518
12403259 415 18187643575210484669
12633257 1 18260818298599876090
13140716 1 18408886252188789546
13583140 156 17895202077892753731
13675066 3 18041003946748861235
138480 1 17906453229724263158
14178342 30 17976247260522685794
14790565 3 17830741220567228556
14866123 147 16972242064478198778
15099037 51 18411139095579274822
15196674 1 18410855503188981322
15442244 35 18411420583688475834
15475509 8 17770527260513127142
15536298 74 18341050808787381918
1601671 61 18409731729834132902
17492 89 18339361975881082342
18186145 218 18411984649990522286
200 152 17846775183242473459
20645477 56 18260547827350268855
20645477 70 18272373053131794918
21033648 144 18337381721036683957
21033648 29 17603575306038501989
21033650 10 15481852128365050282
21065198 57 18409450310106798370
21267235 1 18411428301502633223
21452121 103 18340759434222251776
21478907 32 17762056532960668322
21709351 56 18413101762494868286
221490 88 18336554923085195250
22393880 68 18198633309856987838
23227448 37 18411134757899806407
23402655 69 18343021095017253702
23558518 356 18044655549429878178
23559900 14 18272088293048389042
3004659 81 18115315458816670638
335352 9 18410575055173684990
350125 39 18337960090255149619
3545911 37 18410857680647424296
3680242 22 18262798441721702706
4214541 1 18410575085090548199
474 4 18410856555440008363
495365 180 17917419960957984554
5104073 3 18408323314956649506
543358 83 18411704257841598210
5939293 188 18411134728209249998
602551 16 15864654845543724427
633830 44 18343300366232630167
7364860 26 18341050809098527318
77779 3 18410857685016439531
7832392 63 18410854408399400486
8272917 22 18342743970467965038
9709674 26 18410579530107997166
9981440 41 17761207013961583480
9999458 23 18334014969282966110

>  <PUBCHEM_SHAPE_MULTIPOLES>  (1) 
397.48
9.89
2.98
0.7
5.82
0.47
0
3.51
-0.25
-1.96
-0.01
0.24
0.15
0.12

>  <PUBCHEM_SHAPE_SELFOVERLAP>  (1) 
869.789

>  <PUBCHEM_SHAPE_VOLUME>  (1) 
217.9

>  <PUBCHEM_COORDINATE_TYPE>  (1) 
2
5
10

$$$$
