23641
     RDKit          3D

 13 14  0  0  0  0  0  0  0  0999 V2000
    2.4806   -0.2421   -0.2138 N   0  0  0  0  0  0  0  0  0  0  0  0
    0.4571   -0.7848   -0.0273 C   0  0  0  0  0  0  0  0  0  0  0  0
    1.3557   -0.3111   -1.1784 C   0  0  0  0  0  0  0  0  0  0  0  0
    1.4849   -0.0870    0.8748 C   0  0  0  0  0  0  0  0  0  0  0  0
   -0.9885   -0.2316    0.0032 C   0  0  0  0  0  0  0  0  0  0  0  0
    0.3651   -2.2874    0.1438 C   0  0  0  0  0  0  0  0  0  0  0  0
    3.2295    0.9934   -0.3964 C   0  0  0  0  0  0  0  0  0  0  0  0
   -1.6338    0.1026   -1.1876 C   0  0  0  0  0  0  0  0  0  0  0  0
   -1.6447   -0.0642    1.2228 C   0  0  0  0  0  0  0  0  0  0  0  0
    4.3663    1.0996    0.6059 C   0  0  0  0  0  0  0  0  0  0  0  0
   -2.9350    0.6041   -1.1588 C   0  0  0  0  0  0  0  0  0  0  0  0
   -2.9461    0.4372    1.2513 C   0  0  0  0  0  0  0  0  0  0  0  0
   -3.5911    0.7713    0.0605 C   0  0  0  0  0  0  0  0  0  0  0  0
  1  3  1  0
  1  4  1  0
  1  7  1  0
  2  3  1  0
  2  4  1  0
  2  5  1  0
  2  6  1  0
  5  8  2  0
  5  9  1  0
  7 10  1  0
  8 11  1  0
  9 12  2  0
 11 13  2  0
 12 13  1  0
M  END
>  <PUBCHEM_COMPOUND_CID>  (1) 
23641

>  <PUBCHEM_CONFORMER_RMSD>  (1) 
0.6

>  <PUBCHEM_CONFORMER_DIVERSEORDER>  (1) 
1
4
5
3
2

>  <PUBCHEM_MMFF94_PARTIAL_CHARGES>  (1) 
16
1 -0.69
11 -0.15
12 -0.15
13 -0.15
2 0.11
23 0.15
24 0.15
28 0.15
29 0.15
3 0.21
30 0.15
4 0.21
5 -0.11
7 0.27
8 -0.15
9 -0.15

>  <PUBCHEM_EFFECTIVE_ROTOR_COUNT>  (1) 
2.8

>  <PUBCHEM_PHARMACOPHORE_FEATURES>  (1) 
3
1 1 cation
4 1 2 3 4 rings
6 5 8 9 11 12 13 rings

>  <PUBCHEM_HEAVY_ATOM_COUNT>  (1) 
13

>  <PUBCHEM_ATOM_DEF_STEREO_COUNT>  (1) 
0

>  <PUBCHEM_ATOM_UDEF_STEREO_COUNT>  (1) 
0

>  <PUBCHEM_BOND_DEF_STEREO_COUNT>  (1) 
0

>  <PUBCHEM_BOND_UDEF_STEREO_COUNT>  (1) 
0

>  <PUBCHEM_ISOTOPIC_ATOM_COUNT>  (1) 
0

>  <PUBCHEM_COMPONENT_COUNT>  (1) 
1

>  <PUBCHEM_CACTVS_TAUTO_COUNT>  (1) 
1

>  <PUBCHEM_CONFORMER_ID>  (1) 
00005C5900000001

>  <PUBCHEM_MMFF94_ENERGY>  (1) 
35.8552

>  <PUBCHEM_FEATURE_SELFOVERLAP>  (1) 
15.223

>  <PUBCHEM_SHAPE_FINGERPRINT>  (1) 
10465860 71 14117523155409939432
10857977 72 16805620152548730973
11031198 65 18340209596302811895
11127187 94 12823297905306364389
11132069 177 17676213472222260565
11543360 7 15482387646752826000
11769659 78 12757441595487831793
12119455 92 18114452414268802142
12186901 62 15769780139415364809
12251169 10 15647053776329464732
12382932 28 16370725911403738029
124424 183 15357689799499959493
12491281 212 16558765493755538099
12897270 3 15769769160993321831
13296909 8 14634859860305007295
13571099 52 17822849780288912263
13581323 91 14996290201658916305
13675066 3 17385714821137096440
13705890 14 13254799040662098148
14943859 89 18131070450175047098
14993402 34 16702300127229259697
15219456 202 17749389204781585547
15279308 16 17894907378542796693
15309172 13 18333450953955764750
15375462 189 12396568638194953664
15375462 478 16298386885254194646
15775835 57 18059856147085264525
16945 1 18265053539716680375
170605 34 18059581260540867742
17846911 113 17749106686354707861
1813 80 17482842164793780422
18186145 218 18343312448397405870
200 152 15936968664867778283
20281407 28 7853584491284517160
204376 136 18335985354328207602
20645464 45 17313386699577117049
20645476 183 16702017586799875877
20645477 56 18261956362181194124
20653085 51 16916790733571527986
20711985 344 10375054890174117566
20715346 28 17603871061354092910
20871999 31 15841544185307701933
21119208 17 15913330195256576072
21499 59 18343300379254499846
21524375 3 18341609352004137294
22079108 93 18201168740583959283
22094290 60 14117803522147924633
22926399 37 18131348613922266417
232386 152 14418145010178787147
23402539 116 17846494833900609304
23402655 69 16630532795228064113
23500284 214 18341335595210238832
23557571 272 17459208321330970731
23559900 14 16298948620228198050
25 1 18059862761566814144
2748010 2 16372128785530862695
3082319 5 16343708716086410572
369184 2 15864077550831900781
474 4 18130507526086797552
528716 315 16272207513602660621
528886 8 16272207466141710071
77492 1 17632291212339418735
8030462 33 16486967358924031007
81228 2 17831023785827081898
83771 10 8358262548847299732
90316 7 14996279197889505285

>  <PUBCHEM_SHAPE_MULTIPOLES>  (1) 
262.55
6.49
1.35
1.28
2.97
0.75
0.01
-3.71
-0.65
0.55
-0.04
-0.62
-0.12
0.21

>  <PUBCHEM_SHAPE_SELFOVERLAP>  (1) 
545.637

>  <PUBCHEM_SHAPE_VOLUME>  (1) 
153.1

>  <PUBCHEM_COORDINATE_TYPE>  (1) 
2
5
10

$$$$
