23660
     RDKit          3D

 13 13  0  0  0  0  0  0  0  0999 V2000
    3.0995    1.4517    0.6026 O   0  0  0  0  0  0  0  0  0  0  0  0
    4.3807    0.1153   -0.7575 N   0  0  0  0  0  0  0  0  0  0  0  0
    1.1124   -0.7146    0.0287 C   0  0  0  0  0  0  0  0  0  0  0  0
    2.5492   -0.8993    0.4542 C   0  0  0  0  0  0  0  0  0  0  0  0
    0.1302   -0.2472    0.8237 C   0  0  0  0  0  0  0  0  0  0  0  0
   -1.2590   -0.0336    0.4113 C   0  0  0  0  0  0  0  0  0  0  0  0
    0.8184   -1.0624   -1.4076 C   0  0  0  0  0  0  0  0  0  0  0  0
   -1.6399    1.1975   -0.1089 C   0  0  0  0  0  0  0  0  0  0  0  0
   -2.1816   -1.0645    0.5447 C   0  0  0  0  0  0  0  0  0  0  0  0
    3.3529    0.3463    0.1293 C   0  0  0  0  0  0  0  0  0  0  0  0
   -2.9629    1.4007   -0.5014 C   0  0  0  0  0  0  0  0  0  0  0  0
   -3.5046   -0.8613    0.1519 C   0  0  0  0  0  0  0  0  0  0  0  0
   -3.8952    0.3713   -0.3712 C   0  0  0  0  0  0  0  0  0  0  0  0
  1 10  2  0
  2 10  1  0
  3  4  1  0
  3  5  2  0
  3  7  1  0
  4 10  1  0
  5  6  1  0
  6  8  2  0
  6  9  1  0
  8 11  1  0
  9 12  2  0
 11 13  2  0
 12 13  1  0
M  END
>  <PUBCHEM_COMPOUND_CID>  (1) 
23660

>  <PUBCHEM_CONFORMER_RMSD>  (1) 
0.6

>  <PUBCHEM_CONFORMER_DIVERSEORDER>  (1) 
3
10
7
9
2
6
11
1
5
8
4

>  <PUBCHEM_MMFF94_PARTIAL_CHARGES>  (1) 
21
1 -0.57
10 0.57
11 -0.15
12 -0.15
13 -0.15
16 0.15
2 -0.8
20 0.15
21 0.15
22 0.15
23 0.15
24 0.15
25 0.37
26 0.37
3 -0.28
4 0.2
5 -0.18
6 0.03
7 0.14
8 -0.15
9 -0.15

>  <PUBCHEM_EFFECTIVE_ROTOR_COUNT>  (1) 
3

>  <PUBCHEM_PHARMACOPHORE_FEATURES>  (1) 
4
1 1 acceptor
1 2 donor
1 7 hydrophobe
6 6 8 9 11 12 13 rings

>  <PUBCHEM_HEAVY_ATOM_COUNT>  (1) 
13

>  <PUBCHEM_ATOM_DEF_STEREO_COUNT>  (1) 
0

>  <PUBCHEM_ATOM_UDEF_STEREO_COUNT>  (1) 
0

>  <PUBCHEM_BOND_DEF_STEREO_COUNT>  (1) 
0

>  <PUBCHEM_BOND_UDEF_STEREO_COUNT>  (1) 
1

>  <PUBCHEM_ISOTOPIC_ATOM_COUNT>  (1) 
0

>  <PUBCHEM_COMPONENT_COUNT>  (1) 
1

>  <PUBCHEM_CACTVS_TAUTO_COUNT>  (1) 
2

>  <PUBCHEM_CONFORMER_ID>  (1) 
00005C6C00000003

>  <PUBCHEM_MMFF94_ENERGY>  (1) 
31.134

>  <PUBCHEM_FEATURE_SELFOVERLAP>  (1) 
20.297

>  <PUBCHEM_SHAPE_FINGERPRINT>  (1) 
10608611 8 18409724041251998217
107287 299 17561367261776022463
11062470 55 16877942745594224274
11615757 297 17632297899423982001
12162725 195 18113620088245809668
12932764 1 18335990800141218754
13675066 3 11097850804869882706
14144814 61 15140681366842172658
14325111 11 18334010566709034763
14350558 41 9439405761271372648
15219456 202 18271248226940272367
15375462 6 18410010996775731686
15775835 57 17822010861317014569
18175812 5 18413388752177561294
18186145 218 18060142041794137738
190213 19 14189570840778850347
200 152 17418091005503990995
20201158 50 18273213067299156179
20528008 55 18333726918695085007
20645477 56 18261676965900056829
20645477 70 18129664084424816014
20871999 31 18338219549677809887
23402539 116 18261103102244871399
23557571 272 18410584993616861039
23559900 14 18264481806914049490
3248919 1 17774157894767646147
57812782 119 18411699889648660224
6333449 129 18408039602723684097
7364860 26 18118397345925523170

>  <PUBCHEM_SHAPE_MULTIPOLES>  (1) 
256.68
7.5
1.37
0.96
2.69
0.24
-0.2
1.38
-0.65
-0.35
-0.01
0.28
-0.15
0.48

>  <PUBCHEM_SHAPE_SELFOVERLAP>  (1) 
526.566

>  <PUBCHEM_SHAPE_VOLUME>  (1) 
148.1

>  <PUBCHEM_COORDINATE_TYPE>  (1) 
2
5
10

$$$$
