2366
     RDKit          3D

 10 10  0  0  0  0  0  0  0  0999 V2000
    3.3152    0.0165    0.2841 N   0  0  0  0  0  0  0  0  0  0  0  0
   -1.0423   -1.1976    0.2219 N   0  0  0  0  0  0  0  0  0  0  0  0
    0.9227    0.0275    0.9287 C   0  0  0  0  0  0  0  0  0  0  0  0
    1.9452    0.0318   -0.2176 C   0  0  0  0  0  0  0  0  0  0  0  0
   -0.4814    0.0158    0.4235 C   0  0  0  0  0  0  0  0  0  0  0  0
   -1.1293    1.2182    0.1903 C   0  0  0  0  0  0  0  0  0  0  0  0
    4.2692   -0.0251   -0.8147 C   0  0  0  0  0  0  0  0  0  0  0  0
   -2.4369    1.1724   -0.2803 C   0  0  0  0  0  0  0  0  0  0  0  0
   -2.3144   -1.2025   -0.2359 C   0  0  0  0  0  0  0  0  0  0  0  0
   -3.0481   -0.0571   -0.5000 C   0  0  0  0  0  0  0  0  0  0  0  0
  1  4  1  0
  1  7  1  0
  2  5  2  0
  2  9  1  0
  3  4  1  0
  3  5  1  0
  5  6  1  0
  6  8  2  0
  8 10  1  0
  9 10  2  0
M  END
>  <PUBCHEM_COMPOUND_CID>  (1) 
2366

>  <PUBCHEM_CONFORMER_RMSD>  (1) 
0.6

>  <PUBCHEM_CONFORMER_DIVERSEORDER>  (1) 
2
7
9
5
3
1
4
6
8

>  <PUBCHEM_MMFF94_PARTIAL_CHARGES>  (1) 
15
1 -0.9
10 -0.15
15 0.36
16 0.15
2 -0.62
20 0.15
21 0.15
22 0.15
3 0.14
4 0.27
5 0.17
6 -0.15
7 0.27
8 -0.15
9 0.16

>  <PUBCHEM_EFFECTIVE_ROTOR_COUNT>  (1) 
3

>  <PUBCHEM_PHARMACOPHORE_FEATURES>  (1) 
4
1 1 cation
1 1 donor
1 2 acceptor
6 2 5 6 8 9 10 rings

>  <PUBCHEM_HEAVY_ATOM_COUNT>  (1) 
10

>  <PUBCHEM_ATOM_DEF_STEREO_COUNT>  (1) 
0

>  <PUBCHEM_ATOM_UDEF_STEREO_COUNT>  (1) 
0

>  <PUBCHEM_BOND_DEF_STEREO_COUNT>  (1) 
0

>  <PUBCHEM_BOND_UDEF_STEREO_COUNT>  (1) 
0

>  <PUBCHEM_ISOTOPIC_ATOM_COUNT>  (1) 
0

>  <PUBCHEM_COMPONENT_COUNT>  (1) 
1

>  <PUBCHEM_CACTVS_TAUTO_COUNT>  (1) 
2

>  <PUBCHEM_CONFORMER_ID>  (1) 
0000093E00000002

>  <PUBCHEM_MMFF94_ENERGY>  (1) 
15.6116

>  <PUBCHEM_FEATURE_SELFOVERLAP>  (1) 
20.297

>  <PUBCHEM_SHAPE_FINGERPRINT>  (1) 
12716758 59 18412256259480160187
12897270 3 18412541024496693400
12932764 1 18409726261976619056
13024252 1 17458628921573593555
14325111 11 18336262358175313474
14993402 34 18040428897772282077
15775835 57 17749106651783862468
20201158 50 17847063272442323030
21061003 4 16845578646621443378
21119208 17 18261111868067082428
23552423 10 18188762993557782337
528716 315 18335143110961900198

>  <PUBCHEM_SHAPE_MULTIPOLES>  (1) 
195.83
6.28
1.17
0.84
6.83
0
-0.02
0.11
1.97
-0.99
0.02
0.26
-0.01
0.03

>  <PUBCHEM_SHAPE_SELFOVERLAP>  (1) 
389.153

>  <PUBCHEM_SHAPE_VOLUME>  (1) 
115.3

>  <PUBCHEM_COORDINATE_TYPE>  (1) 
2
5
10

$$$$
