23678
     RDKit          3D

 12 11  0  0  0  0  0  0  0  0999 V2000
   -2.8682   -2.2119    1.1868 I   0  0  0  0  0  0  0  0  0  0  0  0
    2.8881   -2.1967   -1.1971 I   0  0  0  0  0  0  0  0  0  0  0  0
   -3.1156    1.2051    0.1559 O   0  0  0  0  0  0  0  0  0  0  0  0
    3.1096    1.2149   -0.1424 O   0  0  0  0  0  0  0  0  0  0  0  0
   -1.1884    0.3153   -0.7880 N   0  0  0  0  0  0  0  0  0  0  0  0
    1.1889    0.2974    0.7844 N   0  0  0  0  0  0  0  0  0  0  0  0
   -0.3697    1.4996   -0.6705 C   0  0  0  0  0  0  0  0  0  0  0  0
    0.3569    1.4886    0.6684 C   0  0  0  0  0  0  0  0  0  0  0  0
   -2.5052    0.2702   -0.3597 C   0  0  0  0  0  0  0  0  0  0  0  0
    2.5013    0.2732    0.3633 C   0  0  0  0  0  0  0  0  0  0  0  0
   -3.1495   -1.0805   -0.5759 C   0  0  0  0  0  0  0  0  0  0  0  0
    3.1519   -1.0752    0.5747 C   0  0  0  0  0  0  0  0  0  0  0  0
  1 11  1  0
  2 12  1  0
  3  9  2  0
  4 10  2  0
  5  7  1  0
  5  9  1  0
  6  8  1  0
  6 10  1  0
  7  8  1  0
  9 11  1  0
 10 12  1  0
M  END
>  <PUBCHEM_COMPOUND_CID>  (1) 
23678

>  <PUBCHEM_CONFORMER_RMSD>  (1) 
0.8

>  <PUBCHEM_CONFORMER_DIVERSEORDER>  (1) 
1
14
44
45
50
58
78
52
20
36
17
3
8
51
39
4
71
25
46
77
61
79
26
57
62
69
30
75
34
31
32
9
70
65
63
21
35
76
60
53
2
68
7
48
73
67
55
22
29
80
6
56
42
66
41
16
74
18
40
10
12
15
19
38
24
54
72
43
49
5
33
13
37
23
64
59
28
47
11
27

>  <PUBCHEM_MMFF94_PARTIAL_CHARGES>  (1) 
14
1 -0.19
10 0.57
11 0.25
12 0.25
17 0.37
18 0.37
2 -0.19
3 -0.57
4 -0.57
5 -0.73
6 -0.73
7 0.3
8 0.3
9 0.57

>  <PUBCHEM_EFFECTIVE_ROTOR_COUNT>  (1) 
7

>  <PUBCHEM_PHARMACOPHORE_FEATURES>  (1) 
6
1 1 hydrophobe
1 2 hydrophobe
1 3 acceptor
1 4 acceptor
1 5 donor
1 6 donor

>  <PUBCHEM_HEAVY_ATOM_COUNT>  (1) 
12

>  <PUBCHEM_ATOM_DEF_STEREO_COUNT>  (1) 
0

>  <PUBCHEM_ATOM_UDEF_STEREO_COUNT>  (1) 
0

>  <PUBCHEM_BOND_DEF_STEREO_COUNT>  (1) 
0

>  <PUBCHEM_BOND_UDEF_STEREO_COUNT>  (1) 
0

>  <PUBCHEM_ISOTOPIC_ATOM_COUNT>  (1) 
0

>  <PUBCHEM_COMPONENT_COUNT>  (1) 
1

>  <PUBCHEM_CACTVS_TAUTO_COUNT>  (1) 
3

>  <PUBCHEM_CONFORMER_ID>  (1) 
00005C7E00000001

>  <PUBCHEM_MMFF94_ENERGY>  (1) 
8.7734

>  <PUBCHEM_FEATURE_SELFOVERLAP>  (1) 
30.449

>  <PUBCHEM_SHAPE_FINGERPRINT>  (1) 
117890 22 18412270561779875559
12596599 1 16702026331200894590
12932764 1 17168134598950352272
14251705 54 18338525251684471459
17834074 16 18410858758668813574
19107657 162 18337111258419559595
19422 9 18410854360616767877
19766037 51 18198644162923366302
20201158 50 18341325592041775006
20645477 70 18342727533664936303
20711983 138 18201442406898590659
23557571 272 18186512194477122596
57483677 78 17530687614733350739
58051976 378 18261391208577084596
8809292 202 18266181634399537318

>  <PUBCHEM_SHAPE_MULTIPOLES>  (1) 
249.12
6.85
2.59
1.23
0.04
0.99
0
3.38
0.01
-0.02
0
0.01
0.51
1.46

>  <PUBCHEM_SHAPE_SELFOVERLAP>  (1) 
429.478

>  <PUBCHEM_SHAPE_VOLUME>  (1) 
170

>  <PUBCHEM_COORDINATE_TYPE>  (1) 
2
5
10

$$$$
