23671
     RDKit          3D

 15 15  0  0  1  0  0  0  0  0999 V2000
    4.1400    0.0220   -0.1798 O   0  0  0  0  0  0  0  0  0  0  0  0
   -0.4797    1.9782   -0.8878 O   0  0  0  0  0  0  0  0  0  0  0  0
    2.5414   -1.6317   -0.0358 O   0  0  0  0  0  0  0  0  0  0  0  0
    0.5494    0.1943    0.1738 N   0  0  0  0  0  0  0  0  0  0  0  0
    1.9100    0.7217    0.0886 C   0  0  0  0  0  0  0  0  0  0  0  0
    2.2260    1.5339    1.3371 C   0  0  0  0  0  0  0  0  0  0  0  0
   -0.5300    0.8848   -0.3306 C   0  0  0  0  0  0  0  0  0  0  0  0
   -1.8484    0.2267   -0.1414 C   0  0  0  0  0  0  0  0  0  0  0  0
    2.8638   -0.4507   -0.0441 C   0  0  0  0  0  0  0  0  0  0  0  0
   -2.9810    1.0113   -0.0764 C   0  0  0  0  0  0  0  0  0  0  0  0
   -1.8976   -1.1477   -0.0362 C   0  0  0  0  0  0  0  0  0  0  0  0
   -4.2189    0.3934    0.1017 C   0  0  0  0  0  0  0  0  0  0  0  0
   -3.1355   -1.7656    0.1419 C   0  0  0  0  0  0  0  0  0  0  0  0
   -4.2961   -0.9950    0.2108 C   0  0  0  0  0  0  0  0  0  0  0  0
    5.1565   -0.9755   -0.3218 C   0  0  0  0  0  0  0  0  0  0  0  0
  1  9  1  0
  1 15  1  0
  2  7  2  0
  3  9  2  0
  4  5  1  0
  4  7  1  0
  5  6  1  0
  5  9  1  0
  7  8  1  0
  8 10  2  0
  8 11  1  0
 10 12  1  0
 11 13  2  0
 12 14  2  0
 13 14  1  0
M  END
>  <PUBCHEM_COMPOUND_CID>  (1) 
23671

>  <PUBCHEM_CONFORMER_RMSD>  (1) 
0.6

>  <PUBCHEM_CONFORMER_DIVERSEORDER>  (1) 
1
8
9
17
24
2
11
18
14
4
23
12
3
22
5
21
7
19
15
20
10
6
13
16

>  <PUBCHEM_MMFF94_PARTIAL_CHARGES>  (1) 
20
1 -0.43
10 -0.15
11 -0.15
12 -0.15
13 -0.15
14 -0.15
15 0.28
17 0.37
2 -0.57
21 0.15
22 0.15
23 0.15
24 0.15
25 0.15
3 -0.57
4 -0.73
5 0.36
7 0.54
8 0.09
9 0.66

>  <PUBCHEM_EFFECTIVE_ROTOR_COUNT>  (1) 
5

>  <PUBCHEM_PHARMACOPHORE_FEATURES>  (1) 
4
1 2 acceptor
1 3 acceptor
1 4 donor
6 8 10 11 12 13 14 rings

>  <PUBCHEM_HEAVY_ATOM_COUNT>  (1) 
15

>  <PUBCHEM_ATOM_DEF_STEREO_COUNT>  (1) 
0

>  <PUBCHEM_ATOM_UDEF_STEREO_COUNT>  (1) 
1

>  <PUBCHEM_BOND_DEF_STEREO_COUNT>  (1) 
0

>  <PUBCHEM_BOND_UDEF_STEREO_COUNT>  (1) 
0

>  <PUBCHEM_ISOTOPIC_ATOM_COUNT>  (1) 
0

>  <PUBCHEM_COMPONENT_COUNT>  (1) 
1

>  <PUBCHEM_CACTVS_TAUTO_COUNT>  (1) 
2

>  <PUBCHEM_CONFORMER_ID>  (1) 
00005C7700000001

>  <PUBCHEM_MMFF94_ENERGY>  (1) 
36.2903

>  <PUBCHEM_FEATURE_SELFOVERLAP>  (1) 
20.297

>  <PUBCHEM_SHAPE_FINGERPRINT>  (1) 
11046707 91 18407760330627404807
11128504 68 17023194842184653878
12032990 46 18335703870793165409
12251169 10 18060699502526192479
124424 183 17632576046249632433
12500047 106 18338229376019559845
12507560 40 18201997776419636897
13288520 33 18411704261988781630
13296908 3 18337105760934987873
15196674 1 18410293639835808222
15536298 74 18341893047172952496
17804303 29 18341898497787092349
17834072 8 18334007281834331655
17834074 16 18412826880329645838
18175812 5 18272086127746451557
18186145 218 16298665087645310029
18785283 64 18055338383479276552
19141452 34 18342177786921140903
200 152 17632572760457044111
20281407 28 18409167697047702104
20281475 54 18336827498662289026
20374829 77 18335136483885566618
20645477 70 17989203763267171694
20871999 31 17822286868916428309
21267235 1 18335993033867201259
22169311 14 18059857289768092041
22485316 2 18335419054099848330
23175994 123 17418096503067567384
23402539 116 17530680988046640358
23463225 33 18408042914006488295
23557571 272 18338521820548642148
23559900 14 18341323478717509441
2871803 45 18260825986417372846
42 15 18341897402554497203
4214541 1 18411139104184962057
4921388 177 16226342494188692019
5104073 3 18412544331537207152
7364860 26 18192435400917988781
77779 3 18412265059878783392
83771 10 18409449197688714940
8809292 202 18335704965683096810
9709674 26 18192992849213170971

>  <PUBCHEM_SHAPE_MULTIPOLES>  (1) 
286.1
9.42
1.76
0.79
4.51
0.02
-0.11
3.48
-0.06
-0.14
-0.03
0.22
-0.27
0.67

>  <PUBCHEM_SHAPE_SELFOVERLAP>  (1) 
587.357

>  <PUBCHEM_SHAPE_VOLUME>  (1) 
164.8

>  <PUBCHEM_COORDINATE_TYPE>  (1) 
2
5
10

$$$$
