23683
     RDKit          3D

 10  9  0  0  0  0  0  0  0  0999 V2000
   -2.6232    0.1906   -0.2162 O   0  0  0  0  0  0  0  0  0  0  0  0
    2.6232    0.1907    0.2161 O   0  0  0  0  0  0  0  0  0  0  0  0
   -1.9349   -0.9727    0.2214 C   0  0  0  0  0  0  0  0  0  0  0  0
    1.9350   -0.9728   -0.2214 C   0  0  0  0  0  0  0  0  0  0  0  0
   -0.5617   -0.9676   -0.3661 C   0  0  0  0  0  0  0  0  0  0  0  0
    0.5617   -0.9676    0.3662 C   0  0  0  0  0  0  0  0  0  0  0  0
   -3.9423    0.2462    0.3104 C   0  0  0  0  0  0  0  0  0  0  0  0
    3.9423    0.2461   -0.3104 C   0  0  0  0  0  0  0  0  0  0  0  0
   -4.6206    1.5034   -0.1904 C   0  0  0  0  0  0  0  0  0  0  0  0
    4.6205    1.5036    0.1903 C   0  0  0  0  0  0  0  0  0  0  0  0
  1  3  1  0
  1  7  1  0
  2  4  1  0
  2  8  1  0
  3  5  1  0
  4  6  1  0
  5  6  2  0
  7  9  1  0
  8 10  1  0
M  END
>  <PUBCHEM_COMPOUND_CID>  (1) 
23683

>  <PUBCHEM_CONFORMER_RMSD>  (1) 
0.6

>  <PUBCHEM_CONFORMER_DIVERSEORDER>  (1) 
1
77
37
62
2
64
59
61
31
8
58
28
15
5
66
54
30
16
65
69
72
13
53
67
3
73
50
78
57
34
68
71
24
23
41
52
25
17
38
56
60
43
55
29
46
36
27
39
70
49
44
76
42
19
20
33
22
11
32
74
75
35
14
63
47
10
7
21
26
18
51
6
48
4
45
9
40
12

>  <PUBCHEM_MMFF94_PARTIAL_CHARGES>  (1) 
10
1 -0.56
15 0.15
16 0.15
2 -0.56
3 0.42
4 0.42
5 -0.29
6 -0.29
7 0.28
8 0.28

>  <PUBCHEM_EFFECTIVE_ROTOR_COUNT>  (1) 
6

>  <PUBCHEM_PHARMACOPHORE_FEATURES>  (1) 
2
1 1 acceptor
1 2 acceptor

>  <PUBCHEM_HEAVY_ATOM_COUNT>  (1) 
10

>  <PUBCHEM_ATOM_DEF_STEREO_COUNT>  (1) 
0

>  <PUBCHEM_ATOM_UDEF_STEREO_COUNT>  (1) 
0

>  <PUBCHEM_BOND_DEF_STEREO_COUNT>  (1) 
0

>  <PUBCHEM_BOND_UDEF_STEREO_COUNT>  (1) 
1

>  <PUBCHEM_ISOTOPIC_ATOM_COUNT>  (1) 
0

>  <PUBCHEM_COMPONENT_COUNT>  (1) 
1

>  <PUBCHEM_CACTVS_TAUTO_COUNT>  (1) 
1

>  <PUBCHEM_CONFORMER_ID>  (1) 
00005C8300000001

>  <PUBCHEM_MMFF94_ENERGY>  (1) 
7.324

>  <PUBCHEM_FEATURE_SELFOVERLAP>  (1) 
10.149

>  <PUBCHEM_SHAPE_FINGERPRINT>  (1) 
100836 57 18335146409929475684
11987891 38 9439402436555319629
122479 349 18261958552171247338
13690532 89 9799691497635003981
14123255 352 18334572426052285149
14123255 52 18410572885645318982
1420 369 8502655917333350872
14252887 29 13479126874680643392
15477762 27 10303808792005471050
15501527 16 18411422847136455256
177051 138 9079116657020534010
20605781 2 18411138022180205609
20645477 70 17274556347031340038
20671657 53 10231752309926450379
20767249 142 9655579612653100164
20871999 31 17203035396234955671
21119208 17 15841552976588538628
22926399 37 18060140937982404409
22959321 54 18341614780537000448
22959321 60 18187090576057789755
23402655 69 17846498114669905061
23403322 49 9943812179243186717
23500284 214 18260269663376716051
449060 50 18409172103884679263

>  <PUBCHEM_SHAPE_MULTIPOLES>  (1) 
194.06
10.33
1.49
0.67
0
0.36
0
7.09
0
0
0
0
-0.02
0.3

>  <PUBCHEM_SHAPE_SELFOVERLAP>  (1) 
345.906

>  <PUBCHEM_SHAPE_VOLUME>  (1) 
126.9

>  <PUBCHEM_COORDINATE_TYPE>  (1) 
2
5
10

$$$$
