2368
     RDKit          3D

 13 13  0  0  0  0  0  0  0  0999 V2000
    1.0733    0.8192   -0.7501 N   0  0  0  0  0  0  0  0  0  0  0  0
    3.0418    0.7001    0.5062 N   0  0  0  0  0  0  0  0  0  0  0  0
    2.1239   -1.2878   -0.3091 N   0  0  0  0  0  0  0  0  0  0  0  0
   -0.0674    0.3976   -1.5317 C   0  0  0  0  0  0  0  0  0  0  0  0
   -1.2736    0.1383   -0.6689 C   0  0  0  0  0  0  0  0  0  0  0  0
   -1.4822   -1.1319   -0.1503 C   0  0  0  0  0  0  0  0  0  0  0  0
   -2.1598    1.1732   -0.4045 C   0  0  0  0  0  0  0  0  0  0  0  0
    2.0648    0.0115   -0.2009 C   0  0  0  0  0  0  0  0  0  0  0  0
   -2.5999   -1.3721    0.6490 C   0  0  0  0  0  0  0  0  0  0  0  0
   -3.2773    0.9329    0.3948 C   0  0  0  0  0  0  0  0  0  0  0  0
   -3.4974   -0.3399    0.9216 C   0  0  0  0  0  0  0  0  0  0  0  0
    2.8197    1.9395    1.2151 C   0  0  0  0  0  0  0  0  0  0  0  0
    3.2343   -1.9805    0.3287 C   0  0  0  0  0  0  0  0  0  0  0  0
  1  4  1  0
  1  8  1  0
  2  8  1  0
  2 12  1  0
  3  8  2  0
  3 13  1  0
  4  5  1  0
  5  6  2  0
  5  7  1  0
  6  9  1  0
  7 10  2  0
  9 11  2  0
 10 11  1  0
M  END
>  <PUBCHEM_COMPOUND_CID>  (1) 
2368

>  <PUBCHEM_CONFORMER_RMSD>  (1) 
0.6

>  <PUBCHEM_CONFORMER_DIVERSEORDER>  (1) 
2
30
36
8
46
25
38
37
48
10
31
45
19
40
39
47
35
50
15
17
12
44
42
21
6
32
51
11
23
29
26
1
34
43
13
20
24
49
7
22
9
14
28
3
27
16
18
41
33
5
4

>  <PUBCHEM_MMFF94_PARTIAL_CHARGES>  (1) 
20
1 -0.82
10 -0.15
11 -0.15
12 0.37
13 0.25
16 0.4
17 0.15
18 0.15
19 0.15
2 -0.82
20 0.15
21 0.15
22 0.4
3 -0.7
4 0.51
5 -0.14
6 -0.15
7 -0.15
8 0.55
9 -0.15

>  <PUBCHEM_EFFECTIVE_ROTOR_COUNT>  (1) 
4

>  <PUBCHEM_PHARMACOPHORE_FEATURES>  (1) 
4
1 1 donor
1 2 donor
4 1 2 3 8 cation
6 5 6 7 9 10 11 rings

>  <PUBCHEM_HEAVY_ATOM_COUNT>  (1) 
13

>  <PUBCHEM_ATOM_DEF_STEREO_COUNT>  (1) 
0

>  <PUBCHEM_ATOM_UDEF_STEREO_COUNT>  (1) 
0

>  <PUBCHEM_BOND_DEF_STEREO_COUNT>  (1) 
0

>  <PUBCHEM_BOND_UDEF_STEREO_COUNT>  (1) 
0

>  <PUBCHEM_ISOTOPIC_ATOM_COUNT>  (1) 
0

>  <PUBCHEM_COMPONENT_COUNT>  (1) 
1

>  <PUBCHEM_CACTVS_TAUTO_COUNT>  (1) 
2

>  <PUBCHEM_CONFORMER_ID>  (1) 
0000094000000002

>  <PUBCHEM_MMFF94_ENERGY>  (1) 
38.0091

>  <PUBCHEM_FEATURE_SELFOVERLAP>  (1) 
20.34

>  <PUBCHEM_SHAPE_FINGERPRINT>  (1) 
10366900 7 18267866257937778440
10799339 124 18335425646932637633
12251169 10 18409453621679096741
12382932 28 18335135427254962105
12897270 3 10015865366586536437
12932764 1 18272937145393224348
13296908 3 17894629231886081094
13764800 53 14548739559887507655
15775835 57 17275101785970279400
17804303 29 18264498286244511303
17834069 15 18335425608372884007
19049666 15 18265044726391086972
201361 129 18272652398147546544
20361792 2 15791730827758416127
20528008 55 18411415129164444949
20653085 51 10159711208789402687
20715346 28 18260542303616241957
22169311 14 18339927017398134905
3248919 1 17968095364896602485
369184 2 18201721760546436149
5262128 65 8430325674729505474
81228 2 17313929815103099597

>  <PUBCHEM_SHAPE_MULTIPOLES>  (1) 
252.59
6.46
1.86
1.14
0.71
0.23
0.11
0.33
-2.44
1.3
-0.47
0.04
-0.29
0.71

>  <PUBCHEM_SHAPE_SELFOVERLAP>  (1) 
505.887

>  <PUBCHEM_SHAPE_VOLUME>  (1) 
147.6

>  <PUBCHEM_COORDINATE_TYPE>  (1) 
2
5
10

$$$$
