23698
     RDKit          3D

 13 14  0  0  0  0  0  0  0  0999 V2000
   -2.0658   -2.0724   -0.0138 O   0  0  0  0  0  0  0  0  0  0  0  0
    1.3134    1.0059   -0.0373 N   0  0  0  0  0  0  0  0  0  0  0  0
   -0.0483    0.8901   -0.0633 C   0  0  0  0  0  0  0  0  0  0  0  0
   -1.0054    2.0244   -0.1148 C   0  0  0  0  0  0  0  0  0  0  0  0
   -0.3703   -0.4507   -0.0350 C   0  0  0  0  0  0  0  0  0  0  0  0
   -2.3657    1.5456    0.4187 C   0  0  0  0  0  0  0  0  0  0  0  0
    0.8445   -1.1739    0.0193 C   0  0  0  0  0  0  0  0  0  0  0  0
   -2.8058    0.2129   -0.2088 C   0  0  0  0  0  0  0  0  0  0  0  0
    1.8688   -0.2489    0.0150 C   0  0  0  0  0  0  0  0  0  0  0  0
   -1.7537   -0.8857   -0.0556 C   0  0  0  0  0  0  0  0  0  0  0  0
    2.0552    2.2483   -0.0553 C   0  0  0  0  0  0  0  0  0  0  0  0
    1.0002   -2.6419    0.0730 C   0  0  0  0  0  0  0  0  0  0  0  0
    3.3329   -0.4537    0.0578 C   0  0  0  0  0  0  0  0  0  0  0  0
  1 10  2  0
  2  3  1  0
  2  9  1  0
  2 11  1  0
  3  4  1  0
  3  5  2  0
  4  6  1  0
  5  7  1  0
  5 10  1  0
  6  8  1  0
  7  9  2  0
  7 12  1  0
  8 10  1  0
  9 13  1  0
M  END
>  <PUBCHEM_COMPOUND_CID>  (1) 
23698

>  <PUBCHEM_CONFORMER_RMSD>  (1) 
0.4

>  <PUBCHEM_CONFORMER_DIVERSEORDER>  (1) 
1

>  <PUBCHEM_MMFF94_PARTIAL_CHARGES>  (1) 
12
1 -0.57
10 0.6
11 0.26
12 0.18
13 0.18
2 0.05
3 -0.33
4 0.18
5 -0.09
7 -0.18
8 0.06
9 -0.33

>  <PUBCHEM_EFFECTIVE_ROTOR_COUNT>  (1) 
0.6

>  <PUBCHEM_PHARMACOPHORE_FEATURES>  (1) 
4
1 1 acceptor
1 2 cation
5 2 3 5 7 9 rings
6 3 4 5 6 8 10 rings

>  <PUBCHEM_HEAVY_ATOM_COUNT>  (1) 
13

>  <PUBCHEM_ATOM_DEF_STEREO_COUNT>  (1) 
0

>  <PUBCHEM_ATOM_UDEF_STEREO_COUNT>  (1) 
0

>  <PUBCHEM_BOND_DEF_STEREO_COUNT>  (1) 
0

>  <PUBCHEM_BOND_UDEF_STEREO_COUNT>  (1) 
0

>  <PUBCHEM_ISOTOPIC_ATOM_COUNT>  (1) 
0

>  <PUBCHEM_COMPONENT_COUNT>  (1) 
1

>  <PUBCHEM_CACTVS_TAUTO_COUNT>  (1) 
2

>  <PUBCHEM_CONFORMER_ID>  (1) 
00005C9200000001

>  <PUBCHEM_MMFF94_ENERGY>  (1) 
15.7786

>  <PUBCHEM_FEATURE_SELFOVERLAP>  (1) 
20.383

>  <PUBCHEM_SHAPE_FINGERPRINT>  (1) 
10967382 1 18266458715487053900
11132069 177 18336821996972752216
11206711 2 18409167688426099916
12382932 28 18194958539701026162
12423570 1 12327005917233001600
12524768 44 18335422327028380253
13140716 1 18410576231440537353
13380535 21 18195541302191085406
13380535 76 18339074878722862351
16945 1 18338234868908029037
193761 8 18410575076088975087
19973954 147 18411139181399349896
20588541 1 18337675187493285348
21501502 16 18411421755977482532
2334 1 18194119852615034260
23463225 33 18190738635912643394
23552423 10 18335702766648966781
23559900 14 18199193898159047854
241688 4 17617940231717298841
2748010 2 18265614466645319413
5084963 1 18130791195722815306
5255222 1 18337105644786507972
528886 8 18410568479045660290
53812653 166 18270393876477804600
63268167 104 18193839232553268881
66348 1 18410572902988510631
7364860 26 18270679766675529558

>  <PUBCHEM_SHAPE_MULTIPOLES>  (1) 
256.68
4.03
2.66
0.62
0.31
0.29
-0.01
-0.29
-0.09
0.26
-0.02
-0.04
-0.03
-0.15

>  <PUBCHEM_SHAPE_SELFOVERLAP>  (1) 
545.644

>  <PUBCHEM_SHAPE_VOLUME>  (1) 
146.2

>  <PUBCHEM_COORDINATE_TYPE>  (1) 
2
5
10

$$$$
