23699
     RDKit          3D

 14 15  0  0  0  0  0  0  0  0999 V2000
   -0.9362   -2.2617    0.0009 O   0  0  0  0  0  0  0  0  0  0  0  0
    1.1693    2.4444    0.0008 O   0  0  0  0  0  0  0  0  0  0  0  0
   -1.4775   -1.0995    0.0000 N   0  0  0  0  0  0  0  0  0  0  0  0
    1.5974    1.0851   -0.0007 N   0  0  0  0  0  0  0  0  0  0  0  0
   -0.6834    0.1481   -0.0006 C   0  0  0  0  0  0  0  0  0  0  0  0
    0.6589    0.0338   -0.0010 C   0  0  0  0  0  0  0  0  0  0  0  0
   -1.3869    1.4088   -0.0004 C   0  0  0  0  0  0  0  0  0  0  0  0
    1.2277   -1.3278   -0.0012 C   0  0  0  0  0  0  0  0  0  0  0  0
   -2.9420   -0.9927    0.0004 C   0  0  0  0  0  0  0  0  0  0  0  0
   -2.7246    1.4430    0.0000 C   0  0  0  0  0  0  0  0  0  0  0  0
    2.9624    0.8324    0.0005 C   0  0  0  0  0  0  0  0  0  0  0  0
    2.5577   -1.5304   -0.0003 C   0  0  0  0  0  0  0  0  0  0  0  0
   -3.4958    0.2258    0.0005 C   0  0  0  0  0  0  0  0  0  0  0  0
    3.4729   -0.4093    0.0012 C   0  0  0  0  0  0  0  0  0  0  0  0
  1  3  2  0
  2  4  1  0
  3  5  1  0
  3  9  1  0
  4  6  1  0
  4 11  1  0
  5  6  2  0
  5  7  1  0
  6  8  1  0
  7 10  2  0
  8 12  2  0
  9 13  2  0
 10 13  1  0
 11 14  2  0
 12 14  1  0
M  CHG  2   2  -1   3   1
M  END
>  <PUBCHEM_COMPOUND_CID>  (1) 
23699

>  <PUBCHEM_CONFORMER_RMSD>  (1) 
0.4

>  <PUBCHEM_CONFORMER_DIVERSEORDER>  (1) 
1

>  <PUBCHEM_MMFF94_PARTIAL_CHARGES>  (1) 
22
1 -0.63
10 -0.15
11 -0.19
12 -0.15
13 -0.15
14 -0.15
15 0.15
16 0.15
17 0.15
18 0.15
19 0.15
2 -0.86
20 0.15
21 0.15
22 0.15
3 0.71
4 -0.07
5 -0.04
6 -0.04
7 -0.15
8 -0.15
9 -0.19

>  <PUBCHEM_EFFECTIVE_ROTOR_COUNT>  (1) 
0.2

>  <PUBCHEM_PHARMACOPHORE_FEATURES>  (1) 
3
1 2 anion
6 3 5 7 9 10 13 rings
6 4 6 8 11 12 14 rings

>  <PUBCHEM_HEAVY_ATOM_COUNT>  (1) 
14

>  <PUBCHEM_ATOM_DEF_STEREO_COUNT>  (1) 
0

>  <PUBCHEM_ATOM_UDEF_STEREO_COUNT>  (1) 
0

>  <PUBCHEM_BOND_DEF_STEREO_COUNT>  (1) 
0

>  <PUBCHEM_BOND_UDEF_STEREO_COUNT>  (1) 
1

>  <PUBCHEM_ISOTOPIC_ATOM_COUNT>  (1) 
0

>  <PUBCHEM_COMPONENT_COUNT>  (1) 
1

>  <PUBCHEM_CACTVS_TAUTO_COUNT>  (1) 
2

>  <PUBCHEM_CONFORMER_ID>  (1) 
00005C9300000001

>  <PUBCHEM_MMFF94_ENERGY>  (1) 
91.7335

>  <PUBCHEM_FEATURE_SELFOVERLAP>  (1) 
15.223

>  <PUBCHEM_SHAPE_FINGERPRINT>  (1) 
10608611 8 18410851057818741168
10967382 1 18410575054608954790
10980938 120 18408887308903419658
11132069 177 18411411783020931000
11471102 20 18410569578757670205
12032990 46 18339648836798678694
12382932 28 18339918221568856992
12932764 1 17561074834669331175
13221675 6 18410293622571452039
13380535 76 18411698781299600262
14144814 61 18410573967976856826
14325111 11 18410855425810705889
14790565 3 15029514849454737998
15196674 1 18410856542459926886
15442244 35 18194964045875499154
15536298 74 18343301457618247698
15775835 57 18261961751673865493
16945 1 18338517550765275110
17844478 74 18113346297197687201
18186145 218 18269840817617748981
193761 8 18050568735489613446
19973954 147 18410294747931991889
200 152 18059562595177300629
20201158 50 18411981347187220683
20510252 161 18272652316268894041
20871998 184 18200879581837292575
21267235 1 18410865338637715402
21501502 16 18410575123317791149
2334 1 18338797814571751302
23402539 116 18271231734139028006
23402655 69 18341604876764409165
23463225 33 18336546010705854282
23552423 10 18263082278508010149
23559900 14 18342742889259507758
2748010 2 18266740190463764734
5104073 3 18410573976566792298
528886 8 18411413977970778386
53812653 166 18342451552230861456
69090 78 18341888589424297039
7364860 26 18270398412021564080
8809292 202 18261116300162511338
9709674 26 18412267254586485950

>  <PUBCHEM_SHAPE_MULTIPOLES>  (1) 
266.41
5.64
2.11
0.59
0.15
0.14
0
-0.06
0
-0.07
0
0
0
0

>  <PUBCHEM_SHAPE_SELFOVERLAP>  (1) 
569.705

>  <PUBCHEM_SHAPE_VOLUME>  (1) 
145

>  <PUBCHEM_COORDINATE_TYPE>  (1) 
2
5
10

$$$$
