23692
     RDKit          3D

 24 29  0  0  0  0  0  0  0  0999 V2000
   -2.2220   -2.7242    0.0000 O   0  0  0  0  0  0  0  0  0  0  0  0
    1.2017    0.2334    0.0002 C   0  0  0  0  0  0  0  0  0  0  0  0
    0.3240   -0.8805    0.0004 C   0  0  0  0  0  0  0  0  0  0  0  0
   -1.0457   -0.5981    0.0003 C   0  0  0  0  0  0  0  0  0  0  0  0
   -1.5575    0.7124    0.0004 C   0  0  0  0  0  0  0  0  0  0  0  0
    2.6052    0.0243    0.0001 C   0  0  0  0  0  0  0  0  0  0  0  0
    0.6902    1.5654    0.0003 C   0  0  0  0  0  0  0  0  0  0  0  0
   -3.0038    0.6734    0.0001 C   0  0  0  0  0  0  0  0  0  0  0  0
   -0.6956    1.7947    0.0004 C   0  0  0  0  0  0  0  0  0  0  0  0
    3.1290   -1.2899    0.0001 C   0  0  0  0  0  0  0  0  0  0  0  0
   -3.4280   -0.6622   -0.0003 C   0  0  0  0  0  0  0  0  0  0  0  0
    3.4884    1.1302   -0.0002 C   0  0  0  0  0  0  0  0  0  0  0  0
   -2.2217   -1.5125    0.0000 C   0  0  0  0  0  0  0  0  0  0  0  0
    0.8680   -2.1783    0.0004 C   0  0  0  0  0  0  0  0  0  0  0  0
    1.5850    2.6419    0.0000 C   0  0  0  0  0  0  0  0  0  0  0  0
    2.2491   -2.3775    0.0004 C   0  0  0  0  0  0  0  0  0  0  0  0
    2.9638    2.4282   -0.0004 C   0  0  0  0  0  0  0  0  0  0  0  0
   -3.9449    1.6886    0.0004 C   0  0  0  0  0  0  0  0  0  0  0  0
    4.5185   -1.4802   -0.0002 C   0  0  0  0  0  0  0  0  0  0  0  0
    4.8733    0.9079   -0.0005 C   0  0  0  0  0  0  0  0  0  0  0  0
   -4.7573   -1.0361   -0.0008 C   0  0  0  0  0  0  0  0  0  0  0  0
    5.3836   -0.3883   -0.0005 C   0  0  0  0  0  0  0  0  0  0  0  0
   -5.3009    1.3382    0.0001 C   0  0  0  0  0  0  0  0  0  0  0  0
   -5.7024   -0.0106   -0.0006 C   0  0  0  0  0  0  0  0  0  0  0  0
  1 13  2  0
  2  3  1  0
  2  6  1  0
  2  7  2  0
  3  4  2  0
  3 14  1  0
  4  5  1  0
  4 13  1  0
  5  8  1  0
  5  9  2  0
  6 10  2  0
  6 12  1  0
  7  9  1  0
  7 15  1  0
  8 11  2  0
  8 18  1  0
 10 16  1  0
 10 19  1  0
 11 13  1  0
 11 21  1  0
 12 17  1  0
 12 20  2  0
 14 16  2  0
 15 17  2  0
 18 23  2  0
 19 22  2  0
 20 22  1  0
 21 24  2  0
 23 24  1  0
M  END
>  <PUBCHEM_COMPOUND_CID>  (1) 
23692

>  <PUBCHEM_CONFORMER_RMSD>  (1) 
0.6

>  <PUBCHEM_CONFORMER_DIVERSEORDER>  (1) 
1

>  <PUBCHEM_MMFF94_PARTIAL_CHARGES>  (1) 
28
1 -0.57
11 0.09
13 0.4
14 -0.15
15 -0.15
16 -0.15
17 -0.15
18 -0.15
19 -0.15
20 -0.15
21 -0.15
22 -0.15
23 -0.15
24 -0.15
25 0.15
26 0.15
27 0.15
28 0.15
29 0.15
30 0.15
31 0.15
32 0.15
33 0.15
34 0.15
35 0.15
36 0.15
4 0.09
9 -0.15

>  <PUBCHEM_EFFECTIVE_ROTOR_COUNT>  (1) 
0

>  <PUBCHEM_PHARMACOPHORE_FEATURES>  (1) 
7
1 1 acceptor
5 4 5 8 11 13 rings
6 2 3 4 5 7 9 rings
6 2 3 6 10 14 16 rings
6 2 6 7 12 15 17 rings
6 6 10 12 19 20 22 rings
6 8 11 18 21 23 24 rings

>  <PUBCHEM_HEAVY_ATOM_COUNT>  (1) 
24

>  <PUBCHEM_ATOM_DEF_STEREO_COUNT>  (1) 
0

>  <PUBCHEM_ATOM_UDEF_STEREO_COUNT>  (1) 
0

>  <PUBCHEM_BOND_DEF_STEREO_COUNT>  (1) 
0

>  <PUBCHEM_BOND_UDEF_STEREO_COUNT>  (1) 
0

>  <PUBCHEM_ISOTOPIC_ATOM_COUNT>  (1) 
0

>  <PUBCHEM_COMPONENT_COUNT>  (1) 
1

>  <PUBCHEM_CACTVS_TAUTO_COUNT>  (1) 
1

>  <PUBCHEM_CONFORMER_ID>  (1) 
00005C8C00000001

>  <PUBCHEM_MMFF94_ENERGY>  (1) 
92.8866

>  <PUBCHEM_FEATURE_SELFOVERLAP>  (1) 
35.817

>  <PUBCHEM_SHAPE_FINGERPRINT>  (1) 
10411042 1 17906171746532203238
10616163 171 18339644567564432151
10906281 52 18339381685305622666
10967382 1 18410855443296478210
1100329 8 18410572911747549274
11578080 2 13841992173071968068
12011746 2 18410860945402759774
12107183 9 17620479012993508649
12236239 1 17846498127850193033
12553582 1 18337940212866545598
12788726 201 17631743676955532465
12838862 33 18339060654339856136
13140716 1 18338793528405523168
13402501 40 18409167692731531828
138480 1 17906170646767218475
13862211 1 18410289194713468418
14341114 176 18410862066004283889
14790565 3 18410862031528799697
15099037 51 18411138026179566045
15196674 1 18410575088958046209
15536298 74 18413671313701876417
15927050 60 17910390925230281028
1601671 61 18411136922584025900
16087824 20 18265897947826444837
16728300 4 17317860496928419522
17349148 13 18060702788408470721
17492 89 18193276518802527939
1813 80 17095522898455025676
18681886 176 18272082825375536946
19591789 44 18338797926240920527
200 152 18131067134571135801
20028762 73 18201995551405577574
20691752 17 17531514486279407794
21033648 144 18336534027594365165
21033648 29 17749655342936764181
21267235 1 18411145726966536207
21279426 13 18266178335721826877
21421861 104 17896310316894029770
21709351 56 18410848876249421605
221490 88 18264213671794315882
23227448 37 18413106190806701311
23402539 116 18343858905628931343
23558518 356 17827357992489976426
23559900 14 18413102887802640800
3004659 81 18260832579787933460
335352 9 18410573963761011140
338550 245 18335142041588935828
34797466 226 16559032726789662464
34934 24 18411133628117574854
350125 39 18410013225790054637
3545911 37 18411702088376523113
3633792 109 18339353073325942357
3680242 22 18262234409410058090
4073 2 18041003976608183819
4214541 1 18410856564367461925
474 4 17895197748117169940
5104073 3 18410012143642452019
543358 83 18411421682931065314
59755656 215 18339930316571731350
6138700 20 18337675218212450374
6443956 14 18410014334192394916
9709674 26 18410860983836412823
9981440 41 17472696309326120160

>  <PUBCHEM_SHAPE_MULTIPOLES>  (1) 
488.04
11.28
2.76
0.61
4.89
0.03
0
-0.45
0
-0.92
0
-0.01
-0.01
0

>  <PUBCHEM_SHAPE_SELFOVERLAP>  (1) 
1163.667

>  <PUBCHEM_SHAPE_VOLUME>  (1) 
244.3

>  <PUBCHEM_COORDINATE_TYPE>  (1) 
2
5
10

$$$$
