23693
     RDKit          3D

 23 25  0  0  0  0  0  0  0  0999 V2000
    0.5818   -1.2427   -0.2091 S   0  0  0  0  0  0  0  0  0  0  0  0
    0.5160   -0.7929   -1.5897 O   0  0  0  0  0  0  0  0  0  0  0  0
    0.3294   -2.6342    0.1270 O   0  0  0  0  0  0  0  0  0  0  0  0
    4.5988   -1.2783    0.2264 N   0  0  0  0  0  0  0  0  0  0  0  0
   -0.5010   -0.2360    0.7529 C   0  0  0  0  0  0  0  0  0  0  0  0
    2.1946   -0.8254    0.4139 C   0  0  0  0  0  0  0  0  0  0  0  0
   -0.1582    1.2175    0.5367 C   0  0  0  0  0  0  0  0  0  0  0  0
   -1.9291   -0.6530    0.5012 C   0  0  0  0  0  0  0  0  0  0  0  0
    3.2779   -1.6404   -0.2729 C   0  0  0  0  0  0  0  0  0  0  0  0
   -0.4808    1.9400   -0.6272 C   0  0  0  0  0  0  0  0  0  0  0  0
   -2.6458   -0.3473   -0.6711 C   0  0  0  0  0  0  0  0  0  0  0  0
    0.5427    1.8800    1.5672 C   0  0  0  0  0  0  0  0  0  0  0  0
   -2.5718   -1.4089    1.5047 C   0  0  0  0  0  0  0  0  0  0  0  0
   -1.1681    1.3663   -1.7915 C   0  0  0  0  0  0  0  0  0  0  0  0
   -2.0887    0.3934   -1.8101 C   0  0  0  0  0  0  0  0  0  0  0  0
   -0.0815    3.2865   -0.7343 C   0  0  0  0  0  0  0  0  0  0  0  0
   -3.9661   -0.8173   -0.8130 C   0  0  0  0  0  0  0  0  0  0  0  0
    0.9189    3.2173    1.4512 C   0  0  0  0  0  0  0  0  0  0  0  0
   -3.8841   -1.8554    1.3545 C   0  0  0  0  0  0  0  0  0  0  0  0
    0.6073    3.9216    0.2977 C   0  0  0  0  0  0  0  0  0  0  0  0
   -4.5820   -1.5599    0.1928 C   0  0  0  0  0  0  0  0  0  0  0  0
    4.8547    0.1485    0.0205 C   0  0  0  0  0  0  0  0  0  0  0  0
    5.6351   -2.0792   -0.4279 C   0  0  0  0  0  0  0  0  0  0  0  0
  1  2  2  0
  1  3  2  0
  1  5  1  0
  1  6  1  0
  4  9  1  0
  4 22  1  0
  4 23  1  0
  5  7  1  0
  5  8  1  0
  6  9  1  0
  7 10  2  0
  7 12  1  0
  8 11  2  0
  8 13  1  0
 10 14  1  0
 10 16  1  0
 11 15  1  0
 11 17  1  0
 12 18  2  0
 13 19  2  0
 14 15  2  0
 16 20  2  0
 17 21  2  0
 18 20  1  0
 19 21  1  0
M  END
>  <PUBCHEM_COMPOUND_CID>  (1) 
23693

>  <PUBCHEM_CONFORMER_RMSD>  (1) 
0.8

>  <PUBCHEM_CONFORMER_DIVERSEORDER>  (1) 
1
6
11
5
13
2
4
9
12
7
10
3
8

>  <PUBCHEM_MMFF94_PARTIAL_CHARGES>  (1) 
33
1 1.09
10 0.03
11 0.03
12 -0.15
13 -0.15
14 -0.18
15 -0.18
16 -0.15
17 -0.15
18 -0.15
19 -0.15
2 -0.65
20 -0.15
21 -0.15
22 0.27
23 0.27
29 0.15
3 -0.65
30 0.15
31 0.15
32 0.15
33 0.15
34 0.15
35 0.15
36 0.15
37 0.15
38 0.15
4 -0.81
5 0.39
6 0.11
7 -0.14
8 -0.14
9 0.27

>  <PUBCHEM_EFFECTIVE_ROTOR_COUNT>  (1) 
4.2

>  <PUBCHEM_PHARMACOPHORE_FEATURES>  (1) 
6
1 2 acceptor
1 3 acceptor
1 4 cation
6 7 10 12 16 18 20 rings
6 8 11 13 17 19 21 rings
7 5 7 8 10 11 14 15 rings

>  <PUBCHEM_HEAVY_ATOM_COUNT>  (1) 
23

>  <PUBCHEM_ATOM_DEF_STEREO_COUNT>  (1) 
0

>  <PUBCHEM_ATOM_UDEF_STEREO_COUNT>  (1) 
0

>  <PUBCHEM_BOND_DEF_STEREO_COUNT>  (1) 
0

>  <PUBCHEM_BOND_UDEF_STEREO_COUNT>  (1) 
0

>  <PUBCHEM_ISOTOPIC_ATOM_COUNT>  (1) 
0

>  <PUBCHEM_COMPONENT_COUNT>  (1) 
1

>  <PUBCHEM_CACTVS_TAUTO_COUNT>  (1) 
1

>  <PUBCHEM_CONFORMER_ID>  (1) 
00005C8D00000001

>  <PUBCHEM_MMFF94_ENERGY>  (1) 
72.0576

>  <PUBCHEM_FEATURE_SELFOVERLAP>  (1) 
30.478

>  <PUBCHEM_SHAPE_FINGERPRINT>  (1) 
10670039 82 18338535049780786252
10764073 3 14114745647177688372
11045515 52 18410009918728221948
11112241 14 16482460706050512024
11315181 36 14201696243117306830
11578080 2 13049552234226428855
12035758 1 18264479770708745800
12293681 160 17762031273667235205
12788726 201 18049429349496432833
13027679 85 18410007706909949733
13134695 92 18341053029164291117
13140716 1 18341901736224556688
133893 2 17982996036675934621
13544653 18 18410017641011017258
13911987 19 18410577301367845014
14142880 1 17844251726515084817
14347332 77 18197221348128561286
14713325 29 17983582901476881242
14787075 74 18260831552821705910
14840074 17 17845937446045978628
14955137 171 17916320478857182086
16945 1 17686330276436523037
17357779 13 18340756083451395764
17980427 23 17560815299060990817
17980427 26 17484796370428543017
1813 80 18059870466521917662
18785283 64 17975974585491359760
20510252 161 18262519187190329498
20600515 1 18191049891718006111
21029758 27 18413109471976708978
21041028 32 18272656757412887937
21061003 4 18411982468511308123
21304303 282 17396390859472156772
21339142 36 18338793420815004350
22182313 1 18192124161796733216
23175994 123 18409731768098487275
23419403 2 18262506108819617797
23557571 272 18266744584595363742
23558518 356 17330822527179314767
23559900 14 17749103439100806942
23566358 27 18052250997345215119
2748010 2 18045751676660120861
283562 15 18265056838631651434
3729539 64 17975158705431199660
458136 41 17762063533350717865
81228 2 17979659847872279337
84936 31 18127969930564173605
9981440 41 17481119229993576262

>  <PUBCHEM_SHAPE_MULTIPOLES>  (1) 
460.46
7.96
3.85
1.54
7.11
4.07
-0.14
-8.65
-0.1
1.68
0.69
-0.95
0.46
1.4

>  <PUBCHEM_SHAPE_SELFOVERLAP>  (1) 
978.83

>  <PUBCHEM_SHAPE_VOLUME>  (1) 
256.1

>  <PUBCHEM_COORDINATE_TYPE>  (1) 
2
5
10

$$$$
