23697
     RDKit          3D

 16 17  0  0  0  0  0  0  0  0999 V2000
   -3.3050   -1.7527   -0.0040 O   0  0  0  0  0  0  0  0  0  0  0  0
    2.9848    0.4704   -0.0080 O   0  0  0  0  0  0  0  0  0  0  0  0
    2.6084   -1.7995    0.0648 O   0  0  0  0  0  0  0  0  0  0  0  0
    0.3290    1.0197   -0.0599 N   0  0  0  0  0  0  0  0  0  0  0  0
   -1.0378    1.0228   -0.0751 C   0  0  0  0  0  0  0  0  0  0  0  0
   -1.8929    2.2361   -0.1213 C   0  0  0  0  0  0  0  0  0  0  0  0
   -1.4750   -0.2848   -0.0416 C   0  0  0  0  0  0  0  0  0  0  0  0
   -3.2853    1.8782    0.4238 C   0  0  0  0  0  0  0  0  0  0  0  0
   -3.8448    0.5881   -0.1977 C   0  0  0  0  0  0  0  0  0  0  0  0
   -0.3273   -1.1109    0.0045 C   0  0  0  0  0  0  0  0  0  0  0  0
   -2.8912   -0.5977   -0.0506 C   0  0  0  0  0  0  0  0  0  0  0  0
    0.7735   -0.2787   -0.0096 C   0  0  0  0  0  0  0  0  0  0  0  0
   -0.3042   -2.5877    0.0599 C   0  0  0  0  0  0  0  0  0  0  0  0
    2.1591   -0.6316    0.0199 C   0  0  0  0  0  0  0  0  0  0  0  0
    4.3985    0.2464    0.0160 C   0  0  0  0  0  0  0  0  0  0  0  0
    5.1101    1.5820   -0.0211 C   0  0  0  0  0  0  0  0  0  0  0  0
  1 11  2  0
  2 14  1  0
  2 15  1  0
  3 14  2  0
  4  5  1  0
  4 12  1  0
  5  6  1  0
  5  7  2  0
  6  8  1  0
  7 10  1  0
  7 11  1  0
  8  9  1  0
  9 11  1  0
 10 12  2  0
 10 13  1  0
 12 14  1  0
 15 16  1  0
M  END
>  <PUBCHEM_COMPOUND_CID>  (1) 
23697

>  <PUBCHEM_CONFORMER_RMSD>  (1) 
0.6

>  <PUBCHEM_CONFORMER_DIVERSEORDER>  (1) 
1
12
15
8
14
5
10
13
2
9
4
3
11
16
6
7

>  <PUBCHEM_MMFF94_PARTIAL_CHARGES>  (1) 
15
1 -0.57
10 -0.18
11 0.6
12 -0.24
13 0.18
14 0.81
15 0.28
2 -0.43
23 0.27
3 -0.57
4 0.03
5 -0.33
6 0.18
7 -0.09
9 0.06

>  <PUBCHEM_EFFECTIVE_ROTOR_COUNT>  (1) 
3.6

>  <PUBCHEM_PHARMACOPHORE_FEATURES>  (1) 
6
1 1 acceptor
1 3 acceptor
1 4 cation
1 4 donor
5 4 5 7 10 12 rings
6 5 6 7 8 9 11 rings

>  <PUBCHEM_HEAVY_ATOM_COUNT>  (1) 
16

>  <PUBCHEM_ATOM_DEF_STEREO_COUNT>  (1) 
0

>  <PUBCHEM_ATOM_UDEF_STEREO_COUNT>  (1) 
0

>  <PUBCHEM_BOND_DEF_STEREO_COUNT>  (1) 
0

>  <PUBCHEM_BOND_UDEF_STEREO_COUNT>  (1) 
0

>  <PUBCHEM_ISOTOPIC_ATOM_COUNT>  (1) 
0

>  <PUBCHEM_COMPONENT_COUNT>  (1) 
1

>  <PUBCHEM_CACTVS_TAUTO_COUNT>  (1) 
20

>  <PUBCHEM_CONFORMER_ID>  (1) 
00005C9100000001

>  <PUBCHEM_MMFF94_ENERGY>  (1) 
17.1346

>  <PUBCHEM_FEATURE_SELFOVERLAP>  (1) 
30.532

>  <PUBCHEM_SHAPE_FINGERPRINT>  (1) 
10014705 185 18187641384444977669
10411042 1 17546165663535940350
10493431 412 18341060614467056217
10608611 8 18267020561671050308
10967382 1 18338516326994968879
11132069 177 18334296431295413061
12173636 292 18410854322046523692
12346645 44 18409448042337179171
12390115 104 18200331947320556344
13140716 1 17905052803965192298
13214271 11 18413105086867743629
13380535 76 18410855469219587646
14325111 11 18338797814555907558
14614273 12 18115582639497934053
15196674 1 18410855430068684966
15536298 74 18341051813915276294
16945 1 18337399351851001183
18186145 218 18267869389211491316
193761 8 17545602713539457063
20510252 161 18343305859516731761
20645477 56 18411139156283706324
21501502 16 18267860580254841467
2334 1 18410854339189189815
23366157 5 18042691589987682626
23402539 116 18340197591695198590
23463225 33 18191022305021588747
23557571 272 18201167636323592318
23559900 14 18199749142535087774
2748010 2 18338520729125658775
34934 24 18336540539223344405
43471831 8 18334573503815062187
474 4 17603873355557784132
5104073 3 18409448072903156450
58051976 378 18412543202098048692
633830 44 18128538167321643404
7364860 26 17981043011793583150
77779 3 18412265008734639302
9709674 26 18411706491193340006

>  <PUBCHEM_SHAPE_MULTIPOLES>  (1) 
306.68
8.03
2.39
0.61
8.16
0.43
0
-3.52
-0.05
-0.77
-0.08
-0.07
-0.04
-0.14

>  <PUBCHEM_SHAPE_SELFOVERLAP>  (1) 
648.841

>  <PUBCHEM_SHAPE_VOLUME>  (1) 
173

>  <PUBCHEM_COORDINATE_TYPE>  (1) 
2
5
10

$$$$
