23691
     RDKit          3D

 17 16  0  0  0  0  0  0  0  0999 V2000
    3.4735    1.0673   -1.0956 N   0  0  0  0  0  0  0  0  0  0  0  0
   -0.5109   -2.9613    0.2152 C   0  0  0  0  0  0  0  0  0  0  0  0
    1.0144   -3.0299    0.1073 C   0  0  0  0  0  0  0  0  0  0  0  0
   -2.7179   -0.1978   -1.5724 C   0  0  0  0  0  0  0  0  0  0  0  0
   -2.1836   -1.1853   -0.5560 C   0  0  0  0  0  0  0  0  0  0  0  0
   -1.0738   -1.9310   -0.7231 C   0  0  0  0  0  0  0  0  0  0  0  0
   -2.9100    1.2204   -1.0192 C   0  0  0  0  0  0  0  0  0  0  0  0
    1.6670   -1.7317    0.5254 C   0  0  0  0  0  0  0  0  0  0  0  0
   -3.0163   -1.3405    0.6904 C   0  0  0  0  0  0  0  0  0  0  0  0
   -1.6106    1.8727   -0.6362 C   0  0  0  0  0  0  0  0  0  0  0  0
    2.4933   -1.0103   -0.2574 C   0  0  0  0  0  0  0  0  0  0  0  0
    1.3528   -1.2767    1.9259 C   0  0  0  0  0  0  0  0  0  0  0  0
    3.1923    0.2702    0.0938 C   0  0  0  0  0  0  0  0  0  0  0  0
   -1.2714    2.4214    0.5456 C   0  0  0  0  0  0  0  0  0  0  0  0
    0.0900    3.0361    0.7351 C   0  0  0  0  0  0  0  0  0  0  0  0
   -2.1491    2.4752    1.7633 C   0  0  0  0  0  0  0  0  0  0  0  0
    4.1602    2.3012   -0.7422 C   0  0  0  0  0  0  0  0  0  0  0  0
  1 13  1  0
  1 17  1  0
  2  3  1  0
  2  6  1  0
  3  8  1  0
  4  5  1  0
  4  7  1  0
  5  6  2  0
  5  9  1  0
  7 10  1  0
  8 11  2  0
  8 12  1  0
 10 14  2  3
 11 13  1  0
 14 15  1  0
 14 16  1  0
M  END
>  <PUBCHEM_COMPOUND_CID>  (1) 
23691

>  <PUBCHEM_CONFORMER_RMSD>  (1) 
0.8

>  <PUBCHEM_CONFORMER_DIVERSEORDER>  (1) 
2
69
213
96
450
442
146
339
373
407
251
175
258
91
429
32
165
206
205
303
461
286
85
354
342
182
218
209
420
160
458
357
404
410
464
210
394
322
204
117
16
441
261
371
239
415
238
396
438
334
174
119
107
133
45
296
242
236
134
440
460
399
414
445
316
112
318
131
366
106
348
353
377
282
463
220
234
340
248
23
459
176
335
5
305
395
124
260
294
88
143
103
163
439
369
393
12
120
311
337
216
31
327
388
232
326
81
279
281
427
49
350
403
471
179
397
130
136
406
53
422
402
259
208
207
391
456
433
308
68
200
187
418
144
295
324
424
457
197
333
313
149
301
380
229
297
161
376
58
341
118
27
265
347
13
93
364
245
111
292
190
444
331
323
405
241
299
40
291
349
285
108
162
249
256
466
14
367
352
199
170
100
368
310
432
408
37
314
288
95
328
11
454
246
186
4
428
15
225
309
22
387
195
320
449
185
201
365
10
446
431
39
235
56
465
191
71
87
250
275
128
416
317
202
52
345
140
47
436
33
358
392
102
189
383
151
150
287
77
451
38
98
101
329
375
273
244
315
359
435
34
470
75
254
3
90
167
183
141
61
263
188
21
332
196
198
231
203
330
386
467
57
168
92
372
181
19
413
390
147
30
268
421
154
278
116
114
274
83
272
269
385
70
76
64
60
109
153
270
243
462
257
121
84
178
412
307
443
266
219
65
159
74
437
157
180
409
363
336
193
18
55
469
113
360
86
362
67
217
148
346
382
110
99
115
72
343
145
240
447
355
267
426
224
252
137
277
221
59
44
169
35
172
194
233
370
80
338
379
41
453
247
401
105
104
228
351
283
62
417
79
290
302
48
6
411
455
215
319
8
155
82
24
280
28
293
306
46
448
271
66
284
389
262
129
214
97
289
344
54
36
276
152
374
135
222
300
472
264
400
452
125
20
1
237
434
171
89
164
132
173
321
384
192
50
304
94
361
51
184
29
177
26
226
468
255
142
123
212
43
42
378
325
430
425
63
166
398
211
9
25
419
312
253
78
423
230
73
138
139
223
158
227
356
298
17
156
381
127
126
7
122

>  <PUBCHEM_MMFF94_PARTIAL_CHARGES>  (1) 
21
1 -0.9
10 -0.29
11 -0.29
12 0.14
13 0.41
14 -0.28
15 0.14
16 0.14
17 0.27
2 0.14
24 0.15
3 0.14
30 0.15
31 0.15
4 0.14
43 0.36
5 -0.28
6 -0.29
7 0.14
8 -0.28
9 0.14

>  <PUBCHEM_EFFECTIVE_ROTOR_COUNT>  (1) 
8

>  <PUBCHEM_PHARMACOPHORE_FEATURES>  (1) 
7
1 1 cation
1 1 donor
1 12 hydrophobe
1 9 hydrophobe
3 14 15 16 hydrophobe
4 2 3 6 8 hydrophobe
4 4 5 7 10 hydrophobe

>  <PUBCHEM_HEAVY_ATOM_COUNT>  (1) 
17

>  <PUBCHEM_ATOM_DEF_STEREO_COUNT>  (1) 
0

>  <PUBCHEM_ATOM_UDEF_STEREO_COUNT>  (1) 
0

>  <PUBCHEM_BOND_DEF_STEREO_COUNT>  (1) 
0

>  <PUBCHEM_BOND_UDEF_STEREO_COUNT>  (1) 
2

>  <PUBCHEM_ISOTOPIC_ATOM_COUNT>  (1) 
0

>  <PUBCHEM_COMPONENT_COUNT>  (1) 
1

>  <PUBCHEM_CACTVS_TAUTO_COUNT>  (1) 
1

>  <PUBCHEM_CONFORMER_ID>  (1) 
00005C8B00000002

>  <PUBCHEM_MMFF94_ENERGY>  (1) 
15.7417

>  <PUBCHEM_FEATURE_SELFOVERLAP>  (1) 
35.567

>  <PUBCHEM_SHAPE_FINGERPRINT>  (1) 
10498660 4 18411974780271928711
128993 33 18056206773429380112
13899415 154 18270122435146272279
14123250 116 18342188755961841656
14251745 187 17548129386949600240
14787075 74 17825392044246048163
15003188 8 16680327207518182920
192875 21 17687434920170273335
20510252 161 18335986479298851262
20765182 40 18051968414858194832
21141583 151 18269843184598578700
23352939 185 17621052287748174458
23557571 272 17557104416978493479
3524813 1 17973154325143640174
353137 74 18335982055708889274
44154327 71 18054509097844209849
526903 126 18409447020272418132

>  <PUBCHEM_SHAPE_MULTIPOLES>  (1) 
344.87
5.89
4.37
1.49
3.96
0.52
0.37
2.79
-1.76
0.19
0.88
-0.46
0.39
-1.36

>  <PUBCHEM_SHAPE_SELFOVERLAP>  (1) 
645.057

>  <PUBCHEM_SHAPE_VOLUME>  (1) 
215.3

>  <PUBCHEM_COORDINATE_TYPE>  (1) 
2
5
10

$$$$
