23700
     RDKit          3D

 39 41  0  0  1  0  0  0  0  0999 V2000
   -3.5195    1.4159   -0.8281 P   0  0  0  0  0  0  0  0  0  0  0  0
   -1.3963    3.0926   -1.9848 P   0  0  0  0  0  0  0  0  0  0  0  0
    1.6243    1.1247    0.4068 O   0  0  0  0  0  0  0  0  0  0  0  0
   -3.4893   -1.7589    0.2159 O   0  0  0  0  0  0  0  0  0  0  0  0
   -2.4865    0.3383   -0.2158 O   0  0  0  0  0  0  0  0  0  0  0  0
    0.2643   -2.2135    1.9369 O   0  0  0  0  0  0  0  0  0  0  0  0
    3.2483    3.3982    1.4945 O   0  0  0  0  0  0  0  0  0  0  0  0
   -1.8604   -3.8628    1.3659 O   0  0  0  0  0  0  0  0  0  0  0  0
    5.1492    1.7831    0.3916 O   0  0  0  0  0  0  0  0  0  0  0  0
   -0.2303    2.0967   -1.4692 O   0  0  0  0  0  0  0  0  0  0  0  0
   -4.0474   -3.2210   -2.2739 O   0  0  0  0  0  0  0  0  0  0  0  0
   -2.7004    2.1381   -2.0200 O   0  0  0  0  0  0  0  0  0  0  0  0
   -4.6164    0.5268   -1.6179 O   0  0  0  0  0  0  0  0  0  0  0  0
   -4.1006    2.3630    0.1813 O   0  0  0  0  0  0  0  0  0  0  0  0
    4.7554   -1.3925    1.2718 O   0  0  0  0  0  0  0  0  0  0  0  0
   -1.0598    3.3067   -3.5525 O   0  0  0  0  0  0  0  0  0  0  0  0
   -2.5712    0.4461    4.1675 O   0  0  0  0  0  0  0  0  0  0  0  0
   -1.5689    4.3570   -1.1950 O   0  0  0  0  0  0  0  0  0  0  0  0
    3.3160   -4.1592   -2.1220 O   0  0  0  0  0  0  0  0  0  0  0  0
    3.0914   -0.6030   -0.1655 N   0  0  0  0  0  0  0  0  0  0  0  0
   -1.1848    0.2645    2.3062 N   0  0  0  0  0  0  0  0  0  0  0  0
    4.0379   -2.7685   -0.4194 N   0  0  0  0  0  0  0  0  0  0  0  0
   -1.7731   -0.9259    1.7360 C   0  0  0  0  0  0  0  0  0  0  0  0
   -0.7233   -1.7732    1.0077 C   0  0  0  0  0  0  0  0  0  0  0  0
    3.0553    2.9933    0.1394 C   0  0  0  0  0  0  0  0  0  0  0  0
   -1.3832   -2.9865    0.3422 C   0  0  0  0  0  0  0  0  0  0  0  0
    3.8453    1.7347   -0.1501 C   0  0  0  0  0  0  0  0  0  0  0  0
    1.6191    2.5091   -0.0056 C   0  0  0  0  0  0  0  0  0  0  0  0
    2.9827    0.6652    0.4976 C   0  0  0  0  0  0  0  0  0  0  0  0
   -2.5500   -2.5326   -0.5447 C   0  0  0  0  0  0  0  0  0  0  0  0
   -2.9288   -0.5735    0.7888 C   0  0  0  0  0  0  0  0  0  0  0  0
    1.1027    2.5759   -1.4367 C   0  0  0  0  0  0  0  0  0  0  0  0
   -3.3181   -3.6981   -1.1576 C   0  0  0  0  0  0  0  0  0  0  0  0
    4.0143   -1.5676    0.3022 C   0  0  0  0  0  0  0  0  0  0  0  0
    2.2896   -0.8812   -1.2664 C   0  0  0  0  0  0  0  0  0  0  0  0
   -1.6381    0.8484    3.4775 C   0  0  0  0  0  0  0  0  0  0  0  0
    2.3233   -2.0307   -1.9440 C   0  0  0  0  0  0  0  0  0  0  0  0
   -0.8328    2.0612    3.8597 C   0  0  0  0  0  0  0  0  0  0  0  0
    3.2600   -3.0909   -1.5206 C   0  0  0  0  0  0  0  0  0  0  0  0
  1  5  1  0
  1 12  1  0
  1 13  1  0
  1 14  2  0
  2 10  1  0
  2 12  1  0
  2 16  1  0
  2 18  2  0
  3 28  1  0
  3 29  1  0
  4 30  1  0
  4 31  1  0
  5 31  1  0
  6 24  1  0
  7 25  1  0
  8 26  1  0
  9 27  1  0
 10 32  1  0
 11 33  1  0
 15 34  2  0
 17 36  2  0
 19 39  2  0
 20 29  1  0
 20 34  1  0
 20 35  1  0
 21 23  1  0
 21 36  1  0
 22 34  1  0
 22 39  1  0
 23 24  1  0
 23 31  1  0
 24 26  1  0
 25 27  1  0
 25 28  1  0
 26 30  1  0
 27 29  1  0
 28 32  1  0
 30 33  1  0
 35 37  2  0
 36 38  1  0
 37 39  1  0
M  END
>  <PUBCHEM_COMPOUND_CID>  (1) 
23700

>  <PUBCHEM_CONFORMER_RMSD>  (1) 
1.4

>  <PUBCHEM_CONFORMER_DIVERSEORDER>  (1) 
1
82
89
64
2
75
35
73
12
79
7
71
95
77
88
3
128
8
118
103
23
25
117
19
47
58
54
84
26
34
70
126
61
11
52
72
106
37
87
45
97
21
105
60
99
67
39
116
90
108
111
110
65
93
92
10
42
14
55
129
18
114
119
121
15
63
56
104
59
31
94
5
100
36
123
112
102
107
86
124
41
43
78
81
48
127
83
98
125
29
122
13
38
113
74
53
69
40
91
120
85
6
44
49
46
80
28
101
20
24
62
76
27
115
22
66
50
68
9
17
16
109
30
96
57
32
4
33
51

>  <PUBCHEM_MMFF94_PARTIAL_CHARGES>  (1) 
50
1 1.51
10 -0.55
11 -0.68
12 -0.54
13 -0.77
14 -0.7
15 -0.57
16 -0.77
17 -0.57
18 -0.7
19 -0.57
2 1.51
20 -0.47
21 -0.73
22 -0.49
23 0.3
24 0.28
25 0.28
26 0.28
27 0.28
28 0.28
29 0.58
3 -0.56
30 0.28
31 0.56
32 0.28
33 0.28
34 0.69
35 -0.04
36 0.57
37 -0.14
38 0.06
39 0.62
4 -0.56
5 -0.55
53 0.37
54 0.4
55 0.4
56 0.4
57 0.4
58 0.15
59 0.4
6 -0.68
60 0.37
61 0.15
65 0.5
66 0.5
7 -0.68
8 -0.68
9 -0.68

>  <PUBCHEM_EFFECTIVE_ROTOR_COUNT>  (1) 
13.2

>  <PUBCHEM_PHARMACOPHORE_FEATURES>  (1) 
24
1 11 acceptor
1 11 donor
1 13 acceptor
1 14 acceptor
1 15 acceptor
1 16 acceptor
1 17 acceptor
1 18 acceptor
1 19 acceptor
1 21 donor
1 22 donor
1 3 acceptor
1 4 acceptor
1 6 acceptor
1 6 donor
1 7 acceptor
1 7 donor
1 8 acceptor
1 8 donor
1 9 acceptor
1 9 donor
5 3 25 27 28 29 rings
6 20 22 34 35 37 39 rings
6 4 23 24 26 30 31 rings

>  <PUBCHEM_HEAVY_ATOM_COUNT>  (1) 
39

>  <PUBCHEM_ATOM_DEF_STEREO_COUNT>  (1) 
9

>  <PUBCHEM_ATOM_UDEF_STEREO_COUNT>  (1) 
0

>  <PUBCHEM_BOND_DEF_STEREO_COUNT>  (1) 
0

>  <PUBCHEM_BOND_UDEF_STEREO_COUNT>  (1) 
0

>  <PUBCHEM_ISOTOPIC_ATOM_COUNT>  (1) 
0

>  <PUBCHEM_COMPONENT_COUNT>  (1) 
1

>  <PUBCHEM_CACTVS_TAUTO_COUNT>  (1) 
6

>  <PUBCHEM_CONFORMER_ID>  (1) 
00005C9400000001

>  <PUBCHEM_MMFF94_ENERGY>  (1) 
53.0494

>  <PUBCHEM_FEATURE_SELFOVERLAP>  (1) 
121.881

>  <PUBCHEM_SHAPE_FINGERPRINT>  (1) 
10032420 55 16768463479442902448
11285246 1 16903005817398574606
12156800 1 17251118040022765435
12422481 6 18043561415791857721
14251757 17 18193828246000480444
14725015 67 18116422653359424869
14918310 93 15520416777192665602
15219462 58 17346878953346129536
20764821 26 18187366545070991516
21987440 362 16308193176719336564
3380486 145 18335713757877134984
469060 322 17478856812851430660
57527452 28 17410498010046525711

>  <PUBCHEM_SHAPE_MULTIPOLES>  (1) 
695.58
8.46
5.94
3.41
3.94
1.25
-2.42
2.52
1.28
0.16
3.26
-2.86
-1.91
1.45

>  <PUBCHEM_SHAPE_SELFOVERLAP>  (1) 
1416.366

>  <PUBCHEM_SHAPE_VOLUME>  (1) 
403.5

>  <PUBCHEM_COORDINATE_TYPE>  (1) 
2
5
10

$$$$
