23701
     RDKit          3D

 16 15  0  0  1  0  0  0  0  0999 V2000
   -4.2237   -1.3582    0.8775 O   0  0  0  0  0  0  0  0  0  0  0  0
    0.7839    2.5040    0.3122 C   0  0  0  0  0  0  0  0  0  0  0  0
   -0.3100    1.6700    1.0117 C   0  0  0  0  0  0  0  0  0  0  0  0
   -1.3275    1.0087    0.0731 C   0  0  0  0  0  0  0  0  0  0  0  0
    1.6947    1.6999   -0.6386 C   0  0  0  0  0  0  0  0  0  0  0  0
   -2.3200    0.1429    0.8652 C   0  0  0  0  0  0  0  0  0  0  0  0
   -3.3752   -0.5944    0.0088 C   0  0  0  0  0  0  0  0  0  0  0  0
    2.3664    0.4960    0.0289 C   0  0  0  0  0  0  0  0  0  0  0  0
    3.2757   -0.2993   -0.9172 C   0  0  0  0  0  0  0  0  0  0  0  0
    0.1789    3.6955   -0.4389 C   0  0  0  0  0  0  0  0  0  0  0  0
   -2.7076   -1.6292   -0.9256 C   0  0  0  0  0  0  0  0  0  0  0  0
    4.0356   -1.4839   -0.2910 C   0  0  0  0  0  0  0  0  0  0  0  0
   -4.2595    0.3744   -0.7845 C   0  0  0  0  0  0  0  0  0  0  0  0
   -1.8018   -2.6484   -0.2496 C   0  0  0  0  0  0  0  0  0  0  0  0
    4.8922   -0.9867    0.8772 C   0  0  0  0  0  0  0  0  0  0  0  0
    3.0978   -2.5910    0.1907 C   0  0  0  0  0  0  0  0  0  0  0  0
  1  7  1  0
  2  3  1  0
  2  5  1  0
  2 10  1  0
  3  4  1  0
  4  6  1  0
  5  8  1  0
  6  7  1  0
  7 11  1  0
  7 13  1  0
  8  9  1  0
  9 12  1  0
 11 14  1  0
 12 15  1  0
 12 16  1  0
M  END
>  <PUBCHEM_COMPOUND_CID>  (1) 
23701

>  <PUBCHEM_CONFORMER_RMSD>  (1) 
0.8

>  <PUBCHEM_CONFORMER_DIVERSEORDER>  (1) 
6
173
220
97
180
209
84
194
213
9
177
119
101
112
141
158
191
144
14
74
148
216
105
167
33
163
57
184
215
90
210
54
147
138
37
86
126
195
166
212
127
41
129
218
72
122
183
78
217
3
208
47
182
196
149
99
201
174
222
26
29
32
162
154
192
111
116
161
211
22
61
156
219
152
16
206
48
202
145
66
137
2
75
87
179
214
197
27
36
172
150
91
120
49
104
170
204
164
93
23
55
203
135
114
76
4
205
67
1
70
85
186
128
181
133
100
20
40
65
223
139
132
60
39
168
199
169
8
79
118
69
7
53
42
176
200
110
130
143
81
193
46
10
117
94
17
52
207
56
190
221
63
50
189
62
106
13
80
198
125
59
185
24
19
34
71
30
102
82
146
187
136
157
178
12
45
113
95
35
89
38
153
131
92
58
175
103
142
171
5
123
165
83
188
98
108
155
64
107
11
96
43
18
159
140
25
44
109
134
151
121
73
28
21
68
77
115
124
160
88
15
31
51

>  <PUBCHEM_MMFF94_PARTIAL_CHARGES>  (1) 
3
1 -0.68
42 0.4
7 0.28

>  <PUBCHEM_EFFECTIVE_ROTOR_COUNT>  (1) 
9

>  <PUBCHEM_PHARMACOPHORE_FEATURES>  (1) 
5
1 1 acceptor
1 1 donor
1 10 hydrophobe
1 14 hydrophobe
3 12 15 16 hydrophobe

>  <PUBCHEM_HEAVY_ATOM_COUNT>  (1) 
16

>  <PUBCHEM_ATOM_DEF_STEREO_COUNT>  (1) 
0

>  <PUBCHEM_ATOM_UDEF_STEREO_COUNT>  (1) 
2

>  <PUBCHEM_BOND_DEF_STEREO_COUNT>  (1) 
0

>  <PUBCHEM_BOND_UDEF_STEREO_COUNT>  (1) 
0

>  <PUBCHEM_ISOTOPIC_ATOM_COUNT>  (1) 
0

>  <PUBCHEM_COMPONENT_COUNT>  (1) 
1

>  <PUBCHEM_CACTVS_TAUTO_COUNT>  (1) 
1

>  <PUBCHEM_CONFORMER_ID>  (1) 
00005C9500000006

>  <PUBCHEM_MMFF94_ENERGY>  (1) 
22.1736

>  <PUBCHEM_FEATURE_SELFOVERLAP>  (1) 
25.373

>  <PUBCHEM_SHAPE_FINGERPRINT>  (1) 
11265709 11 18411142415873935096
12363563 72 18409175393755703544
12553582 1 18340220621584042086
13004483 165 18264477395908354528
13083527 12 18335413583103375648
13533116 47 18055352698536363935
13931106 250 18119802509180409220
15352361 1 18411136909636047850
17977361 122 18413106134776921335
1798214 20 18408601431416594358
20291156 8 18411985749744892470
20621476 91 18195781099596434298
20645477 70 18191297385240180633
20671657 53 18409736178892984113
21250096 35 18411134706180395682
22113638 7 18342451577774390270
2255824 54 18049728713070278300
23559900 14 18341604962743162160
314173 41 18339655532615711630
339767 52 18337379466390018634
9795274 37 18048315849218605298

>  <PUBCHEM_SHAPE_MULTIPOLES>  (1) 
323.4
8.87
3.68
1.01
2.16
1.77
0.03
-6.65
0.24
0.63
-0.29
-0.11
0.02
-0.32

>  <PUBCHEM_SHAPE_SELFOVERLAP>  (1) 
592.222

>  <PUBCHEM_SHAPE_VOLUME>  (1) 
207.2

>  <PUBCHEM_COORDINATE_TYPE>  (1) 
2
5
10

$$$$
