23718
     RDKit          3D

  9  8  0  0  1  0  0  0  0  0999 V2000
    0.6714    0.7994    1.3512 O   0  0  0  0  0  0  0  0  0  0  0  0
   -1.1081   -0.1726   -0.0375 C   0  0  0  0  0  0  0  0  0  0  0  0
    0.4088    0.2930    0.0319 C   0  0  0  0  0  0  0  0  0  0  0  0
    1.4090   -0.8679   -0.2350 C   0  0  0  0  0  0  0  0  0  0  0  0
   -1.5050   -0.6418   -1.4534 C   0  0  0  0  0  0  0  0  0  0  0  0
   -2.0665    0.9760    0.3641 C   0  0  0  0  0  0  0  0  0  0  0  0
   -1.3948   -1.3405    0.9377 C   0  0  0  0  0  0  0  0  0  0  0  0
    0.7035    1.4664   -0.9210 C   0  0  0  0  0  0  0  0  0  0  0  0
    2.8816   -0.5120   -0.0380 C   0  0  0  0  0  0  0  0  0  0  0  0
  1  3  1  0
  2  3  1  0
  2  5  1  0
  2  6  1  0
  2  7  1  0
  3  4  1  0
  3  8  1  0
  4  9  1  0
M  END
>  <PUBCHEM_COMPOUND_CID>  (1) 
23718

>  <PUBCHEM_CONFORMER_RMSD>  (1) 
0.4

>  <PUBCHEM_CONFORMER_DIVERSEORDER>  (1) 
1
5
3
6
4
2

>  <PUBCHEM_MMFF94_PARTIAL_CHARGES>  (1) 
3
1 -0.68
27 0.4
3 0.28

>  <PUBCHEM_EFFECTIVE_ROTOR_COUNT>  (1) 
2

>  <PUBCHEM_PHARMACOPHORE_FEATURES>  (1) 
4
1 1 acceptor
1 1 donor
1 9 hydrophobe
4 2 5 6 7 hydrophobe

>  <PUBCHEM_HEAVY_ATOM_COUNT>  (1) 
9

>  <PUBCHEM_ATOM_DEF_STEREO_COUNT>  (1) 
0

>  <PUBCHEM_ATOM_UDEF_STEREO_COUNT>  (1) 
1

>  <PUBCHEM_BOND_DEF_STEREO_COUNT>  (1) 
0

>  <PUBCHEM_BOND_UDEF_STEREO_COUNT>  (1) 
0

>  <PUBCHEM_ISOTOPIC_ATOM_COUNT>  (1) 
0

>  <PUBCHEM_COMPONENT_COUNT>  (1) 
1

>  <PUBCHEM_CACTVS_TAUTO_COUNT>  (1) 
1

>  <PUBCHEM_CONFORMER_ID>  (1) 
00005CA600000001

>  <PUBCHEM_MMFF94_ENERGY>  (1) 
28.8222

>  <PUBCHEM_FEATURE_SELFOVERLAP>  (1) 
20.297

>  <PUBCHEM_SHAPE_FINGERPRINT>  (1) 
12423570 1 16531688658564601001
12716758 59 17168692064541617114
13024252 1 13479433638103006734
137420 1 11609066747365788356
14128692 85 18265350567023106102
16945 1 18267319637428878249
207724 885 18114188484027897217
21040471 1 18189619345548785225
23552423 10 17896330288106723086
24536 1 18189888893411851329
29004967 10 18259994755642267178
369184 2 17458347403494339458
5084963 1 18411420575288679113
68250623 7 17752798927878317161

>  <PUBCHEM_SHAPE_MULTIPOLES>  (1) 
179.35
3.01
1.4
1.21
1.42
0.14
-0.12
-0.5
-0.06
-0.15
0.03
-0.37
0.01
-0.03

>  <PUBCHEM_SHAPE_SELFOVERLAP>  (1) 
328.928

>  <PUBCHEM_SHAPE_VOLUME>  (1) 
116.1

>  <PUBCHEM_COORDINATE_TYPE>  (1) 
2
5
10

$$$$
