23710
     RDKit          3D

 16 15  0  0  0  0  0  0  0  0999 V2000
    2.9059    0.1190   -0.1451 O   0  0  0  0  0  0  0  0  0  0  0  0
   -2.9059   -0.1196   -0.1448 O   0  0  0  0  0  0  0  0  0  0  0  0
    1.7318   -1.8708   -0.1475 O   0  0  0  0  0  0  0  0  0  0  0  0
   -1.7313    1.8697   -0.1478 O   0  0  0  0  0  0  0  0  0  0  0  0
    5.3174    0.3861   -0.1407 C   0  0  0  0  0  0  0  0  0  0  0  0
   -5.3176   -0.3853   -0.1406 C   0  0  0  0  0  0  0  0  0  0  0  0
    4.1446   -0.5983   -0.1429 C   0  0  0  0  0  0  0  0  0  0  0  0
   -4.1443    0.5985   -0.1431 C   0  0  0  0  0  0  0  0  0  0  0  0
    6.6437   -0.3651   -0.2333 C   0  0  0  0  0  0  0  0  0  0  0  0
    5.2959    1.2758    1.1041 C   0  0  0  0  0  0  0  0  0  0  0  0
   -6.6435    0.3668   -0.2339 C   0  0  0  0  0  0  0  0  0  0  0  0
   -5.2969   -1.2744    1.1045 C   0  0  0  0  0  0  0  0  0  0  0  0
    1.7845   -0.6511   -0.1472 C   0  0  0  0  0  0  0  0  0  0  0  0
   -1.7843    0.6501   -0.1470 C   0  0  0  0  0  0  0  0  0  0  0  0
    0.6170    0.2579   -0.1476 C   0  0  0  0  0  0  0  0  0  0  0  0
   -0.6170   -0.2592   -0.1472 C   0  0  0  0  0  0  0  0  0  0  0  0
  1  7  1  0
  1 13  1  0
  2  8  1  0
  2 14  1  0
  3 13  2  0
  4 14  2  0
  5  7  1  0
  5  9  1  0
  5 10  1  0
  6  8  1  0
  6 11  1  0
  6 12  1  0
 13 15  1  0
 14 16  1  0
 15 16  2  0
M  END
>  <PUBCHEM_COMPOUND_CID>  (1) 
23710

>  <PUBCHEM_CONFORMER_RMSD>  (1) 
0.8

>  <PUBCHEM_CONFORMER_DIVERSEORDER>  (1) 
1
53
67
97
52
45
10
105
2
102
100
55
89
108
92
86
38
46
41
4
23
95
29
6
69
3
104
107
9
79
33
109
61
58
47
30
19
56
80
99
85
63
42
73
39
64
32
50
57
7
65
48
103
49
72
74
25
36
11
87
84
93
60
101
34
110
18
12
20
31
8
26
22
43
66
78
71
94
98
24
15
21
5
90
40
27
28
14
51
83
81
44
13
59
16
96
77
37
35
17
91
82
75
54
70
76
88
106
68
62

>  <PUBCHEM_MMFF94_PARTIAL_CHARGES>  (1) 
12
1 -0.43
13 0.71
14 0.71
15 -0.14
16 -0.14
2 -0.43
3 -0.57
35 0.15
36 0.15
4 -0.57
7 0.28
8 0.28

>  <PUBCHEM_EFFECTIVE_ROTOR_COUNT>  (1) 
8

>  <PUBCHEM_PHARMACOPHORE_FEATURES>  (1) 
4
1 3 acceptor
1 4 acceptor
3 5 9 10 hydrophobe
3 6 11 12 hydrophobe

>  <PUBCHEM_HEAVY_ATOM_COUNT>  (1) 
16

>  <PUBCHEM_ATOM_DEF_STEREO_COUNT>  (1) 
0

>  <PUBCHEM_ATOM_UDEF_STEREO_COUNT>  (1) 
0

>  <PUBCHEM_BOND_DEF_STEREO_COUNT>  (1) 
0

>  <PUBCHEM_BOND_UDEF_STEREO_COUNT>  (1) 
1

>  <PUBCHEM_ISOTOPIC_ATOM_COUNT>  (1) 
0

>  <PUBCHEM_COMPONENT_COUNT>  (1) 
1

>  <PUBCHEM_CACTVS_TAUTO_COUNT>  (1) 
1

>  <PUBCHEM_CONFORMER_ID>  (1) 
00005C9E00000001

>  <PUBCHEM_MMFF94_ENERGY>  (1) 
22.8001

>  <PUBCHEM_FEATURE_SELFOVERLAP>  (1) 
20.297

>  <PUBCHEM_SHAPE_FINGERPRINT>  (1) 
10638233 991 15554445240410771288
10968037 39 18410292511066245255
11287383 113 18334296487055985464
11315181 36 18344148103642707257
11858739 19 11746928777145006632
12091667 2 18202845448756156861
12730499 353 18202569480033475974
12815109 37 18334576837199585991
12916748 109 18343302557488760024
13081056 2 18272649044047139456
13533116 47 15285627786463365408
1420 363 18410579487068010278
14251732 16 18338517542164758739
14251764 46 17561082501555239214
15048467 5 17346601863768482433
15183329 4 9439413418781316975
167882 2 17169851091305095613
17834072 33 17489584575809743908
17834076 25 14908180849940758669
18222031 100 17095246900030771310
19489759 90 16732700541368460821
20281389 69 12103845648499051163
20681677 155 11743831456978885332
21315759 40 15697998530837044597
220451 1 15791730806162123971
22079108 93 18342170098823861066
22224240 67 18341888614919930498
23035841 295 17346880043962101054
23218964 4 10303815375715263766
23402539 116 14129055924589754303
23521765 1 18341894086539083903
23557571 272 18040999484030077380
23559900 14 18187643648108968321
26918003 58 18113058246805225483
300161 21 18260261920278505999
3014965 18 10087376499209208976
3545911 37 18410293605961275750
42788 4 18272369767523731844
4325135 7 18410012130419971967
4463277 17 18273214188407069689
474229 33 18408605867954534178
5104073 3 18266458715471217451
54446538 1 17203330005174210632
559249 180 8286193938039624265
57583515 80 18113620080024990801
59682541 35 18338517550759968426
59755656 215 18410579457568112214
8209 1 18408040706467001773

>  <PUBCHEM_SHAPE_MULTIPOLES>  (1) 
305.8
18.01
1.3
0.78
0
0
0.18
-0.01
1.51
0
0.15
0
0
1.14

>  <PUBCHEM_SHAPE_SELFOVERLAP>  (1) 
582.271

>  <PUBCHEM_SHAPE_VOLUME>  (1) 
188.8

>  <PUBCHEM_COORDINATE_TYPE>  (1) 
2
5
10

$$$$
