23720
     RDKit          3D

 21 23  0  0  0  0  0  0  0  0999 V2000
   -5.3625    3.0521   -0.0863 Cl  0  0  0  0  0  0  0  0  0  0  0  0
   -0.7351   -4.8136   -0.0585 Cl  0  0  0  0  0  0  0  0  0  0  0  0
    2.5273   -1.0946    0.0436 N   0  0  0  0  0  0  0  0  0  0  0  0
    0.2497   -0.5367    0.0010 N   0  0  0  0  0  0  0  0  0  0  0  0
   -1.3855   -2.2922   -0.0497 N   0  0  0  0  0  0  0  0  0  0  0  0
    0.9522   -2.8311   -0.0042 N   0  0  0  0  0  0  0  0  0  0  0  0
   -2.0622   -0.0223   -0.0443 C   0  0  0  0  0  0  0  0  0  0  0  0
    3.1347    0.1746    0.0675 C   0  0  0  0  0  0  0  0  0  0  0  0
   -1.0035   -1.0085   -0.0301 C   0  0  0  0  0  0  0  0  0  0  0  0
    1.1773   -1.5074    0.0123 C   0  0  0  0  0  0  0  0  0  0  0  0
   -1.8468    1.2237   -0.6327 C   0  0  0  0  0  0  0  0  0  0  0  0
   -3.2981   -0.3176    0.5313 C   0  0  0  0  0  0  0  0  0  0  0  0
    4.3934    0.3602   -0.5083 C   0  0  0  0  0  0  0  0  0  0  0  0
    2.4808    1.2528    0.6675 C   0  0  0  0  0  0  0  0  0  0  0  0
   -2.8670    2.1747   -0.6457 C   0  0  0  0  0  0  0  0  0  0  0  0
   -4.3185    0.6334    0.5183 C   0  0  0  0  0  0  0  0  0  0  0  0
   -4.1031    1.8796   -0.0703 C   0  0  0  0  0  0  0  0  0  0  0  0
    4.9955    1.6181   -0.4840 C   0  0  0  0  0  0  0  0  0  0  0  0
    3.0830    2.5108    0.6918 C   0  0  0  0  0  0  0  0  0  0  0  0
    4.3404    2.6934    0.1160 C   0  0  0  0  0  0  0  0  0  0  0  0
   -0.3519   -3.1492   -0.0352 C   0  0  0  0  0  0  0  0  0  0  0  0
  1 17  1  0
  2 21  1  0
  3  8  1  0
  3 10  1  0
  4  9  2  0
  4 10  1  0
  5  9  1  0
  5 21  2  0
  6 10  2  0
  6 21  1  0
  7  9  1  0
  7 11  2  0
  7 12  1  0
  8 13  2  0
  8 14  1  0
 11 15  1  0
 12 16  2  0
 13 18  1  0
 14 19  2  0
 15 17  2  0
 16 17  1  0
 18 20  2  0
 19 20  1  0
M  END
>  <PUBCHEM_COMPOUND_CID>  (1) 
23720

>  <PUBCHEM_CONFORMER_RMSD>  (1) 
0.6

>  <PUBCHEM_CONFORMER_DIVERSEORDER>  (1) 
1
8
14
3
11
5
7
6
12
10
13
9
2
4

>  <PUBCHEM_MMFF94_PARTIAL_CHARGES>  (1) 
30
1 -0.18
10 0.72
11 -0.15
12 -0.15
13 -0.15
14 -0.15
15 -0.15
16 -0.15
17 0.18
18 -0.15
19 -0.15
2 -0.18
20 -0.15
21 0.8
22 0.4
23 0.15
24 0.15
25 0.15
26 0.15
27 0.15
28 0.15
29 0.15
3 -0.6
30 0.15
31 0.15
4 -0.62
5 -0.62
6 -0.62
8 0.1
9 0.62

>  <PUBCHEM_EFFECTIVE_ROTOR_COUNT>  (1) 
3

>  <PUBCHEM_PHARMACOPHORE_FEATURES>  (1) 
5
1 3 donor
4 3 4 6 10 cation
6 4 5 6 9 10 21 rings
6 7 11 12 15 16 17 rings
6 8 13 14 18 19 20 rings

>  <PUBCHEM_HEAVY_ATOM_COUNT>  (1) 
21

>  <PUBCHEM_ATOM_DEF_STEREO_COUNT>  (1) 
0

>  <PUBCHEM_ATOM_UDEF_STEREO_COUNT>  (1) 
0

>  <PUBCHEM_BOND_DEF_STEREO_COUNT>  (1) 
0

>  <PUBCHEM_BOND_UDEF_STEREO_COUNT>  (1) 
0

>  <PUBCHEM_ISOTOPIC_ATOM_COUNT>  (1) 
0

>  <PUBCHEM_COMPONENT_COUNT>  (1) 
1

>  <PUBCHEM_CACTVS_TAUTO_COUNT>  (1) 
4

>  <PUBCHEM_CONFORMER_ID>  (1) 
00005CA800000001

>  <PUBCHEM_MMFF94_ENERGY>  (1) 
65.0053

>  <PUBCHEM_FEATURE_SELFOVERLAP>  (1) 
25.373

>  <PUBCHEM_SHAPE_FINGERPRINT>  (1) 
10006869 2 18262510520084230283
10165383 225 18410299103023932068
10411042 1 17329429957090800466
10670039 82 17541947928858887404
12107183 9 18335404761392862154
12173636 292 18338793545532761886
12390115 104 18341630221187029009
12730499 353 18337962173403738289
12769317 202 18268701723661459505
12788726 201 18049988180661197915
13140716 1 18335137536374171843
13583140 156 16733804485117772940
13590594 115 16826445705753044435
138480 1 17690279309353845006
13878862 14 17757816841904499965
13955234 65 18048883992304134027
13965767 371 18114167632499894836
14123255 52 18410855468839513128
14251764 75 18340779169160049417
14466204 15 17976813195378411170
14508225 48 17550096413162267887
14528608 73 18341324514390079877
1454969 45 18339643447464145607
14787075 74 18201717397112922867
14790565 3 18410862053172830997
14848178 96 18340201895474501145
151778 21 18337388245070972096
15342168 16 18337670819886423197
15422964 175 8862942749630879370
16087824 20 18194964274522661575
17834072 32 18410292514586174612
18785283 64 18119810209850841227
19427546 62 18265332812113672363
21033648 29 18412821412836928152
21524375 3 18334011674958679938
21864079 5 18411130351094314896
22182937 141 18269843184276474632
23227448 37 18268431411314950140
23557571 272 17984152718898191406
23558518 356 18117276080789357626
23559900 14 18049156666782189043
23845131 108 18334858286575687963
283562 15 17903347453205223498
3091708 16 9265027571960798683
335352 9 18411136901647208054
394222 165 18188766150227273258
44555599 121 17624691260022442385
474 4 18268989795913366521
5048184 11 18410853291338878688
5104073 3 18115878391267865809
633830 44 18271804567018016989
6442390 28 18409733967069073311
7064713 232 18333732454913834956
7364860 26 18050285864954967479
77188 2 17185313145432663959
7808743 9 18264489675473658884
7970288 3 9295287231326955796
9981440 41 18408882928052687155

>  <PUBCHEM_SHAPE_MULTIPOLES>  (1) 
415.99
10.12
4.95
0.74
0.61
5.51
-0.01
-12.81
0.21
-1.44
0.09
0.03
-0.2
0.51

>  <PUBCHEM_SHAPE_SELFOVERLAP>  (1) 
892.048

>  <PUBCHEM_SHAPE_VOLUME>  (1) 
227.1

>  <PUBCHEM_COORDINATE_TYPE>  (1) 
2
5
10

$$$$
