23729
     RDKit          3D

 15 15  0  0  0  0  0  0  0  0999 V2000
   -1.4142   -0.2464   -0.7636 O   0  0  0  0  0  0  0  0  0  0  0  0
   -1.8067    0.0582    1.4974 O   0  0  0  0  0  0  0  0  0  0  0  0
    4.3377    0.7338    0.3061 O   0  0  0  0  0  0  0  0  0  0  0  0
    2.8488    2.2552   -0.2301 O   0  0  0  0  0  0  0  0  0  0  0  0
   -3.5210    0.4124   -0.0339 N   0  0  0  0  0  0  0  0  0  0  0  0
    3.1641    1.0649    0.0107 N   0  0  0  0  0  0  0  0  0  0  0  0
   -0.0991   -0.5906   -0.4343 C   0  0  0  0  0  0  0  0  0  0  0  0
    0.8498    0.4048   -0.3799 C   0  0  0  0  0  0  0  0  0  0  0  0
    2.1616    0.0610   -0.0535 C   0  0  0  0  0  0  0  0  0  0  0  0
    0.1929   -1.9113   -0.1799 C   0  0  0  0  0  0  0  0  0  0  0  0
    2.4890   -1.2691    0.2100 C   0  0  0  0  0  0  0  0  0  0  0  0
   -2.2148    0.0743    0.3367 C   0  0  0  0  0  0  0  0  0  0  0  0
    1.5047   -2.2553    0.1468 C   0  0  0  0  0  0  0  0  0  0  0  0
   -4.4988    0.7761    0.9817 C   0  0  0  0  0  0  0  0  0  0  0  0
   -3.9940    0.4321   -1.4142 C   0  0  0  0  0  0  0  0  0  0  0  0
  1  7  1  0
  1 12  1  0
  2 12  2  0
  3  6  1  0
  4  6  2  0
  5 12  1  0
  5 14  1  0
  5 15  1  0
  6  9  1  0
  7  8  2  0
  7 10  1  0
  8  9  1  0
  9 11  2  0
 10 13  2  0
 11 13  1  0
M  CHG  2   3  -1   6   1
M  END
>  <PUBCHEM_COMPOUND_CID>  (1) 
23729

>  <PUBCHEM_CONFORMER_RMSD>  (1) 
0.6

>  <PUBCHEM_CONFORMER_DIVERSEORDER>  (1) 
1
19
13
18
17
16
5
2
11
3
20
15
12
14
6
9
4
10
8
7

>  <PUBCHEM_MMFF94_PARTIAL_CHARGES>  (1) 
19
1 -0.23
10 -0.15
11 -0.15
12 0.78
13 -0.15
14 0.3
15 0.3
16 0.15
17 0.15
18 0.15
19 0.15
2 -0.57
3 -0.52
4 -0.52
5 -0.66
6 0.91
7 0.08
8 -0.15
9 0.13

>  <PUBCHEM_EFFECTIVE_ROTOR_COUNT>  (1) 
4

>  <PUBCHEM_PHARMACOPHORE_FEATURES>  (1) 
5
1 2 acceptor
1 3 acceptor
1 3 anion
1 4 acceptor
6 7 8 9 10 11 13 rings

>  <PUBCHEM_HEAVY_ATOM_COUNT>  (1) 
15

>  <PUBCHEM_ATOM_DEF_STEREO_COUNT>  (1) 
0

>  <PUBCHEM_ATOM_UDEF_STEREO_COUNT>  (1) 
0

>  <PUBCHEM_BOND_DEF_STEREO_COUNT>  (1) 
0

>  <PUBCHEM_BOND_UDEF_STEREO_COUNT>  (1) 
0

>  <PUBCHEM_ISOTOPIC_ATOM_COUNT>  (1) 
0

>  <PUBCHEM_COMPONENT_COUNT>  (1) 
1

>  <PUBCHEM_CACTVS_TAUTO_COUNT>  (1) 
1

>  <PUBCHEM_CONFORMER_ID>  (1) 
00005CB100000001

>  <PUBCHEM_MMFF94_ENERGY>  (1) 
45.8351

>  <PUBCHEM_FEATURE_SELFOVERLAP>  (1) 
25.453

>  <PUBCHEM_SHAPE_FINGERPRINT>  (1) 
10465860 228 18341337699438115594
10608611 8 18187923916009802565
10980938 120 18412260610250323822
11471102 20 18409443657518532870
11543360 7 15697714912698221548
12119455 92 18259974985760130126
12346645 6 18411981330334438294
13581323 91 14923948946579874571
14897335 6 18341607144227592334
15219456 202 18040713619833939207
15775835 57 18202003235106545193
16945 1 18338518521639322382
1813 80 17554906372954691758
18186145 218 18341615897275736359
19049666 15 17388250148467971343
20279233 1 17458346316978454811
204376 136 18336830895881186836
20645477 70 18264758875264896567
20715346 28 17749396931828619151
20871999 31 15913319205110434301
21499 59 18413103987324616719
21524375 3 18343017839236721582
21639500 275 18339630196608887797
22096605 113 18409442583708039527
22854114 111 18411138013146944999
231179 274 18333729113602676068
23402539 116 16630804404786130348
23557571 272 14619928513890658107
23559900 14 16588587474727237994
276578 36 18412548712678213202
449060 62 18342178847181658689
474 4 18412265055525878361
57096353 35 17775273976727279973
6333272 397 18410577322504609531
633830 44 18202013109368208381
7364860 26 18271529680743054374
77492 1 17774713174178502111
81539 233 18187365424206060486

>  <PUBCHEM_SHAPE_MULTIPOLES>  (1) 
275.25
7.69
1.81
1
4.62
0.32
0.02
-3.57
0.52
-2.11
-0.02
1.15
-0.07
-0.2

>  <PUBCHEM_SHAPE_SELFOVERLAP>  (1) 
569.631

>  <PUBCHEM_SHAPE_VOLUME>  (1) 
158.2

>  <PUBCHEM_COORDINATE_TYPE>  (1) 
2
5
10

$$$$
