23722
     RDKit          3D

 24 25  0  0  0  0  0  0  0  0999 V2000
    0.2460   -0.4302    2.6057 O   0  0  0  0  0  0  0  0  0  0  0  0
    3.2262    0.5833   -0.5455 N   0  0  0  0  0  0  0  0  0  0  0  0
   -0.6541    1.6442    2.3102 N   0  0  0  0  0  0  0  0  0  0  0  0
    2.0633   -0.0400    0.1384 C   0  0  0  0  0  0  0  0  0  0  0  0
    0.7797    0.6413   -0.3504 C   0  0  0  0  0  0  0  0  0  0  0  0
   -0.5500    0.1355    0.3383 C   0  0  0  0  0  0  0  0  0  0  0  0
    3.3193    2.0765   -0.2058 C   0  0  0  0  0  0  0  0  0  0  0  0
    4.5356   -0.0888   -0.1122 C   0  0  0  0  0  0  0  0  0  0  0  0
    3.0987    0.4457   -2.0682 C   0  0  0  0  0  0  0  0  0  0  0  0
   -1.7779    0.9491   -0.1688 C   0  0  0  0  0  0  0  0  0  0  0  0
   -0.8549   -1.3629    0.0558 C   0  0  0  0  0  0  0  0  0  0  0  0
    3.4461    2.2397    1.2931 C   0  0  0  0  0  0  0  0  0  0  0  0
    4.4993   -1.5497   -0.5045 C   0  0  0  0  0  0  0  0  0  0  0  0
   -0.2964    0.3871    1.8617 C   0  0  0  0  0  0  0  0  0  0  0  0
   -2.9897    0.6795    0.3935 C   0  0  0  0  0  0  0  0  0  0  0  0
   -0.4636   -1.8737   -1.1471 C   0  0  0  0  0  0  0  0  0  0  0  0
   -1.5611    1.8779   -1.1424 C   0  0  0  0  0  0  0  0  0  0  0  0
   -1.4953   -2.0739    1.0282 C   0  0  0  0  0  0  0  0  0  0  0  0
   -4.0893    1.4077   -0.0609 C   0  0  0  0  0  0  0  0  0  0  0  0
   -0.7375   -3.2178   -1.4008 C   0  0  0  0  0  0  0  0  0  0  0  0
   -2.6605    2.6062   -1.5969 C   0  0  0  0  0  0  0  0  0  0  0  0
   -1.7691   -3.4180    0.7747 C   0  0  0  0  0  0  0  0  0  0  0  0
   -3.9247    2.3710   -1.0560 C   0  0  0  0  0  0  0  0  0  0  0  0
   -1.3902   -3.9898   -0.4399 C   0  0  0  0  0  0  0  0  0  0  0  0
  1 14  2  0
  2  4  1  0
  2  7  1  0
  2  8  1  0
  2  9  1  0
  3 14  1  0
  4  5  1  0
  5  6  1  0
  6 10  1  0
  6 11  1  0
  6 14  1  0
  7 12  1  0
  8 13  1  0
 10 15  2  0
 10 17  1  0
 11 16  2  0
 11 18  1  0
 15 19  1  0
 16 20  1  0
 17 21  2  0
 18 22  2  0
 19 23  2  0
 20 24  2  0
 21 23  1  0
 22 24  1  0
M  CHG  1   2   1
M  END
>  <PUBCHEM_COMPOUND_CID>  (1) 
23722

>  <PUBCHEM_CONFORMER_RMSD>  (1) 
0.8

>  <PUBCHEM_CONFORMER_DIVERSEORDER>  (1) 
1
29
53
58
46
21
37
51
43
34
41
48
47
54
56
17
33
36
55
59
57
22
18
45
10
44
39
7
24
38
52
32
30
25
28
23
3
50
20
35
11
8
6
31
42
15
49
16
9
13
2
12
19
26
5
27
4
40
14

>  <PUBCHEM_MMFF94_PARTIAL_CHARGES>  (1) 
33
1 -0.57
10 -0.14
11 -0.14
14 0.57
15 -0.15
16 -0.15
17 -0.15
18 -0.15
19 -0.15
2 -1.01
20 -0.15
21 -0.15
22 -0.15
23 -0.15
24 -0.15
3 -0.8
4 0.5
42 0.15
43 0.15
44 0.15
45 0.15
46 0.37
47 0.37
48 0.15
49 0.15
50 0.15
51 0.15
52 0.15
53 0.15
6 0.35
7 0.5
8 0.5
9 0.5

>  <PUBCHEM_EFFECTIVE_ROTOR_COUNT>  (1) 
8

>  <PUBCHEM_PHARMACOPHORE_FEATURES>  (1) 
5
1 1 acceptor
1 2 cation
1 3 donor
6 10 15 17 19 21 23 rings
6 11 16 18 20 22 24 rings

>  <PUBCHEM_HEAVY_ATOM_COUNT>  (1) 
24

>  <PUBCHEM_ATOM_DEF_STEREO_COUNT>  (1) 
0

>  <PUBCHEM_ATOM_UDEF_STEREO_COUNT>  (1) 
0

>  <PUBCHEM_BOND_DEF_STEREO_COUNT>  (1) 
0

>  <PUBCHEM_BOND_UDEF_STEREO_COUNT>  (1) 
0

>  <PUBCHEM_ISOTOPIC_ATOM_COUNT>  (1) 
0

>  <PUBCHEM_COMPONENT_COUNT>  (1) 
1

>  <PUBCHEM_CACTVS_TAUTO_COUNT>  (1) 
2

>  <PUBCHEM_CONFORMER_ID>  (1) 
00005CAA00000001

>  <PUBCHEM_MMFF94_ENERGY>  (1) 
109.3817

>  <PUBCHEM_FEATURE_SELFOVERLAP>  (1) 
25.371

>  <PUBCHEM_SHAPE_FINGERPRINT>  (1) 
10871710 139 17539999563355695436
11101153 10 17467914516583747588
11370993 70 18339638936703681564
11421498 54 17914894228336428169
11488393 25 18048609118634381843
11578080 2 17914616300364290344
11833330 49 17974281320673292549
12422481 6 18120687788145273619
12553582 1 17615138010665784870
12592029 89 18116997667517511970
12714826 92 18055648445098412382
12788726 201 17825389840737284826
13004483 165 18050561047498757998
13149001 5 17988064695022592385
133893 2 17619360800825177811
13681431 1 17331666952299071607
14178342 30 18189605224160481096
14251751 93 18337100181877920335
14251764 3 18263933133009641324
14840074 17 16754654816242267296
15163728 17 17899999135149849933
15502722 9 17977945679432974445
16945 1 18187368778533210145
17349148 13 17346038858027881060
17357779 13 17698146697671963311
17980427 23 11183051071616776903
1813 80 17617101746822324355
18186145 218 18272650108418605909
192875 21 17560519496026095760
19930381 70 17832425289532325230
20197701 30 18337663101508244063
20602899 9 18270966734635882515
20905425 154 17028520652702212284
21033648 29 18336813200748809596
21285901 2 18056761155356122047
21304303 282 17614227447365106269
21344244 246 17983004562149893119
21521721 280 18272655671208116273
21524375 3 17968660406399246765
22907989 373 18194989514883898069
23227448 37 18263643029517895100
23419403 2 17130417115517310883
23558518 356 17897160437019341312
23559900 14 18131066035676621808
298252 57 18187926131980786145
3298306 158 18192714436458614758
3729539 64 17979083682526723350
4340502 62 17984733072423054569
6138700 20 17761212112156822374
633830 44 17846500275445201977
69090 78 18335419062616085924
7164475 11 18117842333134416246
7399639 24 17550938630684788656
81228 2 18048022254028190731

>  <PUBCHEM_SHAPE_MULTIPOLES>  (1) 
478.08
7.03
4.13
1.87
6.06
3.82
-0.67
-4.13
1.73
-3.09
0.89
0.08
-0.39
1.29

>  <PUBCHEM_SHAPE_SELFOVERLAP>  (1) 
1002.771

>  <PUBCHEM_SHAPE_VOLUME>  (1) 
270

>  <PUBCHEM_COORDINATE_TYPE>  (1) 
2
5
10

$$$$
