23731
     RDKit          3D

  8  7  0  0  1  0  0  0  0  0999 V2000
   -0.7226    0.5645   -0.0979 P   0  0  0  0  0  0  0  0  0  0  0  0
    0.7879    0.1998   -0.5453 O   0  0  0  0  0  0  0  0  0  0  0  0
   -0.5394    1.6847    1.0542 O   0  0  0  0  0  0  0  0  0  0  0  0
   -1.6160    0.9886   -1.2270 O   0  0  0  0  0  0  0  0  0  0  0  0
   -1.3178   -0.8608    0.7901 C   0  0  0  0  0  0  0  0  0  0  0  0
   -1.4581   -2.0781   -0.0992 C   0  0  0  0  0  0  0  0  0  0  0  0
    1.7818   -0.0999    0.4183 C   0  0  0  0  0  0  0  0  0  0  0  0
    3.0841   -0.3987   -0.2931 C   0  0  0  0  0  0  0  0  0  0  0  0
  1  2  1  0
  1  3  1  0
  1  4  2  0
  1  5  1  0
  2  7  1  0
  5  6  1  0
  7  8  1  0
M  END
>  <PUBCHEM_COMPOUND_CID>  (1) 
23731

>  <PUBCHEM_CONFORMER_RMSD>  (1) 
0.6

>  <PUBCHEM_CONFORMER_DIVERSEORDER>  (1) 
1
7
5
13
3
10
12
8
2
4
9
11
6

>  <PUBCHEM_MMFF94_PARTIAL_CHARGES>  (1) 
6
1 1.24
19 0.5
2 -0.55
3 -0.77
4 -0.7
7 0.28

>  <PUBCHEM_EFFECTIVE_ROTOR_COUNT>  (1) 
3

>  <PUBCHEM_PHARMACOPHORE_FEATURES>  (1) 
2
1 3 acceptor
1 4 acceptor

>  <PUBCHEM_HEAVY_ATOM_COUNT>  (1) 
8

>  <PUBCHEM_ATOM_DEF_STEREO_COUNT>  (1) 
0

>  <PUBCHEM_ATOM_UDEF_STEREO_COUNT>  (1) 
0

>  <PUBCHEM_BOND_DEF_STEREO_COUNT>  (1) 
0

>  <PUBCHEM_BOND_UDEF_STEREO_COUNT>  (1) 
0

>  <PUBCHEM_ISOTOPIC_ATOM_COUNT>  (1) 
0

>  <PUBCHEM_COMPONENT_COUNT>  (1) 
1

>  <PUBCHEM_CACTVS_TAUTO_COUNT>  (1) 
1

>  <PUBCHEM_CONFORMER_ID>  (1) 
00005CB300000001

>  <PUBCHEM_MMFF94_ENERGY>  (1) 
-15.349

>  <PUBCHEM_FEATURE_SELFOVERLAP>  (1) 
10.159

>  <PUBCHEM_SHAPE_FINGERPRINT>  (1) 
12932741 1 18342730828310858344
137420 1 13502332157473187683
20711978 78 17554598870253730561
21040471 1 17970894579656287860
23552449 11 17625267794091283003
24536 1 18271812280900651292
29004967 10 17988362697107024978
3248919 1 18271526391093075894
5943 1 13086915752419903105

>  <PUBCHEM_SHAPE_MULTIPOLES>  (1) 
150.88
3.28
1.72
1
3.21
0.29
0.01
1.09
0.36
-1.2
-0.1
-0.3
-0.29
0.2

>  <PUBCHEM_SHAPE_SELFOVERLAP>  (1) 
254.452

>  <PUBCHEM_SHAPE_VOLUME>  (1) 
102.7

>  <PUBCHEM_COORDINATE_TYPE>  (1) 
2
5
10

$$$$
