2374
     RDKit          3D

 16 16  0  0  0  0  0  0  0  0999 V2000
   -1.5600    2.2805    0.0047 O   0  0  0  0  0  0  0  0  0  0  0  0
    1.5378   -2.2822    0.0041 O   0  0  0  0  0  0  0  0  0  0  0  0
   -2.8884   -0.2487    0.0044 C   0  0  0  0  0  0  0  0  0  0  0  0
    2.8662    0.2466    0.0045 C   0  0  0  0  0  0  0  0  0  0  0  0
   -1.3572   -0.1074    0.0056 C   0  0  0  0  0  0  0  0  0  0  0  0
    1.3794    0.1095    0.0049 C   0  0  0  0  0  0  0  0  0  0  0  0
   -0.8020    1.1480    0.0051 C   0  0  0  0  0  0  0  0  0  0  0  0
    0.7798   -1.1500    0.0054 C   0  0  0  0  0  0  0  0  0  0  0  0
   -0.6106   -1.2605    0.0057 C   0  0  0  0  0  0  0  0  0  0  0  0
    0.5884    1.2584    0.0048 C   0  0  0  0  0  0  0  0  0  0  0  0
   -3.2719   -1.7444    0.0036 C   0  0  0  0  0  0  0  0  0  0  0  0
   -3.4715    0.4256   -1.2563 C   0  0  0  0  0  0  0  0  0  0  0  0
   -3.5769    0.3981    1.2276 C   0  0  0  0  0  0  0  0  0  0  0  0
    3.2942    1.7463    0.0041 C   0  0  0  0  0  0  0  0  0  0  0  0
    3.4943   -0.4235   -1.2559 C   0  0  0  0  0  0  0  0  0  0  0  0
    3.5983   -0.3964    1.2280 C   0  0  0  0  0  0  0  0  0  0  0  0
  1  7  1  0
  2  8  1  0
  3  5  1  0
  3 11  1  0
  3 12  1  0
  3 13  1  0
  4  6  1  0
  4 14  1  0
  4 15  1  0
  4 16  1  0
  5  7  2  0
  5  9  1  0
  6  8  1  0
  6 10  2  0
  7 10  1  0
  8  9  2  0
M  END
>  <PUBCHEM_COMPOUND_CID>  (1) 
2374

>  <PUBCHEM_CONFORMER_RMSD>  (1) 
0.6

>  <PUBCHEM_CONFORMER_DIVERSEORDER>  (1) 
1

>  <PUBCHEM_MMFF94_PARTIAL_CHARGES>  (1) 
14
1 -0.53
10 -0.15
17 0.15
18 0.15
2 -0.53
3 0.14
37 0.45
38 0.45
4 0.14
5 -0.14
6 -0.14
7 0.08
8 0.08
9 -0.15

>  <PUBCHEM_EFFECTIVE_ROTOR_COUNT>  (1) 
2

>  <PUBCHEM_PHARMACOPHORE_FEATURES>  (1) 
5
1 1 donor
1 2 donor
4 3 11 12 13 hydrophobe
4 4 14 15 16 hydrophobe
6 5 6 7 8 9 10 rings

>  <PUBCHEM_HEAVY_ATOM_COUNT>  (1) 
16

>  <PUBCHEM_ATOM_DEF_STEREO_COUNT>  (1) 
0

>  <PUBCHEM_ATOM_UDEF_STEREO_COUNT>  (1) 
0

>  <PUBCHEM_BOND_DEF_STEREO_COUNT>  (1) 
0

>  <PUBCHEM_BOND_UDEF_STEREO_COUNT>  (1) 
0

>  <PUBCHEM_ISOTOPIC_ATOM_COUNT>  (1) 
0

>  <PUBCHEM_COMPONENT_COUNT>  (1) 
1

>  <PUBCHEM_CACTVS_TAUTO_COUNT>  (1) 
4

>  <PUBCHEM_CONFORMER_ID>  (1) 
0000094600000001

>  <PUBCHEM_MMFF94_ENERGY>  (1) 
77.6377

>  <PUBCHEM_FEATURE_SELFOVERLAP>  (1) 
25.371

>  <PUBCHEM_SHAPE_FINGERPRINT>  (1) 
10062212 137 18335971043434218203
10608611 8 18408881815308179077
10967382 1 18266458904465601928
11132069 177 18342453750858361073
11206711 2 18337955592954899165
11471102 20 18411415124521428541
11806522 49 18126282184705950023
12032990 46 18340212984889765511
12382932 28 18412830191970957915
12932764 1 18040998453142720231
13140716 1 18266459986781536721
13221675 6 18413108363774971886
13296908 3 18273219719902830527
13380535 21 18124325912542895441
13538477 17 18113897217100810234
13583140 156 16878213264104211585
13760787 19 17167581587561816635
13760787 5 18186522119903449805
14144814 61 18410573985151451328
14325111 11 18410574028164512064
15196674 1 18410574028101124097
15309172 13 18411422812708210107
15536298 74 18202006542484460302
16945 1 18410573963676614663
17844478 74 18040443187355387333
18186145 218 18410859879865910748
18522853 295 18410014334297448114
19422 9 17847068795617122405
200 152 18130210619434627389
20201158 50 18408036304025439327
20279233 1 18334851706358437367
20281475 54 18342178868682972771
20510252 161 18272373078980849984
20525323 117 18339920424818657241
20559304 39 18261669295061865186
20645476 183 17531538701516350606
20645477 70 18335974298766169127
21267235 1 18410864282086459507
21501502 16 18194403281801838625
2334 1 17978227488915980293
23402539 116 18340474656199302108
23463225 33 18334289868775068010
23493267 7 17458623389450228473
23559900 14 18342461461247778100
2748010 2 18122625225710370835
3312278 4 18409166615011258075
5104073 3 18410855494487901152
581208 293 18343860026546804094
633830 44 18273223005589696356
69090 78 17775279482717227798
7364860 26 18198903613413342710
8809292 202 18187651340020875339

>  <PUBCHEM_SHAPE_MULTIPOLES>  (1) 
317.53
6.91
1.91
1
0.11
0
0.02
-0.01
-0.09
0
0
0
0
0.01

>  <PUBCHEM_SHAPE_SELFOVERLAP>  (1) 
658.635

>  <PUBCHEM_SHAPE_VOLUME>  (1) 
184.2

>  <PUBCHEM_COORDINATE_TYPE>  (1) 
2
5
10

$$$$
