23743
     RDKit          3D

  7  7  0  0  1  0  0  0  0  0999 V2000
    0.1595    1.1686    0.1586 O   0  0  0  0  0  0  0  0  0  0  0  0
   -1.0378   -0.5052    1.2985 O   0  0  0  0  0  0  0  0  0  0  0  0
   -0.6452   -0.0138    0.0169 C   0  0  0  0  0  0  0  0  0  0  0  0
    0.2589   -1.0503   -0.6382 C   0  0  0  0  0  0  0  0  0  0  0  0
    1.6025   -0.7046   -0.0401 C   0  0  0  0  0  0  0  0  0  0  0  0
    1.5413    0.8066    0.0197 C   0  0  0  0  0  0  0  0  0  0  0  0
   -1.8793    0.2988   -0.8153 C   0  0  0  0  0  0  0  0  0  0  0  0
  1  3  1  0
  1  6  1  0
  2  3  1  0
  3  4  1  0
  3  7  1  0
  4  5  1  0
  5  6  1  0
M  END
>  <PUBCHEM_COMPOUND_CID>  (1) 
23743

>  <PUBCHEM_CONFORMER_RMSD>  (1) 
0.4

>  <PUBCHEM_CONFORMER_DIVERSEORDER>  (1) 
1
2

>  <PUBCHEM_MMFF94_PARTIAL_CHARGES>  (1) 
5
1 -0.56
17 0.4
2 -0.68
3 0.56
6 0.28

>  <PUBCHEM_EFFECTIVE_ROTOR_COUNT>  (1) 
1

>  <PUBCHEM_PHARMACOPHORE_FEATURES>  (1) 
4
1 1 acceptor
1 2 acceptor
1 2 donor
5 1 3 4 5 6 rings

>  <PUBCHEM_HEAVY_ATOM_COUNT>  (1) 
7

>  <PUBCHEM_ATOM_DEF_STEREO_COUNT>  (1) 
0

>  <PUBCHEM_ATOM_UDEF_STEREO_COUNT>  (1) 
1

>  <PUBCHEM_BOND_DEF_STEREO_COUNT>  (1) 
0

>  <PUBCHEM_BOND_UDEF_STEREO_COUNT>  (1) 
0

>  <PUBCHEM_ISOTOPIC_ATOM_COUNT>  (1) 
0

>  <PUBCHEM_COMPONENT_COUNT>  (1) 
1

>  <PUBCHEM_CACTVS_TAUTO_COUNT>  (1) 
1

>  <PUBCHEM_CONFORMER_ID>  (1) 
00005CBF00000001

>  <PUBCHEM_MMFF94_ENERGY>  (1) 
9.8789

>  <PUBCHEM_FEATURE_SELFOVERLAP>  (1) 
20.337

>  <PUBCHEM_SHAPE_FINGERPRINT>  (1) 
137420 1 8410456404267011723
20096714 4 18342453802587950596
21040471 1 18270388520516364828
24536 1 18260558792053693740
29004967 10 18341891866167709227
5943 1 11233275736323041755

>  <PUBCHEM_SHAPE_MULTIPOLES>  (1) 
132.32
2.11
1.13
0.94
0.18
0.04
-0.22
0.12
0.29
-0.32
0.08
0.35
-0.12
0.1

>  <PUBCHEM_SHAPE_SELFOVERLAP>  (1) 
258.286

>  <PUBCHEM_SHAPE_VOLUME>  (1) 
81.8

>  <PUBCHEM_COORDINATE_TYPE>  (1) 
2
5
10

$$$$
