23752
     RDKit          3D

 12 11  0  0  0  0  0  0  0  0999 V2000
    1.7871   -1.6932   -0.0065 O   0  0  0  0  0  0  0  0  0  0  0  0
   -1.7927    1.7042   -0.0045 O   0  0  0  0  0  0  0  0  0  0  0  0
    3.1165    0.2072   -0.0019 N   0  0  0  0  0  0  0  0  0  0  0  0
   -3.1223   -0.1963   -0.0002 N   0  0  0  0  0  0  0  0  0  0  0  0
    0.6441    0.4136    0.0067 C   0  0  0  0  0  0  0  0  0  0  0  0
   -0.6496   -0.4027    0.0069 C   0  0  0  0  0  0  0  0  0  0  0  0
    1.8890   -0.4636   -0.0012 C   0  0  0  0  0  0  0  0  0  0  0  0
   -1.8945    0.4745    0.0000 C   0  0  0  0  0  0  0  0  0  0  0  0
    3.2867    1.6583    0.0041 C   0  0  0  0  0  0  0  0  0  0  0  0
    4.3549   -0.5618   -0.0026 C   0  0  0  0  0  0  0  0  0  0  0  0
   -4.4011    0.5105   -0.0060 C   0  0  0  0  0  0  0  0  0  0  0  0
   -3.2181   -1.6507    0.0053 C   0  0  0  0  0  0  0  0  0  0  0  0
  1  7  2  0
  2  8  2  0
  3  7  1  0
  3  9  1  0
  3 10  1  0
  4  8  1  0
  4 11  1  0
  4 12  1  0
  5  6  1  0
  5  7  1  0
  6  8  1  0
M  END
>  <PUBCHEM_COMPOUND_CID>  (1) 
23752

>  <PUBCHEM_CONFORMER_RMSD>  (1) 
0.6

>  <PUBCHEM_CONFORMER_DIVERSEORDER>  (1) 
1
20
33
36
23
16
11
29
4
13
6
12
22
9
32
24
27
21
5
35
7
19
15
10
25
28
3
31
14
18
34
30
26
17
8
2

>  <PUBCHEM_MMFF94_PARTIAL_CHARGES>  (1) 
12
1 -0.57
10 0.3
11 0.3
12 0.3
2 -0.57
3 -0.66
4 -0.66
5 0.06
6 0.06
7 0.57
8 0.57
9 0.3

>  <PUBCHEM_EFFECTIVE_ROTOR_COUNT>  (1) 
5

>  <PUBCHEM_PHARMACOPHORE_FEATURES>  (1) 
2
1 1 acceptor
1 2 acceptor

>  <PUBCHEM_HEAVY_ATOM_COUNT>  (1) 
12

>  <PUBCHEM_ATOM_DEF_STEREO_COUNT>  (1) 
0

>  <PUBCHEM_ATOM_UDEF_STEREO_COUNT>  (1) 
0

>  <PUBCHEM_BOND_DEF_STEREO_COUNT>  (1) 
0

>  <PUBCHEM_BOND_UDEF_STEREO_COUNT>  (1) 
0

>  <PUBCHEM_ISOTOPIC_ATOM_COUNT>  (1) 
0

>  <PUBCHEM_COMPONENT_COUNT>  (1) 
1

>  <PUBCHEM_CACTVS_TAUTO_COUNT>  (1) 
1

>  <PUBCHEM_CONFORMER_ID>  (1) 
00005CC800000001

>  <PUBCHEM_MMFF94_ENERGY>  (1) 
25.8902

>  <PUBCHEM_FEATURE_SELFOVERLAP>  (1) 
10.149

>  <PUBCHEM_SHAPE_FINGERPRINT>  (1) 
10608611 8 18409726244554455228
11062470 55 17821728334131234669
12932764 1 17676200234721604098
14325111 11 18410575106169583400
14415576 193 18409452492239984452
14445660 50 18272099296580248929
17802600 8 18410569570289476976
17834072 33 18201433727349849911
17834074 16 18341616996845743510
18186145 218 17967808362228455318
18522853 276 18272086089387352936
190213 19 17489873743115086114
19050596 39 18410292518806918674
200 152 18130783460597413415
20201158 50 18410294700671585987
20279233 1 18411986845083054215
20528008 55 18411133645518639349
20645477 56 18041276561582859805
20645477 70 18269552754377958591
22485316 2 18410289220535889779
22959321 4 18408885169941088938
23402539 116 18261384563909275710
23402655 69 18411136917999077380
23557571 272 18200319814159225460
23559900 14 18411978053453681018
25610 137 18339646740828251529
3312278 4 18411420626780723107
5104073 3 18410575123323066803
58051976 378 18271805696457447374
77779 3 18411702092671483909

>  <PUBCHEM_SHAPE_MULTIPOLES>  (1) 
225.25
8.52
1.59
0.59
0.07
0.01
0
0.03
0.01
-0.04
0
0
0
0.01

>  <PUBCHEM_SHAPE_SELFOVERLAP>  (1) 
420.834

>  <PUBCHEM_SHAPE_VOLUME>  (1) 
142.5

>  <PUBCHEM_COORDINATE_TYPE>  (1) 
2
5
10

$$$$
