23757
     RDKit          3D

 28 30  0  0  1  0  0  0  0  0999 V2000
    0.7312    1.8211   -1.7874 O   0  0  0  0  0  0  0  0  0  0  0  0
    4.8817    0.9861    0.4085 O   0  0  0  0  0  0  0  0  0  0  0  0
    3.4557    2.0532   -1.7058 O   0  0  0  0  0  0  0  0  0  0  0  0
   -5.1272    1.7100    0.1001 O   0  0  0  0  0  0  0  0  0  0  0  0
   -4.5077   -0.4867   -1.4738 O   0  0  0  0  0  0  0  0  0  0  0  0
    0.5678   -4.5786   -0.1115 O   0  0  0  0  0  0  0  0  0  0  0  0
    0.4329   -2.2714   -0.3837 N   0  0  0  0  0  0  0  0  0  0  0  0
   -0.5355   -2.0079    0.6635 C   0  0  0  0  0  0  0  0  0  0  0  0
    0.1242   -1.9475    2.0600 C   0  0  0  0  0  0  0  0  0  0  0  0
    0.7478   -0.6174    2.5029 C   0  0  0  0  0  0  0  0  0  0  0  0
   -1.3908   -0.8020    0.2629 C   0  0  0  0  0  0  0  0  0  0  0  0
    1.4642    0.1127    1.3976 C   0  0  0  0  0  0  0  0  0  0  0  0
    0.7302    0.6656    0.3271 C   0  0  0  0  0  0  0  0  0  0  0  0
   -0.7555    0.5250    0.2985 C   0  0  0  0  0  0  0  0  0  0  0  0
    1.4105    1.3130   -0.7164 C   0  0  0  0  0  0  0  0  0  0  0  0
    2.8601    0.2302    1.4114 C   0  0  0  0  0  0  0  0  0  0  0  0
   -2.6391   -1.0521   -0.1733 C   0  0  0  0  0  0  0  0  0  0  0  0
   -1.4142    1.6949    0.4062 C   0  0  0  0  0  0  0  0  0  0  0  0
    3.5233    0.8852    0.3738 C   0  0  0  0  0  0  0  0  0  0  0  0
    2.8006    1.4237   -0.6885 C   0  0  0  0  0  0  0  0  0  0  0  0
   -3.6872   -0.1136   -0.6372 C   0  0  0  0  0  0  0  0  0  0  0  0
    0.8975   -3.5389   -0.6761 C   0  0  0  0  0  0  0  0  0  0  0  0
   -2.8293    1.9396    0.4958 C   0  0  0  0  0  0  0  0  0  0  0  0
   -3.8381    1.2075    0.0159 C   0  0  0  0  0  0  0  0  0  0  0  0
    1.8741   -3.5325   -1.8215 C   0  0  0  0  0  0  0  0  0  0  0  0
    0.5368    0.9513   -2.8985 C   0  0  0  0  0  0  0  0  0  0  0  0
    5.4298    2.1358    1.0499 C   0  0  0  0  0  0  0  0  0  0  0  0
   -5.7438    1.2934    1.3000 C   0  0  0  0  0  0  0  0  0  0  0  0
  1 15  1  0
  1 26  1  0
  2 19  1  0
  2 27  1  0
  3 20  1  0
  4 24  1  0
  4 28  1  0
  5 21  2  0
  6 22  2  0
  7  8  1  0
  7 22  1  0
  8  9  1  0
  8 11  1  0
  9 10  1  0
 10 12  1  0
 11 14  1  0
 11 17  2  0
 12 13  2  0
 12 16  1  0
 13 14  1  0
 13 15  1  0
 14 18  2  0
 15 20  2  0
 16 19  2  0
 17 21  1  0
 18 23  1  0
 19 20  1  0
 21 24  1  0
 22 25  1  0
 23 24  2  0
M  END
>  <PUBCHEM_COMPOUND_CID>  (1) 
23757

>  <PUBCHEM_CONFORMER_RMSD>  (1) 
0.8

>  <PUBCHEM_CONFORMER_DIVERSEORDER>  (1) 
1
14
15
9
10
4
17
16
8
13
6
12
5
2
3
7
11

>  <PUBCHEM_MMFF94_PARTIAL_CHARGES>  (1) 
33
1 -0.36
10 0.14
11 -0.14
12 -0.14
13 0.03
14 -0.03
15 0.08
16 -0.15
17 -0.14
18 -0.15
19 0.08
2 -0.36
20 0.08
21 0.54
22 0.57
23 -0.15
24 0.09
25 0.06
26 0.28
27 0.28
28 0.28
3 -0.53
34 0.37
35 0.15
36 0.15
37 0.15
38 0.15
4 -0.36
42 0.45
5 -0.57
6 -0.57
7 -0.73
8 0.44

>  <PUBCHEM_EFFECTIVE_ROTOR_COUNT>  (1) 
5.6

>  <PUBCHEM_PHARMACOPHORE_FEATURES>  (1) 
10
1 1 acceptor
1 2 acceptor
1 3 donor
1 4 acceptor
1 5 acceptor
1 6 acceptor
1 7 donor
6 12 13 15 16 19 20 rings
7 11 14 17 18 21 23 24 rings
7 8 9 10 11 12 13 14 rings

>  <PUBCHEM_HEAVY_ATOM_COUNT>  (1) 
28

>  <PUBCHEM_ATOM_DEF_STEREO_COUNT>  (1) 
1

>  <PUBCHEM_ATOM_UDEF_STEREO_COUNT>  (1) 
0

>  <PUBCHEM_BOND_DEF_STEREO_COUNT>  (1) 
0

>  <PUBCHEM_BOND_UDEF_STEREO_COUNT>  (1) 
0

>  <PUBCHEM_ISOTOPIC_ATOM_COUNT>  (1) 
0

>  <PUBCHEM_COMPONENT_COUNT>  (1) 
1

>  <PUBCHEM_CACTVS_TAUTO_COUNT>  (1) 
6

>  <PUBCHEM_CONFORMER_ID>  (1) 
00005CCD00000001

>  <PUBCHEM_MMFF94_ENERGY>  (1) 
121.2692

>  <PUBCHEM_FEATURE_SELFOVERLAP>  (1) 
50.769

>  <PUBCHEM_SHAPE_FINGERPRINT>  (1) 
10382601 240 18042117674496841315
11370993 70 18271805761398706974
11488393 25 17901090941922852954
12236239 1 18259978292800987505
12422481 6 18045474466701720378
12788726 201 17612600329302233698
13583140 156 17272007868599982984
14863182 85 18337116683015638153
14955137 171 17749401350938815593
16945 1 18264770046347732680
17980427 23 18115306816419045324
17980427 26 17344030114386943960
1813 80 17831861244367609299
20511986 3 17680126750402714692
20691752 17 17750799848240869531
21033648 29 18058440075220303760
22149856 69 18194991620610123313
23366157 5 18191585246675505219
23419403 2 15296136875045027689
23559900 14 18201441393956663512
23598288 3 17827930834058905738
298252 57 18337383958815014802
404807 14 17123124807159013014
474 4 17968095313584101617
5080951 261 17830415683741807816
5081480 168 17979078189331435343
59755656 215 18266462014011634924
6287921 2 18268424625409176927
9981440 41 18410575119181437227

>  <PUBCHEM_SHAPE_MULTIPOLES>  (1) 
536.03
8.6
3.77
2.06
5.02
5.29
-0.46
-7.7
1.22
-2.08
-1.04
-0.91
0.09
-0.12

>  <PUBCHEM_SHAPE_SELFOVERLAP>  (1) 
1150.579

>  <PUBCHEM_SHAPE_VOLUME>  (1) 
292.2

>  <PUBCHEM_COORDINATE_TYPE>  (1) 
2
5
10

$$$$
