23759
     RDKit          3D

 28 30  0  0  1  0  0  0  0  0999 V2000
    0.8334    2.0093   -1.0375 O   0  0  0  0  0  0  0  0  0  0  0  0
    3.5594    1.9980   -0.8059 O   0  0  0  0  0  0  0  0  0  0  0  0
    4.8103    0.1573    0.8338 O   0  0  0  0  0  0  0  0  0  0  0  0
   -5.1100    1.6736    0.5322 O   0  0  0  0  0  0  0  0  0  0  0  0
   -4.5420    0.1271   -1.6978 O   0  0  0  0  0  0  0  0  0  0  0  0
    0.2229   -2.2822   -1.1746 N   0  0  0  0  0  0  0  0  0  0  0  0
   -0.7802   -2.3317   -0.1281 C   0  0  0  0  0  0  0  0  0  0  0  0
   -0.1899   -2.8120    1.2172 C   0  0  0  0  0  0  0  0  0  0  0  0
    0.4878   -1.7702    2.1170 C   0  0  0  0  0  0  0  0  0  0  0  0
   -1.5414   -1.0027   -0.1008 C   0  0  0  0  0  0  0  0  0  0  0  0
    1.3013   -0.7540    1.3596 C   0  0  0  0  0  0  0  0  0  0  0  0
   -0.8316    0.1777    0.4173 C   0  0  0  0  0  0  0  0  0  0  0  0
    0.6565    0.1905    0.5334 C   0  0  0  0  0  0  0  0  0  0  0  0
    1.4259    1.1104   -0.1963 C   0  0  0  0  0  0  0  0  0  0  0  0
   -2.7786   -0.9924   -0.6304 C   0  0  0  0  0  0  0  0  0  0  0  0
    2.6991   -0.7512    1.4513 C   0  0  0  0  0  0  0  0  0  0  0  0
   -1.4247    1.2808    0.9127 C   0  0  0  0  0  0  0  0  0  0  0  0
   -0.4131   -2.0629   -2.4695 C   0  0  0  0  0  0  0  0  0  0  0  0
    1.0019   -3.5162   -1.1816 C   0  0  0  0  0  0  0  0  0  0  0  0
    2.8169    1.1024   -0.0940 C   0  0  0  0  0  0  0  0  0  0  0  0
    3.4517    0.1750    0.7294 C   0  0  0  0  0  0  0  0  0  0  0  0
   -3.7445    0.1230   -0.7617 C   0  0  0  0  0  0  0  0  0  0  0  0
   -2.8256    1.5815    1.0448 C   0  0  0  0  0  0  0  0  0  0  0  0
   -3.8501    1.1394    0.3109 C   0  0  0  0  0  0  0  0  0  0  0  0
    1.2034    1.9464   -2.4116 C   0  0  0  0  0  0  0  0  0  0  0  0
    3.8518    3.2421   -0.1744 C   0  0  0  0  0  0  0  0  0  0  0  0
    5.5200   -0.6687   -0.0867 C   0  0  0  0  0  0  0  0  0  0  0  0
   -5.8104    0.9099    1.4913 C   0  0  0  0  0  0  0  0  0  0  0  0
  1 14  1  0
  1 25  1  0
  2 20  1  0
  2 26  1  0
  3 21  1  0
  3 27  1  0
  4 24  1  0
  4 28  1  0
  5 22  2  0
  6  7  1  0
  6 18  1  0
  6 19  1  0
  7  8  1  0
  7 10  1  0
  8  9  1  0
  9 11  1  0
 10 12  1  0
 10 15  2  0
 11 13  2  0
 11 16  1  0
 12 13  1  0
 12 17  2  0
 13 14  1  0
 14 20  2  0
 15 22  1  0
 16 21  2  0
 17 23  1  0
 20 21  1  0
 22 24  1  0
 23 24  2  0
M  END
>  <PUBCHEM_COMPOUND_CID>  (1) 
23759

>  <PUBCHEM_CONFORMER_RMSD>  (1) 
0.8

>  <PUBCHEM_CONFORMER_DIVERSEORDER>  (1) 
3
7
8
6
2
10
12
4
9
1
5
11

>  <PUBCHEM_MMFF94_PARTIAL_CHARGES>  (1) 
31
1 -0.36
10 -0.14
11 -0.14
12 -0.03
13 0.03
14 0.08
15 -0.14
16 -0.15
17 -0.15
18 0.27
19 0.27
2 -0.36
20 0.08
21 0.08
22 0.54
23 -0.15
24 0.09
25 0.28
26 0.28
27 0.28
28 0.28
3 -0.36
34 0.15
35 0.15
36 0.15
4 -0.36
43 0.15
5 -0.57
6 -0.81
7 0.41
9 0.14

>  <PUBCHEM_EFFECTIVE_ROTOR_COUNT>  (1) 
5.6

>  <PUBCHEM_PHARMACOPHORE_FEATURES>  (1) 
9
1 1 acceptor
1 2 acceptor
1 3 acceptor
1 4 acceptor
1 5 acceptor
1 6 cation
6 11 13 14 16 20 21 rings
7 10 12 15 17 22 23 24 rings
7 7 8 9 10 11 12 13 rings

>  <PUBCHEM_HEAVY_ATOM_COUNT>  (1) 
28

>  <PUBCHEM_ATOM_DEF_STEREO_COUNT>  (1) 
1

>  <PUBCHEM_ATOM_UDEF_STEREO_COUNT>  (1) 
0

>  <PUBCHEM_BOND_DEF_STEREO_COUNT>  (1) 
0

>  <PUBCHEM_BOND_UDEF_STEREO_COUNT>  (1) 
0

>  <PUBCHEM_ISOTOPIC_ATOM_COUNT>  (1) 
0

>  <PUBCHEM_COMPONENT_COUNT>  (1) 
1

>  <PUBCHEM_CACTVS_TAUTO_COUNT>  (1) 
1

>  <PUBCHEM_CONFORMER_ID>  (1) 
00005CCF00000003

>  <PUBCHEM_MMFF94_ENERGY>  (1) 
148.9085

>  <PUBCHEM_FEATURE_SELFOVERLAP>  (1) 
45.704

>  <PUBCHEM_SHAPE_FINGERPRINT>  (1) 
10382601 240 18192434065309338243
10863032 1 18189332531980668082
10948715 1 18410292548945789586
11370993 70 17917989486553906246
11640471 11 18189897689362747780
12236239 1 18411416202531989209
12422481 6 17908396105757292786
12592029 89 18339932519277862027
12788726 201 17838609307798892679
13140716 1 18260552263634955929
133893 2 17840337456799416283
13544653 18 10015589414800592329
13583140 156 17240475893480646035
13782708 43 14996551846935211322
14790565 3 18272093820481759193
14955137 171 18260842465953524440
15420108 30 17478335227871137672
15849732 13 18186527592166707428
1601671 61 18335696105476437552
16752209 62 18059000808759381871
16945 1 18412546526397616930
20600515 1 12829779453306102427
20691752 17 18190468146940270359
20739085 24 17821733792929770620
21033648 144 18260542368114974621
22149856 69 17987536853381699035
23402539 116 17704064092763420297
23419403 2 17688643412251252211
23559900 14 18201434835631182824
23598288 3 18195529426780890778
298252 57 18273209824298473002
404807 14 16264358946670719582
474 4 18335983086706801387
5104073 3 18115020939179809160
59755656 215 18199473160093243197
90525 40 18341043090457039298
9999458 23 17385450912101652106

>  <PUBCHEM_SHAPE_MULTIPOLES>  (1) 
541.9
9.07
3.31
1.91
3.56
1.13
-0.63
-5.72
1.61
-1.55
-0.95
0.27
0.56
-1.31

>  <PUBCHEM_SHAPE_SELFOVERLAP>  (1) 
1159.42

>  <PUBCHEM_SHAPE_VOLUME>  (1) 
298.9

>  <PUBCHEM_COORDINATE_TYPE>  (1) 
2
5
10

$$$$
