23772
     RDKit          3D

 12 11  0  0  0  0  0  0  0  0999 V2000
    2.6702   -1.9388    0.5065 O   0  0  0  0  0  0  0  0  0  0  0  0
   -2.6285   -1.9542   -0.5216 O   0  0  0  0  0  0  0  0  0  0  0  0
    1.8469   -0.0347    0.1105 N   0  0  0  0  0  0  0  0  0  0  0  0
   -1.8564   -0.0367   -0.1018 N   0  0  0  0  0  0  0  0  0  0  0  0
    2.7061   -0.7455    0.8300 N   0  0  0  0  0  0  0  0  0  0  0  0
   -2.6770   -0.7607   -0.8422 N   0  0  0  0  0  0  0  0  0  0  0  0
    0.4887   -0.0369    0.5995 C   0  0  0  0  0  0  0  0  0  0  0  0
   -0.4787   -0.0071   -0.5769 C   0  0  0  0  0  0  0  0  0  0  0  0
    2.3278    1.3485   -0.0652 C   0  0  0  0  0  0  0  0  0  0  0  0
   -2.3557    1.3352    0.0702 C   0  0  0  0  0  0  0  0  0  0  0  0
    3.3751    1.4302   -1.1629 C   0  0  0  0  0  0  0  0  0  0  0  0
   -3.4186    1.4007    1.1538 C   0  0  0  0  0  0  0  0  0  0  0  0
  1  5  2  0
  2  6  2  0
  3  5  1  0
  3  7  1  0
  3  9  1  0
  4  6  1  0
  4  8  1  0
  4 10  1  0
  7  8  1  0
  9 11  1  0
 10 12  1  0
M  END
>  <PUBCHEM_COMPOUND_CID>  (1) 
23772

>  <PUBCHEM_CONFORMER_RMSD>  (1) 
0.8

>  <PUBCHEM_CONFORMER_DIVERSEORDER>  (1) 
1
56
52
45
40
28
3
6
8
13
46
12
9
2
11
55
59
7
15
61
67
16
49
4
26
5
17
36
53
19
23
66
58
35
29
65
10
24
32
14
64
31
33
44
41
57
20
60
37
22
38
51
34
21
39
42
18
48
30
62
47
25
43
54
27
63
50

>  <PUBCHEM_MMFF94_PARTIAL_CHARGES>  (1) 
10
1 -0.16
10 0.27
2 -0.16
3 -0.36
4 -0.36
5 -0.01
6 -0.01
7 0.27
8 0.27
9 0.27

>  <PUBCHEM_EFFECTIVE_ROTOR_COUNT>  (1) 
7

>  <PUBCHEM_PHARMACOPHORE_FEATURES>  (1) 
0

>  <PUBCHEM_HEAVY_ATOM_COUNT>  (1) 
12

>  <PUBCHEM_ATOM_DEF_STEREO_COUNT>  (1) 
0

>  <PUBCHEM_ATOM_UDEF_STEREO_COUNT>  (1) 
0

>  <PUBCHEM_BOND_DEF_STEREO_COUNT>  (1) 
0

>  <PUBCHEM_BOND_UDEF_STEREO_COUNT>  (1) 
0

>  <PUBCHEM_ISOTOPIC_ATOM_COUNT>  (1) 
0

>  <PUBCHEM_COMPONENT_COUNT>  (1) 
1

>  <PUBCHEM_CACTVS_TAUTO_COUNT>  (1) 
1

>  <PUBCHEM_CONFORMER_ID>  (1) 
00005CDC00000001

>  <PUBCHEM_MMFF94_ENERGY>  (1) 
19.5478

>  <PUBCHEM_FEATURE_SELFOVERLAP>  (1) 
0

>  <PUBCHEM_SHAPE_FINGERPRINT>  (1) 
12932764 1 18411984667176016953
15669948 3 18130505318573353479
15775835 57 18410865360028324741
18511873 20 18196087746558554939
19422 9 18410573989462470051
20279233 1 15430029976500252161
20711983 171 18272937119739698821
20711985 344 15481288010481074880
20715346 28 15863789499690677677
21501502 16 18410855464433866991
23552423 10 18334849494144519618
23598291 2 18410293571131948102
23598294 1 18273218629381973059
3248919 1 18338504300780734378
8030462 33 18341886441534285285
9939556 21 18410571747510419784

>  <PUBCHEM_SHAPE_MULTIPOLES>  (1) 
215.29
6.38
1.88
1.03
0.06
0.47
0
-1.19
0.03
-0.03
-0.02
0.01
-0.08
-1.65

>  <PUBCHEM_SHAPE_SELFOVERLAP>  (1) 
397.836

>  <PUBCHEM_SHAPE_VOLUME>  (1) 
138

>  <PUBCHEM_COORDINATE_TYPE>  (1) 
2
5
10

$$$$
