23775
     RDKit          3D

 21 22  0  0  1  0  0  0  0  0999 V2000
   -0.6146   -1.3839    0.7538 O   0  0  0  0  0  0  0  0  0  0  0  0
    1.8654    0.3914    2.2598 O   0  0  0  0  0  0  0  0  0  0  0  0
   -4.0337   -0.5983   -0.3807 N   0  0  0  0  0  0  0  0  0  0  0  0
   -2.9254   -0.7117    0.5659 C   0  0  0  0  0  0  0  0  0  0  0  0
   -1.6868   -1.2275   -0.1676 C   0  0  0  0  0  0  0  0  0  0  0  0
   -2.6678    0.6381    1.2364 C   0  0  0  0  0  0  0  0  0  0  0  0
   -3.7232    0.3867   -1.4164 C   0  0  0  0  0  0  0  0  0  0  0  0
   -5.2670   -0.2351    0.3164 C   0  0  0  0  0  0  0  0  0  0  0  0
    0.5846   -1.8022    0.2399 C   0  0  0  0  0  0  0  0  0  0  0  0
    1.7240   -1.0140    0.3673 C   0  0  0  0  0  0  0  0  0  0  0  0
    0.6446   -3.0305   -0.4112 C   0  0  0  0  0  0  0  0  0  0  0  0
    1.6771    0.2731    1.0470 C   0  0  0  0  0  0  0  0  0  0  0  0
    2.9357   -1.4586   -0.1616 C   0  0  0  0  0  0  0  0  0  0  0  0
    1.3797    1.5122    0.2866 C   0  0  0  0  0  0  0  0  0  0  0  0
    1.8564   -3.4751   -0.9399 C   0  0  0  0  0  0  0  0  0  0  0  0
    3.0019   -2.6891   -0.8151 C   0  0  0  0  0  0  0  0  0  0  0  0
    1.1617    1.4247   -1.0736 C   0  0  0  0  0  0  0  0  0  0  0  0
    1.3296    2.7147    0.9623 C   0  0  0  0  0  0  0  0  0  0  0  0
    0.8821    2.5892   -1.7885 C   0  0  0  0  0  0  0  0  0  0  0  0
    1.0498    3.8792    0.2474 C   0  0  0  0  0  0  0  0  0  0  0  0
    0.8261    3.8164   -1.1281 C   0  0  0  0  0  0  0  0  0  0  0  0
  1  5  1  0
  1  9  1  0
  2 12  2  0
  3  4  1  0
  3  7  1  0
  3  8  1  0
  4  5  1  0
  4  6  1  0
  9 10  2  0
  9 11  1  0
 10 12  1  0
 10 13  1  0
 11 15  2  0
 12 14  1  0
 13 16  2  0
 14 17  2  0
 14 18  1  0
 15 16  1  0
 17 19  1  0
 18 20  2  0
 19 21  2  0
 20 21  1  0
M  END
>  <PUBCHEM_COMPOUND_CID>  (1) 
23775

>  <PUBCHEM_CONFORMER_RMSD>  (1) 
0.8

>  <PUBCHEM_CONFORMER_DIVERSEORDER>  (1) 
1
28
13
36
24
25
27
16
26
15
17
5
41
22
35
20
14
18
19
21
6
29
33
23
9
34
31
7
12
2
4
3
38
39
11
8
10
37
30
40
32

>  <PUBCHEM_MMFF94_PARTIAL_CHARGES>  (1) 
29
1 -0.36
10 0.09
11 -0.15
12 0.4
13 -0.15
14 0.09
15 -0.15
16 -0.15
17 -0.15
18 -0.15
19 -0.15
2 -0.57
20 -0.15
21 -0.15
3 -0.81
34 0.15
35 0.15
36 0.15
37 0.15
38 0.15
39 0.15
4 0.27
40 0.15
41 0.15
42 0.15
5 0.28
7 0.27
8 0.27
9 0.08

>  <PUBCHEM_EFFECTIVE_ROTOR_COUNT>  (1) 
6

>  <PUBCHEM_PHARMACOPHORE_FEATURES>  (1) 
5
1 1 acceptor
1 2 acceptor
1 3 cation
6 14 17 18 19 20 21 rings
6 9 10 11 13 15 16 rings

>  <PUBCHEM_HEAVY_ATOM_COUNT>  (1) 
21

>  <PUBCHEM_ATOM_DEF_STEREO_COUNT>  (1) 
0

>  <PUBCHEM_ATOM_UDEF_STEREO_COUNT>  (1) 
1

>  <PUBCHEM_BOND_DEF_STEREO_COUNT>  (1) 
0

>  <PUBCHEM_BOND_UDEF_STEREO_COUNT>  (1) 
0

>  <PUBCHEM_ISOTOPIC_ATOM_COUNT>  (1) 
0

>  <PUBCHEM_COMPONENT_COUNT>  (1) 
1

>  <PUBCHEM_CACTVS_TAUTO_COUNT>  (1) 
1

>  <PUBCHEM_CONFORMER_ID>  (1) 
00005CDF00000001

>  <PUBCHEM_MMFF94_ENERGY>  (1) 
78.3764

>  <PUBCHEM_FEATURE_SELFOVERLAP>  (1) 
25.371

>  <PUBCHEM_SHAPE_FINGERPRINT>  (1) 
10165383 225 17401248888332452017
104564 63 17762062038353750750
108634 29 17541907950637761445
11578080 2 17125611953377768546
11640471 11 17178540660442561777
12156800 1 16902757387657321317
12403259 327 17241029003220894187
13134695 92 18341329998440772639
13681431 1 18335433334834524028
13899415 180 18194384620349019847
13965767 371 17974269208607691561
15210252 30 17751649753454313348
15420108 30 18053921112568365152
15806764 133 18187087205336533517
1601671 61 18336260245362893576
17134986 127 18049730907671478804
17357779 13 18122894348482516367
17492 54 18115330950240584774
17980427 26 16269636868660629674
18785283 64 18263937690291805867
20567600 299 18340474626172077845
20600515 1 17749945557870936026
21160774 45 17401493645581131360
21304303 282 17049334850054971796
21524375 3 17685494647108608208
21641784 216 17974880292744532974
22149856 69 18128262388833525227
22289505 5 18264200306241128359
23558518 356 18048868890529929146
23559900 14 18411418423758386611
238 59 18265909127498825811
283562 15 17975986366950993658
3060560 45 18339079409997534996
350125 39 17905902726675268754
4409770 3 17186723818850821215
474 4 18339918329122634267
58779409 54 17187846416123355878
5939293 188 18261381291038668577
6287921 2 18339080527053327831
6443956 14 18339361860084964893
7164475 11 17760379794718307878
7237137 82 17476663987661877310
7364860 26 18411704330439206857
81228 2 17829901931820935090
9925002 15 17614594465569441916

>  <PUBCHEM_SHAPE_MULTIPOLES>  (1) 
415.45
6.08
4.93
1.49
10.66
3.09
-0.08
-3.39
0.31
-4.54
1.59
-0.22
0.74
0.58

>  <PUBCHEM_SHAPE_SELFOVERLAP>  (1) 
878.254

>  <PUBCHEM_SHAPE_VOLUME>  (1) 
234.5

>  <PUBCHEM_COORDINATE_TYPE>  (1) 
2
5
10

$$$$
