23789
     RDKit          3D

 17 18  0  0  1  0  0  0  0  0999 V2000
    1.9248    2.6692   -0.4928 S   0  0  0  0  0  0  0  0  0  0  0  0
   -4.4397   -2.4114   -0.6740 O   0  0  0  0  0  0  0  0  0  0  0  0
   -2.0975    0.2920    0.2410 N   0  0  0  0  0  0  0  0  0  0  0  0
   -1.2794    0.3295   -0.9479 C   0  0  0  0  0  0  0  0  0  0  0  0
    0.0536    0.9353   -0.7043 C   0  0  0  0  0  0  0  0  0  0  0  0
    1.2137    0.1905   -0.3047 C   0  0  0  0  0  0  0  0  0  0  0  0
   -3.3843   -0.3664   -0.0217 C   0  0  0  0  0  0  0  0  0  0  0  0
   -2.3304    1.6437    0.7670 C   0  0  0  0  0  0  0  0  0  0  0  0
    2.3236    1.0268   -0.1507 C   0  0  0  0  0  0  0  0  0  0  0  0
    0.3021    2.2803   -0.8406 C   0  0  0  0  0  0  0  0  0  0  0  0
    1.3798   -1.1940   -0.0593 C   0  0  0  0  0  0  0  0  0  0  0  0
   -3.1716   -1.8102   -0.4477 C   0  0  0  0  0  0  0  0  0  0  0  0
   -3.1913    1.6052    2.0182 C   0  0  0  0  0  0  0  0  0  0  0  0
    2.6241   -1.6998    0.3262 C   0  0  0  0  0  0  0  0  0  0  0  0
    3.5795    0.5202    0.2378 C   0  0  0  0  0  0  0  0  0  0  0  0
    3.7110   -0.8497    0.4726 C   0  0  0  0  0  0  0  0  0  0  0  0
    2.7821   -3.1613    0.5810 C   0  0  0  0  0  0  0  0  0  0  0  0
  1  9  1  0
  1 10  1  0
  2 12  1  0
  3  4  1  0
  3  7  1  0
  3  8  1  0
  4  5  1  0
  5  6  1  0
  5 10  2  0
  6  9  2  0
  6 11  1  0
  7 12  1  0
  8 13  1  0
  9 15  1  0
 11 14  2  0
 14 16  1  0
 14 17  1  0
 15 16  2  0
M  END
>  <PUBCHEM_COMPOUND_CID>  (1) 
23789

>  <PUBCHEM_CONFORMER_RMSD>  (1) 
0.6

>  <PUBCHEM_CONFORMER_DIVERSEORDER>  (1) 
4
21
36
33
1
25
38
11
44
17
35
46
3
45
39
53
34
26
48
40
51
23
29
2
52
32
10
14
9
42
15
19
27
13
5
43
12
28
20
30
16
22
6
41
37
54
18
49
7
50
8
47
31
24

>  <PUBCHEM_MMFF94_PARTIAL_CHARGES>  (1) 
20
1 -0.08
10 -0.11
11 -0.15
12 0.28
14 -0.14
15 -0.15
16 -0.15
17 0.14
2 -0.68
24 0.15
25 0.15
3 -0.81
31 0.15
32 0.15
36 0.4
4 0.45
5 -0.18
7 0.27
8 0.27
9 0.04

>  <PUBCHEM_EFFECTIVE_ROTOR_COUNT>  (1) 
5

>  <PUBCHEM_PHARMACOPHORE_FEATURES>  (1) 
5
1 2 acceptor
1 2 donor
1 3 cation
5 1 5 6 9 10 rings
6 6 9 11 14 15 16 rings

>  <PUBCHEM_HEAVY_ATOM_COUNT>  (1) 
17

>  <PUBCHEM_ATOM_DEF_STEREO_COUNT>  (1) 
0

>  <PUBCHEM_ATOM_UDEF_STEREO_COUNT>  (1) 
0

>  <PUBCHEM_BOND_DEF_STEREO_COUNT>  (1) 
0

>  <PUBCHEM_BOND_UDEF_STEREO_COUNT>  (1) 
0

>  <PUBCHEM_ISOTOPIC_ATOM_COUNT>  (1) 
0

>  <PUBCHEM_COMPONENT_COUNT>  (1) 
1

>  <PUBCHEM_CACTVS_TAUTO_COUNT>  (1) 
1

>  <PUBCHEM_CONFORMER_ID>  (1) 
00005CED00000004

>  <PUBCHEM_MMFF94_ENERGY>  (1) 
36.9428

>  <PUBCHEM_FEATURE_SELFOVERLAP>  (1) 
25.431

>  <PUBCHEM_SHAPE_FINGERPRINT>  (1) 
11552529 35 18059566958421409627
11578080 2 17984951943366634449
11806522 49 18336824303006225790
12251169 10 18341338773190872449
12553582 1 18119251658054863002
12596599 1 18270967812662507610
12633257 1 17913209750024435978
12892183 10 17917982880730414928
13140716 1 18196362633335371890
13764800 53 16128109849257201457
14178342 30 18341323414413903626
14251717 144 18262231256582146558
14251757 17 17752453578728379479
14787075 74 17410487006367089025
14790565 3 18263373641370777468
14844126 61 17034140209651172098
15099037 8 18411981382053257371
15375462 189 18188782625958729056
15442244 35 18339081484271462499
16945 1 18335132064902334916
17492 89 18411982477154724303
18522851 12 18264504904978810638
19141452 34 18194962941995038033
19433438 48 18410290268201864346
200 152 18269828865245945487
20281475 54 18336547110375685822
20645477 70 17969773271412512631
22445834 79 18411425007304570913
2255824 54 18189342436333703396
23557571 272 16701754773751646969
23559900 14 18338504348326191425
23598288 3 17989209270043174533
23598291 2 18340783605638940533
2748010 2 17975678508184745676
33824 294 18117833528409274094
6992083 37 18267594511341736841
7097593 13 18340776931328275697

>  <PUBCHEM_SHAPE_MULTIPOLES>  (1) 
342.85
7.24
3.24
1.12
3.63
0.97
0.4
3.86
1.36
-0.64
-0.11
0.96
-0.41
-1.89

>  <PUBCHEM_SHAPE_SELFOVERLAP>  (1) 
702.891

>  <PUBCHEM_SHAPE_VOLUME>  (1) 
201

>  <PUBCHEM_COORDINATE_TYPE>  (1) 
2
5
10

$$$$
