23795
     RDKit          3D

 18 20  0  0  0  0  0  0  0  0999 V2000
   -1.7925   -1.2968   -2.1259 S   0  0  0  0  0  0  0  0  0  0  0  0
   -0.0962   -1.0135    2.4074 O   0  0  0  0  0  0  0  0  0  0  0  0
    2.2689   -0.4036    0.0659 N   0  0  0  0  0  0  0  0  0  0  0  0
    2.2250    0.8795    0.7813 C   0  0  0  0  0  0  0  0  0  0  0  0
    3.6401   -0.7359   -0.3452 C   0  0  0  0  0  0  0  0  0  0  0  0
    2.7603    2.0160   -0.0909 C   0  0  0  0  0  0  0  0  0  0  0  0
    4.2218    0.3478   -1.2544 C   0  0  0  0  0  0  0  0  0  0  0  0
    4.1706    1.7174   -0.5871 C   0  0  0  0  0  0  0  0  0  0  0  0
    1.7105   -1.4711    0.8955 C   0  0  0  0  0  0  0  0  0  0  0  0
    0.2629   -1.1427    1.2362 C   0  0  0  0  0  0  0  0  0  0  0  0
   -0.7044   -0.9804    0.1343 C   0  0  0  0  0  0  0  0  0  0  0  0
   -1.8391   -0.1346    0.1833 C   0  0  0  0  0  0  0  0  0  0  0  0
   -2.5469   -0.2097   -1.0204 C   0  0  0  0  0  0  0  0  0  0  0  0
   -0.5430   -1.6650   -1.0266 C   0  0  0  0  0  0  0  0  0  0  0  0
   -2.3338    0.7195    1.1984 C   0  0  0  0  0  0  0  0  0  0  0  0
   -3.7216    0.5385   -1.2320 C   0  0  0  0  0  0  0  0  0  0  0  0
   -3.4989    1.4626    0.9918 C   0  0  0  0  0  0  0  0  0  0  0  0
   -4.1836    1.3720   -0.2116 C   0  0  0  0  0  0  0  0  0  0  0  0
  1 13  1  0
  1 14  1  0
  2 10  2  0
  3  4  1  0
  3  5  1  0
  3  9  1  0
  4  6  1  0
  5  7  1  0
  6  8  1  0
  7  8  1  0
  9 10  1  0
 10 11  1  0
 11 12  1  0
 11 14  2  0
 12 13  2  0
 12 15  1  0
 13 16  1  0
 15 17  2  0
 16 18  2  0
 17 18  1  0
M  END
>  <PUBCHEM_COMPOUND_CID>  (1) 
23795

>  <PUBCHEM_CONFORMER_RMSD>  (1) 
0.6

>  <PUBCHEM_CONFORMER_DIVERSEORDER>  (1) 
1
61
16
58
25
17
40
9
45
31
6
7
46
14
44
13
48
52
26
27
23
41
32
47
15
66
12
24
57
53
34
30
2
5
36
19
42
29
64
43
35
50
65
20
8
22
11
39
67
10
59
18
21
54
55
60
38
62
33
37
56
63
4
3
51
28
49

>  <PUBCHEM_MMFF94_PARTIAL_CHARGES>  (1) 
19
1 -0.08
10 0.6
11 -0.09
13 0.04
14 -0.11
15 -0.15
16 -0.15
17 -0.15
18 -0.15
2 -0.57
3 -0.81
31 0.15
32 0.15
33 0.15
34 0.15
35 0.15
4 0.27
5 0.27
9 0.33

>  <PUBCHEM_EFFECTIVE_ROTOR_COUNT>  (1) 
4.2

>  <PUBCHEM_PHARMACOPHORE_FEATURES>  (1) 
5
1 2 acceptor
1 3 cation
5 1 11 12 13 14 rings
6 12 13 15 16 17 18 rings
6 3 4 5 6 7 8 rings

>  <PUBCHEM_HEAVY_ATOM_COUNT>  (1) 
18

>  <PUBCHEM_ATOM_DEF_STEREO_COUNT>  (1) 
0

>  <PUBCHEM_ATOM_UDEF_STEREO_COUNT>  (1) 
0

>  <PUBCHEM_BOND_DEF_STEREO_COUNT>  (1) 
0

>  <PUBCHEM_BOND_UDEF_STEREO_COUNT>  (1) 
0

>  <PUBCHEM_ISOTOPIC_ATOM_COUNT>  (1) 
0

>  <PUBCHEM_COMPONENT_COUNT>  (1) 
1

>  <PUBCHEM_CACTVS_TAUTO_COUNT>  (1) 
2

>  <PUBCHEM_CONFORMER_ID>  (1) 
00005CF300000001

>  <PUBCHEM_MMFF94_ENERGY>  (1) 
32.4657

>  <PUBCHEM_FEATURE_SELFOVERLAP>  (1) 
25.432

>  <PUBCHEM_SHAPE_FINGERPRINT>  (1) 
10165383 225 17023764328867491098
10498660 4 18261104192728942149
11127187 94 15985109642801234551
11137873 295 13182741459239871501
11640471 11 18340759407734944916
12173636 292 18339080513677945278
12186901 62 17846497058677773271
12363563 72 13398637155849442752
12491281 212 18342176686813121723
12633257 1 14562528470618320565
12714826 92 16772952661023003447
12892183 10 12757141394627770940
13544653 18 9727631687415017904
13764800 53 16153416242803871742
14115302 16 17203605969539029414
14251764 38 17768516537272691928
15295992 7 18040438815142003488
15309172 13 16660360389594750186
15342168 16 17821451278538884413
15475509 35 8933269777361416997
15534591 1 18410856594179135871
15664445 248 16334374111696144535
15775835 57 18408884031505912197
16752209 62 16773798048083584851
17834072 14 12679463049803615952
1813 80 17690266124084588106
18186145 218 18186522103171986418
18219364 16 17241038915805043676
19862831 5 17131837559949227342
19868273 293 17846497045207282702
200 152 10231753370709038629
20645476 183 18202274784704394775
20671657 53 13326852227467553027
20871999 31 16630528444410043977
21041028 32 17536860093007894546
21069387 34 12103555411967969469
21475661 188 17822008649567678461
21486144 27 17894352194001133150
21864079 5 18041270015483163804
22079108 93 17967821565379864737
22182937 141 18042132127077694256
22646028 28 11167945766257218444
22802520 49 16414331533534254331
22854114 59 16877664543640906615
231179 274 18114179705320459636
23175994 123 16954202510223873962
23402655 69 18271812341320538852
23557571 272 17201051915459543859
23559900 14 16200425850393129906
25 1 18187368722899024114
2637199 183 18342183232343228933
27216 239 16371003061306170773
2748010 2 16554766677935922791
3082319 5 17988640826330553244
33382 64 11166499956350039981
3797600 57 13695882419442593158
4028521 119 18410854382181502692
474 4 18187924023231094900
49207404 50 15936405602680542114
495365 180 16445005550180853783
5161694 15 15697994137175236213
5262128 65 14620504657867373827
5283173 99 15913045361952843114
633830 44 18259985942100337470
6442390 28 17458358458397671578
7808743 9 16734127789218609036
7832392 63 18343861138853903292
9882013 296 15140686894591696017
9981440 41 17692513929915759488

>  <PUBCHEM_SHAPE_MULTIPOLES>  (1) 
363.43
8.05
1.96
1.75
2.86
0.03
0.59
3.68
-3.8
-0.33
-0.45
0.05
-0.3
-1.14

>  <PUBCHEM_SHAPE_SELFOVERLAP>  (1) 
767.922

>  <PUBCHEM_SHAPE_VOLUME>  (1) 
205.3

>  <PUBCHEM_COORDINATE_TYPE>  (1) 
2
5
10

$$$$
