23793
     RDKit          3D

 17 18  0  0  1  0  0  0  0  0999 V2000
    2.8310   -3.5278    0.6280 Br  0  0  0  0  0  0  0  0  0  0  0  0
   -4.7108   -2.5529   -0.7526 Cl  0  0  0  0  0  0  0  0  0  0  0  0
    1.9415    2.6963   -0.5074 S   0  0  0  0  0  0  0  0  0  0  0  0
   -2.0819    0.3329    0.2649 N   0  0  0  0  0  0  0  0  0  0  0  0
   -1.2749    0.3674   -0.9316 C   0  0  0  0  0  0  0  0  0  0  0  0
    0.0624    0.9687   -0.7006 C   0  0  0  0  0  0  0  0  0  0  0  0
   -3.3735   -0.3211    0.0144 C   0  0  0  0  0  0  0  0  0  0  0  0
   -2.3054    1.6857    0.7925 C   0  0  0  0  0  0  0  0  0  0  0  0
    1.2238    0.2200   -0.3118 C   0  0  0  0  0  0  0  0  0  0  0  0
    2.3379    1.0527   -0.1686 C   0  0  0  0  0  0  0  0  0  0  0  0
    0.3142    2.3129   -0.8397 C   0  0  0  0  0  0  0  0  0  0  0  0
   -3.1512   -1.7590   -0.4283 C   0  0  0  0  0  0  0  0  0  0  0  0
   -3.1547    1.6504    2.0517 C   0  0  0  0  0  0  0  0  0  0  0  0
    1.3874   -1.1650   -0.0675 C   0  0  0  0  0  0  0  0  0  0  0  0
    3.5956    0.5420    0.2082 C   0  0  0  0  0  0  0  0  0  0  0  0
    2.6336   -1.6748    0.3061 C   0  0  0  0  0  0  0  0  0  0  0  0
    3.7248   -0.8284    0.4421 C   0  0  0  0  0  0  0  0  0  0  0  0
  1 16  1  0
  2 12  1  0
  3 10  1  0
  3 11  1  0
  4  5  1  0
  4  7  1  0
  4  8  1  0
  5  6  1  0
  6  9  1  0
  6 11  2  0
  7 12  1  0
  8 13  1  0
  9 10  2  0
  9 14  1  0
 10 15  1  0
 14 16  2  0
 15 17  2  0
 16 17  1  0
M  END
>  <PUBCHEM_COMPOUND_CID>  (1) 
23793

>  <PUBCHEM_CONFORMER_RMSD>  (1) 
0.6

>  <PUBCHEM_CONFORMER_DIVERSEORDER>  (1) 
7
22
33
34
1
44
29
5
31
25
45
20
10
4
32
8
15
51
21
9
46
23
30
13
35
18
28
50
48
17
11
14
27
12
52
40
38
42
39
53
36
2
43
41
37
6
3
16
19
24
26
49
47

>  <PUBCHEM_MMFF94_PARTIAL_CHARGES>  (1) 
19
1 -0.11
10 0.04
11 -0.11
12 0.29
14 -0.15
15 -0.15
16 0.11
17 -0.15
2 -0.29
24 0.15
3 -0.08
30 0.15
31 0.15
32 0.15
4 -0.81
5 0.45
6 -0.18
7 0.27
8 0.27

>  <PUBCHEM_EFFECTIVE_ROTOR_COUNT>  (1) 
5

>  <PUBCHEM_PHARMACOPHORE_FEATURES>  (1) 
4
1 1 hydrophobe
1 4 cation
5 3 6 9 10 11 rings
6 9 10 14 15 16 17 rings

>  <PUBCHEM_HEAVY_ATOM_COUNT>  (1) 
17

>  <PUBCHEM_ATOM_DEF_STEREO_COUNT>  (1) 
0

>  <PUBCHEM_ATOM_UDEF_STEREO_COUNT>  (1) 
0

>  <PUBCHEM_BOND_DEF_STEREO_COUNT>  (1) 
0

>  <PUBCHEM_BOND_UDEF_STEREO_COUNT>  (1) 
0

>  <PUBCHEM_ISOTOPIC_ATOM_COUNT>  (1) 
0

>  <PUBCHEM_COMPONENT_COUNT>  (1) 
1

>  <PUBCHEM_CACTVS_TAUTO_COUNT>  (1) 
1

>  <PUBCHEM_CONFORMER_ID>  (1) 
00005CF100000007

>  <PUBCHEM_MMFF94_ENERGY>  (1) 
34.7973

>  <PUBCHEM_FEATURE_SELFOVERLAP>  (1) 
20.357

>  <PUBCHEM_SHAPE_FINGERPRINT>  (1) 
11552529 35 18130500847291274355
11806522 49 18337105777909063942
12251169 10 18341339872691996209
12553582 1 18047475526129901298
12596599 1 18199191689322166747
12633257 1 17841434726169323170
12788726 201 17916600863755932723
12824470 246 18412539925275307067
12892183 10 17917701401448200466
13140716 1 17907004433131501346
14178342 30 18341605993223550610
14251717 144 18190173666786444910
14251757 17 17824792660643874111
14787075 74 17410488105915640049
14790565 3 18263374732313491716
14844126 61 17034423879335117458
15099037 8 18411981382063839355
15375462 189 18189064096656309664
15442244 35 18339081475676272667
15842332 3 18267606717770914085
16945 1 18335132056317675084
17492 89 18411699898387249311
19141452 34 18195244404070944609
19433438 48 18410290268212387858
200 152 18269267023394092999
20028762 73 18126841827529980614
20281475 54 18336548201297437462
20645477 70 17969773271417806871
22445834 79 18411425007304577425
2255824 54 18189342432065070860
23557571 272 16773531992345565049
23559900 14 18338504344078625425
23598288 3 17989209257142422357
23598291 2 18340783597054118269
2748010 2 17903340534386767564
33824 294 18117832428871259590
6992083 37 18267594515647279609
7097593 13 18340776931307137721
9709674 26 18334013921406066635

>  <PUBCHEM_SHAPE_MULTIPOLES>  (1) 
356.53
7.74
3.71
1.15
5.03
1.91
0.46
5.11
0.87
-0.99
0.06
1.01
-0.44
-2.24

>  <PUBCHEM_SHAPE_SELFOVERLAP>  (1) 
708.108

>  <PUBCHEM_SHAPE_VOLUME>  (1) 
218.6

>  <PUBCHEM_COORDINATE_TYPE>  (1) 
2
5
10

$$$$
