23801
     RDKit          3D

 17 19  0  0  1  0  0  0  0  0999 V2000
    2.9466    2.1097   -0.4911 S   0  0  0  0  0  0  0  0  0  0  0  0
   -1.0628    1.8377    1.3686 O   0  0  0  0  0  0  0  0  0  0  0  0
   -2.8922    0.2402   -0.1779 N   0  0  0  0  0  0  0  0  0  0  0  0
   -3.7854    0.0409   -1.3190 C   0  0  0  0  0  0  0  0  0  0  0  0
   -3.0455   -0.9632    0.6390 C   0  0  0  0  0  0  0  0  0  0  0  0
   -5.0333   -0.5472   -0.6768 C   0  0  0  0  0  0  0  0  0  0  0  0
   -4.5476   -1.2040    0.6116 C   0  0  0  0  0  0  0  0  0  0  0  0
   -1.5128    0.4636   -0.5846 C   0  0  0  0  0  0  0  0  0  0  0  0
   -0.6151    0.6974    0.6366 C   0  0  0  0  0  0  0  0  0  0  0  0
    0.8234    0.9313    0.2304 C   0  0  0  0  0  0  0  0  0  0  0  0
    1.7821   -0.1117    0.1371 C   0  0  0  0  0  0  0  0  0  0  0  0
    1.2950    2.1695   -0.0737 C   0  0  0  0  0  0  0  0  0  0  0  0
    3.0206    0.4028   -0.2587 C   0  0  0  0  0  0  0  0  0  0  0  0
    1.6793   -1.5046    0.3695 C   0  0  0  0  0  0  0  0  0  0  0  0
    4.1445   -0.4298   -0.4262 C   0  0  0  0  0  0  0  0  0  0  0  0
    2.7924   -2.3332    0.2046 C   0  0  0  0  0  0  0  0  0  0  0  0
    4.0109   -1.7994   -0.1896 C   0  0  0  0  0  0  0  0  0  0  0  0
  1 12  1  0
  1 13  1  0
  2  9  1  0
  3  4  1  0
  3  5  1  0
  3  8  1  0
  4  6  1  0
  5  7  1  0
  6  7  1  0
  8  9  1  0
  9 10  1  0
 10 11  1  0
 10 12  2  0
 11 13  2  0
 11 14  1  0
 13 15  1  0
 14 16  2  0
 15 17  2  0
 16 17  1  0
M  END
>  <PUBCHEM_COMPOUND_CID>  (1) 
23801

>  <PUBCHEM_CONFORMER_RMSD>  (1) 
0.6

>  <PUBCHEM_CONFORMER_DIVERSEORDER>  (1) 
2
1
19
10
3
29
12
23
28
26
20
15
24
7
5
16
18
13
21
4
22
25
27
14
30
8
6
11
17
9

>  <PUBCHEM_MMFF94_PARTIAL_CHARGES>  (1) 
20
1 -0.08
10 -0.18
12 -0.11
13 0.04
14 -0.15
15 -0.15
16 -0.15
17 -0.15
2 -0.68
29 0.15
3 -0.81
30 0.4
31 0.15
32 0.15
33 0.15
34 0.15
4 0.27
5 0.27
8 0.27
9 0.46

>  <PUBCHEM_EFFECTIVE_ROTOR_COUNT>  (1) 
4

>  <PUBCHEM_PHARMACOPHORE_FEATURES>  (1) 
6
1 2 acceptor
1 2 donor
1 3 cation
5 1 10 11 12 13 rings
5 3 4 5 6 7 rings
6 11 13 14 15 16 17 rings

>  <PUBCHEM_HEAVY_ATOM_COUNT>  (1) 
17

>  <PUBCHEM_ATOM_DEF_STEREO_COUNT>  (1) 
0

>  <PUBCHEM_ATOM_UDEF_STEREO_COUNT>  (1) 
1

>  <PUBCHEM_BOND_DEF_STEREO_COUNT>  (1) 
0

>  <PUBCHEM_BOND_UDEF_STEREO_COUNT>  (1) 
0

>  <PUBCHEM_ISOTOPIC_ATOM_COUNT>  (1) 
0

>  <PUBCHEM_COMPONENT_COUNT>  (1) 
1

>  <PUBCHEM_CACTVS_TAUTO_COUNT>  (1) 
1

>  <PUBCHEM_CONFORMER_ID>  (1) 
00005CF900000002

>  <PUBCHEM_MMFF94_ENERGY>  (1) 
31.7156

>  <PUBCHEM_FEATURE_SELFOVERLAP>  (1) 
30.506

>  <PUBCHEM_SHAPE_FINGERPRINT>  (1) 
10498660 4 16153971475196817909
11471102 20 18409448124094603484
11578080 2 17845350203040737112
11806522 49 18411982438678444240
12236239 1 17846785117248433169
12553582 1 18060696191159278335
12616999 72 18187368782881055164
13533116 47 18342459296515838475
13705890 14 18260265248350730604
13862211 1 18336547115288273178
14178342 30 18125433108368097144
14251717 144 18408885148529594942
14252887 29 17846783983909934190
14576447 43 18411983538163964710
15188451 53 15266761305202090399
15342816 4 18267592312677262142
15375462 189 18131069376501742817
15477762 27 18409167701701268068
15502722 9 18262240031274302276
15961568 22 16371571543341345108
17834074 16 18334012830499820835
1798214 20 18412821365596964647
18186145 218 17749104487484342033
19078846 21 17418384588315535873
193927 3 18201449025638730150
19422 9 18343308054471918505
19433438 38 17894625937619836743
200 152 18342738507316705841
20281475 54 18271242820066842619
20291156 8 18343581811117961678
20388580 30 18412827967156689108
20645477 70 18408318917057713743
20671657 53 18409169874532850140
21250096 35 18273209781591016107
21267235 1 18340778065463632702
21475661 188 13625246597314319374
21634736 98 18411704287859052470
21713013 43 18040149626367287671
221357 26 18334285458239443637
221490 88 18261964049513374874
2215653 11 18334284363175848511
2255824 54 18341334508509932604
22646028 28 18273215279048999615
235170 7 17531516655333117783
23557571 272 17312815000838871229
23559900 14 18334571377768904984
23596394 208 18040704866616860407
2748010 2 18046931521820093456
2838139 119 15430901941488862886
2871803 45 18333449820190017070
312423 11 18272104776410223505
3323516 105 18187083979141107715
33824 294 18336545014568775848
351380 3 18060138734448131191
42630746 31 18341328994088305588
46194498 28 17603868957125924357
465052 167 18130509721121028175
4921388 177 16515697653935427443
4990 188 17676482860971226117
5104073 3 18341612590172180465
5281201 14 17967531285504179525
59682541 52 18196624395145203655
602551 16 15554440833832334614
7364860 26 18340766035328678464
94968 8 18410575072216234854
960060 61 18339632426023864909
9709674 26 18114746061468030299

>  <PUBCHEM_SHAPE_MULTIPOLES>  (1) 
342.85
9.51
2.29
0.96
8.49
0.05
0
-3.97
1.94
-2.5
-0.22
0.7
0.16
0.04

>  <PUBCHEM_SHAPE_SELFOVERLAP>  (1) 
723.837

>  <PUBCHEM_SHAPE_VOLUME>  (1) 
195.3

>  <PUBCHEM_COORDINATE_TYPE>  (1) 
2
5
10

$$$$
