23803
     RDKit          3D

 27 30  0  0  1  0  0  0  0  0999 V2000
    1.4248   -3.0715   -1.6169 S   0  0  0  0  0  0  0  0  0  0  0  0
    0.1695   -2.5935    2.7944 O   0  0  0  0  0  0  0  0  0  0  0  0
   -0.8387    0.3948    0.8358 N   0  0  0  0  0  0  0  0  0  0  0  0
   -0.9767   -0.7975    1.6691 C   0  0  0  0  0  0  0  0  0  0  0  0
    0.3854   -1.4870    1.8988 C   0  0  0  0  0  0  0  0  0  0  0  0
    0.0241    1.3791    1.4887 C   0  0  0  0  0  0  0  0  0  0  0  0
   -2.1506    0.9757    0.5510 C   0  0  0  0  0  0  0  0  0  0  0  0
    1.0292   -1.9094    0.6294 C   0  0  0  0  0  0  0  0  0  0  0  0
    2.3192   -1.4560    0.1930 C   0  0  0  0  0  0  0  0  0  0  0  0
    0.2378    2.5962    0.6284 C   0  0  0  0  0  0  0  0  0  0  0  0
   -3.0669   -0.0112   -0.1225 C   0  0  0  0  0  0  0  0  0  0  0  0
    2.6643   -2.0218   -1.0384 C   0  0  0  0  0  0  0  0  0  0  0  0
    0.4415   -2.7825   -0.2549 C   0  0  0  0  0  0  0  0  0  0  0  0
    3.2374   -0.5669    0.8019 C   0  0  0  0  0  0  0  0  0  0  0  0
    1.3048    2.6270   -0.2587 C   0  0  0  0  0  0  0  0  0  0  0  0
   -3.0849   -0.0914   -1.5080 C   0  0  0  0  0  0  0  0  0  0  0  0
   -0.6353    3.6697    0.7341 C   0  0  0  0  0  0  0  0  0  0  0  0
   -3.8801   -0.8272    0.6516 C   0  0  0  0  0  0  0  0  0  0  0  0
    3.8890   -1.7248   -1.6679 C   0  0  0  0  0  0  0  0  0  0  0  0
    4.4530   -0.2698    0.1797 C   0  0  0  0  0  0  0  0  0  0  0  0
    4.7735   -0.8443   -1.0420 C   0  0  0  0  0  0  0  0  0  0  0  0
    1.5028    3.7543   -1.0560 C   0  0  0  0  0  0  0  0  0  0  0  0
   -3.9335   -1.0057   -2.1321 C   0  0  0  0  0  0  0  0  0  0  0  0
   -0.4374    4.7970   -0.0632 C   0  0  0  0  0  0  0  0  0  0  0  0
   -4.7286   -1.7416    0.0274 C   0  0  0  0  0  0  0  0  0  0  0  0
    0.6317    4.8392   -0.9583 C   0  0  0  0  0  0  0  0  0  0  0  0
   -4.7552   -1.8309   -1.3645 C   0  0  0  0  0  0  0  0  0  0  0  0
  1 12  1  0
  1 13  1  0
  2  5  1  0
  3  4  1  0
  3  6  1  0
  3  7  1  0
  4  5  1  0
  5  8  1  0
  6 10  1  0
  7 11  1  0
  8  9  1  0
  8 13  2  0
  9 12  2  0
  9 14  1  0
 10 15  2  0
 10 17  1  0
 11 16  2  0
 11 18  1  0
 12 19  1  0
 14 20  2  0
 15 22  1  0
 16 23  1  0
 17 24  2  0
 18 25  2  0
 19 21  2  0
 20 21  1  0
 22 26  2  0
 23 27  2  0
 24 26  1  0
 25 27  1  0
M  END
>  <PUBCHEM_COMPOUND_CID>  (1) 
23803

>  <PUBCHEM_CONFORMER_RMSD>  (1) 
0.8

>  <PUBCHEM_CONFORMER_DIVERSEORDER>  (1) 
2
22
34
25
41
24
23
17
5
33
3
8
15
44
42
4
6
27
36
30
35
20
12
39
10
13
43
14
32
37
11
29
7
19
21
28
18
9
38
26
31
16
1
40

>  <PUBCHEM_MMFF94_PARTIAL_CHARGES>  (1) 
42
1 -0.08
10 -0.14
11 -0.14
12 0.04
13 -0.11
14 -0.15
15 -0.15
16 -0.15
17 -0.15
18 -0.15
19 -0.15
2 -0.68
20 -0.15
21 -0.15
22 -0.15
23 -0.15
24 -0.15
25 -0.15
26 -0.15
27 -0.15
3 -0.81
35 0.15
36 0.4
37 0.15
38 0.15
39 0.15
4 0.27
40 0.15
41 0.15
42 0.15
43 0.15
44 0.15
45 0.15
46 0.15
47 0.15
48 0.15
49 0.15
5 0.46
50 0.15
6 0.41
7 0.41
8 -0.18

>  <PUBCHEM_EFFECTIVE_ROTOR_COUNT>  (1) 
7

>  <PUBCHEM_PHARMACOPHORE_FEATURES>  (1) 
7
1 2 acceptor
1 2 donor
1 3 cation
5 1 8 9 12 13 rings
6 10 15 17 22 24 26 rings
6 11 16 18 23 25 27 rings
6 9 12 14 19 20 21 rings

>  <PUBCHEM_HEAVY_ATOM_COUNT>  (1) 
27

>  <PUBCHEM_ATOM_DEF_STEREO_COUNT>  (1) 
0

>  <PUBCHEM_ATOM_UDEF_STEREO_COUNT>  (1) 
1

>  <PUBCHEM_BOND_DEF_STEREO_COUNT>  (1) 
0

>  <PUBCHEM_BOND_UDEF_STEREO_COUNT>  (1) 
0

>  <PUBCHEM_ISOTOPIC_ATOM_COUNT>  (1) 
0

>  <PUBCHEM_COMPONENT_COUNT>  (1) 
1

>  <PUBCHEM_CACTVS_TAUTO_COUNT>  (1) 
1

>  <PUBCHEM_CONFORMER_ID>  (1) 
00005CFB00000002

>  <PUBCHEM_MMFF94_ENERGY>  (1) 
78.3196

>  <PUBCHEM_FEATURE_SELFOVERLAP>  (1) 
35.582

>  <PUBCHEM_SHAPE_FINGERPRINT>  (1) 
10006869 2 17467367625301491121
10871710 139 18193296104090462868
11045515 52 18340210695650851061
11477941 20 18124905411833263638
11488393 25 17977672231645262131
11513181 2 18125748720082565110
12160290 23 17622144782010929097
12166972 35 17749113279409199150
12788726 201 17905311945634339357
13149001 5 18115594896849534019
1361 2 18198341947559703660
13681431 1 18339347635253500745
13911987 19 18188507851242211870
14537116 161 17617330093945563869
15210252 30 18338787940737480239
15484559 13 17180764930338429885
15775530 1 17609793254303991242
17492 54 18337667624288128806
1813 80 18272086097966588375
19319366 153 17316762067584279385
21344244 246 18125438867702982556
21421566 26 18057045709591891461
23419403 2 17754203047445984875
23559900 14 18200577208135093631
238 59 18121498222287219933
25019877 29 17346312756967222838
26353 1 18340475665411426997
3298306 158 17758405449506743628
3388396 114 18121251829194780228
46194498 28 18264755735949479199
5085150 59 17478609474834834112
6669772 16 17898277562086238240

>  <PUBCHEM_SHAPE_MULTIPOLES>  (1) 
548.65
7.74
5.84
1.97
2.69
9.49
-0.36
-6.84
3.73
-1.33
1.51
0.33
-1.19
-0.3

>  <PUBCHEM_SHAPE_SELFOVERLAP>  (1) 
1183.921

>  <PUBCHEM_SHAPE_VOLUME>  (1) 
302.2

>  <PUBCHEM_COORDINATE_TYPE>  (1) 
2
5
10

$$$$
