23815
     RDKit          3D

 18 19  0  0  0  0  0  0  0  0999 V2000
    1.6208    1.6725   -0.0286 S   0  0  0  0  0  0  0  0  0  0  0  0
   -4.5024   -2.6593    0.0301 S   0  0  0  0  0  0  0  0  0  0  0  0
    1.8850    2.3292   -1.2903 O   0  0  0  0  0  0  0  0  0  0  0  0
    1.9172    2.3236    1.2289 O   0  0  0  0  0  0  0  0  0  0  0  0
    2.3584    0.1253   -0.0397 N   0  0  0  0  0  0  0  0  0  0  0  0
   -4.0968    0.0853    0.0347 N   0  0  0  0  0  0  0  0  0  0  0  0
    2.0099   -0.7382   -1.2065 C   0  0  0  0  0  0  0  0  0  0  0  0
    2.2922   -0.6213    1.2513 C   0  0  0  0  0  0  0  0  0  0  0  0
    2.9769   -1.9153   -1.2792 C   0  0  0  0  0  0  0  0  0  0  0  0
    3.2641   -1.7961    1.2132 C   0  0  0  0  0  0  0  0  0  0  0  0
    2.9833   -2.7102    0.0236 C   0  0  0  0  0  0  0  0  0  0  0  0
   -0.0801    1.2011   -0.0100 C   0  0  0  0  0  0  0  0  0  0  0  0
   -0.7480    1.0219   -1.2106 C   0  0  0  0  0  0  0  0  0  0  0  0
   -0.7193    1.0166    1.2052 C   0  0  0  0  0  0  0  0  0  0  0  0
   -2.0919    0.6480   -1.1954 C   0  0  0  0  0  0  0  0  0  0  0  0
   -2.0630    0.6425    1.2204 C   0  0  0  0  0  0  0  0  0  0  0  0
   -2.7492    0.4584    0.0200 C   0  0  0  0  0  0  0  0  0  0  0  0
   -4.2574   -1.0841    0.0329 C   0  0  0  0  0  0  0  0  0  0  0  0
  1  3  2  0
  1  4  2  0
  1  5  1  0
  1 12  1  0
  2 18  2  0
  5  7  1  0
  5  8  1  0
  6 17  1  0
  6 18  2  0
  7  9  1  0
  8 10  1  0
  9 11  1  0
 10 11  1  0
 12 13  2  0
 12 14  1  0
 13 15  1  0
 14 16  2  0
 15 17  2  0
 16 17  1  0
M  END
>  <PUBCHEM_COMPOUND_CID>  (1) 
23815

>  <PUBCHEM_CONFORMER_RMSD>  (1) 
0.6

>  <PUBCHEM_CONFORMER_DIVERSEORDER>  (1) 
1
23
18
14
13
32
12
20
24
16
17
5
33
8
30
29
2
27
25
10
9
31
7
15
6
4
28
3
22
21
11
19
26

>  <PUBCHEM_MMFF94_PARTIAL_CHARGES>  (1) 
19
1 1.45
12 -0.01
13 -0.15
14 -0.15
15 -0.15
16 -0.15
17 0.18
18 0.57
2 -0.27
29 0.15
3 -0.65
30 0.15
31 0.15
32 0.15
4 -0.65
5 -0.85
6 -0.48
7 0.36
8 0.36

>  <PUBCHEM_EFFECTIVE_ROTOR_COUNT>  (1) 
4.2

>  <PUBCHEM_PHARMACOPHORE_FEATURES>  (1) 
6
1 2 acceptor
1 3 acceptor
1 4 acceptor
1 6 acceptor
6 12 13 14 15 16 17 rings
6 5 7 8 9 10 11 rings

>  <PUBCHEM_HEAVY_ATOM_COUNT>  (1) 
18

>  <PUBCHEM_ATOM_DEF_STEREO_COUNT>  (1) 
0

>  <PUBCHEM_ATOM_UDEF_STEREO_COUNT>  (1) 
0

>  <PUBCHEM_BOND_DEF_STEREO_COUNT>  (1) 
0

>  <PUBCHEM_BOND_UDEF_STEREO_COUNT>  (1) 
0

>  <PUBCHEM_ISOTOPIC_ATOM_COUNT>  (1) 
0

>  <PUBCHEM_COMPONENT_COUNT>  (1) 
1

>  <PUBCHEM_CACTVS_TAUTO_COUNT>  (1) 
1

>  <PUBCHEM_CONFORMER_ID>  (1) 
00005D0700000001

>  <PUBCHEM_MMFF94_ENERGY>  (1) 
24.8188

>  <PUBCHEM_FEATURE_SELFOVERLAP>  (1) 
30.47

>  <PUBCHEM_SHAPE_FINGERPRINT>  (1) 
11405975 8 18411139122055914929
11640471 11 8141503649631671576
11769659 78 18410008866846141875
12202030 40 18260540104645805237
12363563 72 18190459359679535466
12506688 2 18412544279987172559
12596599 1 18270689662285857491
12824470 246 18411986858141958107
13533116 47 18343303708656169875
13583140 156 17988071318458423849
14251764 30 17416141494654209406
14289901 80 18264775527069400289
15375462 189 17773876579058003823
15422964 175 18057604252914278294
20281475 54 18410859884624919737
20361792 2 18192715549034160860
20559304 39 17775570835876288192
20621476 91 18189874471529480922
20645477 70 18334573585909459927
20671657 53 18188489068938503224
21475661 188 11095348269461767579
21503847 285 10447390725352260227
21731516 1 18265905648559433264
231179 274 10809634696641999098
23559900 14 18343586226676670893
4028521 119 12108086447562051439
4072396 5 16845297099558833121
4463277 69 18409442622690065895
463206 1 17823694166454394595
5262128 65 15937555670521470638
5902787 121 18338797818851108807
633830 44 16515400777316808101
6433294 58 18195246839571505499
76465 3 18186792556978110451
81228 2 17477762386792564888
90316 7 15625926604804603449
9709674 26 18187930642039416371

>  <PUBCHEM_SHAPE_MULTIPOLES>  (1) 
356.43
7.67
2.93
1.43
6.98
1.14
-0.02
6.37
0.29
-1.23
-0.05
-0.74
-0.18
0.02

>  <PUBCHEM_SHAPE_SELFOVERLAP>  (1) 
722.14

>  <PUBCHEM_SHAPE_VOLUME>  (1) 
208.5

>  <PUBCHEM_COORDINATE_TYPE>  (1) 
2
5
10

$$$$
