23811
     RDKit          3D

 18 20  0  0  1  0  0  0  0  0999 V2000
    5.2485    0.4452    0.4695 O   0  0  0  0  0  0  0  0  0  0  0  0
   -1.0091   -2.3259    0.3510 O   0  0  0  0  0  0  0  0  0  0  0  0
    2.5922   -0.1858   -0.3355 N   0  0  0  0  0  0  0  0  0  0  0  0
    0.1828   -0.2320    0.1766 C   0  0  0  0  0  0  0  0  0  0  0  0
    1.3950   -1.0234   -0.3100 C   0  0  0  0  0  0  0  0  0  0  0  0
   -0.0388    0.9945   -0.7074 C   0  0  0  0  0  0  0  0  0  0  0  0
   -1.2322    1.8019   -0.2114 C   0  0  0  0  0  0  0  0  0  0  0  0
   -1.0648   -1.1089    0.1978 C   0  0  0  0  0  0  0  0  0  0  0  0
    2.8836    0.3488    1.0019 C   0  0  0  0  0  0  0  0  0  0  0  0
    3.7476   -0.9422   -0.8381 C   0  0  0  0  0  0  0  0  0  0  0  0
   -2.4661    0.9485   -0.1055 C   0  0  0  0  0  0  0  0  0  0  0  0
   -2.3883   -0.4380    0.0946 C   0  0  0  0  0  0  0  0  0  0  0  0
    4.1429    1.2093    0.9523 C   0  0  0  0  0  0  0  0  0  0  0  0
    4.9871   -0.0519   -0.8435 C   0  0  0  0  0  0  0  0  0  0  0  0
   -3.7288    1.5560   -0.1660 C   0  0  0  0  0  0  0  0  0  0  0  0
   -3.5563   -1.2031    0.2032 C   0  0  0  0  0  0  0  0  0  0  0  0
   -4.8910    0.7925   -0.0553 C   0  0  0  0  0  0  0  0  0  0  0  0
   -4.8044   -0.5855    0.1260 C   0  0  0  0  0  0  0  0  0  0  0  0
  1 13  1  0
  1 14  1  0
  2  8  2  0
  3  5  1  0
  3  9  1  0
  3 10  1  0
  4  5  1  0
  4  6  1  0
  4  8  1  0
  6  7  1  0
  7 11  1  0
  8 12  1  0
  9 13  1  0
 10 14  1  0
 11 12  2  0
 11 15  1  0
 12 16  1  0
 15 17  2  0
 16 18  2  0
 17 18  1  0
M  END
>  <PUBCHEM_COMPOUND_CID>  (1) 
23811

>  <PUBCHEM_CONFORMER_RMSD>  (1) 
0.6

>  <PUBCHEM_CONFORMER_DIVERSEORDER>  (1) 
1
4
3
6
8
5
7
2

>  <PUBCHEM_MMFF94_PARTIAL_CHARGES>  (1) 
21
1 -0.56
10 0.27
11 -0.14
12 0.09
13 0.28
14 0.28
15 -0.15
16 -0.15
17 -0.15
18 -0.15
2 -0.57
3 -0.81
34 0.15
35 0.15
36 0.15
37 0.15
4 0.06
5 0.27
7 0.14
8 0.42
9 0.27

>  <PUBCHEM_EFFECTIVE_ROTOR_COUNT>  (1) 
3.8

>  <PUBCHEM_PHARMACOPHORE_FEATURES>  (1) 
6
1 1 acceptor
1 2 acceptor
1 3 cation
6 1 3 9 10 13 14 rings
6 11 12 15 16 17 18 rings
6 4 6 7 8 11 12 rings

>  <PUBCHEM_HEAVY_ATOM_COUNT>  (1) 
18

>  <PUBCHEM_ATOM_DEF_STEREO_COUNT>  (1) 
0

>  <PUBCHEM_ATOM_UDEF_STEREO_COUNT>  (1) 
1

>  <PUBCHEM_BOND_DEF_STEREO_COUNT>  (1) 
0

>  <PUBCHEM_BOND_UDEF_STEREO_COUNT>  (1) 
0

>  <PUBCHEM_ISOTOPIC_ATOM_COUNT>  (1) 
0

>  <PUBCHEM_COMPONENT_COUNT>  (1) 
1

>  <PUBCHEM_CACTVS_TAUTO_COUNT>  (1) 
2

>  <PUBCHEM_CONFORMER_ID>  (1) 
00005D0300000001

>  <PUBCHEM_MMFF94_ENERGY>  (1) 
39.042

>  <PUBCHEM_FEATURE_SELFOVERLAP>  (1) 
30.469

>  <PUBCHEM_SHAPE_FINGERPRINT>  (1) 
10498660 4 18335416820595872997
11132069 177 18335139778373279149
11401426 45 18334856117453237759
11578080 2 13972033513464967153
11595378 159 17603855668323348264
12011746 2 18412543206187345948
12119455 92 17561362885309576614
12236239 1 17095523998087660230
12390115 104 18199198282735432145
12403259 415 18342174453425164937
12403814 3 16805600365608011943
12596602 18 16588311617546411368
12969540 114 18339343198541488357
13081056 2 18272651251222356344
13214271 11 18412260645148171575
13533116 47 16443056176336768096
13544592 145 18271253737736916614
14251764 18 18186514398734069186
14573314 32 18272655627598774300
15042514 8 18191593154164127331
15196674 1 18337110072939838695
15219456 202 18202001019098560358
15375358 24 18341896298616280270
17804303 29 18409730698620066569
17834072 33 17060333050150710237
18186145 218 18272370828174958225
200 152 16630526215258746202
20510252 161 18341894052390745121
20645477 56 18411136952295304134
20645477 70 17346608435211162838
21033648 29 18059564798152898849
21267235 1 18335712667213462595
22854114 59 18202562886714909320
2297311 6 18340779181917597076
23175994 123 17489592276681123673
23402539 116 18410568509400724823
23532345 42 18334294287953751581
23557571 272 18341903999365905183
23559900 14 18412548678613958614
34934 24 18335132043590723207
350125 39 18116993269977467658
351380 180 18342736317062726376
3545911 37 18412829079558486870
4028521 119 18412823560256596549
43471831 8 18115021901252703779
474 4 16444487873683578244
5104073 3 18337674109440923931
542803 24 17313106349749995172
59755656 215 18339366271533700174
69090 78 18201435891417683863
9709674 26 18412833486068929830

>  <PUBCHEM_SHAPE_MULTIPOLES>  (1) 
353.71
11.06
1.71
0.86
5.19
0.13
-0.02
-1.43
-0.11
-0.97
-0.05
0.75
-0.07
0.86

>  <PUBCHEM_SHAPE_SELFOVERLAP>  (1) 
752.536

>  <PUBCHEM_SHAPE_VOLUME>  (1) 
195.6

>  <PUBCHEM_COORDINATE_TYPE>  (1) 
2
5
10

$$$$
