23820
     RDKit          2D

 23 26  0  0  1  0  0  0  0  0999 V2000
    0.0000    0.0000    0.0000 O   0  0  0  0  0  0  0  0  0  0  0  0
    0.0000    0.0000    0.0000 O   0  0  0  0  0  0  0  0  0  0  0  0
    0.0000    0.0000    0.0000 C   0  0  0  0  0  0  0  0  0  0  0  0
    0.0000    0.0000    0.0000 C   0  0  0  0  0  0  0  0  0  0  0  0
    0.0000    0.0000    0.0000 C   0  0  0  0  0  0  0  0  0  0  0  0
    0.0000    0.0000    0.0000 C   0  0  0  0  0  0  0  0  0  0  0  0
    0.0000    0.0000    0.0000 C   0  0  0  0  0  0  0  0  0  0  0  0
    0.0000    0.0000    0.0000 C   0  0  0  0  0  0  0  0  0  0  0  0
    0.0000    0.0000    0.0000 C   0  0  0  0  0  0  0  0  0  0  0  0
    0.0000    0.0000    0.0000 C   0  0  0  0  0  0  0  0  0  0  0  0
    0.0000    0.0000    0.0000 C   0  0  0  0  0  0  0  0  0  0  0  0
    0.0000    0.0000    0.0000 C   0  0  0  0  0  0  0  0  0  0  0  0
    0.0000    0.0000    0.0000 C   0  0  0  0  0  0  0  0  0  0  0  0
    0.0000    0.0000    0.0000 C   0  0  0  0  0  0  0  0  0  0  0  0
    0.0000    0.0000    0.0000 C   0  0  0  0  0  0  0  0  0  0  0  0
    0.0000    0.0000    0.0000 C   0  0  0  0  0  0  0  0  0  0  0  0
    0.0000    0.0000    0.0000 C   0  0  0  0  0  0  0  0  0  0  0  0
    0.0000    0.0000    0.0000 C   0  0  0  0  0  0  0  0  0  0  0  0
    0.0000    0.0000    0.0000 C   0  0  0  0  0  0  0  0  0  0  0  0
    0.0000    0.0000    0.0000 C   0  0  0  0  0  0  0  0  0  0  0  0
    0.0000    0.0000    0.0000 C   0  0  0  0  0  0  0  0  0  0  0  0
    0.0000    0.0000    0.0000 C   0  0  0  0  0  0  0  0  0  0  0  0
    0.0000    0.0000    0.0000 C   0  0  0  0  0  0  0  0  0  0  0  0
  1  7  1  0
  2 22  2  0
  3  4  1  0
  3  7  1  0
  3  8  1  0
  3 14  1  0
  4  5  1  0
  4  9  1  0
  5  6  1  0
  5 13  1  0
  6 10  1  0
  6 12  1  0
  7 11  1  0
  7 16  1  0
  8 10  1  0
  9 11  1  0
 12 17  1  0
 12 18  1  0
 13 15  1  0
 15 17  1  0
 16 21  1  0
 17 20  2  0
 18 19  1  0
 19 22  1  0
 20 22  1  0
 21 23  2  0
M  END
>  <PUBCHEM_COMPOUND_CID>  (1) 
23820

>  <PUBCHEM_CONFORMER_RMSD>  (1) 
0.6

>  <PUBCHEM_CONFORMER_DIVERSEORDER>  (1) 
14
68
173
196
177
155
78
23
200
115
37
140
103
182
139
162
70
168
135
180
110
63
159
71
91
144
190
134
66
169
52
204
203
199
29
210
96
74
50
175
164
179
40
158
193
90
20
186
202
118
36
136
170
166
56
211
143
178
44
128
104
120
108
185
48
127
111
130
28
100
137
112
24
89
183
126
117
113
30
153
184
150
146
39
109
5
80
188
85
133
149
33
141
102
212
101
98
65
194
64
46
42
53
3
114
51
88
6
191
69
187
129
148
35
147
67
197
41
17
106
125
171
77
87
161
124
94
21
1
54
195
163
31
122
47
9
12
192
206
59
201
107
93
19
151
82
61
32
157
7
76
123
72
154
58
138
25
99
55
49
209
160
198
119
86
121
181
189
172
11
15
8
18
26
165
81
73
2
13
83
105
176
60
97
145
27
152
38
207
16
174
142
4
132
22
10
116
57
205
92
167
79
75
208
43
62
156
95
131
45
34
84

>  <PUBCHEM_MMFF94_PARTIAL_CHARGES>  (1) 
17
1 -0.68
12 0.14
15 0.14
16 0.14
17 -0.28
19 0.06
2 -0.57
20 -0.14
21 -0.29
22 0.49
23 -0.3
47 0.4
50 0.15
51 0.15
52 0.15
53 0.15
7 0.28

>  <PUBCHEM_EFFECTIVE_ROTOR_COUNT>  (1) 
3.8

>  <PUBCHEM_PHARMACOPHORE_FEATURES>  (1) 
8
1 1 acceptor
1 1 donor
1 2 acceptor
1 23 hydrophobe
5 3 4 7 9 11 rings
6 12 17 18 19 20 22 rings
6 3 4 5 6 8 10 rings
6 5 6 12 13 15 17 rings

>  <PUBCHEM_HEAVY_ATOM_COUNT>  (1) 
23

>  <PUBCHEM_ATOM_DEF_STEREO_COUNT>  (1) 
1

>  <PUBCHEM_ATOM_UDEF_STEREO_COUNT>  (1) 
5

>  <PUBCHEM_BOND_DEF_STEREO_COUNT>  (1) 
0

>  <PUBCHEM_BOND_UDEF_STEREO_COUNT>  (1) 
0

>  <PUBCHEM_ISOTOPIC_ATOM_COUNT>  (1) 
0

>  <PUBCHEM_COMPONENT_COUNT>  (1) 
1

>  <PUBCHEM_CACTVS_TAUTO_COUNT>  (1) 
8

$$$$
