23823
     RDKit          3D

 10 10  0  0  0  0  0  0  0  0999 V2000
    1.6684    2.1292   -0.0003 Cl  0  0  0  0  0  0  0  0  0  0  0  0
   -1.5053    2.2175    0.0006 Cl  0  0  0  0  0  0  0  0  0  0  0  0
   -3.1155   -0.5402   -0.0009 Cl  0  0  0  0  0  0  0  0  0  0  0  0
    1.4038   -0.5575    0.0000 C   0  0  0  0  0  0  0  0  0  0  0  0
    0.7330    0.6656   -0.0001 C   0  0  0  0  0  0  0  0  0  0  0  0
    0.6800   -1.7499    0.0002 C   0  0  0  0  0  0  0  0  0  0  0  0
   -0.6616    0.6961    0.0001 C   0  0  0  0  0  0  0  0  0  0  0  0
    2.8968   -0.6449   -0.0003 C   0  0  0  0  0  0  0  0  0  0  0  0
   -0.7145   -1.7194    0.0004 C   0  0  0  0  0  0  0  0  0  0  0  0
   -1.3852   -0.4965    0.0003 C   0  0  0  0  0  0  0  0  0  0  0  0
  1  5  1  0
  2  7  1  0
  3 10  1  0
  4  5  2  0
  4  6  1  0
  4  8  1  0
  5  7  1  0
  6  9  2  0
  7 10  2  0
  9 10  1  0
M  END
>  <PUBCHEM_COMPOUND_CID>  (1) 
23823

>  <PUBCHEM_CONFORMER_RMSD>  (1) 
0.4

>  <PUBCHEM_CONFORMER_DIVERSEORDER>  (1) 
1

>  <PUBCHEM_MMFF94_PARTIAL_CHARGES>  (1) 
12
1 -0.18
10 0.18
11 0.15
15 0.15
2 -0.18
3 -0.18
4 -0.14
5 0.18
6 -0.15
7 0.18
8 0.14
9 -0.15

>  <PUBCHEM_EFFECTIVE_ROTOR_COUNT>  (1) 
0

>  <PUBCHEM_PHARMACOPHORE_FEATURES>  (1) 
1
6 4 5 6 7 9 10 rings

>  <PUBCHEM_HEAVY_ATOM_COUNT>  (1) 
10

>  <PUBCHEM_ATOM_DEF_STEREO_COUNT>  (1) 
0

>  <PUBCHEM_ATOM_UDEF_STEREO_COUNT>  (1) 
0

>  <PUBCHEM_BOND_DEF_STEREO_COUNT>  (1) 
0

>  <PUBCHEM_BOND_UDEF_STEREO_COUNT>  (1) 
0

>  <PUBCHEM_ISOTOPIC_ATOM_COUNT>  (1) 
0

>  <PUBCHEM_COMPONENT_COUNT>  (1) 
1

>  <PUBCHEM_CACTVS_TAUTO_COUNT>  (1) 
1

>  <PUBCHEM_CONFORMER_ID>  (1) 
00005D0F00000001

>  <PUBCHEM_MMFF94_ENERGY>  (1) 
23.9532

>  <PUBCHEM_FEATURE_SELFOVERLAP>  (1) 
5.074

>  <PUBCHEM_SHAPE_FINGERPRINT>  (1) 
11206711 2 18337393742634165149
12423570 1 10207390606930592296
12524768 44 18268153239009775886
161256 15 18411140272299983132
16945 1 18410575080368410439
18185500 45 18122343471597800146
193761 8 18338798909772821380
21040471 1 17906452130153677668
2334 1 17978510063431062755
23402655 69 18123733276720121253
23552423 10 18117839034726198022
241688 4 17978794501993087338
2748010 2 18122629619472763046
5084963 1 18130788953528308227
53812653 166 18198335157016059320
66348 1 18337950073927009749

>  <PUBCHEM_SHAPE_MULTIPOLES>  (1) 
211.4
3.58
2.43
0.63
0.51
1.01
0
-0.29
0
-0.1
0
0.01
0.01
0

>  <PUBCHEM_SHAPE_SELFOVERLAP>  (1) 
412.567

>  <PUBCHEM_SHAPE_VOLUME>  (1) 
124.6

>  <PUBCHEM_COORDINATE_TYPE>  (1) 
2
5
10

$$$$
