23821
     RDKit          3D

 14 14  0  0  0  0  0  0  0  0999 V2000
    0.6986   -2.3026    1.0937 O   0  0  0  0  0  0  0  0  0  0  0  0
    0.7350    2.2718    1.1111 O   0  0  0  0  0  0  0  0  0  0  0  0
   -2.8232    0.0189   -0.8701 O   0  0  0  0  0  0  0  0  0  0  0  0
   -1.0466   -1.1931    0.0097 N   0  0  0  0  0  0  0  0  0  0  0  0
   -1.0338    1.1948    0.0313 N   0  0  0  0  0  0  0  0  0  0  0  0
    1.0282   -0.0154    0.5316 C   0  0  0  0  0  0  0  0  0  0  0  0
    1.8439   -0.0140   -0.7592 C   0  0  0  0  0  0  0  0  0  0  0  0
    0.2180   -1.2813    0.6001 C   0  0  0  0  0  0  0  0  0  0  0  0
    0.2357    1.2610    0.6144 C   0  0  0  0  0  0  0  0  0  0  0  0
    2.6535    1.2747   -0.8797 C   0  0  0  0  0  0  0  0  0  0  0  0
    2.7614   -1.2328   -0.8146 C   0  0  0  0  0  0  0  0  0  0  0  0
   -1.7101    0.0073   -0.3329 C   0  0  0  0  0  0  0  0  0  0  0  0
   -1.7918   -2.4320   -0.1878 C   0  0  0  0  0  0  0  0  0  0  0  0
   -1.7688    2.4427   -0.1476 C   0  0  0  0  0  0  0  0  0  0  0  0
  1  8  2  0
  2  9  2  0
  3 12  2  0
  4  8  1  0
  4 12  1  0
  4 13  1  0
  5  9  1  0
  5 12  1  0
  5 14  1  0
  6  7  1  0
  6  8  1  0
  6  9  1  0
  7 10  1  0
  7 11  1  0
M  END
>  <PUBCHEM_COMPOUND_CID>  (1) 
23821

>  <PUBCHEM_CONFORMER_RMSD>  (1) 
0.6

>  <PUBCHEM_CONFORMER_DIVERSEORDER>  (1) 
1
2

>  <PUBCHEM_MMFF94_PARTIAL_CHARGES>  (1) 
11
1 -0.57
12 0.69
13 0.3
14 0.3
2 -0.57
3 -0.57
4 -0.42
5 -0.42
6 0.12
8 0.57
9 0.57

>  <PUBCHEM_EFFECTIVE_ROTOR_COUNT>  (1) 
1.6

>  <PUBCHEM_PHARMACOPHORE_FEATURES>  (1) 
6
1 1 acceptor
1 2 acceptor
1 3 acceptor
1 6 anion
3 7 10 11 hydrophobe
6 4 5 6 8 9 12 rings

>  <PUBCHEM_HEAVY_ATOM_COUNT>  (1) 
14

>  <PUBCHEM_ATOM_DEF_STEREO_COUNT>  (1) 
0

>  <PUBCHEM_ATOM_UDEF_STEREO_COUNT>  (1) 
0

>  <PUBCHEM_BOND_DEF_STEREO_COUNT>  (1) 
0

>  <PUBCHEM_BOND_UDEF_STEREO_COUNT>  (1) 
0

>  <PUBCHEM_ISOTOPIC_ATOM_COUNT>  (1) 
0

>  <PUBCHEM_COMPONENT_COUNT>  (1) 
1

>  <PUBCHEM_CACTVS_TAUTO_COUNT>  (1) 
1

>  <PUBCHEM_CONFORMER_ID>  (1) 
00005D0D00000001

>  <PUBCHEM_MMFF94_ENERGY>  (1) 
30.4347

>  <PUBCHEM_FEATURE_SELFOVERLAP>  (1) 
30.446

>  <PUBCHEM_SHAPE_FINGERPRINT>  (1) 
12423570 1 11791282976881923656
12524768 44 16822208797761979051
12716758 59 18342177704978781766
13299463 15 18124609827266563814
14713566 1 18125167026475170402
14761567 1 18335125476026844327
15219459 52 16969142536582186277
15775835 57 17826813442313296140
161256 15 17979918538047672995
16945 1 18261114010981618666
20588541 1 17472139951893523499
22802520 49 18270123542350736998
23211744 25 18410857685079847048
2334 1 17977375363420768523
23552423 10 18263642857618430493
23559900 14 18128535965164294358
241688 4 18266743678182918059
2748010 2 17978497956197466433
2897 32 17977384936628532220
353137 74 18408325470998517828
528862 383 17612886893577384577

>  <PUBCHEM_SHAPE_MULTIPOLES>  (1) 
260.54
3.47
2.79
1.01
0.7
0.01
-0.07
0.03
1.53
-0.84
-0.47
0.26
-0.01
-0.02

>  <PUBCHEM_SHAPE_SELFOVERLAP>  (1) 
531.445

>  <PUBCHEM_SHAPE_VOLUME>  (1) 
150.6

>  <PUBCHEM_COORDINATE_TYPE>  (1) 
2
5
10

$$$$
