23836
     RDKit          3D

 20 21  0  0  0  0  0  0  0  0999 V2000
    0.9316    0.1915   -0.5547 O   0  0  0  0  0  0  0  0  0  0  0  0
    4.4467   -0.8698    0.1110 N   0  0  0  0  0  0  0  0  0  0  0  0
   -1.1797    1.2207   -0.6936 N   0  0  0  0  0  0  0  0  0  0  0  0
   -1.8589    2.3119   -0.3011 N   0  0  0  0  0  0  0  0  0  0  0  0
    3.0415   -0.9496   -0.4680 C   0  0  0  0  0  0  0  0  0  0  0  0
    4.3660   -0.7806    1.6282 C   0  0  0  0  0  0  0  0  0  0  0  0
    5.2290   -2.1144   -0.2832 C   0  0  0  0  0  0  0  0  0  0  0  0
    5.1504    0.3651   -0.4329 C   0  0  0  0  0  0  0  0  0  0  0  0
    2.2565    0.2771   -0.0471 C   0  0  0  0  0  0  0  0  0  0  0  0
    0.0859    1.2268   -0.2527 C   0  0  0  0  0  0  0  0  0  0  0  0
   -1.8472    0.2229   -1.4969 C   0  0  0  0  0  0  0  0  0  0  0  0
    0.2940    2.3452    0.4617 C   0  0  0  0  0  0  0  0  0  0  0  0
   -0.9535    2.9951    0.4043 C   0  0  0  0  0  0  0  0  0  0  0  0
   -2.5033   -0.8244   -0.6384 C   0  0  0  0  0  0  0  0  0  0  0  0
   -1.3231    4.2826    1.0164 C   0  0  0  0  0  0  0  0  0  0  0  0
   -3.8151   -0.6441   -0.2216 C   0  0  0  0  0  0  0  0  0  0  0  0
   -1.7879   -1.9571   -0.2742 C   0  0  0  0  0  0  0  0  0  0  0  0
   -4.4232   -1.6147    0.5747 C   0  0  0  0  0  0  0  0  0  0  0  0
   -2.3959   -2.9278    0.5218 C   0  0  0  0  0  0  0  0  0  0  0  0
   -3.7136   -2.7564    0.9462 C   0  0  0  0  0  0  0  0  0  0  0  0
  1  9  1  0
  1 10  1  0
  2  5  1  0
  2  6  1  0
  2  7  1  0
  2  8  1  0
  3  4  1  0
  3 10  1  0
  3 11  1  0
  4 13  2  0
  5  9  1  0
 10 12  2  0
 11 14  1  0
 12 13  1  0
 13 15  1  0
 14 16  2  0
 14 17  1  0
 16 18  1  0
 17 19  2  0
 18 20  2  0
 19 20  1  0
M  CHG  1   2   1
M  END
>  <PUBCHEM_COMPOUND_CID>  (1) 
23836

>  <PUBCHEM_CONFORMER_RMSD>  (1) 
0.8

>  <PUBCHEM_CONFORMER_DIVERSEORDER>  (1) 
1
22
14
13
37
12
25
40
4
33
27
47
36
9
16
48
44
31
17
26
5
35
23
6
28
19
3
34
10
41
43
15
38
7
8
24
39
46
45
2
29
30
20
18
32
21
11
42

>  <PUBCHEM_MMFF94_PARTIAL_CHARGES>  (1) 
26
1 -0.34
10 -0.09
11 0.4
12 -0.15
13 0.11
14 -0.14
15 0.18
16 -0.15
17 -0.15
18 -0.15
19 -0.15
2 -1.01
20 -0.15
3 0.31
36 0.15
4 -0.71
40 0.15
41 0.15
42 0.15
43 0.15
44 0.15
5 0.5
6 0.5
7 0.5
8 0.5
9 0.28

>  <PUBCHEM_EFFECTIVE_ROTOR_COUNT>  (1) 
6

>  <PUBCHEM_PHARMACOPHORE_FEATURES>  (1) 
5
1 1 acceptor
1 2 cation
1 4 acceptor
5 3 4 10 12 13 rings
6 14 16 17 18 19 20 rings

>  <PUBCHEM_HEAVY_ATOM_COUNT>  (1) 
20

>  <PUBCHEM_ATOM_DEF_STEREO_COUNT>  (1) 
0

>  <PUBCHEM_ATOM_UDEF_STEREO_COUNT>  (1) 
0

>  <PUBCHEM_BOND_DEF_STEREO_COUNT>  (1) 
0

>  <PUBCHEM_BOND_UDEF_STEREO_COUNT>  (1) 
0

>  <PUBCHEM_ISOTOPIC_ATOM_COUNT>  (1) 
0

>  <PUBCHEM_COMPONENT_COUNT>  (1) 
1

>  <PUBCHEM_CACTVS_TAUTO_COUNT>  (1) 
1

>  <PUBCHEM_CONFORMER_ID>  (1) 
00005D1C00000001

>  <PUBCHEM_MMFF94_ENERGY>  (1) 
52.0216

>  <PUBCHEM_FEATURE_SELFOVERLAP>  (1) 
25.371

>  <PUBCHEM_SHAPE_FINGERPRINT>  (1) 
10616163 171 18339359644108992430
11036077 51 17979351962972912496
11357001 24 18341612564428860045
114674 6 17321544229510119579
12107183 9 18269010820432681587
12553582 1 18270397312409560518
12633257 1 18268728267065816091
12714826 92 17968082158083280847
12760667 363 18410852153146256183
12788726 201 18408045108861435826
12969540 37 17687464976288347543
13052359 8 18265336097447493525
13103583 49 18127995150849863867
13140716 1 18413394250031625441
13533116 47 17832991929506634739
13631057 29 18261392278340634114
14178342 30 18265326202048162682
14251740 79 17967816011766215674
14863182 85 16170323785687646999
14866123 147 18267870467443539547
15042514 8 18339086982120148033
17492 54 10015296850983078361
17492 89 18409730626186124702
17804303 29 18262522627754545775
17980427 23 12967130558054925411
19784866 135 18410855456023137929
20600515 1 18335996323906797469
21041028 32 18341336690284669173
2297311 6 18340217344703733454
23175994 123 18411698829018734543
23557571 272 18272377421577466308
23558518 356 17981327789757841765
23559900 14 18409721855783414692
238078 22 18261960738251507342
2838139 119 10807667644354092795
3004659 81 18040434416974504150
3091708 16 8918512114448502993
3421961 26 18123191465883080163
3759504 43 18120651323488191445
458136 41 17327185849763586853
497634 4 18187371995848714220
5104073 3 18271236107402276826
633830 44 12397118329135608215
7097593 13 17909835675804899303
7226269 152 18340202978238692125
79837 15 17838343982015259600
81228 2 18199198303824971293
9709674 26 18127973001772181142

>  <PUBCHEM_SHAPE_MULTIPOLES>  (1) 
390.78
9.86
4.28
1.1
12.16
3.87
0.12
-9.14
1.16
-3.54
1.63
0.05
-0.02
0.45

>  <PUBCHEM_SHAPE_SELFOVERLAP>  (1) 
805.993

>  <PUBCHEM_SHAPE_VOLUME>  (1) 
228.8

>  <PUBCHEM_COORDINATE_TYPE>  (1) 
2
5
10

$$$$
