23833
     RDKit          3D

 13 12  0  0  0  0  0  0  0  0999 V2000
   -1.9787    1.2506   -1.0038 O   0  0  0  0  0  0  0  0  0  0  0  0
   -1.0881    1.6895    1.0793 O   0  0  0  0  0  0  0  0  0  0  0  0
    2.3209   -1.4254   -0.5545 C   0  0  0  0  0  0  0  0  0  0  0  0
    2.2432   -0.1131    0.2350 C   0  0  0  0  0  0  0  0  0  0  0  0
    1.2621   -2.4743   -0.1975 C   0  0  0  0  0  0  0  0  0  0  0  0
    3.3703    0.8645   -0.0985 C   0  0  0  0  0  0  0  0  0  0  0  0
   -0.1377   -2.0116   -0.4773 C   0  0  0  0  0  0  0  0  0  0  0  0
    3.3008    2.1095    0.7727 C   0  0  0  0  0  0  0  0  0  0  0  0
   -2.4693   -1.3737    0.1889 C   0  0  0  0  0  0  0  0  0  0  0  0
   -1.0657   -1.8270    0.4730 C   0  0  0  0  0  0  0  0  0  0  0  0
   -2.7754   -0.0170    0.8196 C   0  0  0  0  0  0  0  0  0  0  0  0
   -1.8487    1.0757    0.3419 C   0  0  0  0  0  0  0  0  0  0  0  0
   -1.1339    2.2523   -1.5788 C   0  0  0  0  0  0  0  0  0  0  0  0
  1 12  1  0
  1 13  1  0
  2 12  2  0
  3  4  1  0
  3  5  1  0
  4  6  1  0
  5  7  1  0
  6  8  1  0
  7 10  2  0
  9 10  1  0
  9 11  1  0
 11 12  1  0
M  END
>  <PUBCHEM_COMPOUND_CID>  (1) 
23833

>  <PUBCHEM_CONFORMER_RMSD>  (1) 
0.8

>  <PUBCHEM_CONFORMER_DIVERSEORDER>  (1) 
2
8
49
119
98
112
189
16
153
151
182
12
275
136
307
220
137
277
242
10
114
31
291
4
163
18
310
111
51
47
256
270
128
173
36
272
251
60
53
85
55
115
290
93
64
1
6
301
97
68
37
90
248
87
187
145
59
139
281
198
84
66
304
82
244
78
104
45
205
303
292
162
69
134
19
230
181
166
96
211
41
38
214
271
252
35
9
11
40
23
280
200
161
175
7
30
75
255
142
28
57
44
24
239
298
309
50
144
287
222
17
26
138
296
194
3
179
27
223
209
129
308
203
107
305
67
106
199
56
241
14
240
86
259
140
269
265
95
193
245
143
178
289
197
238
42
221
5
130
32
300
94
191
146
170
257
282
74
224
299
262
250
108
25
61
266
229
286
102
172
127
159
267
207
76
233
48
89
218
158
234
52
131
20
195
268
65
206
121
217
152
297
148
62
100
295
156
171
253
120
260
219
196
54
13
283
228
58
81
72
264
63
293
21
215
184
247
99
71
109
288
213
22
147
135
105
227
190
46
285
133
39
15
33
273
155
279
216
168
165
306
160
164
77
123
236
276
278
70
117
132
302
263
235
167
183
73
254
122
192
249
201
125
311
80
126
34
176
88
113
116
225
79
188
157
149
169
210
261
231
226
154
124
237
274
92
150
43
185
101
110
83
202
186
103
141
118
246
294
177
180
258
174
208
29
212
284
243
232
204
91

>  <PUBCHEM_MMFF94_PARTIAL_CHARGES>  (1) 
11
1 -0.43
10 -0.29
11 0.06
12 0.66
13 0.28
2 -0.57
22 0.15
28 0.15
5 0.14
7 -0.29
9 0.14

>  <PUBCHEM_EFFECTIVE_ROTOR_COUNT>  (1) 
8

>  <PUBCHEM_PHARMACOPHORE_FEATURES>  (1) 
3
1 2 acceptor
1 8 hydrophobe
5 3 4 5 6 7 hydrophobe

>  <PUBCHEM_HEAVY_ATOM_COUNT>  (1) 
13

>  <PUBCHEM_ATOM_DEF_STEREO_COUNT>  (1) 
0

>  <PUBCHEM_ATOM_UDEF_STEREO_COUNT>  (1) 
0

>  <PUBCHEM_BOND_DEF_STEREO_COUNT>  (1) 
0

>  <PUBCHEM_BOND_UDEF_STEREO_COUNT>  (1) 
1

>  <PUBCHEM_ISOTOPIC_ATOM_COUNT>  (1) 
0

>  <PUBCHEM_COMPONENT_COUNT>  (1) 
1

>  <PUBCHEM_CACTVS_TAUTO_COUNT>  (1) 
1

>  <PUBCHEM_CONFORMER_ID>  (1) 
00005D1900000002

>  <PUBCHEM_MMFF94_ENERGY>  (1) 
3.3134

>  <PUBCHEM_FEATURE_SELFOVERLAP>  (1) 
15.223

>  <PUBCHEM_SHAPE_FINGERPRINT>  (1) 
13618510 140 18413389821967270298
13897977 150 18339924818496237681
14250199 8 18200030612504447367
14614273 12 18409441518266149110
15775835 57 17973179334754282151
17802600 8 18336548201023488046
19973954 147 18197787604404693691
21524375 3 18341049713713646434
22959321 45 18263375826743434250
2897 32 16535394618098060388
3524813 1 18341617057259829984
59345606 82 18337671902017383756
8050 44 18410851032169931926

>  <PUBCHEM_SHAPE_MULTIPOLES>  (1) 
255.8
5.23
3.17
1.11
3.25
0.19
0.22
-1.88
-0.98
0.33
0.55
-0.34
-0.67
0.96

>  <PUBCHEM_SHAPE_SELFOVERLAP>  (1) 
470.044

>  <PUBCHEM_SHAPE_VOLUME>  (1) 
162.2

>  <PUBCHEM_COORDINATE_TYPE>  (1) 
2
5
10

$$$$
