23844
     RDKit          3D

 15 15  0  0  1  0  0  0  0  0999 V2000
   -0.3311    1.9248   -1.1431 O   0  0  0  0  0  0  0  0  0  0  0  0
    5.0087   -1.0642    0.0604 O   0  0  0  0  0  0  0  0  0  0  0  0
   -2.5903    0.6295    0.0825 N   0  0  0  0  0  0  0  0  0  0  0  0
   -3.6132   -0.4203    0.1332 C   0  0  0  0  0  0  0  0  0  0  0  0
   -1.2593    0.0466    0.0882 C   0  0  0  0  0  0  0  0  0  0  0  0
   -0.1848    1.1398    0.0395 C   0  0  0  0  0  0  0  0  0  0  0  0
   -4.9947    0.2424    0.1141 C   0  0  0  0  0  0  0  0  0  0  0  0
   -3.4464   -1.3237   -1.0933 C   0  0  0  0  0  0  0  0  0  0  0  0
   -3.4390   -1.2386    1.4180 C   0  0  0  0  0  0  0  0  0  0  0  0
    1.2078    0.5485    0.0452 C   0  0  0  0  0  0  0  0  0  0  0  0
    2.0919    0.9120    1.0460 C   0  0  0  0  0  0  0  0  0  0  0  0
    1.5674   -0.3429   -0.9509 C   0  0  0  0  0  0  0  0  0  0  0  0
    3.3760    0.3670    1.0510 C   0  0  0  0  0  0  0  0  0  0  0  0
    2.8513   -0.8879   -0.9459 C   0  0  0  0  0  0  0  0  0  0  0  0
    3.7557   -0.5330    0.0552 C   0  0  0  0  0  0  0  0  0  0  0  0
  1  6  1  0
  2 15  1  0
  3  4  1  0
  3  5  1  0
  4  7  1  0
  4  8  1  0
  4  9  1  0
  5  6  1  0
  6 10  1  0
 10 11  2  0
 10 12  1  0
 11 13  1  0
 12 14  2  0
 13 15  2  0
 14 15  1  0
M  END
>  <PUBCHEM_COMPOUND_CID>  (1) 
23844

>  <PUBCHEM_CONFORMER_RMSD>  (1) 
0.6

>  <PUBCHEM_CONFORMER_DIVERSEORDER>  (1) 
3
12
7
10
9
5
11
8
2
6
4
1

>  <PUBCHEM_MMFF94_PARTIAL_CHARGES>  (1) 
19
1 -0.68
10 -0.14
11 -0.15
12 -0.15
13 -0.15
14 -0.15
15 0.08
16 0.36
2 -0.53
29 0.15
3 -0.9
30 0.15
31 0.4
32 0.15
33 0.15
34 0.45
4 0.27
5 0.27
6 0.42

>  <PUBCHEM_EFFECTIVE_ROTOR_COUNT>  (1) 
4

>  <PUBCHEM_PHARMACOPHORE_FEATURES>  (1) 
7
1 1 acceptor
1 1 donor
1 2 donor
1 3 cation
1 3 donor
4 4 7 8 9 hydrophobe
6 10 11 12 13 14 15 rings

>  <PUBCHEM_HEAVY_ATOM_COUNT>  (1) 
15

>  <PUBCHEM_ATOM_DEF_STEREO_COUNT>  (1) 
0

>  <PUBCHEM_ATOM_UDEF_STEREO_COUNT>  (1) 
1

>  <PUBCHEM_BOND_DEF_STEREO_COUNT>  (1) 
0

>  <PUBCHEM_BOND_UDEF_STEREO_COUNT>  (1) 
0

>  <PUBCHEM_ISOTOPIC_ATOM_COUNT>  (1) 
0

>  <PUBCHEM_COMPONENT_COUNT>  (1) 
1

>  <PUBCHEM_CACTVS_TAUTO_COUNT>  (1) 
2

>  <PUBCHEM_CONFORMER_ID>  (1) 
00005D2400000003

>  <PUBCHEM_MMFF94_ENERGY>  (1) 
32.7893

>  <PUBCHEM_FEATURE_SELFOVERLAP>  (1) 
35.522

>  <PUBCHEM_SHAPE_FINGERPRINT>  (1) 
10498660 4 10159714468749188859
114248 4 12973889208163536489
11543360 7 14346081961643137131
12251169 10 17060337426696043468
12507557 5 15482665793135047067
12633257 1 17346605183293094003
12707595 3 17894631499903204273
12916748 109 9295288365265867455
13296908 3 18114183098460551145
13675066 3 18341898523926070553
14115302 16 17023191543016773978
14252887 29 17346605128012329030
14289901 80 17846497062529563977
14386348 63 18409451379643065995
14943859 89 10519984867942309572
14993402 34 15791735183271901018
15375358 24 18343018887403862095
15501101 241 18202561808652088528
18186145 218 16515683381294826693
18915474 69 17023190452253505370
19050596 39 16917068884248891147
19141452 34 18201718466512495431
200 152 16988554711161112957
20279233 1 18131636686058057223
20281407 28 18412548699487239284
20281475 54 18341612663186415925
20361792 2 18040996271579123437
20432913 95 17917715694735702219
20645477 70 17989205919462268551
20671657 53 17022621970461302356
21119208 17 15357698586813259691
21524375 3 10375869675587557509
21713013 43 16226331525047965243
22485316 2 18342173366898386439
22854114 59 17275101742983468746
231179 274 10375875151791938746
23402539 116 17749106652174057740
23500284 214 9943521942295653268
23557571 272 18262235513090234244
23559900 14 17822013142503863416
25 1 11025792094093166896
26918003 58 17632856421398106715
276578 36 12535633769179636628
2916195 48 9223221928001456062
3060560 45 13984662551418703474
3082319 5 14490187224123424751
4047638 21 9655575227770650048
42 15 18060421317715911601
4990 188 11674873381534222217
5104073 3 17703787071884242827
5281201 14 12396291534972522835
548570 60 9151172051797972546
58051976 100 15791737438114082811
81228 2 18189906318247827629

>  <PUBCHEM_SHAPE_MULTIPOLES>  (1) 
291.97
9.64
1.38
1.17
2.36
0.02
-0.11
-3.07
-1.75
-0.08
0.25
0.3
-0.01
0.46

>  <PUBCHEM_SHAPE_SELFOVERLAP>  (1) 
591.518

>  <PUBCHEM_SHAPE_VOLUME>  (1) 
172.6

>  <PUBCHEM_COORDINATE_TYPE>  (1) 
2
5
10

$$$$
