23843
     RDKit          3D

 14 14  0  0  1  0  0  0  0  0999 V2000
   -0.6859    1.3213   -1.6080 O   0  0  0  0  0  0  0  0  0  0  0  0
    4.8084   -0.9175    0.3147 O   0  0  0  0  0  0  0  0  0  0  0  0
   -2.8436    0.5125    0.1179 N   0  0  0  0  0  0  0  0  0  0  0  0
   -1.4908   -0.0016    0.2648 C   0  0  0  0  0  0  0  0  0  0  0  0
   -0.4616    1.0215   -0.2310 C   0  0  0  0  0  0  0  0  0  0  0  0
   -3.8233   -0.4653    0.5891 C   0  0  0  0  0  0  0  0  0  0  0  0
    0.9516    0.5013   -0.0845 C   0  0  0  0  0  0  0  0  0  0  0  0
   -3.7020   -1.7616   -0.2071 C   0  0  0  0  0  0  0  0  0  0  0  0
   -5.2258    0.1224    0.4686 C   0  0  0  0  0  0  0  0  0  0  0  0
    1.8615    1.2209    0.6701 C   0  0  0  0  0  0  0  0  0  0  0  0
    1.3037   -0.6828   -0.7087 C   0  0  0  0  0  0  0  0  0  0  0  0
    3.1644    0.7416    0.8049 C   0  0  0  0  0  0  0  0  0  0  0  0
    2.6065   -1.1624   -0.5739 C   0  0  0  0  0  0  0  0  0  0  0  0
    3.5370   -0.4502    0.1831 C   0  0  0  0  0  0  0  0  0  0  0  0
  1  5  1  0
  2 14  1  0
  3  4  1  0
  3  6  1  0
  4  5  1  0
  5  7  1  0
  6  8  1  0
  6  9  1  0
  7 10  2  0
  7 11  1  0
 10 12  1  0
 11 13  2  0
 12 14  2  0
 13 14  1  0
M  END
>  <PUBCHEM_COMPOUND_CID>  (1) 
23843

>  <PUBCHEM_CONFORMER_RMSD>  (1) 
0.6

>  <PUBCHEM_CONFORMER_DIVERSEORDER>  (1) 
1
7
21
18
20
8
19
14
11
9
13
3
4
15
5
17
16
6
12
2
10

>  <PUBCHEM_MMFF94_PARTIAL_CHARGES>  (1) 
19
1 -0.68
10 -0.15
11 -0.15
12 -0.15
13 -0.15
14 0.08
19 0.36
2 -0.53
26 0.15
27 0.15
28 0.4
29 0.15
3 -0.9
30 0.15
31 0.45
4 0.27
5 0.42
6 0.27
7 -0.14

>  <PUBCHEM_EFFECTIVE_ROTOR_COUNT>  (1) 
4

>  <PUBCHEM_PHARMACOPHORE_FEATURES>  (1) 
7
1 1 acceptor
1 1 donor
1 2 donor
1 3 cation
1 3 donor
3 6 8 9 hydrophobe
6 7 10 11 12 13 14 rings

>  <PUBCHEM_HEAVY_ATOM_COUNT>  (1) 
14

>  <PUBCHEM_ATOM_DEF_STEREO_COUNT>  (1) 
0

>  <PUBCHEM_ATOM_UDEF_STEREO_COUNT>  (1) 
1

>  <PUBCHEM_BOND_DEF_STEREO_COUNT>  (1) 
0

>  <PUBCHEM_BOND_UDEF_STEREO_COUNT>  (1) 
0

>  <PUBCHEM_ISOTOPIC_ATOM_COUNT>  (1) 
0

>  <PUBCHEM_COMPONENT_COUNT>  (1) 
1

>  <PUBCHEM_CACTVS_TAUTO_COUNT>  (1) 
2

>  <PUBCHEM_CONFORMER_ID>  (1) 
00005D2300000001

>  <PUBCHEM_MMFF94_ENERGY>  (1) 
23.6883

>  <PUBCHEM_FEATURE_SELFOVERLAP>  (1) 
35.522

>  <PUBCHEM_SHAPE_FINGERPRINT>  (1) 
114248 4 11891335356986707731
11543360 7 12396304789642297537
12032990 46 18271528594342778902
12251169 10 17918274255232267719
12670543 26 10953733353974133346
12916748 109 10519988183894373911
13675066 3 16917345909866245544
14115302 16 16009040504763405947
14252887 29 17560807589462805694
14943859 89 12247677175359278156
14993402 34 14634873028901382154
15375462 478 17274825735600638777
15501101 241 18411981398742834460
17834072 8 18040428877020125597
18186145 218 14923946786148034213
19050596 39 17917995001043779971
19141452 34 18411420627107920023
200 152 17703783730805244205
20279233 1 18272939319216472463
20281407 28 18261114049588721633
20281475 54 18335142041794572999
20361792 2 17385443254269960861
20645477 70 18131352981956637319
20671657 53 15646770085107347366
20871998 22 17988090963364042126
21119208 17 13695871432473111971
22485316 2 18408039611118576315
231179 274 11887680541486323251
23402539 116 16950561043528512126
23500284 214 11527947884813920967
23557571 272 17968375645709238548
26918003 58 18131350804339412507
276578 36 13973973090419624572
3060560 45 12757150177920164272
3286 77 18342737433701703408
4047638 21 11527948967472714000
42 15 18342461443545656369
4990 188 7997976773233130177
5104073 3 18201439233139650179
5281201 14 11241960465249190355
69090 78 18201998846156656759
76465 3 18114731668921858234
83771 10 18334576832398313949

>  <PUBCHEM_SHAPE_MULTIPOLES>  (1) 
271.39
9.43
1.41
0.94
5.9
0.24
-0.25
2.63
2.49
-0.06
-0.12
-0.03
-0.2
0.31

>  <PUBCHEM_SHAPE_SELFOVERLAP>  (1) 
546.92

>  <PUBCHEM_SHAPE_VOLUME>  (1) 
160.4

>  <PUBCHEM_COORDINATE_TYPE>  (1) 
2
5
10

$$$$
