23847
     RDKit          3D

  8  7  0  0  0  0  0  0  0  0999 V2000
   -0.2733    1.3314   -0.7109 O   0  0  0  0  0  0  0  0  0  0  0  0
   -1.5711   -0.3843    0.3835 C   0  0  0  0  0  0  0  0  0  0  0  0
    1.0158   -0.4413    0.2985 C   0  0  0  0  0  0  0  0  0  0  0  0
   -0.2726    0.2820   -0.0673 C   0  0  0  0  0  0  0  0  0  0  0  0
    2.2608    0.3140   -0.1587 C   0  0  0  0  0  0  0  0  0  0  0  0
   -2.6381    0.6601    0.7002 C   0  0  0  0  0  0  0  0  0  0  0  0
   -2.0546   -1.3497   -0.6919 C   0  0  0  0  0  0  0  0  0  0  0  0
    3.5332   -0.4122    0.2466 C   0  0  0  0  0  0  0  0  0  0  0  0
  1  4  2  0
  2  4  1  0
  2  6  1  0
  2  7  1  0
  3  4  1  0
  3  5  1  0
  5  8  1  0
M  END
>  <PUBCHEM_COMPOUND_CID>  (1) 
23847

>  <PUBCHEM_CONFORMER_RMSD>  (1) 
0.6

>  <PUBCHEM_CONFORMER_DIVERSEORDER>  (1) 
1
23
6
21
16
22
5
15
8
10
11
19
14
18
2
3
12
4
13
7
20
17
9

>  <PUBCHEM_MMFF94_PARTIAL_CHARGES>  (1) 
4
1 -0.57
2 0.06
3 0.06
4 0.45

>  <PUBCHEM_EFFECTIVE_ROTOR_COUNT>  (1) 
3

>  <PUBCHEM_PHARMACOPHORE_FEATURES>  (1) 
3
1 1 acceptor
1 8 hydrophobe
3 2 6 7 hydrophobe

>  <PUBCHEM_HEAVY_ATOM_COUNT>  (1) 
8

>  <PUBCHEM_ATOM_DEF_STEREO_COUNT>  (1) 
0

>  <PUBCHEM_ATOM_UDEF_STEREO_COUNT>  (1) 
0

>  <PUBCHEM_BOND_DEF_STEREO_COUNT>  (1) 
0

>  <PUBCHEM_BOND_UDEF_STEREO_COUNT>  (1) 
0

>  <PUBCHEM_ISOTOPIC_ATOM_COUNT>  (1) 
0

>  <PUBCHEM_COMPONENT_COUNT>  (1) 
1

>  <PUBCHEM_CACTVS_TAUTO_COUNT>  (1) 
3

>  <PUBCHEM_CONFORMER_ID>  (1) 
00005D2700000001

>  <PUBCHEM_MMFF94_ENERGY>  (1) 
3.4525

>  <PUBCHEM_FEATURE_SELFOVERLAP>  (1) 
15.223

>  <PUBCHEM_SHAPE_FINGERPRINT>  (1) 
10857977 72 17346027969779552378
12932764 1 18334288747931002560
14325111 11 18273215313677737394
15310529 11 13262392276046909040
16714656 1 18408324367191734263
23402539 116 17275098398011326537
23552423 10 18189054351164511796
29004967 10 17313110756212465049
3248919 1 17346601872004982380

>  <PUBCHEM_SHAPE_MULTIPOLES>  (1) 
158.77
4.81
1.15
0.82
3.21
0.11
0.02
0.53
-0.67
-0.67
0.21
-0.2
-0.04
-0.39

>  <PUBCHEM_SHAPE_SELFOVERLAP>  (1) 
285.358

>  <PUBCHEM_SHAPE_VOLUME>  (1) 
104

>  <PUBCHEM_COORDINATE_TYPE>  (1) 
2
5
10

$$$$
