23840
     RDKit          3D

 14 14  0  0  0  0  0  0  0  0999 V2000
    0.8867    0.3762    0.8953 O   0  0  0  0  0  0  0  0  0  0  0  0
   -1.4072   -2.7815   -0.2934 O   0  0  0  0  0  0  0  0  0  0  0  0
    0.5099   -2.0275    0.4652 O   0  0  0  0  0  0  0  0  0  0  0  0
    1.6015    0.6517   -1.3001 O   0  0  0  0  0  0  0  0  0  0  0  0
   -0.6683   -1.8396    0.0795 N   0  0  0  0  0  0  0  0  0  0  0  0
    3.1219    0.2449    0.4043 N   0  0  0  0  0  0  0  0  0  0  0  0
   -0.3957    0.5623    0.4713 C   0  0  0  0  0  0  0  0  0  0  0  0
   -1.1835   -0.5144    0.0643 C   0  0  0  0  0  0  0  0  0  0  0  0
   -0.9175    1.8556    0.4501 C   0  0  0  0  0  0  0  0  0  0  0  0
   -2.4933   -0.2977   -0.3639 C   0  0  0  0  0  0  0  0  0  0  0  0
   -2.2273    2.0724    0.0221 C   0  0  0  0  0  0  0  0  0  0  0  0
   -3.0151    0.9958   -0.3850 C   0  0  0  0  0  0  0  0  0  0  0  0
    1.8608    0.4444   -0.1182 C   0  0  0  0  0  0  0  0  0  0  0  0
    4.3273    0.2574   -0.3915 C   0  0  0  0  0  0  0  0  0  0  0  0
  1  7  1  0
  1 13  1  0
  2  5  1  0
  3  5  2  0
  4 13  2  0
  5  8  1  0
  6 13  1  0
  6 14  1  0
  7  8  2  0
  7  9  1  0
  8 10  1  0
  9 11  2  0
 10 12  2  0
 11 12  1  0
M  CHG  2   2  -1   5   1
M  END
>  <PUBCHEM_COMPOUND_CID>  (1) 
23840

>  <PUBCHEM_CONFORMER_RMSD>  (1) 
0.6

>  <PUBCHEM_CONFORMER_DIVERSEORDER>  (1) 
1
14
7
17
13
10
16
15
11
8
2
6
5
12
9
3
4

>  <PUBCHEM_MMFF94_PARTIAL_CHARGES>  (1) 
19
1 -0.23
10 -0.15
11 -0.15
12 -0.15
13 0.78
14 0.3
15 0.15
16 0.15
17 0.15
18 0.15
19 0.37
2 -0.52
3 -0.52
4 -0.57
5 0.91
6 -0.73
7 0.08
8 0.13
9 -0.15

>  <PUBCHEM_EFFECTIVE_ROTOR_COUNT>  (1) 
4

>  <PUBCHEM_PHARMACOPHORE_FEATURES>  (1) 
6
1 2 acceptor
1 2 anion
1 3 acceptor
1 4 acceptor
1 6 donor
6 7 8 9 10 11 12 rings

>  <PUBCHEM_HEAVY_ATOM_COUNT>  (1) 
14

>  <PUBCHEM_ATOM_DEF_STEREO_COUNT>  (1) 
0

>  <PUBCHEM_ATOM_UDEF_STEREO_COUNT>  (1) 
0

>  <PUBCHEM_BOND_DEF_STEREO_COUNT>  (1) 
0

>  <PUBCHEM_BOND_UDEF_STEREO_COUNT>  (1) 
0

>  <PUBCHEM_ISOTOPIC_ATOM_COUNT>  (1) 
0

>  <PUBCHEM_COMPONENT_COUNT>  (1) 
1

>  <PUBCHEM_CACTVS_TAUTO_COUNT>  (1) 
2

>  <PUBCHEM_CONFORMER_ID>  (1) 
00005D2000000001

>  <PUBCHEM_MMFF94_ENERGY>  (1) 
42.7148

>  <PUBCHEM_FEATURE_SELFOVERLAP>  (1) 
30.528

>  <PUBCHEM_SHAPE_FINGERPRINT>  (1) 
1 1 18050005493647279647
12138202 97 18342740715061784542
12423570 1 13587536092390443891
12500047 106 18412259524225069044
12716758 59 18341045306675780648
13024252 1 13479132406377136653
13380535 76 18342174419365977062
14614273 12 18190174590621521797
14993402 34 18187079542413627732
15207287 21 17775563135073390110
15669948 3 18409443730606738842
15775835 57 18339362946416382633
16945 1 18411972581332965081
17870717 6 18129685027507628302
18534176 82 18272656774460628260
193761 8 17762613297875814217
20201158 50 17775569732232957204
20645476 183 18040433299987296059
20645477 56 18410295826443881232
20871998 184 18200599231688098886
20871998 22 17619066578617653979
23402539 116 18343011199069758069
23419403 2 16843307154441014459
23552423 10 17907008474959087713
23559900 14 18272649052905989184
257057 1 17693931208413505062
2748010 2 18266465295630204471
305870 269 18191305961862602869
528862 383 18044650897789892419
53812653 8 18410007702525064857
7364860 26 17838052598548424927
81228 2 18121774195400158395

>  <PUBCHEM_SHAPE_MULTIPOLES>  (1) 
254.67
5.15
2.26
0.82
5.35
1.45
0.08
-1.72
0.95
-1.52
-0.08
0.18
-0.11
-0.2

>  <PUBCHEM_SHAPE_SELFOVERLAP>  (1) 
531.8

>  <PUBCHEM_SHAPE_VOLUME>  (1) 
142.6

>  <PUBCHEM_COORDINATE_TYPE>  (1) 
2
5
10

$$$$
