23858
     RDKit          3D

 15 15  0  0  0  0  0  0  0  0999 V2000
   -3.2517    0.2236    2.0192 O   0  0  0  0  0  0  0  0  0  0  0  0
    3.9791   -0.3674    0.1014 N   0  0  0  0  0  0  0  0  0  0  0  0
   -2.6900    0.4488   -0.2558 N   0  0  0  0  0  0  0  0  0  0  0  0
    2.5882   -0.3243    0.6106 C   0  0  0  0  0  0  0  0  0  0  0  0
    1.7390    0.6275   -0.2228 C   0  0  0  0  0  0  0  0  0  0  0  0
    0.2733    0.6824    0.2191 C   0  0  0  0  0  0  0  0  0  0  0  0
   -0.5467    1.5944   -0.7001 C   0  0  0  0  0  0  0  0  0  0  0  0
   -2.0002    1.7207   -0.2557 C   0  0  0  0  0  0  0  0  0  0  0  0
   -2.9728   -0.2581   -1.4824 C   0  0  0  0  0  0  0  0  0  0  0  0
   -3.3558   -1.6431   -1.0006 C   0  0  0  0  0  0  0  0  0  0  0  0
    4.6218    1.0268    0.1457 C   0  0  0  0  0  0  0  0  0  0  0  0
    4.8421   -1.3156    0.9468 C   0  0  0  0  0  0  0  0  0  0  0  0
    4.0151   -0.8610   -1.3523 C   0  0  0  0  0  0  0  0  0  0  0  0
   -3.9791   -1.3952    0.3678 C   0  0  0  0  0  0  0  0  0  0  0  0
   -3.2621   -0.1594    0.8590 C   0  0  0  0  0  0  0  0  0  0  0  0
  1 15  2  0
  2  4  1  0
  2 11  1  0
  2 12  1  0
  2 13  1  0
  3  8  1  0
  3  9  1  0
  3 15  1  0
  4  5  1  0
  5  6  1  0
  6  7  1  0
  7  8  1  0
  9 10  1  0
 10 14  1  0
 14 15  1  0
M  CHG  1   2   1
M  END
>  <PUBCHEM_COMPOUND_CID>  (1) 
23858

>  <PUBCHEM_CONFORMER_RMSD>  (1) 
0.8

>  <PUBCHEM_CONFORMER_DIVERSEORDER>  (1) 
1
36
27
4
30
7
28
20
10
2
17
19
40
5
32
42
15
21
18
39
31
13
41
38
14
24
16
37
22
29
35
34
8
25
11
23
6
3
33
26
9
12

>  <PUBCHEM_MMFF94_PARTIAL_CHARGES>  (1) 
11
1 -0.57
11 0.5
12 0.5
13 0.5
14 0.06
15 0.57
2 -1.01
3 -0.66
4 0.5
8 0.3
9 0.3

>  <PUBCHEM_EFFECTIVE_ROTOR_COUNT>  (1) 
6.8

>  <PUBCHEM_PHARMACOPHORE_FEATURES>  (1) 
3
1 1 acceptor
1 2 cation
5 3 9 10 14 15 rings

>  <PUBCHEM_HEAVY_ATOM_COUNT>  (1) 
15

>  <PUBCHEM_ATOM_DEF_STEREO_COUNT>  (1) 
0

>  <PUBCHEM_ATOM_UDEF_STEREO_COUNT>  (1) 
0

>  <PUBCHEM_BOND_DEF_STEREO_COUNT>  (1) 
0

>  <PUBCHEM_BOND_UDEF_STEREO_COUNT>  (1) 
0

>  <PUBCHEM_ISOTOPIC_ATOM_COUNT>  (1) 
0

>  <PUBCHEM_COMPONENT_COUNT>  (1) 
1

>  <PUBCHEM_CACTVS_TAUTO_COUNT>  (1) 
2

>  <PUBCHEM_CONFORMER_ID>  (1) 
00005D3200000001

>  <PUBCHEM_MMFF94_ENERGY>  (1) 
29.5268

>  <PUBCHEM_FEATURE_SELFOVERLAP>  (1) 
15.223

>  <PUBCHEM_SHAPE_FINGERPRINT>  (1) 
10680689 15 18410295778840336956
11046707 91 18342171189529231039
11089746 13 11891337569601870406
11127187 94 17095518535263825723
11370993 144 16988010387942790602
11543360 7 14779555603426238500
11552529 35 16845000342096953991
12633257 1 15984551147293570427
128620 24 17676488362987797756
13675066 3 14405186179382776256
14004511 7 10231757794784069668
14123255 352 10735876187995926674
14251758 9 13326305719366391844
14251764 38 12973894740351115758
15239154 128 11599998873603662746
15239191 94 18411135823014297918
1813 80 18335434477354048989
18186145 218 14707214296897311996
18915474 69 18040715874781544230
200 152 17967809457350248197
20281475 54 18060420209772617868
20645477 56 7997685441438519317
20671657 53 17967250918391875116
20871999 31 14996278150418559571
22485316 2 18409162203816295908
22646028 1 18334572434742030560
23402539 116 17313099701546939292
23402655 69 12613026172239688310
23403322 49 18113613495597643427
235170 7 15502376720774832226
23559900 14 17313379016281811168
27216 239 12535349021690884719
4028521 119 11242240870911029863
4921388 177 15213024847326288217
53428517 29 15410898452738880504
57265010 4 17275105020418088107
59027123 10 13334737942142097346
59345606 45 16081379565219706268
633830 44 15430888596693111692
9882013 296 17988924496109353374

>  <PUBCHEM_SHAPE_MULTIPOLES>  (1) 
292.86
10.9
1.65
1.36
8.36
0.09
0.09
-4.29
0.94
-0.47
-0.21
-0.75
-0.26
-0.3

>  <PUBCHEM_SHAPE_SELFOVERLAP>  (1) 
559.936

>  <PUBCHEM_SHAPE_VOLUME>  (1) 
183.3

>  <PUBCHEM_COORDINATE_TYPE>  (1) 
2
5
10

$$$$
