23859
     RDKit          3D

 14 15  0  0  0  0  0  0  0  0999 V2000
   -0.8034    0.2593    0.0442 C   0  0  0  0  0  0  0  0  0  0  0  0
    0.6355    0.1111    0.0214 C   0  0  0  0  0  0  0  0  0  0  0  0
   -1.6224   -0.8519   -0.1569 C   0  0  0  0  0  0  0  0  0  0  0  0
   -3.0098   -0.7089   -0.1349 C   0  0  0  0  0  0  0  0  0  0  0  0
    1.4391    1.1703   -0.4003 C   0  0  0  0  0  0  0  0  0  0  0  0
    1.2194   -1.0909    0.4214 C   0  0  0  0  0  0  0  0  0  0  0  0
    3.4103   -0.1745   -0.0225 C   0  0  0  0  0  0  0  0  0  0  0  0
   -1.3719    1.5134    0.2673 C   0  0  0  0  0  0  0  0  0  0  0  0
    2.8265    1.0276   -0.4222 C   0  0  0  0  0  0  0  0  0  0  0  0
    2.6068   -1.2336    0.3995 C   0  0  0  0  0  0  0  0  0  0  0  0
   -3.5781    0.5452    0.0881 C   0  0  0  0  0  0  0  0  0  0  0  0
   -2.7592    1.6563    0.2892 C   0  0  0  0  0  0  0  0  0  0  0  0
   -3.8864   -1.8966   -0.3488 C   0  0  0  0  0  0  0  0  0  0  0  0
    4.8936   -0.3269   -0.0456 C   0  0  0  0  0  0  0  0  0  0  0  0
  1  2  1  0
  1  3  2  0
  1  8  1  0
  2  5  2  0
  2  6  1  0
  3  4  1  0
  4 11  2  0
  4 13  1  0
  5  9  1  0
  6 10  2  0
  7  9  2  0
  7 10  1  0
  7 14  1  0
  8 12  2  0
 11 12  1  0
M  END
>  <PUBCHEM_COMPOUND_CID>  (1) 
23859

>  <PUBCHEM_CONFORMER_RMSD>  (1) 
0.4

>  <PUBCHEM_CONFORMER_DIVERSEORDER>  (1) 
1
2

>  <PUBCHEM_MMFF94_PARTIAL_CHARGES>  (1) 
20
10 -0.15
11 -0.15
12 -0.15
13 0.14
14 0.14
15 0.15
16 0.15
17 0.15
18 0.15
19 0.15
20 0.15
21 0.15
22 0.15
3 -0.15
4 -0.14
5 -0.15
6 -0.15
7 -0.14
8 -0.15
9 -0.15

>  <PUBCHEM_EFFECTIVE_ROTOR_COUNT>  (1) 
1

>  <PUBCHEM_PHARMACOPHORE_FEATURES>  (1) 
2
6 1 3 4 8 11 12 rings
6 2 5 6 7 9 10 rings

>  <PUBCHEM_HEAVY_ATOM_COUNT>  (1) 
14

>  <PUBCHEM_ATOM_DEF_STEREO_COUNT>  (1) 
0

>  <PUBCHEM_ATOM_UDEF_STEREO_COUNT>  (1) 
0

>  <PUBCHEM_BOND_DEF_STEREO_COUNT>  (1) 
0

>  <PUBCHEM_BOND_UDEF_STEREO_COUNT>  (1) 
0

>  <PUBCHEM_ISOTOPIC_ATOM_COUNT>  (1) 
0

>  <PUBCHEM_COMPONENT_COUNT>  (1) 
1

>  <PUBCHEM_CACTVS_TAUTO_COUNT>  (1) 
1

>  <PUBCHEM_CONFORMER_ID>  (1) 
00005D3300000001

>  <PUBCHEM_MMFF94_ENERGY>  (1) 
45.2555

>  <PUBCHEM_FEATURE_SELFOVERLAP>  (1) 
10.149

>  <PUBCHEM_SHAPE_FINGERPRINT>  (1) 
10616163 171 18413108372544865271
11046707 91 18272650181743896631
11132069 177 18411133606610882112
11769659 78 18408879637822842563
11806522 49 18336262431305925422
12251169 10 18410296869819993889
12500047 106 18268703927127252001
12932764 1 17603863351892863437
13288520 33 18342741806104848806
14144814 61 18409166580229552648
14325111 11 18410013234300614540
14576447 43 18335697286498018102
14965852 173 18411136918146594897
15196674 1 18410293635651539244
15375462 189 18410862079078927835
15442244 35 18120936109841839490
15536298 74 18341612655076795368
15669948 3 18343857814649417095
15775835 57 18335989670448736144
16945 1 18262807387716242233
17834072 33 18409453613595681444
17862501 102 18335132094856141314
18186145 218 17530679926635895107
18522853 276 18411980260776824696
19026448 4 17489306365503998288
19050596 39 18409451388122036041
19422 9 18410296921111493302
1986462 14 18413110549913189284
200 152 18410005563773815191
20279233 1 16200432455240142581
20281475 54 18334008355217764482
20871998 184 18060137648290682775
21267235 1 18409739473153875683
21501502 16 18409168800806850345
221490 88 18190749819580116882
2255824 54 17967819362177673092
23402539 116 18411694391837398446
23402655 69 18260546675813977309
23463225 33 18408886200516955734
23557571 272 17989492896165516865
23559900 14 18342449370218949328
2871803 45 18334849571796900287
3312278 4 18412263917665279203
4214541 1 18411700954573917132
465052 167 17984707981277690095
474 4 17605280777585939436
4990 188 18200886093360667086
5104073 3 18411418423188187952
57096353 35 18335706108128255301
573450 72 18336254648767117762
7364860 26 18270398437817897560
77779 3 18413109442180839828
8809292 202 18187650266247461315
9709674 26 18411144636161257910
9981440 41 17469887048806857400

>  <PUBCHEM_SHAPE_MULTIPOLES>  (1) 
288.11
8.05
1.72
0.69
3
0.01
0
1.71
0.37
-1.25
-0.01
0.03
0
-0.63

>  <PUBCHEM_SHAPE_SELFOVERLAP>  (1) 
621.941

>  <PUBCHEM_SHAPE_VOLUME>  (1) 
149.4

>  <PUBCHEM_COORDINATE_TYPE>  (1) 
2
5
10

$$$$
