23860
     RDKit          3D

 18 20  0  0  0  0  0  0  0  0999 V2000
   -0.3143    0.0091    0.2836 N   0  0  0  0  0  0  0  0  0  0  0  0
   -3.9582    0.0236   -0.5448 N   0  0  0  0  0  0  0  0  0  0  0  0
    0.4441   -1.1315    0.1651 C   0  0  0  0  0  0  0  0  0  0  0  0
    0.4699    1.1323    0.1649 C   0  0  0  0  0  0  0  0  0  0  0  0
   -1.7473    0.0247    0.5031 C   0  0  0  0  0  0  0  0  0  0  0  0
    1.7649   -0.7301   -0.0367 C   0  0  0  0  0  0  0  0  0  0  0  0
    1.7812    0.7010   -0.0369 C   0  0  0  0  0  0  0  0  0  0  0  0
   -2.5250    0.0338   -0.8098 C   0  0  0  0  0  0  0  0  0  0  0  0
    0.0619   -2.4767    0.2212 C   0  0  0  0  0  0  0  0  0  0  0  0
    0.1184    2.4858    0.2207 C   0  0  0  0  0  0  0  0  0  0  0  0
    2.7554   -1.7228   -0.1905 C   0  0  0  0  0  0  0  0  0  0  0  0
    2.7940    1.6707   -0.1908 C   0  0  0  0  0  0  0  0  0  0  0  0
    1.0611   -3.4414    0.0661 C   0  0  0  0  0  0  0  0  0  0  0  0
    1.1391    3.4274    0.0650 C   0  0  0  0  0  0  0  0  0  0  0  0
    2.3886   -3.0722   -0.1368 C   0  0  0  0  0  0  0  0  0  0  0  0
    2.4579    3.0282   -0.1377 C   0  0  0  0  0  0  0  0  0  0  0  0
   -4.3537    1.2202    0.2004 C   0  0  0  0  0  0  0  0  0  0  0  0
   -4.3378   -1.1822    0.1939 C   0  0  0  0  0  0  0  0  0  0  0  0
  1  3  1  0
  1  4  1  0
  1  5  1  0
  2  8  1  0
  2 17  1  0
  2 18  1  0
  3  6  2  0
  3  9  1  0
  4  7  2  0
  4 10  1  0
  5  8  1  0
  6  7  1  0
  6 11  1  0
  7 12  1  0
  9 13  2  0
 10 14  2  0
 11 15  2  0
 12 16  2  0
 13 15  1  0
 14 16  1  0
M  END
>  <PUBCHEM_COMPOUND_CID>  (1) 
23860

>  <PUBCHEM_CONFORMER_RMSD>  (1) 
0.6

>  <PUBCHEM_CONFORMER_DIVERSEORDER>  (1) 
1
3
2

>  <PUBCHEM_MMFF94_PARTIAL_CHARGES>  (1) 
24
1 0.05
10 -0.15
11 -0.15
12 -0.15
13 -0.15
14 -0.15
15 -0.15
16 -0.15
17 0.27
18 0.27
2 -0.81
23 0.15
24 0.15
25 0.15
26 0.15
27 0.15
28 0.15
29 0.15
3 -0.15
30 0.15
4 -0.15
5 0.26
8 0.27
9 -0.15

>  <PUBCHEM_EFFECTIVE_ROTOR_COUNT>  (1) 
3

>  <PUBCHEM_PHARMACOPHORE_FEATURES>  (1) 
5
1 1 cation
1 2 cation
5 1 3 4 6 7 rings
6 3 6 9 11 13 15 rings
6 4 7 10 12 14 16 rings

>  <PUBCHEM_HEAVY_ATOM_COUNT>  (1) 
18

>  <PUBCHEM_ATOM_DEF_STEREO_COUNT>  (1) 
0

>  <PUBCHEM_ATOM_UDEF_STEREO_COUNT>  (1) 
0

>  <PUBCHEM_BOND_DEF_STEREO_COUNT>  (1) 
0

>  <PUBCHEM_BOND_UDEF_STEREO_COUNT>  (1) 
0

>  <PUBCHEM_ISOTOPIC_ATOM_COUNT>  (1) 
0

>  <PUBCHEM_COMPONENT_COUNT>  (1) 
1

>  <PUBCHEM_CACTVS_TAUTO_COUNT>  (1) 
1

>  <PUBCHEM_CONFORMER_ID>  (1) 
00005D3400000001

>  <PUBCHEM_MMFF94_ENERGY>  (1) 
44.11

>  <PUBCHEM_FEATURE_SELFOVERLAP>  (1) 
25.551

>  <PUBCHEM_SHAPE_FINGERPRINT>  (1) 
10411042 1 18050286968487574203
10693767 8 18130790044830375590
10967382 1 18410856551371699330
1100329 8 18337949091081326994
11265709 11 18049441444219478690
116883 192 17764307241239996839
12173636 292 17762335116827861509
12553582 1 18050570642729847747
12730499 353 18264214776196847483
12788726 201 17541948585102231443
13004483 165 17689422798628634235
13009979 54 17702391654400241803
13140716 1 18337946917658934002
13533116 47 18341891910151305095
138480 1 18338797797381306638
14790565 3 18338243760045220164
15442244 35 18197219144488214649
15502722 9 18410855494846667815
16087824 20 17329714215465087085
16945 1 18410866460019435384
17134986 127 18120374508503134284
18785283 64 18261682557472573153
19591789 44 17977952606740702627
20645477 70 18335690655569322335
21478907 32 17473542452311202467
21524375 3 17972027304208336488
221357 26 17975395938181824781
221490 88 18408330990506604219
2255824 54 18412263934634327127
22907989 373 16966610945355973092
2334 1 17978797040856569338
23419403 2 17462248436637928942
23557571 272 17480579352720643766
23598291 2 17987252044487245857
238 59 17830126429793159325
25 1 18337388365203520757
257057 1 17977942389224313666
2748010 2 18122079851322443330
3060560 45 18338232785981006540
3071541 12 18411140238045525369
3091708 16 9328360558327355576
314173 41 18267873774521274255
350125 39 17832996313818079872
352729 6 17833831951197677353
394222 165 17896875650512622040
458136 41 18265066901597172153
54173680 148 17329709821417085318
58051976 378 18196931291405662359
6443956 14 18265054626301026493
7364860 26 18410854360816974639
81228 2 17474933347151819281
8272917 22 18412550916270593301
84936 182 18201718504687608233
9709674 26 18335703862652234523

>  <PUBCHEM_SHAPE_MULTIPOLES>  (1) 
360.47
6.05
4.42
0.7
9.31
0.11
-0.03
-0.17
-0.47
-4.28
0.1
0.16
0
0

>  <PUBCHEM_SHAPE_SELFOVERLAP>  (1) 
786.844

>  <PUBCHEM_SHAPE_VOLUME>  (1) 
198.5

>  <PUBCHEM_COORDINATE_TYPE>  (1) 
2
5
10

$$$$
