23873
     RDKit          3D

 13 13  0  0  0  0  0  0  0  0999 V2000
    2.0558   -1.1673    1.0709 O   0  0  0  0  0  0  0  0  0  0  0  0
   -0.5564    2.5778    0.7929 O   0  0  0  0  0  0  0  0  0  0  0  0
   -2.2435   -1.5034   -0.6764 O   0  0  0  0  0  0  0  0  0  0  0  0
   -0.0560   -1.3793    0.0976 N   0  0  0  0  0  0  0  0  0  0  0  0
   -1.4241    0.5736   -0.0344 N   0  0  0  0  0  0  0  0  0  0  0  0
    0.9780    0.8204    0.3341 C   0  0  0  0  0  0  0  0  0  0  0  0
    1.5843    1.1459   -1.0290 C   0  0  0  0  0  0  0  0  0  0  0  0
    1.0520   -0.6646    0.5636 C   0  0  0  0  0  0  0  0  0  0  0  0
   -0.4016    1.4159    0.4139 C   0  0  0  0  0  0  0  0  0  0  0  0
   -1.3056   -0.8186   -0.2530 C   0  0  0  0  0  0  0  0  0  0  0  0
    3.0257    0.6841   -1.1165 C   0  0  0  0  0  0  0  0  0  0  0  0
    0.0434   -2.8344    0.0547 C   0  0  0  0  0  0  0  0  0  0  0  0
   -2.7520    1.1500   -0.2184 C   0  0  0  0  0  0  0  0  0  0  0  0
  1  8  2  0
  2  9  2  0
  3 10  2  0
  4  8  1  0
  4 10  1  0
  4 12  1  0
  5  9  1  0
  5 10  1  0
  5 13  1  0
  6  7  1  0
  6  8  1  0
  6  9  1  0
  7 11  1  0
M  END
>  <PUBCHEM_COMPOUND_CID>  (1) 
23873

>  <PUBCHEM_CONFORMER_RMSD>  (1) 
0.6

>  <PUBCHEM_CONFORMER_DIVERSEORDER>  (1) 
1
2

>  <PUBCHEM_MMFF94_PARTIAL_CHARGES>  (1) 
11
1 -0.57
10 0.69
12 0.3
13 0.3
2 -0.57
3 -0.57
4 -0.42
5 -0.42
6 0.12
8 0.57
9 0.57

>  <PUBCHEM_EFFECTIVE_ROTOR_COUNT>  (1) 
1.6

>  <PUBCHEM_PHARMACOPHORE_FEATURES>  (1) 
6
1 1 acceptor
1 11 hydrophobe
1 2 acceptor
1 3 acceptor
1 6 anion
6 4 5 6 8 9 10 rings

>  <PUBCHEM_HEAVY_ATOM_COUNT>  (1) 
13

>  <PUBCHEM_ATOM_DEF_STEREO_COUNT>  (1) 
0

>  <PUBCHEM_ATOM_UDEF_STEREO_COUNT>  (1) 
0

>  <PUBCHEM_BOND_DEF_STEREO_COUNT>  (1) 
0

>  <PUBCHEM_BOND_UDEF_STEREO_COUNT>  (1) 
0

>  <PUBCHEM_ISOTOPIC_ATOM_COUNT>  (1) 
0

>  <PUBCHEM_COMPONENT_COUNT>  (1) 
1

>  <PUBCHEM_CACTVS_TAUTO_COUNT>  (1) 
1

>  <PUBCHEM_CONFORMER_ID>  (1) 
00005D4100000001

>  <PUBCHEM_MMFF94_ENERGY>  (1) 
23.7752

>  <PUBCHEM_FEATURE_SELFOVERLAP>  (1) 
30.446

>  <PUBCHEM_SHAPE_FINGERPRINT>  (1) 
11206711 2 18266170811318822013
12423570 1 11416794345836440489
12524768 44 16465582660790900753
12716758 59 18340778155636600108
14761567 1 17973993239625768270
15219459 52 18048318834151693453
15775835 57 18041008340463683572
161256 15 16968867147395143227
16945 1 18053645997979205811
18185500 45 18338786819571518195
20588541 1 15742197090081903866
20645476 183 18114752610934142318
21040471 1 18337664325441872489
22802520 49 17620205668141916902
2334 1 18338789117426611243
23419403 2 15959395355772411714
23552423 10 18264488386466265151
23559900 14 18270971241212318644
241688 4 16895112414262473587
2748010 2 18340755044248645281
353137 74 18190750914875859660
4369600 1 18343301500088158644
5084963 1 17605528107102842751
528862 383 18041849406439050913
53812653 8 18262804093439396375

>  <PUBCHEM_SHAPE_MULTIPOLES>  (1) 
239.96
3.29
2.63
0.97
0.42
0.91
0.04
-0.76
1.09
-0.6
-0.34
0.44
-0.11
-0.66

>  <PUBCHEM_SHAPE_SELFOVERLAP>  (1) 
488.253

>  <PUBCHEM_SHAPE_VOLUME>  (1) 
138.4

>  <PUBCHEM_COORDINATE_TYPE>  (1) 
2
5
10

$$$$
