2387
     RDKit          3D

 25 28  0  0  0  0  0  0  0  0999 V2000
   -1.8397    0.5176    1.3131 N   0  0  0  0  0  0  0  0  0  0  0  0
    1.8367    0.5171    1.3129 N   0  0  0  0  0  0  0  0  0  0  0  0
   -1.9032    2.0203   -0.3233 N   0  0  0  0  0  0  0  0  0  0  0  0
    1.8994    2.0187   -0.3245 N   0  0  0  0  0  0  0  0  0  0  0  0
   -7.0447   -1.8488   -1.0593 N   0  0  0  0  0  0  0  0  0  0  0  0
    7.0434   -1.8477   -1.0573 N   0  0  0  0  0  0  0  0  0  0  0  0
   -5.9679   -2.6899    0.8364 N   0  0  0  0  0  0  0  0  0  0  0  0
    5.9618   -2.6940    0.8336 N   0  0  0  0  0  0  0  0  0  0  0  0
   -0.0013    2.1789    1.2823 C   0  0  0  0  0  0  0  0  0  0  0  0
   -1.2421    1.6016    0.7326 C   0  0  0  0  0  0  0  0  0  0  0  0
    1.2785    1.5820    0.7141 C   0  0  0  0  0  0  0  0  0  0  0  0
   -2.9611    0.2168    0.5833 C   0  0  0  0  0  0  0  0  0  0  0  0
    2.9579    0.2162    0.5830 C   0  0  0  0  0  0  0  0  0  0  0  0
   -2.9785    1.1688   -0.4323 C   0  0  0  0  0  0  0  0  0  0  0  0
    2.9749    1.1674   -0.4332 C   0  0  0  0  0  0  0  0  0  0  0  0
   -3.9317   -0.7760    0.7201 C   0  0  0  0  0  0  0  0  0  0  0  0
    3.9290   -0.7763    0.7205 C   0  0  0  0  0  0  0  0  0  0  0  0
   -4.0189    1.1438   -1.3764 C   0  0  0  0  0  0  0  0  0  0  0  0
    4.0153    1.1422   -1.3774 C   0  0  0  0  0  0  0  0  0  0  0  0
   -4.9599   -0.7861   -0.2283 C   0  0  0  0  0  0  0  0  0  0  0  0
    4.9570   -0.7866   -0.2281 C   0  0  0  0  0  0  0  0  0  0  0  0
   -5.0045    0.1558   -1.2588 C   0  0  0  0  0  0  0  0  0  0  0  0
    5.0013    0.1547   -1.2591 C   0  0  0  0  0  0  0  0  0  0  0  0
   -6.0009   -1.7985   -0.1376 C   0  0  0  0  0  0  0  0  0  0  0  0
    5.9991   -1.7979   -0.1361 C   0  0  0  0  0  0  0  0  0  0  0  0
  1 10  1  0
  1 12  1  0
  2 11  1  0
  2 13  1  0
  3 10  2  0
  3 14  1  0
  4 11  2  0
  4 15  1  0
  5 24  1  0
  6 25  1  0
  7 24  2  0
  8 25  2  0
  9 10  1  0
  9 11  1  0
 12 14  2  0
 12 16  1  0
 13 15  2  0
 13 17  1  0
 14 18  1  0
 15 19  1  0
 16 20  2  0
 17 21  2  0
 18 22  2  0
 19 23  2  0
 20 22  1  0
 20 24  1  0
 21 23  1  0
 21 25  1  0
M  END
>  <PUBCHEM_COMPOUND_CID>  (1) 
2387

>  <PUBCHEM_CONFORMER_RMSD>  (1) 
0.8

>  <PUBCHEM_CONFORMER_DIVERSEORDER>  (1) 
1
7
8
6
9
4
3
10
2
11
5

>  <PUBCHEM_MMFF94_PARTIAL_CHARGES>  (1) 
39
1 0.03
10 0.01
11 0.01
12 -0.15
13 -0.15
14 0.23
15 0.23
16 -0.15
17 -0.15
18 -0.15
19 -0.15
2 0.03
20 0.09
21 0.09
22 -0.15
23 -0.15
24 0.41
25 0.41
28 0.27
29 0.27
3 -0.57
30 0.15
31 0.15
32 0.15
33 0.15
34 0.15
35 0.15
36 0.4
37 0.4
38 0.4
39 0.4
4 -0.57
40 0.4
41 0.4
5 -0.85
6 -0.85
7 -0.85
8 -0.85
9 0.36

>  <PUBCHEM_EFFECTIVE_ROTOR_COUNT>  (1) 
4

>  <PUBCHEM_PHARMACOPHORE_FEATURES>  (1) 
14
1 1 donor
1 2 donor
1 5 donor
1 6 donor
1 7 donor
1 8 donor
3 1 3 10 cation
3 2 4 11 cation
3 5 7 24 cation
3 6 8 25 cation
5 1 3 10 12 14 rings
5 2 4 11 13 15 rings
6 12 14 16 18 20 22 rings
6 13 15 17 19 21 23 rings

>  <PUBCHEM_HEAVY_ATOM_COUNT>  (1) 
25

>  <PUBCHEM_ATOM_DEF_STEREO_COUNT>  (1) 
0

>  <PUBCHEM_ATOM_UDEF_STEREO_COUNT>  (1) 
0

>  <PUBCHEM_BOND_DEF_STEREO_COUNT>  (1) 
0

>  <PUBCHEM_BOND_UDEF_STEREO_COUNT>  (1) 
0

>  <PUBCHEM_ISOTOPIC_ATOM_COUNT>  (1) 
0

>  <PUBCHEM_COMPONENT_COUNT>  (1) 
1

>  <PUBCHEM_CACTVS_TAUTO_COUNT>  (1) 
22

>  <PUBCHEM_CONFORMER_ID>  (1) 
0000095300000001

>  <PUBCHEM_MMFF94_ENERGY>  (1) 
60.1411

>  <PUBCHEM_FEATURE_SELFOVERLAP>  (1) 
71.356

>  <PUBCHEM_SHAPE_FINGERPRINT>  (1) 
10 15 10591762112796531543
10319926 262 12535357839079804741
10498660 4 13767926831777860133
105312 117 13551489046377407488
10554248 39 13190328072487037560
10622 236 17970896761954044274
10670039 82 14273732907088005238
10693767 8 17896032149554340170
11135609 99 18413105070521882966
11796584 16 18198343953457312308
11809386 21 18341049601648539833
12166972 35 18260552233680863812
12633257 1 15051438436422464408
12661589 4 18336818809690937410
12760667 363 18342741823543148547
12892183 10 13039191381417954200
13668630 136 18341334414252637502
13685833 64 18131068246677463216
13690498 29 18260264140565809717
13782708 43 18339357574039984399
13955234 65 17771058590527809105
14123256 34 18343587338830828302
14251764 30 18412262869782884405
14347332 77 18409166580229695473
14848178 5 18271242708371299742
14931854 50 18040429967098410635
14951699 99 11095883795584461994
15019793 15 17837488918646911567
15183329 4 17095520665224667728
15188451 53 16128360593806368629
15238133 3 11599720710099368146
15510800 12 18060147492324512342
15519825 34 14548439393682474519
15575132 122 14346336980386527335
17134984 74 17967250927483041330
193927 3 17989492917587859104
19784866 240 18342740715146492241
20028762 73 18272371932726118534
20567600 247 18412542115292221338
20775438 99 17832691744934529147
21033648 29 7925622277038699956
21033650 10 17168419364220762597
21307412 95 18261669385668394863
21344244 78 15267065890928381073
21585481 104 17095519561629128607
21637258 2 17846778542328677801
21682296 61 18342738559637437855
21756936 100 8790300228729888808
22393880 68 17967524653847918088
23379529 103 17899421063249588467
23522609 53 18124631705904953249
23559900 14 18335412508786642713
270888 7 7853856078903647107
2748736 6 7925642085328174783
2838139 119 14634859851483120212
3004659 81 18259700095100179192
3472631 163 11674882199165274219
351380 3 18131070445853647589
3862424 121 17680160848253904371
392239 28 14979947065050088398
4107672 100 17895471428767852301
439807 62 18335423478354325023
44062 13 18410006598998440949
46194498 28 17749950101788463525
465052 167 18201443618068857917
4756326 101 14188743918974840907
5104073 3 17561085812674832257
54039377 194 18272377460274714518
5718773 13 18342454837575257870
57724786 102 9295296019251231296
59682541 52 15647323109824085434
636775 72 8716243718722589630
636775 8 18130235861638376206
6608658 132 14924213916229402167
7808743 9 8214130855191344712
7970288 3 18272088296626204486
8863177 126 18199466739444319515

>  <PUBCHEM_SHAPE_MULTIPOLES>  (1) 
474.64
18.48
2.62
1.34
0.08
0.87
-0.11
17.6
-5.31
0
0.33
0
-0.21
0

>  <PUBCHEM_SHAPE_SELFOVERLAP>  (1) 
1066.739

>  <PUBCHEM_SHAPE_VOLUME>  (1) 
244.3

>  <PUBCHEM_COORDINATE_TYPE>  (1) 
2
5
10

$$$$
