23871
     RDKit          3D

 22 23  0  0  0  0  0  0  0  0999 V2000
    1.1974   -3.9779    0.6645 Cl  0  0  0  0  0  0  0  0  0  0  0  0
   -1.6791   -3.6752    0.7400 Cl  0  0  0  0  0  0  0  0  0  0  0  0
    4.8137    1.2410   -0.3010 O   0  0  0  0  0  0  0  0  0  0  0  0
   -4.4895    1.7460   -0.4091 O   0  0  0  0  0  0  0  0  0  0  0  0
   -0.0110   -1.6836   -0.3045 C   0  0  0  0  0  0  0  0  0  0  0  0
    1.2640   -0.9105   -0.3035 C   0  0  0  0  0  0  0  0  0  0  0  0
   -1.2347   -0.7466   -0.3328 C   0  0  0  0  0  0  0  0  0  0  0  0
   -0.1274   -2.7765    0.8140 C   0  0  0  0  0  0  0  0  0  0  0  0
    1.8235   -0.4865   -1.5087 C   0  0  0  0  0  0  0  0  0  0  0  0
   -2.0752   -0.8128   -1.4131 C   0  0  0  0  0  0  0  0  0  0  0  0
    1.8973   -0.6115    0.9029 C   0  0  0  0  0  0  0  0  0  0  0  0
   -1.4213    0.1061    0.7236 C   0  0  0  0  0  0  0  0  0  0  0  0
    3.0163    0.2365   -1.5078 C   0  0  0  0  0  0  0  0  0  0  0  0
   -3.1824    0.0352   -1.4388 C   0  0  0  0  0  0  0  0  0  0  0  0
    3.0902    0.1117    0.9040 C   0  0  0  0  0  0  0  0  0  0  0  0
   -2.5285    0.9541    0.6979 C   0  0  0  0  0  0  0  0  0  0  0  0
    3.6497    0.5357   -0.3015 C   0  0  0  0  0  0  0  0  0  0  0  0
   -3.4091    0.9186   -0.3833 C   0  0  0  0  0  0  0  0  0  0  0  0
    5.0744    2.0634    0.8354 C   0  0  0  0  0  0  0  0  0  0  0  0
   -5.0537    2.1166    0.8480 C   0  0  0  0  0  0  0  0  0  0  0  0
    5.9202    3.2433    0.4066 C   0  0  0  0  0  0  0  0  0  0  0  0
   -6.5348    2.3729    0.6672 C   0  0  0  0  0  0  0  0  0  0  0  0
  1  8  1  0
  2  8  1  0
  3 17  1  0
  3 19  1  0
  4 18  1  0
  4 20  1  0
  5  6  1  0
  5  7  1  0
  5  8  1  0
  6  9  2  0
  6 11  1  0
  7 10  2  0
  7 12  1  0
  9 13  1  0
 10 14  1  0
 11 15  2  0
 12 16  2  0
 13 17  2  0
 14 18  2  0
 15 17  1  0
 16 18  1  0
 19 21  1  0
 20 22  1  0
M  END
>  <PUBCHEM_COMPOUND_CID>  (1) 
23871

>  <PUBCHEM_CONFORMER_RMSD>  (1) 
0.8

>  <PUBCHEM_CONFORMER_DIVERSEORDER>  (1) 
1
27
28
14
24
26
19
21
22
11
13
3
6
2
16
9
7
20
12
15
8
4
5
23
18
17
25
10

>  <PUBCHEM_MMFF94_PARTIAL_CHARGES>  (1) 
28
1 -0.29
10 -0.15
11 -0.15
12 -0.15
13 -0.15
14 -0.15
15 -0.15
16 -0.15
17 0.08
18 0.08
19 0.28
2 -0.29
20 0.28
25 0.15
26 0.15
27 0.15
28 0.15
29 0.15
3 -0.36
30 0.15
31 0.15
32 0.15
4 -0.36
5 0.29
6 -0.14
7 -0.14
8 0.58
9 -0.15

>  <PUBCHEM_EFFECTIVE_ROTOR_COUNT>  (1) 
7

>  <PUBCHEM_PHARMACOPHORE_FEATURES>  (1) 
4
1 3 acceptor
1 4 acceptor
6 6 9 11 13 15 17 rings
6 7 10 12 14 16 18 rings

>  <PUBCHEM_HEAVY_ATOM_COUNT>  (1) 
22

>  <PUBCHEM_ATOM_DEF_STEREO_COUNT>  (1) 
0

>  <PUBCHEM_ATOM_UDEF_STEREO_COUNT>  (1) 
0

>  <PUBCHEM_BOND_DEF_STEREO_COUNT>  (1) 
0

>  <PUBCHEM_BOND_UDEF_STEREO_COUNT>  (1) 
0

>  <PUBCHEM_ISOTOPIC_ATOM_COUNT>  (1) 
0

>  <PUBCHEM_COMPONENT_COUNT>  (1) 
1

>  <PUBCHEM_CACTVS_TAUTO_COUNT>  (1) 
1

>  <PUBCHEM_CONFORMER_ID>  (1) 
00005D3F00000001

>  <PUBCHEM_MMFF94_ENERGY>  (1) 
72.4796

>  <PUBCHEM_FEATURE_SELFOVERLAP>  (1) 
20.298

>  <PUBCHEM_SHAPE_FINGERPRINT>  (1) 
10165383 225 18042989591570975758
10498660 4 18060420205050837241
10692045 39 18263071142307048522
11135609 201 18341049713544523665
12107183 9 18262222366975556664
12363563 72 10303809891020940807
12390115 104 18338244850412024954
12623949 98 12035448307791278504
12788726 201 17756442803776129166
12892183 10 16081638976939082324
13140716 1 18260263023685038730
13583140 156 15719663325347000319
13955234 65 18118408332757717651
13965767 371 17968087595543448092
14142880 1 18262231243882010695
14251764 38 17981040031651126360
14251764 75 18408605893977792584
14565420 104 18335704897464572393
14849402 71 18194405481105033234
15188451 53 12973890321119748449
15342168 16 18261680289903881933
1741750 31 18334853974217447930
17980427 26 18340472384288807798
1813 80 9223224152604344874
18222031 100 9295278435391240741
18785283 64 17970632878878462843
19784866 240 9223224157384777713
19784866 34 18411135814440317561
20388580 30 9294990376198114223
20510252 161 18193277627020069962
21033648 29 18335427902212870288
21401589 2 18412267271929424513
21756936 100 18340764935500409586
22079108 93 18409175398509502811
2255824 54 18049440340582110759
23557571 272 18052267473150602510
23559900 14 16916216646557321278
23845131 108 18333734598608800931
270888 7 18341893008724657176
283562 15 18119521287390965403
2838139 119 18272083860030632348
3472631 163 18201999928093069101
394222 165 18126001568802015139
4340502 62 18189346684594123963
474 4 18410570643793560459
5104073 3 18041266777794669722
59755656 520 18334859406976700158
633830 44 18342452612829483334
77188 2 9223224148246762850
7808743 9 18338513144408852728
960060 61 12679164004237302673
9981440 41 18200587120513651626

>  <PUBCHEM_SHAPE_MULTIPOLES>  (1) 
444.75
11.77
4.1
1.34
1.42
2.97
-0.38
-17.81
2.07
-0.38
1.83
0.02
0.11
-0.17

>  <PUBCHEM_SHAPE_SELFOVERLAP>  (1) 
910.743

>  <PUBCHEM_SHAPE_VOLUME>  (1) 
258.3

>  <PUBCHEM_COORDINATE_TYPE>  (1) 
2
5
10

$$$$
