23882
     RDKit          3D

 14 13  0  0  0  0  0  0  0  0999 V2000
    7.3182   -0.1253    0.0254 S   0  0  0  0  0  0  0  0  0  0  0  0
    3.3707   -0.4761    0.0156 O   0  0  0  0  0  0  0  0  0  0  0  0
    4.7480    1.3710    0.0024 O   0  0  0  0  0  0  0  0  0  0  0  0
   -2.8328    0.3793   -0.0637 C   0  0  0  0  0  0  0  0  0  0  0  0
   -1.5678   -0.4814   -0.0569 C   0  0  0  0  0  0  0  0  0  0  0  0
   -4.1276   -0.4391   -0.0551 C   0  0  0  0  0  0  0  0  0  0  0  0
   -0.3071    0.3865   -0.0335 C   0  0  0  0  0  0  0  0  0  0  0  0
   -5.4286    0.3690   -0.0391 C   0  0  0  0  0  0  0  0  0  0  0  0
    0.9591   -0.4742    0.0029 C   0  0  0  0  0  0  0  0  0  0  0  0
   -6.6847   -0.5004    0.0257 C   0  0  0  0  0  0  0  0  0  0  0  0
    2.2288    0.3683    0.0003 C   0  0  0  0  0  0  0  0  0  0  0  0
   -7.9421    0.3490    0.1310 C   0  0  0  0  0  0  0  0  0  0  0  0
    4.5887    0.1585    0.0149 C   0  0  0  0  0  0  0  0  0  0  0  0
    5.6771   -0.8851    0.0301 C   0  0  0  0  0  0  0  0  0  0  0  0
  1 14  1  0
  2 11  1  0
  2 13  1  0
  3 13  2  0
  4  5  1  0
  4  6  1  0
  5  7  1  0
  6  8  1  0
  7  9  1  0
  8 10  1  0
  9 11  1  0
 10 12  1  0
 13 14  1  0
M  END
>  <PUBCHEM_COMPOUND_CID>  (1) 
23882

>  <PUBCHEM_CONFORMER_RMSD>  (1) 
1

>  <PUBCHEM_CONFORMER_DIVERSEORDER>  (1) 
1
119
28
124
132
47
91
160
97
20
152
170
32
10
35
135
129
27
80
25
36
29
65
82
12
130
21
112
133
53
153
147
107
108
26
5
141
102
98
2
74
95
142
34
162
110
67
88
33
41
46
159
37
113
50
151
83
116
92
40
156
14
72
149
77
137
24
49
59
3
71
31
55
19
16
84
140
138
168
131
125
13
4
68
23
60
101
117
167
139
157
96
146
17
79
109
163
114
89
158
38
173
63
93
87
7
175
62
144
11
66
134
94
22
42
85
174
9
6
136
155
126
100
122
172
61
143
164
148
75
78
69
176
52
99
86
165
171
120
90
154
76
8
169
64
45
73
128
145
51
81
15
111
150
58
121
115
104
39
118
30
103
105
106
48
54
56
18
70
161
127
123
43
44
166
57

>  <PUBCHEM_MMFF94_PARTIAL_CHARGES>  (1) 
7
1 -0.41
11 0.28
13 0.66
14 0.29
2 -0.43
3 -0.57
36 0.18

>  <PUBCHEM_EFFECTIVE_ROTOR_COUNT>  (1) 
10

>  <PUBCHEM_PHARMACOPHORE_FEATURES>  (1) 
2
1 12 hydrophobe
1 3 acceptor

>  <PUBCHEM_HEAVY_ATOM_COUNT>  (1) 
14

>  <PUBCHEM_ATOM_DEF_STEREO_COUNT>  (1) 
0

>  <PUBCHEM_ATOM_UDEF_STEREO_COUNT>  (1) 
0

>  <PUBCHEM_BOND_DEF_STEREO_COUNT>  (1) 
0

>  <PUBCHEM_BOND_UDEF_STEREO_COUNT>  (1) 
0

>  <PUBCHEM_ISOTOPIC_ATOM_COUNT>  (1) 
0

>  <PUBCHEM_COMPONENT_COUNT>  (1) 
1

>  <PUBCHEM_CACTVS_TAUTO_COUNT>  (1) 
1

>  <PUBCHEM_CONFORMER_ID>  (1) 
00005D4A00000001

>  <PUBCHEM_MMFF94_ENERGY>  (1) 
4.1852

>  <PUBCHEM_FEATURE_SELFOVERLAP>  (1) 
10.148

>  <PUBCHEM_SHAPE_FINGERPRINT>  (1) 
11315181 36 18131355224356502451
12091667 2 18186801379747842791
13533116 47 17168132404638607970
14123256 10 18410573980856483850
1420 363 18040437689638966931
14251764 18 18272654541024873896
14251764 46 18410855460133475539
14729087 3 14261356826139686715
17834076 25 17561363980721402591
18006028 8 17989204841483674689
20281389 69 18411416211343658017
20621476 8 18412826858802003615
21315763 28 18411699885554354313
220451 1 15430032175560295027
22224240 67 17917705816522112982
23035841 295 18335137596619660995
23402539 116 18060413629914388621
23521765 1 18341894090839345319
28498 318 18341612581513601966
33684 2 18408322176784878042
3545911 37 18040715865759144843
42788 4 18410292510486009341
4463277 17 18410573990206320525
59755656 520 18040430019160419947
8209 1 18410855460133443062

>  <PUBCHEM_SHAPE_MULTIPOLES>  (1) 
280.22
23.51
0.9
0.61
9.63
0.07
0
-0.24
-0.72
-0.53
0
0.02
-0.01
-0.03

>  <PUBCHEM_SHAPE_SELFOVERLAP>  (1) 
499.794

>  <PUBCHEM_SHAPE_VOLUME>  (1) 
182

>  <PUBCHEM_COORDINATE_TYPE>  (1) 
2
5
10

$$$$
