23883
     RDKit          3D

 16 16  0  0  0  0  0  0  0  0999 V2000
   -4.7209   -2.2159    0.5210 Cl  0  0  0  0  0  0  0  0  0  0  0  0
    2.5501   -0.5178   -0.2597 O   0  0  0  0  0  0  0  0  0  0  0  0
    2.8526    1.1413    1.3392 O   0  0  0  0  0  0  0  0  0  0  0  0
    0.7404    2.1267   -0.3557 O   0  0  0  0  0  0  0  0  0  0  0  0
   -0.1235    0.0257    0.3330 N   0  0  0  0  0  0  0  0  0  0  0  0
    3.8578   -1.0436   -0.0164 C   0  0  0  0  0  0  0  0  0  0  0  0
    4.0814   -2.2595   -0.9026 C   0  0  0  0  0  0  0  0  0  0  0  0
    4.8905    0.0431   -0.2738 C   0  0  0  0  0  0  0  0  0  0  0  0
   -1.4941    0.1079    0.0855 C   0  0  0  0  0  0  0  0  0  0  0  0
    2.2168    0.5511    0.4881 C   0  0  0  0  0  0  0  0  0  0  0  0
   -2.3250   -0.9702    0.3907 C   0  0  0  0  0  0  0  0  0  0  0  0
   -2.0336    1.2700   -0.4662 C   0  0  0  0  0  0  0  0  0  0  0  0
    0.8413    0.9973    0.0933 C   0  0  0  0  0  0  0  0  0  0  0  0
   -3.6953   -0.8862    0.1440 C   0  0  0  0  0  0  0  0  0  0  0  0
   -3.4037    1.3541   -0.7128 C   0  0  0  0  0  0  0  0  0  0  0  0
   -4.2346    0.2760   -0.4076 C   0  0  0  0  0  0  0  0  0  0  0  0
  1 14  1  0
  2  6  1  0
  2 10  1  0
  3 10  2  0
  4 13  2  0
  5  9  1  0
  5 13  1  0
  6  7  1  0
  6  8  1  0
  9 11  2  0
  9 12  1  0
 10 13  1  0
 11 14  1  0
 12 15  2  0
 14 16  2  0
 15 16  1  0
M  END
>  <PUBCHEM_COMPOUND_CID>  (1) 
23883

>  <PUBCHEM_CONFORMER_RMSD>  (1) 
0.6

>  <PUBCHEM_CONFORMER_DIVERSEORDER>  (1) 
3
87
79
20
72
53
34
74
40
33
47
70
68
28
52
59
91
18
48
84
62
39
73
58
37
81
41
60
78
32
94
10
80
51
71
57
19
61
92
16
44
38
77
23
88
12
67
27
93
6
46
25
55
17
76
43
90
54
66
9
89
1
8
15
49
82
75
21
11
14
2
83
56
45
64
69
50
13
86
26
85
42
63
65
30
5
31
36
29
24
22
4
7
35

>  <PUBCHEM_MMFF94_PARTIAL_CHARGES>  (1) 
19
1 -0.18
10 0.72
11 -0.15
12 -0.15
13 0.63
14 0.18
15 -0.15
16 -0.15
2 -0.43
24 0.37
25 0.15
26 0.15
27 0.15
28 0.15
3 -0.57
4 -0.57
5 -0.55
6 0.28
9 0.12

>  <PUBCHEM_EFFECTIVE_ROTOR_COUNT>  (1) 
5

>  <PUBCHEM_PHARMACOPHORE_FEATURES>  (1) 
5
1 3 acceptor
1 4 acceptor
1 5 donor
3 6 7 8 hydrophobe
6 9 11 12 14 15 16 rings

>  <PUBCHEM_HEAVY_ATOM_COUNT>  (1) 
16

>  <PUBCHEM_ATOM_DEF_STEREO_COUNT>  (1) 
0

>  <PUBCHEM_ATOM_UDEF_STEREO_COUNT>  (1) 
0

>  <PUBCHEM_BOND_DEF_STEREO_COUNT>  (1) 
0

>  <PUBCHEM_BOND_UDEF_STEREO_COUNT>  (1) 
0

>  <PUBCHEM_ISOTOPIC_ATOM_COUNT>  (1) 
0

>  <PUBCHEM_COMPONENT_COUNT>  (1) 
1

>  <PUBCHEM_CACTVS_TAUTO_COUNT>  (1) 
2

>  <PUBCHEM_CONFORMER_ID>  (1) 
00005D4B00000003

>  <PUBCHEM_MMFF94_ENERGY>  (1) 
36.559

>  <PUBCHEM_FEATURE_SELFOVERLAP>  (1) 
25.374

>  <PUBCHEM_SHAPE_FINGERPRINT>  (1) 
10465860 71 17894638023916348652
10751810 167 17530686489456751689
12032990 46 18410293618540150945
12916754 54 18336830909267261769
13296908 3 18411133640912604656
13675066 3 18271518779899447953
14251710 61 18412267237459006851
14251718 22 18260269680915144796
14252887 29 18341330071861047944
14386348 63 18411982446915074414
14866123 147 17551520937622724587
15196674 1 18410012109193464214
15342816 4 18040714745400486514
17804303 29 18335139804275023125
17834072 33 18187088398789056068
17834074 16 18411136922241413935
17870717 6 18335991856829793807
18186145 218 17603856845497555341
193927 3 17845665754698767654
1986462 14 18260828189872388535
200 152 17632569440589736157
20281475 54 18411145726950595020
20325693 3 17603873265167986663
20374829 77 18335417916239677938
20645477 70 18202278078928207150
20871999 31 18113622270009983940
21065201 7 18260257525835989409
221490 88 18263368143030968163
2215653 11 18341605980602341037
22485316 2 18408321060452064198
22926399 37 12757155670956670679
22943178 12 18339912788266688729
23175994 123 17917992776351337457
23402539 116 17822286865032754948
23403322 49 18410857624913323159
23557571 272 18040711463729215044
23559900 14 18411130329677676144
2871803 45 18337111147182985086
3004659 81 18115027390737794366
4214541 1 18408885118322554997
4990 188 18333731295409191034
5104073 3 18341891874662608272
59755656 215 18187079547431671083
7364860 26 18192996139116311300
77779 3 18409449184814440508
9709674 26 18262236758646359827

>  <PUBCHEM_SHAPE_MULTIPOLES>  (1) 
308.55
10.66
2.09
0.86
2.73
0.6
-0.05
5.28
0.86
-0.46
0.21
0.26
-0.02
1.55

>  <PUBCHEM_SHAPE_SELFOVERLAP>  (1) 
626.052

>  <PUBCHEM_SHAPE_VOLUME>  (1) 
179.6

>  <PUBCHEM_COORDINATE_TYPE>  (1) 
2
5
10

$$$$
