23889
     RDKit          3D

 11 10  0  0  0  0  0  0  0  0999 V2000
   -2.6062    0.0306    0.2327 O   0  0  0  0  0  0  0  0  0  0  0  0
   -5.0294   -1.2078   -0.4184 O   0  0  0  0  0  0  0  0  0  0  0  0
    2.2932   -0.3885    0.1497 C   0  0  0  0  0  0  0  0  0  0  0  0
    1.0989    0.5122   -0.1724 C   0  0  0  0  0  0  0  0  0  0  0  0
    3.6439    0.2438   -0.1984 C   0  0  0  0  0  0  0  0  0  0  0  0
   -0.2189   -0.1567    0.2157 C   0  0  0  0  0  0  0  0  0  0  0  0
    4.8405   -0.6253    0.1911 C   0  0  0  0  0  0  0  0  0  0  0  0
   -1.4165    0.7133   -0.1387 C   0  0  0  0  0  0  0  0  0  0  0  0
    6.1562    0.0768   -0.1092 C   0  0  0  0  0  0  0  0  0  0  0  0
   -3.7643    0.7952   -0.0742 C   0  0  0  0  0  0  0  0  0  0  0  0
   -4.9973    0.0063    0.3221 C   0  0  0  0  0  0  0  0  0  0  0  0
  1  8  1  0
  1 10  1  0
  2 11  1  0
  3  4  1  0
  3  5  1  0
  4  6  1  0
  5  7  1  0
  6  8  1  0
  7  9  1  0
 10 11  1  0
M  END
>  <PUBCHEM_COMPOUND_CID>  (1) 
23889

>  <PUBCHEM_CONFORMER_RMSD>  (1) 
0.8

>  <PUBCHEM_CONFORMER_DIVERSEORDER>  (1) 
1
41
117
11
110
106
49
39
126
128
5
72
19
139
112
137
125
146
12
61
99
74
10
76
116
20
102
134
3
82
104
122
118
121
47
149
98
147
15
52
141
151
40
113
111
148
21
94
140
65
29
27
70
108
6
7
136
62
26
115
135
66
100
4
64
37
46
13
145
114
143
32
79
38
96
92
131
9
50
144
130
86
18
51
56
88
101
75
109
87
44
67
2
84
89
14
59
85
30
132
119
69
80
42
154
91
123
8
43
153
120
57
129
54
83
90
63
53
24
77
55
81
93
48
142
152
124
35
33
68
16
36
31
107
103
23
25
71
138
28
73
133
22
17
45
97
60
78
58
127
34
150
105
95

>  <PUBCHEM_MMFF94_PARTIAL_CHARGES>  (1) 
6
1 -0.56
10 0.28
11 0.28
2 -0.68
31 0.4
8 0.28

>  <PUBCHEM_EFFECTIVE_ROTOR_COUNT>  (1) 
8

>  <PUBCHEM_PHARMACOPHORE_FEATURES>  (1) 
5
1 1 acceptor
1 2 acceptor
1 2 donor
1 9 hydrophobe
5 3 4 5 6 7 hydrophobe

>  <PUBCHEM_HEAVY_ATOM_COUNT>  (1) 
11

>  <PUBCHEM_ATOM_DEF_STEREO_COUNT>  (1) 
0

>  <PUBCHEM_ATOM_UDEF_STEREO_COUNT>  (1) 
0

>  <PUBCHEM_BOND_DEF_STEREO_COUNT>  (1) 
0

>  <PUBCHEM_BOND_UDEF_STEREO_COUNT>  (1) 
0

>  <PUBCHEM_ISOTOPIC_ATOM_COUNT>  (1) 
0

>  <PUBCHEM_COMPONENT_COUNT>  (1) 
1

>  <PUBCHEM_CACTVS_TAUTO_COUNT>  (1) 
1

>  <PUBCHEM_CONFORMER_ID>  (1) 
00005D5100000001

>  <PUBCHEM_MMFF94_ENERGY>  (1) 
4.1987

>  <PUBCHEM_FEATURE_SELFOVERLAP>  (1) 
25.375

>  <PUBCHEM_SHAPE_FINGERPRINT>  (1) 
11287383 113 18131631209879763824
114248 4 18409449180772518416
12091667 2 18040155102181408545
12815109 37 13479134596931517110
14123238 8 18260548918118935588
1420 363 17346321500855972438
14251718 22 18410012143589729586
14251732 16 18200308948160563040
15242439 84 14056723452275565148
17834072 33 18410575115060328444
17834076 25 9511460021976880737
18342897 14 9871747992261543942
187816 3 16153429441291398881
20645477 70 18263643975170374650
20719005 15 18408041805899534072
20767249 13 17748827410416784496
22896161 15 18340205297109094326
23218964 4 8502658103909086664
23402539 116 18333446530424351765
366044 4 17749109989231999090
42788 4 18408323276771246440
57483677 66 18412260614772508190
7062679 117 18335703875062168203
8209 1 18186802473941240381

>  <PUBCHEM_SHAPE_MULTIPOLES>  (1) 
214.64
14.48
0.89
0.64
3.47
0.06
0
2.09
0.3
-0.54
0.06
-0.05
0.01
-0.27

>  <PUBCHEM_SHAPE_SELFOVERLAP>  (1) 
378.971

>  <PUBCHEM_SHAPE_VOLUME>  (1) 
140.8

>  <PUBCHEM_COORDINATE_TYPE>  (1) 
2
5
10

$$$$
