23897
     RDKit          3D

 20 22  0  0  1  0  0  0  0  0999 V2000
   -5.7218    0.0494   -0.6180 O   0  0  0  0  0  0  0  0  0  0  0  0
    0.7435   -2.0572    0.2191 O   0  0  0  0  0  0  0  0  0  0  0  0
   -3.0552   -0.1413    0.3586 N   0  0  0  0  0  0  0  0  0  0  0  0
    3.0969    1.8472   -0.0017 N   0  0  0  0  0  0  0  0  0  0  0  0
   -0.6434   -0.0789   -0.0664 C   0  0  0  0  0  0  0  0  0  0  0  0
   -0.5766    1.3480    0.5269 C   0  0  0  0  0  0  0  0  0  0  0  0
   -1.7972   -0.8572    0.5603 C   0  0  0  0  0  0  0  0  0  0  0  0
    0.5864    2.1697   -0.0538 C   0  0  0  0  0  0  0  0  0  0  0  0
    1.8918   -0.0228    0.0871 C   0  0  0  0  0  0  0  0  0  0  0  0
    1.8229    1.3518    0.0082 C   0  0  0  0  0  0  0  0  0  0  0  0
    0.6889   -0.8352    0.1150 C   0  0  0  0  0  0  0  0  0  0  0  0
    3.2624   -0.3720    0.1372 C   0  0  0  0  0  0  0  0  0  0  0  0
   -3.3393    0.0209   -1.0739 C   0  0  0  0  0  0  0  0  0  0  0  0
   -4.1663   -0.8434    1.0159 C   0  0  0  0  0  0  0  0  0  0  0  0
    3.9844    0.8026    0.0787 C   0  0  0  0  0  0  0  0  0  0  0  0
   -4.6617    0.7598   -1.2588 C   0  0  0  0  0  0  0  0  0  0  0  0
   -5.4696   -0.0852    0.7812 C   0  0  0  0  0  0  0  0  0  0  0  0
    3.8280   -1.7337    0.2312 C   0  0  0  0  0  0  0  0  0  0  0  0
    5.4405    1.0442    0.0928 C   0  0  0  0  0  0  0  0  0  0  0  0
    4.0855   -2.3666   -1.1399 C   0  0  0  0  0  0  0  0  0  0  0  0
  1 16  1  0
  1 17  1  0
  2 11  2  0
  3  7  1  0
  3 13  1  0
  3 14  1  0
  4 10  1  0
  4 15  1  0
  5  6  1  0
  5  7  1  0
  5 11  1  0
  6  8  1  0
  8 10  1  0
  9 10  2  0
  9 11  1  0
  9 12  1  0
 12 15  2  0
 12 18  1  0
 13 16  1  0
 14 17  1  0
 15 19  1  0
 18 20  1  0
M  END
>  <PUBCHEM_COMPOUND_CID>  (1) 
23897

>  <PUBCHEM_CONFORMER_RMSD>  (1) 
0.6

>  <PUBCHEM_CONFORMER_DIVERSEORDER>  (1) 
1
26
9
3
10
18
15
2
14
5
25
7
12
21
13
23
6
24
11
8
17
4
22
20
19
16

>  <PUBCHEM_MMFF94_PARTIAL_CHARGES>  (1) 
19
1 -0.56
10 -0.33
11 0.6
12 -0.18
13 0.27
14 0.27
15 -0.33
16 0.28
17 0.28
18 0.18
19 0.18
2 -0.57
3 -0.81
32 0.27
4 0.03
5 0.06
7 0.27
8 0.18
9 -0.09

>  <PUBCHEM_EFFECTIVE_ROTOR_COUNT>  (1) 
4.8

>  <PUBCHEM_PHARMACOPHORE_FEATURES>  (1) 
9
1 1 acceptor
1 2 acceptor
1 20 hydrophobe
1 3 cation
1 4 cation
1 4 donor
5 4 9 10 12 15 rings
6 1 3 13 14 16 17 rings
6 5 6 8 9 10 11 rings

>  <PUBCHEM_HEAVY_ATOM_COUNT>  (1) 
20

>  <PUBCHEM_ATOM_DEF_STEREO_COUNT>  (1) 
0

>  <PUBCHEM_ATOM_UDEF_STEREO_COUNT>  (1) 
1

>  <PUBCHEM_BOND_DEF_STEREO_COUNT>  (1) 
0

>  <PUBCHEM_BOND_UDEF_STEREO_COUNT>  (1) 
0

>  <PUBCHEM_ISOTOPIC_ATOM_COUNT>  (1) 
0

>  <PUBCHEM_COMPONENT_COUNT>  (1) 
1

>  <PUBCHEM_CACTVS_TAUTO_COUNT>  (1) 
5

>  <PUBCHEM_CONFORMER_ID>  (1) 
00005D5900000001

>  <PUBCHEM_MMFF94_ENERGY>  (1) 
25.9508

>  <PUBCHEM_FEATURE_SELFOVERLAP>  (1) 
45.756

>  <PUBCHEM_SHAPE_FINGERPRINT>  (1) 
10906281 52 18264220256649301448
11089746 13 17346317145959835024
11471102 20 18410291414973910800
11578080 2 13263837073397685996
12011746 2 18411425025122626844
12236239 1 17632579349026527491
12403259 415 18040436568768508423
12916748 109 16732984215257631205
13134695 92 18131346431910282945
13140716 1 18051127292525220544
13533116 47 17846499201492154170
13675066 3 18187085091606040203
13760787 5 18202001014766702215
14341114 176 18335710433719426219
14573314 32 18040715844584807109
15081414 286 18410862070420999148
15196674 1 18339081492903926497
15788980 27 18410289216399145687
15848702 151 18059298651656069279
16945 1 18339931519288953512
17349148 13 17775573026536124619
17844677 252 17458068170564742005
18186145 218 18040716952696905803
200 152 18131066031028369321
20645477 70 18412262813827405846
21033648 29 18187350057034946269
21033650 10 16009878199796406916
21267235 1 18411426073195003626
21279426 13 18264205812220513629
21285901 2 18261672584732637684
221357 26 18336818724434909493
22182313 1 18262503811318147428
23175994 123 18408045100498438613
23402539 116 18202279246921856668
23402655 69 18341891909011841805
23557571 272 17458059370018497085
23559900 14 18408324389136244770
239999 70 18333453136464003842
2871803 45 18335139748350621594
29717793 49 17917428679609577279
3004659 81 18040997307104078442
335352 9 18410293649290620588
33824 294 18409446986403108314
34934 24 18340199799878094050
3545911 37 18409732897447838074
4072396 5 18262783125857327272
42630746 31 18413107260554043106
4340502 62 16732978743680176384
5104073 3 18339079285264395904
5281201 14 18113056034506990197
542803 24 17418378004019634465
59755656 215 18409451371738725934
633830 44 17967524697087553063
7164475 11 17916311541452232544
7495541 125 16009037223640708173

>  <PUBCHEM_SHAPE_MULTIPOLES>  (1) 
389.89
12.07
2.03
0.96
8.63
0.23
-0.16
0.73
-0.99
-2.67
-0.17
0.85
0.15
0.97

>  <PUBCHEM_SHAPE_SELFOVERLAP>  (1) 
821.729

>  <PUBCHEM_SHAPE_VOLUME>  (1) 
219.4

>  <PUBCHEM_COORDINATE_TYPE>  (1) 
2
5
10

$$$$
