23898
     RDKit          3D

  7  6  0  0  0  0  0  0  0  0999 V2000
   -2.0297   -0.7772   -0.0003 O   0  0  0  0  0  0  0  0  0  0  0  0
    2.4307    0.3531    0.0000 O   0  0  0  0  0  0  0  0  0  0  0  0
    0.2354   -0.2764   -0.0001 N   0  0  0  0  0  0  0  0  0  0  0  0
    1.2745    0.7894   -0.0005 N   0  0  0  0  0  0  0  0  0  0  0  0
   -1.1176    0.0531   -0.0005 C   0  0  0  0  0  0  0  0  0  0  0  0
    0.6584   -1.6698    0.0006 C   0  0  0  0  0  0  0  0  0  0  0  0
   -1.4517    1.5277    0.0007 C   0  0  0  0  0  0  0  0  0  0  0  0
  1  5  2  0
  2  4  2  0
  3  4  1  0
  3  5  1  0
  3  6  1  0
  5  7  1  0
M  END
>  <PUBCHEM_COMPOUND_CID>  (1) 
23898

>  <PUBCHEM_CONFORMER_RMSD>  (1) 
0.4

>  <PUBCHEM_CONFORMER_DIVERSEORDER>  (1) 
1
3
6
5
4
7
2
8

>  <PUBCHEM_MMFF94_PARTIAL_CHARGES>  (1) 
7
1 -0.57
2 -0.16
3 -0.18
4 -0.02
5 0.57
6 0.3
7 0.06

>  <PUBCHEM_EFFECTIVE_ROTOR_COUNT>  (1) 
2

>  <PUBCHEM_PHARMACOPHORE_FEATURES>  (1) 
1
1 1 acceptor

>  <PUBCHEM_HEAVY_ATOM_COUNT>  (1) 
7

>  <PUBCHEM_ATOM_DEF_STEREO_COUNT>  (1) 
0

>  <PUBCHEM_ATOM_UDEF_STEREO_COUNT>  (1) 
0

>  <PUBCHEM_BOND_DEF_STEREO_COUNT>  (1) 
0

>  <PUBCHEM_BOND_UDEF_STEREO_COUNT>  (1) 
0

>  <PUBCHEM_ISOTOPIC_ATOM_COUNT>  (1) 
0

>  <PUBCHEM_COMPONENT_COUNT>  (1) 
1

>  <PUBCHEM_CACTVS_TAUTO_COUNT>  (1) 
1

>  <PUBCHEM_CONFORMER_ID>  (1) 
00005D5A00000001

>  <PUBCHEM_MMFF94_ENERGY>  (1) 
11.7604

>  <PUBCHEM_FEATURE_SELFOVERLAP>  (1) 
5.074

>  <PUBCHEM_SHAPE_FINGERPRINT>  (1) 
16714656 1 18267306610782422598
20096714 4 18194684769779645113
21040471 1 18194402195249238565
23552423 10 18261961738857775822
24536 1 18194666099619989499
29004967 10 18262247728087610443
5460574 1 9222964663760264800

>  <PUBCHEM_SHAPE_MULTIPOLES>  (1) 
122.36
2.63
1.58
0.56
0.47
0.23
0
-0.56
0
-0.03
0
-0.03
0.01
0

>  <PUBCHEM_SHAPE_SELFOVERLAP>  (1) 
220.019

>  <PUBCHEM_SHAPE_VOLUME>  (1) 
79.4

>  <PUBCHEM_COORDINATE_TYPE>  (1) 
2
5
10

$$$$
