23904
     RDKit          3D

 24 24  0  0  1  0  0  0  0  0999 V2000
   -5.0339    2.9237   -0.0292 Cl  0  0  0  0  0  0  0  0  0  0  0  0
   -0.0340   -5.8002   -0.0390 Cl  0  0  0  0  0  0  0  0  0  0  0  0
    5.0967    2.8355   -0.0064 Cl  0  0  0  0  0  0  0  0  0  0  0  0
   -2.8989    1.1460   -1.4000 O   0  0  0  0  0  0  0  0  0  0  0  0
    0.3916   -3.0606   -1.4208 O   0  0  0  0  0  0  0  0  0  0  0  0
    2.5035    1.8949   -1.4162 O   0  0  0  0  0  0  0  0  0  0  0  0
   -2.5735   -0.7340    0.8335 O   0  0  0  0  0  0  0  0  0  0  0  0
    0.6383    2.6164    0.7290 O   0  0  0  0  0  0  0  0  0  0  0  0
    1.9338   -1.8427    0.7428 O   0  0  0  0  0  0  0  0  0  0  0  0
   -0.9863    0.9618    0.7353 N   0  0  0  0  0  0  0  0  0  0  0  0
   -0.3304   -1.3152    0.7434 N   0  0  0  0  0  0  0  0  0  0  0  0
    1.3135    0.3916    0.7228 N   0  0  0  0  0  0  0  0  0  0  0  0
   -2.0379    1.9747    0.7030 C   0  0  0  0  0  0  0  0  0  0  0  0
   -0.6833   -2.7322    0.7208 C   0  0  0  0  0  0  0  0  0  0  0  0
    2.7241    0.7706    0.7139 C   0  0  0  0  0  0  0  0  0  0  0  0
   -1.3901   -0.3858    0.7727 C   0  0  0  0  0  0  0  0  0  0  0  0
    0.3485    1.4158    0.7266 C   0  0  0  0  0  0  0  0  0  0  0  0
    1.0390   -0.9913    0.7341 C   0  0  0  0  0  0  0  0  0  0  0  0
   -2.4319    2.3179   -0.7326 C   0  0  0  0  0  0  0  0  0  0  0  0
   -0.8331   -3.2426   -0.7112 C   0  0  0  0  0  0  0  0  0  0  0  0
    3.2523    0.9041   -0.7133 C   0  0  0  0  0  0  0  0  0  0  0  0
   -3.5115    3.3955   -0.8288 C   0  0  0  0  0  0  0  0  0  0  0  0
   -1.2303   -4.7162   -0.7961 C   0  0  0  0  0  0  0  0  0  0  0  0
    4.7340    1.2725   -0.7842 C   0  0  0  0  0  0  0  0  0  0  0  0
  1 22  1  0
  2 23  1  0
  3 24  1  0
  4 19  1  0
  5 20  1  0
  6 21  1  0
  7 16  2  0
  8 17  2  0
  9 18  2  0
 10 13  1  0
 10 16  1  0
 10 17  1  0
 11 14  1  0
 11 16  1  0
 11 18  1  0
 12 15  1  0
 12 17  1  0
 12 18  1  0
 13 19  1  0
 14 20  1  0
 15 21  1  0
 19 22  1  0
 20 23  1  0
 21 24  1  0
M  END
>  <PUBCHEM_COMPOUND_CID>  (1) 
23904

>  <PUBCHEM_CONFORMER_RMSD>  (1) 
1

>  <PUBCHEM_CONFORMER_DIVERSEORDER>  (1) 
1
62
53
41
51
68
28
72
56
64
54
43
48
71
17
61
29
15
16
37
23
63
73
45
55
19
21
75
24
67
74
42
14
33
52
44
65
47
69
25
35
31
70
49
34
32
50
39
22
46
60
6
40
59
27
58
8
66
3
36
20
38
12
9
10
7
57
13
5
11
30
18
2
4
26

>  <PUBCHEM_MMFF94_PARTIAL_CHARGES>  (1) 
27
1 -0.29
10 -0.42
11 -0.42
12 -0.42
13 0.3
14 0.3
15 0.3
16 0.69
17 0.69
18 0.69
19 0.28
2 -0.29
20 0.28
21 0.28
22 0.29
23 0.29
24 0.29
3 -0.29
4 -0.68
40 0.4
41 0.4
42 0.4
5 -0.68
6 -0.68
7 -0.57
8 -0.57
9 -0.57

>  <PUBCHEM_EFFECTIVE_ROTOR_COUNT>  (1) 
9

>  <PUBCHEM_PHARMACOPHORE_FEATURES>  (1) 
10
1 4 acceptor
1 4 donor
1 5 acceptor
1 5 donor
1 6 acceptor
1 6 donor
1 7 acceptor
1 8 acceptor
1 9 acceptor
6 10 11 12 16 17 18 rings

>  <PUBCHEM_HEAVY_ATOM_COUNT>  (1) 
24

>  <PUBCHEM_ATOM_DEF_STEREO_COUNT>  (1) 
0

>  <PUBCHEM_ATOM_UDEF_STEREO_COUNT>  (1) 
3

>  <PUBCHEM_BOND_DEF_STEREO_COUNT>  (1) 
0

>  <PUBCHEM_BOND_UDEF_STEREO_COUNT>  (1) 
0

>  <PUBCHEM_ISOTOPIC_ATOM_COUNT>  (1) 
0

>  <PUBCHEM_COMPONENT_COUNT>  (1) 
1

>  <PUBCHEM_CACTVS_TAUTO_COUNT>  (1) 
1

>  <PUBCHEM_CONFORMER_ID>  (1) 
00005D6000000001

>  <PUBCHEM_MMFF94_ENERGY>  (1) 
33.0113

>  <PUBCHEM_FEATURE_SELFOVERLAP>  (1) 
50.755

>  <PUBCHEM_SHAPE_FINGERPRINT>  (1) 
10411042 1 17473544032996486610
11045515 52 17543346515473798910
11488393 25 18048893896345673107
12788726 201 18045768242064093194
13140716 1 18266180526165606704
13899415 180 17332230404890345190
14508225 48 17619344754874488214
14863182 85 18054210043112383936
16945 1 18266170810949608888
17539 30 18124030397412929404
1813 80 17331119910825659658
21304303 282 18123156195680210868
21344244 181 18131082501716338207
23114952 82 17830175701621483781
2334 1 18410575058893275680
23402539 116 17907018731567785376
23559900 14 17977379439038758138
23598288 3 18261386806230429370
2748010 2 18338524031865683042
394222 165 18041835095830041864
4409770 3 18338797943521120550
46194498 28 17539108581571048621
59554788 191 18192423082867355450
81228 2 17762337324240215066

>  <PUBCHEM_SHAPE_MULTIPOLES>  (1) 
449.36
7.23
7.09
1.2
2.97
12.27
0.21
-12.37
1.78
-2.85
1.77
-0.03
0
0.03

>  <PUBCHEM_SHAPE_SELFOVERLAP>  (1) 
874.782

>  <PUBCHEM_SHAPE_VOLUME>  (1) 
270.4

>  <PUBCHEM_COORDINATE_TYPE>  (1) 
2
5
10

$$$$
