23906
     RDKit          3D

 18 17  0  0  1  0  0  0  0  0999 V2000
    0.7977   -1.3042   -0.6103 O   0  0  0  0  0  0  0  0  0  0  0  0
    1.8649   -1.1139    1.4243 O   0  0  0  0  0  0  0  0  0  0  0  0
   -1.3478   -1.4815    0.5303 C   0  0  0  0  0  0  0  0  0  0  0  0
   -1.9113   -0.5306   -0.5467 C   0  0  0  0  0  0  0  0  0  0  0  0
    2.6779    0.1476   -0.4733 C   0  0  0  0  0  0  0  0  0  0  0  0
   -0.1308   -2.2302   -0.0376 C   0  0  0  0  0  0  0  0  0  0  0  0
   -2.3963   -2.4395    1.1390 C   0  0  0  0  0  0  0  0  0  0  0  0
   -3.0376    0.3745   -0.0372 C   0  0  0  0  0  0  0  0  0  0  0  0
    2.6025    1.5523    0.1522 C   0  0  0  0  0  0  0  0  0  0  0  0
    4.1262   -0.3706   -0.4690 C   0  0  0  0  0  0  0  0  0  0  0  0
    1.1976    2.1601    0.0709 C   0  0  0  0  0  0  0  0  0  0  0  0
    1.7484   -0.8224    0.2398 C   0  0  0  0  0  0  0  0  0  0  0  0
   -3.6010    1.3017   -1.1177 C   0  0  0  0  0  0  0  0  0  0  0  0
   -3.0455   -3.3998    0.1516 C   0  0  0  0  0  0  0  0  0  0  0  0
    1.1642    3.5614    0.6819 C   0  0  0  0  0  0  0  0  0  0  0  0
    4.2636   -1.7435   -1.1145 C   0  0  0  0  0  0  0  0  0  0  0  0
   -4.7371    2.1848   -0.6248 C   0  0  0  0  0  0  0  0  0  0  0  0
   -0.2355    4.1538    0.6409 C   0  0  0  0  0  0  0  0  0  0  0  0
  1  6  1  0
  1 12  1  0
  2 12  2  0
  3  4  1  0
  3  6  1  0
  3  7  1  0
  4  8  1  0
  5  9  1  0
  5 10  1  0
  5 12  1  0
  7 14  1  0
  8 13  1  0
  9 11  1  0
 10 16  1  0
 11 15  1  0
 13 17  1  0
 15 18  1  0
M  END
>  <PUBCHEM_COMPOUND_CID>  (1) 
23906

>  <PUBCHEM_CONFORMER_RMSD>  (1) 
1.2

>  <PUBCHEM_CONFORMER_DIVERSEORDER>  (1) 
3
202
775
302
583
110
13
277
5
229
803
636
80
799
477
40
630
43
60
571
668
322
236
274
23
736
353
298
754
15
339
645
462
432
788
111
16
442
380
707
403
758
149
408
181
29
764
261
187
19
603
355
787
301
378
299
455
547
574
44
85
320
126
704
24
55
51
92
222
669
199
641
794
21
18
598
779
75
120
632
327
654
11
664
68
706
33
69
762
332
539
362
27
50
7
151
163
520
105
90
809
38
683
713
394
130
438
147
179
9
573
312
200
52
1
195
711
453
114
250
198
447
724
626
39
717
564
584
624
59
63
10
387
2
164
138
6
480
257
112
793
215
451
47
336
226
494
466
165
545
471
4
14

>  <PUBCHEM_MMFF94_PARTIAL_CHARGES>  (1) 
5
1 -0.43
12 0.66
2 -0.57
5 0.06
6 0.28

>  <PUBCHEM_EFFECTIVE_ROTOR_COUNT>  (1) 
12

>  <PUBCHEM_PHARMACOPHORE_FEATURES>  (1) 
7
1 14 hydrophobe
1 16 hydrophobe
1 17 hydrophobe
1 18 hydrophobe
1 2 acceptor
5 3 4 7 8 13 hydrophobe
5 5 9 10 11 15 hydrophobe

>  <PUBCHEM_HEAVY_ATOM_COUNT>  (1) 
18

>  <PUBCHEM_ATOM_DEF_STEREO_COUNT>  (1) 
0

>  <PUBCHEM_ATOM_UDEF_STEREO_COUNT>  (1) 
2

>  <PUBCHEM_BOND_DEF_STEREO_COUNT>  (1) 
0

>  <PUBCHEM_BOND_UDEF_STEREO_COUNT>  (1) 
0

>  <PUBCHEM_ISOTOPIC_ATOM_COUNT>  (1) 
0

>  <PUBCHEM_COMPONENT_COUNT>  (1) 
1

>  <PUBCHEM_CACTVS_TAUTO_COUNT>  (1) 
1

>  <PUBCHEM_CONFORMER_ID>  (1) 
00005D6200000003

>  <PUBCHEM_MMFF94_ENERGY>  (1) 
10.1521

>  <PUBCHEM_FEATURE_SELFOVERLAP>  (1) 
35.528

>  <PUBCHEM_SHAPE_FINGERPRINT>  (1) 
10366900 7 17754460380248046082
104564 63 18053102826609067460
116883 192 18127421055698675102
12293681 4 18340773624240290126
12403259 226 18265055919165699999
12769317 202 17901366928232007693
12788726 201 18125158238993454792
14251757 5 18265348230613657932
15238133 3 18115859724912449392
15806764 133 18269011906056937615
17041 50 18412267250602326142
18219364 16 18336559243726920961
19930381 70 17402890519596414233
20233049 118 18334575703127935436
20304884 271 18409160043700882151
20600515 1 18267277912112138448
20681677 76 18266454502324876079
21285901 2 17629768877015226116
21524375 3 18114736020019179831
21618674 68 17834393806108803775
22182937 141 18410577301551999529
23558518 356 18043247053522372015
238 59 17767095955063301781
3084891 72 18266737974429938582
31174 14 17978802524986870674
5939293 188 18340474621375950424
6438718 38 17630329631818819780
7364860 26 17909276020159816302
7832392 63 18411130350920014182
9709674 26 18267578186271076773

>  <PUBCHEM_SHAPE_MULTIPOLES>  (1) 
358.69
7.67
4.88
1.06
1.07
3.49
-0.05
-0.64
2.57
2.19
-1.23
0.05
-0.12
1.82

>  <PUBCHEM_SHAPE_SELFOVERLAP>  (1) 
661.611

>  <PUBCHEM_SHAPE_VOLUME>  (1) 
226.9

>  <PUBCHEM_COORDINATE_TYPE>  (1) 
2
5
10

$$$$
