23902
     RDKit          3D

 10  9  0  0  0  0  0  0  0  0999 V2000
    0.0032   -0.1326   -0.2088 N   0  0  0  0  0  0  0  0  0  0  0  0
   -0.0133   -1.4125    0.4451 N   0  0  0  0  0  0  0  0  0  0  0  0
    1.2051    0.5903    0.1895 C   0  0  0  0  0  0  0  0  0  0  0  0
   -1.2028    0.5927    0.1897 C   0  0  0  0  0  0  0  0  0  0  0  0
    2.4536   -0.1814   -0.2345 C   0  0  0  0  0  0  0  0  0  0  0  0
   -2.4509   -0.1791   -0.2355 C   0  0  0  0  0  0  0  0  0  0  0  0
    3.7269    0.5704    0.1551 C   0  0  0  0  0  0  0  0  0  0  0  0
   -3.7245    0.5520    0.1909 C   0  0  0  0  0  0  0  0  0  0  0  0
    4.9743   -0.2079   -0.2319 C   0  0  0  0  0  0  0  0  0  0  0  0
   -4.9716   -0.1918   -0.2597 C   0  0  0  0  0  0  0  0  0  0  0  0
  1  2  1  0
  1  3  1  0
  1  4  1  0
  3  5  1  0
  4  6  1  0
  5  7  1  0
  6  8  1  0
  7  9  1  0
  8 10  1  0
M  END
>  <PUBCHEM_COMPOUND_CID>  (1) 
23902

>  <PUBCHEM_CONFORMER_RMSD>  (1) 
0.6

>  <PUBCHEM_CONFORMER_DIVERSEORDER>  (1) 
1
69
46
89
102
2
34
95
82
71
96
7
57
101
6
66
92
62
9
56
94
30
14
29
100
64
55
50
91
3
58
19
32
99
67
63
21
88
41
52
98
83
53
80
13
33
97
16
54
72
90
23
68
43
65
10
5
51
11
17
28
84
59
18
39
93
22
27
48
35
60
87
61
12
86
24
42
38
25
4
47
70
31
76
75
81
40
15
85
77
49
74
44
79
78
8
73
37
26
36
45
20

>  <PUBCHEM_MMFF94_PARTIAL_CHARGES>  (1) 
6
1 -0.54
2 -0.72
29 0.36
3 0.27
30 0.36
4 0.27

>  <PUBCHEM_EFFECTIVE_ROTOR_COUNT>  (1) 
6

>  <PUBCHEM_PHARMACOPHORE_FEATURES>  (1) 
3
1 10 hydrophobe
1 2 donor
1 9 hydrophobe

>  <PUBCHEM_HEAVY_ATOM_COUNT>  (1) 
10

>  <PUBCHEM_ATOM_DEF_STEREO_COUNT>  (1) 
0

>  <PUBCHEM_ATOM_UDEF_STEREO_COUNT>  (1) 
0

>  <PUBCHEM_BOND_DEF_STEREO_COUNT>  (1) 
0

>  <PUBCHEM_BOND_UDEF_STEREO_COUNT>  (1) 
0

>  <PUBCHEM_ISOTOPIC_ATOM_COUNT>  (1) 
0

>  <PUBCHEM_COMPONENT_COUNT>  (1) 
1

>  <PUBCHEM_CACTVS_TAUTO_COUNT>  (1) 
1

>  <PUBCHEM_CONFORMER_ID>  (1) 
00005D5E00000001

>  <PUBCHEM_MMFF94_ENERGY>  (1) 
1.4564

>  <PUBCHEM_FEATURE_SELFOVERLAP>  (1) 
15.223

>  <PUBCHEM_SHAPE_FINGERPRINT>  (1) 
11062470 55 13614522960911883108
114248 4 16988842791196196557
12815109 37 10303814276335556715
13690532 89 18408604747326259362
14123238 8 17275103937769844245
14325111 11 18410292501584825408
17834076 25 13334735730576623445
187816 3 18130791161225855496
20645477 70 18059298652146829406
20719005 15 18202283606287177812
20767249 13 11600005440276355316
20828058 44 11097861791301611681
21119208 17 17203609289321818029
21293036 1 18410292514490917232
22485316 2 9511463311911572308
23402539 116 17489864925858717261
23402655 69 18340761547335663741
366044 4 18408040719162389330
42788 4 18411700984570077525

>  <PUBCHEM_SHAPE_MULTIPOLES>  (1) 
195.83
10.28
0.91
0.66
0.03
0.13
0
-0.13
0.97
0.01
-0.1
-0.01
0.02
-0.01

>  <PUBCHEM_SHAPE_SELFOVERLAP>  (1) 
344.752

>  <PUBCHEM_SHAPE_VOLUME>  (1) 
129.6

>  <PUBCHEM_COORDINATE_TYPE>  (1) 
2
5
10

$$$$
