23914
     RDKit          3D

 20 22  0  0  0  0  0  0  0  0999 V2000
   -0.1700    1.7240   -1.0702 O   0  0  0  0  0  0  0  0  0  0  0  0
    0.2962   -0.4156   -0.2020 N   0  0  0  0  0  0  0  0  0  0  0  0
   -1.5108   -1.7681    0.5504 N   0  0  0  0  0  0  0  0  0  0  0  0
    1.7141   -0.2128   -0.3195 C   0  0  0  0  0  0  0  0  0  0  0  0
    2.4390    0.3349    0.7328 C   0  0  0  0  0  0  0  0  0  0  0  0
   -0.2446   -1.5883    0.3306 C   0  0  0  0  0  0  0  0  0  0  0  0
   -0.5390    0.6463   -0.6094 C   0  0  0  0  0  0  0  0  0  0  0  0
   -1.9857    0.4372   -0.3900 C   0  0  0  0  0  0  0  0  0  0  0  0
    1.7782    0.7297    2.0137 C   0  0  0  0  0  0  0  0  0  0  0  0
   -2.4073   -0.7524    0.2038 C   0  0  0  0  0  0  0  0  0  0  0  0
    2.3467   -0.5741   -1.5039 C   0  0  0  0  0  0  0  0  0  0  0  0
    3.8146    0.5238    0.5991 C   0  0  0  0  0  0  0  0  0  0  0  0
    0.6515   -2.7718    0.6335 C   0  0  0  0  0  0  0  0  0  0  0  0
   -2.9115    1.4245   -0.7478 C   0  0  0  0  0  0  0  0  0  0  0  0
    3.7223   -0.3853   -1.6374 C   0  0  0  0  0  0  0  0  0  0  0  0
    4.4561    0.1637   -0.5861 C   0  0  0  0  0  0  0  0  0  0  0  0
    1.2949    2.1764    1.9923 C   0  0  0  0  0  0  0  0  0  0  0  0
   -3.7738   -0.9460    0.4373 C   0  0  0  0  0  0  0  0  0  0  0  0
   -4.2697    1.2189   -0.5103 C   0  0  0  0  0  0  0  0  0  0  0  0
   -4.7012    0.0349    0.0830 C   0  0  0  0  0  0  0  0  0  0  0  0
  1  7  2  0
  2  4  1  0
  2  6  1  0
  2  7  1  0
  3  6  2  0
  3 10  1  0
  4  5  2  0
  4 11  1  0
  5  9  1  0
  5 12  1  0
  6 13  1  0
  7  8  1  0
  8 10  2  0
  8 14  1  0
  9 17  1  0
 10 18  1  0
 11 15  2  0
 12 16  2  0
 14 19  2  0
 15 16  1  0
 18 20  2  0
 19 20  1  0
M  END
>  <PUBCHEM_COMPOUND_CID>  (1) 
23914

>  <PUBCHEM_CONFORMER_RMSD>  (1) 
0.6

>  <PUBCHEM_CONFORMER_DIVERSEORDER>  (1) 
1
2

>  <PUBCHEM_MMFF94_PARTIAL_CHARGES>  (1) 
27
1 -0.57
10 0.18
11 -0.15
12 -0.15
13 0.06
14 -0.15
15 -0.15
16 -0.15
18 -0.15
19 -0.15
2 -0.24
20 -0.15
23 0.15
24 0.15
28 0.15
29 0.15
3 -0.63
30 0.15
34 0.15
35 0.15
36 0.15
4 0.12
5 -0.14
6 0.45
7 0.54
8 0.09
9 0.14

>  <PUBCHEM_EFFECTIVE_ROTOR_COUNT>  (1) 
2

>  <PUBCHEM_PHARMACOPHORE_FEATURES>  (1) 
5
1 1 acceptor
1 17 hydrophobe
6 2 3 6 7 8 10 rings
6 4 5 11 12 15 16 rings
6 8 10 14 18 19 20 rings

>  <PUBCHEM_HEAVY_ATOM_COUNT>  (1) 
20

>  <PUBCHEM_ATOM_DEF_STEREO_COUNT>  (1) 
0

>  <PUBCHEM_ATOM_UDEF_STEREO_COUNT>  (1) 
0

>  <PUBCHEM_BOND_DEF_STEREO_COUNT>  (1) 
0

>  <PUBCHEM_BOND_UDEF_STEREO_COUNT>  (1) 
0

>  <PUBCHEM_ISOTOPIC_ATOM_COUNT>  (1) 
0

>  <PUBCHEM_COMPONENT_COUNT>  (1) 
1

>  <PUBCHEM_CACTVS_TAUTO_COUNT>  (1) 
1

>  <PUBCHEM_CONFORMER_ID>  (1) 
00005D6A00000001

>  <PUBCHEM_MMFF94_ENERGY>  (1) 
81.3621

>  <PUBCHEM_FEATURE_SELFOVERLAP>  (1) 
25.4

>  <PUBCHEM_SHAPE_FINGERPRINT>  (1) 
10366900 7 18411411805092015921
10498660 4 18260545589456393821
11132069 177 18114183021182762455
11471102 20 17275103942497347600
12236239 1 16877663478710595974
12403814 3 16515401863774463119
12670546 56 15285348510250986125
13134695 92 16630808815881067760
13140716 1 17972048191330538443
13538477 17 17168427180791676786
13760787 19 16081091502227471795
14341114 328 16225770717834714697
15536298 74 18263083219317383799
15848702 151 16988850462150231693
1601671 61 18041279877002167701
16752209 62 17968365849368825291
16945 1 18260265278716338031
17138139 8 15649871988378562739
17349148 13 17896020174942425007
17357779 13 17632296739883571584
17804303 29 18337111258577555305
18186145 218 18060416919801418883
200 152 15841556257954193294
20028762 73 18122918778996227779
20510252 161 18409733941246619401
20645477 70 17346326964223438494
21033648 29 18202273706899588809
21503847 285 17632580427058343417
221357 26 17775003449617393113
23175994 123 17846230955325672096
23402539 116 18408320003916568110
23493267 7 17386017168990188699
23526113 38 18201726119790691310
23558518 356 17768506632602599446
23559900 14 18410302389475436070
2748010 2 17901112137707537535
298252 57 17676785235522640626
350125 39 17827356579292456414
3524813 1 18341607118484175273
4409770 3 14863674492234591562
474 4 15337686444997031418
4990 188 18130791139661582198
5104073 3 18042973060990647497
53812653 166 18410569574525973891
633830 44 18201429290300895573
7364860 26 18194394490078364331
77492 1 16805320024434231694
81228 2 17831845120812498955
8272917 22 15140951816838236121

>  <PUBCHEM_SHAPE_MULTIPOLES>  (1) 
395.76
8.03
1.99
1.51
2.93
0.43
0.24
-1.13
-1.62
0.18
0.78
-1.23
-0.46
1.3

>  <PUBCHEM_SHAPE_SELFOVERLAP>  (1) 
866.848

>  <PUBCHEM_SHAPE_VOLUME>  (1) 
214.1

>  <PUBCHEM_COORDINATE_TYPE>  (1) 
2
5
10

$$$$
