23910
     RDKit          3D

 22 23  0  0  0  0  0  0  0  0999 V2000
    0.9433   -0.9219    1.8288 O   0  0  0  0  0  0  0  0  0  0  0  0
    4.8591    1.7944   -0.0815 N   0  0  0  0  0  0  0  0  0  0  0  0
    3.0253    0.2182    0.3238 C   0  0  0  0  0  0  0  0  0  0  0  0
    2.1529   -0.8968   -0.2595 C   0  0  0  0  0  0  0  0  0  0  0  0
   -1.4264   -0.6377   -0.6252 C   0  0  0  0  0  0  0  0  0  0  0  0
   -1.0530   -2.0660   -0.3947 C   0  0  0  0  0  0  0  0  0  0  0  0
    4.0526    0.7386   -0.6836 C   0  0  0  0  0  0  0  0  0  0  0  0
    0.1213   -2.4292    0.2272 C   0  0  0  0  0  0  0  0  0  0  0  0
   -2.2329   -0.0084    0.5265 C   0  0  0  0  0  0  0  0  0  0  0  0
    1.0705   -1.3795    0.6957 C   0  0  0  0  0  0  0  0  0  0  0  0
   -2.6308    1.4234    0.2618 C   0  0  0  0  0  0  0  0  0  0  0  0
   -1.9239   -3.0678   -0.8231 C   0  0  0  0  0  0  0  0  0  0  0  0
    0.4679   -3.7463    0.4421 C   0  0  0  0  0  0  0  0  0  0  0  0
   -1.5992   -4.4088   -0.6187 C   0  0  0  0  0  0  0  0  0  0  0  0
   -0.4032   -4.7481    0.0138 C   0  0  0  0  0  0  0  0  0  0  0  0
    5.8960    2.2443   -1.0115 C   0  0  0  0  0  0  0  0  0  0  0  0
    4.0152    2.9203    0.3218 C   0  0  0  0  0  0  0  0  0  0  0  0
   -3.8364    1.6884   -0.3685 C   0  0  0  0  0  0  0  0  0  0  0  0
   -1.7831    2.4477    0.6535 C   0  0  0  0  0  0  0  0  0  0  0  0
   -4.2037    3.0116   -0.6133 C   0  0  0  0  0  0  0  0  0  0  0  0
   -2.1506    3.7709    0.4089 C   0  0  0  0  0  0  0  0  0  0  0  0
   -3.3608    4.0528   -0.2245 C   0  0  0  0  0  0  0  0  0  0  0  0
  1 10  2  0
  2  7  1  0
  2 16  1  0
  2 17  1  0
  3  4  1  0
  3  7  1  0
  4 10  1  0
  5  6  1  0
  5  9  1  0
  6  8  2  0
  6 12  1  0
  8 10  1  0
  8 13  1  0
  9 11  1  0
 11 18  2  0
 11 19  1  0
 12 14  2  0
 13 15  2  0
 14 15  1  0
 18 20  1  0
 19 21  2  0
 20 22  2  0
 21 22  1  0
M  END
>  <PUBCHEM_COMPOUND_CID>  (1) 
23910

>  <PUBCHEM_CONFORMER_RMSD>  (1) 
0.8

>  <PUBCHEM_CONFORMER_DIVERSEORDER>  (1) 
9
205
63
248
130
225
199
169
75
186
306
80
203
272
140
77
31
132
244
54
95
147
41
67
264
135
304
175
223
303
291
119
91
212
156
3
252
308
255
66
84
256
153
233
92
4
82
65
226
211
191
16
35
64
51
148
5
98
185
220
253
301
299
163
300
27
213
262
280
276
12
46
206
172
247
10
165
39
71
170
274
45
188
296
23
273
88
167
178
59
57
210
294
56
109
70
277
190
297
131
313
28
290
72
236
22
62
33
136
287
79
240
20
311
219
29
222
47
52
258
61
194
104
201
182
231
48
310
238
89
8
126
286
30
197
105
151
214
237
120
241
230
143
53
44
42
307
228
26
125
142
106
257
15
38
221
177
90
134
183
36
87
309
49
97
259
249
25
19
229
78
204
43
269
150
302
227
159
68
198
55
295
123
1
94
34
152
260
251
14
193
100
50
184
187
202
245
271
157
235
40
103
121
216
24
293
129
179
81
74
250
160
101
114
261
112
7
263
166
85
217
254
162
127
154
115
2
246
93
21
13
138
168
200
278
113
285
195
122
314
275
107
208
37
141
279
18
207
116
234
171
266
11
137
110
155
174
298
242
180
312
83
284
6
239
86
267
145
144
268
124
76
181
17
224
305
108
96
102
281
215
288
164
139
289
128
209
118
99
146
292
282
58
232
117
243
189
283
111
173
196
176
60
218
265
69
270
149
73
158
32
192
161
133

>  <PUBCHEM_MMFF94_PARTIAL_CHARGES>  (1) 
30
1 -0.57
10 0.42
11 -0.14
12 -0.15
13 -0.15
14 -0.15
15 -0.15
16 0.27
17 0.27
18 -0.15
19 -0.15
2 -0.81
20 -0.15
21 -0.15
22 -0.15
33 0.15
34 0.15
35 0.15
36 0.15
4 0.06
43 0.15
44 0.15
45 0.15
46 0.15
47 0.15
5 0.14
6 -0.14
7 0.27
8 0.09
9 0.14

>  <PUBCHEM_EFFECTIVE_ROTOR_COUNT>  (1) 
8

>  <PUBCHEM_PHARMACOPHORE_FEATURES>  (1) 
4
1 1 acceptor
1 2 cation
6 11 18 19 20 21 22 rings
6 6 8 12 13 14 15 rings

>  <PUBCHEM_HEAVY_ATOM_COUNT>  (1) 
22

>  <PUBCHEM_ATOM_DEF_STEREO_COUNT>  (1) 
0

>  <PUBCHEM_ATOM_UDEF_STEREO_COUNT>  (1) 
0

>  <PUBCHEM_BOND_DEF_STEREO_COUNT>  (1) 
0

>  <PUBCHEM_BOND_UDEF_STEREO_COUNT>  (1) 
0

>  <PUBCHEM_ISOTOPIC_ATOM_COUNT>  (1) 
0

>  <PUBCHEM_COMPONENT_COUNT>  (1) 
1

>  <PUBCHEM_CACTVS_TAUTO_COUNT>  (1) 
2

>  <PUBCHEM_CONFORMER_ID>  (1) 
00005D6600000009

>  <PUBCHEM_MMFF94_ENERGY>  (1) 
59.7422

>  <PUBCHEM_FEATURE_SELFOVERLAP>  (1) 
20.297

>  <PUBCHEM_SHAPE_FINGERPRINT>  (1) 
10411042 1 17618505823419180390
10670039 82 17689168124955343420
10871710 139 18411697729554436655
10937287 8 18410010992428029924
1100329 8 17977951512167613867
11045515 52 17692254449160317074
11477941 20 17694223679160764756
12107183 9 18262786373528141730
12173636 292 18410853286996361014
12293681 160 17828460789689184067
12788726 201 18191577764705338706
13134695 92 17111849267701719551
138480 1 17402331469046231108
14251764 75 18267878197947874728
14508225 48 17693654122914625951
15463212 79 18408600387902844808
15961568 22 17259056823947073032
16988056 13 17183053644716042388
17134986 127 18267304218544115790
18785283 64 17905609900178940843
20101258 96 17832997417598561314
20739085 24 17473529266677558890
21133410 221 17126163114031689048
21304253 13 17762629786308699875
21860390 5 17333646081681795095
21927370 108 17616267204886715210
2255824 54 17764865789131982191
23559900 14 17617934730618579409
23929065 36 18053362569573409472
245318 6 18042140785943286332
3610482 184 17897466080267813204
394222 165 18115865196479252290
474 4 17833826076231003665
5312544 6 18194953055381321005
7808743 9 18410574024276123064
9709674 26 17547288905484845323
9981440 41 18337106761667805697

>  <PUBCHEM_SHAPE_MULTIPOLES>  (1) 
441.9
8.71
7.43
0.98
9.51
4.94
-0.13
-15.16
2.31
-3.08
0.65
0.23
0.07
-0.95

>  <PUBCHEM_SHAPE_SELFOVERLAP>  (1) 
916.661

>  <PUBCHEM_SHAPE_VOLUME>  (1) 
253.2

>  <PUBCHEM_COORDINATE_TYPE>  (1) 
2
5
10

$$$$
