2392
     RDKit          3D

 32 37  0  0  0  0  0  0  0  0999 V2000
   10.0233    2.4602    0.3415 O   0  0  0  0  0  0  0  0  0  0  0  0
   -6.3054    0.4718    0.0320 N   0  0  0  0  0  0  0  0  0  0  0  0
   -8.6106    2.1583    0.0593 N   0  0  0  0  0  0  0  0  0  0  0  0
   -1.3999   -0.1803   -0.2611 N   0  0  0  0  0  0  0  0  0  0  0  0
   -1.4894   -2.3381    0.2640 N   0  0  0  0  0  0  0  0  0  0  0  0
    3.8987    0.5322    0.1876 N   0  0  0  0  0  0  0  0  0  0  0  0
    4.8794   -1.3591   -0.4457 N   0  0  0  0  0  0  0  0  0  0  0  0
   -7.1334    0.5673    1.2409 C   0  0  0  0  0  0  0  0  0  0  0  0
   -6.3943    1.6087   -0.8892 C   0  0  0  0  0  0  0  0  0  0  0  0
   -8.5726    0.9400    0.8777 C   0  0  0  0  0  0  0  0  0  0  0  0
   -7.8574    1.9489   -1.1831 C   0  0  0  0  0  0  0  0  0  0  0  0
   -5.1234   -0.2741    0.1019 C   0  0  0  0  0  0  0  0  0  0  0  0
   -9.9925    2.5352   -0.2355 C   0  0  0  0  0  0  0  0  0  0  0  0
   -3.8745    0.3369   -0.1587 C   0  0  0  0  0  0  0  0  0  0  0  0
   -2.7299   -0.4565   -0.0734 C   0  0  0  0  0  0  0  0  0  0  0  0
   -5.1586   -1.6468    0.4339 C   0  0  0  0  0  0  0  0  0  0  0  0
   -2.7596   -1.8093    0.2534 C   0  0  0  0  0  0  0  0  0  0  0  0
   -3.9962   -2.4239    0.5137 C   0  0  0  0  0  0  0  0  0  0  0  0
   -0.6998   -1.3351   -0.0484 C   0  0  0  0  0  0  0  0  0  0  0  0
    0.7372   -1.3906   -0.1665 C   0  0  0  0  0  0  0  0  0  0  0  0
    2.8775   -0.3617   -0.0084 C   0  0  0  0  0  0  0  0  0  0  0  0
    1.4929   -0.2487    0.1219 C   0  0  0  0  0  0  0  0  0  0  0  0
    3.5152   -1.5345   -0.4031 C   0  0  0  0  0  0  0  0  0  0  0  0
    1.3494   -2.5818   -0.5648 C   0  0  0  0  0  0  0  0  0  0  0  0
    2.7415   -2.6721   -0.6888 C   0  0  0  0  0  0  0  0  0  0  0  0
    5.0741   -0.1101   -0.0861 C   0  0  0  0  0  0  0  0  0  0  0  0
    6.3508    0.5530    0.0242 C   0  0  0  0  0  0  0  0  0  0  0  0
    7.4897   -0.1789    0.3591 C   0  0  0  0  0  0  0  0  0  0  0  0
    6.4453    1.9256   -0.2042 C   0  0  0  0  0  0  0  0  0  0  0  0
    8.7239    0.4620    0.4657 C   0  0  0  0  0  0  0  0  0  0  0  0
    7.6796    2.5666   -0.0976 C   0  0  0  0  0  0  0  0  0  0  0  0
    8.8188    1.8348    0.2374 C   0  0  0  0  0  0  0  0  0  0  0  0
  1 32  1  0
  2  8  1  0
  2  9  1  0
  2 12  1  0
  3 10  1  0
  3 11  1  0
  3 13  1  0
  4 15  1  0
  4 19  1  0
  5 17  1  0
  5 19  2  0
  6 21  1  0
  6 26  1  0
  7 23  1  0
  7 26  2  0
  8 10  1  0
  9 11  1  0
 12 14  1  0
 12 16  2  0
 14 15  2  0
 15 17  1  0
 16 18  1  0
 17 18  2  0
 19 20  1  0
 20 22  1  0
 20 24  2  0
 21 22  2  0
 21 23  1  0
 23 25  2  0
 24 25  1  0
 26 27  1  0
 27 28  2  0
 27 29  1  0
 28 30  1  0
 29 31  2  0
 30 32  2  0
 31 32  1  0
M  END
>  <PUBCHEM_COMPOUND_CID>  (1) 
2392

>  <PUBCHEM_CONFORMER_RMSD>  (1) 
0.8

>  <PUBCHEM_CONFORMER_DIVERSEORDER>  (1) 
1
4
9
15
10
2
12
16
7
14
8
3
6
13
11
5
17

>  <PUBCHEM_MMFF94_PARTIAL_CHARGES>  (1) 
45
1 -0.53
10 0.27
11 0.27
12 0.1
13 0.27
14 -0.15
15 -0.15
16 -0.15
17 0.23
18 -0.15
19 0.13
2 -0.84
20 0.05
21 -0.15
22 -0.15
23 0.23
24 -0.15
25 -0.15
26 0.13
27 0.05
28 -0.15
29 -0.15
3 -0.81
30 -0.15
31 -0.15
32 0.08
4 0.03
44 0.15
45 0.15
46 0.15
47 0.27
48 0.15
49 0.15
5 -0.57
50 0.15
51 0.27
52 0.15
53 0.15
54 0.15
55 0.15
56 0.45
6 0.03
7 -0.57
8 0.37
9 0.37

>  <PUBCHEM_EFFECTIVE_ROTOR_COUNT>  (1) 
4.2

>  <PUBCHEM_PHARMACOPHORE_FEATURES>  (1) 
13
1 1 donor
1 2 cation
1 3 cation
1 4 donor
1 6 donor
3 4 5 19 cation
3 6 7 26 cation
5 4 5 15 17 19 rings
5 6 7 21 23 26 rings
6 12 14 15 16 17 18 rings
6 2 3 8 9 10 11 rings
6 20 21 22 23 24 25 rings
6 27 28 29 30 31 32 rings

>  <PUBCHEM_HEAVY_ATOM_COUNT>  (1) 
32

>  <PUBCHEM_ATOM_DEF_STEREO_COUNT>  (1) 
0

>  <PUBCHEM_ATOM_UDEF_STEREO_COUNT>  (1) 
0

>  <PUBCHEM_BOND_DEF_STEREO_COUNT>  (1) 
0

>  <PUBCHEM_BOND_UDEF_STEREO_COUNT>  (1) 
0

>  <PUBCHEM_ISOTOPIC_ATOM_COUNT>  (1) 
0

>  <PUBCHEM_COMPONENT_COUNT>  (1) 
1

>  <PUBCHEM_CACTVS_TAUTO_COUNT>  (1) 
26

>  <PUBCHEM_CONFORMER_ID>  (1) 
0000095800000001

>  <PUBCHEM_MMFF94_ENERGY>  (1) 
85.9044

>  <PUBCHEM_FEATURE_SELFOVERLAP>  (1) 
66.19

>  <PUBCHEM_SHAPE_FINGERPRINT>  (1) 
10 15 18040999523185650091
10533779 47 16588017966970121192
10835480 77 18412827979793917771
10930396 42 17022620876030800637
11315181 36 17917715708512004995
11409948 41 15912781479905878556
11409948 8 18260841402225805569
11421887 21 18130516266968159408
11421887 45 18270386317858876400
11456790 92 14490194899425337861
11463208 3 8502381044555467448
11578821 258 18411983584961101873
11607047 141 17969214552835796106
11607047 74 10878834698873383570
12013929 2 18410294693210714570
12013929 29 17837773331766017093
125118 31 18334016125246158812
12522641 68 18060420248280781214
12539765 74 18341902909278285990
12838862 33 18130776868139281448
13248334 5 18124881162074870262
13553643 46 18040710381482444044
13740195 50 18113904884208095939
14251920 17 18411135832722986765
14394314 77 18040712584403909899
14617042 71 18412830166444377217
15183329 4 16630520684443383043
15350500 55 18411980260544547374
15461852 350 17774999137475262743
155225 1 18341612603679807625
1577012 14 18409161117036991954
15840311 113 18408606938298014734
15890870 6 18341895212701580832
16087824 20 18411700998626779788
16989713 51 17272845657141622255
17134984 74 11743845751347549188
1754911 235 17561362889736815284
1768 4 18412834573502283841
1818759 1 9151173160184494873
19301679 30 13262945266388278890
19302320 297 18114184159608312556
19315958 150 18411985728323193527
20105231 36 11963383021883564032
20505436 4 18410567388093383891
20721686 146 18341334479004266484
21033648 29 18341038705174046234
21781055 127 16805897182530209166
23524908 199 17703800185463292030
23576562 1 16127793293045795105
24771293 8 18261392277707398271
25025965 108 10953738967439276345
255183 451 10952042360208504474
306946 40 17203315746668791464
3178227 256 13118002197817516970
3383291 50 8286201639005734708
3711267 37 18342188747614929209
3918712 181 18342737451351402568
4073 2 18335144210558840275
4169191 19 18343867697638099713
4403749 210 18341895246503117999
44280117 145 18269835479876104143
44389302 135 13406793316030749905
4760202 170 17632290199276251144
504579 68 14692568827421058051
504843 32 17917429881974782487
54039377 194 8646771101235149736
5470011 282 11959722785801499290
5718773 13 9223235139067189678
636775 72 18410012109800430945
636775 8 11095879389428109357
9953998 17 17821447980425993859
9980921 7 18333445457552927213

>  <PUBCHEM_SHAPE_MULTIPOLES>  (1) 
622.79
34.52
3.06
0.83
1.16
0
0
-36.75
-3.09
-0.15
0.34
-0.94
-0.08
1.67

>  <PUBCHEM_SHAPE_SELFOVERLAP>  (1) 
1401.348

>  <PUBCHEM_SHAPE_VOLUME>  (1) 
331.5

>  <PUBCHEM_COORDINATE_TYPE>  (1) 
2
5
10

$$$$
