240
     RDKit          3D

  8  8  0  0  0  0  0  0  0  0999 V2000
    2.8466   -0.3870    0.0002 O   0  0  0  0  0  0  0  0  0  0  0  0
    0.5644    0.2371    0.0000 C   0  0  0  0  0  0  0  0  0  0  0  0
   -0.3437    1.2960    0.0000 C   0  0  0  0  0  0  0  0  0  0  0  0
    0.1013   -1.0787    0.0000 C   0  0  0  0  0  0  0  0  0  0  0  0
   -1.7147    1.0393    0.0001 C   0  0  0  0  0  0  0  0  0  0  0  0
   -1.2698   -1.3354   -0.0001 C   0  0  0  0  0  0  0  0  0  0  0  0
   -2.1777   -0.2764    0.0000 C   0  0  0  0  0  0  0  0  0  0  0  0
    1.9937    0.5050   -0.0003 C   0  0  0  0  0  0  0  0  0  0  0  0
  1  8  2  0
  2  3  2  0
  2  4  1  0
  2  8  1  0
  3  5  1  0
  4  6  2  0
  5  7  2  0
  6  7  1  0
M  END
>  <PUBCHEM_COMPOUND_CID>  (1) 
240

>  <PUBCHEM_CONFORMER_RMSD>  (1) 
0.4

>  <PUBCHEM_CONFORMER_DIVERSEORDER>  (1) 
1

>  <PUBCHEM_MMFF94_PARTIAL_CHARGES>  (1) 
14
1 -0.57
10 0.15
11 0.15
12 0.15
13 0.15
14 0.06
2 0.09
3 -0.15
4 -0.15
5 -0.15
6 -0.15
7 -0.15
8 0.42
9 0.15

>  <PUBCHEM_EFFECTIVE_ROTOR_COUNT>  (1) 
1

>  <PUBCHEM_PHARMACOPHORE_FEATURES>  (1) 
2
1 1 acceptor
6 2 3 4 5 6 7 rings

>  <PUBCHEM_HEAVY_ATOM_COUNT>  (1) 
8

>  <PUBCHEM_ATOM_DEF_STEREO_COUNT>  (1) 
0

>  <PUBCHEM_ATOM_UDEF_STEREO_COUNT>  (1) 
0

>  <PUBCHEM_BOND_DEF_STEREO_COUNT>  (1) 
0

>  <PUBCHEM_BOND_UDEF_STEREO_COUNT>  (1) 
0

>  <PUBCHEM_ISOTOPIC_ATOM_COUNT>  (1) 
0

>  <PUBCHEM_COMPONENT_COUNT>  (1) 
1

>  <PUBCHEM_CACTVS_TAUTO_COUNT>  (1) 
1

>  <PUBCHEM_CONFORMER_ID>  (1) 
000000F000000001

>  <PUBCHEM_MMFF94_ENERGY>  (1) 
18.0728

>  <PUBCHEM_FEATURE_SELFOVERLAP>  (1) 
10.148

>  <PUBCHEM_SHAPE_FINGERPRINT>  (1) 
16714656 1 18409731763581766061
18185500 45 18263078975662380655
21040471 1 18338797793165636005
23552423 10 18187929525178951646
29004967 10 16200157598908099156
369184 2 15195566792725449510
5084963 1 18412544318583771616

>  <PUBCHEM_SHAPE_MULTIPOLES>  (1) 
158.77
3.12
1.41
0.6
1.61
0.02
0
0.14
0
-0.45
0
-0.03
-0.01
0

>  <PUBCHEM_SHAPE_SELFOVERLAP>  (1) 
329.455

>  <PUBCHEM_SHAPE_VOLUME>  (1) 
90.5

>  <PUBCHEM_COORDINATE_TYPE>  (1) 
2
5
10

$$$$
