24018
     RDKit          3D

 12 12  0  0  1  0  0  0  0  0999 V2000
    1.7768   -0.0211    1.8340 O   0  0  0  0  0  0  0  0  0  0  0  0
    0.2075    1.7797    0.0719 O   0  0  0  0  0  0  0  0  0  0  0  0
    1.5216   -0.7016    0.5972 C   0  0  0  0  0  0  0  0  0  0  0  0
    0.0644   -0.6032    0.2877 C   0  0  0  0  0  0  0  0  0  0  0  0
    2.4479   -0.0988   -0.4790 C   0  0  0  0  0  0  0  0  0  0  0  0
   -0.5294    0.6342    0.0385 C   0  0  0  0  0  0  0  0  0  0  0  0
   -0.7046   -1.7663    0.2492 C   0  0  0  0  0  0  0  0  0  0  0  0
    2.3167   -0.7855   -1.8302 C   0  0  0  0  0  0  0  0  0  0  0  0
   -1.8923    0.7085   -0.2490 C   0  0  0  0  0  0  0  0  0  0  0  0
   -2.0675   -1.6920   -0.0382 C   0  0  0  0  0  0  0  0  0  0  0  0
   -2.6613   -0.4545   -0.2872 C   0  0  0  0  0  0  0  0  0  0  0  0
   -0.4799    3.0004   -0.1949 C   0  0  0  0  0  0  0  0  0  0  0  0
  1  3  1  0
  2  6  1  0
  2 12  1  0
  3  4  1  0
  3  5  1  0
  4  6  2  0
  4  7  1  0
  5  8  1  0
  6  9  1  0
  7 10  2  0
  9 11  2  0
 10 11  1  0
M  END
>  <PUBCHEM_COMPOUND_CID>  (1) 
24018

>  <PUBCHEM_CONFORMER_RMSD>  (1) 
0.6

>  <PUBCHEM_CONFORMER_DIVERSEORDER>  (1) 
4
14
6
10
1
13
3
12
8
9
7
5
11
2

>  <PUBCHEM_MMFF94_PARTIAL_CHARGES>  (1) 
15
1 -0.68
10 -0.15
11 -0.15
12 0.28
16 0.15
2 -0.36
20 0.15
21 0.15
22 0.15
23 0.4
3 0.42
4 -0.14
6 0.08
7 -0.15
9 -0.15

>  <PUBCHEM_EFFECTIVE_ROTOR_COUNT>  (1) 
3

>  <PUBCHEM_PHARMACOPHORE_FEATURES>  (1) 
5
1 1 acceptor
1 1 donor
1 2 acceptor
1 8 hydrophobe
6 4 6 7 9 10 11 rings

>  <PUBCHEM_HEAVY_ATOM_COUNT>  (1) 
12

>  <PUBCHEM_ATOM_DEF_STEREO_COUNT>  (1) 
0

>  <PUBCHEM_ATOM_UDEF_STEREO_COUNT>  (1) 
1

>  <PUBCHEM_BOND_DEF_STEREO_COUNT>  (1) 
0

>  <PUBCHEM_BOND_UDEF_STEREO_COUNT>  (1) 
0

>  <PUBCHEM_ISOTOPIC_ATOM_COUNT>  (1) 
0

>  <PUBCHEM_COMPONENT_COUNT>  (1) 
1

>  <PUBCHEM_CACTVS_TAUTO_COUNT>  (1) 
1

>  <PUBCHEM_CONFORMER_ID>  (1) 
00005DD200000004

>  <PUBCHEM_MMFF94_ENERGY>  (1) 
36.3827

>  <PUBCHEM_FEATURE_SELFOVERLAP>  (1) 
25.373

>  <PUBCHEM_SHAPE_FINGERPRINT>  (1) 
10353120 184 18408893923126655783
12524768 44 18272083954450684619
12716758 59 18053390898671076902
13898156 1 17823134515071888984
14817 1 14324661546857216364
161256 15 17757844698644915659
16945 1 18336538400213852787
17134986 127 17398406225647131924
17990270 104 18125159595875884295
193761 8 17401477157533848475
19837323 101 17903951896731364852
20645477 70 17763739198057639343
20711985 344 18268720415221488004
21040471 1 17833821677635970353
22802520 49 18128273198099715750
228727 97 17895494573544262966
23211744 25 17606411105055054418
23402539 116 18341039766410691974
23419403 2 12014805259893269786
23552423 10 17755857863937649127
23559900 14 18198904700683633982
241688 4 18412266125104422177
2748010 2 18338507651224457941
430814 3 17029135339973742108
4369600 1 18335703896367998222
5084963 1 18056194674612073762
53812653 8 18118132372149450637
7364860 26 17839185456371034185
81228 2 18340770330016471217

>  <PUBCHEM_SHAPE_MULTIPOLES>  (1) 
235.22
3.39
2.34
1.18
0.46
1.92
0.02
-1.14
-0.86
-0.97
-0.11
1.06
-0.22
0.23

>  <PUBCHEM_SHAPE_SELFOVERLAP>  (1) 
478.485

>  <PUBCHEM_SHAPE_VOLUME>  (1) 
137.5

>  <PUBCHEM_COORDINATE_TYPE>  (1) 
2
5
10

$$$$
