24019
     RDKit          3D

 20 20  0  0  0  0  0  0  0  0999 V2000
    2.0497   -0.1603   -2.4568 S   0  0  0  0  0  0  0  0  0  0  0  0
    2.0058   -0.4059   -0.5226 P   0  0  0  0  0  0  0  0  0  0  0  0
    0.5847   -0.1584    0.2176 O   0  0  0  0  0  0  0  0  0  0  0  0
    2.3813   -1.8972    0.0137 O   0  0  0  0  0  0  0  0  0  0  0  0
    3.0162    0.5060    0.3688 O   0  0  0  0  0  0  0  0  0  0  0  0
   -3.4928   -0.4375   -0.0516 O   0  0  0  0  0  0  0  0  0  0  0  0
   -1.7187   -1.3547    1.0931 O   0  0  0  0  0  0  0  0  0  0  0  0
   -0.1989    0.9599    0.1218 C   0  0  0  0  0  0  0  0  0  0  0  0
   -1.5822    0.8706    0.2478 C   0  0  0  0  0  0  0  0  0  0  0  0
    0.4103    2.1914   -0.1026 C   0  0  0  0  0  0  0  0  0  0  0  0
   -2.3629    2.0223    0.1486 C   0  0  0  0  0  0  0  0  0  0  0  0
    1.5145   -2.9849   -0.2612 C   0  0  0  0  0  0  0  0  0  0  0  0
    4.3931    0.5617    0.0367 C   0  0  0  0  0  0  0  0  0  0  0  0
   -0.3705    3.3430   -0.2017 C   0  0  0  0  0  0  0  0  0  0  0  0
   -1.7570    3.2584   -0.0762 C   0  0  0  0  0  0  0  0  0  0  0  0
   -2.2348   -0.4098    0.4839 C   0  0  0  0  0  0  0  0  0  0  0  0
    2.0956   -4.2441    0.3458 C   0  0  0  0  0  0  0  0  0  0  0  0
    5.1003    1.4733    1.0166 C   0  0  0  0  0  0  0  0  0  0  0  0
   -4.2392   -1.6476    0.1166 C   0  0  0  0  0  0  0  0  0  0  0  0
   -5.5945   -1.4860   -0.5383 C   0  0  0  0  0  0  0  0  0  0  0  0
  1  2  2  0
  2  3  1  0
  2  4  1  0
  2  5  1  0
  3  8  1  0
  4 12  1  0
  5 13  1  0
  6 16  1  0
  6 19  1  0
  7 16  2  0
  8  9  2  0
  8 10  1  0
  9 11  1  0
  9 16  1  0
 10 14  2  0
 11 15  2  0
 12 17  1  0
 13 18  1  0
 14 15  1  0
 19 20  1  0
M  END
>  <PUBCHEM_COMPOUND_CID>  (1) 
24019

>  <PUBCHEM_CONFORMER_RMSD>  (1) 
0.8

>  <PUBCHEM_CONFORMER_DIVERSEORDER>  (1) 
1
179
186
150
53
42
158
75
87
126
23
144
44
85
83
96
115
182
123
24
183
185
13
64
137
93
12
109
38
29
35
131
10
146
143
88
48
14
40
57
98
101
153
74
20
154
49
67
36
7
167
97
155
31
79
142
66
138
41
27
110
136
133
134
50
3
33
61
103
173
164
22
71
128
39
127
111
32
102
107
37
2
120
130
114
51
157
135
117
81
119
166
34
132
113
15
163
129
62
100
58
91
26
68
86
43
174
76
188
159
149
69
17
190
78
6
139
99
8
55
180
169
92
161
156
16
170
112
59
60
181
77
80
165
19
147
176
189
151
148
45
177
141
108
118
52
56
187
90
47
5
94
25
160
121
82
95
46
11
152
89
184
175
105
106
18
178
116
168
172
125
122
30
73
171
145
140
72
104
4
9
65
21
28
124
162
54
70
63
84

>  <PUBCHEM_MMFF94_PARTIAL_CHARGES>  (1) 
21
1 -0.68
10 -0.15
11 -0.15
12 0.28
13 0.28
14 -0.15
15 -0.15
16 0.63
19 0.28
2 1.49
21 0.15
22 0.15
27 0.15
28 0.15
3 -0.35
4 -0.55
5 -0.55
6 -0.43
7 -0.57
8 0.08
9 0.09

>  <PUBCHEM_EFFECTIVE_ROTOR_COUNT>  (1) 
9

>  <PUBCHEM_PHARMACOPHORE_FEATURES>  (1) 
2
1 7 acceptor
6 8 9 10 11 14 15 rings

>  <PUBCHEM_HEAVY_ATOM_COUNT>  (1) 
20

>  <PUBCHEM_ATOM_DEF_STEREO_COUNT>  (1) 
0

>  <PUBCHEM_ATOM_UDEF_STEREO_COUNT>  (1) 
0

>  <PUBCHEM_BOND_DEF_STEREO_COUNT>  (1) 
0

>  <PUBCHEM_BOND_UDEF_STEREO_COUNT>  (1) 
0

>  <PUBCHEM_ISOTOPIC_ATOM_COUNT>  (1) 
0

>  <PUBCHEM_COMPONENT_COUNT>  (1) 
1

>  <PUBCHEM_CACTVS_TAUTO_COUNT>  (1) 
1

>  <PUBCHEM_CONFORMER_ID>  (1) 
00005DD300000001

>  <PUBCHEM_MMFF94_ENERGY>  (1) 
35.094

>  <PUBCHEM_FEATURE_SELFOVERLAP>  (1) 
10.148

>  <PUBCHEM_SHAPE_FINGERPRINT>  (1) 
10906281 52 18262817266415635073
1100329 8 17978787132066479978
12553582 1 18192174731099982835
12839892 36 18338498778165078754
12930653 34 18339074892050694040
13140716 1 18051141581432872035
13911987 19 18117569632739039796
14178342 30 18335425608478794636
14223421 5 18339642214206891620
14863182 85 18335149716928134878
16945 1 18190202181164110537
17492 89 18265892449898917459
17980427 23 17748834029267908572
20645477 70 18119804970739735227
21478907 32 18265895757777225827
23184049 29 18122347878260820990
23402539 116 18410567418457880349
23557571 272 18342750597755606964
23558518 356 18117003173696954441
23559900 14 18051965919006734202
2871803 45 18412547612876669094
463206 1 18336547217872109823
474229 33 18339077202737863578
5486654 2 18266743661404046812
59554788 62 18115312172179985661
7164475 11 18263646160865110167
81228 2 18189351094861281905
9709674 26 17981040821476066478

>  <PUBCHEM_SHAPE_MULTIPOLES>  (1) 
389.94
8.47
4.36
1.15
2.69
1.6
-0.79
2.68
0.74
-0.52
0.41
-0.93
0.11
0.29

>  <PUBCHEM_SHAPE_SELFOVERLAP>  (1) 
755.604

>  <PUBCHEM_SHAPE_VOLUME>  (1) 
238.3

>  <PUBCHEM_COORDINATE_TYPE>  (1) 
2
5
10

$$$$
