2401
     RDKit          3D

 33 38  0  0  1  0  0  0  0  0999 V2000
    2.0098   -3.9683   -0.9596 O   0  0  0  0  0  0  0  0  0  0  0  0
    4.9738   -0.6670   -2.0872 O   0  0  0  0  0  0  0  0  0  0  0  0
   -5.7138   -0.2678    0.0122 N   0  0  0  0  0  0  0  0  0  0  0  0
   -1.6056   -1.2640   -0.0604 N   0  0  0  0  0  0  0  0  0  0  0  0
    3.7478   -2.5900   -1.6480 N   0  0  0  0  0  0  0  0  0  0  0  0
    2.1561    2.9276   -1.5383 N   0  0  0  0  0  0  0  0  0  0  0  0
   -4.8901    0.4599   -0.9615 C   0  0  0  0  0  0  0  0  0  0  0  0
   -5.3058    1.9358   -1.0310 C   0  0  0  0  0  0  0  0  0  0  0  0
   -3.4205    0.3356   -0.5643 C   0  0  0  0  0  0  0  0  0  0  0  0
   -6.7922    2.0776   -1.3469 C   0  0  0  0  0  0  0  0  0  0  0  0
   -7.6271    1.2463   -0.3788 C   0  0  0  0  0  0  0  0  0  0  0  0
   -7.1359   -0.1982   -0.3245 C   0  0  0  0  0  0  0  0  0  0  0  0
   -3.0055   -1.1265   -0.4480 C   0  0  0  0  0  0  0  0  0  0  0  0
   -1.1484   -1.3388    1.2286 C   0  0  0  0  0  0  0  0  0  0  0  0
    0.5877   -1.4620   -0.2249 C   0  0  0  0  0  0  0  0  0  0  0  0
   -0.5754   -1.3365   -0.9489 C   0  0  0  0  0  0  0  0  0  0  0  0
    0.2405   -1.4651    1.1552 C   0  0  0  0  0  0  0  0  0  0  0  0
    1.8909   -1.5675   -0.8040 C   0  0  0  0  0  0  0  0  0  0  0  0
    2.7667   -0.5975   -1.1249 C   0  0  0  0  0  0  0  0  0  0  0  0
   -1.8405   -1.3058    2.4445 C   0  0  0  0  0  0  0  0  0  0  0  0
    0.9768   -1.5631    2.3525 C   0  0  0  0  0  0  0  0  0  0  0  0
    2.6347    0.8218   -1.0120 C   0  0  0  0  0  0  0  0  0  0  0  0
    2.5168   -2.8731   -1.1351 C   0  0  0  0  0  0  0  0  0  0  0  0
   -1.0891   -1.4047    3.6190 C   0  0  0  0  0  0  0  0  0  0  0  0
    3.9817   -1.2473   -1.6799 C   0  0  0  0  0  0  0  0  0  0  0  0
    0.2979   -1.5315    3.5761 C   0  0  0  0  0  0  0  0  0  0  0  0
    2.9804    1.6503    0.0946 C   0  0  0  0  0  0  0  0  0  0  0  0
    2.1304    1.6390   -1.9998 C   0  0  0  0  0  0  0  0  0  0  0  0
    2.6704    2.9645   -0.2618 C   0  0  0  0  0  0  0  0  0  0  0  0
    3.5293    1.4047    1.3689 C   0  0  0  0  0  0  0  0  0  0  0  0
    2.8828    4.0497    0.5960 C   0  0  0  0  0  0  0  0  0  0  0  0
    3.7472    2.4804    2.2374 C   0  0  0  0  0  0  0  0  0  0  0  0
    3.4281    3.7817    1.8548 C   0  0  0  0  0  0  0  0  0  0  0  0
  1 23  2  0
  2 25  2  0
  3  7  1  0
  3 12  1  0
  4 13  1  0
  4 14  1  0
  4 16  1  0
  5 23  1  0
  5 25  1  0
  6 28  1  0
  6 29  1  0
  7  8  1  0
  7  9  1  0
  8 10  1  0
  9 13  1  0
 10 11  1  0
 11 12  1  0
 14 17  2  0
 14 20  1  0
 15 16  2  0
 15 17  1  0
 15 18  1  0
 17 21  1  0
 18 19  2  0
 18 23  1  0
 19 22  1  0
 19 25  1  0
 20 24  2  0
 21 26  2  0
 22 27  1  0
 22 28  2  0
 24 26  1  0
 27 29  2  0
 27 30  1  0
 29 31  1  0
 30 32  2  0
 31 33  2  0
 32 33  1  0
M  END
>  <PUBCHEM_COMPOUND_CID>  (1) 
2401

>  <PUBCHEM_CONFORMER_RMSD>  (1) 
0.8

>  <PUBCHEM_CONFORMER_DIVERSEORDER>  (1) 
1
196
19
28
72
208
204
206
152
27
73
116
148
21
30
123
162
145
189
9
207
194
32
3
210
209
186
147
55
173
12
153
175
50
59
97
177
43
36
38
15
130
156
182
158
58
90
14
195
211
164
203
191
141
109
201
7
179
149
8
67
155
202
60
89
6
101
54
56
122
88
26
45
171
169
114
112
66
83
48
154
18
42
117
75
102
165
178
142
125
197
135
29
172
118
161
168
120
212
146
174
47
128
188
25
100
107
167
62
44
124
52
95
23
163
39
193
200
91
176
181
4
183
46
166
131
115
143
111
157
104
69
126
99
103
198
127
137
199
87
51
84
170
106
113
22
86
185
77
139
80
71
40
13
180
61
190
133
20
105
5
159
78
31
150
108
17
37
57
76
151
121
132
160
64
33
65
63
92
49
98
144
184
205
192
136
53
70
96
35
140
2
138
34
119
68
129
81
110
134
93
82
74
79
24
85
41
94
11
10
187
16

>  <PUBCHEM_MMFF94_PARTIAL_CHARGES>  (1) 
40
1 -0.57
12 0.27
13 0.26
14 -0.15
15 -0.05
16 -0.3
18 0.06
19 0.06
2 -0.57
20 -0.15
21 -0.15
22 -0.05
23 0.62
24 -0.15
25 0.62
26 -0.15
28 -0.3
29 -0.15
3 -0.9
30 -0.15
31 -0.15
32 -0.15
33 -0.15
4 0.05
43 0.36
48 0.15
49 0.15
5 -0.49
50 0.15
51 0.15
52 0.15
53 0.37
54 0.15
55 0.27
56 0.15
57 0.15
58 0.15
59 0.15
6 0.03
7 0.27

>  <PUBCHEM_EFFECTIVE_ROTOR_COUNT>  (1) 
6.4

>  <PUBCHEM_PHARMACOPHORE_FEATURES>  (1) 
14
1 1 acceptor
1 2 acceptor
1 3 cation
1 3 donor
1 4 cation
1 5 donor
1 6 cation
1 6 donor
5 4 14 15 16 17 rings
5 5 18 19 23 25 rings
5 6 22 27 28 29 rings
6 14 17 20 21 24 26 rings
6 27 29 30 31 32 33 rings
6 3 7 8 10 11 12 rings

>  <PUBCHEM_HEAVY_ATOM_COUNT>  (1) 
33

>  <PUBCHEM_ATOM_DEF_STEREO_COUNT>  (1) 
0

>  <PUBCHEM_ATOM_UDEF_STEREO_COUNT>  (1) 
1

>  <PUBCHEM_BOND_DEF_STEREO_COUNT>  (1) 
0

>  <PUBCHEM_BOND_UDEF_STEREO_COUNT>  (1) 
0

>  <PUBCHEM_ISOTOPIC_ATOM_COUNT>  (1) 
0

>  <PUBCHEM_COMPONENT_COUNT>  (1) 
1

>  <PUBCHEM_CACTVS_TAUTO_COUNT>  (1) 
8

>  <PUBCHEM_CONFORMER_ID>  (1) 
0000096100000001

>  <PUBCHEM_MMFF94_ENERGY>  (1) 
53.7795

>  <PUBCHEM_FEATURE_SELFOVERLAP>  (1) 
71.233

>  <PUBCHEM_SHAPE_FINGERPRINT>  (1) 
10165383 225 16827056437650266788
10673678 19 18129652131904689201
10721379 63 17918273142783172443
11070050 100 17022903420021474665
11115154 58 17982745081684113893
11720765 8 18199181793975524782
12160290 23 16228024858627772499
12166972 35 17274546412286485958
12633257 1 16662031724752603676
13636023 20 17273686757808569165
13692114 37 17531525490550812171
14068700 675 16773239457923064734
14468879 13 18192715776361342643
14739800 52 18115007655404988513
14904525 67 18201434724400572057
14955137 171 17389925782814918043
15001296 14 18338510847219060529
17909252 39 18200033928345787469
1813 80 13470689244103424139
20715895 44 18272079534913681976
21304303 282 16983469633144290910
2132832 1 16988292975590474426
21475661 188 18187643643391910493
23559900 14 18342172220717495487
244849 19 18261688055078627083
3388396 114 17632306712666284488
376196 1 18194111035137158352
4366758 6 17417235676353736176
44317340 157 18272654554632241559
495365 180 18340771537023379990
508180 173 18267881492297547084
5109719 28 18041286577853191313
513532 50 18334570218196125082
57527358 35 17910655881578057466
57527573 199 18115576192699982952
57527585 21 17393339023268156879
5951187 136 18261948634886487720
6086070 43 18187094931170874891
9658208 31 17386022671218263603

>  <PUBCHEM_SHAPE_MULTIPOLES>  (1) 
647.46
13.46
4.36
2.98
33.8
2.33
-2.88
9.42
5.79
-5.53
-0.36
-2.34
-1.31
3.98

>  <PUBCHEM_SHAPE_SELFOVERLAP>  (1) 
1452.664

>  <PUBCHEM_SHAPE_VOLUME>  (1) 
344.5

>  <PUBCHEM_COORDINATE_TYPE>  (1) 
2
5
10

$$$$
