24035
     RDKit          3D

 18 19  0  0  1  0  0  0  0  0999 V2000
    0.1468    0.1259   -0.3709 N   0  0  0  0  0  0  0  0  0  0  0  0
    4.4084   -0.6250   -0.4750 N   0  0  0  0  0  0  0  0  0  0  0  0
    1.4494   -0.4537   -0.0686 C   0  0  0  0  0  0  0  0  0  0  0  0
    0.0622    1.0456   -1.5080 C   0  0  0  0  0  0  0  0  0  0  0  0
    2.4463    0.6062    0.4327 C   0  0  0  0  0  0  0  0  0  0  0  0
   -0.5816    2.3877   -1.1452 C   0  0  0  0  0  0  0  0  0  0  0  0
   -2.1078    2.3399   -1.0310 C   0  0  0  0  0  0  0  0  0  0  0  0
   -0.9712   -0.6894   -0.1508 C   0  0  0  0  0  0  0  0  0  0  0  0
   -2.6478    2.2269    0.3979 C   0  0  0  0  0  0  0  0  0  0  0  0
   -2.0254    1.1391    1.2701 C   0  0  0  0  0  0  0  0  0  0  0  0
   -2.0542   -0.2267    0.6291 C   0  0  0  0  0  0  0  0  0  0  0  0
    3.8581    0.0487    0.6964 C   0  0  0  0  0  0  0  0  0  0  0  0
    1.9221    1.3118    1.6887 C   0  0  0  0  0  0  0  0  0  0  0  0
   -1.0536   -1.9789   -0.7098 C   0  0  0  0  0  0  0  0  0  0  0  0
   -3.1831   -1.0424    0.8141 C   0  0  0  0  0  0  0  0  0  0  0  0
   -2.1771   -2.7827   -0.5118 C   0  0  0  0  0  0  0  0  0  0  0  0
   -3.2424   -2.3137    0.2479 C   0  0  0  0  0  0  0  0  0  0  0  0
    5.7509   -1.1194   -0.2058 C   0  0  0  0  0  0  0  0  0  0  0  0
  1  3  1  0
  1  4  1  0
  1  8  1  0
  2 12  1  0
  2 18  1  0
  3  5  1  0
  4  6  1  0
  5 12  1  0
  5 13  1  0
  6  7  1  0
  7  9  1  0
  8 11  2  0
  8 14  1  0
  9 10  1  0
 10 11  1  0
 11 15  1  0
 14 16  2  0
 15 17  2  0
 16 17  1  0
M  END
>  <PUBCHEM_COMPOUND_CID>  (1) 
24035

>  <PUBCHEM_CONFORMER_RMSD>  (1) 
0.6

>  <PUBCHEM_CONFORMER_DIVERSEORDER>  (1) 
1
75
23
71
64
38
70
66
7
59
74
78
73
87
36
86
19
51
89
88
60
55
84
11
69
79
53
4
50
67
57
80
91
65
31
16
90
82
85
56
58
2
63
48
8
21
77
20
40
72
39
47
61
52
29
34
17
81
68
12
76
5
37
32
9
28
30
49
14
41
10
24
35
43
83
26
46
27
15
42
18
25
3
44
33
6
62
22
54
13
45

>  <PUBCHEM_MMFF94_PARTIAL_CHARGES>  (1) 
18
1 -0.84
10 0.14
11 -0.14
12 0.27
14 -0.15
15 -0.15
16 -0.15
17 -0.15
18 0.27
2 -0.9
3 0.37
37 0.15
38 0.15
39 0.36
4 0.37
40 0.15
41 0.15
8 0.1

>  <PUBCHEM_EFFECTIVE_ROTOR_COUNT>  (1) 
5.2

>  <PUBCHEM_PHARMACOPHORE_FEATURES>  (1) 
5
1 1 cation
1 13 hydrophobe
1 2 cation
1 2 donor
6 8 11 14 15 16 17 rings

>  <PUBCHEM_HEAVY_ATOM_COUNT>  (1) 
18

>  <PUBCHEM_ATOM_DEF_STEREO_COUNT>  (1) 
0

>  <PUBCHEM_ATOM_UDEF_STEREO_COUNT>  (1) 
1

>  <PUBCHEM_BOND_DEF_STEREO_COUNT>  (1) 
0

>  <PUBCHEM_BOND_UDEF_STEREO_COUNT>  (1) 
0

>  <PUBCHEM_ISOTOPIC_ATOM_COUNT>  (1) 
0

>  <PUBCHEM_COMPONENT_COUNT>  (1) 
1

>  <PUBCHEM_CACTVS_TAUTO_COUNT>  (1) 
1

>  <PUBCHEM_CONFORMER_ID>  (1) 
00005DE300000001

>  <PUBCHEM_MMFF94_ENERGY>  (1) 
56.8317

>  <PUBCHEM_FEATURE_SELFOVERLAP>  (1) 
25.371

>  <PUBCHEM_SHAPE_FINGERPRINT>  (1) 
10369192 42 17627503067794648832
10989021 7 18116716407378849645
12011746 2 18337947888100178533
12500047 106 18339357448953020400
12633257 1 17631750355465718579
12714826 92 18410852149230661682
13296909 8 18411418423177676449
14251751 93 18334857165393914946
14817 1 16156547510697884461
15295992 7 17417802937742295920
16945 1 18200887282744750323
17804303 29 18272378606561347146
1813 80 18042117833542415286
18981168 100 17559366211054021744
22112679 90 18189353405553446837
23388829 49 17975698603925481181
23402539 116 18343295986141370183
23419403 2 17769345530511376929
23559900 14 18271517710452656368
2748010 2 17976563632245871935
312423 11 18040722497916474916
58051976 100 18409729530610267754
6049 1 18272076245491063672
81228 2 18262504987891025897
84936 182 17478887187077166121

>  <PUBCHEM_SHAPE_MULTIPOLES>  (1) 
360.47
7.57
2.95
1.3
13.37
0.08
-0.08
3.54
-0.91
-3.24
0.71
-0.09
-0.63
0.5

>  <PUBCHEM_SHAPE_SELFOVERLAP>  (1) 
727.935

>  <PUBCHEM_SHAPE_VOLUME>  (1) 
209.1

>  <PUBCHEM_COORDINATE_TYPE>  (1) 
2
5
10

$$$$
