24043
     RDKit          3D

 14 15  0  0  1  0  0  0  0  0999 V2000
   -4.5338    0.0198    0.1399 Br  0  0  0  0  0  0  0  0  0  0  0  0
    2.9777    1.2420    0.5541 O   0  0  0  0  0  0  0  0  0  0  0  0
    0.4963   -2.6432   -0.3051 O   0  0  0  0  0  0  0  0  0  0  0  0
    1.7718   -0.6871    0.0116 N   0  0  0  0  0  0  0  0  0  0  0  0
   -1.8634    1.1362    0.2122 N   0  0  0  0  0  0  0  0  0  0  0  0
   -1.9085   -1.0764   -0.0533 N   0  0  0  0  0  0  0  0  0  0  0  0
    0.6399    1.5816    0.1806 C   0  0  0  0  0  0  0  0  0  0  0  0
   -0.5620    0.7329    0.1230 C   0  0  0  0  0  0  0  0  0  0  0  0
    1.8987    0.7058    0.2761 C   0  0  0  0  0  0  0  0  0  0  0  0
   -0.6162   -0.6253   -0.0281 C   0  0  0  0  0  0  0  0  0  0  0  0
    0.7508    2.4782   -1.0492 C   0  0  0  0  0  0  0  0  0  0  0  0
    0.5678   -1.4301   -0.1329 C   0  0  0  0  0  0  0  0  0  0  0  0
    3.0180   -1.4453   -0.0228 C   0  0  0  0  0  0  0  0  0  0  0  0
   -2.6370    0.0109    0.0938 C   0  0  0  0  0  0  0  0  0  0  0  0
  1 14  1  0
  2  9  2  0
  3 12  2  0
  4  9  1  0
  4 12  1  0
  4 13  1  0
  5  8  1  0
  5 14  1  0
  6 10  1  0
  6 14  2  0
  7  8  1  0
  7  9  1  0
  7 11  1  0
  8 10  2  0
 10 12  1  0
M  END
>  <PUBCHEM_COMPOUND_CID>  (1) 
24043

>  <PUBCHEM_CONFORMER_RMSD>  (1) 
0.4

>  <PUBCHEM_CONFORMER_DIVERSEORDER>  (1) 
1
2

>  <PUBCHEM_MMFF94_PARTIAL_CHARGES>  (1) 
14
1 -0.06
10 0.14
12 0.72
13 0.3
14 0.24
19 0.27
2 -0.57
3 -0.57
4 -0.42
5 0.03
6 -0.57
7 0.24
8 -0.33
9 0.57

>  <PUBCHEM_EFFECTIVE_ROTOR_COUNT>  (1) 
0.4

>  <PUBCHEM_PHARMACOPHORE_FEATURES>  (1) 
7
1 1 hydrophobe
1 2 acceptor
1 3 acceptor
1 5 donor
3 5 6 14 cation
5 5 6 8 10 14 rings
6 4 7 8 9 10 12 rings

>  <PUBCHEM_HEAVY_ATOM_COUNT>  (1) 
14

>  <PUBCHEM_ATOM_DEF_STEREO_COUNT>  (1) 
0

>  <PUBCHEM_ATOM_UDEF_STEREO_COUNT>  (1) 
1

>  <PUBCHEM_BOND_DEF_STEREO_COUNT>  (1) 
0

>  <PUBCHEM_BOND_UDEF_STEREO_COUNT>  (1) 
0

>  <PUBCHEM_ISOTOPIC_ATOM_COUNT>  (1) 
0

>  <PUBCHEM_COMPONENT_COUNT>  (1) 
1

>  <PUBCHEM_CACTVS_TAUTO_COUNT>  (1) 
3

>  <PUBCHEM_CONFORMER_ID>  (1) 
00005DEB00000001

>  <PUBCHEM_MMFF94_ENERGY>  (1) 
20.0058

>  <PUBCHEM_FEATURE_SELFOVERLAP>  (1) 
35.627

>  <PUBCHEM_SHAPE_FINGERPRINT>  (1) 
10219947 1 18410012134952367753
10967382 1 18411418431561713851
10980938 120 18411421700459074585
11471102 20 18411132533348956597
11680986 33 18337961198045514778
12032990 46 18338522928196503835
12346645 6 18411139160214572845
12524768 44 18266742385308240275
13380535 76 18337389443757172787
13380536 305 18336558221060597669
14251717 144 18412821404636733695
15219456 202 18335133168666627917
15219459 52 18263367047824987148
15536298 74 18202001027572404898
15775835 57 17988644154909193113
161256 15 18338797789007786380
16945 1 18194402427282753220
193761 8 17906453581974111926
20201158 50 18337392643381259699
20511035 2 18197781209256100350
20588541 1 18122910828282684158
20645477 70 18341608184179390327
20871998 22 18126853685501544182
2334 1 18411135861632112786
23402655 69 18343010083195789205
23463225 33 18408884010231314834
23552423 10 18264490761661930839
241688 4 18264210205855889384
2748010 2 18410288090917182604
528886 8 18340199786486673233
53812653 166 18200870798312433840
7364860 26 18272653437059925650

>  <PUBCHEM_SHAPE_MULTIPOLES>  (1) 
267.37
5.38
2.33
0.72
5.17
0.03
0.06
-0.48
-0.61
-1.48
0.51
-0.08
0.21
0.04

>  <PUBCHEM_SHAPE_SELFOVERLAP>  (1) 
561.109

>  <PUBCHEM_SHAPE_VOLUME>  (1) 
156.2

>  <PUBCHEM_COORDINATE_TYPE>  (1) 
2
5
10

$$$$
