24045
     RDKit          3D

 13 13  0  0  0  0  0  0  0  0999 V2000
   -4.7817    0.6707   -0.3045 Cl  0  0  0  0  0  0  0  0  0  0  0  0
    1.3289   -1.7493    0.7166 O   0  0  0  0  0  0  0  0  0  0  0  0
    1.8909    0.3750   -0.0229 N   0  0  0  0  0  0  0  0  0  0  0  0
    3.3257    0.2035    0.0517 C   0  0  0  0  0  0  0  0  0  0  0  0
    3.9751    1.5424    0.3755 C   0  0  0  0  0  0  0  0  0  0  0  0
    3.8401   -0.3583   -1.2673 C   0  0  0  0  0  0  0  0  0  0  0  0
    1.0052   -0.6323    0.3216 C   0  0  0  0  0  0  0  0  0  0  0  0
   -0.4360   -0.3075    0.1645 C   0  0  0  0  0  0  0  0  0  0  0  0
   -1.3283   -1.3336   -0.0668 C   0  0  0  0  0  0  0  0  0  0  0  0
   -0.8360    1.0095    0.2568 C   0  0  0  0  0  0  0  0  0  0  0  0
   -2.6818   -1.0290   -0.2126 C   0  0  0  0  0  0  0  0  0  0  0  0
   -2.1895    1.3141    0.1111 C   0  0  0  0  0  0  0  0  0  0  0  0
   -3.1125    0.2948   -0.1236 C   0  0  0  0  0  0  0  0  0  0  0  0
  1 13  1  0
  2  7  2  0
  3  4  1  0
  3  7  1  0
  4  5  1  0
  4  6  1  0
  7  8  1  0
  8  9  2  0
  8 10  1  0
  9 11  1  0
 10 12  2  0
 11 13  2  0
 12 13  1  0
M  END
>  <PUBCHEM_COMPOUND_CID>  (1) 
24045

>  <PUBCHEM_CONFORMER_RMSD>  (1) 
0.6

>  <PUBCHEM_CONFORMER_DIVERSEORDER>  (1) 
1
2
3

>  <PUBCHEM_MMFF94_PARTIAL_CHARGES>  (1) 
16
1 -0.18
10 -0.15
11 -0.15
12 -0.15
13 0.18
15 0.37
2 -0.57
22 0.15
23 0.15
24 0.15
25 0.15
3 -0.73
4 0.3
7 0.54
8 0.09
9 -0.15

>  <PUBCHEM_EFFECTIVE_ROTOR_COUNT>  (1) 
3

>  <PUBCHEM_PHARMACOPHORE_FEATURES>  (1) 
4
1 2 acceptor
1 3 donor
3 4 5 6 hydrophobe
6 8 9 10 11 12 13 rings

>  <PUBCHEM_HEAVY_ATOM_COUNT>  (1) 
13

>  <PUBCHEM_ATOM_DEF_STEREO_COUNT>  (1) 
0

>  <PUBCHEM_ATOM_UDEF_STEREO_COUNT>  (1) 
0

>  <PUBCHEM_BOND_DEF_STEREO_COUNT>  (1) 
0

>  <PUBCHEM_BOND_UDEF_STEREO_COUNT>  (1) 
0

>  <PUBCHEM_ISOTOPIC_ATOM_COUNT>  (1) 
0

>  <PUBCHEM_COMPONENT_COUNT>  (1) 
1

>  <PUBCHEM_CACTVS_TAUTO_COUNT>  (1) 
2

>  <PUBCHEM_CONFORMER_ID>  (1) 
00005DED00000001

>  <PUBCHEM_MMFF94_ENERGY>  (1) 
26.5489

>  <PUBCHEM_FEATURE_SELFOVERLAP>  (1) 
20.297

>  <PUBCHEM_SHAPE_FINGERPRINT>  (1) 
10608611 8 18342455954530356000
11132069 177 18408321115996690084
11543360 7 16773506776075436469
12119455 92 14634860964343626379
12251169 10 8286191747589855214
13380535 76 18335137579049694139
13581323 91 8142084260305926075
14325111 11 18410856581541933000
14897335 6 18335697230420466899
14993402 34 18341889680535718933
15775835 57 18335139778030335697
16945 1 18410283718772318115
177051 138 9079116665425806784
18186145 218 18411141337905429732
200 152 16487258746563863532
20279233 1 17917997191656481502
20361792 2 13686297959234517338
20645477 56 18412544344453912520
20645477 70 17417819413653321446
20871999 31 17774147041659693599
21119208 17 18411703175034949700
22485316 2 15985099721442468660
23402539 116 18342165718067995628
23402655 69 18272651238015766140
23557571 272 18128826428557866486
23559900 14 18272088314596740628
2748010 2 18050559948324129625
3312278 4 18408604786097276139
4028521 119 18410008823427360477
4990 188 17988927747125367863
69090 78 18131348622158422542
7364860 26 18267581312981368570

>  <PUBCHEM_SHAPE_MULTIPOLES>  (1) 
258.55
8.23
1.52
0.8
0.79
0.06
0.13
-2.56
1.62
0.14
-0.19
0.48
0.09
0.24

>  <PUBCHEM_SHAPE_SELFOVERLAP>  (1) 
520.458

>  <PUBCHEM_SHAPE_VOLUME>  (1) 
153.5

>  <PUBCHEM_COORDINATE_TYPE>  (1) 
2
5
10

$$$$
