24058
     RDKit          3D

 14 13  0  0  1  0  0  0  0  0999 V2000
    0.9758   -0.8437    1.6146 O   0  0  0  0  0  0  0  0  0  0  0  0
    0.0047   -1.5285   -0.3777 N   0  0  0  0  0  0  0  0  0  0  0  0
    1.7945    0.1124   -0.4548 C   0  0  0  0  0  0  0  0  0  0  0  0
    1.5605    1.5879   -0.0754 C   0  0  0  0  0  0  0  0  0  0  0  0
    0.0957    2.0093   -0.2420 C   0  0  0  0  0  0  0  0  0  0  0  0
    3.2715   -0.2592   -0.2273 C   0  0  0  0  0  0  0  0  0  0  0  0
    0.9015   -0.7997    0.3880 C   0  0  0  0  0  0  0  0  0  0  0  0
   -0.1197    3.4534    0.2116 C   0  0  0  0  0  0  0  0  0  0  0  0
   -0.9554   -2.4345    0.2075 C   0  0  0  0  0  0  0  0  0  0  0  0
    3.5985   -1.6944   -0.6188 C   0  0  0  0  0  0  0  0  0  0  0  0
   -2.2768   -1.7483    0.5375 C   0  0  0  0  0  0  0  0  0  0  0  0
   -1.5785    3.8641    0.0893 C   0  0  0  0  0  0  0  0  0  0  0  0
   -2.9653   -1.1714   -0.7015 C   0  0  0  0  0  0  0  0  0  0  0  0
   -4.3072   -0.5474   -0.3511 C   0  0  0  0  0  0  0  0  0  0  0  0
  1  7  2  0
  2  7  1  0
  2  9  1  0
  3  4  1  0
  3  6  1  0
  3  7  1  0
  4  5  1  0
  5  8  1  0
  6 10  1  0
  8 12  1  0
  9 11  1  0
 11 13  1  0
 13 14  1  0
M  END
>  <PUBCHEM_COMPOUND_CID>  (1) 
24058

>  <PUBCHEM_CONFORMER_RMSD>  (1) 
0.8

>  <PUBCHEM_CONFORMER_DIVERSEORDER>  (1) 
1
101
372
421
188
431
272
11
399
450
371
183
308
442
278
192
234
353
220
370
157
274
299
377
208
61
401
9
355
172
122
356
78
261
456
236
92
247
301
310
430
14
361
468
358
402
52
269
210
295
242
75
290
202
244
196
256
138
408
49
168
190
224
452
12
400
268
95
212
246
351
27
221
380
326
83
262
384
145
333
348
58
191
3
106
345
98
393
206
307
280
231
350
373
470
449
332
331
437
85
155
285
394
465
229
316
444
48
121
252
71
398
357
133
368
232
379
46
323
214
253
448
473
410
267
74
16
458
21
471
381
137
13
40
181
387
441
170
171
245
54
84
164
436
432
314
218
128
319
199
207
457
445
175
24
107
51
427
80
349
69
254
425
271
264
344
292
388
153
112
286
466
415
315
4
235
376
124
198
289
62
463
43
362
108
367
226
219
100
423
222
288
429
152
352
63
321
22
275
23
201
375
127
8
309
414
215
328
337
424
297
109
131
454
239
428
263
461
447
180
17
378
41
287
87
209
313
29
250
178
10
472
56
334
7
148
459
446
324
156
72
417
189
233
385
265
35
116
284
110
5
166
386
279
281
132
186
391
407
18
184
412
346
255
420
158
25
120
213
283
151
211
117
293
162
438
404
53
320
28
341
60
33
193
187
464
96
15
469
228
294
146
177
230
302
169
19
276
140
241
161
440
91
89
453
390
20
114
165
460
134
303
330
416
103
369
389
340
322
93
179
409
149
258
139
200
359
227
126
167
305
197
451
111
163
366
343
150
325
6
443
365
47
105
37
403
67
194
136
336
435
173
113
419
405
142
176
240
203
396
422
291
130
119
467
439
154
2
397
223
282
413
339
204
312
335
159
160
270
143
32
118
104
99
277
383
273
97
182
44
455
129
434
39
205
347
327
266
68
462
66
433
82
360
406
94
411
306
363
296
237
243
395
249
225
195
382
392
86
144
115
217
34
81
338
135
57
36
42
174
329
317
260
26
77
55
31
304
300
147
374
45
59
248
354
257
30
418
50
259
298
76
73
342
238
426
64
79
185
311
88
38
251
102
125
141
90
216
318
364
70
123
65

>  <PUBCHEM_MMFF94_PARTIAL_CHARGES>  (1) 
6
1 -0.57
2 -0.73
26 0.37
3 0.06
7 0.57
9 0.3

>  <PUBCHEM_EFFECTIVE_ROTOR_COUNT>  (1) 
9

>  <PUBCHEM_PHARMACOPHORE_FEATURES>  (1) 
6
1 1 acceptor
1 10 hydrophobe
1 12 hydrophobe
1 14 hydrophobe
1 2 donor
5 3 4 5 6 8 hydrophobe

>  <PUBCHEM_HEAVY_ATOM_COUNT>  (1) 
14

>  <PUBCHEM_ATOM_DEF_STEREO_COUNT>  (1) 
0

>  <PUBCHEM_ATOM_UDEF_STEREO_COUNT>  (1) 
1

>  <PUBCHEM_BOND_DEF_STEREO_COUNT>  (1) 
0

>  <PUBCHEM_BOND_UDEF_STEREO_COUNT>  (1) 
0

>  <PUBCHEM_ISOTOPIC_ATOM_COUNT>  (1) 
0

>  <PUBCHEM_COMPONENT_COUNT>  (1) 
1

>  <PUBCHEM_CACTVS_TAUTO_COUNT>  (1) 
2

>  <PUBCHEM_CONFORMER_ID>  (1) 
00005DFA00000001

>  <PUBCHEM_MMFF94_ENERGY>  (1) 
3.0618

>  <PUBCHEM_FEATURE_SELFOVERLAP>  (1) 
30.448

>  <PUBCHEM_SHAPE_FINGERPRINT>  (1) 
104564 63 18266178335927489789
116883 192 18341621365149094334
14250199 8 17907291405861497503
14648413 74 17977666742323395698
17041 50 18337952401947237231
18721546 61 18117852005479771264
20233049 118 18259978284332027943
21130352 189 18339643450698738430
22620623 9 17985284983909708830
23402539 116 18272081695282459247
23530152 11 17474110899564169964
23558518 356 18189067429962498268
305870 269 17330549259964065720
3084891 72 18336261258464011699
3084891 8 18198351658244026646
3524813 1 17968924392764630605
5939293 188 18194673985454543869
6438718 38 17988077765014190861
68521 5 18411144623755728532
7364860 26 17907017635628535902
7832392 63 18196934602593351967
81228 2 18335145254635936184

>  <PUBCHEM_SHAPE_MULTIPOLES>  (1) 
277.26
5.56
4.31
0.89
2.06
5.63
-0.19
-3.49
1.36
1.75
-0.27
-0.06
-0.25
0.1

>  <PUBCHEM_SHAPE_SELFOVERLAP>  (1) 
506.694

>  <PUBCHEM_SHAPE_VOLUME>  (1) 
177

>  <PUBCHEM_COORDINATE_TYPE>  (1) 
2
5
10

$$$$
