24051
     RDKit          3D

 12 12  0  0  0  0  0  0  0  0999 V2000
   -0.5656   -1.9811   -0.3047 O   0  0  0  0  0  0  0  0  0  0  0  0
    1.8064   -0.9109   -0.9029 O   0  0  0  0  0  0  0  0  0  0  0  0
    2.2749    0.9441    0.4093 N   0  0  0  0  0  0  0  0  0  0  0  0
    3.6403    0.7470    0.3339 N   0  0  0  0  0  0  0  0  0  0  0  0
   -0.0162    0.3480   -0.1346 C   0  0  0  0  0  0  0  0  0  0  0  0
   -0.9561   -0.6823   -0.1691 C   0  0  0  0  0  0  0  0  0  0  0  0
   -0.4365    1.6710    0.0032 C   0  0  0  0  0  0  0  0  0  0  0  0
   -2.3160   -0.3894   -0.0658 C   0  0  0  0  0  0  0  0  0  0  0  0
   -1.7965    1.9636    0.1065 C   0  0  0  0  0  0  0  0  0  0  0  0
   -2.7362    0.9334    0.0719 C   0  0  0  0  0  0  0  0  0  0  0  0
    1.4081    0.0644   -0.2421 C   0  0  0  0  0  0  0  0  0  0  0  0
   -0.3064   -2.7078    0.8945 C   0  0  0  0  0  0  0  0  0  0  0  0
  1  6  1  0
  1 12  1  0
  2 11  2  0
  3  4  1  0
  3 11  1  0
  5  6  2  0
  5  7  1  0
  5 11  1  0
  6  8  1  0
  7  9  2  0
  8 10  2  0
  9 10  1  0
M  END
>  <PUBCHEM_COMPOUND_CID>  (1) 
24051

>  <PUBCHEM_CONFORMER_RMSD>  (1) 
0.6

>  <PUBCHEM_CONFORMER_DIVERSEORDER>  (1) 
1
4
3
2

>  <PUBCHEM_MMFF94_PARTIAL_CHARGES>  (1) 
19
1 -0.36
10 -0.15
11 0.54
12 0.28
13 0.15
14 0.15
15 0.15
16 0.15
17 0.37
2 -0.57
21 0.36
22 0.36
3 -0.42
4 -0.73
5 0.09
6 0.08
7 -0.15
8 -0.15
9 -0.15

>  <PUBCHEM_EFFECTIVE_ROTOR_COUNT>  (1) 
3

>  <PUBCHEM_PHARMACOPHORE_FEATURES>  (1) 
5
1 1 acceptor
1 2 acceptor
1 3 donor
1 4 donor
6 5 6 7 8 9 10 rings

>  <PUBCHEM_HEAVY_ATOM_COUNT>  (1) 
12

>  <PUBCHEM_ATOM_DEF_STEREO_COUNT>  (1) 
0

>  <PUBCHEM_ATOM_UDEF_STEREO_COUNT>  (1) 
0

>  <PUBCHEM_BOND_DEF_STEREO_COUNT>  (1) 
0

>  <PUBCHEM_BOND_UDEF_STEREO_COUNT>  (1) 
0

>  <PUBCHEM_ISOTOPIC_ATOM_COUNT>  (1) 
0

>  <PUBCHEM_COMPONENT_COUNT>  (1) 
1

>  <PUBCHEM_CACTVS_TAUTO_COUNT>  (1) 
2

>  <PUBCHEM_CONFORMER_ID>  (1) 
00005DF300000001

>  <PUBCHEM_MMFF94_ENERGY>  (1) 
43.5166

>  <PUBCHEM_FEATURE_SELFOVERLAP>  (1) 
26.885

>  <PUBCHEM_SHAPE_FINGERPRINT>  (1) 
12423570 1 7963587863626519359
12716758 59 18411144631987044750
13024252 1 13767914728670523421
13380535 76 18342453746911605374
14325111 11 18341050713907958148
15490181 7 18194682566598501021
16945 1 18339650056405769621
193761 8 17761491387798430141
20645464 45 18273497866448633260
20645476 183 17822871851878069718
20871998 184 18127697242811190302
21040471 1 18409738343450571165
23211744 41 18272655601776119173
23402539 116 18269540792819744455
23552423 10 18119537526814246461
23559900 14 17983305829258855366
2748010 2 18338807714687679149
305870 269 18190174585967260576
43471831 8 18261951856059147075
5084963 1 18201164239078450325
5255222 1 17759529863096211773
6333449 129 18343016722271028372
7364860 26 17908700631427477667
75552 356 18264204875843607824
81228 2 18265903646930697571

>  <PUBCHEM_SHAPE_MULTIPOLES>  (1) 
225.25
3.83
2.42
0.75
2.25
1.46
-0.01
-1.85
-0.24
-0.47
-0.52
0.12
0.19
0.15

>  <PUBCHEM_SHAPE_SELFOVERLAP>  (1) 
467.646

>  <PUBCHEM_SHAPE_VOLUME>  (1) 
128.5

>  <PUBCHEM_COORDINATE_TYPE>  (1) 
2
5
10

$$$$
