24055
     RDKit          3D

 12 13  0  0  0  0  0  0  0  0999 V2000
   -1.4398   -2.1109   -0.0004 O   0  0  0  0  0  0  0  0  0  0  0  0
    0.3084   -0.4549    0.0001 C   0  0  0  0  0  0  0  0  0  0  0  0
    0.6768    0.9116    0.0000 C   0  0  0  0  0  0  0  0  0  0  0  0
   -1.0530   -0.7992    0.0000 C   0  0  0  0  0  0  0  0  0  0  0  0
   -2.0373    0.1894   -0.0001 C   0  0  0  0  0  0  0  0  0  0  0  0
   -0.3274    1.8936   -0.0001 C   0  0  0  0  0  0  0  0  0  0  0  0
   -1.6752    1.5332   -0.0002 C   0  0  0  0  0  0  0  0  0  0  0  0
    1.3125   -1.4369    0.0001 C   0  0  0  0  0  0  0  0  0  0  0  0
    2.0383    1.2559    0.0000 C   0  0  0  0  0  0  0  0  0  0  0  0
   -3.4864   -0.1721    0.0005 C   0  0  0  0  0  0  0  0  0  0  0  0
    2.6604   -1.0767    0.0001 C   0  0  0  0  0  0  0  0  0  0  0  0
    3.0225    0.2671    0.0000 C   0  0  0  0  0  0  0  0  0  0  0  0
  1  4  1  0
  2  3  1  0
  2  4  2  0
  2  8  1  0
  3  6  2  0
  3  9  1  0
  4  5  1  0
  5  7  2  0
  5 10  1  0
  6  7  1  0
  8 11  2  0
  9 12  2  0
 11 12  1  0
M  END
>  <PUBCHEM_COMPOUND_CID>  (1) 
24055

>  <PUBCHEM_CONFORMER_RMSD>  (1) 
0.4

>  <PUBCHEM_CONFORMER_DIVERSEORDER>  (1) 
1

>  <PUBCHEM_MMFF94_PARTIAL_CHARGES>  (1) 
17
1 -0.53
10 0.14
11 -0.15
12 -0.15
13 0.15
14 0.15
15 0.15
16 0.15
20 0.15
21 0.15
22 0.45
4 0.08
5 -0.14
6 -0.15
7 -0.15
8 -0.15
9 -0.15

>  <PUBCHEM_EFFECTIVE_ROTOR_COUNT>  (1) 
0

>  <PUBCHEM_PHARMACOPHORE_FEATURES>  (1) 
3
1 1 donor
6 2 3 4 5 6 7 rings
6 2 3 8 9 11 12 rings

>  <PUBCHEM_HEAVY_ATOM_COUNT>  (1) 
12

>  <PUBCHEM_ATOM_DEF_STEREO_COUNT>  (1) 
0

>  <PUBCHEM_ATOM_UDEF_STEREO_COUNT>  (1) 
0

>  <PUBCHEM_BOND_DEF_STEREO_COUNT>  (1) 
0

>  <PUBCHEM_BOND_UDEF_STEREO_COUNT>  (1) 
0

>  <PUBCHEM_ISOTOPIC_ATOM_COUNT>  (1) 
0

>  <PUBCHEM_COMPONENT_COUNT>  (1) 
1

>  <PUBCHEM_CACTVS_TAUTO_COUNT>  (1) 
3

>  <PUBCHEM_CONFORMER_ID>  (1) 
00005DF700000001

>  <PUBCHEM_MMFF94_ENERGY>  (1) 
37.6021

>  <PUBCHEM_FEATURE_SELFOVERLAP>  (1) 
15.249

>  <PUBCHEM_SHAPE_FINGERPRINT>  (1) 
10967382 1 18410855490208770118
11206711 2 18264490589689360989
11471102 20 18410288103928789021
12032990 46 18409737257093058867
12382932 28 18340483473434838466
12423570 1 10770169345728143783
12524768 44 18412830170148065622
12897270 3 18410856581330962420
13380535 76 18411416224033309502
14325111 11 18410855417242110657
16945 1 18410575089079521412
17844478 74 18040444282514090505
193761 8 17689999363459026437
20201158 50 18410009935707650482
20510252 161 18201156546707945976
20588541 1 18411703205094406827
20871998 184 18201722885511766047
21040471 1 18338798901457147904
21501502 16 18339082566772221032
2334 1 17906172102512348002
23402539 116 18342725304698079447
23402655 69 18341321228745184949
23463225 33 18408322172621721024
23552423 10 18261394515469709388
23559900 14 18198909103188519470
2748010 2 18050567648894666052
369184 2 18412543184744040888
5084963 1 18129940061863823955
528886 8 18411695530130338794
53812653 166 18200026386457133776
7364860 26 18343022237637004716
8809292 202 18261397771023674218

>  <PUBCHEM_SHAPE_MULTIPOLES>  (1) 
241.09
4.4
1.95
0.61
0.44
0.03
0
0.43
0
0.11
0
-0.01
-0.02
0

>  <PUBCHEM_SHAPE_SELFOVERLAP>  (1) 
529.76

>  <PUBCHEM_SHAPE_VOLUME>  (1) 
131.8

>  <PUBCHEM_COORDINATE_TYPE>  (1) 
2
5
10

$$$$
