24068
     RDKit          3D

 20 20  0  0  0  0  0  0  0  0999 V2000
   -3.0989   -1.7810    1.5062 O   0  0  0  0  0  0  0  0  0  0  0  0
    4.5545    0.2629   -1.7246 O   0  0  0  0  0  0  0  0  0  0  0  0
   -1.8214   -2.7269   -0.1380 N   0  0  0  0  0  0  0  0  0  0  0  0
    3.8337   -0.0948    0.4915 N   0  0  0  0  0  0  0  0  0  0  0  0
   -1.8237   -0.2611    0.0586 C   0  0  0  0  0  0  0  0  0  0  0  0
   -2.4186    0.8478    0.9969 C   0  0  0  0  0  0  0  0  0  0  0  0
   -2.3439   -0.0860   -1.4121 C   0  0  0  0  0  0  0  0  0  0  0  0
   -0.2801   -0.2161    0.1767 C   0  0  0  0  0  0  0  0  0  0  0  0
   -2.3192   -1.6480    0.5634 C   0  0  0  0  0  0  0  0  0  0  0  0
    0.4436   -0.0188   -0.9663 C   0  0  0  0  0  0  0  0  0  0  0  0
    0.2719   -0.3758    1.4170 C   0  0  0  0  0  0  0  0  0  0  0  0
   -2.0637    2.2627    0.6238 C   0  0  0  0  0  0  0  0  0  0  0  0
   -3.8430   -0.0396   -1.5622 C   0  0  0  0  0  0  0  0  0  0  0  0
    1.8340    0.0222   -0.8601 C   0  0  0  0  0  0  0  0  0  0  0  0
    1.6621   -0.3346    1.5233 C   0  0  0  0  0  0  0  0  0  0  0  0
    2.4432   -0.1358    0.3849 C   0  0  0  0  0  0  0  0  0  0  0  0
   -1.4736    3.1291    1.4551 C   0  0  0  0  0  0  0  0  0  0  0  0
   -4.5180    1.0274   -2.0046 C   0  0  0  0  0  0  0  0  0  0  0  0
    4.7746    0.0933   -0.5297 C   0  0  0  0  0  0  0  0  0  0  0  0
    6.1864    0.0731    0.0000 C   0  0  0  0  0  0  0  0  0  0  0  0
  1  9  2  0
  2 19  2  0
  3  9  1  0
  4 16  1  0
  4 19  1  0
  5  6  1  0
  5  7  1  0
  5  8  1  0
  5  9  1  0
  6 12  1  0
  7 13  1  0
  8 10  2  0
  8 11  1  0
 10 14  1  0
 11 15  2  0
 12 17  2  0
 13 18  2  0
 14 16  2  0
 15 16  1  0
 19 20  1  0
M  END
>  <PUBCHEM_COMPOUND_CID>  (1) 
24068

>  <PUBCHEM_CONFORMER_RMSD>  (1) 
0.8

>  <PUBCHEM_CONFORMER_DIVERSEORDER>  (1) 
1
27
39
36
49
54
19
28
7
21
44
52
30
24
41
32
13
31
15
46
35
22
47
17
40
11
42
25
51
50
14
45
37
43
29
48
18
5
20
2
16
38
33
4
34
9
10
26
23
3
6
53
8
12

>  <PUBCHEM_MMFF94_PARTIAL_CHARGES>  (1) 
33
1 -0.57
10 -0.15
11 -0.15
12 -0.29
13 -0.29
14 -0.15
15 -0.15
16 0.12
17 -0.3
18 -0.3
19 0.57
2 -0.57
20 0.06
25 0.15
26 0.15
27 0.15
28 0.15
29 0.15
3 -0.8
30 0.15
31 0.37
32 0.37
33 0.15
34 0.15
35 0.15
36 0.15
37 0.37
4 -0.55
5 0.2
6 0.14
7 0.14
8 -0.14
9 0.57

>  <PUBCHEM_EFFECTIVE_ROTOR_COUNT>  (1) 
8

>  <PUBCHEM_PHARMACOPHORE_FEATURES>  (1) 
8
1 1 acceptor
1 17 hydrophobe
1 18 hydrophobe
1 2 acceptor
1 3 donor
1 4 donor
5 5 6 7 12 13 hydrophobe
6 8 10 11 14 15 16 rings

>  <PUBCHEM_HEAVY_ATOM_COUNT>  (1) 
20

>  <PUBCHEM_ATOM_DEF_STEREO_COUNT>  (1) 
0

>  <PUBCHEM_ATOM_UDEF_STEREO_COUNT>  (1) 
0

>  <PUBCHEM_BOND_DEF_STEREO_COUNT>  (1) 
0

>  <PUBCHEM_BOND_UDEF_STEREO_COUNT>  (1) 
0

>  <PUBCHEM_ISOTOPIC_ATOM_COUNT>  (1) 
0

>  <PUBCHEM_COMPONENT_COUNT>  (1) 
1

>  <PUBCHEM_CACTVS_TAUTO_COUNT>  (1) 
4

>  <PUBCHEM_CONFORMER_ID>  (1) 
00005E0400000001

>  <PUBCHEM_MMFF94_ENERGY>  (1) 
63.7787

>  <PUBCHEM_FEATURE_SELFOVERLAP>  (1) 
40.602

>  <PUBCHEM_SHAPE_FINGERPRINT>  (1) 
10366900 7 18060129938597552346
10680689 15 17703796911959661796
11315181 36 18333735728495980856
11578080 2 17970902495998952557
12173636 292 18267881500723912187
12293681 160 18269819940420461985
12403814 3 17560808757171618784
12596599 1 18114479902370642612
12788726 201 18270670962193396961
16945 1 18343299275374155851
17357779 13 17417514883076186125
187816 3 18341599413829479869
19489759 90 18131346380823686712
20645477 70 15912774878256274788
20871999 31 17988918933884514601
21524375 3 17409097898433146145
22094290 60 18272377477206234658
2306618 200 17967818249459676005
23402539 116 18202281390342684789
23557571 272 18337114561154380170
23559900 14 18341039809655660144
2838139 119 16660911202434674797
34934 24 16805592634181621151
465052 167 10950616397523859925
5104073 3 15285359557208181804
56616090 284 18201427112894778271
59755656 520 18262239915768874203
81228 2 18130783422191128329
90127 26 15502385530353695124

>  <PUBCHEM_SHAPE_MULTIPOLES>  (1) 
389.89
9.6
2.07
1.78
14.08
1.23
-0.33
0.13
-4.39
-2.74
1.02
-1.21
-0.09
0.23

>  <PUBCHEM_SHAPE_SELFOVERLAP>  (1) 
799.995

>  <PUBCHEM_SHAPE_VOLUME>  (1) 
223

>  <PUBCHEM_COORDINATE_TYPE>  (1) 
2
5
10

$$$$
