24061
     RDKit          3D

 16 16  0  0  0  0  0  0  0  0999 V2000
    0.3057   -2.4905   -0.6825 Cl  0  0  0  0  0  0  0  0  0  0  0  0
   -0.0685    2.9023   -0.4852 Cl  0  0  0  0  0  0  0  0  0  0  0  0
    3.3461   -2.2911    0.2167 Cl  0  0  0  0  0  0  0  0  0  0  0  0
    4.6006    0.5973    0.7458 Cl  0  0  0  0  0  0  0  0  0  0  0  0
   -1.0225    0.1157   -0.9225 O   0  0  0  0  0  0  0  0  0  0  0  0
   -1.6008   -0.0062    1.3407 O   0  0  0  0  0  0  0  0  0  0  0  0
   -3.3072   -0.0774   -0.3953 C   0  0  0  0  0  0  0  0  0  0  0  0
   -4.3454   -0.2198    0.7148 C   0  0  0  0  0  0  0  0  0  0  0  0
   -1.9007    0.0116    0.1546 C   0  0  0  0  0  0  0  0  0  0  0  0
   -5.7514   -0.3422    0.1506 C   0  0  0  0  0  0  0  0  0  0  0  0
    0.3143    0.2046   -0.5272 C   0  0  0  0  0  0  0  0  0  0  0  0
    1.0511   -0.9521   -0.3776 C   0  0  0  0  0  0  0  0  0  0  0  0
    0.8528    1.4545   -0.2992 C   0  0  0  0  0  0  0  0  0  0  0  0
    2.3854   -0.8551    0.0171 C   0  0  0  0  0  0  0  0  0  0  0  0
    2.1871    1.5516    0.0956 C   0  0  0  0  0  0  0  0  0  0  0  0
    2.9533    0.3968    0.2537 C   0  0  0  0  0  0  0  0  0  0  0  0
  1 12  1  0
  2 13  1  0
  3 14  1  0
  4 16  1  0
  5  9  1  0
  5 11  1  0
  6  9  2  0
  7  8  1  0
  7  9  1  0
  8 10  1  0
 11 12  2  0
 11 13  1  0
 12 14  1  0
 13 15  2  0
 14 16  2  0
 15 16  1  0
M  END
>  <PUBCHEM_COMPOUND_CID>  (1) 
24061

>  <PUBCHEM_CONFORMER_RMSD>  (1) 
0.6

>  <PUBCHEM_CONFORMER_DIVERSEORDER>  (1) 
1
31
17
34
21
14
30
26
19
8
33
13
38
25
40
9
35
22
24
36
11
32
18
27
16
20
28
2
37
6
39
29
10
23
4
12
7
15
5
3

>  <PUBCHEM_MMFF94_PARTIAL_CHARGES>  (1) 
15
1 -0.18
11 0.08
12 0.18
13 0.18
14 0.18
15 -0.15
16 0.18
2 -0.18
24 0.15
3 -0.18
4 -0.18
5 -0.23
6 -0.57
7 0.06
9 0.66

>  <PUBCHEM_EFFECTIVE_ROTOR_COUNT>  (1) 
4

>  <PUBCHEM_PHARMACOPHORE_FEATURES>  (1) 
3
1 10 hydrophobe
1 6 acceptor
6 11 12 13 14 15 16 rings

>  <PUBCHEM_HEAVY_ATOM_COUNT>  (1) 
16

>  <PUBCHEM_ATOM_DEF_STEREO_COUNT>  (1) 
0

>  <PUBCHEM_ATOM_UDEF_STEREO_COUNT>  (1) 
0

>  <PUBCHEM_BOND_DEF_STEREO_COUNT>  (1) 
0

>  <PUBCHEM_BOND_UDEF_STEREO_COUNT>  (1) 
0

>  <PUBCHEM_ISOTOPIC_ATOM_COUNT>  (1) 
0

>  <PUBCHEM_COMPONENT_COUNT>  (1) 
1

>  <PUBCHEM_CACTVS_TAUTO_COUNT>  (1) 
1

>  <PUBCHEM_CONFORMER_ID>  (1) 
00005DFD00000001

>  <PUBCHEM_MMFF94_ENERGY>  (1) 
33.7235

>  <PUBCHEM_FEATURE_SELFOVERLAP>  (1) 
15.223

>  <PUBCHEM_SHAPE_FINGERPRINT>  (1) 
10219947 1 18411420613415636799
10493431 412 18197773500275126816
11471102 22 18408328786929418320
11578080 2 17055506121407432009
12011746 2 18409737261525091862
12236239 1 17704353286165178719
12251169 10 18411418440172792911
12346645 6 18341898497549689734
12507560 14 18412544297341076087
13140716 1 18122615313701526352
14178342 30 17909529989928534834
14251717 144 18411702093062036511
14252887 29 18335422357061509610
14790565 3 18338244881042292532
15219456 202 18263073344976197077
16945 1 18339067268694759796
200 152 18272928319984484549
20645477 70 18409165494067401231
20871998 22 18336829693295781228
21501502 16 18192999210249594692
21637258 2 15575257866407114216
22182313 1 18266724793765774516
22224240 67 18341039826867067536
23184049 59 18412826888798170319
2334 1 17761763362803211412
23402539 116 18334286596358187085
23557571 272 17022895735855711397
23558518 356 17972323910624258928
26918003 58 18334576871664774235
2748010 2 18123173625127132780
3060560 45 18272662258875383454
31174 14 18412819166884821936
3250762 1 17835237840170323964
33824 294 18409448076818685082
4047638 21 11600002146041739966
465052 167 18114184159043361722
5104073 3 18339357440336784249
69090 78 18334574685584884387
77492 1 17632288004035603413
81228 2 17899150312088875157
8272917 22 18342185449005374127

>  <PUBCHEM_SHAPE_MULTIPOLES>  (1) 
325.01
8.56
2.43
0.91
9.7
0.21
-0.08
-1.54
-2.54
-1.85
0.52
0.15
-0.02
0.18

>  <PUBCHEM_SHAPE_SELFOVERLAP>  (1) 
635.721

>  <PUBCHEM_SHAPE_VOLUME>  (1) 
199.2

>  <PUBCHEM_COORDINATE_TYPE>  (1) 
2
5
10

$$$$
