24063
     RDKit          3D

 20 22  0  0  0  0  0  0  0  0999 V2000
    4.2149   -1.0212    0.0001 O   0  0  0  0  0  0  0  0  0  0  0  0
    2.2169    0.1498   -0.0003 N   0  0  0  0  0  0  0  0  0  0  0  0
    0.8966   -2.2842    0.0002 N   0  0  0  0  0  0  0  0  0  0  0  0
    2.2454   -2.2468    0.0003 N   0  0  0  0  0  0  0  0  0  0  0  0
    0.8782    0.0761   -0.0003 C   0  0  0  0  0  0  0  0  0  0  0  0
    0.2164   -1.1234   -0.0001 C   0  0  0  0  0  0  0  0  0  0  0  0
    0.2044    1.3566   -0.0002 C   0  0  0  0  0  0  0  0  0  0  0  0
   -1.2204   -1.2566    0.0000 C   0  0  0  0  0  0  0  0  0  0  0  0
   -0.1201    1.9737    1.2079 C   0  0  0  0  0  0  0  0  0  0  0  0
   -0.1203    1.9742   -1.2082 C   0  0  0  0  0  0  0  0  0  0  0  0
   -1.9188   -1.3215   -1.2079 C   0  0  0  0  0  0  0  0  0  0  0  0
   -1.9189   -1.3217    1.2081 C   0  0  0  0  0  0  0  0  0  0  0  0
   -0.7694    3.2082    1.2083 C   0  0  0  0  0  0  0  0  0  0  0  0
   -0.7695    3.2089   -1.2077 C   0  0  0  0  0  0  0  0  0  0  0  0
   -3.3077   -1.4505   -1.2081 C   0  0  0  0  0  0  0  0  0  0  0  0
   -3.3077   -1.4510    1.2079 C   0  0  0  0  0  0  0  0  0  0  0  0
   -1.0940    3.8258    0.0005 C   0  0  0  0  0  0  0  0  0  0  0  0
   -4.0021   -1.5154   -0.0003 C   0  0  0  0  0  0  0  0  0  0  0  0
    2.8406   -1.0377    0.0001 C   0  0  0  0  0  0  0  0  0  0  0  0
    4.8356    0.2568   -0.0002 C   0  0  0  0  0  0  0  0  0  0  0  0
  1 19  1  0
  1 20  1  0
  2  5  2  0
  2 19  1  0
  3  4  1  0
  3  6  2  0
  4 19  2  0
  5  6  1  0
  5  7  1  0
  6  8  1  0
  7  9  2  0
  7 10  1  0
  8 11  2  0
  8 12  1  0
  9 13  1  0
 10 14  2  0
 11 15  1  0
 12 16  2  0
 13 17  2  0
 14 17  1  0
 15 18  2  0
 16 18  1  0
M  END
>  <PUBCHEM_COMPOUND_CID>  (1) 
24063

>  <PUBCHEM_CONFORMER_RMSD>  (1) 
0.6

>  <PUBCHEM_CONFORMER_DIVERSEORDER>  (1) 
1
2
3

>  <PUBCHEM_MMFF94_PARTIAL_CHARGES>  (1) 
28
1 -0.36
10 -0.15
11 -0.15
12 -0.15
13 -0.15
14 -0.15
15 -0.15
16 -0.15
17 -0.15
18 -0.15
19 0.7
2 -0.62
20 0.28
21 0.15
22 0.15
23 0.15
24 0.15
25 0.15
26 0.15
27 0.15
28 0.15
29 0.15
3 -0.31
30 0.15
4 -0.31
5 0.31
6 0.31
9 -0.15

>  <PUBCHEM_EFFECTIVE_ROTOR_COUNT>  (1) 
3

>  <PUBCHEM_PHARMACOPHORE_FEATURES>  (1) 
4
3 2 4 19 cation
6 2 3 4 5 6 19 rings
6 7 9 10 13 14 17 rings
6 8 11 12 15 16 18 rings

>  <PUBCHEM_HEAVY_ATOM_COUNT>  (1) 
20

>  <PUBCHEM_ATOM_DEF_STEREO_COUNT>  (1) 
0

>  <PUBCHEM_ATOM_UDEF_STEREO_COUNT>  (1) 
0

>  <PUBCHEM_BOND_DEF_STEREO_COUNT>  (1) 
0

>  <PUBCHEM_BOND_UDEF_STEREO_COUNT>  (1) 
0

>  <PUBCHEM_ISOTOPIC_ATOM_COUNT>  (1) 
0

>  <PUBCHEM_COMPONENT_COUNT>  (1) 
1

>  <PUBCHEM_CACTVS_TAUTO_COUNT>  (1) 
1

>  <PUBCHEM_CONFORMER_ID>  (1) 
00005DFF00000001

>  <PUBCHEM_MMFF94_ENERGY>  (1) 
71.4439

>  <PUBCHEM_FEATURE_SELFOVERLAP>  (1) 
20.297

>  <PUBCHEM_SHAPE_FINGERPRINT>  (1) 
10165383 225 16819148814289763637
104564 63 18339646646133034759
10670039 82 18262818332538183420
11578080 2 17344596341342149867
12788726 201 18263352608081524331
13004483 165 18410848828799280083
13132413 78 18341904042558515273
13134695 92 18268988868216183405
13140716 1 18410862065909630929
13681431 1 18191864741497881201
13911987 19 18188780581786957350
13965767 371 17339887043041543371
14955137 171 18053405441272553146
15238133 3 18189639214642392471
17138139 8 17549495719495296269
17357779 13 18340473534790864173
17357990 137 17413909670669606819
17980427 23 16844735360400911761
1813 80 18199206111895914366
18785283 64 17684379725454581331
20510252 161 18411133611333071938
20600515 1 17967828170544246047
20671657 1 17835526290363794791
21029758 11 18339074994718471943
21029758 27 18336834198463319007
21041028 32 18337965579254801105
21160774 45 18122060910332435037
21197605 99 17908441156307706985
21524375 3 17399522216789634746
21641784 216 18188225246715424732
23175994 123 18260833747391576303
23558518 356 18044104462371170882
2748010 2 18193814124048044333
283562 15 18409165485493277978
350125 39 18411422809093828728
352729 6 17695622957645537050
458136 41 17182518715471839339
68521 5 18410294692287217284
6992083 37 17988365970057201647
7164475 11 18338233752849866318
7364860 26 17979634864084402671
7471813 234 17915734469988895335
81228 2 18262806146470648248
84936 182 17480581977024328209
9981440 41 17123051276985947066

>  <PUBCHEM_SHAPE_MULTIPOLES>  (1) 
390.78
5.98
4.13
1.21
3.46
5.08
0
-5.33
0
-0.67
0
-0.87
0.43
0

>  <PUBCHEM_SHAPE_SELFOVERLAP>  (1) 
859.326

>  <PUBCHEM_SHAPE_VOLUME>  (1) 
209.2

>  <PUBCHEM_COORDINATE_TYPE>  (1) 
2
5
10

$$$$
