24071
     RDKit          3D

 20 20  0  0  0  0  0  0  0  0999 V2000
   -2.9051    1.3961   -1.9894 O   0  0  0  0  0  0  0  0  0  0  0  0
    4.5258   -0.7450   -0.9689 O   0  0  0  0  0  0  0  0  0  0  0  0
   -1.7080    2.6914   -0.5336 N   0  0  0  0  0  0  0  0  0  0  0  0
    4.5916    0.4915    0.9931 N   0  0  0  0  0  0  0  0  0  0  0  0
    5.9711    0.4531    1.0602 N   0  0  0  0  0  0  0  0  0  0  0  0
   -1.7950    0.2542   -0.1198 C   0  0  0  0  0  0  0  0  0  0  0  0
   -2.3671   -1.0392   -0.8008 C   0  0  0  0  0  0  0  0  0  0  0  0
   -2.4224    0.4595    1.3044 C   0  0  0  0  0  0  0  0  0  0  0  0
   -0.2499    0.1481   -0.1041 C   0  0  0  0  0  0  0  0  0  0  0  0
   -2.1986    1.4836   -0.9856 C   0  0  0  0  0  0  0  0  0  0  0  0
    0.3922   -0.0158   -1.2998 C   0  0  0  0  0  0  0  0  0  0  0  0
    0.3852    0.2255    1.1041 C   0  0  0  0  0  0  0  0  0  0  0  0
   -2.0956   -2.3252   -0.0662 C   0  0  0  0  0  0  0  0  0  0  0  0
   -3.9289    0.4839    1.3454 C   0  0  0  0  0  0  0  0  0  0  0  0
    1.7839   -0.1102   -1.2864 C   0  0  0  0  0  0  0  0  0  0  0  0
    1.7769    0.1310    1.1175 C   0  0  0  0  0  0  0  0  0  0  0  0
    2.4762   -0.0368   -0.0777 C   0  0  0  0  0  0  0  0  0  0  0  0
   -1.4843   -3.3827   -0.6119 C   0  0  0  0  0  0  0  0  0  0  0  0
   -4.6750   -0.4258    1.9824 C   0  0  0  0  0  0  0  0  0  0  0  0
    3.9270   -0.1372   -0.0629 C   0  0  0  0  0  0  0  0  0  0  0  0
  1 10  2  0
  2 20  2  0
  3 10  1  0
  4  5  1  0
  4 20  1  0
  6  7  1  0
  6  8  1  0
  6  9  1  0
  6 10  1  0
  7 13  1  0
  8 14  1  0
  9 11  2  0
  9 12  1  0
 11 15  1  0
 12 16  2  0
 13 18  2  0
 14 19  2  0
 15 17  2  0
 16 17  1  0
 17 20  1  0
M  END
>  <PUBCHEM_COMPOUND_CID>  (1) 
24071

>  <PUBCHEM_CONFORMER_RMSD>  (1) 
0.8

>  <PUBCHEM_CONFORMER_DIVERSEORDER>  (1) 
1
35
25
3
37
41
33
62
24
11
61
64
13
45
56
10
26
44
4
59
21
20
42
51
46
60
55
2
7
54
58
30
57
8
63
36
43
47
53
16
18
34
12
49
29
65
48
6
39
40
52
31
17
19
23
15
22
50
5
14
27
38
32
28
9

>  <PUBCHEM_MMFF94_PARTIAL_CHARGES>  (1) 
35
1 -0.57
10 0.57
11 -0.15
12 -0.15
13 -0.29
14 -0.29
15 -0.15
16 -0.15
17 0.09
18 -0.3
19 -0.3
2 -0.57
20 0.54
25 0.15
26 0.15
27 0.15
28 0.15
29 0.15
3 -0.8
30 0.15
31 0.37
32 0.37
33 0.15
34 0.15
35 0.15
36 0.15
37 0.37
38 0.36
39 0.36
4 -0.42
5 -0.73
6 0.2
7 0.14
8 0.14
9 -0.14

>  <PUBCHEM_EFFECTIVE_ROTOR_COUNT>  (1) 
8

>  <PUBCHEM_PHARMACOPHORE_FEATURES>  (1) 
9
1 1 acceptor
1 18 hydrophobe
1 19 hydrophobe
1 2 acceptor
1 3 donor
1 4 donor
1 5 donor
5 6 7 8 13 14 hydrophobe
6 9 11 12 15 16 17 rings

>  <PUBCHEM_HEAVY_ATOM_COUNT>  (1) 
20

>  <PUBCHEM_ATOM_DEF_STEREO_COUNT>  (1) 
0

>  <PUBCHEM_ATOM_UDEF_STEREO_COUNT>  (1) 
0

>  <PUBCHEM_BOND_DEF_STEREO_COUNT>  (1) 
0

>  <PUBCHEM_BOND_UDEF_STEREO_COUNT>  (1) 
0

>  <PUBCHEM_ISOTOPIC_ATOM_COUNT>  (1) 
0

>  <PUBCHEM_COMPONENT_COUNT>  (1) 
1

>  <PUBCHEM_CACTVS_TAUTO_COUNT>  (1) 
4

>  <PUBCHEM_CONFORMER_ID>  (1) 
00005E0700000001

>  <PUBCHEM_MMFF94_ENERGY>  (1) 
62.4553

>  <PUBCHEM_FEATURE_SELFOVERLAP>  (1) 
47.183

>  <PUBCHEM_SHAPE_FINGERPRINT>  (1) 
10680689 15 18334011692517856912
12403814 3 18335426785320672937
12500047 106 18337375068311547246
12633257 1 18272090538683068104
13214271 11 16702024196664704145
13581323 91 18187092740768707974
13583140 156 17821998801144052912
13675066 3 17967532337971386216
13760787 5 16988559066295017292
14289901 80 18261384573100506152
15309172 13 18339933632143623411
16945 1 18410569574257059029
18186145 218 18202566155617525302
200 152 16081094809304745561
20600515 1 18199765785216471853
20645477 56 18411697677751286148
20645477 70 16774080631810516622
21033648 29 18270105830138425424
22112679 90 18118417360831331351
22182313 1 18117570530724964055
22224240 67 18130238090641636483
23402539 116 17167863084266350571
23557571 272 18341602754918767220
23559900 14 18202563961290520862
23598288 3 17894633673156695423
4340502 62 17845112722125539267
45790113 50 16516267226322120183
465052 167 17679894723679636027
5104073 3 17632291290192591346
633830 44 16702306737336753420
81228 2 18125148583965209839

>  <PUBCHEM_SHAPE_MULTIPOLES>  (1) 
384.91
9
2.12
1.69
11.02
1.66
0.02
-0.98
-4.04
-2.28
0.68
-1.14
-0.48
0.71

>  <PUBCHEM_SHAPE_SELFOVERLAP>  (1) 
794.911

>  <PUBCHEM_SHAPE_VOLUME>  (1) 
218.8

>  <PUBCHEM_COORDINATE_TYPE>  (1) 
2
5
10

$$$$
