2407
     RDKit          3D

 19 20  0  0  0  0  0  0  0  0999 V2000
   -4.9111   -1.3968   -0.2532 Cl  0  0  0  0  0  0  0  0  0  0  0  0
    4.9127    1.3965   -0.2534 Cl  0  0  0  0  0  0  0  0  0  0  0  0
   -2.1810    2.8670   -2.0131 Cl  0  0  0  0  0  0  0  0  0  0  0  0
    2.1824   -2.8670   -2.0136 Cl  0  0  0  0  0  0  0  0  0  0  0  0
    0.0009   -0.0002    2.0160 S   0  0  0  0  0  0  0  0  0  0  0  0
   -2.5679   -1.6374    1.6165 O   0  0  0  0  0  0  0  0  0  0  0  0
    2.5696    1.6370    1.6165 O   0  0  0  0  0  0  0  0  0  0  0  0
   -1.3705    0.2089    0.8650 C   0  0  0  0  0  0  0  0  0  0  0  0
    1.3572   -0.2069    0.8773 C   0  0  0  0  0  0  0  0  0  0  0  0
   -2.4788   -0.6365    0.8130 C   0  0  0  0  0  0  0  0  0  0  0  0
    2.4805    0.6362    0.8129 C   0  0  0  0  0  0  0  0  0  0  0  0
   -1.2782    1.2923   -0.0086 C   0  0  0  0  0  0  0  0  0  0  0  0
    1.2798   -1.2925   -0.0089 C   0  0  0  0  0  0  0  0  0  0  0  0
   -3.4949   -0.3984   -0.1125 C   0  0  0  0  0  0  0  0  0  0  0  0
    3.4964    0.3981   -0.1127 C   0  0  0  0  0  0  0  0  0  0  0  0
   -2.2942    1.5304   -0.9343 C   0  0  0  0  0  0  0  0  0  0  0  0
    2.2958   -1.5306   -0.9346 C   0  0  0  0  0  0  0  0  0  0  0  0
   -3.4026    0.6851   -0.9861 C   0  0  0  0  0  0  0  0  0  0  0  0
    3.4041   -0.6852   -0.9864 C   0  0  0  0  0  0  0  0  0  0  0  0
  1 14  1  0
  2 15  1  0
  3 16  1  0
  4 17  1  0
  5  8  1  0
  5  9  1  0
  6 10  1  0
  7 11  1  0
  8 10  2  0
  8 12  1  0
  9 11  2  0
  9 13  1  0
 10 14  1  0
 11 15  1  0
 12 16  2  0
 13 17  2  0
 14 18  2  0
 15 19  2  0
 16 18  1  0
 17 19  1  0
M  CHG  2   6  -1   7  -1
M  END
>  <PUBCHEM_COMPOUND_CID>  (1) 
2407

>  <PUBCHEM_CONFORMER_RMSD>  (1) 
0.6

>  <PUBCHEM_CONFORMER_DIVERSEORDER>  (1) 
1
11
14
16
3
7
6
13
4
5
8
15
2
12
10
9

>  <PUBCHEM_MMFF94_PARTIAL_CHARGES>  (1) 
23
1 -0.18
10 -0.17
11 -0.17
12 -0.15
13 -0.15
14 0.18
15 0.18
16 0.18
17 0.18
18 -0.15
19 -0.15
2 -0.18
20 0.15
21 0.15
22 0.15
23 0.15
3 -0.18
4 -0.18
5 -0.2
6 -0.83
7 -0.83
8 0.1
9 0.1

>  <PUBCHEM_EFFECTIVE_ROTOR_COUNT>  (1) 
2

>  <PUBCHEM_PHARMACOPHORE_FEATURES>  (1) 
2
6 8 10 12 14 16 18 rings
6 9 11 13 15 17 19 rings

>  <PUBCHEM_HEAVY_ATOM_COUNT>  (1) 
19

>  <PUBCHEM_ATOM_DEF_STEREO_COUNT>  (1) 
0

>  <PUBCHEM_ATOM_UDEF_STEREO_COUNT>  (1) 
0

>  <PUBCHEM_BOND_DEF_STEREO_COUNT>  (1) 
0

>  <PUBCHEM_BOND_UDEF_STEREO_COUNT>  (1) 
0

>  <PUBCHEM_ISOTOPIC_ATOM_COUNT>  (1) 
0

>  <PUBCHEM_COMPONENT_COUNT>  (1) 
1

>  <PUBCHEM_CACTVS_TAUTO_COUNT>  (1) 
1

>  <PUBCHEM_CONFORMER_ID>  (1) 
0000096700000001

>  <PUBCHEM_MMFF94_ENERGY>  (1) 
66.9131

>  <PUBCHEM_FEATURE_SELFOVERLAP>  (1) 
10.149

>  <PUBCHEM_SHAPE_FINGERPRINT>  (1) 
10366900 7 18411701018950765618
10498660 4 17894905188246781869
10871710 139 16390155738314803196
11640471 11 15719395022771112289
11759241 127 18336264638655372068
12156800 1 12327565581441360510
12166972 35 14996281456820769143
12173636 292 17678168305318070173
12553582 1 15769770238929905735
13583140 156 18264469832871828280
13911987 19 18058179491397198992
14739800 52 17242167071498936956
15375462 189 16343702123127118355
15635459 17 18342458153316163187
17134986 127 17103386386884965493
17357990 137 15069204272431952262
18522851 268 18340769251794680455
192875 21 14923942362057445655
19422 9 15769784584115393611
19433438 38 18412542081158985486
200 152 17561085804058107458
20361792 2 16056302952043615985
20465049 17 16971676910848267885
20645477 70 18202005395823605582
20715895 44 14202492250580385735
21285901 2 18409442592714894359
21713013 43 18271248226971843287
21731516 1 15984533395697558538
23114952 82 18269557148076157084
23402539 116 17749947889890530354
235170 7 18411699872189223206
23557571 272 18261110790167596829
23559900 14 18188202100862216078
23598291 2 16485872215272791786
238 59 17915716731056519140
3323516 105 18131067160061325811
3472631 163 17603862291236778869
5161694 15 18122906425830280383
5262128 65 18115046141873730852
633830 44 16988850522738950416
6913067 236 18269256014944688963
7399639 24 18199168745775585777
81228 2 18113905931642331369

>  <PUBCHEM_SHAPE_MULTIPOLES>  (1) 
390.6
8.52
2.52
1.89
0.01
0
0.02
0
1.89
0
1.7
0
0
2.43

>  <PUBCHEM_SHAPE_SELFOVERLAP>  (1) 
793.584

>  <PUBCHEM_SHAPE_VOLUME>  (1) 
231.1

>  <PUBCHEM_COORDINATE_TYPE>  (1) 
2
5
10

$$$$
