24070
     RDKit          3D

 26 26  0  0  0  0  0  0  0  0999 V2000
    5.4382   -1.3211    1.2392 O   0  0  0  0  0  0  0  0  0  0  0  0
   -2.6309   -0.4478    0.2258 O   0  0  0  0  0  0  0  0  0  0  0  0
   -2.1610   -2.6820   -0.0687 O   0  0  0  0  0  0  0  0  0  0  0  0
   -6.2330    0.3328    0.3672 N   0  0  0  0  0  0  0  0  0  0  0  0
    3.9337   -0.3034    2.6288 N   0  0  0  0  0  0  0  0  0  0  0  0
    3.7649    0.1478    0.2025 C   0  0  0  0  0  0  0  0  0  0  0  0
    3.9520    1.6914    0.4174 C   0  0  0  0  0  0  0  0  0  0  0  0
    4.4440   -0.3162   -1.1345 C   0  0  0  0  0  0  0  0  0  0  0  0
    2.2813   -0.2955    0.1695 C   0  0  0  0  0  0  0  0  0  0  0  0
    4.4715   -0.5740    1.3873 C   0  0  0  0  0  0  0  0  0  0  0  0
    1.9599   -1.6424    0.0018 C   0  0  0  0  0  0  0  0  0  0  0  0
    1.2667    0.6519    0.3062 C   0  0  0  0  0  0  0  0  0  0  0  0
    5.3777    2.1784    0.3723 C   0  0  0  0  0  0  0  0  0  0  0  0
    3.8993    0.3203   -2.3857 C   0  0  0  0  0  0  0  0  0  0  0  0
    0.6240   -2.0419   -0.0293 C   0  0  0  0  0  0  0  0  0  0  0  0
   -0.0693    0.2523    0.2752 C   0  0  0  0  0  0  0  0  0  0  0  0
   -0.3907   -1.0946    0.1075 C   0  0  0  0  0  0  0  0  0  0  0  0
   -4.7976    0.5710    0.3920 C   0  0  0  0  0  0  0  0  0  0  0  0
   -6.9526    1.4357    1.0091 C   0  0  0  0  0  0  0  0  0  0  0  0
   -6.7050    0.1541   -1.0081 C   0  0  0  0  0  0  0  0  0  0  0  0
   -4.0341   -0.7315    0.2123 C   0  0  0  0  0  0  0  0  0  0  0  0
   -1.7836   -1.5117    0.0754 C   0  0  0  0  0  0  0  0  0  0  0  0
    5.8523    3.0197   -0.5535 C   0  0  0  0  0  0  0  0  0  0  0  0
    3.4221   -0.3695   -3.4280 C   0  0  0  0  0  0  0  0  0  0  0  0
   -6.7394    2.7400    0.2599 C   0  0  0  0  0  0  0  0  0  0  0  0
   -8.1903   -0.1638   -1.0418 C   0  0  0  0  0  0  0  0  0  0  0  0
  1 10  2  0
  2 21  1  0
  2 22  1  0
  3 22  2  0
  4 18  1  0
  4 19  1  0
  4 20  1  0
  5 10  1  0
  6  7  1  0
  6  8  1  0
  6  9  1  0
  6 10  1  0
  7 13  1  0
  8 14  1  0
  9 11  2  0
  9 12  1  0
 11 15  1  0
 12 16  2  0
 13 23  2  0
 14 24  2  0
 15 17  2  0
 16 17  1  0
 17 22  1  0
 18 21  1  0
 19 25  1  0
 20 26  1  0
M  END
>  <PUBCHEM_COMPOUND_CID>  (1) 
24070

>  <PUBCHEM_CONFORMER_RMSD>  (1) 
1

>  <PUBCHEM_CONFORMER_DIVERSEORDER>  (1) 
1
47
38
59
68
80
84
85
7
17
71
91
14
82
36
73
46
23
69
5
57
92
86
40
66
21
55
60
62
50
26
10
90
19
32
81
41
72
13
6
24
64
27
4
49
11
65
8
83
51
20
30
87
28
35
37
42
33
16
53
61
76
52
29
75
79
67
3
58
63
54
12
77
74
31
22
9
39
88
44
34
43
18
25
89
56
78
45
15
70
2
48

>  <PUBCHEM_MMFF94_PARTIAL_CHARGES>  (1) 
36
1 -0.57
10 0.57
11 -0.15
12 -0.15
13 -0.29
14 -0.29
15 -0.15
16 -0.15
17 0.09
18 0.27
19 0.27
2 -0.43
20 0.27
21 0.28
22 0.63
23 -0.3
24 -0.3
3 -0.57
31 0.15
32 0.15
33 0.15
34 0.15
35 0.15
36 0.15
39 0.37
4 -0.81
40 0.37
47 0.15
48 0.15
49 0.15
5 -0.8
50 0.15
6 0.2
7 0.14
8 0.14
9 -0.14

>  <PUBCHEM_EFFECTIVE_ROTOR_COUNT>  (1) 
13

>  <PUBCHEM_PHARMACOPHORE_FEATURES>  (1) 
8
1 1 acceptor
1 23 hydrophobe
1 24 hydrophobe
1 3 acceptor
1 4 cation
1 5 donor
5 6 7 8 13 14 hydrophobe
6 9 11 12 15 16 17 rings

>  <PUBCHEM_HEAVY_ATOM_COUNT>  (1) 
26

>  <PUBCHEM_ATOM_DEF_STEREO_COUNT>  (1) 
0

>  <PUBCHEM_ATOM_UDEF_STEREO_COUNT>  (1) 
0

>  <PUBCHEM_BOND_DEF_STEREO_COUNT>  (1) 
0

>  <PUBCHEM_BOND_UDEF_STEREO_COUNT>  (1) 
0

>  <PUBCHEM_ISOTOPIC_ATOM_COUNT>  (1) 
0

>  <PUBCHEM_COMPONENT_COUNT>  (1) 
1

>  <PUBCHEM_CACTVS_TAUTO_COUNT>  (1) 
2

>  <PUBCHEM_CONFORMER_ID>  (1) 
00005E0600000001

>  <PUBCHEM_MMFF94_ENERGY>  (1) 
67.6973

>  <PUBCHEM_FEATURE_SELFOVERLAP>  (1) 
40.602

>  <PUBCHEM_SHAPE_FINGERPRINT>  (1) 
10280341 67 17983288520430584104
10554248 39 18335127675150691007
12616971 3 15647333099427489247
13167372 99 18410571752111706257
15131766 46 16444770451928755775
15183329 4 18342175562222721761
15238133 3 18333735705982070363
15348495 7 14996294634450456609
15840311 113 18113330929831056436
17134984 74 14548734023452974517
18222031 100 11600010942076876498
20281389 69 18040711459871746429
21150785 3 15769779095200300281
23081809 10 18040998458102670107
23559900 14 17988657319696209486
2748736 6 18410570670180796089
2838139 119 18409162182942703281
335352 9 18412262827134391870
3472631 163 18341615974885854092
34797466 226 17846786225914420213
397830 11 14707509017895963901
4073 2 18260550061008173987
465052 167 7925910395965937745
5104073 3 17894627101593170850
513532 50 17560804281995363134
59682541 52 16271652191463762461

>  <PUBCHEM_SHAPE_MULTIPOLES>  (1) 
507.5
20.46
2.44
1.87
39.24
1.12
1.32
12.14
1.75
-0.78
-0.14
-3.38
-0.3
-0.9

>  <PUBCHEM_SHAPE_SELFOVERLAP>  (1) 
1024.431

>  <PUBCHEM_SHAPE_VOLUME>  (1) 
296.5

>  <PUBCHEM_COORDINATE_TYPE>  (1) 
2
5
10

$$$$
