24075
     RDKit          3D

 11 12  0  0  1  0  0  0  0  0999 V2000
    3.3602   -0.7855    0.2845 O   0  0  0  0  0  0  0  0  0  0  0  0
   -3.3605    0.7854    0.2843 O   0  0  0  0  0  0  0  0  0  0  0  0
    0.0008    0.0001    0.0909 O   0  0  0  0  0  0  0  0  0  0  0  0
    2.3792    0.1971   -0.0171 C   0  0  0  0  0  0  0  0  0  0  0  0
   -2.3793   -0.1970   -0.0171 C   0  0  0  0  0  0  0  0  0  0  0  0
    2.6582   -0.9178   -0.9582 C   0  0  0  0  0  0  0  0  0  0  0  0
   -2.6580    0.9178   -0.9582 C   0  0  0  0  0  0  0  0  0  0  0  0
    1.1708    0.0969    0.8892 C   0  0  0  0  0  0  0  0  0  0  0  0
   -1.1713   -0.0970    0.8898 C   0  0  0  0  0  0  0  0  0  0  0  0
    2.9028    1.5490   -0.2439 C   0  0  0  0  0  0  0  0  0  0  0  0
   -2.9029   -1.5491   -0.2441 C   0  0  0  0  0  0  0  0  0  0  0  0
  1  4  1  0
  1  6  1  0
  2  5  1  0
  2  7  1  0
  3  8  1  0
  3  9  1  0
  4  6  1  0
  4  8  1  0
  4 10  1  0
  5  7  1  0
  5  9  1  0
  5 11  1  0
M  END
>  <PUBCHEM_COMPOUND_CID>  (1) 
24075

>  <PUBCHEM_CONFORMER_RMSD>  (1) 
0.6

>  <PUBCHEM_CONFORMER_DIVERSEORDER>  (1) 
2
36
39
5
24
14
21
33
20
18
28
22
6
32
38
15
9
25
7
27
26
23
34
1
29
12
30
37
8
31
4
11
35
3
13
16
17
19
10

>  <PUBCHEM_MMFF94_PARTIAL_CHARGES>  (1) 
15
1 -0.3
10 0.09
11 0.09
12 0.1
13 0.1
14 0.1
15 0.1
2 -0.3
3 -0.56
4 -0.04
5 -0.04
6 -0.05
7 -0.05
8 0.38
9 0.38

>  <PUBCHEM_EFFECTIVE_ROTOR_COUNT>  (1) 
5.2

>  <PUBCHEM_PHARMACOPHORE_FEATURES>  (1) 
3
1 1 acceptor
1 2 acceptor
1 3 acceptor

>  <PUBCHEM_HEAVY_ATOM_COUNT>  (1) 
11

>  <PUBCHEM_ATOM_DEF_STEREO_COUNT>  (1) 
0

>  <PUBCHEM_ATOM_UDEF_STEREO_COUNT>  (1) 
2

>  <PUBCHEM_BOND_DEF_STEREO_COUNT>  (1) 
0

>  <PUBCHEM_BOND_UDEF_STEREO_COUNT>  (1) 
0

>  <PUBCHEM_ISOTOPIC_ATOM_COUNT>  (1) 
0

>  <PUBCHEM_COMPONENT_COUNT>  (1) 
1

>  <PUBCHEM_CACTVS_TAUTO_COUNT>  (1) 
1

>  <PUBCHEM_CONFORMER_ID>  (1) 
00005E0B00000002

>  <PUBCHEM_MMFF94_ENERGY>  (1) 
22.6598

>  <PUBCHEM_FEATURE_SELFOVERLAP>  (1) 
15.224

>  <PUBCHEM_SHAPE_FINGERPRINT>  (1) 
10857977 72 10447919568769936843
12932764 1 17967248680745113865
13296908 3 18413390951132355459
14325111 11 18410856589704573667
14390081 3 17603583040884081457
18186145 218 18335422352634725232
19107657 162 12463564110399297613
20201158 50 18060139799663284870
20279233 1 16773791498026297807
20645477 56 18410289207804261121
20645477 70 18131635547517548022
20653085 51 18334018263659824313
22169311 21 18060128834601150546
230 275 15791725321847699640
3248919 1 17989489606204555554
8030462 33 16950273005762677827
81228 2 16199047014670025312
93112 12 18410573976561516685

>  <PUBCHEM_SHAPE_MULTIPOLES>  (1) 
208.77
6.63
1.32
0.95
0
0
-0.03
0
-0.95
0
-0.25
0
0
0.18

>  <PUBCHEM_SHAPE_SELFOVERLAP>  (1) 
411.094

>  <PUBCHEM_SHAPE_VOLUME>  (1) 
128.1

>  <PUBCHEM_COORDINATE_TYPE>  (1) 
2
5
10

$$$$
