24092
     RDKit          3D

  9  8  0  0  0  0  0  0  0  0999 V2000
    3.6772    0.0625    0.0297 Cl  0  0  0  0  0  0  0  0  0  0  0  0
   -1.1933   -0.0101   -1.3869 O   0  0  0  0  0  0  0  0  0  0  0  0
   -0.7517   -0.0123   -0.0293 C   0  0  0  0  0  0  0  0  0  0  0  0
   -1.3214    1.2345    0.6849 C   0  0  0  0  0  0  0  0  0  0  0  0
   -1.2783   -1.2881    0.6667 C   0  0  0  0  0  0  0  0  0  0  0  0
   -0.9621    2.5606    0.0186 C   0  0  0  0  0  0  0  0  0  0  0  0
   -0.8194   -2.5929    0.0196 C   0  0  0  0  0  0  0  0  0  0  0  0
    0.7242    0.0127   -0.0095 C   0  0  0  0  0  0  0  0  0  0  0  0
    1.9246    0.0331    0.0061 C   0  0  0  0  0  0  0  0  0  0  0  0
  1  9  1  0
  2  3  1  0
  3  4  1  0
  3  5  1  0
  3  8  1  0
  4  6  1  0
  5  7  1  0
  8  9  3  0
M  END
>  <PUBCHEM_COMPOUND_CID>  (1) 
24092

>  <PUBCHEM_CONFORMER_RMSD>  (1) 
0.4

>  <PUBCHEM_CONFORMER_DIVERSEORDER>  (1) 
1
6
7
5
4
2
3

>  <PUBCHEM_MMFF94_PARTIAL_CHARGES>  (1) 
6
1 -0.1
2 -0.68
20 0.4
3 0.48
8 -0.2
9 0.1

>  <PUBCHEM_EFFECTIVE_ROTOR_COUNT>  (1) 
2

>  <PUBCHEM_PHARMACOPHORE_FEATURES>  (1) 
4
1 2 acceptor
1 2 donor
1 6 hydrophobe
1 7 hydrophobe

>  <PUBCHEM_HEAVY_ATOM_COUNT>  (1) 
9

>  <PUBCHEM_ATOM_DEF_STEREO_COUNT>  (1) 
0

>  <PUBCHEM_ATOM_UDEF_STEREO_COUNT>  (1) 
0

>  <PUBCHEM_BOND_DEF_STEREO_COUNT>  (1) 
0

>  <PUBCHEM_BOND_UDEF_STEREO_COUNT>  (1) 
0

>  <PUBCHEM_ISOTOPIC_ATOM_COUNT>  (1) 
0

>  <PUBCHEM_COMPONENT_COUNT>  (1) 
1

>  <PUBCHEM_CACTVS_TAUTO_COUNT>  (1) 
1

>  <PUBCHEM_CONFORMER_ID>  (1) 
00005E1C00000001

>  <PUBCHEM_MMFF94_ENERGY>  (1) 
7.0051

>  <PUBCHEM_FEATURE_SELFOVERLAP>  (1) 
20.297

>  <PUBCHEM_SHAPE_FINGERPRINT>  (1) 
100427 49 17983574396951343160
12716758 59 18341613660093608242
12932764 1 17418094339084278446
13024252 1 13984379972097275012
137420 1 8157055597345722191
20871998 184 18270973426337607814
21040471 1 18193566562211983680
23552449 1 18339079414350524400
3248919 1 18410285909617089134
54338 74 18410005576363447857
68250623 7 17767119809496058871

>  <PUBCHEM_SHAPE_MULTIPOLES>  (1) 
181.22
3.51
2.48
0.87
5.58
0.1
0.16
-0.17
-0.18
-1.93
-0.16
-0.3
0
0

>  <PUBCHEM_SHAPE_SELFOVERLAP>  (1) 
326.565

>  <PUBCHEM_SHAPE_VOLUME>  (1) 
116.6

>  <PUBCHEM_COORDINATE_TYPE>  (1) 
2
5
10

$$$$
