24103
     RDKit          3D

 19 21  0  0  0  0  0  0  0  0999 V2000
    2.2028    2.8789    1.0462 O   0  0  0  0  0  0  0  0  0  0  0  0
    2.3014    2.8954   -1.2246 O   0  0  0  0  0  0  0  0  0  0  0  0
   -0.2310   -1.2823    0.0649 N   0  0  0  0  0  0  0  0  0  0  0  0
   -2.8699    0.9785    0.5244 N   0  0  0  0  0  0  0  0  0  0  0  0
    1.8995   -0.1587   -0.0094 C   0  0  0  0  0  0  0  0  0  0  0  0
    1.1146   -1.3282    0.0690 C   0  0  0  0  0  0  0  0  0  0  0  0
    1.2393    1.0746   -0.0931 C   0  0  0  0  0  0  0  0  0  0  0  0
   -0.8295   -0.0720   -0.0174 C   0  0  0  0  0  0  0  0  0  0  0  0
   -0.1473    1.1250   -0.0976 C   0  0  0  0  0  0  0  0  0  0  0  0
    3.3021   -0.2435   -0.0025 C   0  0  0  0  0  0  0  0  0  0  0  0
   -2.2727   -0.1074   -0.0159 C   0  0  0  0  0  0  0  0  0  0  0  0
    1.7711   -2.5530    0.1523 C   0  0  0  0  0  0  0  0  0  0  0  0
    3.9324   -1.4817    0.0817 C   0  0  0  0  0  0  0  0  0  0  0  0
    3.1656   -2.6377    0.1592 C   0  0  0  0  0  0  0  0  0  0  0  0
    1.9531    2.3451   -0.1786 C   0  0  0  0  0  0  0  0  0  0  0  0
   -2.9599   -1.1913   -0.5382 C   0  0  0  0  0  0  0  0  0  0  0  0
   -4.3496   -1.1583   -0.5041 C   0  0  0  0  0  0  0  0  0  0  0  0
   -4.2216    0.9748    0.5402 C   0  0  0  0  0  0  0  0  0  0  0  0
   -5.0002   -0.0583    0.0436 C   0  0  0  0  0  0  0  0  0  0  0  0
  1 15  1  0
  2 15  2  0
  3  6  2  0
  3  8  1  0
  4 11  2  0
  4 18  1  0
  5  6  1  0
  5  7  2  0
  5 10  1  0
  6 12  1  0
  7  9  1  0
  7 15  1  0
  8  9  2  0
  8 11  1  0
 10 13  2  0
 11 16  1  0
 12 14  2  0
 13 14  1  0
 16 17  2  0
 17 19  1  0
 18 19  2  0
M  END
>  <PUBCHEM_COMPOUND_CID>  (1) 
24103

>  <PUBCHEM_CONFORMER_RMSD>  (1) 
0.6

>  <PUBCHEM_CONFORMER_DIVERSEORDER>  (1) 
1
3
4
2

>  <PUBCHEM_MMFF94_PARTIAL_CHARGES>  (1) 
28
1 -0.65
10 -0.15
11 0.31
12 -0.15
13 -0.15
14 -0.15
15 0.63
16 -0.15
17 -0.15
18 0.16
19 -0.15
2 -0.57
20 0.15
21 0.15
22 0.15
23 0.15
24 0.15
25 0.15
26 0.15
27 0.15
28 0.15
29 0.5
3 -0.62
4 -0.62
6 0.31
7 0.09
8 0.31
9 -0.15

>  <PUBCHEM_EFFECTIVE_ROTOR_COUNT>  (1) 
2

>  <PUBCHEM_PHARMACOPHORE_FEATURES>  (1) 
8
1 1 acceptor
1 2 acceptor
1 3 acceptor
1 4 acceptor
3 1 2 15 anion
6 3 5 6 7 8 9 rings
6 4 11 16 17 18 19 rings
6 5 6 10 12 13 14 rings

>  <PUBCHEM_HEAVY_ATOM_COUNT>  (1) 
19

>  <PUBCHEM_ATOM_DEF_STEREO_COUNT>  (1) 
0

>  <PUBCHEM_ATOM_UDEF_STEREO_COUNT>  (1) 
0

>  <PUBCHEM_BOND_DEF_STEREO_COUNT>  (1) 
0

>  <PUBCHEM_BOND_UDEF_STEREO_COUNT>  (1) 
0

>  <PUBCHEM_ISOTOPIC_ATOM_COUNT>  (1) 
0

>  <PUBCHEM_COMPONENT_COUNT>  (1) 
1

>  <PUBCHEM_CACTVS_TAUTO_COUNT>  (1) 
1

>  <PUBCHEM_CONFORMER_ID>  (1) 
00005E2700000001

>  <PUBCHEM_MMFF94_ENERGY>  (1) 
66.1372

>  <PUBCHEM_FEATURE_SELFOVERLAP>  (1) 
40.687

>  <PUBCHEM_SHAPE_FINGERPRINT>  (1) 
10616163 171 18271245031870297927
10967382 1 18410011069900711542
11471102 20 18408321081578825590
11806522 49 18410572868523550034
12236239 1 18131912642291994707
12251169 10 18342176627142645439
12553582 1 18265326210042472430
13009979 54 17987811691294143451
13140716 1 18265044919986271482
13533116 47 18340486759760228207
138480 1 18410573976767829528
14790565 3 18192719054013116532
15042514 8 17617375087289218906
15196674 1 18339642248187055739
15375462 189 18262237694748958723
15442244 35 18340770325863688225
15536298 74 18343300396312991217
1601671 61 18341333284438731606
16945 1 18408044013544483142
17492 89 18412261778999334967
1813 80 18197508332962341230
18186145 218 17894342290001584419
18785283 64 18115033029502047604
19591789 44 16896248806943504539
200 152 18201147794323887863
20559304 39 18412827975551568112
20612939 158 18334860536637196301
20645477 70 18261668263995569735
20671657 1 18341332291937237357
21267235 1 18340495460615351359
21478907 32 17760646962895094242
221490 88 18335709389795005651
2255824 54 18408608092995052278
22854114 111 18411139177394506965
2334 1 17976823417247535918
23366157 5 18186519938255235660
23402539 116 18267576910634621822
23557571 272 18054513496149300990
23558518 356 17901098939046599642
23559900 14 18341323444689840107
25147074 1 18202288013751766073
2748010 2 17974861867092128514
3071541 12 18337957891062900612
3071541 37 18262805188951618596
3091708 16 9503667787777184922
312423 11 18271817843168142683
335352 9 18267303119517492661
352729 6 17326894483186497438
4409770 3 17251733564766114812
474 4 18189615119285388581
5104073 3 18412830218220810243
543358 83 18411143506420692077
6443956 14 18339361864353532396
67856867 119 18270672177568589945
7364860 26 18413105091299958208
7471813 234 17988065730310196345
81228 2 17689452489911215610
8272917 22 18410016554289040719
84936 182 18129099102972852368
9709674 26 18408888464429561539
9971528 1 18341889658823602986
9981440 41 17834949055043588824

>  <PUBCHEM_SHAPE_MULTIPOLES>  (1) 
369.31
8.38
2.98
0.77
8.65
1.24
0.03
-2.21
-0.19
-3.59
0.07
-0.02
0.28
-0.68

>  <PUBCHEM_SHAPE_SELFOVERLAP>  (1) 
829.113

>  <PUBCHEM_SHAPE_VOLUME>  (1) 
194

>  <PUBCHEM_COORDINATE_TYPE>  (1) 
2
5
10

$$$$
