24106
     RDKit          3D

 13 14  0  0  1  0  0  0  0  0999 V2000
   -2.1214    1.1427    0.2341 S   0  0  0  0  0  0  0  0  0  0  0  0
   -4.1997   -0.7260   -0.3203 N   0  0  0  0  0  0  0  0  0  0  0  0
    0.7150    0.7886   -0.2252 C   0  0  0  0  0  0  0  0  0  0  0  0
    1.6350   -0.4651   -0.4104 C   0  0  0  0  0  0  0  0  0  0  0  0
    0.9266   -1.2072    0.7519 C   0  0  0  0  0  0  0  0  0  0  0  0
   -0.7127    0.1659   -0.3813 C   0  0  0  0  0  0  0  0  0  0  0  0
    0.9553    1.1470    1.2699 C   0  0  0  0  0  0  0  0  0  0  0  0
   -0.5686   -1.1888    0.3478 C   0  0  0  0  0  0  0  0  0  0  0  0
    1.0703   -0.2317    1.9410 C   0  0  0  0  0  0  0  0  0  0  0  0
    0.9782    1.9555   -1.1611 C   0  0  0  0  0  0  0  0  0  0  0  0
    3.1423   -0.2275   -0.1781 C   0  0  0  0  0  0  0  0  0  0  0  0
    1.5289   -1.1842   -1.7711 C   0  0  0  0  0  0  0  0  0  0  0  0
   -3.3492    0.0307   -0.0971 C   0  0  0  0  0  0  0  0  0  0  0  0
  1  6  1  0
  1 13  1  0
  2 13  3  0
  3  4  1  0
  3  6  1  0
  3  7  1  0
  3 10  1  0
  4  5  1  0
  4 11  1  0
  4 12  1  0
  5  8  1  0
  5  9  1  0
  6  8  1  0
  7  9  1  0
M  END
>  <PUBCHEM_COMPOUND_CID>  (1) 
24106

>  <PUBCHEM_CONFORMER_RMSD>  (1) 
0.6

>  <PUBCHEM_CONFORMER_DIVERSEORDER>  (1) 
1
3
2
4

>  <PUBCHEM_MMFF94_PARTIAL_CHARGES>  (1) 
4
1 -0.27
13 0.59
2 -0.56
6 0.23

>  <PUBCHEM_EFFECTIVE_ROTOR_COUNT>  (1) 
2

>  <PUBCHEM_PHARMACOPHORE_FEATURES>  (1) 
3
1 2 acceptor
3 4 11 12 hydrophobe
7 3 4 5 6 7 8 9 rings

>  <PUBCHEM_HEAVY_ATOM_COUNT>  (1) 
13

>  <PUBCHEM_ATOM_DEF_STEREO_COUNT>  (1) 
0

>  <PUBCHEM_ATOM_UDEF_STEREO_COUNT>  (1) 
3

>  <PUBCHEM_BOND_DEF_STEREO_COUNT>  (1) 
0

>  <PUBCHEM_BOND_UDEF_STEREO_COUNT>  (1) 
0

>  <PUBCHEM_ISOTOPIC_ATOM_COUNT>  (1) 
0

>  <PUBCHEM_COMPONENT_COUNT>  (1) 
1

>  <PUBCHEM_CACTVS_TAUTO_COUNT>  (1) 
1

>  <PUBCHEM_CONFORMER_ID>  (1) 
00005E2A00000001

>  <PUBCHEM_MMFF94_ENERGY>  (1) 
57.8736

>  <PUBCHEM_FEATURE_SELFOVERLAP>  (1) 
15.223

>  <PUBCHEM_SHAPE_FINGERPRINT>  (1) 
12423570 1 12449884025623560530
12725867 57 18262787476221458172
12932764 1 16200141085075545661
13024252 1 16311691947135366542
13380536 305 18114750420585197629
13705890 14 18059861627447645238
14344429 50 17894630382916178453
14993402 34 18113901554447865550
15775835 57 17313104159469726415
16945 1 18042427788325939794
19010151 120 18187082798288845400
20233049 118 17458054937548664741
20653091 64 18407759218363023473
20708731 107 17775009011193339839
21524375 3 17756147039527659853
21730867 7 17632286900334554971
22344851 12 17240202127300312002
23380061 451 16415485921821794119
23402539 116 18336262332569092206
2748010 2 17680452213779687249
3060560 45 18186234039705251799
5084963 1 18342178851845982025
528886 8 18260831509808261722
5337951 7 17489863873232890722
68250623 7 17899424374299646794

>  <PUBCHEM_SHAPE_MULTIPOLES>  (1) 
266.4
4.48
1.57
1.47
5.24
0.43
-0.21
-0.87
0.77
-0.2
0.27
-0.88
-0.07
-0.01

>  <PUBCHEM_SHAPE_SELFOVERLAP>  (1) 
542.868

>  <PUBCHEM_SHAPE_VOLUME>  (1) 
158.5

>  <PUBCHEM_COORDINATE_TYPE>  (1) 
2
5
10

$$$$
