24118
     RDKit          3D

 18 18  0  0  1  0  0  0  0  0999 V2000
   -1.3707   -1.7938   -0.2246 O   0  0  0  0  0  0  0  0  0  0  0  0
    0.3340   -2.8244    0.9454 O   0  0  0  0  0  0  0  0  0  0  0  0
   -3.3917    0.4050    0.1647 C   0  0  0  0  0  0  0  0  0  0  0  0
   -1.9146    0.5720   -0.2171 C   0  0  0  0  0  0  0  0  0  0  0  0
   -4.3356    1.5072   -0.3248 C   0  0  0  0  0  0  0  0  0  0  0  0
   -0.9842   -0.5297    0.3078 C   0  0  0  0  0  0  0  0  0  0  0  0
   -5.7838    1.3127    0.1248 C   0  0  0  0  0  0  0  0  0  0  0  0
    0.4346   -0.2733   -0.1225 C   0  0  0  0  0  0  0  0  0  0  0  0
   -6.6602    2.4776   -0.3095 C   0  0  0  0  0  0  0  0  0  0  0  0
    1.3201    0.4031    0.6263 C   0  0  0  0  0  0  0  0  0  0  0  0
    2.7130    0.6870    0.2434 C   0  0  0  0  0  0  0  0  0  0  0  0
   -0.6206   -2.8611    0.1808 C   0  0  0  0  0  0  0  0  0  0  0  0
    3.3178   -0.0810   -0.7395 C   0  0  0  0  0  0  0  0  0  0  0  0
    3.3945    1.7173    0.8720 C   0  0  0  0  0  0  0  0  0  0  0  0
   -1.1395   -4.1155   -0.4542 C   0  0  0  0  0  0  0  0  0  0  0  0
    4.6374    0.1883   -1.1028 C   0  0  0  0  0  0  0  0  0  0  0  0
    4.7140    1.9866    0.5087 C   0  0  0  0  0  0  0  0  0  0  0  0
    5.3354    1.2220   -0.4788 C   0  0  0  0  0  0  0  0  0  0  0  0
  1  6  1  0
  1 12  1  0
  2 12  2  0
  3  4  1  0
  3  5  1  0
  4  6  1  0
  5  7  1  0
  6  8  1  0
  7  9  1  0
  8 10  2  0
 10 11  1  0
 11 13  2  0
 11 14  1  0
 12 15  1  0
 13 16  1  0
 14 17  2  0
 16 18  2  0
 17 18  1  0
M  END
>  <PUBCHEM_COMPOUND_CID>  (1) 
24118

>  <PUBCHEM_CONFORMER_RMSD>  (1) 
0.8

>  <PUBCHEM_CONFORMER_DIVERSEORDER>  (1) 
1
56
8
117
119
110
40
42
115
106
77
38
24
30
60
116
103
35
71
79
107
49
80
118
69
81
65
34
36
78
93
111
16
90
113
96
43
87
59
105
109
20
67
89
55
50
62
72
22
3
85
9
100
52
2
99
104
51
18
108
86
39
11
32
102
84
23
63
61
5
28
83
88
95
98
12
15
120
75
82
4
19
54
48
44
57
91
46
101
33
37
73
45
70
6
17
58
64
68
26
74
41
53
10
13
112
7
14
94
25
97
29
76
66
21
92
114
27
47
31

>  <PUBCHEM_MMFF94_PARTIAL_CHARGES>  (1) 
20
1 -0.43
10 -0.18
11 0.03
12 0.66
13 -0.15
14 -0.15
15 0.06
16 -0.15
17 -0.15
18 -0.15
2 -0.57
28 0.15
32 0.15
33 0.15
34 0.15
38 0.15
39 0.15
40 0.15
6 0.42
8 -0.29

>  <PUBCHEM_EFFECTIVE_ROTOR_COUNT>  (1) 
8

>  <PUBCHEM_PHARMACOPHORE_FEATURES>  (1) 
4
1 2 acceptor
1 9 hydrophobe
4 3 4 5 7 hydrophobe
6 11 13 14 16 17 18 rings

>  <PUBCHEM_HEAVY_ATOM_COUNT>  (1) 
18

>  <PUBCHEM_ATOM_DEF_STEREO_COUNT>  (1) 
0

>  <PUBCHEM_ATOM_UDEF_STEREO_COUNT>  (1) 
0

>  <PUBCHEM_BOND_DEF_STEREO_COUNT>  (1) 
0

>  <PUBCHEM_BOND_UDEF_STEREO_COUNT>  (1) 
1

>  <PUBCHEM_ISOTOPIC_ATOM_COUNT>  (1) 
0

>  <PUBCHEM_COMPONENT_COUNT>  (1) 
1

>  <PUBCHEM_CACTVS_TAUTO_COUNT>  (1) 
1

>  <PUBCHEM_CONFORMER_ID>  (1) 
00005E3600000001

>  <PUBCHEM_MMFF94_ENERGY>  (1) 
31.6712

>  <PUBCHEM_FEATURE_SELFOVERLAP>  (1) 
20.297

>  <PUBCHEM_SHAPE_FINGERPRINT>  (1) 
11823591 26 18335972108680819189
12390115 104 18341342158083621993
12500047 106 18339926017113925070
12532896 13 18409165536537188587
12730499 353 18337961086871827985
12969540 114 18335969918311042685
13544592 145 18342186557328372382
13955234 65 18120376450329622683
17539 30 17982725574180630071
18222031 100 8574423270603486169
20554085 129 17987780961241055690
20645477 56 18337392737733364032
20645477 70 17059792095489722644
20871999 31 18267302213010283206
21033648 29 18341044207264958241
22224240 67 18334017194851225593
23402539 116 18343016713786712517
23557571 272 18198631136529903524
23558518 356 17829043560947623448
23559900 14 18272375304591144652
23598288 3 17825404125909599119
293599 30 18409449180725396373
3004659 81 12031783677900102136
3759504 43 18334015025259757819
5283173 99 18199746010733412327
5385378 56 18263929839260270513
59755656 520 18409442592124070119
6025842 7 18196084448899475199
633830 44 18272359872035315197
77188 2 17112975726012611983
9709674 26 18129388262289354286

>  <PUBCHEM_SHAPE_MULTIPOLES>  (1) 
358.69
13.22
3.65
0.88
10.31
5.07
-0.02
-15.49
-2.16
2.77
0.11
-0.65
-0.01
0.65

>  <PUBCHEM_SHAPE_SELFOVERLAP>  (1) 
714.553

>  <PUBCHEM_SHAPE_VOLUME>  (1) 
211.9

>  <PUBCHEM_COORDINATE_TYPE>  (1) 
2
5
10

$$$$
