24120
     RDKit          3D

 12 12  0  0  0  0  0  0  0  0999 V2000
    1.1672    0.0119   -0.9807 O   0  0  0  0  0  0  0  0  0  0  0  0
    1.7940   -0.0082    1.2719 O   0  0  0  0  0  0  0  0  0  0  0  0
   -2.8111   -0.0035    0.2034 C   0  0  0  0  0  0  0  0  0  0  0  0
   -0.1372    0.0064   -0.5923 C   0  0  0  0  0  0  0  0  0  0  0  0
   -2.1440    1.2069    0.0153 C   0  0  0  0  0  0  0  0  0  0  0  0
   -2.1413   -1.2090   -0.0062 C   0  0  0  0  0  0  0  0  0  0  0  0
   -0.8072    1.2119   -0.3826 C   0  0  0  0  0  0  0  0  0  0  0  0
   -0.8043   -1.2041   -0.4041 C   0  0  0  0  0  0  0  0  0  0  0  0
    3.4951    0.0111   -0.4691 C   0  0  0  0  0  0  0  0  0  0  0  0
    2.0881    0.0040    0.0843 C   0  0  0  0  0  0  0  0  0  0  0  0
   -4.2402   -0.0088    0.6286 C   0  0  0  0  0  0  0  0  0  0  0  0
    4.5409   -0.0186    0.6317 C   0  0  0  0  0  0  0  0  0  0  0  0
  1  4  1  0
  1 10  1  0
  2 10  2  0
  3  5  2  0
  3  6  1  0
  3 11  1  0
  4  7  2  0
  4  8  1  0
  5  7  1  0
  6  8  2  0
  9 10  1  0
  9 12  1  0
M  END
>  <PUBCHEM_COMPOUND_CID>  (1) 
24120

>  <PUBCHEM_CONFORMER_RMSD>  (1) 
0.6

>  <PUBCHEM_CONFORMER_DIVERSEORDER>  (1) 
1
8
14
4
11
9
10
18
15
5
7
17
16
3
6
2
12
13

>  <PUBCHEM_MMFF94_PARTIAL_CHARGES>  (1) 
15
1 -0.23
10 0.66
11 0.14
15 0.15
16 0.15
17 0.15
18 0.15
2 -0.57
3 -0.14
4 0.08
5 -0.15
6 -0.15
7 -0.15
8 -0.15
9 0.06

>  <PUBCHEM_EFFECTIVE_ROTOR_COUNT>  (1) 
3

>  <PUBCHEM_PHARMACOPHORE_FEATURES>  (1) 
3
1 12 hydrophobe
1 2 acceptor
6 3 4 5 6 7 8 rings

>  <PUBCHEM_HEAVY_ATOM_COUNT>  (1) 
12

>  <PUBCHEM_ATOM_DEF_STEREO_COUNT>  (1) 
0

>  <PUBCHEM_ATOM_UDEF_STEREO_COUNT>  (1) 
0

>  <PUBCHEM_BOND_DEF_STEREO_COUNT>  (1) 
0

>  <PUBCHEM_BOND_UDEF_STEREO_COUNT>  (1) 
0

>  <PUBCHEM_ISOTOPIC_ATOM_COUNT>  (1) 
0

>  <PUBCHEM_COMPONENT_COUNT>  (1) 
1

>  <PUBCHEM_CACTVS_TAUTO_COUNT>  (1) 
1

>  <PUBCHEM_CONFORMER_ID>  (1) 
00005E3800000001

>  <PUBCHEM_MMFF94_ENERGY>  (1) 
28.6222

>  <PUBCHEM_FEATURE_SELFOVERLAP>  (1) 
15.223

>  <PUBCHEM_SHAPE_FINGERPRINT>  (1) 
10857977 72 18413390951554335557
11031198 65 16487262062379044380
11062470 55 7925911474060627316
11132069 177 18342740719187933565
11401426 45 18412824681997305093
12119455 92 17060054822338099997
12251169 10 18411701001792105700
124424 183 17632856413003331266
12932764 1 17822279210884231244
13024252 1 15068338999777927973
13581323 91 18408324380187406062
14943859 89 14549017680220199823
15219456 202 17987523623584883230
15375462 189 17749385987929981536
15775835 57 18343865502366661323
16945 1 18410860962540391917
17846911 113 18273497857927231401
187816 3 9079115553340429053
190213 19 17821728325636278118
19422 9 17749393633277690658
200 152 15502372335380588152
20510252 161 18271529684848117681
20645464 45 17846782909809258031
20653085 51 14908168781172366723
20871998 184 18272375329591211847
21293036 1 9655576292764290343
22445834 79 17822285751971743138
22485316 2 14779264228291382961
23402539 116 18272643550667605421
2748010 2 18049738321444324029
369184 2 17275101730409783783

>  <PUBCHEM_SHAPE_MULTIPOLES>  (1) 
235.22
7.32
1.11
0.91
4.15
0
0.08
-0.03
1.99
-0.74
-0.1
0.31
0
-0.01

>  <PUBCHEM_SHAPE_SELFOVERLAP>  (1) 
480.035

>  <PUBCHEM_SHAPE_VOLUME>  (1) 
135.3

>  <PUBCHEM_COORDINATE_TYPE>  (1) 
2
5
10

$$$$
