24124
     RDKit          3D

 14 14  0  0  1  0  0  0  0  0999 V2000
   -1.9863    1.5517    0.3387 O   0  0  0  0  0  0  0  0  0  0  0  0
    1.9864    1.5515   -0.3383 O   0  0  0  0  0  0  0  0  0  0  0  0
   -2.7604   -0.3991   -0.6268 O   0  0  0  0  0  0  0  0  0  0  0  0
    2.7606   -0.3996    0.6262 O   0  0  0  0  0  0  0  0  0  0  0  0
   -0.4078    0.1304   -0.6494 C   0  0  0  0  0  0  0  0  0  0  0  0
    0.4081    0.1301    0.6499 C   0  0  0  0  0  0  0  0  0  0  0  0
   -0.2437   -1.1529   -1.4770 C   0  0  0  0  0  0  0  0  0  0  0  0
    0.2441   -1.1536    1.4769 C   0  0  0  0  0  0  0  0  0  0  0  0
   -0.1042   -2.4025   -0.6613 C   0  0  0  0  0  0  0  0  0  0  0  0
    0.1030   -2.4028    0.6610 C   0  0  0  0  0  0  0  0  0  0  0  0
   -1.8562    0.3686   -0.3264 C   0  0  0  0  0  0  0  0  0  0  0  0
    1.8564    0.3682    0.3264 C   0  0  0  0  0  0  0  0  0  0  0  0
   -3.3227    1.9050    0.7093 C   0  0  0  0  0  0  0  0  0  0  0  0
    3.3227    1.9049   -0.7093 C   0  0  0  0  0  0  0  0  0  0  0  0
  1 11  1  0
  1 13  1  0
  2 12  1  0
  2 14  1  0
  3 11  2  0
  4 12  2  0
  5  6  1  0
  5  7  1  0
  5 11  1  0
  6  8  1  0
  6 12  1  0
  7  9  1  0
  8 10  1  0
  9 10  2  0
M  END
>  <PUBCHEM_COMPOUND_CID>  (1) 
24124

>  <PUBCHEM_CONFORMER_RMSD>  (1) 
0.6

>  <PUBCHEM_CONFORMER_DIVERSEORDER>  (1) 
1
20
15
25
19
6
3
21
9
4
11
18
33
14
32
7
13
12
24
28
5
31
2
23
29
22
10
30
34
16
17
8
27
26

>  <PUBCHEM_MMFF94_PARTIAL_CHARGES>  (1) 
16
1 -0.43
10 -0.29
11 0.66
12 0.66
13 0.28
14 0.28
2 -0.43
21 0.15
22 0.15
3 -0.57
4 -0.57
5 0.06
6 0.06
7 0.14
8 0.14
9 -0.29

>  <PUBCHEM_EFFECTIVE_ROTOR_COUNT>  (1) 
4.8

>  <PUBCHEM_PHARMACOPHORE_FEATURES>  (1) 
3
1 3 acceptor
1 4 acceptor
6 5 6 7 8 9 10 rings

>  <PUBCHEM_HEAVY_ATOM_COUNT>  (1) 
14

>  <PUBCHEM_ATOM_DEF_STEREO_COUNT>  (1) 
0

>  <PUBCHEM_ATOM_UDEF_STEREO_COUNT>  (1) 
2

>  <PUBCHEM_BOND_DEF_STEREO_COUNT>  (1) 
0

>  <PUBCHEM_BOND_UDEF_STEREO_COUNT>  (1) 
0

>  <PUBCHEM_ISOTOPIC_ATOM_COUNT>  (1) 
0

>  <PUBCHEM_COMPONENT_COUNT>  (1) 
1

>  <PUBCHEM_CACTVS_TAUTO_COUNT>  (1) 
1

>  <PUBCHEM_CONFORMER_ID>  (1) 
00005E3C00000001

>  <PUBCHEM_MMFF94_ENERGY>  (1) 
20.1259

>  <PUBCHEM_FEATURE_SELFOVERLAP>  (1) 
15.223

>  <PUBCHEM_SHAPE_FINGERPRINT>  (1) 
1 1 18339359639365047382
10702982 57 18339348730116791810
10922049 32 18338816562088174080
12423570 1 10103714593188711167
12491281 212 18336831995308541960
12808571 1 18410853261104912742
13024252 1 17389657815277626670
14648413 74 17981335490971826073
14817 1 17393367528633582087
15490181 8 18410856551050244738
15775835 57 18410578387493559652
15906896 17 18267307714589374886
16945 1 18058721554122384447
1741750 31 18341334508594439136
17834069 17 17894635871873865648
18175812 5 15719386213793207489
19837323 101 18268710700190119718
20379382 53 18046625603619953447
20653085 51 18343032094201469884
21130352 189 17257079377563035685
21524375 3 18410853265400230816
23419403 2 17400984769334720474
23526113 38 14907604761867170822
23559900 14 17561076987555651242
305870 269 18339078177183665256
430814 3 18410002230520380257
5084963 1 18335964420335827548
528862 383 18123743154390222107
53812653 217 18124882510524561662
53812653 8 18341047527247628085
68250623 7 18410573989447003078
7364860 26 17984421828489937855
81228 2 17904197383934470336
81539 233 18336834074278721005

>  <PUBCHEM_SHAPE_MULTIPOLES>  (1) 
264.64
4.17
2.56
1.21
0
0.65
0
-3.99
0
0
0
0
0.4
-0.87

>  <PUBCHEM_SHAPE_SELFOVERLAP>  (1) 
535.13

>  <PUBCHEM_SHAPE_VOLUME>  (1) 
152.5

>  <PUBCHEM_COORDINATE_TYPE>  (1) 
2
5
10

$$$$
