24121
     RDKit          3D

 21 24  0  0  0  0  0  0  0  0999 V2000
    1.5893    3.5166    0.0005 O   0  0  0  0  0  0  0  0  0  0  0  0
    3.4801    2.4014    0.0005 O   0  0  0  0  0  0  0  0  0  0  0  0
    2.2299    2.4423    0.0002 N   0  0  0  0  0  0  0  0  0  0  0  0
   -0.7231    0.1737    0.0001 C   0  0  0  0  0  0  0  0  0  0  0  0
   -0.0879   -1.1026    0.0001 C   0  0  0  0  0  0  0  0  0  0  0  0
    1.3533   -1.2085   -0.0001 C   0  0  0  0  0  0  0  0  0  0  0  0
   -2.1643    0.2795   -0.0001 C   0  0  0  0  0  0  0  0  0  0  0  0
    2.1340   -0.0281   -0.0004 C   0  0  0  0  0  0  0  0  0  0  0  0
   -2.9452   -0.9009    0.0002 C   0  0  0  0  0  0  0  0  0  0  0  0
    0.1145    1.3074    0.0000 C   0  0  0  0  0  0  0  0  0  0  0  0
    1.5044    1.2122   -0.0001 C   0  0  0  0  0  0  0  0  0  0  0  0
   -0.9256   -2.2365    0.0002 C   0  0  0  0  0  0  0  0  0  0  0  0
   -2.3156   -2.1412    0.0003 C   0  0  0  0  0  0  0  0  0  0  0  0
    2.0721   -2.4333    0.0002 C   0  0  0  0  0  0  0  0  0  0  0  0
   -2.8830    1.5045   -0.0004 C   0  0  0  0  0  0  0  0  0  0  0  0
    3.5389   -0.0882   -0.0006 C   0  0  0  0  0  0  0  0  0  0  0  0
   -4.3500   -0.8407    0.0002 C   0  0  0  0  0  0  0  0  0  0  0  0
    3.4695   -2.4836    0.0001 C   0  0  0  0  0  0  0  0  0  0  0  0
    4.2038   -1.3093   -0.0005 C   0  0  0  0  0  0  0  0  0  0  0  0
   -4.2804    1.5548   -0.0005 C   0  0  0  0  0  0  0  0  0  0  0  0
   -5.0148    0.3804   -0.0001 C   0  0  0  0  0  0  0  0  0  0  0  0
  1  3  1  0
  2  3  2  0
  3 11  1  0
  4  5  1  0
  4  7  1  0
  4 10  2  0
  5  6  2  0
  5 12  1  0
  6  8  1  0
  6 14  1  0
  7  9  2  0
  7 15  1  0
  8 11  2  0
  8 16  1  0
  9 13  1  0
  9 17  1  0
 10 11  1  0
 12 13  2  0
 14 18  2  0
 15 20  2  0
 16 19  2  0
 17 21  2  0
 18 19  1  0
 20 21  1  0
M  CHG  2   1  -1   3   1
M  END
>  <PUBCHEM_COMPOUND_CID>  (1) 
24121

>  <PUBCHEM_CONFORMER_RMSD>  (1) 
0.6

>  <PUBCHEM_CONFORMER_DIVERSEORDER>  (1) 
1

>  <PUBCHEM_MMFF94_PARTIAL_CHARGES>  (1) 
26
1 -0.52
10 -0.15
11 0.13
12 -0.15
13 -0.15
14 -0.15
15 -0.15
16 -0.15
17 -0.15
18 -0.15
19 -0.15
2 -0.52
20 -0.15
21 -0.15
22 0.15
23 0.15
24 0.15
25 0.15
26 0.15
27 0.15
28 0.15
29 0.15
3 0.91
30 0.15
31 0.15
32 0.15

>  <PUBCHEM_EFFECTIVE_ROTOR_COUNT>  (1) 
1

>  <PUBCHEM_PHARMACOPHORE_FEATURES>  (1) 
7
1 1 acceptor
1 1 anion
1 2 acceptor
6 4 5 6 8 10 11 rings
6 4 5 7 9 12 13 rings
6 6 8 14 16 18 19 rings
6 7 9 15 17 20 21 rings

>  <PUBCHEM_HEAVY_ATOM_COUNT>  (1) 
21

>  <PUBCHEM_ATOM_DEF_STEREO_COUNT>  (1) 
0

>  <PUBCHEM_ATOM_UDEF_STEREO_COUNT>  (1) 
0

>  <PUBCHEM_BOND_DEF_STEREO_COUNT>  (1) 
0

>  <PUBCHEM_BOND_UDEF_STEREO_COUNT>  (1) 
0

>  <PUBCHEM_ISOTOPIC_ATOM_COUNT>  (1) 
0

>  <PUBCHEM_COMPONENT_COUNT>  (1) 
1

>  <PUBCHEM_CACTVS_TAUTO_COUNT>  (1) 
1

>  <PUBCHEM_CONFORMER_ID>  (1) 
00005E3900000001

>  <PUBCHEM_MMFF94_ENERGY>  (1) 
99.6706

>  <PUBCHEM_FEATURE_SELFOVERLAP>  (1) 
35.672

>  <PUBCHEM_SHAPE_FINGERPRINT>  (1) 
10411042 1 18050568439443695598
10608611 8 18409447028978072301
10616163 171 18194966476711086999
10967382 1 18410573968040179716
1100329 8 18410011013749996154
11471102 20 18410571769022387414
11578080 2 17130410505715935371
11680986 33 18335146444051843755
116883 192 17981894047189891910
12173636 292 17545881989229545252
12403259 226 18335135350357137501
12403259 415 18113614556955823245
12403260 363 18341325613922384095
12553582 1 18265885870330344526
13140716 1 18337665425380781434
138480 1 18410856521486367232
14178342 30 18052520360408350674
14223421 5 18264492969291159683
14790565 3 17763192340882406592
14866123 147 16972240964618333482
15042514 8 17544752331738034314
15099037 51 18338234860661187319
15196674 1 18410574002858925443
15442244 35 18411700950226014001
15475509 35 16950279585789830371
15475509 8 17627258687336422572
15536298 74 18413670227080418818
1601671 61 18339644443215881478
16087824 20 17977950077322223477
16945 1 18410575131987132774
17349148 13 17989204802897332695
17492 89 18338797926553085783
17804303 29 18336551529770504343
19591789 44 18049722919006200647
200 152 18060412487669527791
20645477 70 18409726283367241111
21033648 29 17386276624270946765
21267235 1 18339369573588096879
21478907 32 17762056536902077834
21501502 16 18340203106544112503
21859007 373 17679274430953512749
221490 88 18336272318078216779
23227448 37 18340766039481299175
2334 1 18122626316985478888
23366157 5 18113898307863987870
23402539 116 18199457771114918223
23558518 356 17971192762077346923
23559900 14 18341889701672880384
238 59 17612832004322733965
2748010 2 18120941869498523814
3004659 81 18043256752155333646
335352 9 18338798905477698623
345986 75 17172905264398404250
34934 24 18410849933064921274
350125 39 18410016494856142377
4214541 1 18410575046541246631
474 4 18261953080056020448
5104073 3 18409732876490025523
543358 83 18411423890755271418
5939293 188 18411415094846995430
6443956 14 18337393747240394476
7364860 26 18411982498607506752
7832392 63 18412259536698715646
84936 182 18056758951774148232
9709674 26 18337675312322176171
9981440 41 17833263508155574240

>  <PUBCHEM_SHAPE_MULTIPOLES>  (1) 
415.45
8.55
3.21
0.6
4.37
1.44
0
-0.31
0
-2.33
0
0.03
-0.04
0

>  <PUBCHEM_SHAPE_SELFOVERLAP>  (1) 
953.838

>  <PUBCHEM_SHAPE_VOLUME>  (1) 
215

>  <PUBCHEM_COORDINATE_TYPE>  (1) 
2
5
10

$$$$
