24126
     RDKit          3D

 18 18  0  0  0  0  0  0  0  0999 V2000
    3.2519    0.0013    1.4237 Cl  0  0  0  0  0  0  0  0  0  0  0  0
    2.8822   -0.0011   -1.1762 O   0  0  0  0  0  0  0  0  0  0  0  0
    0.1603   -3.5141   -0.0268 O   0  0  0  0  0  0  0  0  0  0  0  0
    0.1619    3.5138   -0.0275 O   0  0  0  0  0  0  0  0  0  0  0  0
    2.0850   -2.4588   -0.0677 O   0  0  0  0  0  0  0  0  0  0  0  0
    2.0860    2.4578   -0.0674 O   0  0  0  0  0  0  0  0  0  0  0  0
   -3.9715   -1.0969    0.0592 O   0  0  0  0  0  0  0  0  0  0  0  0
   -3.9709    1.0984    0.0598 O   0  0  0  0  0  0  0  0  0  0  0  0
    0.8320   -2.4562   -0.0408 N   0  0  0  0  0  0  0  0  0  0  0  0
    0.8331    2.4557   -0.0414 N   0  0  0  0  0  0  0  0  0  0  0  0
   -3.3635    0.0006    0.0469 N   0  0  0  0  0  0  0  0  0  0  0  0
    0.8455   -0.0002   -0.0410 C   0  0  0  0  0  0  0  0  0  0  0  0
    0.1480   -1.2081   -0.0261 C   0  0  0  0  0  0  0  0  0  0  0  0
    0.1485    1.2079   -0.0266 C   0  0  0  0  0  0  0  0  0  0  0  0
   -1.9436    0.0003    0.0178 C   0  0  0  0  0  0  0  0  0  0  0  0
   -1.2466   -1.2078    0.0033 C   0  0  0  0  0  0  0  0  0  0  0  0
   -1.2460    1.2081    0.0027 C   0  0  0  0  0  0  0  0  0  0  0  0
    2.3076   -0.0007   -0.0717 C   0  0  0  0  0  0  0  0  0  0  0  0
  1 18  1  0
  2 18  2  0
  3  9  1  0
  4 10  1  0
  5  9  2  0
  6 10  2  0
  7 11  1  0
  8 11  2  0
  9 13  1  0
 10 14  1  0
 11 15  1  0
 12 13  2  0
 12 14  1  0
 12 18  1  0
 13 16  1  0
 14 17  2  0
 15 16  2  0
 15 17  1  0
M  CHG  6   3  -1   4  -1   7  -1   9   1  10   1  11   1
M  END
>  <PUBCHEM_COMPOUND_CID>  (1) 
24126

>  <PUBCHEM_CONFORMER_RMSD>  (1) 
0.6

>  <PUBCHEM_CONFORMER_DIVERSEORDER>  (1) 
1

>  <PUBCHEM_MMFF94_PARTIAL_CHARGES>  (1) 
20
1 -0.21
10 0.91
11 0.91
12 0.09
13 0.13
14 0.13
15 0.13
16 -0.15
17 -0.15
18 0.69
19 0.15
2 -0.57
20 0.15
3 -0.52
4 -0.52
5 -0.52
6 -0.52
7 -0.52
8 -0.52
9 0.91

>  <PUBCHEM_EFFECTIVE_ROTOR_COUNT>  (1) 
4

>  <PUBCHEM_PHARMACOPHORE_FEATURES>  (1) 
10
1 3 acceptor
1 3 anion
1 4 acceptor
1 4 anion
1 5 acceptor
1 6 acceptor
1 7 acceptor
1 7 anion
1 8 acceptor
6 12 13 14 15 16 17 rings

>  <PUBCHEM_HEAVY_ATOM_COUNT>  (1) 
18

>  <PUBCHEM_ATOM_DEF_STEREO_COUNT>  (1) 
0

>  <PUBCHEM_ATOM_UDEF_STEREO_COUNT>  (1) 
0

>  <PUBCHEM_BOND_DEF_STEREO_COUNT>  (1) 
0

>  <PUBCHEM_BOND_UDEF_STEREO_COUNT>  (1) 
0

>  <PUBCHEM_ISOTOPIC_ATOM_COUNT>  (1) 
0

>  <PUBCHEM_COMPONENT_COUNT>  (1) 
1

>  <PUBCHEM_CACTVS_TAUTO_COUNT>  (1) 
1

>  <PUBCHEM_CONFORMER_ID>  (1) 
00005E3E00000001

>  <PUBCHEM_MMFF94_ENERGY>  (1) 
77.8592

>  <PUBCHEM_FEATURE_SELFOVERLAP>  (1) 
50.995

>  <PUBCHEM_SHAPE_FINGERPRINT>  (1) 
10967382 1 18338800120963901543
10980938 120 18338518543245819715
11471102 20 18337951195430243999
116883 192 17691968163819955631
13140716 1 18266457796675250363
13172582 1 18337944675390359250
13380535 76 17981323713718073252
13380536 305 18339087110678743748
14178342 30 18341326683042356105
14251717 144 18411131468065321879
14790565 3 18338249227301172172
15490181 7 17615699860843541864
16945 1 18410575089158486821
193761 8 17689998933957048100
19591789 44 18337962310315339838
20511035 2 17824834578801703403
20645476 183 17823713051467077974
20645477 70 18335131042916298639
20905425 154 18053384288721813126
21501502 16 17906445885323970358
23184049 29 17688304590749534938
2334 1 17978229692476841741
23402539 116 18271798030399623478
23463225 33 18335134263455916570
23557571 272 16904125132952188798
23558518 356 17109314343511967420
2748010 2 18122902019257144549
3060560 45 18411979187045544071
352729 6 17834677480192841207
394222 165 17604441802985103944
54173680 148 17041480514543756522
589210 1 17690280829909073588
7364860 26 18411420609505732823
7832392 63 18269276760095599641
81228 2 17686064894338156913

>  <PUBCHEM_SHAPE_MULTIPOLES>  (1) 
316.27
5.04
3.36
0.77
3.78
0
0.1
0
0.66
-1.06
-0.19
-0.63
0
0

>  <PUBCHEM_SHAPE_SELFOVERLAP>  (1) 
672.468

>  <PUBCHEM_SHAPE_VOLUME>  (1) 
176

>  <PUBCHEM_COORDINATE_TYPE>  (1) 
2
5
10

$$$$
