24138
     RDKit          3D

 15 16  0  0  1  0  0  0  0  0999 V2000
   -0.4006    0.9359   -0.1069 N   0  0  0  0  0  0  0  0  0  0  0  0
    0.4129    2.0708    0.3460 C   0  0  0  0  0  0  0  0  0  0  0  0
    0.1414   -0.3251    0.4290 C   0  0  0  0  0  0  0  0  0  0  0  0
   -1.7960    1.1030    0.2982 C   0  0  0  0  0  0  0  0  0  0  0  0
    1.8161    1.9812   -0.2627 C   0  0  0  0  0  0  0  0  0  0  0  0
    1.6201   -0.4994    0.1681 C   0  0  0  0  0  0  0  0  0  0  0  0
    2.4298    0.6129   -0.1192 C   0  0  0  0  0  0  0  0  0  0  0  0
   -2.6498   -0.0354   -0.2574 C   0  0  0  0  0  0  0  0  0  0  0  0
   -4.1188    0.1314    0.1370 C   0  0  0  0  0  0  0  0  0  0  0  0
    2.2037   -1.7691    0.2754 C   0  0  0  0  0  0  0  0  0  0  0  0
    3.8029    0.4342   -0.3319 C   0  0  0  0  0  0  0  0  0  0  0  0
   -4.9704   -1.0245   -0.3872 C   0  0  0  0  0  0  0  0  0  0  0  0
    3.5733   -1.9355    0.0714 C   0  0  0  0  0  0  0  0  0  0  0  0
    4.3716   -0.8354   -0.2341 C   0  0  0  0  0  0  0  0  0  0  0  0
   -6.4363   -0.8451   -0.0256 C   0  0  0  0  0  0  0  0  0  0  0  0
  1  2  1  0
  1  3  1  0
  1  4  1  0
  2  5  1  0
  3  6  1  0
  4  8  1  0
  5  7  1  0
  6  7  2  0
  6 10  1  0
  7 11  1  0
  8  9  1  0
  9 12  1  0
 10 13  2  0
 11 14  2  0
 12 15  1  0
 13 14  1  0
M  END
>  <PUBCHEM_COMPOUND_CID>  (1) 
24138

>  <PUBCHEM_CONFORMER_RMSD>  (1) 
0.6

>  <PUBCHEM_CONFORMER_DIVERSEORDER>  (1) 
1
19
18
31
38
21
37
26
4
40
30
14
20
10
39
25
6
43
33
23
24
36
15
41
42
29
8
9
28
35
13
11
2
3
16
7
34
5
32
22
27
17
12

>  <PUBCHEM_MMFF94_PARTIAL_CHARGES>  (1) 
15
1 -0.81
10 -0.15
11 -0.15
13 -0.15
14 -0.15
2 0.27
28 0.15
29 0.15
3 0.41
32 0.15
33 0.15
4 0.27
5 0.14
6 -0.14
7 -0.14

>  <PUBCHEM_EFFECTIVE_ROTOR_COUNT>  (1) 
4.8

>  <PUBCHEM_PHARMACOPHORE_FEATURES>  (1) 
4
1 1 cation
1 15 hydrophobe
6 1 2 3 5 6 7 rings
6 6 7 10 11 13 14 rings

>  <PUBCHEM_HEAVY_ATOM_COUNT>  (1) 
15

>  <PUBCHEM_ATOM_DEF_STEREO_COUNT>  (1) 
0

>  <PUBCHEM_ATOM_UDEF_STEREO_COUNT>  (1) 
0

>  <PUBCHEM_BOND_DEF_STEREO_COUNT>  (1) 
0

>  <PUBCHEM_BOND_UDEF_STEREO_COUNT>  (1) 
0

>  <PUBCHEM_ISOTOPIC_ATOM_COUNT>  (1) 
0

>  <PUBCHEM_COMPONENT_COUNT>  (1) 
1

>  <PUBCHEM_CACTVS_TAUTO_COUNT>  (1) 
1

>  <PUBCHEM_CONFORMER_ID>  (1) 
00005E4A00000001

>  <PUBCHEM_MMFF94_ENERGY>  (1) 
24.4884

>  <PUBCHEM_FEATURE_SELFOVERLAP>  (1) 
20.319

>  <PUBCHEM_SHAPE_FINGERPRINT>  (1) 
11471102 20 18335422395595025572
11806522 49 18409449172034981672
12032990 46 18339644438825838684
12236239 1 17988928881624461825
13167823 11 18342174497134272311
13464513 79 18272653445950735726
13690532 89 18411138021736873091
13836976 161 18335143132610888374
13862211 1 18335983069817472210
13955234 65 18197216060538309161
14251717 144 18408323293560771002
14252887 29 17846787282217879694
14350574 20 18260831505608304991
14576447 43 18409731733907599486
15188451 53 15410316867898295855
15196674 1 18410573942275761125
15342816 4 18338522919901968678
15477762 27 18409449176498702076
16945 1 18262814969151236136
17834072 33 18412544336370100845
200 152 18342457036956780881
20261772 1 17918269861676279927
20281475 54 18338798909909984553
20369508 70 18342454871855738497
20388580 30 18409453582898050484
20645477 70 18408322198402100415
21267235 1 18340774762681183414
221357 26 18334006195292268061
221490 88 18263087784930702195
23402539 116 18337950070059232438
23402655 69 18335138644217186925
23559900 14 18262797505508411481
23596394 208 17822559552269202607
2748010 2 18047487896073212984
2871803 45 18186518787214705843
29717793 49 18202282503145344837
314194 84 18341893004767027075
33824 294 18408882966723060546
351380 3 18201998837587853895
4047638 21 9583520923171346613
4214541 1 18410855426623342533
42630746 31 18341328998225160360
46194498 28 17458626765410548877
465052 167 18272656770419070279
5104073 3 18271240517331487081
5281201 14 17894627059186706141
602551 16 15625931105919715431
76465 3 18116708522214591738
83771 10 18412824659784107025
94968 8 18409729551879388906

>  <PUBCHEM_SHAPE_MULTIPOLES>  (1) 
303.71
11.23
1.99
0.68
18.12
0.3
0
-5.82
1.18
-1.49
-0.08
0
0
-0.34

>  <PUBCHEM_SHAPE_SELFOVERLAP>  (1) 
618.044

>  <PUBCHEM_SHAPE_VOLUME>  (1) 
177.5

>  <PUBCHEM_COORDINATE_TYPE>  (1) 
2
5
10

$$$$
