24132
     RDKit          3D

 20 21  0  0  0  0  0  0  0  0999 V2000
   -0.8477   -0.3919    0.9732 O   0  0  0  0  0  0  0  0  0  0  0  0
    1.8458   -3.2011   -0.2454 O   0  0  0  0  0  0  0  0  0  0  0  0
   -0.1753   -2.7100    0.4567 O   0  0  0  0  0  0  0  0  0  0  0  0
    4.6273    2.3460   -0.3965 O   0  0  0  0  0  0  0  0  0  0  0  0
    5.1355    0.2548   -0.8297 O   0  0  0  0  0  0  0  0  0  0  0  0
    0.9875   -2.3698    0.1341 N   0  0  0  0  0  0  0  0  0  0  0  0
    4.3185    1.1315   -0.4578 N   0  0  0  0  0  0  0  0  0  0  0  0
   -4.8188    0.4268   -0.2735 C   0  0  0  0  0  0  0  0  0  0  0  0
   -1.9085    0.1872    0.2212 C   0  0  0  0  0  0  0  0  0  0  0  0
   -3.9132   -0.3969   -1.1998 C   0  0  0  0  0  0  0  0  0  0  0  0
   -4.0270    1.5501    0.4104 C   0  0  0  0  0  0  0  0  0  0  0  0
   -2.6910   -0.9325   -0.4599 C   0  0  0  0  0  0  0  0  0  0  0  0
   -2.8043    1.0092    1.1455 C   0  0  0  0  0  0  0  0  0  0  0  0
   -6.0054    0.9977   -1.0476 C   0  0  0  0  0  0  0  0  0  0  0  0
    0.4259   -0.0359    0.6167 C   0  0  0  0  0  0  0  0  0  0  0  0
    1.3450   -0.9950    0.2016 C   0  0  0  0  0  0  0  0  0  0  0  0
    0.7869    1.3068    0.6786 C   0  0  0  0  0  0  0  0  0  0  0  0
    2.6368   -0.6077   -0.1550 C   0  0  0  0  0  0  0  0  0  0  0  0
    2.0786    1.6940    0.3219 C   0  0  0  0  0  0  0  0  0  0  0  0
    3.0035    0.7368   -0.0948 C   0  0  0  0  0  0  0  0  0  0  0  0
  1  9  1  0
  1 15  1  0
  2  6  1  0
  3  6  2  0
  4  7  1  0
  5  7  2  0
  6 16  1  0
  7 20  1  0
  8 10  1  0
  8 11  1  0
  8 14  1  0
  9 12  1  0
  9 13  1  0
 10 12  1  0
 11 13  1  0
 15 16  2  0
 15 17  1  0
 16 18  1  0
 17 19  2  0
 18 20  2  0
 19 20  1  0
M  CHG  4   2  -1   4  -1   6   1   7   1
M  END
>  <PUBCHEM_COMPOUND_CID>  (1) 
24132

>  <PUBCHEM_CONFORMER_RMSD>  (1) 
0.8

>  <PUBCHEM_CONFORMER_DIVERSEORDER>  (1) 
1
5
8
7
3
2
6
4

>  <PUBCHEM_MMFF94_PARTIAL_CHARGES>  (1) 
17
1 -0.36
15 0.08
16 0.13
17 -0.15
18 -0.15
19 -0.15
2 -0.52
20 0.13
3 -0.52
34 0.15
35 0.15
36 0.15
4 -0.52
5 -0.52
6 0.91
7 0.91
9 0.28

>  <PUBCHEM_EFFECTIVE_ROTOR_COUNT>  (1) 
5.2

>  <PUBCHEM_PHARMACOPHORE_FEATURES>  (1) 
9
1 1 acceptor
1 2 acceptor
1 2 anion
1 3 acceptor
1 4 acceptor
1 4 anion
1 5 acceptor
6 15 16 17 18 19 20 rings
6 8 9 10 11 12 13 rings

>  <PUBCHEM_HEAVY_ATOM_COUNT>  (1) 
20

>  <PUBCHEM_ATOM_DEF_STEREO_COUNT>  (1) 
0

>  <PUBCHEM_ATOM_UDEF_STEREO_COUNT>  (1) 
0

>  <PUBCHEM_BOND_DEF_STEREO_COUNT>  (1) 
0

>  <PUBCHEM_BOND_UDEF_STEREO_COUNT>  (1) 
0

>  <PUBCHEM_ISOTOPIC_ATOM_COUNT>  (1) 
0

>  <PUBCHEM_COMPONENT_COUNT>  (1) 
1

>  <PUBCHEM_CACTVS_TAUTO_COUNT>  (1) 
1

>  <PUBCHEM_CONFORMER_ID>  (1) 
00005E4400000001

>  <PUBCHEM_MMFF94_ENERGY>  (1) 
62.4672

>  <PUBCHEM_FEATURE_SELFOVERLAP>  (1) 
45.859

>  <PUBCHEM_SHAPE_FINGERPRINT>  (1) 
10693767 8 17987800692374178262
10759866 29 18272646818948118911
11471102 20 18410293579669232496
11796584 16 14189580719304157269
12730499 353 18335425668771549099
12788726 201 17346038853886174377
13464514 151 18412268319769634002
13583140 156 17023744662138513672
13760787 19 18201712960380142319
14528608 73 18411696604041247277
14576447 43 18131059442479738127
15442244 35 17983014449443305865
15475509 84 11530473411674038167
16752209 62 16845284996203628651
18335252 98 18334860533423643867
19862831 5 17917992793441223729
200 152 17632860845246271449
20612939 158 18337671906207109319
20645477 70 18337669703194906515
21499 59 18409168835076885458
21521239 73 18060420201103867782
21637258 2 14836408004051043532
22182313 1 18194992792313728970
22289505 5 18263632979637196941
22393880 68 18201712981353792853
2255824 54 18266456499553734259
22950370 63 9079126574406222584
231179 274 17603581937067034272
23402539 116 18344148103215647140
23402655 69 18342174445309970969
23557571 272 17168162138765795323
23559900 14 17702936062568746977
23598291 2 17915183412509733939
25 1 18409165515056713666
25147074 1 17916027850419778641
266924 1 17916312645042316185
2871803 45 18343864402807625605
3060560 45 18411698794500623700
3071541 37 18408604738673333146
335352 9 18409733959333408550
3545911 37 18409167723471659457
3759504 43 17968944226771005626
4072396 5 18262223457501617208
4280585 95 17268929982760313662
465052 167 9799690428309869344
474 4 18334015007969118637
53917941 68 18198051680806004596
543358 83 18198626540645676577
81539 233 18259985963733663450
8272917 22 18339643335040459735
8863177 126 11815031505273224837

>  <PUBCHEM_SHAPE_MULTIPOLES>  (1) 
372.28
10.73
2.46
0.97
5.14
1.69
-0.02
-5.7
-4.35
-2.12
0.11
0.59
-0.12
-0.5

>  <PUBCHEM_SHAPE_SELFOVERLAP>  (1) 
782.516

>  <PUBCHEM_SHAPE_VOLUME>  (1) 
209.2

>  <PUBCHEM_COORDINATE_TYPE>  (1) 
2
5
10

$$$$
