24134
     RDKit          3D

 13 13  0  0  0  0  0  0  0  0999 V2000
    3.4940    2.5499    0.3532 Br  0  0  0  0  0  0  0  0  0  0  0  0
    2.6069   -3.0663    0.1231 Br  0  0  0  0  0  0  0  0  0  0  0  0
   -1.2072    0.4492   -0.6052 O   0  0  0  0  0  0  0  0  0  0  0  0
   -4.3537   -0.8310    0.5484 O   0  0  0  0  0  0  0  0  0  0  0  0
   -3.7138    1.2962    0.0452 O   0  0  0  0  0  0  0  0  0  0  0  0
    0.1101    0.2301   -0.3436 C   0  0  0  0  0  0  0  0  0  0  0  0
    0.5970   -1.0742   -0.2585 C   0  0  0  0  0  0  0  0  0  0  0  0
    0.9739    1.3101   -0.1616 C   0  0  0  0  0  0  0  0  0  0  0  0
    2.3245    1.0858    0.1057 C   0  0  0  0  0  0  0  0  0  0  0  0
    1.9475   -1.2987    0.0087 C   0  0  0  0  0  0  0  0  0  0  0  0
   -2.1324   -0.5380   -0.1518 C   0  0  0  0  0  0  0  0  0  0  0  0
    2.8114   -0.2187    0.1908 C   0  0  0  0  0  0  0  0  0  0  0  0
   -3.4583    0.1056    0.1457 C   0  0  0  0  0  0  0  0  0  0  0  0
  1  9  1  0
  2 10  1  0
  3  6  1  0
  3 11  1  0
  4 13  1  0
  5 13  2  0
  6  7  2  0
  6  8  1  0
  7 10  1  0
  8  9  2  0
  9 12  1  0
 10 12  2  0
 11 13  1  0
M  END
>  <PUBCHEM_COMPOUND_CID>  (1) 
24134

>  <PUBCHEM_CONFORMER_RMSD>  (1) 
0.6

>  <PUBCHEM_CONFORMER_DIVERSEORDER>  (1) 
1
7
3
6
2
12
5
4
9
11
8
10

>  <PUBCHEM_MMFF94_PARTIAL_CHARGES>  (1) 
17
1 -0.11
10 0.11
11 0.34
12 -0.15
13 0.66
14 0.15
15 0.15
18 0.15
19 0.5
2 -0.11
3 -0.36
4 -0.65
5 -0.57
6 0.08
7 -0.15
8 -0.15
9 0.11

>  <PUBCHEM_EFFECTIVE_ROTOR_COUNT>  (1) 
3

>  <PUBCHEM_PHARMACOPHORE_FEATURES>  (1) 
7
1 1 hydrophobe
1 2 hydrophobe
1 3 acceptor
1 4 acceptor
1 5 acceptor
3 4 5 13 anion
6 6 7 8 9 10 12 rings

>  <PUBCHEM_HEAVY_ATOM_COUNT>  (1) 
13

>  <PUBCHEM_ATOM_DEF_STEREO_COUNT>  (1) 
0

>  <PUBCHEM_ATOM_UDEF_STEREO_COUNT>  (1) 
0

>  <PUBCHEM_BOND_DEF_STEREO_COUNT>  (1) 
0

>  <PUBCHEM_BOND_UDEF_STEREO_COUNT>  (1) 
0

>  <PUBCHEM_ISOTOPIC_ATOM_COUNT>  (1) 
0

>  <PUBCHEM_COMPONENT_COUNT>  (1) 
1

>  <PUBCHEM_CACTVS_TAUTO_COUNT>  (1) 
1

>  <PUBCHEM_CONFORMER_ID>  (1) 
00005E4600000001

>  <PUBCHEM_MMFF94_ENERGY>  (1) 
30.1384

>  <PUBCHEM_FEATURE_SELFOVERLAP>  (1) 
35.583

>  <PUBCHEM_SHAPE_FINGERPRINT>  (1) 
10465860 228 18413111645256820424
10608611 8 18408317766180863573
10980938 120 18412824715634441176
11471102 20 18411132524416195708
12346645 44 18269553999733591404
12346645 6 18410854386750425772
12532896 13 18052818337029116628
12932764 1 17632569483444515477
14123255 52 18197494232706202720
14144814 61 18411139130276343849
14252887 29 18113626698379670707
14325111 11 18410855477666883085
15219456 202 18261666013179551245
15442244 35 18124598587221358985
15501101 241 18260830367157070268
15775835 57 18130227184717500773
16945 1 18339063931294044350
18380122 1 18040703784169174372
201361 129 18342741836006355896
20339313 130 18128256692709267022
204376 136 18193837274201331456
20645477 70 18336817611769360951
20671657 1 18412830183365380870
20871998 22 18054226523477450630
21065199 12 18335426764135902649
21524375 3 18057323005686943604
2255824 54 18413108342748775246
22943178 12 18186516575596503941
23557571 272 17168137910617947717
2748010 2 17836342884248720606
3091708 16 9473602742001559114
33824 294 18335700580642956219
449060 50 18337674221405478413
458136 41 18337116769147164148
4990 188 17988376961068208620
5104073 3 18408608041856417593
54173680 148 17402047795552615102
6049 1 17968370126728809493
7364860 26 18412825764081254102
81228 2 17045689458508893058
81539 233 18334572494866376060

>  <PUBCHEM_SHAPE_MULTIPOLES>  (1) 
261.81
7.09
2.85
0.69
8.36
1.17
0.01
-1.57
1.29
-4.18
0.27
-0.03
0
0.23

>  <PUBCHEM_SHAPE_SELFOVERLAP>  (1) 
512.338

>  <PUBCHEM_SHAPE_VOLUME>  (1) 
162.7

>  <PUBCHEM_COORDINATE_TYPE>  (1) 
2
5
10

$$$$
