24143
     RDKit          3D

 10 10  0  0  0  0  0  0  0  0999 V2000
   -1.1539   -0.0233   -0.2941 C   0  0  0  0  0  0  0  0  0  0  0  0
   -2.3689   -0.8479   -0.5547 C   0  0  0  0  0  0  0  0  0  0  0  0
    0.1096   -0.6140   -0.3210 C   0  0  0  0  0  0  0  0  0  0  0  0
    1.2456    0.1576   -0.0761 C   0  0  0  0  0  0  0  0  0  0  0  0
   -1.2811    1.3389   -0.0219 C   0  0  0  0  0  0  0  0  0  0  0  0
   -2.9453   -1.4527    0.7230 C   0  0  0  0  0  0  0  0  0  0  0  0
    1.1181    1.5198    0.1958 C   0  0  0  0  0  0  0  0  0  0  0  0
   -0.1451    2.1105    0.2228 C   0  0  0  0  0  0  0  0  0  0  0  0
    2.5632   -0.4578   -0.1036 C   0  0  0  0  0  0  0  0  0  0  0  0
    2.8578   -1.7312    0.2298 C   0  0  0  0  0  0  0  0  0  0  0  0
  1  2  1  0
  1  3  2  0
  1  5  1  0
  2  6  1  0
  3  4  1  0
  4  7  2  0
  4  9  1  0
  5  8  2  0
  7  8  1  0
  9 10  2  0
M  END
>  <PUBCHEM_COMPOUND_CID>  (1) 
24143

>  <PUBCHEM_CONFORMER_RMSD>  (1) 
0.4

>  <PUBCHEM_CONFORMER_DIVERSEORDER>  (1) 
1
5
2
3
6
4
7

>  <PUBCHEM_MMFF94_PARTIAL_CHARGES>  (1) 
16
1 -0.14
10 -0.3
13 0.15
14 0.15
18 0.15
19 0.15
2 0.14
20 0.15
21 0.15
22 0.15
3 -0.15
4 0.03
5 -0.15
7 -0.15
8 -0.15
9 -0.18

>  <PUBCHEM_EFFECTIVE_ROTOR_COUNT>  (1) 
2

>  <PUBCHEM_PHARMACOPHORE_FEATURES>  (1) 
3
1 10 hydrophobe
1 6 hydrophobe
6 1 3 4 5 7 8 rings

>  <PUBCHEM_HEAVY_ATOM_COUNT>  (1) 
10

>  <PUBCHEM_ATOM_DEF_STEREO_COUNT>  (1) 
0

>  <PUBCHEM_ATOM_UDEF_STEREO_COUNT>  (1) 
0

>  <PUBCHEM_BOND_DEF_STEREO_COUNT>  (1) 
0

>  <PUBCHEM_BOND_UDEF_STEREO_COUNT>  (1) 
0

>  <PUBCHEM_ISOTOPIC_ATOM_COUNT>  (1) 
0

>  <PUBCHEM_COMPONENT_COUNT>  (1) 
1

>  <PUBCHEM_CACTVS_TAUTO_COUNT>  (1) 
1

>  <PUBCHEM_CONFORMER_ID>  (1) 
00005E4F00000001

>  <PUBCHEM_MMFF94_ENERGY>  (1) 
23.5287

>  <PUBCHEM_FEATURE_SELFOVERLAP>  (1) 
15.223

>  <PUBCHEM_SHAPE_FINGERPRINT>  (1) 
10857977 72 18270385131950653194
14128692 85 18334863805217948324
161256 15 18340485685280068860
16945 1 18124024895496747005
20645477 70 18193829569362721399
20871998 184 18058444314183913910
20871998 22 18271537437137388878
21040471 1 17693660307841390860
23500284 5 18335422300968900755
23552423 10 18334016073194698820
241688 4 18410290281124027224
2748010 2 18341320141606905244
29004967 10 18192709166596681865
81228 2 18196651783149602192

>  <PUBCHEM_SHAPE_MULTIPOLES>  (1) 
205.8
4.1
2.12
0.73
0.1
0.61
0.02
-3.02
0.41
0.09
0.31
-0.21
-0.1
0.13

>  <PUBCHEM_SHAPE_SELFOVERLAP>  (1) 
418.831

>  <PUBCHEM_SHAPE_VOLUME>  (1) 
116.4

>  <PUBCHEM_COORDINATE_TYPE>  (1) 
2
5
10

$$$$
