24150
     RDKit          3D

  8  8  0  0  1  0  0  0  0  0999 V2000
   -2.5260   -0.9121   -0.2334 O   0  0  0  0  0  0  0  0  0  0  0  0
   -0.3353   -0.7875    0.5880 N   0  0  0  0  0  0  0  0  0  0  0  0
    0.7483    0.1635    0.5897 C   0  0  0  0  0  0  0  0  0  0  0  0
    0.0337    1.4830    0.3247 C   0  0  0  0  0  0  0  0  0  0  0  0
   -1.1798    1.0909   -0.5162 C   0  0  0  0  0  0  0  0  0  0  0  0
   -1.4791   -0.3115   -0.0462 C   0  0  0  0  0  0  0  0  0  0  0  0
    1.7285   -0.2126   -0.4719 C   0  0  0  0  0  0  0  0  0  0  0  0
    3.0097   -0.5138   -0.2347 C   0  0  0  0  0  0  0  0  0  0  0  0
  1  6  2  0
  2  3  1  0
  2  6  1  0
  3  4  1  0
  3  7  1  0
  4  5  1  0
  5  6  1  0
  7  8  2  0
M  END
>  <PUBCHEM_COMPOUND_CID>  (1) 
24150

>  <PUBCHEM_CONFORMER_RMSD>  (1) 
0.4

>  <PUBCHEM_CONFORMER_DIVERSEORDER>  (1) 
1
3
4
2

>  <PUBCHEM_MMFF94_PARTIAL_CHARGES>  (1) 
11
1 -0.57
14 0.37
15 0.15
16 0.15
17 0.15
2 -0.73
3 0.44
5 0.06
6 0.57
7 -0.29
8 -0.3

>  <PUBCHEM_EFFECTIVE_ROTOR_COUNT>  (1) 
1.8

>  <PUBCHEM_PHARMACOPHORE_FEATURES>  (1) 
4
1 1 acceptor
1 2 donor
1 8 hydrophobe
5 2 3 4 5 6 rings

>  <PUBCHEM_HEAVY_ATOM_COUNT>  (1) 
8

>  <PUBCHEM_ATOM_DEF_STEREO_COUNT>  (1) 
0

>  <PUBCHEM_ATOM_UDEF_STEREO_COUNT>  (1) 
1

>  <PUBCHEM_BOND_DEF_STEREO_COUNT>  (1) 
0

>  <PUBCHEM_BOND_UDEF_STEREO_COUNT>  (1) 
0

>  <PUBCHEM_ISOTOPIC_ATOM_COUNT>  (1) 
0

>  <PUBCHEM_COMPONENT_COUNT>  (1) 
1

>  <PUBCHEM_CACTVS_TAUTO_COUNT>  (1) 
3

>  <PUBCHEM_CONFORMER_ID>  (1) 
00005E5600000001

>  <PUBCHEM_MMFF94_ENERGY>  (1) 
10.2927

>  <PUBCHEM_FEATURE_SELFOVERLAP>  (1) 
20.297

>  <PUBCHEM_SHAPE_FINGERPRINT>  (1) 
12897270 3 18335140882106008302
14128692 85 18340773752989010748
14390081 3 11891327664394611358
16714656 1 18408325462476940559
20653085 51 15430323498928787182
21040471 1 17904467515992534649
23552423 10 18043252340616888818
29004967 10 17346878936023854322
369184 2 18341333284459648680

>  <PUBCHEM_SHAPE_MULTIPOLES>  (1) 
153.79
3.38
1.24
0.77
1.6
0.35
0.01
-1.17
-0.63
-0.46
0.03
0.05
0.04
0.1

>  <PUBCHEM_SHAPE_SELFOVERLAP>  (1) 
305.404

>  <PUBCHEM_SHAPE_VOLUME>  (1) 
93.1

>  <PUBCHEM_COORDINATE_TYPE>  (1) 
2
5
10

$$$$
