24152
     RDKit          3D

 10 10  0  0  0  0  0  0  0  0999 V2000
   -0.0001   -2.2202   -0.0729 N   0  0  0  0  0  0  0  0  0  0  0  0
    0.0000    1.9047   -1.0399 N   0  0  0  0  0  0  0  0  0  0  0  0
   -1.0636   -0.0041    0.1145 C   0  0  0  0  0  0  0  0  0  0  0  0
    1.0638   -0.0041    0.1147 C   0  0  0  0  0  0  0  0  0  0  0  0
   -0.0001   -0.9782    0.6628 C   0  0  0  0  0  0  0  0  0  0  0  0
    0.0001    0.4656   -0.8995 C   0  0  0  0  0  0  0  0  0  0  0  0
   -1.5515    1.1374    0.9944 C   0  0  0  0  0  0  0  0  0  0  0  0
   -2.2842   -0.7189   -0.4342 C   0  0  0  0  0  0  0  0  0  0  0  0
    2.2839   -0.7190   -0.4348 C   0  0  0  0  0  0  0  0  0  0  0  0
    1.5519    1.1369    0.9948 C   0  0  0  0  0  0  0  0  0  0  0  0
  1  5  1  0
  2  6  1  0
  3  5  1  0
  3  6  1  0
  3  7  1  0
  3  8  1  0
  4  5  1  0
  4  6  1  0
  4  9  1  0
  4 10  1  0
M  END
>  <PUBCHEM_COMPOUND_CID>  (1) 
24152

>  <PUBCHEM_CONFORMER_RMSD>  (1) 
0.4

>  <PUBCHEM_CONFORMER_DIVERSEORDER>  (1) 
1

>  <PUBCHEM_MMFF94_PARTIAL_CHARGES>  (1) 
8
1 -0.93
2 -0.93
25 0.36
26 0.36
27 0.36
28 0.36
5 0.21
6 0.21

>  <PUBCHEM_EFFECTIVE_ROTOR_COUNT>  (1) 
0.8

>  <PUBCHEM_PHARMACOPHORE_FEATURES>  (1) 
7
1 1 cation
1 1 donor
1 2 cation
1 2 donor
3 3 7 8 hydrophobe
3 4 9 10 hydrophobe
4 3 4 5 6 rings

>  <PUBCHEM_HEAVY_ATOM_COUNT>  (1) 
10

>  <PUBCHEM_ATOM_DEF_STEREO_COUNT>  (1) 
0

>  <PUBCHEM_ATOM_UDEF_STEREO_COUNT>  (1) 
0

>  <PUBCHEM_BOND_DEF_STEREO_COUNT>  (1) 
0

>  <PUBCHEM_BOND_UDEF_STEREO_COUNT>  (1) 
0

>  <PUBCHEM_ISOTOPIC_ATOM_COUNT>  (1) 
0

>  <PUBCHEM_COMPONENT_COUNT>  (1) 
1

>  <PUBCHEM_CACTVS_TAUTO_COUNT>  (1) 
1

>  <PUBCHEM_CONFORMER_ID>  (1) 
00005E5800000001

>  <PUBCHEM_MMFF94_ENERGY>  (1) 
53.6142

>  <PUBCHEM_FEATURE_SELFOVERLAP>  (1) 
35.52

>  <PUBCHEM_SHAPE_FINGERPRINT>  (1) 
12423570 1 11170211833904625721
13024252 1 15357696383832510562
137420 1 8525856506185167818
16945 1 17989207044527434831
21040471 1 18265614466666450819
241688 4 18335983086258427833
2748010 2 18408599279542793319
29004967 10 17822004337245815777
369184 2 11743549938989028822
5084963 1 18409729564516312485
68250623 7 17346602997059560617

>  <PUBCHEM_SHAPE_MULTIPOLES>  (1) 
195.83
2.44
1.79
1.06
0
0.21
-0.03
0.22
0.03
0
-0.02
0
-0.37
0

>  <PUBCHEM_SHAPE_SELFOVERLAP>  (1) 
395.162

>  <PUBCHEM_SHAPE_VOLUME>  (1) 
115.4

>  <PUBCHEM_COORDINATE_TYPE>  (1) 
2
5
10

$$$$
