24156
     RDKit          3D

 17 19  0  0  1  0  0  0  0  0999 V2000
    0.4795    0.0549    0.0481 O   0  0  0  0  0  0  0  0  0  0  0  0
    1.0817   -2.2009   -0.1911 O   0  0  0  0  0  0  0  0  0  0  0  0
   -3.0624   -0.9567   -0.2410 N   0  0  0  0  0  0  0  0  0  0  0  0
    1.5874   -0.8517   -0.0483 C   0  0  0  0  0  0  0  0  0  0  0  0
   -0.6514   -0.7005   -0.3893 C   0  0  0  0  0  0  0  0  0  0  0  0
   -1.9254   -0.1430    0.2079 C   0  0  0  0  0  0  0  0  0  0  0  0
    2.4301   -0.5631   -1.2955 C   0  0  0  0  0  0  0  0  0  0  0  0
    2.4134   -0.8185    1.2434 C   0  0  0  0  0  0  0  0  0  0  0  0
   -0.3184   -2.0972    0.0715 C   0  0  0  0  0  0  0  0  0  0  0  0
   -2.1129    1.3252   -0.1983 C   0  0  0  0  0  0  0  0  0  0  0  0
    2.6895    0.9020   -1.6362 C   0  0  0  0  0  0  0  0  0  0  0  0
    2.9380    0.5437    1.6842 C   0  0  0  0  0  0  0  0  0  0  0  0
   -3.4330    1.8804    0.3295 C   0  0  0  0  0  0  0  0  0  0  0  0
    2.9951    1.8578   -0.4877 C   0  0  0  0  0  0  0  0  0  0  0  0
    3.8072    1.2660    0.6579 C   0  0  0  0  0  0  0  0  0  0  0  0
   -4.5930    0.9765   -0.0735 C   0  0  0  0  0  0  0  0  0  0  0  0
   -4.3255   -0.4748    0.3185 C   0  0  0  0  0  0  0  0  0  0  0  0
  1  4  1  0
  1  5  1  0
  2  4  1  0
  2  9  1  0
  3  6  1  0
  3 17  1  0
  4  7  1  0
  4  8  1  0
  5  6  1  0
  5  9  1  0
  6 10  1  0
  7 11  1  0
  8 12  1  0
 10 13  1  0
 11 14  1  0
 12 15  1  0
 13 16  1  0
 14 15  1  0
 16 17  1  0
M  END
>  <PUBCHEM_COMPOUND_CID>  (1) 
24156

>  <PUBCHEM_CONFORMER_RMSD>  (1) 
0.6

>  <PUBCHEM_CONFORMER_DIVERSEORDER>  (1) 
1
91
19
75
6
89
71
16
47
73
44
69
33
60
23
66
3
77
8
74
79
15
65
25
18
48
21
53
12
68
29
80
67
37
14
64
92
43
32
34
13
38
87
63
59
82
84
62
30
90
81
27
88
11
41
24
85
70
4
52
72
20
61
49
35
54
56
31
57
2
26
9
22
39
46
50
58
10
40
28
7
51
86
76
45
78
5
42
83
36
17
55

>  <PUBCHEM_MMFF94_PARTIAL_CHARGES>  (1) 
9
1 -0.56
17 0.27
2 -0.56
3 -0.9
34 0.36
4 0.56
5 0.28
6 0.27
9 0.28

>  <PUBCHEM_EFFECTIVE_ROTOR_COUNT>  (1) 
4.2

>  <PUBCHEM_PHARMACOPHORE_FEATURES>  (1) 
7
1 1 acceptor
1 2 acceptor
1 3 cation
1 3 donor
5 1 2 4 5 9 rings
6 3 6 10 13 16 17 rings
7 4 7 8 11 12 14 15 rings

>  <PUBCHEM_HEAVY_ATOM_COUNT>  (1) 
17

>  <PUBCHEM_ATOM_DEF_STEREO_COUNT>  (1) 
0

>  <PUBCHEM_ATOM_UDEF_STEREO_COUNT>  (1) 
2

>  <PUBCHEM_BOND_DEF_STEREO_COUNT>  (1) 
0

>  <PUBCHEM_BOND_UDEF_STEREO_COUNT>  (1) 
0

>  <PUBCHEM_ISOTOPIC_ATOM_COUNT>  (1) 
0

>  <PUBCHEM_COMPONENT_COUNT>  (1) 
1

>  <PUBCHEM_CACTVS_TAUTO_COUNT>  (1) 
1

>  <PUBCHEM_CONFORMER_ID>  (1) 
00005E5C00000001

>  <PUBCHEM_MMFF94_ENERGY>  (1) 
26.3491

>  <PUBCHEM_FEATURE_SELFOVERLAP>  (1) 
35.568

>  <PUBCHEM_SHAPE_FINGERPRINT>  (1) 
10465860 228 18338800000720726042
10498660 4 18413390934343207605
10608611 8 18267582412587538993
10646746 165 18341611499176561944
10751810 167 11383834891756464505
10980938 120 18333738996006172933
11132069 177 18334857208332947277
11543360 7 15626216944688732085
11715629 250 18342175557489976189
12173636 292 18271242721388239669
12251169 10 17822003216259371026
12633257 1 15574988533308724032
12788726 201 17103140530040522010
13134695 92 16987712382233063198
13224815 77 18410858750553255937
13538477 17 18042402611391551242
13583140 156 16660919002010815737
13675066 3 12540694842872031719
13764800 53 18263373636278607979
14251764 38 17168692043215085533
14289901 80 18335988597260715931
14415576 193 18340488876498486783
15239191 94 10087637104934248317
15536298 74 18342181037746926597
15775835 57 18261110828774966160
15848700 24 8070033237583804947
17357990 137 18041282162040605740
1798214 55 18412265042693853821
1813 80 16951397725418963306
18186145 218 17846791688701331411
19050596 39 18260829276525462305
20233049 118 18343578568950864872
20559304 39 18113899312738629110
20645477 70 15913338987012134894
20671657 1 18267589009214427951
20715895 44 17753030719333530453
20871998 22 8502655891853437710
21524375 3 18408604781485830006
22646028 28 9295289434744560941
22854114 111 18409167675551656081
231179 274 17775279482754040600
23402539 116 18201710804058717724
23557571 272 17774719899733362175
23559900 14 18266458707166664343
23590187 173 18344144778335895073
3060560 45 15626221334203532300
31174 14 13262677088593185902
474 4 17967538994754210541
4990 188 17418382397444104838
5104073 3 18336834083279788251
5281201 14 17203337662800231597
5374978 207 18040716952966113033
5939293 188 18339921623183819156
6333272 397 18409168843761713625
633830 44 18201721713264983277
7097593 13 17750498599081858394
7364860 26 18270681939987419534
7808743 9 18195527223684239952
94968 8 9583514334928995268

>  <PUBCHEM_SHAPE_MULTIPOLES>  (1) 
333.13
8.14
2.04
1.21
6.37
0.18
0.03
-3.69
0.83
-0.09
-0.07
-1.51
-0.15
-0.16

>  <PUBCHEM_SHAPE_SELFOVERLAP>  (1) 
682.243

>  <PUBCHEM_SHAPE_VOLUME>  (1) 
190.1

>  <PUBCHEM_COORDINATE_TYPE>  (1) 
2
5
10

$$$$
