24153
     RDKit          3D

 16 17  0  0  1  0  0  0  0  0999 V2000
   -1.1341    0.2651   -0.2870 O   0  0  0  0  0  0  0  0  0  0  0  0
   -2.2112   -1.7683   -0.2284 O   0  0  0  0  0  0  0  0  0  0  0  0
    1.3066    0.6154   -0.5114 C   0  0  0  0  0  0  0  0  0  0  0  0
    2.5167   -0.2991   -0.1509 C   0  0  0  0  0  0  0  0  0  0  0  0
    1.8364   -0.7424    1.1719 C   0  0  0  0  0  0  0  0  0  0  0  0
    0.1112   -0.3843   -0.4751 C   0  0  0  0  0  0  0  0  0  0  0  0
    1.1916    1.5391    0.7343 C   0  0  0  0  0  0  0  0  0  0  0  0
    0.4656   -1.2964    0.7140 C   0  0  0  0  0  0  0  0  0  0  0  0
    1.5463    0.5926    1.8936 C   0  0  0  0  0  0  0  0  0  0  0  0
    1.3918    1.3964   -1.8093 C   0  0  0  0  0  0  0  0  0  0  0  0
    2.7913   -1.4542   -1.1351 C   0  0  0  0  0  0  0  0  0  0  0  0
    3.8647    0.4230    0.0452 C   0  0  0  0  0  0  0  0  0  0  0  0
   -2.2289   -0.5466   -0.1771 C   0  0  0  0  0  0  0  0  0  0  0  0
   -3.4575    0.2733    0.0143 C   0  0  0  0  0  0  0  0  0  0  0  0
   -3.3692    1.7680    0.0628 C   0  0  0  0  0  0  0  0  0  0  0  0
   -4.6212   -0.3815    0.1383 C   0  0  0  0  0  0  0  0  0  0  0  0
  1  6  1  0
  1 13  1  0
  2 13  2  0
  3  4  1  0
  3  6  1  0
  3  7  1  0
  3 10  1  0
  4  5  1  0
  4 11  1  0
  4 12  1  0
  5  8  1  0
  5  9  1  0
  6  8  1  0
  7  9  1  0
 13 14  1  0
 14 15  1  0
 14 16  2  0
M  END
>  <PUBCHEM_COMPOUND_CID>  (1) 
24153

>  <PUBCHEM_CONFORMER_RMSD>  (1) 
0.6

>  <PUBCHEM_CONFORMER_DIVERSEORDER>  (1) 
1
26
13
24
37
34
27
32
19
4
12
35
30
36
6
20
33
17
28
18
23
11
10
9
21
29
5
15
14
22
7
31
2
8
16
25
3

>  <PUBCHEM_MMFF94_PARTIAL_CHARGES>  (1) 
9
1 -0.43
13 0.71
14 -0.12
15 0.14
16 -0.3
2 -0.57
37 0.15
38 0.15
6 0.28

>  <PUBCHEM_EFFECTIVE_ROTOR_COUNT>  (1) 
4

>  <PUBCHEM_PHARMACOPHORE_FEATURES>  (1) 
3
1 2 acceptor
3 4 11 12 hydrophobe
7 3 4 5 6 7 8 9 rings

>  <PUBCHEM_HEAVY_ATOM_COUNT>  (1) 
16

>  <PUBCHEM_ATOM_DEF_STEREO_COUNT>  (1) 
0

>  <PUBCHEM_ATOM_UDEF_STEREO_COUNT>  (1) 
3

>  <PUBCHEM_BOND_DEF_STEREO_COUNT>  (1) 
0

>  <PUBCHEM_BOND_UDEF_STEREO_COUNT>  (1) 
0

>  <PUBCHEM_ISOTOPIC_ATOM_COUNT>  (1) 
0

>  <PUBCHEM_COMPONENT_COUNT>  (1) 
1

>  <PUBCHEM_CACTVS_TAUTO_COUNT>  (1) 
1

>  <PUBCHEM_CONFORMER_ID>  (1) 
00005E5900000001

>  <PUBCHEM_MMFF94_ENERGY>  (1) 
65.6373

>  <PUBCHEM_FEATURE_SELFOVERLAP>  (1) 
15.223

>  <PUBCHEM_SHAPE_FINGERPRINT>  (1) 
12251169 10 18040433313183323847
12423570 1 13308109978779133330
124424 183 17417809508983852558
12500047 106 18130781274348595447
12725867 57 17632297852496002080
12932764 1 16515676775851455327
13134695 92 16487249942023533272
13221675 6 17675926486586289847
13380536 305 17676494985716585462
13538477 17 18261108638457683295
13571099 22 17632863001214294030
13581323 91 18272086102361626607
14144814 61 17968091993647961677
14344429 50 18202282524045278464
15048467 5 18413108390246583916
15775835 57 18410855473324280723
16945 1 18267281266697334666
18186145 218 18114180826660228335
200 152 11024104335460362865
20233049 118 18341892957010495696
20559304 39 18335138708979306285
20645477 70 17132122303406847302
21524375 3 17028539756848717908
2255824 54 17458632258299011020
22892500 29 17203314603168240272
23402539 116 18260541234818147070
23419403 2 15767222537872098362
23557571 272 17060616724868016585
296302 2 17561079224431843328
3060560 45 17822008717933538350
474 4 17096941371587046732
528886 8 17967816059036709578
5337951 7 18059569226432764698
7364860 26 18340207521744417924
74978 22 18343299297160027051
81228 2 14354729414458472488

>  <PUBCHEM_SHAPE_MULTIPOLES>  (1) 
317.53
6.7
1.62
1.33
6.65
0.11
-0.11
0.04
0.21
0.17
0.16
-1.09
0.25
0.04

>  <PUBCHEM_SHAPE_SELFOVERLAP>  (1) 
664.946

>  <PUBCHEM_SHAPE_VOLUME>  (1) 
185.7

>  <PUBCHEM_COORDINATE_TYPE>  (1) 
2
5
10

$$$$
