2416
     RDKit          3D

 35 37  0  0  1  0  0  0  0  0999 V2000
   -2.0667   -3.0101    0.2450 S   0  0  0  0  0  0  0  0  0  0  0  0
    1.3370   -0.9478    0.9074 O   0  0  0  0  0  0  0  0  0  0  0  0
    1.0835   -2.7483    3.4123 O   0  0  0  0  0  0  0  0  0  0  0  0
    4.0422    2.5659   -0.0843 O   0  0  0  0  0  0  0  0  0  0  0  0
   -3.1535   -3.2276    1.1807 O   0  0  0  0  0  0  0  0  0  0  0  0
   -1.7789   -3.9943   -0.7807 O   0  0  0  0  0  0  0  0  0  0  0  0
    0.0786    0.7448    1.8594 N   0  0  0  0  0  0  0  0  0  0  0  0
    3.1840    1.1143    1.5160 N   0  0  0  0  0  0  0  0  0  0  0  0
   -0.6389   -2.6735    1.1114 N   0  0  0  0  0  0  0  0  0  0  0  0
    3.5022   -1.0457   -2.0610 N   0  0  0  0  0  0  0  0  0  0  0  0
    1.8825   -0.5181   -3.7545 N   0  0  0  0  0  0  0  0  0  0  0  0
    1.7717   -2.4862   -2.6103 N   0  0  0  0  0  0  0  0  0  0  0  0
    0.8686    1.8583    1.3294 C   0  0  0  0  0  0  0  0  0  0  0  0
   -0.0352    3.0763    1.5355 C   0  0  0  0  0  0  0  0  0  0  0  0
   -0.8256    2.7210    2.7894 C   0  0  0  0  0  0  0  0  0  0  0  0
   -1.0637    1.2270    2.6318 C   0  0  0  0  0  0  0  0  0  0  0  0
    2.2003    1.9975    2.0645 C   0  0  0  0  0  0  0  0  0  0  0  0
    0.3615   -0.5788    1.5633 C   0  0  0  0  0  0  0  0  0  0  0  0
   -0.6162   -1.5898    2.1071 C   0  0  0  0  0  0  0  0  0  0  0  0
   -0.1868   -2.1086    3.4641 C   0  0  0  0  0  0  0  0  0  0  0  0
    4.0377    1.4715    0.4728 C   0  0  0  0  0  0  0  0  0  0  0  0
    4.9816    0.3423    0.0970 C   0  0  0  0  0  0  0  0  0  0  0  0
   -2.3574   -1.4747   -0.5810 C   0  0  0  0  0  0  0  0  0  0  0  0
    5.3719    0.3765   -1.3807 C   0  0  0  0  0  0  0  0  0  0  0  0
   -3.1314   -0.4889    0.0315 C   0  0  0  0  0  0  0  0  0  0  0  0
   -1.8141   -1.2500   -1.8425 C   0  0  0  0  0  0  0  0  0  0  0  0
    4.1685    0.2345   -2.3054 C   0  0  0  0  0  0  0  0  0  0  0  0
   -3.3723    0.7361   -0.6118 C   0  0  0  0  0  0  0  0  0  0  0  0
   -2.8197    0.9647   -1.8945 C   0  0  0  0  0  0  0  0  0  0  0  0
   -2.0428   -0.0388   -2.4961 C   0  0  0  0  0  0  0  0  0  0  0  0
   -4.1489    1.7396   -0.0099 C   0  0  0  0  0  0  0  0  0  0  0  0
   -3.0606    2.1896   -2.5378 C   0  0  0  0  0  0  0  0  0  0  0  0
   -4.3781    2.9506   -0.6635 C   0  0  0  0  0  0  0  0  0  0  0  0
   -3.8351    3.1751   -1.9251 C   0  0  0  0  0  0  0  0  0  0  0  0
    2.4542   -1.3046   -2.7793 C   0  0  0  0  0  0  0  0  0  0  0  0
  1  5  2  0
  1  6  2  0
  1  9  1  0
  1 23  1  0
  2 18  2  0
  3 20  1  0
  4 21  2  0
  7 13  1  0
  7 16  1  0
  7 18  1  0
  8 17  1  0
  8 21  1  0
  9 19  1  0
 10 27  1  0
 10 35  2  3
 11 35  1  0
 12 35  1  0
 13 14  1  0
 13 17  1  0
 14 15  1  0
 15 16  1  0
 18 19  1  0
 19 20  1  0
 21 22  1  0
 22 24  1  0
 23 25  2  0
 23 26  1  0
 24 27  1  0
 25 28  1  0
 26 30  2  0
 28 29  2  0
 28 31  1  0
 29 30  1  0
 29 32  1  0
 31 33  2  0
 32 34  2  0
 33 34  1  0
M  END
>  <PUBCHEM_COMPOUND_CID>  (1) 
2416

>  <PUBCHEM_CONFORMER_RMSD>  (1) 
1.6

>  <PUBCHEM_CONFORMER_DIVERSEORDER>  (1) 
1
121
160
72
47
77
27
241
71
101
218
270
93
83
146
61
7
279
52
45
115
105
120
103
236
251
192
234
56
25
76
107
162
204
193
161
13
186
207
130
100
183
273
243
78
81
167
118
80
12
275
36
190
264
64
247
55
225
58
98
3
159
210
169
189
259
144
67
46
54
276
41
215
5
87
227
168
92
4
271
119
28
86
114
171
195
196
230
127
96
39
104
49
57
140
274
90
112
75
256
280
63
216
235
31
9
147
157
175
266
143
40
66
221
88
272
233
135
20
176
35
250
110
208
125
51
283
10
258
42
166
212
122
85
245
220
287
109
50
237
242
37
141
262
30
89
213
79
151
253
150
24
26
197
219
102
217
202
222
173
53
267
284
194
165
126
38
172
198
15
224
138
240
232
257
132
91
14
188
2
185
153
191
69
95
184
68
214
134
84
170
23
59
124
263
288
116
254
261
223
117
278
43
48
128
148
205
174
19
11
255
8
33
260
73
226
231
139
239
16
156
164
152
106
268
60
129
178
187
149
285
97
211
94
154
182
82
206
137
142
244
22
228
246
44
155
269
136
34
181
131
249
17
70
62
123
209
277
286
252
201
248
111
180
133
229
203
199
281
99
108
6
158
65
179
145
177
265
163
29
18
74
200
21
238
113
282
32

>  <PUBCHEM_MMFF94_PARTIAL_CHARGES>  (1) 
44
1 1.45
10 -0.7
11 -0.85
12 -0.85
13 0.3
16 0.3
17 0.3
18 0.57
19 0.42
2 -0.57
20 0.28
21 0.57
22 0.06
23 -0.01
25 -0.15
26 -0.15
27 0.25
3 -0.68
30 -0.15
31 -0.15
32 -0.15
33 -0.15
34 -0.15
35 0.55
4 -0.57
46 0.37
49 0.42
5 -0.65
54 0.4
55 0.15
56 0.15
59 0.15
6 -0.65
60 0.15
61 0.15
62 0.15
63 0.15
64 0.4
65 0.4
66 0.4
67 0.4
7 -0.66
8 -0.73
9 -0.91

>  <PUBCHEM_EFFECTIVE_ROTOR_COUNT>  (1) 
14

>  <PUBCHEM_PHARMACOPHORE_FEATURES>  (1) 
14
1 11 donor
1 12 donor
1 2 acceptor
1 3 acceptor
1 3 donor
1 4 acceptor
1 5 acceptor
1 6 acceptor
1 8 donor
1 9 donor
4 10 11 12 35 cation
5 7 13 14 15 16 rings
6 23 25 26 28 29 30 rings
6 28 29 31 32 33 34 rings

>  <PUBCHEM_HEAVY_ATOM_COUNT>  (1) 
35

>  <PUBCHEM_ATOM_DEF_STEREO_COUNT>  (1) 
0

>  <PUBCHEM_ATOM_UDEF_STEREO_COUNT>  (1) 
2

>  <PUBCHEM_BOND_DEF_STEREO_COUNT>  (1) 
0

>  <PUBCHEM_BOND_UDEF_STEREO_COUNT>  (1) 
0

>  <PUBCHEM_ISOTOPIC_ATOM_COUNT>  (1) 
0

>  <PUBCHEM_COMPONENT_COUNT>  (1) 
1

>  <PUBCHEM_CACTVS_TAUTO_COUNT>  (1) 
4

>  <PUBCHEM_CONFORMER_ID>  (1) 
0000097000000001

>  <PUBCHEM_MMFF94_ENERGY>  (1) 
66.7152

>  <PUBCHEM_FEATURE_SELFOVERLAP>  (1) 
71.152

>  <PUBCHEM_SHAPE_FINGERPRINT>  (1) 
10165383 225 18334006178001849969
11434127 23 17759768796638841184
12156800 1 17897193353796222241
13642711 20 18127991719028387087
14251757 17 18272375239122254101
14840074 17 16414659170745297814
15021287 119 15576089050259482792
15274700 242 17913787024089629618
15406563 42 16811509364598438708
15484559 13 16044823823138219824
15781502 13 17828791734136036339
15781502 409 18129670678286285737
161222 619 14463810807919983656
21033650 10 18115026424206291592
3027735 51 16773526464385005892
35225 105 16897440299632817311
4394409 98 18194119608478067310
463206 1 16989127556561221124
469060 322 17460624590923028651
50150288 127 15436861229290333693
5252454 2 18042946736619404313
6287921 2 16734103423399561801

>  <PUBCHEM_SHAPE_MULTIPOLES>  (1) 
664.9
8.47
4.36
4.19
6.36
1.11
-0.28
-4.59
6.49
-2.78
-1.43
1.01
1.14
2.6

>  <PUBCHEM_SHAPE_SELFOVERLAP>  (1) 
1380.477

>  <PUBCHEM_SHAPE_VOLUME>  (1) 
377.8

>  <PUBCHEM_COORDINATE_TYPE>  (1) 
2
5
10

$$$$
