24160
     RDKit          3D

 20 22  0  0  1  0  0  0  0  0999 V2000
   -0.4380   -0.2911    0.0412 O   0  0  0  0  0  0  0  0  0  0  0  0
   -0.3344   -2.6367    0.0312 O   0  0  0  0  0  0  0  0  0  0  0  0
   -2.6746    1.4136    0.3243 N   0  0  0  0  0  0  0  0  0  0  0  0
    0.4450   -1.4280    0.0201 C   0  0  0  0  0  0  0  0  0  0  0  0
    3.1499   -0.1950   -0.0212 C   0  0  0  0  0  0  0  0  0  0  0  0
    1.2840   -1.3792   -1.2598 C   0  0  0  0  0  0  0  0  0  0  0  0
    1.3369   -1.4094    1.2644 C   0  0  0  0  0  0  0  0  0  0  0  0
    2.2555   -0.1996   -1.2683 C   0  0  0  0  0  0  0  0  0  0  0  0
    2.3066   -0.2286    1.2607 C   0  0  0  0  0  0  0  0  0  0  0  0
    4.0750    1.0206   -0.0259 C   0  0  0  0  0  0  0  0  0  0  0  0
   -1.7218   -0.8331    0.3603 C   0  0  0  0  0  0  0  0  0  0  0  0
   -2.8325    0.0520   -0.2024 C   0  0  0  0  0  0  0  0  0  0  0  0
   -1.6682   -2.2116   -0.2499 C   0  0  0  0  0  0  0  0  0  0  0  0
   -4.2107   -0.5162    0.1627 C   0  0  0  0  0  0  0  0  0  0  0  0
    4.9400    1.0101   -1.2975 C   0  0  0  0  0  0  0  0  0  0  0  0
    3.2380    2.3106    0.0058 C   0  0  0  0  0  0  0  0  0  0  0  0
    4.9908    0.9814    1.2089 C   0  0  0  0  0  0  0  0  0  0  0  0
   -5.3319    0.3984   -0.3231 C   0  0  0  0  0  0  0  0  0  0  0  0
   -3.7038    2.3155   -0.1932 C   0  0  0  0  0  0  0  0  0  0  0  0
   -5.1059    1.8262    0.1617 C   0  0  0  0  0  0  0  0  0  0  0  0
  1  4  1  0
  1 11  1  0
  2  4  1  0
  2 13  1  0
  3 12  1  0
  3 19  1  0
  4  6  1  0
  4  7  1  0
  5  8  1  0
  5  9  1  0
  5 10  1  0
  6  8  1  0
  7  9  1  0
 10 15  1  0
 10 16  1  0
 10 17  1  0
 11 12  1  0
 11 13  1  0
 12 14  1  0
 14 18  1  0
 18 20  1  0
 19 20  1  0
M  END
>  <PUBCHEM_COMPOUND_CID>  (1) 
24160

>  <PUBCHEM_CONFORMER_RMSD>  (1) 
0.8

>  <PUBCHEM_CONFORMER_DIVERSEORDER>  (1) 
1
25
17
13
4
24
5
8
12
18
21
15
11
22
14
6
10
23
7
9
3
19
2
20
16

>  <PUBCHEM_MMFF94_PARTIAL_CHARGES>  (1) 
9
1 -0.56
11 0.28
12 0.27
13 0.28
19 0.27
2 -0.56
3 -0.9
4 0.56
45 0.36

>  <PUBCHEM_EFFECTIVE_ROTOR_COUNT>  (1) 
5

>  <PUBCHEM_PHARMACOPHORE_FEATURES>  (1) 
8
1 1 acceptor
1 2 acceptor
1 3 cation
1 3 donor
4 10 15 16 17 hydrophobe
5 1 2 4 11 13 rings
6 3 12 14 18 19 20 rings
6 4 5 6 7 8 9 rings

>  <PUBCHEM_HEAVY_ATOM_COUNT>  (1) 
20

>  <PUBCHEM_ATOM_DEF_STEREO_COUNT>  (1) 
0

>  <PUBCHEM_ATOM_UDEF_STEREO_COUNT>  (1) 
2

>  <PUBCHEM_BOND_DEF_STEREO_COUNT>  (1) 
0

>  <PUBCHEM_BOND_UDEF_STEREO_COUNT>  (1) 
0

>  <PUBCHEM_ISOTOPIC_ATOM_COUNT>  (1) 
0

>  <PUBCHEM_COMPONENT_COUNT>  (1) 
1

>  <PUBCHEM_CACTVS_TAUTO_COUNT>  (1) 
1

>  <PUBCHEM_CONFORMER_ID>  (1) 
00005E6000000001

>  <PUBCHEM_MMFF94_ENERGY>  (1) 
43.5152

>  <PUBCHEM_FEATURE_SELFOVERLAP>  (1) 
40.645

>  <PUBCHEM_SHAPE_FINGERPRINT>  (1) 
10042902 136 8358243852565075601
10498660 4 18341613664230735617
10646746 165 18410577288150093980
10670039 82 18335149652682928492
11046707 91 9655581807312530799
11552529 35 16445047546265424226
11796584 16 9439415613594163577
12107183 9 18263067865473725042
12173636 292 18339355374352214174
12236239 1 17749387096079211218
12363563 72 8934993798111884561
12390115 104 18272102565177078721
12596602 18 16660367021093190985
12633257 1 15285366132095781753
12670546 177 17704068525586050655
12730499 353 17918001585144768471
12769317 202 18270953557882349449
12788726 201 17028561712600507842
12892183 10 14201387288147967662
13103583 49 12252179620078328741
13402501 40 18343299283991074760
13583140 156 17168140170102969761
13685833 64 9799684914025262845
13955234 65 18121226372712645315
13965767 371 17823412695655858989
14123255 52 18410011035388070311
1420 369 9151173160031442593
14251751 18 10519989235871341036
14251764 30 13182726092343148909
14251764 38 18124869325001979840
14252887 29 13984655941479793824
14341114 328 17312824887479039809
14528608 73 18413384324652049533
14576447 43 11312060963381866768
14739800 52 18267846415716593664
15188451 53 13768224821832180801
15209294 21 18186516635520421550
15238133 3 18261392300089926604
15342816 4 11239731777123977400
15885798 251 9007054669378930759
173720 79 18334562555953487042
1741750 31 18409449201968117915
17834072 32 18411702101351427169
18186145 218 18059028193312586191
18915474 69 11167930377352311105
193927 3 10591759917646379989
200 152 13039193614621366166
20645477 56 18412550937202318679
20645477 70 16343717529865581190
20775530 9 9365977028910840224
21452121 103 18338794520622161034
21524375 3 18334576841051746954
22646028 28 10087637104738894101
231179 274 18413672413598554784
23227448 37 18270398420584832837
23402539 116 18342449382882025870
23402655 69 17704353238904772551
23557571 272 18198636607759342446
23559900 14 18057322786332771566
2637199 183 18409733958563327024
2838139 119 18342449379004133988
2916195 48 18201148949010798648
3060560 45 15769770252236781572
3472631 163 18409730702693501156
351380 180 18412261752901755948
351380 3 10807937067546932869
3680242 22 18336547109964632385
38570 142 16951999304165671420
4028521 119 18202286904790432145
4325135 7 18272646870824985879
4340502 62 16950568766417923859
465052 167 11530484411084600648
474 4 17676775348038368548
495365 180 17489582364608740998
5104073 3 18188497844416363817
5281201 14 17917439665814232109
6328613 192 18260840340947370820
6333272 397 18410292501896074787
633830 44 18199748038585678439
67856867 119 18265607685330270243
76465 3 8934706787254755809
7808743 9 18410292553150995208
7970288 3 10015580593012503013
960060 61 13183016328272252336
9981440 41 18334575737699047675

>  <PUBCHEM_SHAPE_MULTIPOLES>  (1) 
394.87
11.32
2.46
1.13
3.99
0.05
0.02
8.17
0.22
0.97
0.03
-1.32
-0.11
-0.07

>  <PUBCHEM_SHAPE_SELFOVERLAP>  (1) 
811.926

>  <PUBCHEM_SHAPE_VOLUME>  (1) 
226.1

>  <PUBCHEM_COORDINATE_TYPE>  (1) 
2
5
10

$$$$
