24162
     RDKit          3D

 18 20  0  0  1  0  0  0  0  0999 V2000
   -0.2394    0.0453    0.0776 O   0  0  0  0  0  0  0  0  0  0  0  0
   -0.8218   -2.1908    0.4694 O   0  0  0  0  0  0  0  0  0  0  0  0
    3.3264   -0.9521    0.1963 N   0  0  0  0  0  0  0  0  0  0  0  0
   -1.3390   -0.8619    0.2616 C   0  0  0  0  0  0  0  0  0  0  0  0
   -2.1548   -0.4684    1.4991 C   0  0  0  0  0  0  0  0  0  0  0  0
   -2.2041   -0.8590   -1.0023 C   0  0  0  0  0  0  0  0  0  0  0  0
   -2.9666    0.8271    1.3407 C   0  0  0  0  0  0  0  0  0  0  0  0
   -2.9460    0.4699   -1.2001 C   0  0  0  0  0  0  0  0  0  0  0  0
    0.9169   -0.6896    0.4828 C   0  0  0  0  0  0  0  0  0  0  0  0
   -3.7848    0.8107    0.0407 C   0  0  0  0  0  0  0  0  0  0  0  0
    2.1634   -0.1602   -0.2240 C   0  0  0  0  0  0  0  0  0  0  0  0
    0.5585   -2.1071    0.1148 C   0  0  0  0  0  0  0  0  0  0  0  0
    2.3732    1.3262    0.0956 C   0  0  0  0  0  0  0  0  0  0  0  0
   -2.1017    2.0851    1.4517 C   0  0  0  0  0  0  0  0  0  0  0  0
   -3.8331    0.4067   -2.4439 C   0  0  0  0  0  0  0  0  0  0  0  0
    3.6583    1.8518   -0.5380 C   0  0  0  0  0  0  0  0  0  0  0  0
    4.5530   -0.5012   -0.4617 C   0  0  0  0  0  0  0  0  0  0  0  0
    4.8417    0.9675   -0.1605 C   0  0  0  0  0  0  0  0  0  0  0  0
  1  4  1  0
  1  9  1  0
  2  4  1  0
  2 12  1  0
  3 11  1  0
  3 17  1  0
  4  5  1  0
  4  6  1  0
  5  7  1  0
  6  8  1  0
  7 10  1  0
  7 14  1  0
  8 10  1  0
  8 15  1  0
  9 11  1  0
  9 12  1  0
 11 13  1  0
 13 16  1  0
 16 18  1  0
 17 18  1  0
M  END
>  <PUBCHEM_COMPOUND_CID>  (1) 
24162

>  <PUBCHEM_CONFORMER_RMSD>  (1) 
0.6

>  <PUBCHEM_CONFORMER_DIVERSEORDER>  (1) 
3
142
133
91
141
101
148
130
138
1
123
139
115
143
25
106
103
121
105
34
69
119
102
4
118
17
93
112
72
77
22
57
144
122
124
125
97
74
20
81
104
61
109
58
23
99
128
131
71
19
42
147
146
48
16
39
55
126
145
18
28
80
59
75
11
2
56
49
26
73
132
76
127
63
79
100
64
114
35
68
117
129
86
27
87
40
107
110
38
45
134
92
66
36
83
47
44
116
15
70
95
60
82
67
14
135
12
32
8
140
7
136
120
30
9
62
21
52
53
90
46
96
113
6
5
51
37
41
78
94
10
43
88
13
29
24
84
85
65
108
50
54
31
137
111
89
33
98

>  <PUBCHEM_MMFF94_PARTIAL_CHARGES>  (1) 
9
1 -0.56
11 0.27
12 0.28
17 0.27
2 -0.56
3 -0.9
39 0.36
4 0.56
9 0.28

>  <PUBCHEM_EFFECTIVE_ROTOR_COUNT>  (1) 
4

>  <PUBCHEM_PHARMACOPHORE_FEATURES>  (1) 
7
1 1 acceptor
1 2 acceptor
1 3 cation
1 3 donor
5 1 2 4 9 12 rings
6 3 11 13 16 17 18 rings
6 4 5 6 7 8 10 rings

>  <PUBCHEM_HEAVY_ATOM_COUNT>  (1) 
18

>  <PUBCHEM_ATOM_DEF_STEREO_COUNT>  (1) 
0

>  <PUBCHEM_ATOM_UDEF_STEREO_COUNT>  (1) 
4

>  <PUBCHEM_BOND_DEF_STEREO_COUNT>  (1) 
0

>  <PUBCHEM_BOND_UDEF_STEREO_COUNT>  (1) 
0

>  <PUBCHEM_ISOTOPIC_ATOM_COUNT>  (1) 
0

>  <PUBCHEM_COMPONENT_COUNT>  (1) 
1

>  <PUBCHEM_CACTVS_TAUTO_COUNT>  (1) 
1

>  <PUBCHEM_CONFORMER_ID>  (1) 
00005E6200000003

>  <PUBCHEM_MMFF94_ENERGY>  (1) 
27.0471

>  <PUBCHEM_FEATURE_SELFOVERLAP>  (1) 
35.571

>  <PUBCHEM_SHAPE_FINGERPRINT>  (1) 
10014705 185 18114176484173966132
10366900 7 15285363958810772481
10498660 4 18186792604185762716
107951 10 13469589685252094121
11543360 7 16271924943588566048
11552529 35 14057297453222427456
11725454 13 16734081497923994591
12077114 3 17022900142528800503
12173636 292 18342752830932443755
12236239 1 17988642965472244837
12251169 10 12035449428128525351
12824470 246 11098729353563582393
13583140 156 17312821597618422520
13675066 3 17240205434894563322
14004511 7 18413114956992746472
14123260 362 18272378580675433920
14178342 30 13407080258378885153
14251758 9 17676755488979874226
14289901 80 15864362367061195882
15061688 2 16082190919666524663
15309172 13 18260553320212715170
15342168 16 18335715922540359621
15534591 1 17916878923853705147
18186145 218 18408611361728999494
18219364 16 18113338617506161085
192875 21 18201143395676107000
19862831 5 17917707998132903380
200 152 17846775226017781028
20300324 65 17561361794472480537
20510252 161 18192155021073354410
20645477 56 18041282161787339558
20645477 70 18411140208572117870
20871999 31 16272205288951961085
21033648 29 17676761028776036284
212916 134 14563079274862807317
21524375 3 18412832369192491714
22620623 9 15841537558400121477
22926399 37 18411414004009782829
2306618 200 18187646950743334817
231179 274 17894345562550275694
23402539 116 18131351899603688328
23419403 2 17540261265083450043
23493267 7 16660640726399930544
23557571 272 18198633317898718318
23559900 14 13758079546163778670
25 1 18336262362301741966
27216 239 17168142364620443429
2838139 119 17314765474358122573
3082319 5 17561362885314818734
3268164 11 17132111342465645353
4028521 119 18261103080253011901
474 4 18411141294528359043
4921388 177 15267348431041201381
5104073 3 18262238932453355888
57265010 4 14201399391186758197
59027123 10 17703795803678965900
5939293 188 16106154491593980137
633830 44 18270977742948311582
74978 22 18338800121385946794
83771 10 9223229641672743454
90127 26 16732707160076600908
90316 7 12613030561612259135
9971528 1 18201438039818865686

>  <PUBCHEM_SHAPE_MULTIPOLES>  (1) 
353.71
8.75
1.95
1.51
7.35
0.06
0.53
-3.2
2.6
0.36
-0.45
-2.36
-0.32
-0.56

>  <PUBCHEM_SHAPE_SELFOVERLAP>  (1) 
725.661

>  <PUBCHEM_SHAPE_VOLUME>  (1) 
203

>  <PUBCHEM_COORDINATE_TYPE>  (1) 
2
5
10

$$$$
