24171
     RDKit          3D

 27 28  0  0  1  0  0  0  0  0999 V2000
    5.7786   -2.1101    0.4135 S   0  0  0  0  0  0  0  0  0  0  0  0
    1.1583    2.6102    1.4822 O   0  0  0  0  0  0  0  0  0  0  0  0
    5.9928    0.9897   -2.0579 O   0  0  0  0  0  0  0  0  0  0  0  0
   -8.2990   -0.8510   -1.2533 O   0  0  0  0  0  0  0  0  0  0  0  0
    6.8989   -2.6536    1.1585 O   0  0  0  0  0  0  0  0  0  0  0  0
    4.4221   -2.5196    0.7194 O   0  0  0  0  0  0  0  0  0  0  0  0
   -1.1311    0.9277    1.2067 N   0  0  0  0  0  0  0  0  0  0  0  0
    5.9166   -0.3944    0.4009 N   0  0  0  0  0  0  0  0  0  0  0  0
    0.0398    0.7722    0.3346 C   0  0  0  0  0  0  0  0  0  0  0  0
    1.3082    1.2461    1.0793 C   0  0  0  0  0  0  0  0  0  0  0  0
    2.5675    1.1737    0.2425 C   0  0  0  0  0  0  0  0  0  0  0  0
   -2.3434    0.5438    0.5045 C   0  0  0  0  0  0  0  0  0  0  0  0
    0.1213   -0.6956   -0.0891 C   0  0  0  0  0  0  0  0  0  0  0  0
   -3.5711    0.7081    1.4012 C   0  0  0  0  0  0  0  0  0  0  0  0
    3.6433    0.4345    0.7021 C   0  0  0  0  0  0  0  0  0  0  0  0
    2.6140    1.8487   -0.9644 C   0  0  0  0  0  0  0  0  0  0  0  0
    4.8030    0.3683   -0.0701 C   0  0  0  0  0  0  0  0  0  0  0  0
   -4.8345    0.2913    0.6913 C   0  0  0  0  0  0  0  0  0  0  0  0
    3.7738    1.7824   -1.7368 C   0  0  0  0  0  0  0  0  0  0  0  0
    4.8682    1.0422   -1.2896 C   0  0  0  0  0  0  0  0  0  0  0  0
   -5.2598   -1.0257    0.7762 C   0  0  0  0  0  0  0  0  0  0  0  0
   -5.5502    1.2320   -0.0334 C   0  0  0  0  0  0  0  0  0  0  0  0
   -6.4289   -1.4114    0.1203 C   0  0  0  0  0  0  0  0  0  0  0  0
   -6.7193    0.8462   -0.6892 C   0  0  0  0  0  0  0  0  0  0  0  0
   -7.1587   -0.4754   -0.6123 C   0  0  0  0  0  0  0  0  0  0  0  0
    6.0810   -2.4627   -1.3036 C   0  0  0  0  0  0  0  0  0  0  0  0
   -8.6913   -2.2175   -1.1334 C   0  0  0  0  0  0  0  0  0  0  0  0
  1  5  2  0
  1  6  2  0
  1  8  1  0
  1 26  1  0
  2 10  1  0
  3 20  1  0
  4 25  1  0
  4 27  1  0
  7  9  1  0
  7 12  1  0
  8 17  1  0
  9 10  1  0
  9 13  1  0
 10 11  1  0
 11 15  2  0
 11 16  1  0
 12 14  1  0
 14 18  1  0
 15 17  1  0
 16 19  2  0
 17 20  2  0
 18 21  2  0
 18 22  1  0
 19 20  1  0
 21 23  1  0
 22 24  2  0
 23 25  2  0
 24 25  1  0
M  END
>  <PUBCHEM_COMPOUND_CID>  (1) 
24171

>  <PUBCHEM_CONFORMER_RMSD>  (1) 
1.2

>  <PUBCHEM_CONFORMER_DIVERSEORDER>  (1) 
2
26
172
481
105
406
45
22
35
243
230
79
42
177
151
539
407
71
161
145
293
15
46
9
152
228
308
33
140
7
307
501
327
357
289
206
53
77
201
315
203
31
60
93
20
5
39
241
255
506
86
47
56
1
344
25
157
11
254
439
534
317
427
99
88
336
104
401
27
142
87
310
74
214
129
365
12
382
199
6
155
359
164
32
433
160
393
487
287
216
421
185
362
383
17
268
194
511
21
332
43
178
246
4
18
94
446
8
14
374
325
266
470
249
205
251
457
92
48
50
80
300
132

>  <PUBCHEM_MMFF94_PARTIAL_CHARGES>  (1) 
37
1 1.33
10 0.42
11 -0.14
12 0.27
14 0.14
15 -0.15
16 -0.15
17 0.2
18 -0.14
19 -0.15
2 -0.68
20 0.08
21 -0.15
22 -0.15
23 -0.15
24 -0.15
25 0.08
26 0.11
27 0.28
3 -0.53
30 0.36
38 0.15
39 0.15
4 -0.36
40 0.4
41 0.15
42 0.42
43 0.15
44 0.15
45 0.15
46 0.15
5 -0.65
50 0.45
6 -0.65
7 -0.9
8 -0.76
9 0.27

>  <PUBCHEM_EFFECTIVE_ROTOR_COUNT>  (1) 
9

>  <PUBCHEM_PHARMACOPHORE_FEATURES>  (1) 
11
1 2 acceptor
1 2 donor
1 3 donor
1 4 acceptor
1 5 acceptor
1 6 acceptor
1 7 cation
1 7 donor
1 8 donor
6 11 15 16 17 19 20 rings
6 18 21 22 23 24 25 rings

>  <PUBCHEM_HEAVY_ATOM_COUNT>  (1) 
27

>  <PUBCHEM_ATOM_DEF_STEREO_COUNT>  (1) 
0

>  <PUBCHEM_ATOM_UDEF_STEREO_COUNT>  (1) 
2

>  <PUBCHEM_BOND_DEF_STEREO_COUNT>  (1) 
0

>  <PUBCHEM_BOND_UDEF_STEREO_COUNT>  (1) 
0

>  <PUBCHEM_ISOTOPIC_ATOM_COUNT>  (1) 
0

>  <PUBCHEM_COMPONENT_COUNT>  (1) 
1

>  <PUBCHEM_CACTVS_TAUTO_COUNT>  (1) 
3

>  <PUBCHEM_CONFORMER_ID>  (1) 
00005E6B00000002

>  <PUBCHEM_MMFF94_ENERGY>  (1) 
75.3193

>  <PUBCHEM_FEATURE_SELFOVERLAP>  (1) 
55.846

>  <PUBCHEM_SHAPE_FINGERPRINT>  (1) 
10066227 49 18408601440444807699
10693767 8 18115583739173631658
11386260 185 17386006208144297588
11475781 23 15719680943693543768
11719270 70 18202282476822146839
11991303 11 18042966657110837351
125118 31 10737280243165367279
12596602 18 11095889259157246525
13533116 47 18409736149492728136
13627175 4 18060150851057534967
13782708 43 18131634495698855601
13862211 1 18060139829801792169
14251757 52 11097858488387332759
14849402 71 10591746706575449683
15183329 4 18272098209816463693
1577012 14 18341062843027718009
17134984 74 18201441410645656230
1768 124 17988924436244250518
20028762 73 18271247106434525022
2026 5 18343300328143089287
20567600 234 14548729617233136552
21315759 40 18413109472530687997
21344244 78 15698000755683261616
21521239 73 18334576845346604227
22061861 79 18040719164351913973
221357 26 17385441020803162260
22149856 69 14620528834602221243
23081809 10 18341624697848810057
23522609 53 18126037968370969105
23559900 14 18336262457561383777
29717793 49 18040438784913916088
3004659 81 18259703376750540858
3014965 18 18113901537552794010
3383291 50 16486974033910235079
3711267 37 13117999972856173407
397830 11 13470403353420194529
504579 68 17530676615980922927
531348 171 18408603639794480729
5718773 13 18273493459980849867
59682541 52 17458632194449618170
6081469 158 18335132099731325205
6438161 24 18412536613465281339
68570916 9 9943514207439809321

>  <PUBCHEM_SHAPE_MULTIPOLES>  (1) 
520.19
25.54
2.62
1.51
33.39
1.36
-0.35
16.65
-8.51
-3.55
-0.04
-1.02
-0.28
-2.43

>  <PUBCHEM_SHAPE_SELFOVERLAP>  (1) 
1069.067

>  <PUBCHEM_SHAPE_VOLUME>  (1) 
302.1

>  <PUBCHEM_COORDINATE_TYPE>  (1) 
2
5
10

$$$$
