24177
     RDKit          3D

 14 15  0  0  0  0  0  0  0  0999 V2000
   -1.9498   -0.4617    0.8923 S   0  0  0  0  0  0  0  0  0  0  0  0
   -4.3799    1.2597    0.1039 O   0  0  0  0  0  0  0  0  0  0  0  0
    0.3365    1.4474    0.3711 N   0  0  0  0  0  0  0  0  0  0  0  0
    0.6828    0.1556    0.2160 C   0  0  0  0  0  0  0  0  0  0  0  0
    1.9901   -0.2256   -0.1524 C   0  0  0  0  0  0  0  0  0  0  0  0
   -0.2592   -0.8490    0.4197 C   0  0  0  0  0  0  0  0  0  0  0  0
    2.3168   -1.5837   -0.3056 C   0  0  0  0  0  0  0  0  0  0  0  0
    0.0652   -2.1993    0.2675 C   0  0  0  0  0  0  0  0  0  0  0  0
   -2.7428   -0.3029   -0.7293 C   0  0  0  0  0  0  0  0  0  0  0  0
    2.9388    0.7853   -0.3577 C   0  0  0  0  0  0  0  0  0  0  0  0
    1.3548   -2.5674   -0.0956 C   0  0  0  0  0  0  0  0  0  0  0  0
    2.5848    2.1173   -0.1987 C   0  0  0  0  0  0  0  0  0  0  0  0
   -4.2199    0.0320   -0.5946 C   0  0  0  0  0  0  0  0  0  0  0  0
    1.2819    2.3924    0.1634 C   0  0  0  0  0  0  0  0  0  0  0  0
  1  6  1  0
  1  9  1  0
  2 13  1  0
  3  4  2  0
  3 14  1  0
  4  5  1  0
  4  6  1  0
  5  7  1  0
  5 10  2  0
  6  8  2  0
  7 11  2  0
  8 11  1  0
  9 13  1  0
 10 12  1  0
 12 14  2  0
M  END
>  <PUBCHEM_COMPOUND_CID>  (1) 
24177

>  <PUBCHEM_CONFORMER_RMSD>  (1) 
0.6

>  <PUBCHEM_CONFORMER_DIVERSEORDER>  (1) 
1
11
17
18
14
15
16
12
8
7
9
13
10
6
4
5
3
2

>  <PUBCHEM_MMFF94_PARTIAL_CHARGES>  (1) 
20
1 -0.33
10 -0.15
11 -0.15
12 -0.15
13 0.28
14 0.16
15 0.15
16 0.15
19 0.15
2 -0.68
20 0.15
23 0.15
24 0.15
25 0.4
3 -0.62
4 0.31
6 0.1
7 -0.15
8 -0.15
9 0.23

>  <PUBCHEM_EFFECTIVE_ROTOR_COUNT>  (1) 
3

>  <PUBCHEM_PHARMACOPHORE_FEATURES>  (1) 
5
1 2 acceptor
1 2 donor
1 3 acceptor
6 3 4 5 10 12 14 rings
6 4 5 6 7 8 11 rings

>  <PUBCHEM_HEAVY_ATOM_COUNT>  (1) 
14

>  <PUBCHEM_ATOM_DEF_STEREO_COUNT>  (1) 
0

>  <PUBCHEM_ATOM_UDEF_STEREO_COUNT>  (1) 
0

>  <PUBCHEM_BOND_DEF_STEREO_COUNT>  (1) 
0

>  <PUBCHEM_BOND_UDEF_STEREO_COUNT>  (1) 
0

>  <PUBCHEM_ISOTOPIC_ATOM_COUNT>  (1) 
0

>  <PUBCHEM_COMPONENT_COUNT>  (1) 
1

>  <PUBCHEM_CACTVS_TAUTO_COUNT>  (1) 
1

>  <PUBCHEM_CONFORMER_ID>  (1) 
00005E7100000001

>  <PUBCHEM_MMFF94_ENERGY>  (1) 
38.0362

>  <PUBCHEM_FEATURE_SELFOVERLAP>  (1) 
25.403

>  <PUBCHEM_SHAPE_FINGERPRINT>  (1) 
1 1 18337387240037977846
10608611 8 18334013913031838171
10980938 120 18411134727787113935
11265709 11 17903070032608971178
11471102 20 18409727335670918055
116883 192 17767407876883533143
12654215 9 18407760326527583892
12730499 353 18335144224102384427
13380535 76 18337668749474640610
13464514 151 18409454673777253149
13897977 150 18336265729772165495
14251717 144 18411695478717409711
15219456 202 18260555549675320779
15279308 100 18192719062269916676
15442244 35 18125161524569479265
15775835 57 18340486759274698039
16945 1 18340219560838006722
18186145 218 18199765776193838667
18219364 16 18192730027068073235
193761 8 17905897976826067568
20606313 2 18410008810436820431
20645477 70 18342455911828564279
20820808 20 18411416241128432051
21524375 3 18117266158902941051
21639500 275 18410847785343389855
21947302 44 18335135401606516699
221490 88 18409455808018560035
22289505 5 18191856843607003277
23402655 69 18341891883796133949
23419403 2 17623810627815040680
23493267 7 17531819081218092888
23559900 14 17911544270348014892
23598291 2 17916035555485514721
25 1 18408322206902331727
257057 1 17688019821759904538
2748010 2 17979653538855484738
3060560 45 18413105073909287782
4072396 5 18335967706666245922
58051976 378 18196929088135152695
63268167 104 18341900709468429179
7364860 26 18412822452096940439
7832392 63 18053101718692063097
81228 2 17547297700591742698
84936 182 18130783507700246625

>  <PUBCHEM_SHAPE_MULTIPOLES>  (1) 
281.11
5.91
2.7
0.8
7.7
0.29
0.03
-2.53
-1.26
-1.96
0.06
0.3
0.04
0.1

>  <PUBCHEM_SHAPE_SELFOVERLAP>  (1) 
585.706

>  <PUBCHEM_SHAPE_VOLUME>  (1) 
161

>  <PUBCHEM_COORDINATE_TYPE>  (1) 
2
5
10

$$$$
