24189
     RDKit          3D

 17 17  0  0  1  0  0  0  0  0999 V2000
   -1.6179   -1.5358   -0.7531 O   0  0  0  0  0  0  0  0  0  0  0  0
   -0.3824    0.1173   -2.0336 O   0  0  0  0  0  0  0  0  0  0  0  0
    0.3966   -0.1781    2.5877 O   0  0  0  0  0  0  0  0  0  0  0  0
    3.6772   -1.2897   -0.4219 O   0  0  0  0  0  0  0  0  0  0  0  0
    1.6769   -0.4905   -1.2255 N   0  0  0  0  0  0  0  0  0  0  0  0
    2.0657   -0.6387    1.0830 N   0  0  0  0  0  0  0  0  0  0  0  0
    0.0786    0.5711    0.3035 C   0  0  0  0  0  0  0  0  0  0  0  0
   -1.4338    0.4784    0.5525 C   0  0  0  0  0  0  0  0  0  0  0  0
    0.5081    2.0490    0.3258 C   0  0  0  0  0  0  0  0  0  0  0  0
   -1.9273   -0.9644    0.5149 C   0  0  0  0  0  0  0  0  0  0  0  0
    0.4003    0.0335   -1.0874 C   0  0  0  0  0  0  0  0  0  0  0  0
    0.8253   -0.1280    1.4351 C   0  0  0  0  0  0  0  0  0  0  0  0
   -3.4339   -1.0259    0.7277 C   0  0  0  0  0  0  0  0  0  0  0  0
   -0.2827    2.8450   -0.6584 C   0  0  0  0  0  0  0  0  0  0  0  0
    2.5581   -0.8224   -0.2036 C   0  0  0  0  0  0  0  0  0  0  0  0
   -2.0360   -2.8907   -0.8268 C   0  0  0  0  0  0  0  0  0  0  0  0
   -1.0728    3.8699   -0.3197 C   0  0  0  0  0  0  0  0  0  0  0  0
  1 10  1  0
  1 16  1  0
  2 11  2  0
  3 12  2  0
  4 15  2  0
  5 11  1  0
  5 15  1  0
  6 12  1  0
  6 15  1  0
  7  8  1  0
  7  9  1  0
  7 11  1  0
  7 12  1  0
  8 10  1  0
  9 14  1  0
 10 13  1  0
 14 17  2  0
M  END
>  <PUBCHEM_COMPOUND_CID>  (1) 
24189

>  <PUBCHEM_CONFORMER_RMSD>  (1) 
0.8

>  <PUBCHEM_CONFORMER_DIVERSEORDER>  (1) 
2
19
16
11
12
8
21
14
13
5
17
18
15
20
10
4
9
1
3
6
7

>  <PUBCHEM_MMFF94_PARTIAL_CHARGES>  (1) 
20
1 -0.56
10 0.28
11 0.57
12 0.57
14 -0.29
15 0.69
16 0.28
17 -0.3
2 -0.57
26 0.37
27 0.37
28 0.15
3 -0.57
32 0.15
33 0.15
4 -0.57
5 -0.49
6 -0.49
7 0.12
9 0.14

>  <PUBCHEM_EFFECTIVE_ROTOR_COUNT>  (1) 
5.6

>  <PUBCHEM_PHARMACOPHORE_FEATURES>  (1) 
8
1 1 acceptor
1 17 hydrophobe
1 2 acceptor
1 3 acceptor
1 4 acceptor
1 5 donor
1 6 donor
6 5 6 7 11 12 15 rings

>  <PUBCHEM_HEAVY_ATOM_COUNT>  (1) 
17

>  <PUBCHEM_ATOM_DEF_STEREO_COUNT>  (1) 
0

>  <PUBCHEM_ATOM_UDEF_STEREO_COUNT>  (1) 
1

>  <PUBCHEM_BOND_DEF_STEREO_COUNT>  (1) 
0

>  <PUBCHEM_BOND_UDEF_STEREO_COUNT>  (1) 
0

>  <PUBCHEM_ISOTOPIC_ATOM_COUNT>  (1) 
0

>  <PUBCHEM_COMPONENT_COUNT>  (1) 
1

>  <PUBCHEM_CACTVS_TAUTO_COUNT>  (1) 
5

>  <PUBCHEM_CONFORMER_ID>  (1) 
00005E7D00000002

>  <PUBCHEM_MMFF94_ENERGY>  (1) 
55.0357

>  <PUBCHEM_FEATURE_SELFOVERLAP>  (1) 
40.666

>  <PUBCHEM_SHAPE_FINGERPRINT>  (1) 
12138202 97 17907300953362611444
12326174 3 17683220822723779889
12423570 1 12387855871368882628
12716301 132 17981586200612590225
13024252 1 16879376448964756328
14617773 55 17532086094965947888
14817 1 9293000135439506465
15906896 17 17975965480176204637
16945 1 17826256015413575448
20233049 118 18114463366931513117
20511035 2 17487903521621330823
20600515 1 17845396425546503071
20711985 344 18265035956162547753
21524375 3 17176042115248448732
4175511 71 18338240465683075337
430814 3 17102283576516298384
68419 9 17389084669124605704
7364860 26 17977952607057012369
81228 2 18263347110544912993

>  <PUBCHEM_SHAPE_MULTIPOLES>  (1) 
316.41
3.7
3.31
1.63
1.52
3.91
-0.43
-3.43
-0.04
-0.38
0.98
-0.14
-0.34
-0.28

>  <PUBCHEM_SHAPE_SELFOVERLAP>  (1) 
649.075

>  <PUBCHEM_SHAPE_VOLUME>  (1) 
179.5

>  <PUBCHEM_COORDINATE_TYPE>  (1) 
2
5
10

$$$$
