2418
     RDKit          3D

 29 31  0  0  1  0  0  0  0  0999 V2000
    2.3874   -0.8492    2.3533 F   0  0  0  0  0  0  0  0  0  0  0  0
   -0.9495    3.8418    0.0003 O   0  0  0  0  0  0  0  0  0  0  0  0
    1.2732    2.7837   -0.9913 O   0  0  0  0  0  0  0  0  0  0  0  0
    6.8574   -0.9856   -1.5894 O   0  0  0  0  0  0  0  0  0  0  0  0
    6.7532   -2.3915    0.1936 O   0  0  0  0  0  0  0  0  0  0  0  0
    1.4491    1.2104    0.7441 N   0  0  0  0  0  0  0  0  0  0  0  0
   -3.3239   -0.5185   -1.8990 C   0  0  0  0  0  0  0  0  0  0  0  0
   -4.4669   -1.5475    0.7471 C   0  0  0  0  0  0  0  0  0  0  0  0
   -4.6171   -1.3555   -1.7815 C   0  0  0  0  0  0  0  0  0  0  0  0
   -4.5754   -2.3041   -0.5954 C   0  0  0  0  0  0  0  0  0  0  0  0
   -2.8932    0.0504   -0.5411 C   0  0  0  0  0  0  0  0  0  0  0  0
   -3.4162   -0.4316    0.6843 C   0  0  0  0  0  0  0  0  0  0  0  0
   -2.1794   -1.3951   -2.4541 C   0  0  0  0  0  0  0  0  0  0  0  0
   -3.6202    0.6007   -2.9256 C   0  0  0  0  0  0  0  0  0  0  0  0
   -5.8323   -0.9222    1.1094 C   0  0  0  0  0  0  0  0  0  0  0  0
   -4.1185   -2.6080    1.8188 C   0  0  0  0  0  0  0  0  0  0  0  0
   -1.9118    1.0664   -0.5017 C   0  0  0  0  0  0  0  0  0  0  0  0
   -2.9776    0.1678    1.8864 C   0  0  0  0  0  0  0  0  0  0  0  0
   -1.4828    1.6269    0.6998 C   0  0  0  0  0  0  0  0  0  0  0  0
   -2.0225    1.1825    1.8953 C   0  0  0  0  0  0  0  0  0  0  0  0
   -0.4498    2.7021    0.6977 C   0  0  0  0  0  0  0  0  0  0  0  0
    0.8580    2.2508    0.0338 C   0  0  0  0  0  0  0  0  0  0  0  0
    2.6560    0.5363    0.4425 C   0  0  0  0  0  0  0  0  0  0  0  0
    3.0897   -0.4861    1.2702 C   0  0  0  0  0  0  0  0  0  0  0  0
    3.3794    0.9154   -0.6763 C   0  0  0  0  0  0  0  0  0  0  0  0
    4.2806   -1.1481    0.9708 C   0  0  0  0  0  0  0  0  0  0  0  0
    4.5700    0.2536   -0.9758 C   0  0  0  0  0  0  0  0  0  0  0  0
    5.0207   -0.7782   -0.1523 C   0  0  0  0  0  0  0  0  0  0  0  0
    6.2626   -1.4677   -0.4639 C   0  0  0  0  0  0  0  0  0  0  0  0
  1 24  1  0
  2 21  1  0
  3 22  2  0
  4 29  1  0
  5 29  2  0
  6 22  1  0
  6 23  1  0
  7  9  1  0
  7 11  1  0
  7 13  1  0
  7 14  1  0
  8 10  1  0
  8 12  1  0
  8 15  1  0
  8 16  1  0
  9 10  1  0
 11 12  2  0
 11 17  1  0
 12 18  1  0
 17 19  2  0
 18 20  2  0
 19 20  1  0
 19 21  1  0
 21 22  1  0
 23 24  2  0
 23 25  1  0
 24 26  1  0
 25 27  2  0
 26 28  2  0
 27 28  1  0
 28 29  1  0
M  END
>  <PUBCHEM_COMPOUND_CID>  (1) 
2418

>  <PUBCHEM_CONFORMER_RMSD>  (1) 
0.8

>  <PUBCHEM_CONFORMER_DIVERSEORDER>  (1) 
1
121
136
106
75
122
82
43
58
7
105
46
92
102
6
41
99
127
98
137
89
53
126
117
36
90
32
16
17
125
55
73
28
138
113
68
37
104
66
96
60
27
34
22
133
78
23
40
74
76
13
19
77
69
51
81
14
57
25
52
42
131
30
86
135
35
101
2
97
119
45
26
11
29
18
110
62
88
115
56
12
33
93
100
72
132
84
129
112
63
108
5
64
80
107
15
103
44
59
123
65
134
24
114
10
31
87
8
95
116
38
111
21
91
47
49
94
128
48
79
109
71
20
120
70
83
67
39
130
3
61
118
124
4
85
54
50
9

>  <PUBCHEM_MMFF94_PARTIAL_CHARGES>  (1) 
32
1 -0.19
11 -0.14
12 -0.14
17 -0.15
18 -0.15
19 -0.14
2 -0.68
20 -0.15
21 0.48
22 0.57
23 0.12
24 0.19
25 -0.15
26 -0.15
27 -0.15
28 0.09
29 0.63
3 -0.57
4 -0.65
46 0.15
47 0.15
48 0.15
5 -0.57
50 0.4
51 0.37
52 0.15
53 0.15
54 0.15
55 0.5
6 -0.55
7 0.14
8 0.14

>  <PUBCHEM_EFFECTIVE_ROTOR_COUNT>  (1) 
5.8

>  <PUBCHEM_PHARMACOPHORE_FEATURES>  (1) 
12
1 2 acceptor
1 2 donor
1 3 acceptor
1 4 acceptor
1 5 acceptor
1 6 donor
3 4 5 29 anion
3 7 13 14 hydrophobe
3 8 15 16 hydrophobe
6 11 12 17 18 19 20 rings
6 23 24 25 26 27 28 rings
6 7 8 9 10 11 12 rings

>  <PUBCHEM_HEAVY_ATOM_COUNT>  (1) 
29

>  <PUBCHEM_ATOM_DEF_STEREO_COUNT>  (1) 
0

>  <PUBCHEM_ATOM_UDEF_STEREO_COUNT>  (1) 
1

>  <PUBCHEM_BOND_DEF_STEREO_COUNT>  (1) 
0

>  <PUBCHEM_BOND_UDEF_STEREO_COUNT>  (1) 
0

>  <PUBCHEM_ISOTOPIC_ATOM_COUNT>  (1) 
0

>  <PUBCHEM_COMPONENT_COUNT>  (1) 
1

>  <PUBCHEM_CACTVS_TAUTO_COUNT>  (1) 
3

>  <PUBCHEM_CONFORMER_ID>  (1) 
0000097200000001

>  <PUBCHEM_MMFF94_ENERGY>  (1) 
92.5471

>  <PUBCHEM_FEATURE_SELFOVERLAP>  (1) 
60.981

>  <PUBCHEM_SHAPE_FINGERPRINT>  (1) 
10291535 26 12613050374264551796
10319926 262 14404916824450392781
10498660 4 13551734250259954645
10622 236 17414698071978239615
10928967 22 18271515464227530206
11135926 11 18052535757988166636
11640471 11 7925646474731984441
12166972 35 17894919554854202494
12403259 118 12463565214184423267
12422481 6 17274557467801136471
12553582 1 18412256255127209505
12592606 108 18412267272784259027
12633257 1 15769779077962077752
12788726 201 18193542377573536761
13103583 49 15626225714943424242
13690498 29 17821730537502341703
14251764 38 12325115801443504318
14910302 57 17604704611864569537
14950920 106 14979663425431323238
15064981 113 14129324209869787602
15082195 135 14707216530649792358
15188451 53 16415186919342011735
16728300 4 17844532313394401775
16991981 162 16589128434405738205
17780758 139 17203610363121554146
1813 80 18201161056661035269
18393751 57 11312058764332341461
19841028 212 17986944348983762943
20775438 99 17619331543508574547
21033650 10 16515677823444135149
22393880 68 17458338637550419472
235170 7 16515677862087771402
23536364 44 18040713645324135554
23559900 14 17096077125751550173
2838139 119 13695867026475008990
312425 83 15214122077957515442
328310 18 13334746712644462766
3459 110 14189286093016019605
351380 3 18342178881625916538
3737641 26 17774168877490074542
392239 28 16056879147676236442
4098825 35 16081645565482062201
46194498 28 16951693690676386013
463206 1 18261394524081159339
474113 269 17630601435806261919
484985 159 18337391548322536357
58260988 647 18194395813925245679
613672 6 18265029457908853112
6431902 208 18411419471603708734
6703917 75 16050656105949067240
7970288 3 18341895237622818750
9981440 41 11095895856374562957

>  <PUBCHEM_SHAPE_MULTIPOLES>  (1) 
561.07
14.75
2.99
2.31
19.54
1.77
-0.71
-13.42
-1.61
-0.2
0.17
-2.6
-0.61
-0.05

>  <PUBCHEM_SHAPE_SELFOVERLAP>  (1) 
1209.505

>  <PUBCHEM_SHAPE_VOLUME>  (1) 
310.7

>  <PUBCHEM_COORDINATE_TYPE>  (1) 
2
5
10

$$$$
