24181
     RDKit          3D

 13 13  0  0  0  0  0  0  0  0999 V2000
    2.6546    0.0006   -0.1784 S   0  0  0  0  0  0  0  0  0  0  0  0
   -3.2026    0.4055    0.3852 O   0  0  0  0  0  0  0  0  0  0  0  0
   -1.9965   -2.0838    0.1092 O   0  0  0  0  0  0  0  0  0  0  0  0
    3.2248   -0.1320    1.3481 O   0  0  0  0  0  0  0  0  0  0  0  0
    2.9585   -1.2518   -0.8554 O   0  0  0  0  0  0  0  0  0  0  0  0
    3.1136    1.2688   -0.7234 O   0  0  0  0  0  0  0  0  0  0  0  0
    0.9202    0.1162   -0.0116 C   0  0  0  0  0  0  0  0  0  0  0  0
    0.1401   -1.0402   -0.0170 C   0  0  0  0  0  0  0  0  0  0  0  0
    0.3148    1.3652    0.1270 C   0  0  0  0  0  0  0  0  0  0  0  0
   -1.8506    0.3017    0.2549 C   0  0  0  0  0  0  0  0  0  0  0  0
   -1.2453   -0.9474    0.1162 C   0  0  0  0  0  0  0  0  0  0  0  0
   -1.0706    1.4580    0.2604 C   0  0  0  0  0  0  0  0  0  0  0  0
   -3.9610    0.5393   -0.8153 C   0  0  0  0  0  0  0  0  0  0  0  0
  1  4  1  0
  1  5  2  0
  1  6  2  0
  1  7  1  0
  2 10  1  0
  2 13  1  0
  3 11  1  0
  7  8  2  0
  7  9  1  0
  8 11  1  0
  9 12  2  0
 10 11  2  0
 10 12  1  0
M  END
>  <PUBCHEM_COMPOUND_CID>  (1) 
24181

>  <PUBCHEM_CONFORMER_RMSD>  (1) 
0.6

>  <PUBCHEM_CONFORMER_DIVERSEORDER>  (1) 
1
2

>  <PUBCHEM_MMFF94_PARTIAL_CHARGES>  (1) 
18
1 1.49
10 0.08
11 0.08
12 -0.15
13 0.28
14 0.15
15 0.15
16 0.15
17 0.45
18 0.5
2 -0.36
3 -0.53
4 -0.68
5 -0.65
6 -0.65
7 -0.01
8 -0.15
9 -0.15

>  <PUBCHEM_EFFECTIVE_ROTOR_COUNT>  (1) 
2

>  <PUBCHEM_PHARMACOPHORE_FEATURES>  (1) 
7
1 2 acceptor
1 3 donor
1 4 acceptor
1 5 acceptor
1 6 acceptor
4 1 4 5 6 anion
6 7 8 9 10 11 12 rings

>  <PUBCHEM_HEAVY_ATOM_COUNT>  (1) 
13

>  <PUBCHEM_ATOM_DEF_STEREO_COUNT>  (1) 
0

>  <PUBCHEM_ATOM_UDEF_STEREO_COUNT>  (1) 
0

>  <PUBCHEM_BOND_DEF_STEREO_COUNT>  (1) 
0

>  <PUBCHEM_BOND_UDEF_STEREO_COUNT>  (1) 
0

>  <PUBCHEM_ISOTOPIC_ATOM_COUNT>  (1) 
0

>  <PUBCHEM_COMPONENT_COUNT>  (1) 
1

>  <PUBCHEM_CACTVS_TAUTO_COUNT>  (1) 
3

>  <PUBCHEM_CONFORMER_ID>  (1) 
00005E7500000001

>  <PUBCHEM_MMFF94_ENERGY>  (1) 
33.3723

>  <PUBCHEM_FEATURE_SELFOVERLAP>  (1) 
35.577

>  <PUBCHEM_SHAPE_FINGERPRINT>  (1) 
10130415 120 18335416863708836064
11132069 177 18412820287443933907
12032990 46 18411991256056561259
12932764 1 17458345243020203702
13380535 76 18412260619093901223
13538477 17 18187363250889194834
14325111 11 18410579478541418165
14911166 2 18411418397571331805
14993402 34 18408042901021450573
15775835 57 17821730550418846468
16945 1 18411142411299074689
17846911 113 18341603798389871177
18186145 218 18040439866987010485
18619055 16 18408042918069359940
19026448 4 16081091471988724753
19026448 5 15719398321654135681
193761 8 17835240421614467177
20201158 50 18272655627704321270
20279233 1 17989203763541601394
20528008 55 18272927228366556616
20645476 183 17459205086719846142
21293036 1 18410290311631643477
21501502 16 18192712464962760101
23402539 116 18200019660427493893
23402655 69 18195511616453614213
23463225 33 18335137557780274074
23552423 10 18044380662647682116
23559900 14 18341897385923306294
2748010 2 18196370553207339569
3248919 1 18343586243740495456
369184 2 17167861980312114208
5084963 1 18128543673828477536
528886 8 18411980277729652211
7364860 26 18343024398242691116

>  <PUBCHEM_SHAPE_MULTIPOLES>  (1) 
242.04
5.85
1.59
0.86
0.34
0.31
0.04
-0.37
-0.81
0.24
-0.05
-0.34
-0.02
0.09

>  <PUBCHEM_SHAPE_SELFOVERLAP>  (1) 
491.675

>  <PUBCHEM_SHAPE_VOLUME>  (1) 
142.6

>  <PUBCHEM_COORDINATE_TYPE>  (1) 
2
5
10

$$$$
