24183
     RDKit          3D

 15 17  0  0  1  0  0  0  0  0999 V2000
   -3.3034   -0.3011   -0.0461 N   0  0  0  0  0  0  0  0  0  0  0  0
    0.7020    1.6980   -0.0474 N   0  0  0  0  0  0  0  0  0  0  0  0
   -0.1335   -0.3400   -0.3761 C   0  0  0  0  0  0  0  0  0  0  0  0
   -0.4487    1.0023   -0.3055 C   0  0  0  0  0  0  0  0  0  0  0  0
   -1.1177   -1.4256   -0.6462 C   0  0  0  0  0  0  0  0  0  0  0  0
   -1.7694    1.6644   -0.4669 C   0  0  0  0  0  0  0  0  0  0  0  0
   -2.3459   -1.3809    0.2733 C   0  0  0  0  0  0  0  0  0  0  0  0
   -2.8529    1.0293    0.4137 C   0  0  0  0  0  0  0  0  0  0  0  0
    1.2741   -0.4559   -0.1496 C   0  0  0  0  0  0  0  0  0  0  0  0
    1.7677    0.8346    0.0538 C   0  0  0  0  0  0  0  0  0  0  0  0
   -4.5982   -0.6098    0.5765 C   0  0  0  0  0  0  0  0  0  0  0  0
    2.1797   -1.5367   -0.0973 C   0  0  0  0  0  0  0  0  0  0  0  0
    3.1185    1.0987    0.3076 C   0  0  0  0  0  0  0  0  0  0  0  0
    3.5337   -1.2882    0.1555 C   0  0  0  0  0  0  0  0  0  0  0  0
    3.9940    0.0109    0.3547 C   0  0  0  0  0  0  0  0  0  0  0  0
  1  7  1  0
  1  8  1  0
  1 11  1  0
  2  4  1  0
  2 10  1  0
  3  4  2  0
  3  5  1  0
  3  9  1  0
  4  6  1  0
  5  7  1  0
  6  8  1  0
  9 10  2  0
  9 12  1  0
 10 13  1  0
 12 14  2  0
 13 15  2  0
 14 15  1  0
M  END
>  <PUBCHEM_COMPOUND_CID>  (1) 
24183

>  <PUBCHEM_CONFORMER_RMSD>  (1) 
0.4

>  <PUBCHEM_CONFORMER_DIVERSEORDER>  (1) 
1
2
3
6
4
5

>  <PUBCHEM_MMFF94_PARTIAL_CHARGES>  (1) 
19
1 -0.81
10 -0.15
11 0.27
12 -0.15
13 -0.15
14 -0.15
15 -0.15
2 0.03
24 0.27
28 0.15
29 0.15
3 -0.18
30 0.15
31 0.15
4 -0.33
5 0.18
6 0.18
7 0.27
8 0.27

>  <PUBCHEM_EFFECTIVE_ROTOR_COUNT>  (1) 
1

>  <PUBCHEM_PHARMACOPHORE_FEATURES>  (1) 
6
1 1 cation
1 2 cation
1 2 donor
5 2 3 4 9 10 rings
6 9 10 12 13 14 15 rings
7 1 3 4 5 6 7 8 rings

>  <PUBCHEM_HEAVY_ATOM_COUNT>  (1) 
15

>  <PUBCHEM_ATOM_DEF_STEREO_COUNT>  (1) 
0

>  <PUBCHEM_ATOM_UDEF_STEREO_COUNT>  (1) 
0

>  <PUBCHEM_BOND_DEF_STEREO_COUNT>  (1) 
0

>  <PUBCHEM_BOND_UDEF_STEREO_COUNT>  (1) 
0

>  <PUBCHEM_ISOTOPIC_ATOM_COUNT>  (1) 
0

>  <PUBCHEM_COMPONENT_COUNT>  (1) 
1

>  <PUBCHEM_CACTVS_TAUTO_COUNT>  (1) 
1

>  <PUBCHEM_CONFORMER_ID>  (1) 
00005E7700000001

>  <PUBCHEM_MMFF94_ENERGY>  (1) 
28.1418

>  <PUBCHEM_FEATURE_SELFOVERLAP>  (1) 
30.569

>  <PUBCHEM_SHAPE_FINGERPRINT>  (1) 
10608611 8 18411693266751509212
10967382 1 18411135865847984854
11132069 177 18411693300968407154
11471102 20 18410849984108215110
12032990 46 18410858716019353366
12251169 10 18342177790814882611
12382932 28 18342173341249830624
13140716 1 18122904505995723256
13221675 6 18409445890622003702
13296908 3 18335136453889107452
13581323 91 18335420157932791284
14115302 16 17168434847387499323
14144814 61 18411698772709282418
14252887 29 18271535225303116722
14325111 11 18411698751276897268
15196674 1 18410855434405837329
15219456 202 18341046333220320100
15309172 13 17988923357827215791
15375462 189 18261104158543127746
15442244 35 18340487742716784962
15536298 74 18343584040617477386
16945 1 18339918332963849484
17804303 29 18340492166496111654
17844478 74 18259984855494905605
18522853 276 18341895190715002633
19422 9 18261398823248145092
200 152 18059842975069265157
20261772 1 18272654592701917247
20510252 161 18272652299115418049
20528008 55 18341607127163429739
20559304 39 18336552710749581564
20645477 70 18341040822819841535
20871998 22 18269562654282590654
21267235 1 18410582772966132398
21501502 16 18411135857326628556
21501925 9 18409164415544910369
23402539 116 18272363188245764351
23463225 33 18409729556205978828
23559900 14 18194677073778733262
2748010 2 18267579117988868764
2871803 45 18187359913625902123
42 15 18407762534146230763
5104073 3 18411135796964998192
53812653 166 18201151148329375232
69090 78 18271802432572472055
7364860 26 18339363092814737204
8809292 202 18187931715306623099
9709674 26 18411141324604270679

>  <PUBCHEM_SHAPE_MULTIPOLES>  (1) 
298.73
7.2
1.82
0.72
1.57
0.11
0.01
-1.31
-1.67
0.01
0.1
0.14
-0.02
0.19

>  <PUBCHEM_SHAPE_SELFOVERLAP>  (1) 
648.579

>  <PUBCHEM_SHAPE_VOLUME>  (1) 
162.6

>  <PUBCHEM_COORDINATE_TYPE>  (1) 
2
5
10

$$$$
