24199
     RDKit          3D

 23 25  0  0  1  0  0  0  0  0999 V2000
    0.2507   -0.5372    1.7196 O   0  0  0  0  0  0  0  0  0  0  0  0
   -4.5820   -0.2140    0.0963 N   0  0  0  0  0  0  0  0  0  0  0  0
   -1.7014   -0.2850   -0.4451 N   0  0  0  0  0  0  0  0  0  0  0  0
    0.8239    1.1894    0.1899 C   0  0  0  0  0  0  0  0  0  0  0  0
    0.6754   -0.3206    0.3668 C   0  0  0  0  0  0  0  0  0  0  0  0
   -0.3933   -0.9262   -0.5734 C   0  0  0  0  0  0  0  0  0  0  0  0
    1.8144    1.7602    1.2137 C   0  0  0  0  0  0  0  0  0  0  0  0
    1.2625    1.5269   -1.2416 C   0  0  0  0  0  0  0  0  0  0  0  0
   -4.0087   -0.1597   -1.3215 C   0  0  0  0  0  0  0  0  0  0  0  0
   -3.5435    0.3068    1.0923 C   0  0  0  0  0  0  0  0  0  0  0  0
   -2.6527   -0.8564   -1.4036 C   0  0  0  0  0  0  0  0  0  0  0  0
   -2.2034   -0.4060    0.9273 C   0  0  0  0  0  0  0  0  0  0  0  0
    2.0205    3.2611    1.0227 C   0  0  0  0  0  0  0  0  0  0  0  0
    1.4696    3.0281   -1.4286 C   0  0  0  0  0  0  0  0  0  0  0  0
    2.4480    3.5934   -0.4036 C   0  0  0  0  0  0  0  0  0  0  0  0
    2.0103   -1.0362    0.1348 C   0  0  0  0  0  0  0  0  0  0  0  0
   -5.8121    0.6979    0.1571 C   0  0  0  0  0  0  0  0  0  0  0  0
   -5.0421   -1.6256    0.4577 C   0  0  0  0  0  0  0  0  0  0  0  0
    2.8460   -1.2314    1.2090 C   0  0  0  0  0  0  0  0  0  0  0  0
    2.3185   -1.4550   -1.1381 C   0  0  0  0  0  0  0  0  0  0  0  0
    4.0612   -1.8830    0.9980 C   0  0  0  0  0  0  0  0  0  0  0  0
    3.5336   -2.1067   -1.3490 C   0  0  0  0  0  0  0  0  0  0  0  0
    4.4048   -2.3207   -0.2807 C   0  0  0  0  0  0  0  0  0  0  0  0
  1  5  1  0
  2  9  1  0
  2 10  1  0
  2 17  1  0
  2 18  1  0
  3  6  1  0
  3 11  1  0
  3 12  1  0
  4  5  1  0
  4  7  1  0
  4  8  1  0
  5  6  1  0
  5 16  1  0
  7 13  1  0
  8 14  1  0
  9 11  1  0
 10 12  1  0
 13 15  1  0
 14 15  1  0
 16 19  2  0
 16 20  1  0
 19 21  1  0
 20 22  2  0
 21 23  2  0
 22 23  1  0
M  CHG  1   2   1
M  END
>  <PUBCHEM_COMPOUND_CID>  (1) 
24199

>  <PUBCHEM_CONFORMER_RMSD>  (1) 
0.8

>  <PUBCHEM_CONFORMER_DIVERSEORDER>  (1) 
1
20
27
11
22
21
28
5
29
12
15
3
6
19
24
13
25
17
18
8
2
23
14
7
9
16
26
4
10

>  <PUBCHEM_MMFF94_PARTIAL_CHARGES>  (1) 
23
1 -0.68
10 0.5
11 0.27
12 0.27
16 -0.14
17 0.5
18 0.5
19 -0.15
2 -1.01
20 -0.15
21 -0.15
22 -0.15
23 -0.15
3 -0.81
5 0.42
51 0.4
52 0.15
53 0.15
54 0.15
55 0.15
56 0.15
6 0.27
9 0.5

>  <PUBCHEM_EFFECTIVE_ROTOR_COUNT>  (1) 
6.4

>  <PUBCHEM_PHARMACOPHORE_FEATURES>  (1) 
7
1 1 acceptor
1 1 donor
1 2 cation
1 3 cation
6 16 19 20 21 22 23 rings
6 2 3 9 10 11 12 rings
6 4 7 8 13 14 15 rings

>  <PUBCHEM_HEAVY_ATOM_COUNT>  (1) 
23

>  <PUBCHEM_ATOM_DEF_STEREO_COUNT>  (1) 
0

>  <PUBCHEM_ATOM_UDEF_STEREO_COUNT>  (1) 
1

>  <PUBCHEM_BOND_DEF_STEREO_COUNT>  (1) 
0

>  <PUBCHEM_BOND_UDEF_STEREO_COUNT>  (1) 
0

>  <PUBCHEM_ISOTOPIC_ATOM_COUNT>  (1) 
0

>  <PUBCHEM_COMPONENT_COUNT>  (1) 
1

>  <PUBCHEM_CACTVS_TAUTO_COUNT>  (1) 
1

>  <PUBCHEM_CONFORMER_ID>  (1) 
00005E8700000001

>  <PUBCHEM_MMFF94_ENERGY>  (1) 
81.4232

>  <PUBCHEM_FEATURE_SELFOVERLAP>  (1) 
35.523

>  <PUBCHEM_SHAPE_FINGERPRINT>  (1) 
10366900 7 17022904532571114963
10369192 42 17536887928295808292
11405975 8 18408888443297122947
11578080 2 17388851782980967640
12422481 6 18051373449906910792
12553582 1 18338227151058169614
12616971 3 18131634496183957327
12617007 42 18411423877954850086
12707595 3 18261392217509601918
12788726 201 17971755459202691250
13004483 165 18126278645663720494
13009979 54 17988657258875467217
13134695 92 18410291398047502652
13149001 5 18187662331005872146
133893 2 18191893256002245328
13533116 47 18338519763554771003
13590594 115 18264499385904325913
13675066 3 17703786999128209067
13681431 1 18410863157263580668
14170010 4 18411980277735141432
14181834 199 18342733061598880812
14347329 18 15721339934993648277
14739800 52 17416958598801453745
14950920 106 18119842229628138337
14955137 171 18271814488340080022
15163728 17 17682414880912156468
15375358 24 12967125021646914375
15420108 30 17913468398009480352
15664445 248 18269850735309483958
15806764 133 18041550365526304109
17357779 13 18197478650316589068
17492 89 18342738576559169127
17844677 252 18408609158779892539
17980427 23 17631148914305339014
1813 80 18341335474882706142
18186145 218 18113892767683366571
18222031 100 18270966734989667646
18785283 64 18336546139507264148
20600515 1 18338529534262504006
20739085 24 18272366456478570902
21033648 29 17273396289217664459
21041028 32 18339642239497167177
21503847 285 18334011679691269673
22182313 1 18116124745711726580
2255824 54 18410293639841180438
22849341 161 18200047143717284776
23175994 123 18188777141074768127
23402539 116 18265336093131362250
23419403 2 18118653622925018756
23557571 272 18195806263836207566
23558518 356 18121770888223508551
23559900 14 18113337539922868571
283562 15 17974293123576329178
312423 11 18272102612395273849
3411729 13 18336824312050243968
474 4 18046343299599068741
5081480 168 18334294249468053205
5104073 3 18339370755611010707
5281201 14 18261110798873478693
5895379 119 17201663080953532081
6049 1 17749378274548578197
633830 44 18335975433518347227
6443956 14 18343018865818314296
6786 2 17538863772697975316
6823239 73 16877949364539806189
7364860 26 18342176717231509084
7471813 234 18201719526768277657
7495541 125 18040723571157593571
81228 2 17978803307213867400
9841814 1 18261381239873542906
9971528 1 18130784521227755034
9981440 41 17695050489717573568

>  <PUBCHEM_SHAPE_MULTIPOLES>  (1) 
457.5
9.7
3.44
1.54
13.57
3.51
0.09
-4.78
-0.35
-5.3
0.43
-0.36
0.08
0.03

>  <PUBCHEM_SHAPE_SELFOVERLAP>  (1) 
949.675

>  <PUBCHEM_SHAPE_VOLUME>  (1) 
259

>  <PUBCHEM_COORDINATE_TYPE>  (1) 
2
5
10

$$$$
