24198
     RDKit          3D

 13 13  0  0  1  0  0  0  0  0999 V2000
    0.2283    2.8023   -0.0261 Cl  0  0  0  0  0  0  0  0  0  0  0  0
    4.2225   -0.7921   -0.3395 Cl  0  0  0  0  0  0  0  0  0  0  0  0
   -1.9843   -0.0340    1.8152 O   0  0  0  0  0  0  0  0  0  0  0  0
   -2.2409    0.0732   -1.7892 O   0  0  0  0  0  0  0  0  0  0  0  0
   -3.3404   -1.1589   -0.2374 O   0  0  0  0  0  0  0  0  0  0  0  0
   -0.1491    0.1229    0.2926 C   0  0  0  0  0  0  0  0  0  0  0  0
   -1.6047    0.3836    0.5073 C   0  0  0  0  0  0  0  0  0  0  0  0
    0.7513    1.1590    0.0447 C   0  0  0  0  0  0  0  0  0  0  0  0
    0.3024   -1.1959    0.3451 C   0  0  0  0  0  0  0  0  0  0  0  0
    2.1031    0.8764   -0.1509 C   0  0  0  0  0  0  0  0  0  0  0  0
    1.6542   -1.4785    0.1495 C   0  0  0  0  0  0  0  0  0  0  0  0
    2.5546   -0.4424   -0.0985 C   0  0  0  0  0  0  0  0  0  0  0  0
   -2.4969   -0.3155   -0.5127 C   0  0  0  0  0  0  0  0  0  0  0  0
  1  8  1  0
  2 12  1  0
  3  7  1  0
  4 13  1  0
  5 13  2  0
  6  7  1  0
  6  8  2  0
  6  9  1  0
  7 13  1  0
  8 10  1  0
  9 11  2  0
 10 12  2  0
 11 12  1  0
M  END
>  <PUBCHEM_COMPOUND_CID>  (1) 
24198

>  <PUBCHEM_CONFORMER_RMSD>  (1) 
0.6

>  <PUBCHEM_CONFORMER_DIVERSEORDER>  (1) 
2
5
9
3
8
7
6
4
1

>  <PUBCHEM_MMFF94_PARTIAL_CHARGES>  (1) 
18
1 -0.18
10 -0.15
11 -0.15
12 0.18
13 0.66
15 0.15
16 0.15
17 0.15
18 0.4
19 0.5
2 -0.18
3 -0.68
4 -0.65
5 -0.57
6 -0.14
7 0.48
8 0.18
9 -0.15

>  <PUBCHEM_EFFECTIVE_ROTOR_COUNT>  (1) 
2

>  <PUBCHEM_PHARMACOPHORE_FEATURES>  (1) 
6
1 3 acceptor
1 3 donor
1 4 acceptor
1 5 acceptor
3 4 5 13 anion
6 6 8 9 10 11 12 rings

>  <PUBCHEM_HEAVY_ATOM_COUNT>  (1) 
13

>  <PUBCHEM_ATOM_DEF_STEREO_COUNT>  (1) 
0

>  <PUBCHEM_ATOM_UDEF_STEREO_COUNT>  (1) 
1

>  <PUBCHEM_BOND_DEF_STEREO_COUNT>  (1) 
0

>  <PUBCHEM_BOND_UDEF_STEREO_COUNT>  (1) 
0

>  <PUBCHEM_ISOTOPIC_ATOM_COUNT>  (1) 
0

>  <PUBCHEM_COMPONENT_COUNT>  (1) 
1

>  <PUBCHEM_CACTVS_TAUTO_COUNT>  (1) 
1

>  <PUBCHEM_CONFORMER_ID>  (1) 
00005E8600000002

>  <PUBCHEM_MMFF94_ENERGY>  (1) 
26.2561

>  <PUBCHEM_FEATURE_SELFOVERLAP>  (1) 
30.512

>  <PUBCHEM_SHAPE_FINGERPRINT>  (1) 
11206711 2 18263086513868218116
12032990 46 18410860966677460730
12138202 97 16515399685809721619
12423570 1 17769106652444905610
14128692 85 17988634242066645127
14993402 34 18342457049694178198
16945 1 18336271163137949114
18534176 82 16588031220595715091
20201158 50 18113617867600141626
20361792 2 18272084998159464308
21061003 4 18262253182374355529
21501502 16 17975132033620279114
22112679 90 17703806837228598273
23402539 116 18339923715248870374
25 1 17896308122149708805
2748010 2 18193286419134018770
5084963 1 18272931660730530185
528886 8 18338795615595962283
63268167 104 18339922731026197632
77492 1 17774733046765268841
81228 2 18119250558553908376

>  <PUBCHEM_SHAPE_MULTIPOLES>  (1) 
253.67
5.19
1.93
1.05
1.94
1.51
-0.01
-2.34
-0.98
0.26
0.01
-0.88
-0.05
-0.09

>  <PUBCHEM_SHAPE_SELFOVERLAP>  (1) 
512.506

>  <PUBCHEM_SHAPE_VOLUME>  (1) 
150.1

>  <PUBCHEM_COORDINATE_TYPE>  (1) 
2
5
10

$$$$
