24196
     RDKit          3D

 16 18  0  0  1  0  0  0  0  0999 V2000
    0.6058   -0.2368    0.0193 O   0  0  0  0  0  0  0  0  0  0  0  0
    1.3517    1.9874    0.1132 O   0  0  0  0  0  0  0  0  0  0  0  0
   -2.8642    1.0246    0.1856 N   0  0  0  0  0  0  0  0  0  0  0  0
    1.7680    0.6130    0.0335 C   0  0  0  0  0  0  0  0  0  0  0  0
   -0.4773    0.6212    0.3859 C   0  0  0  0  0  0  0  0  0  0  0  0
   -1.7797    0.1089   -0.1903 C   0  0  0  0  0  0  0  0  0  0  0  0
    2.6262    0.2895    1.2604 C   0  0  0  0  0  0  0  0  0  0  0  0
    2.5541    0.3972   -1.2635 C   0  0  0  0  0  0  0  0  0  0  0  0
   -0.0490    1.9596   -0.1625 C   0  0  0  0  0  0  0  0  0  0  0  0
   -2.0686   -1.3122    0.3123 C   0  0  0  0  0  0  0  0  0  0  0  0
    3.2361   -1.1086    1.1835 C   0  0  0  0  0  0  0  0  0  0  0  0
    3.1661   -1.0003   -1.3406 C   0  0  0  0  0  0  0  0  0  0  0  0
    4.0178   -1.3082   -0.1121 C   0  0  0  0  0  0  0  0  0  0  0  0
   -3.4175   -1.8144   -0.1953 C   0  0  0  0  0  0  0  0  0  0  0  0
   -4.5186   -0.8105    0.1283 C   0  0  0  0  0  0  0  0  0  0  0  0
   -4.1510    0.5895   -0.3578 C   0  0  0  0  0  0  0  0  0  0  0  0
  1  4  1  0
  1  5  1  0
  2  4  1  0
  2  9  1  0
  3  6  1  0
  3 16  1  0
  4  7  1  0
  4  8  1  0
  5  6  1  0
  5  9  1  0
  6 10  1  0
  7 11  1  0
  8 12  1  0
 10 14  1  0
 11 13  1  0
 12 13  1  0
 14 15  1  0
 15 16  1  0
M  END
>  <PUBCHEM_COMPOUND_CID>  (1) 
24196

>  <PUBCHEM_CONFORMER_RMSD>  (1) 
0.6

>  <PUBCHEM_CONFORMER_DIVERSEORDER>  (1) 
1
31
6
41
14
40
27
21
32
18
36
29
47
2
15
34
24
23
4
43
48
19
45
37
10
8
13
51
50
42
9
33
39
30
20
11
44
12
49
28
26
46
35
38
16
7
5
22
3
25
17

>  <PUBCHEM_MMFF94_PARTIAL_CHARGES>  (1) 
9
1 -0.56
16 0.27
2 -0.56
3 -0.9
35 0.36
4 0.56
5 0.28
6 0.27
9 0.28

>  <PUBCHEM_EFFECTIVE_ROTOR_COUNT>  (1) 
4

>  <PUBCHEM_PHARMACOPHORE_FEATURES>  (1) 
7
1 1 acceptor
1 2 acceptor
1 3 cation
1 3 donor
5 1 2 4 5 9 rings
6 3 6 10 14 15 16 rings
6 4 7 8 11 12 13 rings

>  <PUBCHEM_HEAVY_ATOM_COUNT>  (1) 
16

>  <PUBCHEM_ATOM_DEF_STEREO_COUNT>  (1) 
0

>  <PUBCHEM_ATOM_UDEF_STEREO_COUNT>  (1) 
2

>  <PUBCHEM_BOND_DEF_STEREO_COUNT>  (1) 
0

>  <PUBCHEM_BOND_UDEF_STEREO_COUNT>  (1) 
0

>  <PUBCHEM_ISOTOPIC_ATOM_COUNT>  (1) 
0

>  <PUBCHEM_COMPONENT_COUNT>  (1) 
1

>  <PUBCHEM_CACTVS_TAUTO_COUNT>  (1) 
1

>  <PUBCHEM_CONFORMER_ID>  (1) 
00005E8400000001

>  <PUBCHEM_MMFF94_ENERGY>  (1) 
16.6846

>  <PUBCHEM_FEATURE_SELFOVERLAP>  (1) 
35.571

>  <PUBCHEM_SHAPE_FINGERPRINT>  (1) 
10062212 137 18261385616493001859
10465860 71 18336278885067141428
10618630 7 18411981347361138126
10751810 167 18040439884377785167
11543360 7 15430323563522101395
11578080 2 17532345661383846508
11715629 250 8358262531519796163
12032990 46 18412547613134774473
12251169 10 13110962011484054214
12346177 29 18271796922340187727
12932764 1 17749103405015420397
13296908 3 18342174492221905563
13583140 156 14907600290990714735
13675066 3 17846493734209393169
14004511 7 18273217478467822819
14115302 16 17967538964626025478
14144814 61 18408602582694436361
14252887 29 18202846556615223658
14289901 80 16343978117820251537
15239191 94 18260266369374313131
15442244 35 18410292510528571265
15848700 24 18342733005421440724
15885798 251 18412265034499460793
16752209 62 18116705223516229761
16945 1 18338800005058164137
17804303 29 18410293614535314445
17834072 14 18202276996337745081
17834072 8 18334850589925312503
18186145 218 13190340145165293861
18522853 295 18409732863146394715
18915474 69 18113904870342245502
19107657 162 18131070437132078047
19422 9 18113058242230702809
19862831 5 17676209060879507883
20279233 1 17847059982312777311
20281475 54 18409169878759200072
20369508 70 18336539495024123537
20374829 77 18411137996225915518
20645477 70 18339360876410782247
20671657 53 18409731768008913977
20871998 22 18341611503872436392
20871999 31 18334867082082907420
21501925 9 18342167899399750496
221490 88 18191032394042133539
22485316 2 18408884044432823588
2255824 54 17968943109936791268
22646028 28 18409446990091492003
231179 274 11963394059268778878
23463225 33 18407755932728729739
23557571 272 18271524174932493376
23559900 14 18272088296879158560
3060560 45 14851603289201598250
3082319 5 17312825978374170799
31174 14 17346587561516778912
4921388 177 15719687549205305715
5104073 3 18341053012400809931
522135 26 17095240310954911347
5281201 14 13840259252183078978
5374978 207 12031793560978240919
5902787 121 18410569604453620928
6333272 397 9943515328046082094
633830 44 15068618254251271701
7364860 26 18198624526359301440
74978 22 18335986466661381857
81228 2 18057334885345198472
9709674 26 18265614479931550715
9882013 296 12031785859843409731

>  <PUBCHEM_SHAPE_MULTIPOLES>  (1) 
312.55
8.37
1.81
1.06
4.37
0.22
0.05
-3.58
0.38
0.19
0.01
-1.15
-0.14
0.06

>  <PUBCHEM_SHAPE_SELFOVERLAP>  (1) 
644.709

>  <PUBCHEM_SHAPE_VOLUME>  (1) 
177.9

>  <PUBCHEM_COORDINATE_TYPE>  (1) 
2
5
10

$$$$
