2420
     RDKit          3D

 14 14  0  0  1  0  0  0  0  0999 V2000
   -4.3726   -1.1775   -0.3590 O   0  0  0  0  0  0  0  0  0  0  0  0
    4.3734    1.1770   -0.3577 O   0  0  0  0  0  0  0  0  0  0  0  0
   -3.5921   -0.6793    0.4470 N   0  0  0  0  0  0  0  0  0  0  0  0
    3.5926    0.6783    0.4477 N   0  0  0  0  0  0  0  0  0  0  0  0
   -1.3757    0.2307   -0.1620 C   0  0  0  0  0  0  0  0  0  0  0  0
    1.3757   -0.2299   -0.1626 C   0  0  0  0  0  0  0  0  0  0  0  0
   -2.8467    0.4760   -0.1619 C   0  0  0  0  0  0  0  0  0  0  0  0
    2.8467   -0.4761   -0.1624 C   0  0  0  0  0  0  0  0  0  0  0  0
   -0.6881    0.1165   -1.3702 C   0  0  0  0  0  0  0  0  0  0  0  0
    0.6876   -0.1139   -1.3704 C   0  0  0  0  0  0  0  0  0  0  0  0
   -0.6878    0.1147    1.0459 C   0  0  0  0  0  0  0  0  0  0  0  0
    0.6880   -0.1156    1.0457 C   0  0  0  0  0  0  0  0  0  0  0  0
   -3.2621    1.7643    0.5608 C   0  0  0  0  0  0  0  0  0  0  0  0
    3.2610   -1.7654    0.5591 C   0  0  0  0  0  0  0  0  0  0  0  0
  1  3  2  0
  2  4  2  0
  3  7  1  0
  4  8  1  0
  5  7  1  0
  5  9  2  0
  5 11  1  0
  6  8  1  0
  6 10  2  0
  6 12  1  0
  7 13  1  0
  8 14  1  0
  9 10  1  0
 11 12  2  0
M  END
>  <PUBCHEM_COMPOUND_CID>  (1) 
2420

>  <PUBCHEM_CONFORMER_RMSD>  (1) 
0.6

>  <PUBCHEM_CONFORMER_DIVERSEORDER>  (1) 
1
34
22
24
17
21
23
2
20
11
4
3
28
29
26
27
25
8
7
5
36
19
12
38
33
40
13
10
30
15
41
18
35
6
31
37
39
9
16
14
32

>  <PUBCHEM_MMFF94_PARTIAL_CHARGES>  (1) 
16
1 -0.16
10 -0.15
11 -0.15
12 -0.15
17 0.15
18 0.15
19 0.15
2 -0.16
20 0.15
3 -0.17
4 -0.17
5 -0.14
6 -0.14
7 0.48
8 0.48
9 -0.15

>  <PUBCHEM_EFFECTIVE_ROTOR_COUNT>  (1) 
4

>  <PUBCHEM_PHARMACOPHORE_FEATURES>  (1) 
1
6 5 6 9 10 11 12 rings

>  <PUBCHEM_HEAVY_ATOM_COUNT>  (1) 
14

>  <PUBCHEM_ATOM_DEF_STEREO_COUNT>  (1) 
0

>  <PUBCHEM_ATOM_UDEF_STEREO_COUNT>  (1) 
2

>  <PUBCHEM_BOND_DEF_STEREO_COUNT>  (1) 
0

>  <PUBCHEM_BOND_UDEF_STEREO_COUNT>  (1) 
0

>  <PUBCHEM_ISOTOPIC_ATOM_COUNT>  (1) 
0

>  <PUBCHEM_COMPONENT_COUNT>  (1) 
1

>  <PUBCHEM_CACTVS_TAUTO_COUNT>  (1) 
3

>  <PUBCHEM_CONFORMER_ID>  (1) 
0000097400000001

>  <PUBCHEM_MMFF94_ENERGY>  (1) 
28.1102

>  <PUBCHEM_FEATURE_SELFOVERLAP>  (1) 
5.074

>  <PUBCHEM_SHAPE_FINGERPRINT>  (1) 
11132069 177 16660364783282886547
11401426 45 15936401273659456495
11769659 78 18334571300617898635
11806522 49 17895194467105105563
124424 183 17773587231253278217
12932764 1 17459185188151804802
13581323 91 18272647961166611959
13675066 3 17488732373058166938
13760787 19 18271808995008057247
13760787 5 16128375947828927388
14289901 80 18410856568229724587
17844478 74 17346601867947418033
18186145 218 18261675857339292124
18522853 295 15770057207744898622
19026448 4 18410856525280051332
19026448 5 18410575050303340664
19422 9 18411698746907940634
200 152 17385718123803280367
20279233 1 15719111357371617217
20645476 183 17703503376667318252
21256008 23 15698005158293504395
22485316 2 18407755932945078999
23402539 116 18040426698611863405
23402655 69 15141501607845786863
23493267 7 17632021849038607651
23557571 272 18130799940477112093
23559900 14 17701264616221869462
2748010 2 15359417192254299641
3286 77 18187640250821388162
581208 293 17312823766814322266
69090 78 17822007627206894258
81228 2 15213852676064958548

>  <PUBCHEM_SHAPE_MULTIPOLES>  (1) 
266.41
7.56
1.31
1.14
0
0
0.19
0
-0.62
0
-0.18
0
0
-0.51

>  <PUBCHEM_SHAPE_SELFOVERLAP>  (1) 
541.737

>  <PUBCHEM_SHAPE_VOLUME>  (1) 
155

>  <PUBCHEM_COORDINATE_TYPE>  (1) 
2
5
10

$$$$
