24219
     RDKit          3D

  9  8  0  0  0  0  0  0  0  0999 V2000
    0.5215    1.6935    1.1144 O   0  0  0  0  0  0  0  0  0  0  0  0
   -2.8953   -1.5358    0.2055 O   0  0  0  0  0  0  0  0  0  0  0  0
    2.8928   -1.5162   -0.2620 O   0  0  0  0  0  0  0  0  0  0  0  0
   -0.0018    0.9291    0.0187 C   0  0  0  0  0  0  0  0  0  0  0  0
   -1.1536    0.0645    0.5687 C   0  0  0  0  0  0  0  0  0  0  0  0
    1.1665    0.1163   -0.5725 C   0  0  0  0  0  0  0  0  0  0  0  0
   -0.5072    1.9305   -1.0277 C   0  0  0  0  0  0  0  0  0  0  0  0
   -1.8489   -0.8291   -0.4508 C   0  0  0  0  0  0  0  0  0  0  0  0
    1.8260   -0.8527    0.4057 C   0  0  0  0  0  0  0  0  0  0  0  0
  1  4  1  0
  2  8  1  0
  3  9  1  0
  4  5  1  0
  4  6  1  0
  4  7  1  0
  5  8  1  0
  6  9  1  0
M  END
>  <PUBCHEM_COMPOUND_CID>  (1) 
24219

>  <PUBCHEM_CONFORMER_RMSD>  (1) 
0.6

>  <PUBCHEM_CONFORMER_DIVERSEORDER>  (1) 
1
26
14
17
12
23
22
29
5
20
6
11
28
19
15
16
21
7
2
27
25
4
30
3
8
10
13
24
31
9
18

>  <PUBCHEM_MMFF94_PARTIAL_CHARGES>  (1) 
9
1 -0.68
2 -0.68
21 0.4
22 0.4
23 0.4
3 -0.68
4 0.28
8 0.28
9 0.28

>  <PUBCHEM_EFFECTIVE_ROTOR_COUNT>  (1) 
4

>  <PUBCHEM_PHARMACOPHORE_FEATURES>  (1) 
6
1 1 acceptor
1 1 donor
1 2 acceptor
1 2 donor
1 3 acceptor
1 3 donor

>  <PUBCHEM_HEAVY_ATOM_COUNT>  (1) 
9

>  <PUBCHEM_ATOM_DEF_STEREO_COUNT>  (1) 
0

>  <PUBCHEM_ATOM_UDEF_STEREO_COUNT>  (1) 
0

>  <PUBCHEM_BOND_DEF_STEREO_COUNT>  (1) 
0

>  <PUBCHEM_BOND_UDEF_STEREO_COUNT>  (1) 
0

>  <PUBCHEM_ISOTOPIC_ATOM_COUNT>  (1) 
0

>  <PUBCHEM_COMPONENT_COUNT>  (1) 
1

>  <PUBCHEM_CACTVS_TAUTO_COUNT>  (1) 
1

>  <PUBCHEM_CONFORMER_ID>  (1) 
00005E9B00000001

>  <PUBCHEM_MMFF94_ENERGY>  (1) 
16.2046

>  <PUBCHEM_FEATURE_SELFOVERLAP>  (1) 
30.448

>  <PUBCHEM_SHAPE_FINGERPRINT>  (1) 
14128692 85 18334585637302817006
20653091 64 18196103350369874531
20711978 78 18057587949059998053
20711985 344 18116418263744618545
21040471 1 16897929960143213677
23552333 60 17700991086907873251
23552423 10 18113903736470599982
23552449 11 17987236805842877315
29004967 10 18117272760367797873

>  <PUBCHEM_SHAPE_MULTIPOLES>  (1) 
167.61
3.27
1.98
0.95
0.32
0.5
0.06
-2.9
-0.19
-0.28
-0.16
0.01
0.36
0.24

>  <PUBCHEM_SHAPE_SELFOVERLAP>  (1) 
304.467

>  <PUBCHEM_SHAPE_VOLUME>  (1) 
108

>  <PUBCHEM_COORDINATE_TYPE>  (1) 
2
5
10

$$$$
