24211
     RDKit          3D

 25 27  0  0  1  0  0  0  0  0999 V2000
   -0.6568   -1.7550    0.3878 O   0  0  0  0  0  0  0  0  0  0  0  0
    1.8243    1.7958   -0.6997 O   0  0  0  0  0  0  0  0  0  0  0  0
   -0.5521    2.9376    0.3577 O   0  0  0  0  0  0  0  0  0  0  0  0
    4.0451   -2.3618    0.0274 O   0  0  0  0  0  0  0  0  0  0  0  0
   -4.6893    0.7188   -0.5955 O   0  0  0  0  0  0  0  0  0  0  0  0
   -4.7267   -1.8984    0.0112 O   0  0  0  0  0  0  0  0  0  0  0  0
    5.2823   -0.1228   -1.1303 O   0  0  0  0  0  0  0  0  0  0  0  0
    0.7350    0.1765    0.7413 C   0  0  0  0  0  0  0  0  0  0  0  0
   -0.6599    0.5509    0.3403 C   0  0  0  0  0  0  0  0  0  0  0  0
    0.6593   -1.3206    0.5265 C   0  0  0  0  0  0  0  0  0  0  0  0
   -1.4160   -0.6202    0.2000 C   0  0  0  0  0  0  0  0  0  0  0  0
    1.8697    0.7095   -0.1269 C   0  0  0  0  0  0  0  0  0  0  0  0
    0.9933    0.5277    2.2119 C   0  0  0  0  0  0  0  0  0  0  0  0
   -1.2549    1.7888    0.1785 C   0  0  0  0  0  0  0  0  0  0  0  0
   -2.7596   -0.6025   -0.1109 C   0  0  0  0  0  0  0  0  0  0  0  0
    1.7214   -2.0782    0.2310 C   0  0  0  0  0  0  0  0  0  0  0  0
    3.1290   -0.1245   -0.1974 C   0  0  0  0  0  0  0  0  0  0  0  0
   -2.6155    1.8298   -0.1422 C   0  0  0  0  0  0  0  0  0  0  0  0
    3.0144   -1.4501    0.0404 C   0  0  0  0  0  0  0  0  0  0  0  0
   -3.3608    0.6450   -0.2848 C   0  0  0  0  0  0  0  0  0  0  0  0
   -3.5102   -1.8406   -0.2556 C   0  0  0  0  0  0  0  0  0  0  0  0
    4.4138    0.5078   -0.5281 C   0  0  0  0  0  0  0  0  0  0  0  0
   -3.2912    3.1529   -0.3254 C   0  0  0  0  0  0  0  0  0  0  0  0
   -2.8152   -3.1074   -0.7418 C   0  0  0  0  0  0  0  0  0  0  0  0
    4.6206    1.9409   -0.1155 C   0  0  0  0  0  0  0  0  0  0  0  0
  1 10  1  0
  1 11  1  0
  2 12  2  0
  3 14  1  0
  4 19  1  0
  5 20  1  0
  6 21  2  0
  7 22  2  0
  8  9  1  0
  8 10  1  0
  8 12  1  0
  8 13  1  0
  9 11  2  0
  9 14  1  0
 10 16  2  0
 11 15  1  0
 12 17  1  0
 14 18  2  0
 15 20  2  0
 15 21  1  0
 16 19  1  0
 17 19  2  0
 17 22  1  0
 18 20  1  0
 18 23  1  0
 21 24  1  0
 22 25  1  0
M  END
>  <PUBCHEM_COMPOUND_CID>  (1) 
24211

>  <PUBCHEM_CONFORMER_RMSD>  (1) 
0.6

>  <PUBCHEM_CONFORMER_DIVERSEORDER>  (1) 
1
8
6
7
2
5
3
4

>  <PUBCHEM_MMFF94_PARTIAL_CHARGES>  (1) 
28
1 -0.16
10 -0.06
11 0.08
12 0.49
14 0.08
15 0.09
16 -0.15
17 0.03
18 -0.14
19 0.08
2 -0.57
20 0.08
21 0.42
22 0.49
23 0.14
24 0.06
25 0.06
29 0.15
3 -0.53
33 0.45
34 0.45
38 0.45
4 -0.53
5 -0.53
6 -0.57
7 -0.57
8 0.34
9 -0.14

>  <PUBCHEM_EFFECTIVE_ROTOR_COUNT>  (1) 
2.2

>  <PUBCHEM_PHARMACOPHORE_FEATURES>  (1) 
11
1 1 acceptor
1 17 anion
1 2 acceptor
1 3 donor
1 4 donor
1 5 donor
1 6 acceptor
1 7 acceptor
5 1 8 9 10 11 rings
6 8 10 12 16 17 19 rings
6 9 11 14 15 18 20 rings

>  <PUBCHEM_HEAVY_ATOM_COUNT>  (1) 
25

>  <PUBCHEM_ATOM_DEF_STEREO_COUNT>  (1) 
0

>  <PUBCHEM_ATOM_UDEF_STEREO_COUNT>  (1) 
1

>  <PUBCHEM_BOND_DEF_STEREO_COUNT>  (1) 
0

>  <PUBCHEM_BOND_UDEF_STEREO_COUNT>  (1) 
0

>  <PUBCHEM_ISOTOPIC_ATOM_COUNT>  (1) 
0

>  <PUBCHEM_COMPONENT_COUNT>  (1) 
1

>  <PUBCHEM_CACTVS_TAUTO_COUNT>  (1) 
147

>  <PUBCHEM_CONFORMER_ID>  (1) 
00005E9300000001

>  <PUBCHEM_MMFF94_ENERGY>  (1) 
83.7856

>  <PUBCHEM_FEATURE_SELFOVERLAP>  (1) 
56.026

>  <PUBCHEM_SHAPE_FINGERPRINT>  (1) 
10369192 42 16553941043255694456
10498660 4 18335697239068488741
10616163 171 18412265042746627551
10756046 5 18337956679908444942
10863032 1 18410855421795339548
10967382 1 18266455417358482467
11578080 2 17774708866257889177
12054548 360 18342452677201036979
12403260 363 18334855061213406440
12553582 1 18194670682867585211
12670546 177 18343306955049916326
12788726 201 18334852840119261587
13140716 1 18337389323075816363
13224815 77 18413103982966222490
14790565 3 18052825750038025537
15196674 1 18409167696984482966
16945 1 18124599673737133266
17349148 13 18040433326221232608
17492 89 18410013208668746826
19591789 44 17762056936101336683
20691752 17 17095525046260108154
20775438 99 17049307277251545415
20871999 31 18409444791489982767
21267235 1 18337680697883935867
221357 26 18412543240895224463
221490 88 18409453578793039138
22182313 1 18127668591332324161
22393880 68 18411987927757457710
23227448 37 18337954476268514549
23352939 185 18128827510937130625
23402539 116 18336542806828985316
23557571 272 18272661159469094430
23559900 14 18199743644966035674
2748010 2 18269815623814266483
335352 9 18049441448329414156
350125 39 18411985728729037609
474 4 17386018260281120900
5104073 3 18336265656562504592
633830 44 16951139369649625160
67856867 119 18335413557322301602
9709674 26 18409175419731579850
9981440 41 17755309212300355608

>  <PUBCHEM_SHAPE_MULTIPOLES>  (1) 
473.4
9.08
3.27
0.97
3.58
0.17
0.4
-0.45
-2.83
-2.22
-0.37
0.42
0.09
-0.25

>  <PUBCHEM_SHAPE_SELFOVERLAP>  (1) 
1055.44

>  <PUBCHEM_SHAPE_VOLUME>  (1) 
253.7

>  <PUBCHEM_COORDINATE_TYPE>  (1) 
2
5
10

$$$$
