24225
     RDKit          3D

 15 16  0  0  1  0  0  0  0  0999 V2000
    2.0322    2.2762   -0.4994 S   0  0  0  0  0  0  0  0  0  0  0  0
   -1.9472    1.4777    1.3391 O   0  0  0  0  0  0  0  0  0  0  0  0
   -3.5396   -0.3595   -0.2052 N   0  0  0  0  0  0  0  0  0  0  0  0
   -1.3186    0.4095    0.6137 C   0  0  0  0  0  0  0  0  0  0  0  0
    0.0532    0.8225    0.2238 C   0  0  0  0  0  0  0  0  0  0  0  0
   -2.1922    0.0401   -0.6048 C   0  0  0  0  0  0  0  0  0  0  0  0
    1.1695   -0.0759    0.1402 C   0  0  0  0  0  0  0  0  0  0  0  0
    2.3317    0.5964   -0.2507 C   0  0  0  0  0  0  0  0  0  0  0  0
    0.3838    2.1181   -0.0953 C   0  0  0  0  0  0  0  0  0  0  0  0
    1.2517   -1.4680    0.3845 C   0  0  0  0  0  0  0  0  0  0  0  0
   -3.4894   -1.5403    0.6569 C   0  0  0  0  0  0  0  0  0  0  0  0
   -4.3667   -0.6226   -1.3829 C   0  0  0  0  0  0  0  0  0  0  0  0
    3.5581   -0.0798   -0.4019 C   0  0  0  0  0  0  0  0  0  0  0  0
    2.4669   -2.1416    0.2359 C   0  0  0  0  0  0  0  0  0  0  0  0
    3.6067   -1.4529   -0.1538 C   0  0  0  0  0  0  0  0  0  0  0  0
  1  8  1  0
  1  9  1  0
  2  4  1  0
  3  6  1  0
  3 11  1  0
  3 12  1  0
  4  5  1  0
  4  6  1  0
  5  7  1  0
  5  9  2  0
  7  8  2  0
  7 10  1  0
  8 13  1  0
 10 14  2  0
 13 15  2  0
 14 15  1  0
M  END
>  <PUBCHEM_COMPOUND_CID>  (1) 
24225

>  <PUBCHEM_CONFORMER_RMSD>  (1) 
0.6

>  <PUBCHEM_CONFORMER_DIVERSEORDER>  (1) 
5
4
11
2
10
9
6
8
3
1
12
7

>  <PUBCHEM_MMFF94_PARTIAL_CHARGES>  (1) 
20
1 -0.08
10 -0.15
11 0.27
12 0.27
13 -0.15
14 -0.15
15 -0.15
19 0.15
2 -0.68
20 0.15
27 0.15
28 0.4
29 0.15
3 -0.81
30 0.15
4 0.46
5 -0.18
6 0.27
8 0.04
9 -0.11

>  <PUBCHEM_EFFECTIVE_ROTOR_COUNT>  (1) 
3

>  <PUBCHEM_PHARMACOPHORE_FEATURES>  (1) 
5
1 2 acceptor
1 2 donor
1 3 cation
5 1 5 7 8 9 rings
6 7 8 10 13 14 15 rings

>  <PUBCHEM_HEAVY_ATOM_COUNT>  (1) 
15

>  <PUBCHEM_ATOM_DEF_STEREO_COUNT>  (1) 
0

>  <PUBCHEM_ATOM_UDEF_STEREO_COUNT>  (1) 
1

>  <PUBCHEM_BOND_DEF_STEREO_COUNT>  (1) 
0

>  <PUBCHEM_BOND_UDEF_STEREO_COUNT>  (1) 
0

>  <PUBCHEM_ISOTOPIC_ATOM_COUNT>  (1) 
0

>  <PUBCHEM_COMPONENT_COUNT>  (1) 
1

>  <PUBCHEM_CACTVS_TAUTO_COUNT>  (1) 
1

>  <PUBCHEM_CONFORMER_ID>  (1) 
00005EA100000005

>  <PUBCHEM_MMFF94_ENERGY>  (1) 
34.0503

>  <PUBCHEM_FEATURE_SELFOVERLAP>  (1) 
25.431

>  <PUBCHEM_SHAPE_FINGERPRINT>  (1) 
11471102 20 18336260227681650228
11578080 2 17844785075855342713
11769659 78 18272649013201373800
11806522 49 18341891909396879096
12553582 1 18191031092725273138
13705890 14 18187082883787102146
14251717 144 18408884061834232406
14576447 43 18341327864005576350
14787075 74 17702375337962110600
15375462 189 18058734735851743523
15477762 27 18409447003097557334
15757776 16 18408600340647856022
16945 1 18261405425040211984
18186145 218 17676200286788829785
19422 9 18200882777128929966
200 152 18343298171868091463
20201158 50 18260829301921044443
20645477 70 18337947987005570287
20671657 53 18409448059538108455
21501925 9 18412537709051024864
21634736 98 18340490062025797542
22112679 90 17845392010441806225
221490 88 18189625006178966698
2255824 54 18338524143936005852
23402539 116 18263363586672339514
23402655 69 18335419054120876247
23559900 14 18335977657646735968
23598291 2 18271262537660831644
2748010 2 17975134241317923732
2838139 119 15430898651464831886
2871803 45 18335417941729906974
3323516 105 18187367683353655027
57096353 35 18410023130242732188
603831 33 18130790117628333069
6338986 31 18118109274052670754
7364860 26 18342173427260264616
77492 1 17988373636452187281

>  <PUBCHEM_SHAPE_MULTIPOLES>  (1) 
301.69
7.09
2.33
0.96
5.48
0.34
0.03
-3.22
1.82
-1.59
-0.15
0.83
0.07
-0.37

>  <PUBCHEM_SHAPE_SELFOVERLAP>  (1) 
623.33

>  <PUBCHEM_SHAPE_VOLUME>  (1) 
176.3

>  <PUBCHEM_COORDINATE_TYPE>  (1) 
2
5
10

$$$$
