24220
     RDKit          3D

 17 17  0  0  1  0  0  0  0  0999 V2000
   -2.1430   -0.3616    0.4563 O   0  0  0  0  0  0  0  0  0  0  0  0
   -1.8489   -3.1987    0.8269 O   0  0  0  0  0  0  0  0  0  0  0  0
    4.5731   -0.0397    0.1687 O   0  0  0  0  0  0  0  0  0  0  0  0
    1.1885   -1.4049   -0.3073 N   0  0  0  0  0  0  0  0  0  0  0  0
   -1.0524   -2.4695   -0.1112 C   0  0  0  0  0  0  0  0  0  0  0  0
   -1.8681   -1.2640   -0.6126 C   0  0  0  0  0  0  0  0  0  0  0  0
    0.2741   -2.1165    0.5750 C   0  0  0  0  0  0  0  0  0  0  0  0
   -3.2065   -1.6804   -1.2135 C   0  0  0  0  0  0  0  0  0  0  0  0
    2.4413   -1.1051    0.3728 C   0  0  0  0  0  0  0  0  0  0  0  0
    3.3739   -0.3245   -0.5395 C   0  0  0  0  0  0  0  0  0  0  0  0
   -1.6777    0.9176    0.3147 C   0  0  0  0  0  0  0  0  0  0  0  0
   -2.1070    1.6931   -0.7576 C   0  0  0  0  0  0  0  0  0  0  0  0
   -0.7791    1.4315    1.2440 C   0  0  0  0  0  0  0  0  0  0  0  0
   -1.6320    2.9966   -0.9023 C   0  0  0  0  0  0  0  0  0  0  0  0
   -0.3045    2.7351    1.0992 C   0  0  0  0  0  0  0  0  0  0  0  0
   -0.7310    3.5176    0.0260 C   0  0  0  0  0  0  0  0  0  0  0  0
    5.4992    0.6734   -0.6396 C   0  0  0  0  0  0  0  0  0  0  0  0
  1  6  1  0
  1 11  1  0
  2  5  1  0
  3 10  1  0
  3 17  1  0
  4  7  1  0
  4  9  1  0
  5  6  1  0
  5  7  1  0
  6  8  1  0
  9 10  1  0
 11 12  2  0
 11 13  1  0
 12 14  1  0
 13 15  2  0
 14 16  2  0
 15 16  1  0
M  END
>  <PUBCHEM_COMPOUND_CID>  (1) 
24220

>  <PUBCHEM_CONFORMER_RMSD>  (1) 
0.8

>  <PUBCHEM_CONFORMER_DIVERSEORDER>  (1) 
1
47
245
90
76
363
436
122
460
163
136
391
42
298
9
299
384
328
23
303
27
426
359
233
464
84
156
325
402
465
39
202
161
117
112
44
461
82
389
158
77
179
197
93
390
123
135
129
222
412
254
15
277
176
248
172
300
264
262
446
458
239
194
72
175
3
368
281
2
430
424
329
75
79
6
324
153
178
166
146
301
51
401
414
205
361
106
189
260
119
149
227
383
333
279
154
350
435
59
145
116
12
204
346
344
66
215
187
431
231
342
285
255
307
443
394
415
372
226
422
126
393
318
291
459
280
137
164
251
290
97
181
40
304
49
214
25
109
48
240
297
420
62
441
256
45
309
288
11
358
207
217
56
192
70
294
199
17
247
64
341
110
442
210
85
400
216
170
339
463
456
403
160
103
162
331
177
404
118
434
287
114
168
244
213
421
409
317
406
444
120
347
332
273
450
289
124
35
20
386
229
321
429
343
101
376
29
115
127
53
417
50
151
283
369
155
63
26
144
234
334
148
173
209
30
263
167
69
165
128
113
302
362
452
371
60
416
152
427
65
238
88
191
8
337
31
348
399
183
380
139
261
310
186
295
357
91
237
319
37
22
230
377
370
4
249
86
349
398
355
71
312
392
322
150
195
33
188
428
142
211
7
99
174
80
360
236
423
193
410
190
270
67
381
449
221
19
387
314
457
292
338
68
55
440
296
340
147
330
102
87
182
208
133
308
419
203
374
448
259
41
18
185
408
138
253
311
130
94
232
335
252
21
157
108
223
52
315
437
43
447
81
356
46
92
284
413
373
206
313
257
425
132
61
28
306
219
95
184
364
201
24
242
379
323
36
271
382
54
366
336
269
286
268
131
225
14
451
418
316
327
278
258
100
73
143
375
111
378
367
141
462
282
220
396
320
125
272
438
16
107
171
140
354
134
326
212
169
275
274
246
74
98
397
454
224
453
411
89
241
218
439
352
265
243
395
388
83
196
57
198
293
58
266
445
10
345
34
228
5
351
13
267
353
250
433
32
105
96
385
305
365
432
276
455
200
407
180
38
78
121
405
159
104
235

>  <PUBCHEM_MMFF94_PARTIAL_CHARGES>  (1) 
23
1 -0.36
10 0.28
11 0.08
12 -0.15
13 -0.15
14 -0.15
15 -0.15
16 -0.15
17 0.28
2 -0.68
22 0.36
28 0.4
3 -0.56
31 0.15
32 0.15
33 0.15
34 0.15
35 0.15
4 -0.9
5 0.28
6 0.28
7 0.27
9 0.27

>  <PUBCHEM_EFFECTIVE_ROTOR_COUNT>  (1) 
8

>  <PUBCHEM_PHARMACOPHORE_FEATURES>  (1) 
7
1 1 acceptor
1 2 acceptor
1 2 donor
1 3 acceptor
1 4 cation
1 4 donor
6 11 12 13 14 15 16 rings

>  <PUBCHEM_HEAVY_ATOM_COUNT>  (1) 
17

>  <PUBCHEM_ATOM_DEF_STEREO_COUNT>  (1) 
0

>  <PUBCHEM_ATOM_UDEF_STEREO_COUNT>  (1) 
2

>  <PUBCHEM_BOND_DEF_STEREO_COUNT>  (1) 
0

>  <PUBCHEM_BOND_UDEF_STEREO_COUNT>  (1) 
0

>  <PUBCHEM_ISOTOPIC_ATOM_COUNT>  (1) 
0

>  <PUBCHEM_COMPONENT_COUNT>  (1) 
1

>  <PUBCHEM_CACTVS_TAUTO_COUNT>  (1) 
1

>  <PUBCHEM_CONFORMER_ID>  (1) 
00005E9C00000001

>  <PUBCHEM_MMFF94_ENERGY>  (1) 
40.9706

>  <PUBCHEM_FEATURE_SELFOVERLAP>  (1) 
35.524

>  <PUBCHEM_SHAPE_FINGERPRINT>  (1) 
10670039 82 18192731123398336900
10871710 139 18409169891644264669
11680986 33 17834668680063847323
13027679 85 18340486780702288781
14123250 116 17843971329992221576
14142880 1 18059029314494125979
14790565 3 18197779895529611401
17492 54 18267562651606554173
20510252 161 18411420570524291402
20671657 1 17544477449029538966
20871999 31 18341040865695453229
21524375 3 17762062034206645339
21623110 236 18126293179928099872
21639500 275 16822768943154581757
2306618 200 17822283608999606726
23419403 2 17273107280641437089
23557571 272 18201447986488356918
23590187 85 18411423886571112886
526903 126 18268989778480380496
81228 2 18342187660491752819

>  <PUBCHEM_SHAPE_MULTIPOLES>  (1) 
327.26
6.6
4.37
1.1
14.16
1.31
0.03
0.04
-2.23
-3.65
0.33
-0.41
0.19
-0.24

>  <PUBCHEM_SHAPE_SELFOVERLAP>  (1) 
646.205

>  <PUBCHEM_SHAPE_VOLUME>  (1) 
196.3

>  <PUBCHEM_COORDINATE_TYPE>  (1) 
2
5
10

$$$$
