24221
     RDKit          3D

 18 18  0  0  1  0  0  0  0  0999 V2000
   -2.2084   -0.6868   -0.2623 O   0  0  0  0  0  0  0  0  0  0  0  0
   -3.6193    1.8164   -0.3879 O   0  0  0  0  0  0  0  0  0  0  0  0
    4.0931    0.9970    0.7578 O   0  0  0  0  0  0  0  0  0  0  0  0
    0.0574    2.0642   -0.0020 N   0  0  0  0  0  0  0  0  0  0  0  0
   -2.3806    1.6781    0.3139 C   0  0  0  0  0  0  0  0  0  0  0  0
   -2.2681    0.2311    0.8271 C   0  0  0  0  0  0  0  0  0  0  0  0
   -1.2552    2.1225   -0.6301 C   0  0  0  0  0  0  0  0  0  0  0  0
    1.0954    2.5110   -0.9212 C   0  0  0  0  0  0  0  0  0  0  0  0
   -3.4557   -0.1690    1.6961 C   0  0  0  0  0  0  0  0  0  0  0  0
    2.4642    2.4331   -0.2525 C   0  0  0  0  0  0  0  0  0  0  0  0
    2.8057    1.0067    0.1565 C   0  0  0  0  0  0  0  0  0  0  0  0
   -1.0951   -1.4791   -0.3369 C   0  0  0  0  0  0  0  0  0  0  0  0
   -0.7921   -2.3438    0.7098 C   0  0  0  0  0  0  0  0  0  0  0  0
   -0.2755   -1.4127   -1.4589 C   0  0  0  0  0  0  0  0  0  0  0  0
    0.3431   -3.1508    0.6339 C   0  0  0  0  0  0  0  0  0  0  0  0
    0.8597   -2.2199   -1.5349 C   0  0  0  0  0  0  0  0  0  0  0  0
    1.1689   -3.0889   -0.4884 C   0  0  0  0  0  0  0  0  0  0  0  0
    4.4623   -0.3090    1.1800 C   0  0  0  0  0  0  0  0  0  0  0  0
  1  6  1  0
  1 12  1  0
  2  5  1  0
  3 11  1  0
  3 18  1  0
  4  7  1  0
  4  8  1  0
  5  6  1  0
  5  7  1  0
  6  9  1  0
  8 10  1  0
 10 11  1  0
 12 13  2  0
 12 14  1  0
 13 15  1  0
 14 16  2  0
 15 17  2  0
 16 17  1  0
M  END
>  <PUBCHEM_COMPOUND_CID>  (1) 
24221

>  <PUBCHEM_CONFORMER_RMSD>  (1) 
1

>  <PUBCHEM_CONFORMER_DIVERSEORDER>  (1) 
1
125
212
191
46
114
231
157
141
50
228
105
3
243
86
17
220
76
67
205
145
45
130
210
79
106
136
185
178
230
77
188
237
57
260
162
25
40
35
206
127
122
172
29
232
242
48
37
175
101
176
126
181
222
215
192
12
137
74
120
51
6
148
147
54
250
158
109
104
211
43
140
68
142
196
161
167
150
13
164
219
197
8
38
138
44
63
7
246
75
96
235
102
258
202
41
171
124
87
155
103
182
22
89
58
253
36
78
88
73
111
18
244
135
189
226
186
61
34
247
169
15
14
16
214
80
11
251
31
116
180
84
225
233
213
208
47
24
207
223
238
179
64
194
32
153
52
200
27
154
201
183
113
92
239
204
69
53
121
190
39
177
234
195
112
159
115
252
173
259
245
119
199
118
144
42
209
49
30
227
85
20
187
5
94
83
241
98
256
133
90
132
117
4
160
170
55
93
21
81
66
229
224
100
143
60
139
168
2
216
156
62
123
128
240
149
152
184
163
134
10
129
255
56
71
72
174
108
23
193
33
146
95
203
65
166
221
198
107
165
131
26
19
236
70
249
151
97
110
59
28
257
248
217
218
254
9
91
99
82

>  <PUBCHEM_MMFF94_PARTIAL_CHARGES>  (1) 
23
1 -0.36
11 0.28
12 0.08
13 -0.15
14 -0.15
15 -0.15
16 -0.15
17 -0.15
18 0.28
2 -0.68
23 0.36
3 -0.56
33 0.4
34 0.15
35 0.15
36 0.15
37 0.15
38 0.15
4 -0.9
5 0.28
6 0.28
7 0.27
8 0.27

>  <PUBCHEM_EFFECTIVE_ROTOR_COUNT>  (1) 
9

>  <PUBCHEM_PHARMACOPHORE_FEATURES>  (1) 
7
1 1 acceptor
1 2 acceptor
1 2 donor
1 3 acceptor
1 4 cation
1 4 donor
6 12 13 14 15 16 17 rings

>  <PUBCHEM_HEAVY_ATOM_COUNT>  (1) 
18

>  <PUBCHEM_ATOM_DEF_STEREO_COUNT>  (1) 
0

>  <PUBCHEM_ATOM_UDEF_STEREO_COUNT>  (1) 
2

>  <PUBCHEM_BOND_DEF_STEREO_COUNT>  (1) 
0

>  <PUBCHEM_BOND_UDEF_STEREO_COUNT>  (1) 
0

>  <PUBCHEM_ISOTOPIC_ATOM_COUNT>  (1) 
0

>  <PUBCHEM_COMPONENT_COUNT>  (1) 
1

>  <PUBCHEM_CACTVS_TAUTO_COUNT>  (1) 
1

>  <PUBCHEM_CONFORMER_ID>  (1) 
00005E9D00000001

>  <PUBCHEM_MMFF94_ENERGY>  (1) 
40.1771

>  <PUBCHEM_FEATURE_SELFOVERLAP>  (1) 
35.524

>  <PUBCHEM_SHAPE_FINGERPRINT>  (1) 
11321824 6 17623858232873859710
12035759 4 18057011758202412831
12553582 1 16825876772815272812
12592029 89 18410299103498387281
1420 336 18049718817755239346
14251711 518 16756916503169920636
14251757 5 18266477549905350820
15006816 218 18339080372065070764
16110190 28 18336258016760151088
20905425 154 17835806296451089020
21524375 3 18272653497189851107
21731228 192 18342180006986320048
22445834 79 14164552991540820215
23419403 2 17175161419049990269
23728640 28 18197493137452164370
2748010 2 18193010218150255445
465052 167 17680165237624987505
539174 4 17842308906680264009
57583515 115 18409726258061583064
81228 2 17479450592138267329
90525 40 18337673113045563564

>  <PUBCHEM_SHAPE_MULTIPOLES>  (1) 
347.84
5.82
4.23
1.35
3.45
1.37
0
-3.16
-3.06
0.88
0.87
-0.04
0.47
0.24

>  <PUBCHEM_SHAPE_SELFOVERLAP>  (1) 
684.965

>  <PUBCHEM_SHAPE_VOLUME>  (1) 
208.9

>  <PUBCHEM_COORDINATE_TYPE>  (1) 
2
5
10

$$$$
