24227
     RDKit          3D

  4  3  0  0  0  0  0  0  0  0999 V2000
    2.3535   -0.0001    0.0000 Cl  0  0  0  0  0  0  0  0  0  0  0  0
   -2.3535   -0.0001    0.0000 Cl  0  0  0  0  0  0  0  0  0  0  0  0
    0.6000    0.0001   -0.0001 C   0  0  0  0  0  0  0  0  0  0  0  0
   -0.6000    0.0001    0.0001 C   0  0  0  0  0  0  0  0  0  0  0  0
  1  3  1  0
  2  4  1  0
  3  4  3  0
M  END
>  <PUBCHEM_COMPOUND_CID>  (1) 
24227

>  <PUBCHEM_CONFORMER_RMSD>  (1) 
0.4

>  <PUBCHEM_CONFORMER_DIVERSEORDER>  (1) 
1

>  <PUBCHEM_MMFF94_PARTIAL_CHARGES>  (1) 
4
1 -0.1
2 -0.1
3 0.1
4 0.1

>  <PUBCHEM_EFFECTIVE_ROTOR_COUNT>  (1) 
0

>  <PUBCHEM_PHARMACOPHORE_FEATURES>  (1) 
0

>  <PUBCHEM_HEAVY_ATOM_COUNT>  (1) 
4

>  <PUBCHEM_ATOM_DEF_STEREO_COUNT>  (1) 
0

>  <PUBCHEM_ATOM_UDEF_STEREO_COUNT>  (1) 
0

>  <PUBCHEM_BOND_DEF_STEREO_COUNT>  (1) 
0

>  <PUBCHEM_BOND_UDEF_STEREO_COUNT>  (1) 
0

>  <PUBCHEM_ISOTOPIC_ATOM_COUNT>  (1) 
0

>  <PUBCHEM_COMPONENT_COUNT>  (1) 
1

>  <PUBCHEM_CACTVS_TAUTO_COUNT>  (1) 
1

>  <PUBCHEM_CONFORMER_ID>  (1) 
00005EA300000001

>  <PUBCHEM_MMFF94_ENERGY>  (1) 
-0.1751

>  <PUBCHEM_FEATURE_SELFOVERLAP>  (1) 
0

>  <PUBCHEM_SHAPE_FINGERPRINT>  (1) 
139733 1 8862942775126045097
20096714 4 18340205292708774912
5460574 1 8862944978444222466

>  <PUBCHEM_SHAPE_MULTIPOLES>  (1) 
86.06
3.7
0.64
0.64
0
0
0
0
0
0
0
0
0
0

>  <PUBCHEM_SHAPE_SELFOVERLAP>  (1) 
131.16

>  <PUBCHEM_SHAPE_VOLUME>  (1) 
62.4

>  <PUBCHEM_COORDINATE_TYPE>  (1) 
2
5
10

$$$$
