24235
     RDKit          3D

 18 18  0  0  0  0  0  0  0  0999 V2000
   -5.3849   -1.6150   -0.0959 F   0  0  0  0  0  0  0  0  0  0  0  0
    0.2206    0.9833   -0.6000 O   0  0  0  0  0  0  0  0  0  0  0  0
   -0.6058    2.3921    1.0223 O   0  0  0  0  0  0  0  0  0  0  0  0
    3.2732   -0.5246    0.0514 N   0  0  0  0  0  0  0  0  0  0  0  0
    2.6663   -0.4240   -1.2702 C   0  0  0  0  0  0  0  0  0  0  0  0
    2.3891    1.0356   -1.6158 C   0  0  0  0  0  0  0  0  0  0  0  0
    3.4880   -1.9264    0.4150 C   0  0  0  0  0  0  0  0  0  0  0  0
    4.5386    0.2105    0.0951 C   0  0  0  0  0  0  0  0  0  0  0  0
    1.4574    1.6829   -0.6002 C   0  0  0  0  0  0  0  0  0  0  0  0
    2.1865   -2.7093    0.3763 C   0  0  0  0  0  0  0  0  0  0  0  0
    5.1496    0.1696    1.4855 C   0  0  0  0  0  0  0  0  0  0  0  0
   -0.7278    1.4440    0.2623 C   0  0  0  0  0  0  0  0  0  0  0  0
   -1.9663    0.6307    0.1671 C   0  0  0  0  0  0  0  0  0  0  0  0
   -3.1804    1.2308    0.4306 C   0  0  0  0  0  0  0  0  0  0  0  0
   -1.8646   -0.7005   -0.1823 C   0  0  0  0  0  0  0  0  0  0  0  0
   -4.3438    0.4665    0.3411 C   0  0  0  0  0  0  0  0  0  0  0  0
   -3.0281   -1.4648   -0.2721 C   0  0  0  0  0  0  0  0  0  0  0  0
   -4.2677   -0.8813   -0.0103 C   0  0  0  0  0  0  0  0  0  0  0  0
  1 18  1  0
  2  9  1  0
  2 12  1  0
  3 12  2  0
  4  5  1  0
  4  7  1  0
  4  8  1  0
  5  6  1  0
  6  9  1  0
  7 10  1  0
  8 11  1  0
 12 13  1  0
 13 14  2  0
 13 15  1  0
 14 16  1  0
 15 17  2  0
 16 18  2  0
 17 18  1  0
M  END
>  <PUBCHEM_COMPOUND_CID>  (1) 
24235

>  <PUBCHEM_CONFORMER_RMSD>  (1) 
0.8

>  <PUBCHEM_CONFORMER_DIVERSEORDER>  (1) 
2
117
13
66
95
170
153
37
118
163
169
38
176
130
62
77
14
119
73
61
108
174
134
19
139
88
149
45
113
60
138
161
51
56
135
122
90
1
69
106
76
21
52
22
102
82
71
165
168
151
98
25
75
171
128
150
112
15
79
20
104
58
121
145
114
116
175
29
48
132
16
148
74
36
103
94
133
5
162
152
44
31
143
101
156
47
11
159
164
32
6
115
85
166
27
96
33
65
80
91
154
173
68
160
54
34
157
18
3
111
7
131
70
87
55
8
78
146
100
158
109
43
140
23
167
57
142
53
144
137
28
17
105
86
84
89
41
147
49
42
99
72
123
24
83
26
64
129
125
172
35
67
4
155
92
127
124
10
12
81
63
40
120
141
59
126
39
136
30
97
9
110
107
93
50
46

>  <PUBCHEM_MMFF94_PARTIAL_CHARGES>  (1) 
19
1 -0.19
12 0.63
13 0.09
14 -0.15
15 -0.15
16 -0.15
17 -0.15
18 0.19
2 -0.43
3 -0.57
35 0.15
36 0.15
37 0.15
38 0.15
4 -0.81
5 0.27
7 0.27
8 0.27
9 0.28

>  <PUBCHEM_EFFECTIVE_ROTOR_COUNT>  (1) 
8

>  <PUBCHEM_PHARMACOPHORE_FEATURES>  (1) 
3
1 3 acceptor
1 4 cation
6 13 14 15 16 17 18 rings

>  <PUBCHEM_HEAVY_ATOM_COUNT>  (1) 
18

>  <PUBCHEM_ATOM_DEF_STEREO_COUNT>  (1) 
0

>  <PUBCHEM_ATOM_UDEF_STEREO_COUNT>  (1) 
0

>  <PUBCHEM_BOND_DEF_STEREO_COUNT>  (1) 
0

>  <PUBCHEM_BOND_UDEF_STEREO_COUNT>  (1) 
0

>  <PUBCHEM_ISOTOPIC_ATOM_COUNT>  (1) 
0

>  <PUBCHEM_COMPONENT_COUNT>  (1) 
1

>  <PUBCHEM_CACTVS_TAUTO_COUNT>  (1) 
1

>  <PUBCHEM_CONFORMER_ID>  (1) 
00005EAB00000002

>  <PUBCHEM_MMFF94_ENERGY>  (1) 
34.3094

>  <PUBCHEM_FEATURE_SELFOVERLAP>  (1) 
15.223

>  <PUBCHEM_SHAPE_FINGERPRINT>  (1) 
10062212 137 18341897372933026327
10447042 23 18336535080008999982
11118852 30 18413389817651860342
12553582 1 18262255351380351556
12596602 18 17489311905637680179
13083527 12 18186515527846725220
14178342 30 18265613178793745816
14252887 29 17632307773807035524
14341114 328 18202559605834837576
14787075 74 18200868608427719344
14863182 85 18336555954056772622
15196674 1 18410575041755993754
15880784 105 17846501422095734802
17857418 61 18408882966939572103
1798214 20 18333732416147845911
18186145 218 14273459210176196261
20291156 8 18336267821321213294
20626108 58 17967523601834079880
20645477 70 17749115516722806028
21250096 35 18412544305893899025
21315763 178 18413670227597662831
21673915 165 18410853240041838378
2255824 54 18115602580910088532
23253445 4 17346877883546104280
23557571 272 18059862757261433770
23559900 14 17844547521129265700
251288 83 18201720648318880388
3004659 81 18261682540087034484
339767 52 18335972117043978507
4990 188 12684811112952799864
5104073 3 18271247105790298019
573450 72 18410014316917424185
67856867 119 18263364861845571284

>  <PUBCHEM_SHAPE_MULTIPOLES>  (1) 
346.44
10.72
2.35
1.11
1.37
0.69
-0.11
3.63
2.11
-0.24
0.24
-1.21
-0.31
-0.81

>  <PUBCHEM_SHAPE_SELFOVERLAP>  (1) 
698.058

>  <PUBCHEM_SHAPE_VOLUME>  (1) 
204.7

>  <PUBCHEM_COORDINATE_TYPE>  (1) 
2
5
10

$$$$
