24232
     RDKit          3D

  8  7  0  0  0  0  0  0  0  0999 V2000
   -0.0937   -0.6868   -0.0092 O   0  0  0  0  0  0  0  0  0  0  0  0
    3.3972    0.3116   -0.0037 O   0  0  0  0  0  0  0  0  0  0  0  0
   -1.3366    0.0165   -0.0007 C   0  0  0  0  0  0  0  0  0  0  0  0
   -1.3997    0.9071   -1.2407 C   0  0  0  0  0  0  0  0  0  0  0  0
   -2.4542   -1.0239   -0.0289 C   0  0  0  0  0  0  0  0  0  0  0  0
   -1.4136    0.8532    1.2755 C   0  0  0  0  0  0  0  0  0  0  0  0
    1.0054    0.2100    0.0088 C   0  0  0  0  0  0  0  0  0  0  0  0
    2.2952   -0.5878   -0.0011 C   0  0  0  0  0  0  0  0  0  0  0  0
  1  3  1  0
  1  7  1  0
  2  8  1  0
  3  4  1  0
  3  5  1  0
  3  6  1  0
  7  8  1  0
M  END
>  <PUBCHEM_COMPOUND_CID>  (1) 
24232

>  <PUBCHEM_CONFORMER_RMSD>  (1) 
0.6

>  <PUBCHEM_CONFORMER_DIVERSEORDER>  (1) 
2
1

>  <PUBCHEM_MMFF94_PARTIAL_CHARGES>  (1) 
6
1 -0.56
2 -0.68
22 0.4
3 0.28
7 0.28
8 0.28

>  <PUBCHEM_EFFECTIVE_ROTOR_COUNT>  (1) 
3

>  <PUBCHEM_PHARMACOPHORE_FEATURES>  (1) 
4
1 1 acceptor
1 2 acceptor
1 2 donor
4 3 4 5 6 hydrophobe

>  <PUBCHEM_HEAVY_ATOM_COUNT>  (1) 
8

>  <PUBCHEM_ATOM_DEF_STEREO_COUNT>  (1) 
0

>  <PUBCHEM_ATOM_UDEF_STEREO_COUNT>  (1) 
0

>  <PUBCHEM_BOND_DEF_STEREO_COUNT>  (1) 
0

>  <PUBCHEM_BOND_UDEF_STEREO_COUNT>  (1) 
0

>  <PUBCHEM_ISOTOPIC_ATOM_COUNT>  (1) 
0

>  <PUBCHEM_COMPONENT_COUNT>  (1) 
1

>  <PUBCHEM_CACTVS_TAUTO_COUNT>  (1) 
1

>  <PUBCHEM_CONFORMER_ID>  (1) 
00005EA800000002

>  <PUBCHEM_MMFF94_ENERGY>  (1) 
22.2684

>  <PUBCHEM_FEATURE_SELFOVERLAP>  (1) 
20.297

>  <PUBCHEM_SHAPE_FINGERPRINT>  (1) 
12932764 1 18113904810502632738
14390081 3 17676481722905119652
20653085 51 17825944832274783021
24536 1 18059569127231830738
29004967 10 17418378003724404106
3248919 1 18059570240082067054
369184 2 18186799153905094874
5084963 1 18335138713041918146
5460574 1 9223234048472660966

>  <PUBCHEM_SHAPE_MULTIPOLES>  (1) 
152.9
4.12
1.05
1.02
3.71
0.04
-0.03
0.39
0.02
-0.49
0.02
-0.59
-0.36
0

>  <PUBCHEM_SHAPE_SELFOVERLAP>  (1) 
276.18

>  <PUBCHEM_SHAPE_VOLUME>  (1) 
100.1

>  <PUBCHEM_COORDINATE_TYPE>  (1) 
2
5
10

$$$$
