24248
     RDKit          3D

 17 18  0  0  0  0  0  0  0  0999 V2000
   -5.7068   -0.0016   -2.1241 S   0  0  0  0  0  0  0  0  0  0  0  0
    0.8672    0.0005    0.7421 N   0  0  0  0  0  0  0  0  0  0  0  0
    1.3526   -0.0003   -0.4135 N   0  0  0  0  0  0  0  0  0  0  0  0
   -4.7130    0.0006    0.4662 N   0  0  0  0  0  0  0  0  0  0  0  0
   -0.5298    0.0004    0.6735 C   0  0  0  0  0  0  0  0  0  0  0  0
    2.7564   -0.0001   -0.3450 C   0  0  0  0  0  0  0  0  0  0  0  0
   -1.2265    1.2084    0.6386 C   0  0  0  0  0  0  0  0  0  0  0  0
   -1.2264   -1.2077    0.6399 C   0  0  0  0  0  0  0  0  0  0  0  0
   -3.3162    0.0005    0.5365 C   0  0  0  0  0  0  0  0  0  0  0  0
   -2.6197    1.2085    0.5701 C   0  0  0  0  0  0  0  0  0  0  0  0
   -2.6197   -1.2076    0.5714 C   0  0  0  0  0  0  0  0  0  0  0  0
    3.4459   -1.2081   -0.3105 C   0  0  0  0  0  0  0  0  0  0  0  0
    3.4461    1.2079   -0.3118 C   0  0  0  0  0  0  0  0  0  0  0  0
    4.8392   -1.2082   -0.2418 C   0  0  0  0  0  0  0  0  0  0  0  0
    4.8394    1.2078   -0.2432 C   0  0  0  0  0  0  0  0  0  0  0  0
    5.5358   -0.0004   -0.2082 C   0  0  0  0  0  0  0  0  0  0  0  0
   -5.1244   -0.0007   -0.6401 C   0  0  0  0  0  0  0  0  0  0  0  0
  1 17  2  0
  2  3  2  0
  2  5  1  0
  3  6  1  0
  4  9  1  0
  4 17  2  0
  5  7  2  0
  5  8  1  0
  6 12  2  0
  6 13  1  0
  7 10  1  0
  8 11  2  0
  9 10  2  0
  9 11  1  0
 12 14  1  0
 13 15  2  0
 14 16  2  0
 15 16  1  0
M  END
>  <PUBCHEM_COMPOUND_CID>  (1) 
24248

>  <PUBCHEM_CONFORMER_RMSD>  (1) 
0.6

>  <PUBCHEM_CONFORMER_DIVERSEORDER>  (1) 
1
3
6
5
2
4

>  <PUBCHEM_MMFF94_PARTIAL_CHARGES>  (1) 
26
1 -0.27
10 -0.15
11 -0.15
12 -0.15
13 -0.15
14 -0.15
15 -0.15
16 -0.15
17 0.57
18 0.15
19 0.15
2 -0.18
20 0.15
21 0.15
22 0.15
23 0.15
24 0.15
25 0.15
26 0.15
3 -0.18
4 -0.48
5 0.18
6 0.18
7 -0.15
8 -0.15
9 0.18

>  <PUBCHEM_EFFECTIVE_ROTOR_COUNT>  (1) 
3

>  <PUBCHEM_PHARMACOPHORE_FEATURES>  (1) 
4
1 1 acceptor
1 4 acceptor
6 5 7 8 9 10 11 rings
6 6 12 13 14 15 16 rings

>  <PUBCHEM_HEAVY_ATOM_COUNT>  (1) 
17

>  <PUBCHEM_ATOM_DEF_STEREO_COUNT>  (1) 
0

>  <PUBCHEM_ATOM_UDEF_STEREO_COUNT>  (1) 
0

>  <PUBCHEM_BOND_DEF_STEREO_COUNT>  (1) 
0

>  <PUBCHEM_BOND_UDEF_STEREO_COUNT>  (1) 
0

>  <PUBCHEM_ISOTOPIC_ATOM_COUNT>  (1) 
0

>  <PUBCHEM_COMPONENT_COUNT>  (1) 
1

>  <PUBCHEM_CACTVS_TAUTO_COUNT>  (1) 
1

>  <PUBCHEM_CONFORMER_ID>  (1) 
00005EB800000001

>  <PUBCHEM_MMFF94_ENERGY>  (1) 
45.902

>  <PUBCHEM_FEATURE_SELFOVERLAP>  (1) 
20.302

>  <PUBCHEM_SHAPE_FINGERPRINT>  (1) 
10014705 185 17822013150539760577
10354089 29 8286198357898042766
10366900 7 17847067696474909426
10447042 23 18343861108984168422
10912923 1 17489595545145707674
11089746 13 16878216545459024533
11315181 36 18261402160981046768
11401426 45 17821730550075948577
12107183 9 17618793457552437426
12236239 1 17203331100406454508
12555020 224 18410573968267611295
12596602 18 8862938412119885245
12670543 26 18409722929477694549
12969540 114 17894896448135943159
13288520 33 16200430287099140573
13533116 47 18342174423993533130
14123238 8 17847064376232905248
14251718 22 15985103037262748416
15209294 21 13045935786285538087
15238133 3 14345791630454431574
16079462 125 17968368043886201692
17834072 33 17561081423122867488
17834072 8 17967813838269650799
1813 80 14261359059084636114
18222031 100 16343988022173195616
200 152 17989490714437967305
20281389 69 14562524072940600373
20300324 65 17988646276908004097
20645477 70 18341619166358206950
21054139 6 17131825486595945910
21637258 2 15769478903584029205
220451 1 16845581902475841255
23402539 116 18272370845782296521
23559900 14 18338800117165008128
25147074 1 18125152737519734979
2838139 119 16081352060998301311
29717793 49 18202287970327300798
300161 21 18187081793429807506
351380 180 18412829083790261064
3545911 37 18336273405137192864
4214541 1 18410863122724598320
5104073 3 18411146822673444384
5283173 99 18261105223705949933
542803 24 17417821629650600504
69090 78 18411142432932303178
7495541 125 16773790420253147026
9709674 26 18271260313142137374
9971528 1 17749115495859971012

>  <PUBCHEM_SHAPE_MULTIPOLES>  (1) 
338.76
14.01
1.32
1.16
0.28
0
-0.52
-0.01
-5.85
0.79
0.12
-1.97
0
0

>  <PUBCHEM_SHAPE_SELFOVERLAP>  (1) 
719.611

>  <PUBCHEM_SHAPE_VOLUME>  (1) 
190

>  <PUBCHEM_COORDINATE_TYPE>  (1) 
2
5
10

$$$$
