24257
     RDKit          3D

 13 12  0  0  1  0  0  0  0  0999 V2000
   -1.5997    0.2218    0.2225 N   0  0  0  0  0  0  0  0  0  0  0  0
    0.5023    1.3982    0.8146 C   0  0  0  0  0  0  0  0  0  0  0  0
   -0.9003    1.5064    0.1919 C   0  0  0  0  0  0  0  0  0  0  0  0
    1.4141    0.3930    0.0990 C   0  0  0  0  0  0  0  0  0  0  0  0
    2.7859    0.3120    0.7781 C   0  0  0  0  0  0  0  0  0  0  0  0
    3.7714   -0.6293    0.0607 C   0  0  0  0  0  0  0  0  0  0  0  0
   -0.8043    1.9788   -1.2584 C   0  0  0  0  0  0  0  0  0  0  0  0
    3.9963   -0.2378   -1.4006 C   0  0  0  0  0  0  0  0  0  0  0  0
    3.2598   -2.0701    0.1354 C   0  0  0  0  0  0  0  0  0  0  0  0
   -2.9233    0.3464   -0.3862 C   0  0  0  0  0  0  0  0  0  0  0  0
   -1.7125   -0.2654    1.5966 C   0  0  0  0  0  0  0  0  0  0  0  0
   -3.6110   -0.9482   -0.4142 C   0  0  0  0  0  0  0  0  0  0  0  0
   -4.1788   -2.0058   -0.4394 C   0  0  0  0  0  0  0  0  0  0  0  0
  1  3  1  0
  1 10  1  0
  1 11  1  0
  2  3  1  0
  2  4  1  0
  3  7  1  0
  4  5  1  0
  5  6  1  0
  6  8  1  0
  6  9  1  0
 10 12  1  0
 12 13  3  0
M  END
>  <PUBCHEM_COMPOUND_CID>  (1) 
24257

>  <PUBCHEM_CONFORMER_RMSD>  (1) 
0.6

>  <PUBCHEM_CONFORMER_DIVERSEORDER>  (1) 
4
9
55
54
5
51
17
7
44
19
47
24
32
3
50
10
42
49
26
30
22
34
56
13
48
23
57
6
8
14
21
45
31
52
16
46
40
37
33
11
18
29
53
12
15
20
36
38
27
39
43
2
1
25
35
28
41

>  <PUBCHEM_MMFF94_PARTIAL_CHARGES>  (1) 
7
1 -0.81
10 0.47
11 0.27
12 -0.2
13 -0.18
3 0.27
36 0.18

>  <PUBCHEM_EFFECTIVE_ROTOR_COUNT>  (1) 
6

>  <PUBCHEM_PHARMACOPHORE_FEATURES>  (1) 
4
1 1 cation
1 13 hydrophobe
3 6 8 9 hydrophobe
4 2 4 5 6 hydrophobe

>  <PUBCHEM_HEAVY_ATOM_COUNT>  (1) 
13

>  <PUBCHEM_ATOM_DEF_STEREO_COUNT>  (1) 
0

>  <PUBCHEM_ATOM_UDEF_STEREO_COUNT>  (1) 
1

>  <PUBCHEM_BOND_DEF_STEREO_COUNT>  (1) 
0

>  <PUBCHEM_BOND_UDEF_STEREO_COUNT>  (1) 
0

>  <PUBCHEM_ISOTOPIC_ATOM_COUNT>  (1) 
0

>  <PUBCHEM_COMPONENT_COUNT>  (1) 
1

>  <PUBCHEM_CACTVS_TAUTO_COUNT>  (1) 
1

>  <PUBCHEM_CONFORMER_ID>  (1) 
00005EC100000004

>  <PUBCHEM_MMFF94_ENERGY>  (1) 
21.126

>  <PUBCHEM_FEATURE_SELFOVERLAP>  (1) 
20.369

>  <PUBCHEM_SHAPE_FINGERPRINT>  (1) 
10465860 71 17749102335674026309
11127187 94 18335132056032715093
11543360 7 17385726927906008054
11769659 78 18130499846895813851
12006461 19 18272086153785267515
12824470 246 18202001018998535379
14251710 61 18131354136959974327
14252887 29 17203609294265553770
15239191 94 18272935986052922810
15342816 4 18411984688903840478
17041 49 10663811941639310622
18186145 218 14996291296854640180
18915474 69 18335706031241135670
19107657 162 17703791388399682198
193927 3 18200602513470562687
19782 4 11314305078892443646
20112054 13 9871752403161340971
20281407 28 18412262817937535960
20281475 54 18411983541899639336
20374829 77 18335410270997275131
20388580 30 18262517134274771757
20645477 70 18192980746301129855
20653085 51 11242251827019200040
20671657 53 18409445920734403453
20871999 31 17821723936274731925
22485316 2 18342173354013504112
22620623 9 18115010923532281093
23382010 3 15864348107685467937
23402539 116 17458618987029570156
23403322 49 18411416176735895762
23500284 214 9439401345649366308
23532345 42 18340760545991046546
23557571 272 17968646147730595508
2871803 45 18408880728945307614
31174 14 17632002161093360416
4028521 119 13190334673382402647
4463277 69 18129371756529361439
474 4 8646777702636975591
58051976 378 17968104131542090326
90316 7 13973961000197345899
94968 8 18342739645778620218

>  <PUBCHEM_SHAPE_MULTIPOLES>  (1) 
262.55
8.15
2.04
1.24
1.06
0.3
-0.02
5.73
1.98
-0.7
0.34
0.18
-0.21
-0.05

>  <PUBCHEM_SHAPE_SELFOVERLAP>  (1) 
484.526

>  <PUBCHEM_SHAPE_VOLUME>  (1) 
166.4

>  <PUBCHEM_COORDINATE_TYPE>  (1) 
2
5
10

$$$$
