24255
     RDKit          3D

 12 12  0  0  0  0  0  0  0  0999 V2000
   -0.9872    0.9720    0.0000 N   0  0  0  0  0  0  0  0  0  0  0  0
   -0.3481   -1.3410    0.0000 N   0  0  0  0  0  0  0  0  0  0  0  0
    1.3353    0.3690    0.0002 N   0  0  0  0  0  0  0  0  0  0  0  0
   -3.7462   -1.0352    0.0000 N   0  0  0  0  0  0  0  0  0  0  0  0
    0.9766    3.7618   -0.0001 N   0  0  0  0  0  0  0  0  0  0  0  0
    2.7696   -2.7267   -0.0001 N   0  0  0  0  0  0  0  0  0  0  0  0
   -1.2489   -0.3452    0.0000 C   0  0  0  0  0  0  0  0  0  0  0  0
    0.3256    1.2541    0.0001 C   0  0  0  0  0  0  0  0  0  0  0  0
    0.9233   -0.9090    0.0001 C   0  0  0  0  0  0  0  0  0  0  0  0
   -2.6196   -0.7239    0.0000 C   0  0  0  0  0  0  0  0  0  0  0  0
    0.6829    2.6306   -0.0001 C   0  0  0  0  0  0  0  0  0  0  0  0
    1.9367   -1.9067   -0.0001 C   0  0  0  0  0  0  0  0  0  0  0  0
  1  7  2  0
  1  8  1  0
  2  7  1  0
  2  9  2  0
  3  8  2  0
  3  9  1  0
  4 10  3  0
  5 11  3  0
  6 12  3  0
  7 10  1  0
  8 11  1  0
  9 12  1  0
M  END
>  <PUBCHEM_COMPOUND_CID>  (1) 
24255

>  <PUBCHEM_CONFORMER_RMSD>  (1) 
0.4

>  <PUBCHEM_CONFORMER_DIVERSEORDER>  (1) 
1

>  <PUBCHEM_MMFF94_PARTIAL_CHARGES>  (1) 
12
1 -0.62
10 0.48
11 0.48
12 0.48
2 -0.62
3 -0.62
4 -0.56
5 -0.56
6 -0.56
7 0.69
8 0.69
9 0.69

>  <PUBCHEM_EFFECTIVE_ROTOR_COUNT>  (1) 
0

>  <PUBCHEM_PHARMACOPHORE_FEATURES>  (1) 
7
1 4 acceptor
1 5 acceptor
1 6 acceptor
3 1 2 7 cation
3 1 3 8 cation
3 2 3 9 cation
6 1 2 3 7 8 9 rings

>  <PUBCHEM_HEAVY_ATOM_COUNT>  (1) 
12

>  <PUBCHEM_ATOM_DEF_STEREO_COUNT>  (1) 
0

>  <PUBCHEM_ATOM_UDEF_STEREO_COUNT>  (1) 
0

>  <PUBCHEM_BOND_DEF_STEREO_COUNT>  (1) 
0

>  <PUBCHEM_BOND_UDEF_STEREO_COUNT>  (1) 
0

>  <PUBCHEM_ISOTOPIC_ATOM_COUNT>  (1) 
0

>  <PUBCHEM_COMPONENT_COUNT>  (1) 
1

>  <PUBCHEM_CACTVS_TAUTO_COUNT>  (1) 
1

>  <PUBCHEM_CONFORMER_ID>  (1) 
00005EBF00000001

>  <PUBCHEM_MMFF94_ENERGY>  (1) 
12.5961

>  <PUBCHEM_FEATURE_SELFOVERLAP>  (1) 
38.293

>  <PUBCHEM_SHAPE_FINGERPRINT>  (1) 
1 1 18122062271514781973
14817 1 15696051171147978259
16945 1 18338516468607615815
19021347 4 17401767917728569768
193761 8 17834396005121698178
20645477 70 18264477559634817095
20871998 22 18340204094244386666
21040471 1 17474108086350132385
21499 59 17761481896184164629
21524375 3 17469026122305769161
23530152 11 17690000458596747679
23552423 10 18197216056274619623
241688 4 18266740173268058563
2748010 2 17615135807025217366
3071541 12 18339367490655162605
3071541 236 16826412221887538456
3071541 250 18338249192698022334
7364860 26 18339361988601388483
81228 2 16177071505241276608

>  <PUBCHEM_SHAPE_MULTIPOLES>  (1) 
217.07
3.7
3.7
0.57
2.49
3.87
0
-3.87
0
-2.49
0
0
0
0

>  <PUBCHEM_SHAPE_SELFOVERLAP>  (1) 
456.344

>  <PUBCHEM_SHAPE_VOLUME>  (1) 
112.4

>  <PUBCHEM_COORDINATE_TYPE>  (1) 
2
5
10

$$$$
