24252
     RDKit          3D

 17 17  0  0  0  0  0  0  0  0999 V2000
    5.8287    1.1315    0.4887 F   0  0  0  0  0  0  0  0  0  0  0  0
   -0.2152   -0.1085   -0.1047 O   0  0  0  0  0  0  0  0  0  0  0  0
    0.5705   -2.1351   -0.8626 O   0  0  0  0  0  0  0  0  0  0  0  0
   -3.8888    0.1912   -0.0793 N   0  0  0  0  0  0  0  0  0  0  0  0
   -2.4938    0.5847    0.1161 C   0  0  0  0  0  0  0  0  0  0  0  0
   -4.7847    1.2907    0.2775 C   0  0  0  0  0  0  0  0  0  0  0  0
   -4.1999   -0.9989    0.7115 C   0  0  0  0  0  0  0  0  0  0  0  0
   -1.5564   -0.5396   -0.2947 C   0  0  0  0  0  0  0  0  0  0  0  0
   -4.4756    2.5365   -0.5351 C   0  0  0  0  0  0  0  0  0  0  0  0
   -5.6283   -1.4582    0.4736 C   0  0  0  0  0  0  0  0  0  0  0  0
    0.7540   -1.0082   -0.4295 C   0  0  0  0  0  0  0  0  0  0  0  0
    2.1036   -0.4393   -0.1852 C   0  0  0  0  0  0  0  0  0  0  0  0
    3.1341   -1.2902    0.1577 C   0  0  0  0  0  0  0  0  0  0  0  0
    2.2853    0.9230   -0.3092 C   0  0  0  0  0  0  0  0  0  0  0  0
    4.4019   -0.7556    0.3870 C   0  0  0  0  0  0  0  0  0  0  0  0
    3.5531    1.4577   -0.0799 C   0  0  0  0  0  0  0  0  0  0  0  0
    4.6115    0.6184    0.2681 C   0  0  0  0  0  0  0  0  0  0  0  0
  1 17  1  0
  2  8  1  0
  2 11  1  0
  3 11  2  0
  4  5  1  0
  4  6  1  0
  4  7  1  0
  5  8  1  0
  6  9  1  0
  7 10  1  0
 11 12  1  0
 12 13  2  0
 12 14  1  0
 13 15  1  0
 14 16  2  0
 15 17  2  0
 16 17  1  0
M  END
>  <PUBCHEM_COMPOUND_CID>  (1) 
24252

>  <PUBCHEM_CONFORMER_RMSD>  (1) 
0.8

>  <PUBCHEM_CONFORMER_DIVERSEORDER>  (1) 
1
51
64
42
36
19
52
16
15
23
59
11
44
5
50
12
55
22
53
20
46
56
49
61
63
38
4
35
26
37
3
62
25
6
29
60
30
48
41
39
34
10
31
2
54
27
68
17
18
43
57
66
45
40
58
47
28
70
13
21
32
24
7
9
65
14
69
67
8
33

>  <PUBCHEM_MMFF94_PARTIAL_CHARGES>  (1) 
19
1 -0.19
11 0.63
12 0.09
13 -0.15
14 -0.15
15 -0.15
16 -0.15
17 0.19
2 -0.43
3 -0.57
32 0.15
33 0.15
34 0.15
35 0.15
4 -0.81
5 0.27
6 0.27
7 0.27
8 0.28

>  <PUBCHEM_EFFECTIVE_ROTOR_COUNT>  (1) 
7

>  <PUBCHEM_PHARMACOPHORE_FEATURES>  (1) 
3
1 3 acceptor
1 4 cation
6 12 13 14 15 16 17 rings

>  <PUBCHEM_HEAVY_ATOM_COUNT>  (1) 
17

>  <PUBCHEM_ATOM_DEF_STEREO_COUNT>  (1) 
0

>  <PUBCHEM_ATOM_UDEF_STEREO_COUNT>  (1) 
0

>  <PUBCHEM_BOND_DEF_STEREO_COUNT>  (1) 
0

>  <PUBCHEM_BOND_UDEF_STEREO_COUNT>  (1) 
0

>  <PUBCHEM_ISOTOPIC_ATOM_COUNT>  (1) 
0

>  <PUBCHEM_COMPONENT_COUNT>  (1) 
1

>  <PUBCHEM_CACTVS_TAUTO_COUNT>  (1) 
1

>  <PUBCHEM_CONFORMER_ID>  (1) 
00005EBC00000001

>  <PUBCHEM_MMFF94_ENERGY>  (1) 
34.3577

>  <PUBCHEM_FEATURE_SELFOVERLAP>  (1) 
15.223

>  <PUBCHEM_SHAPE_FINGERPRINT>  (1) 
10014705 185 18334856066288540365
10354089 29 18409167744809170568
12107183 9 17684359560493430337
12403259 118 18335697256364551813
12507557 5 18411700989245164913
12596602 18 18113893866857566896
12916748 109 17988933283776062096
13167823 11 18333730213014564315
13214271 11 18410291398479863653
13785724 45 17834673795570850842
14123255 352 18413103935848494445
14251764 18 18260824926272172242
14252887 29 13479133458823323040
14341114 176 18335145249940081145
15188451 53 16154000152888690529
15196674 1 18410575063225373581
17844677 252 18410301293562319329
18222031 100 14706926250494252294
19489759 90 17676203585460772345
20374829 77 9871754576404087356
20645477 70 17131565950739606998
20871999 31 11527941257869404117
21065199 12 18335143059818093931
212847 35 18130783448039637392
21709351 56 18409444774083364701
23402539 116 18113333111716523919
23402655 69 17988921145834616692
23559900 14 18053665780831368239
2916195 48 18201712998723780576
314173 85 15213018232623199063
351380 180 18260548930824593553
3545911 37 18272655675144166214
4214541 1 18335421240686705345
4325135 7 18201437017300339895
474229 33 18341614866911444167
5104073 3 18336267847238587475
77779 3 18408324367455491379
90127 26 18336276673053638147

>  <PUBCHEM_SHAPE_MULTIPOLES>  (1) 
325.86
13.72
2.03
0.75
3.89
0.5
0.01
3
-2.74
1.64
0.23
0.09
-0.08
0.74

>  <PUBCHEM_SHAPE_SELFOVERLAP>  (1) 
658.28

>  <PUBCHEM_SHAPE_VOLUME>  (1) 
192.8

>  <PUBCHEM_COORDINATE_TYPE>  (1) 
2
5
10

$$$$
