2426
     RDKit          3D

 20 22  0  0  0  0  0  0  0  0999 V2000
    4.9643   -1.3062   -2.1160 Br  0  0  0  0  0  0  0  0  0  0  0  0
    0.8741    0.5864    0.6356 N   0  0  0  0  0  0  0  0  0  0  0  0
   -1.8881   -2.4829    0.3545 N   0  0  0  0  0  0  0  0  0  0  0  0
    0.3581   -1.7060    0.7521 N   0  0  0  0  0  0  0  0  0  0  0  0
   -3.6012    2.7553   -0.5228 N   0  0  0  0  0  0  0  0  0  0  0  0
   -5.4313    0.5819   -0.6950 N   0  0  0  0  0  0  0  0  0  0  0  0
   -1.4041   -0.1374    0.2258 C   0  0  0  0  0  0  0  0  0  0  0  0
   -2.2962   -1.2191    0.1439 C   0  0  0  0  0  0  0  0  0  0  0  0
   -0.0841   -0.4529    0.5355 C   0  0  0  0  0  0  0  0  0  0  0  0
   -1.8422    1.1797    0.0037 C   0  0  0  0  0  0  0  0  0  0  0  0
   -3.1768    1.4269   -0.3024 C   0  0  0  0  0  0  0  0  0  0  0  0
   -4.0696    0.3643   -0.3861 C   0  0  0  0  0  0  0  0  0  0  0  0
   -3.6262   -0.9429   -0.1639 C   0  0  0  0  0  0  0  0  0  0  0  0
    2.2557    0.6276    0.3905 C   0  0  0  0  0  0  0  0  0  0  0  0
    2.8267   -0.2111   -0.5717 C   0  0  0  0  0  0  0  0  0  0  0  0
    3.0713    1.5073    1.1090 C   0  0  0  0  0  0  0  0  0  0  0  0
   -0.5833   -2.6578    0.6467 C   0  0  0  0  0  0  0  0  0  0  0  0
    4.1997   -0.1703   -0.8133 C   0  0  0  0  0  0  0  0  0  0  0  0
    4.4445    1.5481    0.8675 C   0  0  0  0  0  0  0  0  0  0  0  0
    5.0087    0.7094   -0.0937 C   0  0  0  0  0  0  0  0  0  0  0  0
  1 18  1  0
  2  9  1  0
  2 14  1  0
  3  8  2  0
  3 17  1  0
  4  9  1  0
  4 17  2  0
  5 11  1  0
  6 12  1  0
  7  8  1  0
  7  9  2  0
  7 10  1  0
  8 13  1  0
 10 11  2  0
 11 12  1  0
 12 13  2  0
 14 15  2  0
 14 16  1  0
 15 18  1  0
 16 19  2  0
 18 20  2  0
 19 20  1  0
M  END
>  <PUBCHEM_COMPOUND_CID>  (1) 
2426

>  <PUBCHEM_CONFORMER_RMSD>  (1) 
0.6

>  <PUBCHEM_CONFORMER_DIVERSEORDER>  (1) 
1
13
9
20
6
14
8
18
2
16
12
15
7
19
11
10
17
5
4
3

>  <PUBCHEM_MMFF94_PARTIAL_CHARGES>  (1) 
31
1 -0.11
10 -0.15
11 0.1
12 0.1
13 -0.15
14 0.1
15 -0.15
16 -0.15
17 0.47
18 0.11
19 -0.15
2 -0.6
20 -0.15
21 0.15
22 0.15
23 0.4
24 0.15
25 0.15
26 0.15
27 0.4
28 0.4
29 0.4
3 -0.62
30 0.4
31 0.15
32 0.15
4 -0.62
5 -0.9
6 -0.9
8 0.31
9 0.41

>  <PUBCHEM_EFFECTIVE_ROTOR_COUNT>  (1) 
2

>  <PUBCHEM_PHARMACOPHORE_FEATURES>  (1) 
11
1 1 hydrophobe
1 2 donor
1 5 cation
1 5 donor
1 6 cation
1 6 donor
3 2 4 9 cation
3 3 4 17 cation
6 14 15 16 18 19 20 rings
6 3 4 7 8 9 17 rings
6 7 8 10 11 12 13 rings

>  <PUBCHEM_HEAVY_ATOM_COUNT>  (1) 
20

>  <PUBCHEM_ATOM_DEF_STEREO_COUNT>  (1) 
0

>  <PUBCHEM_ATOM_UDEF_STEREO_COUNT>  (1) 
0

>  <PUBCHEM_BOND_DEF_STEREO_COUNT>  (1) 
0

>  <PUBCHEM_BOND_UDEF_STEREO_COUNT>  (1) 
0

>  <PUBCHEM_ISOTOPIC_ATOM_COUNT>  (1) 
0

>  <PUBCHEM_COMPONENT_COUNT>  (1) 
1

>  <PUBCHEM_CACTVS_TAUTO_COUNT>  (1) 
33

>  <PUBCHEM_CONFORMER_ID>  (1) 
0000097A00000001

>  <PUBCHEM_MMFF94_ENERGY>  (1) 
93.4979

>  <PUBCHEM_FEATURE_SELFOVERLAP>  (1) 
56

>  <PUBCHEM_SHAPE_FINGERPRINT>  (1) 
10411042 1 17614561871095060331
10498660 4 18261946350074792157
10646746 165 18408881867369824712
10670039 82 17968101854793050108
12173636 292 18335693940786709247
12236239 1 17022615408009665096
12390115 104 18268436742029273545
12403259 415 18411426098078519120
12596602 18 16153715357333001768
12916748 109 18334858333202941745
13544592 145 18341337721345520926
14251757 17 18272091578360468192
14573314 32 18413111658436887860
15042514 8 18117561953818101371
15375358 24 18272087249228618994
17349148 13 14764636304653449268
18186145 218 18343588425578691872
19784866 240 15626233377323154340
200 152 16415484852385369890
20510252 161 18341048605474499337
20645477 56 18409448128226177064
20645477 70 17418100901725774478
21065201 7 18408603695233579274
21521239 73 17917982876493827615
21637258 2 15267048282058306693
221357 26 18131068212413170473
2215653 11 18202287996144648902
22393880 68 18341614798128560262
22943178 12 18200878495320894618
23366157 5 17534335644159378187
23402539 116 18338786922518877597
23526113 38 17917428752566025290
23557571 272 18266178524879833162
23559900 14 18343023311626332824
2838139 119 16009845313701340031
3004659 81 18261117314914386366
32948 21 18337116679147900084
3298306 158 18342743970795461198
4028521 119 18412259540924916297
474 4 17240484684519078091
495365 180 17632002135771540146
4990 188 18272651229784345652
5161694 15 18343027687860371550
5281201 14 18272939331990929484
5283173 99 18412827963162902208
59755656 215 18409731733912958911
633830 44 18342730793487182437
7399639 24 17266648908480322802
9709674 26 18271247239403755878

>  <PUBCHEM_SHAPE_MULTIPOLES>  (1) 
392.63
11.21
2.4
1.19
3.57
0.47
0.36
-2.77
4.35
-0.91
-0.25
1.33
0.26
2.32

>  <PUBCHEM_SHAPE_SELFOVERLAP>  (1) 
852.332

>  <PUBCHEM_SHAPE_VOLUME>  (1) 
219

>  <PUBCHEM_COORDINATE_TYPE>  (1) 
2
5
10

$$$$
