24267
     RDKit          3D

  5  4  0  0  0  0  0  0  0  0999 V2000
    0.0911    0.0078    0.0563 P   0  0  0  0  0  0  0  0  0  0  0  0
   -0.0338    0.0052   -1.5115 F   0  0  0  0  0  0  0  0  0  0  0  0
   -0.8585    1.2356    0.4969 O   0  0  0  0  0  0  0  0  0  0  0  0
   -0.7277   -1.3158    0.4852 O   0  0  0  0  0  0  0  0  0  0  0  0
    1.5290    0.0672    0.4732 O   0  0  0  0  0  0  0  0  0  0  0  0
  1  2  1  0
  1  3  1  0
  1  4  1  0
  1  5  2  0
M  END
>  <PUBCHEM_COMPOUND_CID>  (1) 
24267

>  <PUBCHEM_CONFORMER_RMSD>  (1) 
0.4

>  <PUBCHEM_CONFORMER_DIVERSEORDER>  (1) 
1

>  <PUBCHEM_MMFF94_PARTIAL_CHARGES>  (1) 
7
1 1.57
2 -0.33
3 -0.77
4 -0.77
5 -0.7
6 0.5
7 0.5

>  <PUBCHEM_EFFECTIVE_ROTOR_COUNT>  (1) 
0

>  <PUBCHEM_PHARMACOPHORE_FEATURES>  (1) 
4
1 3 acceptor
1 4 acceptor
1 5 acceptor
4 1 3 4 5 anion

>  <PUBCHEM_HEAVY_ATOM_COUNT>  (1) 
5

>  <PUBCHEM_ATOM_DEF_STEREO_COUNT>  (1) 
0

>  <PUBCHEM_ATOM_UDEF_STEREO_COUNT>  (1) 
0

>  <PUBCHEM_BOND_DEF_STEREO_COUNT>  (1) 
0

>  <PUBCHEM_BOND_UDEF_STEREO_COUNT>  (1) 
0

>  <PUBCHEM_ISOTOPIC_ATOM_COUNT>  (1) 
0

>  <PUBCHEM_COMPONENT_COUNT>  (1) 
1

>  <PUBCHEM_CACTVS_TAUTO_COUNT>  (1) 
1

>  <PUBCHEM_CONFORMER_ID>  (1) 
00005ECB00000001

>  <PUBCHEM_MMFF94_ENERGY>  (1) 
-20.3949

>  <PUBCHEM_FEATURE_SELFOVERLAP>  (1) 
20.33

>  <PUBCHEM_SHAPE_FINGERPRINT>  (1) 
139733 1 11639378453382346362
21015797 1 17532679942571191976
5943 1 12489430546448914799

>  <PUBCHEM_SHAPE_MULTIPOLES>  (1) 
81.87
1.2
1.13
1.04
0.45
0.07
0.52
-0.07
-0.3
-0.46
-0.28
-0.02
0
0

>  <PUBCHEM_SHAPE_SELFOVERLAP>  (1) 
132.458

>  <PUBCHEM_SHAPE_VOLUME>  (1) 
57.6

>  <PUBCHEM_COORDINATE_TYPE>  (1) 
2
5
10

$$$$
