2427
     RDKit          3D

 22 25  0  0  0  0  0  0  0  0999 V2000
    5.4863    1.0039    2.2831 Br  0  0  0  0  0  0  0  0  0  0  0  0
   -4.7815   -0.5346    0.4212 N   0  0  0  0  0  0  0  0  0  0  0  0
   -3.4579   -2.3115    0.2513 N   0  0  0  0  0  0  0  0  0  0  0  0
    1.3953   -0.5165   -0.6894 N   0  0  0  0  0  0  0  0  0  0  0  0
   -1.1922    2.6914   -0.3457 N   0  0  0  0  0  0  0  0  0  0  0  0
    1.0163    1.8032   -0.7087 N   0  0  0  0  0  0  0  0  0  0  0  0
   -3.5274   -0.0369    0.1770 C   0  0  0  0  0  0  0  0  0  0  0  0
   -0.8516    0.3176   -0.3169 C   0  0  0  0  0  0  0  0  0  0  0  0
   -2.7216   -1.1631    0.0751 C   0  0  0  0  0  0  0  0  0  0  0  0
   -1.6829    1.4482   -0.2106 C   0  0  0  0  0  0  0  0  0  0  0  0
   -1.3527   -0.9938   -0.1771 C   0  0  0  0  0  0  0  0  0  0  0  0
   -3.0421    1.2660    0.0405 C   0  0  0  0  0  0  0  0  0  0  0  0
    0.4935    0.5706   -0.5681 C   0  0  0  0  0  0  0  0  0  0  0  0
   -4.6885   -1.8982    0.4567 C   0  0  0  0  0  0  0  0  0  0  0  0
   -5.9909    0.2315    0.6092 C   0  0  0  0  0  0  0  0  0  0  0  0
    2.7629   -0.6486   -0.4026 C   0  0  0  0  0  0  0  0  0  0  0  0
    0.1294    2.8026   -0.5870 C   0  0  0  0  0  0  0  0  0  0  0  0
    3.3460    0.1086    0.6182 C   0  0  0  0  0  0  0  0  0  0  0  0
    3.5530   -1.5379   -1.1376 C   0  0  0  0  0  0  0  0  0  0  0  0
    4.7055   -0.0224    0.9014 C   0  0  0  0  0  0  0  0  0  0  0  0
    4.9125   -1.6690   -0.8546 C   0  0  0  0  0  0  0  0  0  0  0  0
    5.4887   -0.9112    0.1650 C   0  0  0  0  0  0  0  0  0  0  0  0
  1 20  1  0
  2  7  1  0
  2 14  1  0
  2 15  1  0
  3  9  1  0
  3 14  2  0
  4 13  1  0
  4 16  1  0
  5 10  1  0
  5 17  2  0
  6 13  2  0
  6 17  1  0
  7  9  2  0
  7 12  1  0
  8 10  1  0
  8 11  2  0
  8 13  1  0
  9 11  1  0
 10 12  2  0
 16 18  2  0
 16 19  1  0
 18 20  1  0
 19 21  2  0
 20 22  2  0
 21 22  1  0
M  END
>  <PUBCHEM_COMPOUND_CID>  (1) 
2427

>  <PUBCHEM_CONFORMER_RMSD>  (1) 
0.6

>  <PUBCHEM_CONFORMER_DIVERSEORDER>  (1) 
1
16
7
15
2
8
6
17
12
18
19
5
22
13
10
11
9
14
20
21
4
3

>  <PUBCHEM_MMFF94_PARTIAL_CHARGES>  (1) 
30
1 -0.11
10 0.31
11 -0.15
12 -0.15
13 0.41
14 0.04
15 0.26
16 0.1
17 0.47
18 -0.15
19 -0.15
2 0.05
20 0.11
21 -0.15
22 -0.15
23 0.15
24 0.15
25 0.15
29 0.4
3 -0.57
30 0.15
31 0.15
32 0.15
33 0.15
34 0.15
4 -0.6
5 -0.62
6 -0.62
7 -0.15
9 0.23

>  <PUBCHEM_EFFECTIVE_ROTOR_COUNT>  (1) 
2

>  <PUBCHEM_PHARMACOPHORE_FEATURES>  (1) 
9
1 1 hydrophobe
1 4 donor
3 2 3 14 cation
3 4 6 13 cation
3 5 6 17 cation
5 2 3 7 9 14 rings
6 16 18 19 20 21 22 rings
6 5 6 8 10 13 17 rings
6 7 8 9 10 11 12 rings

>  <PUBCHEM_HEAVY_ATOM_COUNT>  (1) 
22

>  <PUBCHEM_ATOM_DEF_STEREO_COUNT>  (1) 
0

>  <PUBCHEM_ATOM_UDEF_STEREO_COUNT>  (1) 
0

>  <PUBCHEM_BOND_DEF_STEREO_COUNT>  (1) 
0

>  <PUBCHEM_BOND_UDEF_STEREO_COUNT>  (1) 
0

>  <PUBCHEM_ISOTOPIC_ATOM_COUNT>  (1) 
0

>  <PUBCHEM_COMPONENT_COUNT>  (1) 
1

>  <PUBCHEM_CACTVS_TAUTO_COUNT>  (1) 
3

>  <PUBCHEM_CONFORMER_ID>  (1) 
0000097B00000001

>  <PUBCHEM_MMFF94_ENERGY>  (1) 
70.6841

>  <PUBCHEM_FEATURE_SELFOVERLAP>  (1) 
45.952

>  <PUBCHEM_SHAPE_FINGERPRINT>  (1) 
10 15 18272075125142604450
10319926 262 18194384621166171650
11045977 3 18130504158795267304
11265709 11 18261398844702071165
11370993 144 17632020728152214258
12236239 1 17168148901629174574
12507560 40 18131630063113069576
12516196 113 18411419526820552877
12553582 1 18260824895448245931
12892183 10 17775289356577944336
13140716 1 18337679736475516627
13544653 18 18131068242382528389
13668630 136 15357699661088068266
14178342 30 18116423744565954356
14251752 14 16515674521193935767
14341114 176 18060422421712430544
15042514 8 18263930929776061093
15183329 4 9295299361031095584
15352361 1 18409172120821968423
15880784 105 17489869353627426439
15885798 251 18334861623100372221
15927050 60 17548422961302968676
16126227 98 17624964325495204288
17138139 8 16878506881249154066
17349148 13 16950282871756315522
17492 89 18049167962699606443
1813 80 17676205788415317076
19141452 34 18201720669561952807
1979834 28 18131357431605935878
200 152 15430034340382086806
20567600 247 15357695331502239985
21033648 29 17632000971107480899
21065199 12 18272929393552163810
21065201 7 18263078817434412406
21267235 1 18335151877106377791
21521239 73 12324239494496140089
21792934 111 18411419501842520905
21859007 373 17969485062259989373
22122407 14 16056885757646938131
2297311 6 18339372872539185886
23227448 37 9150589297776794739
23366157 5 17679872779874257325
23402539 116 18413668007205053207
23536379 177 14779264198590686655
23557571 272 18340212886311122892
23559900 14 18410295843106538956
3004659 81 17894920641370132518
3009799 131 18336531764832045013
314173 85 18409731759445028349
335352 9 18408328774862103269
3383291 50 18261678181629822067
3411729 13 18044095885559169412
3882209 13 17190353813504223974
4325135 7 18186809097651223364
5104073 3 18199461079004192442
56616090 89 18260263062159993316
59682541 52 12540959811835906290
59755656 215 18263648376931611127
621550 34 18131066013996173886

>  <PUBCHEM_SHAPE_MULTIPOLES>  (1) 
433.79
13.35
2.42
1.19
2.79
0.86
0.48
-4.74
5.54
-0.69
-0.46
1.84
0.24
1.91

>  <PUBCHEM_SHAPE_SELFOVERLAP>  (1) 
959.71

>  <PUBCHEM_SHAPE_VOLUME>  (1) 
239.6

>  <PUBCHEM_COORDINATE_TYPE>  (1) 
2
5
10

$$$$
