24286
     RDKit          3D

 11 12  0  0  0  0  0  0  0  0999 V2000
    1.3839   -1.7447    0.0000 O   0  0  0  0  0  0  0  0  0  0  0  0
    1.9020    0.5183    0.0612 N   0  0  0  0  0  0  0  0  0  0  0  0
    3.1911    0.4527    0.6838 C   0  0  0  0  0  0  0  0  0  0  0  0
    3.0596    0.6090   -0.7788 C   0  0  0  0  0  0  0  0  0  0  0  0
    1.0396   -0.5662    0.0228 C   0  0  0  0  0  0  0  0  0  0  0  0
   -0.4081   -0.2109    0.0122 C   0  0  0  0  0  0  0  0  0  0  0  0
   -0.7977    1.1282    0.0400 C   0  0  0  0  0  0  0  0  0  0  0  0
   -1.3732   -1.2173   -0.0261 C   0  0  0  0  0  0  0  0  0  0  0  0
   -2.1523    1.4609    0.0298 C   0  0  0  0  0  0  0  0  0  0  0  0
   -2.7278   -0.8846   -0.0364 C   0  0  0  0  0  0  0  0  0  0  0  0
   -3.1172    0.4546   -0.0085 C   0  0  0  0  0  0  0  0  0  0  0  0
  1  5  2  0
  2  3  1  0
  2  4  1  0
  2  5  1  0
  3  4  1  0
  5  6  1  0
  6  7  2  0
  6  8  1  0
  7  9  1  0
  8 10  2  0
  9 11  2  0
 10 11  1  0
M  END
>  <PUBCHEM_COMPOUND_CID>  (1) 
24286

>  <PUBCHEM_CONFORMER_RMSD>  (1) 
0.6

>  <PUBCHEM_CONFORMER_DIVERSEORDER>  (1) 
1
2
3

>  <PUBCHEM_MMFF94_PARTIAL_CHARGES>  (1) 
20
1 -0.57
10 -0.15
11 -0.15
12 0.1
13 0.1
14 0.1
15 0.1
16 0.15
17 0.15
18 0.15
19 0.15
2 -0.36
20 0.15
3 -0.05
4 -0.05
5 0.54
6 0.09
7 -0.15
8 -0.15
9 -0.15

>  <PUBCHEM_EFFECTIVE_ROTOR_COUNT>  (1) 
2.6

>  <PUBCHEM_PHARMACOPHORE_FEATURES>  (1) 
2
1 1 acceptor
6 6 7 8 9 10 11 rings

>  <PUBCHEM_HEAVY_ATOM_COUNT>  (1) 
11

>  <PUBCHEM_ATOM_DEF_STEREO_COUNT>  (1) 
0

>  <PUBCHEM_ATOM_UDEF_STEREO_COUNT>  (1) 
0

>  <PUBCHEM_BOND_DEF_STEREO_COUNT>  (1) 
0

>  <PUBCHEM_BOND_UDEF_STEREO_COUNT>  (1) 
0

>  <PUBCHEM_ISOTOPIC_ATOM_COUNT>  (1) 
0

>  <PUBCHEM_COMPONENT_COUNT>  (1) 
1

>  <PUBCHEM_CACTVS_TAUTO_COUNT>  (1) 
1

>  <PUBCHEM_CONFORMER_ID>  (1) 
00005EDE00000001

>  <PUBCHEM_MMFF94_ENERGY>  (1) 
38.1485

>  <PUBCHEM_FEATURE_SELFOVERLAP>  (1) 
10.148

>  <PUBCHEM_SHAPE_FINGERPRINT>  (1) 
10608611 8 18412822460782184384
10857977 72 18339917224957148201
11062470 55 16588020229827093589
12897270 3 18413389851625924444
12932764 1 17774999098319273095
13380535 21 18340783545551557091
13380535 76 18410007719515374107
14144814 61 18408602552281577080
14325111 11 18410855464697513640
14390081 3 18343300357637283993
14897335 6 18339071601725774757
15775835 57 18411423886191460752
16945 1 18411418448984228113
19973954 147 18267305335193037837
20201158 50 18412542119713379857
20871998 184 18129386054481180207
21028194 46 18410011039851777784
21501502 16 18339923697404427683
23402655 69 18269539569535033949
23463225 33 18261106349155478178
23552423 10 18262518066024510611
2748010 2 18265900155275084919
3248919 1 18040152924406123162
369184 2 16008745822946889113
6333449 129 18342735239020666821
7364860 26 18199185079710434974

>  <PUBCHEM_SHAPE_MULTIPOLES>  (1) 
215.52
5.29
1.48
0.7
1.64
0.18
0.01
-0.94
0.03
-0.45
0.01
0.3
-0.06
-0.06

>  <PUBCHEM_SHAPE_SELFOVERLAP>  (1) 
454.843

>  <PUBCHEM_SHAPE_VOLUME>  (1) 
121.6

>  <PUBCHEM_COORDINATE_TYPE>  (1) 
2
5
10

$$$$
