24301
     RDKit          3D

 18 20  0  0  1  0  0  0  0  0999 V2000
   -3.5493    1.0855   -0.3081 O   0  0  0  0  0  0  0  0  0  0  0  0
    3.5504    1.0843    0.3047 O   0  0  0  0  0  0  0  0  0  0  0  0
   -2.3629   -0.9083   -0.2053 N   0  0  0  0  0  0  0  0  0  0  0  0
    2.3630   -0.9089    0.2059 N   0  0  0  0  0  0  0  0  0  0  0  0
   -3.2118   -1.7506    0.5844 C   0  0  0  0  0  0  0  0  0  0  0  0
    3.2098   -1.7523   -0.5850 C   0  0  0  0  0  0  0  0  0  0  0  0
   -3.2808   -1.7694   -0.8907 C   0  0  0  0  0  0  0  0  0  0  0  0
    3.2820   -1.7701    0.8899 C   0  0  0  0  0  0  0  0  0  0  0  0
   -2.5898   -2.8671    1.3189 C   0  0  0  0  0  0  0  0  0  0  0  0
    2.5857   -2.8690   -1.3174 C   0  0  0  0  0  0  0  0  0  0  0  0
   -2.4895    0.4720   -0.2169 C   0  0  0  0  0  0  0  0  0  0  0  0
    2.4902    0.4713    0.2162 C   0  0  0  0  0  0  0  0  0  0  0  0
   -1.2029    1.2165   -0.1048 C   0  0  0  0  0  0  0  0  0  0  0  0
    1.2037    1.2162    0.1064 C   0  0  0  0  0  0  0  0  0  0  0  0
    0.0003    0.5189    0.0011 C   0  0  0  0  0  0  0  0  0  0  0  0
   -1.2028    2.6113   -0.1054 C   0  0  0  0  0  0  0  0  0  0  0  0
    1.2040    2.6110    0.1060 C   0  0  0  0  0  0  0  0  0  0  0  0
    0.0007    3.3086    0.0001 C   0  0  0  0  0  0  0  0  0  0  0  0
  1 11  2  0
  2 12  2  0
  3  5  1  0
  3  7  1  0
  3 11  1  0
  4  6  1  0
  4  8  1  0
  4 12  1  0
  5  7  1  0
  5  9  1  0
  6  8  1  0
  6 10  1  0
 11 13  1  0
 12 14  1  0
 13 15  2  0
 13 16  1  0
 14 15  1  0
 14 17  2  0
 16 18  2  0
 17 18  1  0
M  END
>  <PUBCHEM_COMPOUND_CID>  (1) 
24301

>  <PUBCHEM_CONFORMER_RMSD>  (1) 
0.8

>  <PUBCHEM_CONFORMER_DIVERSEORDER>  (1) 
1
59
39
64
62
11
36
47
52
22
27
51
2
58
68
23
60
26
74
69
19
31
49
25
66
12
82
78
6
54
38
35
10
14
53
63
13
28
7
43
84
77
76
3
48
57
17
55
34
21
46
81
37
70
9
41
71
18
44
85
75
50
83
33
45
56
80
72
79
67
42
16
40
29
5
30
8
65
24
32
4
73
20
61
15

>  <PUBCHEM_MMFF94_PARTIAL_CHARGES>  (1) 
28
1 -0.57
10 0.09
11 0.54
12 0.54
13 0.09
14 0.09
15 -0.15
16 -0.15
17 -0.15
18 -0.15
19 0.1
2 -0.57
20 0.1
21 0.1
22 0.1
23 0.1
24 0.1
3 -0.36
31 0.15
32 0.15
33 0.15
34 0.15
4 -0.36
5 -0.05
6 -0.05
7 -0.05
8 -0.05
9 0.09

>  <PUBCHEM_EFFECTIVE_ROTOR_COUNT>  (1) 
5.2

>  <PUBCHEM_PHARMACOPHORE_FEATURES>  (1) 
3
1 1 acceptor
1 2 acceptor
6 13 14 15 16 17 18 rings

>  <PUBCHEM_HEAVY_ATOM_COUNT>  (1) 
18

>  <PUBCHEM_ATOM_DEF_STEREO_COUNT>  (1) 
0

>  <PUBCHEM_ATOM_UDEF_STEREO_COUNT>  (1) 
2

>  <PUBCHEM_BOND_DEF_STEREO_COUNT>  (1) 
0

>  <PUBCHEM_BOND_UDEF_STEREO_COUNT>  (1) 
0

>  <PUBCHEM_ISOTOPIC_ATOM_COUNT>  (1) 
0

>  <PUBCHEM_COMPONENT_COUNT>  (1) 
1

>  <PUBCHEM_CACTVS_TAUTO_COUNT>  (1) 
1

>  <PUBCHEM_CONFORMER_ID>  (1) 
00005EED00000001

>  <PUBCHEM_MMFF94_ENERGY>  (1) 
66.5874

>  <PUBCHEM_FEATURE_SELFOVERLAP>  (1) 
15.223

>  <PUBCHEM_SHAPE_FINGERPRINT>  (1) 
10616163 171 18412263947640392486
11322862 65 17691128132282944300
114674 6 17682121315523516363
116883 192 18268990886576505876
117890 22 18272374139690033414
12506688 2 18412828009921817208
12553582 1 18410580582221393199
13140716 1 18410855421478841707
14251705 54 18338240482435988427
14251757 5 17908445562342304566
14863182 85 17034455185377565215
14916288 52 18410015441945719539
15422964 175 18411414037936933108
15635459 17 18045219594536604699
16752209 62 17902217923934496753
17859628 97 16896246015098561754
19591789 44 16895403282374981788
20645477 70 18048866696360050047
21197605 99 16606616574841976227
21634736 98 18261962843064992214
21665056 4 17545325176768136660
221490 88 18263367056515038080
2255824 54 17978514465862374501
23184049 29 18337106770268061770
2334 1 18410572915709882187
23530152 11 17184752939783769365
23557571 272 18126842699697452282
23559900 14 18340476773771620904
238078 22 18337404750999256934
2748010 2 18412255142772838812
314173 41 18408046207998419387
474229 33 18194116542060782752
58807428 26 17404303992954298313
5902787 121 18334285453485494842
7364860 26 18123467443117425241
7987 15 18266200433487404771
81228 2 18196651791713111176
8809292 202 18337110047027623079
9709674 26 18198337360503048174

>  <PUBCHEM_SHAPE_MULTIPOLES>  (1) 
348.73
6.51
4.14
0.96
0
0.54
0
-4.91
0
0
0
0
-0.79
1.04

>  <PUBCHEM_SHAPE_SELFOVERLAP>  (1) 
739.703

>  <PUBCHEM_SHAPE_VOLUME>  (1) 
196.6

>  <PUBCHEM_COORDINATE_TYPE>  (1) 
2
5
10

$$$$
