24304
     RDKit          3D

 16 17  0  0  0  0  0  0  0  0999 V2000
    0.4033   -0.3022    0.0558 O   0  0  0  0  0  0  0  0  0  0  0  0
    2.7075   -0.2487   -0.0037 N   0  0  0  0  0  0  0  0  0  0  0  0
    1.3212    1.6879   -0.3930 N   0  0  0  0  0  0  0  0  0  0  0  0
   -0.0528    1.8404   -0.3975 N   0  0  0  0  0  0  0  0  0  0  0  0
    4.0229    0.4088   -0.1741 C   0  0  0  0  0  0  0  0  0  0  0  0
    2.7626   -1.6922    0.3218 C   0  0  0  0  0  0  0  0  0  0  0  0
    1.5415    0.4222   -0.1240 C   0  0  0  0  0  0  0  0  0  0  0  0
    4.5064    0.9612    1.1531 C   0  0  0  0  0  0  0  0  0  0  0  0
    2.7219   -2.5163   -0.9508 C   0  0  0  0  0  0  0  0  0  0  0  0
   -0.5390    0.6566   -0.1320 C   0  0  0  0  0  0  0  0  0  0  0  0
   -1.9083    0.2192   -0.0097 C   0  0  0  0  0  0  0  0  0  0  0  0
   -2.1918   -1.1146    0.2841 C   0  0  0  0  0  0  0  0  0  0  0  0
   -2.9491    1.1309   -0.1864 C   0  0  0  0  0  0  0  0  0  0  0  0
   -3.5160   -1.5368    0.4011 C   0  0  0  0  0  0  0  0  0  0  0  0
   -4.2734    0.7087   -0.0693 C   0  0  0  0  0  0  0  0  0  0  0  0
   -4.5569   -0.6251    0.2244 C   0  0  0  0  0  0  0  0  0  0  0  0
  1  7  1  0
  1 10  1  0
  2  5  1  0
  2  6  1  0
  2  7  1  0
  3  4  1  0
  3  7  2  0
  4 10  2  0
  5  8  1  0
  6  9  1  0
 10 11  1  0
 11 12  2  0
 11 13  1  0
 12 14  1  0
 13 15  2  0
 14 16  2  0
 15 16  1  0
M  END
>  <PUBCHEM_COMPOUND_CID>  (1) 
24304

>  <PUBCHEM_CONFORMER_RMSD>  (1) 
0.6

>  <PUBCHEM_CONFORMER_DIVERSEORDER>  (1) 
1
10
6
2
7
8
5
4
9
3

>  <PUBCHEM_MMFF94_PARTIAL_CHARGES>  (1) 
19
1 -0.28
10 0.43
11 0.05
12 -0.15
13 -0.15
14 -0.15
15 -0.15
16 -0.15
2 -0.82
27 0.15
28 0.15
29 0.15
3 -0.34
30 0.15
31 0.15
4 -0.34
5 0.37
6 0.37
7 0.56

>  <PUBCHEM_EFFECTIVE_ROTOR_COUNT>  (1) 
4

>  <PUBCHEM_PHARMACOPHORE_FEATURES>  (1) 
3
3 2 3 7 cation
5 1 3 4 7 10 rings
6 11 12 13 14 15 16 rings

>  <PUBCHEM_HEAVY_ATOM_COUNT>  (1) 
16

>  <PUBCHEM_ATOM_DEF_STEREO_COUNT>  (1) 
0

>  <PUBCHEM_ATOM_UDEF_STEREO_COUNT>  (1) 
0

>  <PUBCHEM_BOND_DEF_STEREO_COUNT>  (1) 
0

>  <PUBCHEM_BOND_UDEF_STEREO_COUNT>  (1) 
0

>  <PUBCHEM_ISOTOPIC_ATOM_COUNT>  (1) 
0

>  <PUBCHEM_COMPONENT_COUNT>  (1) 
1

>  <PUBCHEM_CACTVS_TAUTO_COUNT>  (1) 
1

>  <PUBCHEM_CONFORMER_ID>  (1) 
00005EF000000001

>  <PUBCHEM_MMFF94_ENERGY>  (1) 
26.6151

>  <PUBCHEM_FEATURE_SELFOVERLAP>  (1) 
15.223

>  <PUBCHEM_SHAPE_FINGERPRINT>  (1) 
10616163 171 18339084920472841335
11132069 177 18333730208492314745
11806522 49 18334575788742269067
12032990 46 18336271154389752391
12251169 10 18411982498480997229
12616999 72 18187378635741604790
13296908 3 18336549326172784454
13533116 47 17917149395230055515
13675066 3 18408042905485092937
14144814 61 18410577266791308513
14252887 29 18411426098326432642
14866123 147 17117206096672913083
15196674 1 18409167680015785747
15375358 24 18408321098774577530
15442244 35 18337958870273337017
15536298 74 18412264999749429626
17834074 16 18408045117282571415
1813 80 17167868547232727293
18522853 276 18410575102270514977
19107657 46 18409449206284190687
200 152 18130781283597575287
20279233 1 18408889537659201842
20281475 54 18335989683354724140
20645477 70 18271805666356000006
20871998 22 18409170974181511084
21267235 1 18335149712606351939
21501925 9 18335418001759137736
22485316 2 18410009931602483307
23402539 116 15791720906231020428
23463225 33 18408889520764143375
23557571 272 17968377845101596980
23559900 14 18339077086683932756
33824 294 18411980261035469378
34934 24 18410003338616648406
449060 50 18202280329390739320
5104073 3 18339081493183268315
7364860 26 18265900339669125820
81228 2 17970358022419916364
9709674 26 18335990843201999163

>  <PUBCHEM_SHAPE_MULTIPOLES>  (1) 
308.46
9.24
2.03
0.79
0.94
0.83
0.05
0.74
1.46
-1.05
-0.32
-0.48
0.06
0.89

>  <PUBCHEM_SHAPE_SELFOVERLAP>  (1) 
646.589

>  <PUBCHEM_SHAPE_VOLUME>  (1) 
175.6

>  <PUBCHEM_COORDINATE_TYPE>  (1) 
2
5
10

$$$$
