24300
     RDKit          3D

 20 19  0  0  0  0  0  0  0  0999 V2000
    0.7160    0.4232   -0.0677 S   0  0  0  0  0  0  0  0  0  0  0  0
   -0.9014   -0.9188   -0.0736 S   0  0  0  0  0  0  0  0  0  0  0  0
    0.6974    1.1102    1.2128 O   0  0  0  0  0  0  0  0  0  0  0  0
    0.6514    1.1768   -1.3087 O   0  0  0  0  0  0  0  0  0  0  0  0
    4.7528   -0.5740   -0.0700 C   0  0  0  0  0  0  0  0  0  0  0  0
    6.0139    0.2885    0.0092 C   0  0  0  0  0  0  0  0  0  0  0  0
    3.4519    0.2316    0.0162 C   0  0  0  0  0  0  0  0  0  0  0  0
    7.2764   -0.5767    0.0108 C   0  0  0  0  0  0  0  0  0  0  0  0
   -6.1508   -0.5103    0.0726 C   0  0  0  0  0  0  0  0  0  0  0  0
   -4.8494    0.2942    0.0343 C   0  0  0  0  0  0  0  0  0  0  0  0
    2.1680   -0.5758   -0.1206 C   0  0  0  0  0  0  0  0  0  0  0  0
   -7.4070    0.3652    0.1012 C   0  0  0  0  0  0  0  0  0  0  0  0
   -3.6279   -0.6290   -0.0162 C   0  0  0  0  0  0  0  0  0  0  0  0
    8.5408    0.2832    0.0564 C   0  0  0  0  0  0  0  0  0  0  0  0
   -8.7093   -0.4374    0.0650 C   0  0  0  0  0  0  0  0  0  0  0  0
   -2.3336    0.1790   -0.0185 C   0  0  0  0  0  0  0  0  0  0  0  0
    9.8015   -0.5804    0.0240 C   0  0  0  0  0  0  0  0  0  0  0  0
   -9.9273    0.4864    0.0222 C   0  0  0  0  0  0  0  0  0  0  0  0
   11.0605    0.2684    0.1028 C   0  0  0  0  0  0  0  0  0  0  0  0
  -11.2239   -0.3043   -0.0523 C   0  0  0  0  0  0  0  0  0  0  0  0
  1  2  1  0
  1  3  2  0
  1  4  2  0
  1 11  1  0
  2 16  1  0
  5  6  1  0
  5  7  1  0
  6  8  1  0
  7 11  1  0
  8 14  1  0
  9 10  1  0
  9 12  1  0
 10 13  1  0
 12 15  1  0
 13 16  1  0
 14 17  1  0
 15 18  1  0
 17 19  1  0
 18 20  1  0
M  END
>  <PUBCHEM_COMPOUND_CID>  (1) 
24300

>  <PUBCHEM_CONFORMER_RMSD>  (1) 
1.4

>  <PUBCHEM_CONFORMER_DIVERSEORDER>  (1) 
1
66
35
3
80
58
56
61
15
9
30
38
23
82
70
69
77
31
21
51
50
55
27
59
12
74
37
78
28
72
26
81
34
65
54
5
32
91
79
4
43
14
44
42
57
68
67
76
90
88
29
46
92
45
86
20
10
22
95
84
16
85
89
6
93
83
96
19
52
87
18
47
25
94
48
49
39
8
36
11
24
2
73
71
53
60
13
41
40
62
75
63
64
17
33
7

>  <PUBCHEM_MMFF94_PARTIAL_CHARGES>  (1) 
6
1 1.31
11 0.11
16 0.23
2 -0.35
3 -0.65
4 -0.65

>  <PUBCHEM_EFFECTIVE_ROTOR_COUNT>  (1) 
15

>  <PUBCHEM_PHARMACOPHORE_FEATURES>  (1) 
4
1 19 hydrophobe
1 20 hydrophobe
3 5 6 7 hydrophobe
3 8 14 17 hydrophobe

>  <PUBCHEM_HEAVY_ATOM_COUNT>  (1) 
20

>  <PUBCHEM_ATOM_DEF_STEREO_COUNT>  (1) 
0

>  <PUBCHEM_ATOM_UDEF_STEREO_COUNT>  (1) 
0

>  <PUBCHEM_BOND_DEF_STEREO_COUNT>  (1) 
0

>  <PUBCHEM_BOND_UDEF_STEREO_COUNT>  (1) 
0

>  <PUBCHEM_ISOTOPIC_ATOM_COUNT>  (1) 
0

>  <PUBCHEM_COMPONENT_COUNT>  (1) 
1

>  <PUBCHEM_CACTVS_TAUTO_COUNT>  (1) 
1

>  <PUBCHEM_CONFORMER_ID>  (1) 
00005EEC00000001

>  <PUBCHEM_MMFF94_ENERGY>  (1) 
-3.3376

>  <PUBCHEM_FEATURE_SELFOVERLAP>  (1) 
20.312

>  <PUBCHEM_SHAPE_FINGERPRINT>  (1) 
14123256 10 8214144057656841083
14251764 46 18343019990783182674
14251920 1 18411419505298373530
15061470 23 18411417298070669041
15510794 2 18342181063417114175
16120349 18 18408885174320939685
18335252 98 18186518774889025198
22224240 67 14692850293776140565
232437 2 18409166610315656482
23521765 1 18341895190345789287
23581129 1 18409448085244699467
33684 2 18409448085308003002
67123 10 18410856563934763363
8209 1 18413389834905004107
9663363 56 17530964687289091116

>  <PUBCHEM_SHAPE_MULTIPOLES>  (1) 
407.55
43.9
0.92
0.73
6.73
0.01
0.02
-1.31
-1.39
-0.05
0.01
-0.07
0.12
0.02

>  <PUBCHEM_SHAPE_SELFOVERLAP>  (1) 
716.167

>  <PUBCHEM_SHAPE_VOLUME>  (1) 
267.1

>  <PUBCHEM_COORDINATE_TYPE>  (1) 
2
5
10

$$$$
