24317
     RDKit          3D

  9  9  0  0  1  0  0  0  0  0999 V2000
   -0.4505    0.7270    0.5016 C   0  0  0  0  0  0  0  0  0  0  0  0
    1.0921    0.8176    0.3497 C   0  0  0  0  0  0  0  0  0  0  0  0
   -1.0521   -0.4205   -0.3517 C   0  0  0  0  0  0  0  0  0  0  0  0
    1.7411   -0.5421    0.6533 C   0  0  0  0  0  0  0  0  0  0  0  0
   -0.3567   -1.7558   -0.0362 C   0  0  0  0  0  0  0  0  0  0  0  0
    1.1579   -1.6738   -0.1853 C   0  0  0  0  0  0  0  0  0  0  0  0
   -1.1214    2.0775    0.2253 C   0  0  0  0  0  0  0  0  0  0  0  0
    1.5515    1.3494   -1.0143 C   0  0  0  0  0  0  0  0  0  0  0  0
   -2.5618   -0.5792   -0.1423 C   0  0  0  0  0  0  0  0  0  0  0  0
  1  2  1  0
  1  3  1  0
  1  7  1  0
  2  4  1  0
  2  8  1  0
  3  5  1  0
  3  9  1  0
  4  6  1  0
  5  6  1  0
M  END
>  <PUBCHEM_COMPOUND_CID>  (1) 
24317

>  <PUBCHEM_CONFORMER_RMSD>  (1) 
0.4

>  <PUBCHEM_CONFORMER_DIVERSEORDER>  (1) 
1
4
2
3

>  <PUBCHEM_MMFF94_PARTIAL_CHARGES>  (1) 
0

>  <PUBCHEM_EFFECTIVE_ROTOR_COUNT>  (1) 
1.2

>  <PUBCHEM_PHARMACOPHORE_FEATURES>  (1) 
1
6 1 2 3 4 5 6 rings

>  <PUBCHEM_HEAVY_ATOM_COUNT>  (1) 
9

>  <PUBCHEM_ATOM_DEF_STEREO_COUNT>  (1) 
2

>  <PUBCHEM_ATOM_UDEF_STEREO_COUNT>  (1) 
0

>  <PUBCHEM_BOND_DEF_STEREO_COUNT>  (1) 
0

>  <PUBCHEM_BOND_UDEF_STEREO_COUNT>  (1) 
0

>  <PUBCHEM_ISOTOPIC_ATOM_COUNT>  (1) 
0

>  <PUBCHEM_COMPONENT_COUNT>  (1) 
1

>  <PUBCHEM_CACTVS_TAUTO_COUNT>  (1) 
1

>  <PUBCHEM_CONFORMER_ID>  (1) 
00005EFD00000001

>  <PUBCHEM_MMFF94_ENERGY>  (1) 
12.9887

>  <PUBCHEM_FEATURE_SELFOVERLAP>  (1) 
5.074

>  <PUBCHEM_SHAPE_FINGERPRINT>  (1) 
12423570 1 12182993954506528728
137420 1 10945910602950383676
16945 1 18341879780129868282
18185500 45 18267577103512024026
20653085 51 16809838080932375900
21040471 1 18122900103627994298
23552423 10 18336267838474624215
241688 4 17904762180803080114
2748010 2 17980476767610600422
29004967 10 18336261348858103075
4369600 1 18055358195250198093
5084963 1 18201441328777500867
66348 1 17979631565486228867

>  <PUBCHEM_SHAPE_MULTIPOLES>  (1) 
185.22
2.53
2.17
0.85
0.85
0.2
0.07
-0.15
0.14
-0.01
0.1
-0.24
0.16
-0.35

>  <PUBCHEM_SHAPE_SELFOVERLAP>  (1) 
353.414

>  <PUBCHEM_SHAPE_VOLUME>  (1) 
114.5

>  <PUBCHEM_COORDINATE_TYPE>  (1) 
2
5
10

$$$$
