24326
     RDKit          3D

 18 19  0  0  0  0  0  0  0  0999 V2000
    4.0707   -2.9906   -0.3734 Cl  0  0  0  0  0  0  0  0  0  0  0  0
   -6.3619   -0.1493   -0.0334 Cl  0  0  0  0  0  0  0  0  0  0  0  0
    2.4548    2.5997    0.4228 O   0  0  0  0  0  0  0  0  0  0  0  0
    0.1474    1.8104   -0.6061 O   0  0  0  0  0  0  0  0  0  0  0  0
   -0.4614   -0.3267    0.1471 N   0  0  0  0  0  0  0  0  0  0  0  0
    1.8587    0.3287   -0.0705 C   0  0  0  0  0  0  0  0  0  0  0  0
   -1.8767   -0.2843    0.1033 C   0  0  0  0  0  0  0  0  0  0  0  0
    0.4508    0.6800   -0.1951 C   0  0  0  0  0  0  0  0  0  0  0  0
    2.8140    1.2988    0.2334 C   0  0  0  0  0  0  0  0  0  0  0  0
    2.2471   -0.9977   -0.2588 C   0  0  0  0  0  0  0  0  0  0  0  0
   -2.5054    0.8725   -0.3237 C   0  0  0  0  0  0  0  0  0  0  0  0
   -2.5987   -1.4007    0.4891 C   0  0  0  0  0  0  0  0  0  0  0  0
    4.1574    0.9426    0.3489 C   0  0  0  0  0  0  0  0  0  0  0  0
    3.5908   -1.3540   -0.1432 C   0  0  0  0  0  0  0  0  0  0  0  0
    4.5460   -0.3837    0.1605 C   0  0  0  0  0  0  0  0  0  0  0  0
   -3.8989    0.9144   -0.3662 C   0  0  0  0  0  0  0  0  0  0  0  0
   -3.9923   -1.3588    0.4465 C   0  0  0  0  0  0  0  0  0  0  0  0
   -4.6425   -0.2013    0.0187 C   0  0  0  0  0  0  0  0  0  0  0  0
  1 14  1  0
  2 18  1  0
  3  9  1  0
  4  8  2  0
  5  7  1  0
  5  8  1  0
  6  8  1  0
  6  9  2  0
  6 10  1  0
  7 11  2  0
  7 12  1  0
  9 13  1  0
 10 14  2  0
 11 16  1  0
 12 17  2  0
 13 15  2  0
 14 15  1  0
 16 18  2  0
 17 18  1  0
M  END
>  <PUBCHEM_COMPOUND_CID>  (1) 
24326

>  <PUBCHEM_CONFORMER_RMSD>  (1) 
0.6

>  <PUBCHEM_CONFORMER_DIVERSEORDER>  (1) 
3
2
4
5
1

>  <PUBCHEM_MMFF94_PARTIAL_CHARGES>  (1) 
27
1 -0.18
10 -0.15
11 -0.15
12 -0.15
13 -0.15
14 0.18
15 -0.15
16 -0.15
17 -0.15
18 0.18
19 0.37
2 -0.18
20 0.15
21 0.15
22 0.15
23 0.15
24 0.15
25 0.15
26 0.15
27 0.45
3 -0.53
4 -0.57
5 -0.55
6 0.09
7 0.12
8 0.54
9 0.08

>  <PUBCHEM_EFFECTIVE_ROTOR_COUNT>  (1) 
3

>  <PUBCHEM_PHARMACOPHORE_FEATURES>  (1) 
5
1 3 donor
1 4 acceptor
1 5 donor
6 6 9 10 13 14 15 rings
6 7 11 12 16 17 18 rings

>  <PUBCHEM_HEAVY_ATOM_COUNT>  (1) 
18

>  <PUBCHEM_ATOM_DEF_STEREO_COUNT>  (1) 
0

>  <PUBCHEM_ATOM_UDEF_STEREO_COUNT>  (1) 
0

>  <PUBCHEM_BOND_DEF_STEREO_COUNT>  (1) 
0

>  <PUBCHEM_BOND_UDEF_STEREO_COUNT>  (1) 
0

>  <PUBCHEM_ISOTOPIC_ATOM_COUNT>  (1) 
0

>  <PUBCHEM_COMPONENT_COUNT>  (1) 
1

>  <PUBCHEM_CACTVS_TAUTO_COUNT>  (1) 
7

>  <PUBCHEM_CONFORMER_ID>  (1) 
00005F0600000003

>  <PUBCHEM_MMFF94_ENERGY>  (1) 
55.0888

>  <PUBCHEM_FEATURE_SELFOVERLAP>  (1) 
25.371

>  <PUBCHEM_SHAPE_FINGERPRINT>  (1) 
10912923 1 17561368404959769283
11405975 8 18412830192071067915
11471102 20 18412543223857636980
12107183 9 17839753555937230281
12236239 1 17203327827541089743
12596602 18 16486967448844388378
13073987 5 18343585110064405977
13167372 99 18059300860139691249
13167823 11 18272929453471144799
13533116 47 18272369763271099139
13544592 145 18261114045431281159
13675066 3 18187367670573923281
13955234 65 18343017839431939848
14252887 29 18408888438564156266
14341114 176 18412269436524317569
14386348 63 18333732420332036799
14866123 147 17333093023059174594
15196674 1 18409730621320892911
15536298 74 18410855468723442730
17492 89 18339081609106056831
17844677 252 18341338816267178401
1813 80 17022624164973222052
18186145 218 17749382676578780691
19141452 34 18410575124019755495
200 152 18060416924349450603
20281475 54 18337399227703008156
20645477 56 18260265283127187413
20645477 70 18412825759401548366
21065198 57 18410856581457543449
21065199 12 18410011078353574241
21065201 7 17749384858532917587
21267235 1 18409455769083766251
21279426 13 18191863427580669973
221357 26 18409728426592721661
221490 88 18336272331126609954
2215653 11 18408600340806124935
22224240 67 18129367346151680520
23402539 116 18343577452665224821
23557571 272 17676481739779294029
23559900 14 18337951289471462896
239999 70 18333733516218805314
26918003 58 18413387652650122427
2871803 45 18187082819442058362
3004659 81 18041564633650624086
33824 294 18410854361329047906
3421961 26 18341611465534527674
351380 180 18412260645090097079
3545911 37 18410293631208846433
4073 2 18187369886624561323
42 15 18407760347981353821
4214541 1 18410011018493180665
465052 167 18273219668627305222
5104073 3 18340768143687941296
542803 24 13334733523026710879
59755656 215 17895470337576938207
69090 78 18412541041982836015
77779 3 18410012147821399849
9709674 26 18335424611840777275
9971528 1 18260266373637684157
9981440 41 17325774076775903241

>  <PUBCHEM_SHAPE_MULTIPOLES>  (1) 
357.45
12.32
2.25
0.7
10.13
0.46
0
3.32
0.26
-2.94
-0.05
0.03
0.01
0.92

>  <PUBCHEM_SHAPE_SELFOVERLAP>  (1) 
755.166

>  <PUBCHEM_SHAPE_VOLUME>  (1) 
201.9

>  <PUBCHEM_COORDINATE_TYPE>  (1) 
2
5
10

$$$$
