24331
     RDKit          3D

 12 12  0  0  0  0  0  0  0  0999 V2000
   -1.3028   -0.1232    0.0030 O   0  0  0  0  0  0  0  0  0  0  0  0
   -0.5783    2.0618    0.0014 O   0  0  0  0  0  0  0  0  0  0  0  0
    2.3863   -1.6709    0.0009 N   0  0  0  0  0  0  0  0  0  0  0  0
   -3.5624   -0.9131    0.0048 C   0  0  0  0  0  0  0  0  0  0  0  0
   -2.6564    0.3087    0.0036 C   0  0  0  0  0  0  0  0  0  0  0  0
   -5.0306   -0.5276   -0.0098 C   0  0  0  0  0  0  0  0  0  0  0  0
    1.0064    0.2803    0.0001 C   0  0  0  0  0  0  0  0  0  0  0  0
   -0.3604    0.8602    0.0020 C   0  0  0  0  0  0  0  0  0  0  0  0
    2.1017    1.1098   -0.0024 C   0  0  0  0  0  0  0  0  0  0  0  0
    1.1710   -1.0788    0.0015 C   0  0  0  0  0  0  0  0  0  0  0  0
    3.3691    0.5379   -0.0033 C   0  0  0  0  0  0  0  0  0  0  0  0
    3.4566   -0.8450   -0.0015 C   0  0  0  0  0  0  0  0  0  0  0  0
  1  5  1  0
  1  8  1  0
  2  8  2  0
  3 10  2  0
  3 12  1  0
  4  5  1  0
  4  6  1  0
  7  8  1  0
  7  9  2  0
  7 10  1  0
  9 11  1  0
 11 12  2  0
M  END
>  <PUBCHEM_COMPOUND_CID>  (1) 
24331

>  <PUBCHEM_CONFORMER_RMSD>  (1) 
0.6

>  <PUBCHEM_CONFORMER_DIVERSEORDER>  (1) 
1
47
15
20
52
44
10
53
39
22
54
21
28
30
32
46
49
3
27
51
9
40
16
42
26
33
4
34
43
38
23
29
45
19
31
36
50
25
41
2
35
13
8
7
17
12
48
6
18
24
14
37
5
11

>  <PUBCHEM_MMFF94_PARTIAL_CHARGES>  (1) 
14
1 -0.43
10 0.16
11 -0.15
12 0.16
2 -0.57
20 0.15
21 0.15
22 0.15
23 0.15
3 -0.62
5 0.28
7 0.09
8 0.63
9 -0.15

>  <PUBCHEM_EFFECTIVE_ROTOR_COUNT>  (1) 
4

>  <PUBCHEM_PHARMACOPHORE_FEATURES>  (1) 
4
1 2 acceptor
1 3 acceptor
1 6 hydrophobe
6 3 7 9 10 11 12 rings

>  <PUBCHEM_HEAVY_ATOM_COUNT>  (1) 
12

>  <PUBCHEM_ATOM_DEF_STEREO_COUNT>  (1) 
0

>  <PUBCHEM_ATOM_UDEF_STEREO_COUNT>  (1) 
0

>  <PUBCHEM_BOND_DEF_STEREO_COUNT>  (1) 
0

>  <PUBCHEM_BOND_UDEF_STEREO_COUNT>  (1) 
0

>  <PUBCHEM_ISOTOPIC_ATOM_COUNT>  (1) 
0

>  <PUBCHEM_COMPONENT_COUNT>  (1) 
1

>  <PUBCHEM_CACTVS_TAUTO_COUNT>  (1) 
1

>  <PUBCHEM_CONFORMER_ID>  (1) 
00005F0B00000001

>  <PUBCHEM_MMFF94_ENERGY>  (1) 
25.1351

>  <PUBCHEM_FEATURE_SELFOVERLAP>  (1) 
20.297

>  <PUBCHEM_SHAPE_FINGERPRINT>  (1) 
10219947 1 18342178894658362031
11471102 20 18409728486511195757
12032990 46 18410577279486410207
12932764 1 17417798548222239757
14251717 144 18410855486088122991
14252887 29 18059868267551649671
14325111 11 18410856546813078852
15477762 27 18408042909732483518
15757776 16 18334289868458829722
18186145 218 17458059357244013709
20201158 50 18260832609119709003
20279233 1 17822015328220237179
20645477 70 18410853240115925351
20871998 22 18200602384220415990
21501502 16 18265620883643250048
21501925 9 18410849958333078090
22485316 2 18412259558474018159
23402539 116 17749098976772172100
23402655 69 18410571782202513181
23557571 272 17168134633521107445
25610 137 18410293614055506956
276578 36 14333413337086155316
2871803 45 18333729091874937127
33824 294 18408321094537931418
4047638 21 8862942783890020590
581208 293 18410571820698950090

>  <PUBCHEM_SHAPE_MULTIPOLES>  (1) 
230.23
7.84
1.54
0.59
8.22
0.19
0
-2.4
0.02
-0.62
0
0
0
0

>  <PUBCHEM_SHAPE_SELFOVERLAP>  (1) 
468.384

>  <PUBCHEM_SHAPE_VOLUME>  (1) 
134

>  <PUBCHEM_COORDINATE_TYPE>  (1) 
2
5
10

$$$$
