24337
     RDKit          3D

 24 28  0  0  1  0  0  0  0  0999 V2000
    5.0038    0.6990   -1.1384 O   0  0  0  0  0  0  0  0  0  0  0  0
   -0.0553   -0.4235    0.6553 O   0  0  0  0  0  0  0  0  0  0  0  0
    3.9859   -1.0872    0.4224 N   0  0  0  0  0  0  0  0  0  0  0  0
    3.6961    0.2019   -1.4575 C   0  0  0  0  0  0  0  0  0  0  0  0
    3.9151    1.0957   -0.2918 C   0  0  0  0  0  0  0  0  0  0  0  0
    3.3061   -1.1493   -0.8872 C   0  0  0  0  0  0  0  0  0  0  0  0
    3.6499    0.2536    0.9425 C   0  0  0  0  0  0  0  0  0  0  0  0
    1.7768   -1.2206   -0.7062 C   0  0  0  0  0  0  0  0  0  0  0  0
    2.1581    0.3344    1.3220 C   0  0  0  0  0  0  0  0  0  0  0  0
    1.2285   -0.0651    0.1563 C   0  0  0  0  0  0  0  0  0  0  0  0
    3.7639   -2.2036    1.3202 C   0  0  0  0  0  0  0  0  0  0  0  0
   -1.0840   -0.0839   -0.2638 C   0  0  0  0  0  0  0  0  0  0  0  0
   -2.2043   -1.1003   -0.1894 C   0  0  0  0  0  0  0  0  0  0  0  0
   -1.5658    1.3406   -0.0680 C   0  0  0  0  0  0  0  0  0  0  0  0
   -2.9553   -1.3602   -1.3218 C   0  0  0  0  0  0  0  0  0  0  0  0
   -2.0467    2.0435   -1.1571 C   0  0  0  0  0  0  0  0  0  0  0  0
   -2.4511   -1.7451    1.0093 C   0  0  0  0  0  0  0  0  0  0  0  0
   -1.5117    1.9011    1.1946 C   0  0  0  0  0  0  0  0  0  0  0  0
   -3.9873   -2.2962   -1.2531 C   0  0  0  0  0  0  0  0  0  0  0  0
   -2.4897    3.3539   -0.9769 C   0  0  0  0  0  0  0  0  0  0  0  0
   -3.4831   -2.6811    1.0780 C   0  0  0  0  0  0  0  0  0  0  0  0
   -1.9547    3.2114    1.3748 C   0  0  0  0  0  0  0  0  0  0  0  0
   -4.2512   -2.9567   -0.0533 C   0  0  0  0  0  0  0  0  0  0  0  0
   -2.4438    3.9378    0.2889 C   0  0  0  0  0  0  0  0  0  0  0  0
  1  4  1  0
  1  5  1  0
  2 10  1  0
  2 12  1  0
  3  6  1  0
  3  7  1  0
  3 11  1  0
  4  5  1  0
  4  6  1  0
  5  7  1  0
  6  8  1  0
  7  9  1  0
  8 10  1  0
  9 10  1  0
 12 13  1  0
 12 14  1  0
 13 15  2  0
 13 17  1  0
 14 16  2  0
 14 18  1  0
 15 19  1  0
 16 20  1  0
 17 21  2  0
 18 22  2  0
 19 23  2  0
 20 24  2  0
 21 23  1  0
 22 24  1  0
M  END
>  <PUBCHEM_COMPOUND_CID>  (1) 
24337

>  <PUBCHEM_CONFORMER_RMSD>  (1) 
0.8

>  <PUBCHEM_CONFORMER_DIVERSEORDER>  (1) 
1
14
13
9
11
6
18
17
8
10
16
5
12
4
15
7
3
2

>  <PUBCHEM_MMFF94_PARTIAL_CHARGES>  (1) 
34
1 -0.3
10 0.28
11 0.27
12 0.57
13 -0.14
14 -0.14
15 -0.15
16 -0.15
17 -0.15
18 -0.15
19 -0.15
2 -0.56
20 -0.15
21 -0.15
22 -0.15
23 -0.15
24 -0.15
25 0.1
26 0.1
3 -0.81
38 0.15
39 0.15
4 -0.05
40 0.15
41 0.15
42 0.15
43 0.15
44 0.15
45 0.15
46 0.15
47 0.15
5 -0.05
6 0.37
7 0.37

>  <PUBCHEM_EFFECTIVE_ROTOR_COUNT>  (1) 
5

>  <PUBCHEM_PHARMACOPHORE_FEATURES>  (1) 
7
1 1 acceptor
1 2 acceptor
1 3 cation
6 1 3 4 5 6 7 rings
6 13 15 17 19 21 23 rings
6 14 16 18 20 22 24 rings
8 3 4 5 6 7 8 9 10 rings

>  <PUBCHEM_HEAVY_ATOM_COUNT>  (1) 
24

>  <PUBCHEM_ATOM_DEF_STEREO_COUNT>  (1) 
0

>  <PUBCHEM_ATOM_UDEF_STEREO_COUNT>  (1) 
4

>  <PUBCHEM_BOND_DEF_STEREO_COUNT>  (1) 
0

>  <PUBCHEM_BOND_UDEF_STEREO_COUNT>  (1) 
0

>  <PUBCHEM_ISOTOPIC_ATOM_COUNT>  (1) 
0

>  <PUBCHEM_COMPONENT_COUNT>  (1) 
1

>  <PUBCHEM_CACTVS_TAUTO_COUNT>  (1) 
1

>  <PUBCHEM_CONFORMER_ID>  (1) 
00005F1100000001

>  <PUBCHEM_MMFF94_ENERGY>  (1) 
80.8411

>  <PUBCHEM_FEATURE_SELFOVERLAP>  (1) 
38.962

>  <PUBCHEM_SHAPE_FINGERPRINT>  (1) 
10366900 7 18337393867573539818
10670039 82 18192168173276428876
10764073 3 14903734356694388969
11045515 52 18264205988561754655
11101153 10 18192162701266508388
11578080 2 17202745120991516713
12160290 23 18268975523932285673
12173636 292 17982731879176782981
12516196 113 18267304425209129939
12553582 1 18198903793406362791
12714826 92 18131915961526267666
12788726 201 18409442575360880107
13004483 165 18412256272808543695
13224815 77 18060135449151291306
13544653 18 18339358703289355007
13583140 156 17773855563920440930
13681431 1 17977947118357969897
13690498 29 18128560222559444782
13911987 19 17753908412631320478
15842332 3 18040719113287099298
17357779 13 18270669995788370765
17492 89 18409164381645049818
1813 80 18127137587593518143
18222031 100 17986952053959581591
21033648 29 9510641912597189166
21049683 271 17756715496161131677
21120745 212 18267888218443815949
21304303 282 17758637154571058237
21524375 3 17905888076699954289
21641784 216 18262533600858086420
22182313 1 17774990311417761056
22393880 68 18340775845450499894
22907989 373 18341892982917579829
23557571 272 18413393145892247141
23558518 356 18187647955613156458
23559900 14 18188755198393074418
23598288 3 18341329998435426503
283562 15 18408324414542233579
3027735 51 18340199692457075619
312423 11 18334299747416555282
314173 85 18271245048949446363
532947 4 17547573042487250389
53777708 50 18261958453634932346
6049 1 17775001293432664048
6786 2 17624720972146136513
7164475 11 18408599253952512842
7399639 24 18058438980124656600
7615 1 18041277678047243242
81228 2 18409448072955935729
9709674 26 18129940053405946750
9981440 41 17486180376146618874

>  <PUBCHEM_SHAPE_MULTIPOLES>  (1) 
477.19
9.15
4.25
1.49
7.47
2.96
0.01
-4.47
-1.31
-6.81
0.55
0.13
0.02
-0.61

>  <PUBCHEM_SHAPE_SELFOVERLAP>  (1) 
1049.412

>  <PUBCHEM_SHAPE_VOLUME>  (1) 
259.4

>  <PUBCHEM_COORDINATE_TYPE>  (1) 
2
5
10

$$$$
