24354
     RDKit          3D

  7  7  0  0  1  0  0  0  0  0999 V2000
   -0.1557    0.9842   -0.6245 O   0  0  0  0  0  0  0  0  0  0  0  0
    2.0566    0.4409    0.6316 O   0  0  0  0  0  0  0  0  0  0  0  0
   -0.8263   -1.2505   -0.1727 C   0  0  0  0  0  0  0  0  0  0  0  0
   -1.5062   -0.3215    0.8045 C   0  0  0  0  0  0  0  0  0  0  0  0
    0.2698   -0.3755   -0.7502 C   0  0  0  0  0  0  0  0  0  0  0  0
   -1.3922    1.0120    0.1011 C   0  0  0  0  0  0  0  0  0  0  0  0
    1.5539   -0.4896    0.0103 C   0  0  0  0  0  0  0  0  0  0  0  0
  1  5  1  0
  1  6  1  0
  2  7  2  0
  3  4  1  0
  3  5  1  0
  4  6  1  0
  5  7  1  0
M  END
>  <PUBCHEM_COMPOUND_CID>  (1) 
24354

>  <PUBCHEM_CONFORMER_RMSD>  (1) 
0.4

>  <PUBCHEM_CONFORMER_DIVERSEORDER>  (1) 
1
2
3
4

>  <PUBCHEM_MMFF94_PARTIAL_CHARGES>  (1) 
6
1 -0.56
15 0.06
2 -0.57
5 0.34
6 0.28
7 0.45

>  <PUBCHEM_EFFECTIVE_ROTOR_COUNT>  (1) 
2

>  <PUBCHEM_PHARMACOPHORE_FEATURES>  (1) 
3
1 1 acceptor
1 2 acceptor
5 1 3 4 5 6 rings

>  <PUBCHEM_HEAVY_ATOM_COUNT>  (1) 
7

>  <PUBCHEM_ATOM_DEF_STEREO_COUNT>  (1) 
0

>  <PUBCHEM_ATOM_UDEF_STEREO_COUNT>  (1) 
1

>  <PUBCHEM_BOND_DEF_STEREO_COUNT>  (1) 
0

>  <PUBCHEM_BOND_UDEF_STEREO_COUNT>  (1) 
0

>  <PUBCHEM_ISOTOPIC_ATOM_COUNT>  (1) 
0

>  <PUBCHEM_COMPONENT_COUNT>  (1) 
1

>  <PUBCHEM_CACTVS_TAUTO_COUNT>  (1) 
2

>  <PUBCHEM_CONFORMER_ID>  (1) 
00005F2200000001

>  <PUBCHEM_MMFF94_ENERGY>  (1) 
6.6221

>  <PUBCHEM_FEATURE_SELFOVERLAP>  (1) 
15.234

>  <PUBCHEM_SHAPE_FINGERPRINT>  (1) 
20096714 4 17560798792979198370
21040471 1 18119260466947949469
24536 1 17821451248526866950
29004967 10 12901845924909159596
5943 1 10496420547063172479

>  <PUBCHEM_SHAPE_MULTIPOLES>  (1) 
132.32
2.21
1.19
0.87
0.73
0.06
-0.01
-0.22
-0.6
-0.31
0.09
-0.01
-0.01
0.14

>  <PUBCHEM_SHAPE_SELFOVERLAP>  (1) 
260.163

>  <PUBCHEM_SHAPE_VOLUME>  (1) 
80.9

>  <PUBCHEM_COORDINATE_TYPE>  (1) 
2
5
10

$$$$
