24369
     RDKit          3D

 16 16  0  0  0  0  0  0  0  0999 V2000
    5.3600    1.3705   -0.2970 Cl  0  0  0  0  0  0  0  0  0  0  0  0
    2.9192   -2.8162    0.0293 Cl  0  0  0  0  0  0  0  0  0  0  0  0
   -0.2138    1.9675   -0.3778 O   0  0  0  0  0  0  0  0  0  0  0  0
    1.0837    0.2631    0.5153 N   0  0  0  0  0  0  0  0  0  0  0  0
    2.1363    0.5505   -0.2789 N   0  0  0  0  0  0  0  0  0  0  0  0
   -1.1668    0.5706    1.3272 C   0  0  0  0  0  0  0  0  0  0  0  0
   -2.3851    0.1353    0.5579 C   0  0  0  0  0  0  0  0  0  0  0  0
   -3.3684    1.0658    0.2509 C   0  0  0  0  0  0  0  0  0  0  0  0
   -2.5086   -1.1905    0.1655 C   0  0  0  0  0  0  0  0  0  0  0  0
   -0.0612    1.0273    0.3999 C   0  0  0  0  0  0  0  0  0  0  0  0
   -4.4974    0.6626   -0.4622 C   0  0  0  0  0  0  0  0  0  0  0  0
   -3.6376   -1.5935   -0.5477 C   0  0  0  0  0  0  0  0  0  0  0  0
   -4.6320   -0.6668   -0.8616 C   0  0  0  0  0  0  0  0  0  0  0  0
    3.2069   -0.1772   -0.1590 C   0  0  0  0  0  0  0  0  0  0  0  0
    4.3582    0.1416   -1.0850 C   0  0  0  0  0  0  0  0  0  0  0  0
    3.4064   -1.3106    0.8232 C   0  0  0  0  0  0  0  0  0  0  0  0
  1 15  1  0
  2 16  1  0
  3 10  2  0
  4  5  1  0
  4 10  1  0
  5 14  2  3
  6  7  1  0
  6 10  1  0
  7  8  2  0
  7  9  1  0
  8 11  1  0
  9 12  2  0
 11 13  2  0
 12 13  1  0
 14 15  1  0
 14 16  1  0
M  END
>  <PUBCHEM_COMPOUND_CID>  (1) 
24369

>  <PUBCHEM_CONFORMER_RMSD>  (1) 
0.8

>  <PUBCHEM_CONFORMER_DIVERSEORDER>  (1) 
1
18
6
22
19
13
15
24
30
12
3
21
11
2
29
23
20
9
14
17
26
28
7
4
10
16
27
5
25
8

>  <PUBCHEM_MMFF94_PARTIAL_CHARGES>  (1) 
22
1 -0.29
10 0.57
11 -0.15
12 -0.15
13 -0.15
14 0.33
15 0.35
16 0.35
19 0.15
2 -0.29
20 0.15
21 0.15
22 0.15
23 0.37
24 0.15
3 -0.57
4 -0.37
5 -0.51
6 0.2
7 -0.14
8 -0.15
9 -0.15

>  <PUBCHEM_EFFECTIVE_ROTOR_COUNT>  (1) 
6

>  <PUBCHEM_PHARMACOPHORE_FEATURES>  (1) 
4
1 3 acceptor
1 4 donor
1 5 acceptor
6 7 8 9 11 12 13 rings

>  <PUBCHEM_HEAVY_ATOM_COUNT>  (1) 
16

>  <PUBCHEM_ATOM_DEF_STEREO_COUNT>  (1) 
0

>  <PUBCHEM_ATOM_UDEF_STEREO_COUNT>  (1) 
0

>  <PUBCHEM_BOND_DEF_STEREO_COUNT>  (1) 
0

>  <PUBCHEM_BOND_UDEF_STEREO_COUNT>  (1) 
0

>  <PUBCHEM_ISOTOPIC_ATOM_COUNT>  (1) 
0

>  <PUBCHEM_COMPONENT_COUNT>  (1) 
1

>  <PUBCHEM_CACTVS_TAUTO_COUNT>  (1) 
2

>  <PUBCHEM_CONFORMER_ID>  (1) 
00005F3100000001

>  <PUBCHEM_MMFF94_ENERGY>  (1) 
36.4753

>  <PUBCHEM_FEATURE_SELFOVERLAP>  (1) 
20.302

>  <PUBCHEM_SHAPE_FINGERPRINT>  (1) 
10062212 137 18130780141015383863
10366900 7 14333413350102912870
10616163 171 18341335581993521191
11045977 3 11959724993235354095
11046707 91 17917994988048056177
12403259 118 8502377711253962047
12507557 5 9655580677572867967
12916748 109 15574715772788579549
14251718 22 18131351951058899972
14251764 30 13542204779030541884
14528608 73 18337676420771794444
14576447 43 18340764939684711110
15242433 33 18410294692187009859
15295992 7 8430302546309284060
15375358 24 17676493856303704008
15537594 2 18201723985155574343
17834072 33 18131071575699422508
17870717 6 18131362903330779349
1798214 20 18413384337041137567
18186145 218 16153430532091513129
18222031 100 15841544176232496697
200 152 18411702092982947664
20281475 54 18270963440559445008
20645477 56 13695872544837973616
20645477 70 18187929430779647434
20871999 31 18407757049731482533
21054139 6 18340202003281012022
21250096 35 18202278096002477179
21503847 285 10087641503128459126
22485316 2 18411981351524347032
23402539 116 17022617611201345892
23402655 69 18260548896412256924
23403322 49 17989207057966166335
23559900 14 18130496530865102977
2871803 45 18411704275100595318
300161 21 18407755932612737104
3004659 81 18261671468057230706
351380 180 9655576305348557599
351380 3 17846498162294626703
4921388 177 16877951572322022771
54446538 1 8502655904722541303
58051976 100 18411418449300745927
58051976 378 18409172108506486420
633830 44 17168429251055409017
6913067 236 18260817238022697596
9709674 26 18334864866101679498

>  <PUBCHEM_SHAPE_MULTIPOLES>  (1) 
317.18
11.34
2.09
0.99
3.27
1.19
-0.06
0.16
3.15
1.35
0.03
0
-0.01
-0.86

>  <PUBCHEM_SHAPE_SELFOVERLAP>  (1) 
624.123

>  <PUBCHEM_SHAPE_VOLUME>  (1) 
191

>  <PUBCHEM_COORDINATE_TYPE>  (1) 
2
5
10

$$$$
