24364
     RDKit          3D

 11 11  0  0  0  0  0  0  0  0999 V2000
    3.4994   -1.3453   -0.0004 Br  0  0  0  0  0  0  0  0  0  0  0  0
   -1.5684    1.9465   -0.0002 O   0  0  0  0  0  0  0  0  0  0  0  0
   -1.7801   -2.1274   -0.0009 O   0  0  0  0  0  0  0  0  0  0  0  0
   -2.8097   -0.1886    0.0002 O   0  0  0  0  0  0  0  0  0  0  0  0
   -1.7597   -0.8738   -0.0001 N   0  0  0  0  0  0  0  0  0  0  0  0
   -0.5038   -0.2069    0.0009 C   0  0  0  0  0  0  0  0  0  0  0  0
   -0.4366    1.1863    0.0001 C   0  0  0  0  0  0  0  0  0  0  0  0
    0.6692   -0.9618    0.0010 C   0  0  0  0  0  0  0  0  0  0  0  0
    0.8036    1.8246   -0.0004 C   0  0  0  0  0  0  0  0  0  0  0  0
    1.9094   -0.3234    0.0002 C   0  0  0  0  0  0  0  0  0  0  0  0
    1.9766    1.0698   -0.0003 C   0  0  0  0  0  0  0  0  0  0  0  0
  1 10  1  0
  2  7  1  0
  3  5  1  0
  4  5  2  0
  5  6  1  0
  6  7  2  0
  6  8  1  0
  7  9  1  0
  8 10  2  0
  9 11  2  0
 10 11  1  0
M  CHG  2   3  -1   5   1
M  END
>  <PUBCHEM_COMPOUND_CID>  (1) 
24364

>  <PUBCHEM_CONFORMER_RMSD>  (1) 
0.4

>  <PUBCHEM_CONFORMER_DIVERSEORDER>  (1) 
1

>  <PUBCHEM_MMFF94_PARTIAL_CHARGES>  (1) 
15
1 -0.11
10 0.11
11 -0.15
12 0.15
13 0.15
14 0.15
15 0.45
2 -0.53
3 -0.52
4 -0.52
5 0.91
6 0.13
7 0.08
8 -0.15
9 -0.15

>  <PUBCHEM_EFFECTIVE_ROTOR_COUNT>  (1) 
1

>  <PUBCHEM_PHARMACOPHORE_FEATURES>  (1) 
6
1 1 hydrophobe
1 2 donor
1 3 acceptor
1 3 anion
1 4 acceptor
6 6 7 8 9 10 11 rings

>  <PUBCHEM_HEAVY_ATOM_COUNT>  (1) 
11

>  <PUBCHEM_ATOM_DEF_STEREO_COUNT>  (1) 
0

>  <PUBCHEM_ATOM_UDEF_STEREO_COUNT>  (1) 
0

>  <PUBCHEM_BOND_DEF_STEREO_COUNT>  (1) 
0

>  <PUBCHEM_BOND_UDEF_STEREO_COUNT>  (1) 
0

>  <PUBCHEM_ISOTOPIC_ATOM_COUNT>  (1) 
0

>  <PUBCHEM_COMPONENT_COUNT>  (1) 
1

>  <PUBCHEM_CACTVS_TAUTO_COUNT>  (1) 
4

>  <PUBCHEM_CONFORMER_ID>  (1) 
00005F2C00000001

>  <PUBCHEM_MMFF94_ENERGY>  (1) 
33.5534

>  <PUBCHEM_FEATURE_SELFOVERLAP>  (1) 
30.528

>  <PUBCHEM_SHAPE_FINGERPRINT>  (1) 
12423570 1 12096325105234687400
14128692 85 18409454691394874814
16945 1 18410856576930532484
193761 8 18410574015485689284
20871998 184 18129095632955424326
21040471 1 18050285869144283744
21501502 16 18411423907977630956
23552423 10 18261395614991847708
23559900 14 18126001560824094286
241688 4 18408040684876445672
2748010 2 18266457804938312406
29004967 10 18192995052225146305
5084963 1 18273215287675773226

>  <PUBCHEM_SHAPE_MULTIPOLES>  (1) 
209.73
4.14
2.13
0.6
1.9
0.17
0
-1.76
0
-0.56
0
0.12
0
0

>  <PUBCHEM_SHAPE_SELFOVERLAP>  (1) 
428.104

>  <PUBCHEM_SHAPE_VOLUME>  (1) 
125.2

>  <PUBCHEM_COORDINATE_TYPE>  (1) 
2
5
10

$$$$
