24368
     RDKit          3D

 13 12  0  0  0  0  0  0  0  0999 V2000
    3.1548   -0.2166   -1.5465 Cl  0  0  0  0  0  0  0  0  0  0  0  0
   -1.2627    2.1950   -1.7408 Cl  0  0  0  0  0  0  0  0  0  0  0  0
   -1.7031   -0.8068    1.3212 O   0  0  0  0  0  0  0  0  0  0  0  0
   -1.3691   -1.9810   -0.6532 N   0  0  0  0  0  0  0  0  0  0  0  0
   -2.4820   -2.7742   -0.4647 N   0  0  0  0  0  0  0  0  0  0  0  0
    0.1818   -0.2040   -0.0798 C   0  0  0  0  0  0  0  0  0  0  0  0
    1.4349   -0.9166    0.4792 C   0  0  0  0  0  0  0  0  0  0  0  0
    0.0469    1.2327    0.4738 C   0  0  0  0  0  0  0  0  0  0  0  0
   -1.0587   -1.0223    0.2957 C   0  0  0  0  0  0  0  0  0  0  0  0
    2.7379   -0.2490    0.1339 C   0  0  0  0  0  0  0  0  0  0  0  0
   -1.1607    1.9793   -0.0257 C   0  0  0  0  0  0  0  0  0  0  0  0
    3.5828    0.2611    1.0383 C   0  0  0  0  0  0  0  0  0  0  0  0
   -2.1027    2.5022    0.7686 C   0  0  0  0  0  0  0  0  0  0  0  0
  1 10  1  0
  2 11  1  0
  3  9  2  0
  4  5  1  0
  4  9  1  0
  6  7  1  0
  6  8  1  0
  6  9  1  0
  7 10  1  0
  8 11  1  0
 10 12  2  0
 11 13  2  0
M  END
>  <PUBCHEM_COMPOUND_CID>  (1) 
24368

>  <PUBCHEM_CONFORMER_RMSD>  (1) 
0.6

>  <PUBCHEM_CONFORMER_DIVERSEORDER>  (1) 
1
28
175
150
122
161
172
86
100
57
154
144
170
131
107
176
162
133
49
132
46
180
90
171
14
168
101
145
139
181
102
143
5
114
68
71
182
112
156
124
174
185
44
98
152
177
163
160
65
72
33
63
50
77
167
147
43
151
158
21
148
56
105
61
153
18
55
166
87
92
53
22
93
9
96
109
88
36
52
95
23
64
123
157
115
66
35
169
6
125
89
45
79
26
41
84
78
69
83
179
27
24
103
67
70
159
129
121
39
76
82
13
75
178
4
117
111
183
91
38
99
85
97
80
134
30
32
59
62
54
184
74
42
140
119
146
58
130
31
138
73
40
120
164
173
81
110
149
108
155
127
19
34
118
7
137
104
3
94
142
20
128
2
126
48
136
17
116
165
37
11
106
135
51
113
8
15
47
10
16
60
141
12
25
29

>  <PUBCHEM_MMFF94_PARTIAL_CHARGES>  (1) 
18
1 -0.14
12 -0.3
13 -0.3
19 0.37
2 -0.14
20 0.15
21 0.15
22 0.15
23 0.15
24 0.36
25 0.36
3 -0.57
4 -0.42
5 -0.73
6 0.06
7 0.14
8 0.14
9 0.57

>  <PUBCHEM_EFFECTIVE_ROTOR_COUNT>  (1) 
6

>  <PUBCHEM_PHARMACOPHORE_FEATURES>  (1) 
3
1 3 acceptor
1 4 donor
1 5 donor

>  <PUBCHEM_HEAVY_ATOM_COUNT>  (1) 
13

>  <PUBCHEM_ATOM_DEF_STEREO_COUNT>  (1) 
0

>  <PUBCHEM_ATOM_UDEF_STEREO_COUNT>  (1) 
0

>  <PUBCHEM_BOND_DEF_STEREO_COUNT>  (1) 
0

>  <PUBCHEM_BOND_UDEF_STEREO_COUNT>  (1) 
0

>  <PUBCHEM_ISOTOPIC_ATOM_COUNT>  (1) 
0

>  <PUBCHEM_COMPONENT_COUNT>  (1) 
1

>  <PUBCHEM_CACTVS_TAUTO_COUNT>  (1) 
2

>  <PUBCHEM_CONFORMER_ID>  (1) 
00005F3000000001

>  <PUBCHEM_MMFF94_ENERGY>  (1) 
18.6047

>  <PUBCHEM_FEATURE_SELFOVERLAP>  (1) 
16.735

>  <PUBCHEM_SHAPE_FINGERPRINT>  (1) 
1 1 17545595660865404063
11322862 65 18198920114350269903
12138202 97 18266171747516190740
12932764 1 18342749498644730418
13764800 53 18340776931528924392
14614273 12 18261664892240332180
14817 1 13244600808073726561
16945 1 18341339941279175451
18186145 218 17912076153805607128
18380122 1 17774153643214201186
18410436 195 18051966210790184151
20653085 51 16700608987740132888
20671657 53 18050837020849339119
20711985 344 18410585001932774790
20871998 184 18338813225162335945
21028194 46 17975414607655125208
21296965 12 17972319512419037661
21524375 3 17973725766221135785
22112679 90 17839212892711623067
23211744 41 17247247600401153009
23419403 2 17341493661394485137
23557571 272 18341890861514484292
23559900 14 18056760928577572294
2748010 2 18049735013723471707
458136 41 17549008579571272305
6333449 129 18340481167042889504
7364860 26 17261310813702858111
81228 2 18408325505368688923
88987 49 18410858720662499788

>  <PUBCHEM_SHAPE_MULTIPOLES>  (1) 
255.44
4.66
2.83
1.4
4.36
1.25
0.45
-0.99
-0.03
-3.53
0.54
0.2
-0.47
-0.01

>  <PUBCHEM_SHAPE_SELFOVERLAP>  (1) 
472.574

>  <PUBCHEM_SHAPE_VOLUME>  (1) 
161.7

>  <PUBCHEM_COORDINATE_TYPE>  (1) 
2
5
10

$$$$
