24367
     RDKit          3D

 19 19  0  0  0  0  0  0  0  0999 V2000
    0.3715   -2.4416   -1.8237 Cl  0  0  0  0  0  0  0  0  0  0  0  0
    3.6516    1.7912   -1.4597 Cl  0  0  0  0  0  0  0  0  0  0  0  0
    0.3018    0.8358   -1.3357 O   0  0  0  0  0  0  0  0  0  0  0  0
    2.1962   -0.6834    0.0147 N   0  0  0  0  0  0  0  0  0  0  0  0
    1.1607   -0.0078    0.6524 N   0  0  0  0  0  0  0  0  0  0  0  0
   -0.7929    1.3786    0.7547 C   0  0  0  0  0  0  0  0  0  0  0  0
    2.0975   -2.1162    0.2854 C   0  0  0  0  0  0  0  0  0  0  0  0
    3.4841   -0.1590    0.4644 C   0  0  0  0  0  0  0  0  0  0  0  0
   -2.1931    0.9353    0.4226 C   0  0  0  0  0  0  0  0  0  0  0  0
    0.2653    0.7244   -0.1126 C   0  0  0  0  0  0  0  0  0  0  0  0
   -2.9245    1.6359   -0.5262 C   0  0  0  0  0  0  0  0  0  0  0  0
   -2.7322   -0.1677    1.0698 C   0  0  0  0  0  0  0  0  0  0  0  0
    0.7887   -2.6971   -0.1610 C   0  0  0  0  0  0  0  0  0  0  0  0
    3.6287    1.3114    0.2055 C   0  0  0  0  0  0  0  0  0  0  0  0
   -4.2215    1.2252   -0.8340 C   0  0  0  0  0  0  0  0  0  0  0  0
   -4.0292   -0.5784    0.7619 C   0  0  0  0  0  0  0  0  0  0  0  0
   -4.7738    0.1182   -0.1901 C   0  0  0  0  0  0  0  0  0  0  0  0
   -0.0653   -3.3365    0.6475 C   0  0  0  0  0  0  0  0  0  0  0  0
    3.7865    2.2320    1.1643 C   0  0  0  0  0  0  0  0  0  0  0  0
  1 13  1  0
  2 14  1  0
  3 10  2  0
  4  5  1  0
  4  7  1  0
  4  8  1  0
  5 10  1  0
  6  9  1  0
  6 10  1  0
  7 13  1  0
  8 14  1  0
  9 11  2  0
  9 12  1  0
 11 15  1  0
 12 16  2  0
 13 18  2  0
 14 19  2  0
 15 17  2  0
 16 17  1  0
M  END
>  <PUBCHEM_COMPOUND_CID>  (1) 
24367

>  <PUBCHEM_CONFORMER_RMSD>  (1) 
0.8

>  <PUBCHEM_CONFORMER_DIVERSEORDER>  (1) 
2
259
184
56
202
34
97
252
249
74
180
79
65
103
146
163
98
218
51
32
40
190
164
253
240
96
220
12
234
225
257
200
213
10
171
204
49
174
123
106
137
186
102
214
162
132
188
248
112
60
22
169
68
15
81
206
84
118
134
67
250
247
55
16
71
183
104
170
114
156
166
194
232
8
172
109
241
201
203
100
135
192
26
255
144
191
228
24
178
93
239
149
185
216
90
208
111
92
48
251
189
108
99
196
4
151
70
9
80
78
139
211
142
119
38
199
167
3
145
165
209
120
238
244
237
245
159
133
154
82
221
52
107
45
19
140
28
73
161
57
177
222
87
143
113
36
61
155
127
17
83
88
224
256
43
21
66
136
187
223
18
122
179
35
54
210
207
77
193
117
246
47
116
176
148
205
128
76
110
215
243
33
85
121
101
95
173
212
198
158
126
130
59
11
157
1
181
86
138
195
125
182
44
226
124
64
150
69
94
13
6
152
37
233
58
7
147
27
129
227
258
217
5
14
197
168
50
25
231
219
39
75
115
153
235
62
20
230
160
29
63
175
141
242
31
23
72
236
46
131
229
260
42
91
41
89
53
30
254
105

>  <PUBCHEM_MMFF94_PARTIAL_CHARGES>  (1) 
27
1 -0.14
10 0.57
11 -0.15
12 -0.15
15 -0.15
16 -0.15
17 -0.15
18 -0.3
19 -0.3
2 -0.14
26 0.37
27 0.15
28 0.15
29 0.15
3 -0.57
30 0.15
31 0.15
32 0.15
33 0.15
34 0.15
35 0.15
4 -0.55
5 -0.42
6 0.2
7 0.41
8 0.41
9 -0.14

>  <PUBCHEM_EFFECTIVE_ROTOR_COUNT>  (1) 
8

>  <PUBCHEM_PHARMACOPHORE_FEATURES>  (1) 
3
1 3 acceptor
1 5 donor
6 9 11 12 15 16 17 rings

>  <PUBCHEM_HEAVY_ATOM_COUNT>  (1) 
19

>  <PUBCHEM_ATOM_DEF_STEREO_COUNT>  (1) 
0

>  <PUBCHEM_ATOM_UDEF_STEREO_COUNT>  (1) 
0

>  <PUBCHEM_BOND_DEF_STEREO_COUNT>  (1) 
0

>  <PUBCHEM_BOND_UDEF_STEREO_COUNT>  (1) 
0

>  <PUBCHEM_ISOTOPIC_ATOM_COUNT>  (1) 
0

>  <PUBCHEM_COMPONENT_COUNT>  (1) 
1

>  <PUBCHEM_CACTVS_TAUTO_COUNT>  (1) 
2

>  <PUBCHEM_CONFORMER_ID>  (1) 
00005F2F00000002

>  <PUBCHEM_MMFF94_ENERGY>  (1) 
34.4613

>  <PUBCHEM_FEATURE_SELFOVERLAP>  (1) 
15.223

>  <PUBCHEM_SHAPE_FINGERPRINT>  (1) 
11370993 70 18335697247811170379
12596602 18 17488764336774510035
12788726 201 17397836056127446572
14787075 74 18058442274090181393
15375358 24 18186800253923131449
17138139 8 17485046973533382215
204376 136 18341330093082903904
20645477 70 18200024024419942495
21524375 3 18341896294658942522
22620623 9 17628088003104513302
23227448 37 18050851323259181388
23419403 2 16374351989141490178
23557571 272 17241330157964633989
23558518 356 18122355570536991497
23559900 14 18192420883833154112
3060560 45 18411139104775598228
33824 294 18410008819127001547
474229 33 18340203093500896667
495365 180 18268126700502143857
5262128 65 17626111841122548935
58051976 378 18410856525280129189
633830 44 17703803517087178448
6438718 38 17771632526875385966
81228 2 17763727081642692762
81539 233 18410012113277253183
8272917 22 18199187295871036893
9709674 26 18193839241443870707
9971528 1 11891328768559928424

>  <PUBCHEM_SHAPE_MULTIPOLES>  (1) 
378.92
8.35
3.23
1.32
4.08
2.86
-0.43
-5.17
0.18
-1.97
-0.21
-0.36
0.02
0.45

>  <PUBCHEM_SHAPE_SELFOVERLAP>  (1) 
749.212

>  <PUBCHEM_SHAPE_VOLUME>  (1) 
227.1

>  <PUBCHEM_COORDINATE_TYPE>  (1) 
2
5
10

$$$$
