24376
     RDKit          3D

 21 21  0  0  1  0  0  0  0  0999 V2000
   -3.7420    0.1697    0.5226 P   0  0  0  0  0  0  0  0  0  0  0  0
    1.0637    1.4003    0.2938 O   0  0  0  0  0  0  0  0  0  0  0  0
   -2.8830   -0.9579   -0.2300 O   0  0  0  0  0  0  0  0  0  0  0  0
   -5.2468   -0.4310    0.5157 O   0  0  0  0  0  0  0  0  0  0  0  0
   -3.8106    1.3520   -0.5832 O   0  0  0  0  0  0  0  0  0  0  0  0
    1.1090    0.0680   -1.5909 O   0  0  0  0  0  0  0  0  0  0  0  0
   -3.2252    0.5860    1.8702 O   0  0  0  0  0  0  0  0  0  0  0  0
    2.4478    1.7191    0.1143 C   0  0  0  0  0  0  0  0  0  0  0  0
    3.2616    0.4480    0.1636 C   0  0  0  0  0  0  0  0  0  0  0  0
    2.8835    2.7192    1.1794 C   0  0  0  0  0  0  0  0  0  0  0  0
    2.8332   -0.6020    0.9599 C   0  0  0  0  0  0  0  0  0  0  0  0
    4.4220    0.3554   -0.5882 C   0  0  0  0  0  0  0  0  0  0  0  0
    3.5853   -1.7758    1.0055 C   0  0  0  0  0  0  0  0  0  0  0  0
    5.1740   -0.8185   -0.5425 C   0  0  0  0  0  0  0  0  0  0  0  0
    4.7556   -1.8841    0.2543 C   0  0  0  0  0  0  0  0  0  0  0  0
    0.5304    0.5627   -0.6371 C   0  0  0  0  0  0  0  0  0  0  0  0
   -1.5560   -0.7779   -0.5649 C   0  0  0  0  0  0  0  0  0  0  0  0
   -0.8938    0.3548   -0.2830 C   0  0  0  0  0  0  0  0  0  0  0  0
   -0.9080   -1.9334   -1.2647 C   0  0  0  0  0  0  0  0  0  0  0  0
   -5.5128   -1.5912    1.2847 C   0  0  0  0  0  0  0  0  0  0  0  0
   -4.2879    1.0366   -1.8794 C   0  0  0  0  0  0  0  0  0  0  0  0
  1  3  1  0
  1  4  1  0
  1  5  1  0
  1  7  2  0
  2  8  1  0
  2 16  1  0
  3 17  1  0
  4 20  1  0
  5 21  1  0
  6 16  2  0
  8  9  1  0
  8 10  1  0
  9 11  2  0
  9 12  1  0
 11 13  1  0
 12 14  2  0
 13 15  2  0
 14 15  1  0
 16 18  1  0
 17 18  2  0
 17 19  1  0
M  END
>  <PUBCHEM_COMPOUND_CID>  (1) 
24376

>  <PUBCHEM_CONFORMER_RMSD>  (1) 
1

>  <PUBCHEM_CONFORMER_DIVERSEORDER>  (1) 
4
299
308
74
305
218
177
240
382
119
433
409
10
200
527
410
136
127
178
504
185
3
117
144
56
122
385
189
22
96
45
591
447
371
438
354
314
171
13
91
163
355
349
358
547
66
20
348
92
295
234
390
340
502
576
204
87
235
428
397
106
444
246
95
375
551
86
206
138
436
167
46
68
16
249
369
162
485
389
393
169
191
460
79
313
513
89
143
182
581
531
496
298
262
62
525
107
35
27
103
40
173
361
158
80
263
160
11
561
32
320
151
374
48
51
281
203
477
7
61
194
34
155
570
413
129
39
247
2
44
486
69
50
548
184
73
573
199
466
9
1
176
5
159
165
442
362
253
285
121
38
6
77
450
520
406

>  <PUBCHEM_MMFF94_PARTIAL_CHARGES>  (1) 
26
1 1.51
11 -0.15
12 -0.15
13 -0.15
14 -0.15
15 -0.15
16 0.71
17 -0.06
18 -0.14
19 0.14
2 -0.43
20 0.28
21 0.28
26 0.15
27 0.15
28 0.15
29 0.15
3 -0.35
30 0.15
31 0.15
4 -0.55
5 -0.55
6 -0.57
7 -0.7
8 0.42
9 -0.14

>  <PUBCHEM_EFFECTIVE_ROTOR_COUNT>  (1) 
8

>  <PUBCHEM_PHARMACOPHORE_FEATURES>  (1) 
3
1 6 acceptor
1 7 acceptor
6 9 11 12 13 14 15 rings

>  <PUBCHEM_HEAVY_ATOM_COUNT>  (1) 
21

>  <PUBCHEM_ATOM_DEF_STEREO_COUNT>  (1) 
0

>  <PUBCHEM_ATOM_UDEF_STEREO_COUNT>  (1) 
0

>  <PUBCHEM_BOND_DEF_STEREO_COUNT>  (1) 
0

>  <PUBCHEM_BOND_UDEF_STEREO_COUNT>  (1) 
1

>  <PUBCHEM_ISOTOPIC_ATOM_COUNT>  (1) 
0

>  <PUBCHEM_COMPONENT_COUNT>  (1) 
1

>  <PUBCHEM_CACTVS_TAUTO_COUNT>  (1) 
1

>  <PUBCHEM_CONFORMER_ID>  (1) 
00005F3800000004

>  <PUBCHEM_MMFF94_ENERGY>  (1) 
51.6185

>  <PUBCHEM_FEATURE_SELFOVERLAP>  (1) 
15.223

>  <PUBCHEM_SHAPE_FINGERPRINT>  (1) 
11545043 162 18113616772662990905
12166972 35 18342453777298655925
12403259 415 18335697261060458861
12507560 40 18333726944544257021
12553582 1 18341602690958299630
12596602 18 18341901817680800795
12616971 3 17346881169618130633
12633257 1 17917993888330765213
128620 24 7853572430705048724
13533116 47 18337112358126366603
13583140 156 18335693975278166853
13675066 3 18187640332072150629
14178342 30 17835784671517548120
14251764 30 18188215286728904314
14341114 176 18340775921931703499
14573314 32 17603583010998444269
15375462 189 18335978697498294018
17349148 13 17489586766322303141
17844677 252 17822298976160437860
1813 80 16877940555387711796
192875 21 17275096241362841729
19489759 90 15769768035775304351
20645477 70 18412547621956843756
20832881 197 18263638481537321218
21033648 29 18261377962792909845
23402539 116 17275382097559420501
23557571 272 13623516962112113910
23559900 14 17240769536010074389
268830 7 17632294635449751873
345986 75 18268701711082175890
351380 180 13326851124056746274
465052 167 18413114956903420062
5104073 3 17845654892642223131
59755656 215 17821723910906140323
8863177 126 18260835950483310154
90127 26 17603307059186743533

>  <PUBCHEM_SHAPE_MULTIPOLES>  (1) 
400.8
12.36
2.16
1.46
6.35
0.35
0.06
-3.36
-1.93
-1.46
-0.45
1.21
0.07
0.96

>  <PUBCHEM_SHAPE_SELFOVERLAP>  (1) 
801.176

>  <PUBCHEM_SHAPE_VOLUME>  (1) 
237.4

>  <PUBCHEM_COORDINATE_TYPE>  (1) 
2
5
10

$$$$
