24371
     RDKit          3D

 18 19  0  0  1  0  0  0  0  0999 V2000
   -4.4874   -0.6191    0.0384 O   0  0  0  0  0  0  0  0  0  0  0  0
   -4.2330    1.6377    0.3000 O   0  0  0  0  0  0  0  0  0  0  0  0
   -1.7034   -0.5280   -0.7181 C   0  0  0  0  0  0  0  0  0  0  0  0
   -0.2139   -0.8780   -0.4271 C   0  0  0  0  0  0  0  0  0  0  0  0
   -2.3134    0.2231    0.4835 C   0  0  0  0  0  0  0  0  0  0  0  0
    0.5546    0.2992    0.1583 C   0  0  0  0  0  0  0  0  0  0  0  0
   -1.5528    1.5112    0.8102 C   0  0  0  0  0  0  0  0  0  0  0  0
   -0.1082   -2.0870    0.5153 C   0  0  0  0  0  0  0  0  0  0  0  0
   -1.8169    0.2603   -2.0356 C   0  0  0  0  0  0  0  0  0  0  0  0
   -0.0624    1.3679    0.6983 C   0  0  0  0  0  0  0  0  0  0  0  0
   -3.7707    0.5071    0.2682 C   0  0  0  0  0  0  0  0  0  0  0  0
    2.0315    0.2818    0.0735 C   0  0  0  0  0  0  0  0  0  0  0  0
   -0.8352   -3.2859   -0.0538 C   0  0  0  0  0  0  0  0  0  0  0  0
    2.7840   -0.2445    1.1234 C   0  0  0  0  0  0  0  0  0  0  0  0
    2.6711    0.7914   -1.0563 C   0  0  0  0  0  0  0  0  0  0  0  0
    4.1764   -0.2608    1.0437 C   0  0  0  0  0  0  0  0  0  0  0  0
    4.0637    0.7750   -1.1360 C   0  0  0  0  0  0  0  0  0  0  0  0
    4.8162    0.2488   -0.0860 C   0  0  0  0  0  0  0  0  0  0  0  0
  1 11  1  0
  2 11  2  0
  3  4  1  0
  3  5  1  0
  3  9  1  0
  4  6  1  0
  4  8  1  0
  5  7  1  0
  5 11  1  0
  6 10  2  0
  6 12  1  0
  7 10  1  0
  8 13  1  0
 12 14  2  0
 12 15  1  0
 14 16  1  0
 15 17  2  0
 16 18  2  0
 17 18  1  0
M  END
>  <PUBCHEM_COMPOUND_CID>  (1) 
24371

>  <PUBCHEM_CONFORMER_RMSD>  (1) 
0.6

>  <PUBCHEM_CONFORMER_DIVERSEORDER>  (1) 
6
22
30
18
20
28
24
5
35
3
31
21
10
14
9
25
15
27
17
32
29
7
33
34
19
4
11
2
23
12
8
16
13
26
1

>  <PUBCHEM_MMFF94_PARTIAL_CHARGES>  (1) 
21
1 -0.65
10 -0.29
11 0.66
12 0.03
14 -0.15
15 -0.15
16 -0.15
17 -0.15
18 -0.15
2 -0.57
29 0.15
33 0.15
34 0.15
35 0.5
36 0.15
37 0.15
38 0.15
4 0.14
5 0.06
6 -0.17
7 0.14

>  <PUBCHEM_EFFECTIVE_ROTOR_COUNT>  (1) 
3.8

>  <PUBCHEM_PHARMACOPHORE_FEATURES>  (1) 
6
1 1 acceptor
1 13 hydrophobe
1 2 acceptor
3 1 2 11 anion
6 12 14 15 16 17 18 rings
6 3 4 5 6 7 10 rings

>  <PUBCHEM_HEAVY_ATOM_COUNT>  (1) 
18

>  <PUBCHEM_ATOM_DEF_STEREO_COUNT>  (1) 
0

>  <PUBCHEM_ATOM_UDEF_STEREO_COUNT>  (1) 
3

>  <PUBCHEM_BOND_DEF_STEREO_COUNT>  (1) 
0

>  <PUBCHEM_BOND_UDEF_STEREO_COUNT>  (1) 
0

>  <PUBCHEM_ISOTOPIC_ATOM_COUNT>  (1) 
0

>  <PUBCHEM_COMPONENT_COUNT>  (1) 
1

>  <PUBCHEM_CACTVS_TAUTO_COUNT>  (1) 
1

>  <PUBCHEM_CONFORMER_ID>  (1) 
00005F3300000006

>  <PUBCHEM_MMFF94_ENERGY>  (1) 
44.8262

>  <PUBCHEM_FEATURE_SELFOVERLAP>  (1) 
30.5

>  <PUBCHEM_SHAPE_FINGERPRINT>  (1) 
11132069 177 17775563139173477049
11578080 2 17681515386164633988
12119455 92 17894346670530499455
12173636 292 18410011061026148492
12236239 1 18260550018015841288
12403814 3 17531240686340703031
12592029 89 17749387023175621906
13538477 17 18335142046274150082
13581323 91 18342736304325667064
13583140 156 17095529542668978017
13675066 3 18131068233845354256
14115302 16 18337114561544523516
14943859 89 17989207040248103380
15209289 33 18343580776479372707
15309172 13 18260265235196848895
15375358 24 17275101752116780640
15775835 57 17894916256319162828
16752209 62 18267296706541086426
16945 1 17561083596666528057
18186145 218 18340194271886152884
19784866 9 18338516318484305409
19873495 37 18131912641864753071
200 152 17603302656802820144
20028762 73 17844248652089628175
20279233 1 16200436875310103276
20600515 1 18199731678997557304
20645476 183 18262244411966669366
22854114 59 15140681388691717772
23366157 5 17901679158746883547
23402539 116 18273490169951712924
23557571 272 16773218712719087990
23559900 14 18201441407099768352
34934 24 17916862414215956593
4340502 62 18337118873987120467
43471831 8 18339924792579163211
465052 167 17749400294851335355
58051976 100 18040721419547523414
633830 44 18060134332228088573
69090 78 18040434416815878250
7364860 26 17841152156176717063
74978 22 18338233898720316736
81228 2 17631472110779421624
81539 233 18265052436179032663
8272917 22 17386567942716399434

>  <PUBCHEM_SHAPE_MULTIPOLES>  (1) 
358.69
8.2
2.01
1.26
2.75
1.93
0.44
-2.34
-0.2
-1.32
-0.21
0.27
-0.2
-0.69

>  <PUBCHEM_SHAPE_SELFOVERLAP>  (1) 
752.065

>  <PUBCHEM_SHAPE_VOLUME>  (1) 
201

>  <PUBCHEM_COORDINATE_TYPE>  (1) 
2
5
10

$$$$
