24370
     RDKit          3D

 13 14  0  0  0  0  0  0  0  0999 V2000
    0.2949   -2.2840    0.0021 O   0  0  0  0  0  0  0  0  0  0  0  0
    2.1891    0.0906    1.0903 N   0  0  0  0  0  0  0  0  0  0  0  0
    1.5611   -0.2910   -0.0349 C   0  0  0  0  0  0  0  0  0  0  0  0
   -0.9890   -0.3507   -0.0034 C   0  0  0  0  0  0  0  0  0  0  0  0
    0.2895   -1.0435   -0.0069 C   0  0  0  0  0  0  0  0  0  0  0  0
    2.2420    0.1013   -1.1298 C   0  0  0  0  0  0  0  0  0  0  0  0
   -1.0267    1.0437   -0.0137 C   0  0  0  0  0  0  0  0  0  0  0  0
   -2.1778   -1.0804    0.0098 C   0  0  0  0  0  0  0  0  0  0  0  0
    3.3290    0.7601    0.7288 C   0  0  0  0  0  0  0  0  0  0  0  0
    3.3869    0.7821   -0.6472 C   0  0  0  0  0  0  0  0  0  0  0  0
   -2.2530    1.7085   -0.0106 C   0  0  0  0  0  0  0  0  0  0  0  0
   -3.4041   -0.4156    0.0128 C   0  0  0  0  0  0  0  0  0  0  0  0
   -3.4416    0.9788    0.0026 C   0  0  0  0  0  0  0  0  0  0  0  0
  1  5  2  0
  2  3  1  0
  2  9  1  0
  3  5  1  0
  3  6  2  0
  4  5  1  0
  4  7  2  0
  4  8  1  0
  6 10  1  0
  7 11  1  0
  8 12  2  0
  9 10  2  0
 11 13  2  0
 12 13  1  0
M  END
>  <PUBCHEM_COMPOUND_CID>  (1) 
24370

>  <PUBCHEM_CONFORMER_RMSD>  (1) 
0.6

>  <PUBCHEM_CONFORMER_DIVERSEORDER>  (1) 
1
2

>  <PUBCHEM_MMFF94_PARTIAL_CHARGES>  (1) 
22
1 -0.57
10 -0.15
11 -0.15
12 -0.15
13 -0.15
14 0.27
15 0.15
16 0.15
17 0.15
18 0.15
19 0.15
2 0.03
20 0.15
21 0.15
22 0.15
3 -0.24
4 0.09
5 0.57
6 -0.15
7 -0.15
8 -0.15
9 -0.3

>  <PUBCHEM_EFFECTIVE_ROTOR_COUNT>  (1) 
2

>  <PUBCHEM_PHARMACOPHORE_FEATURES>  (1) 
5
1 1 acceptor
1 2 cation
1 2 donor
5 2 3 6 9 10 rings
6 4 7 8 11 12 13 rings

>  <PUBCHEM_HEAVY_ATOM_COUNT>  (1) 
13

>  <PUBCHEM_ATOM_DEF_STEREO_COUNT>  (1) 
0

>  <PUBCHEM_ATOM_UDEF_STEREO_COUNT>  (1) 
0

>  <PUBCHEM_BOND_DEF_STEREO_COUNT>  (1) 
0

>  <PUBCHEM_BOND_UDEF_STEREO_COUNT>  (1) 
0

>  <PUBCHEM_ISOTOPIC_ATOM_COUNT>  (1) 
0

>  <PUBCHEM_COMPONENT_COUNT>  (1) 
1

>  <PUBCHEM_CACTVS_TAUTO_COUNT>  (1) 
4

>  <PUBCHEM_CONFORMER_ID>  (1) 
00005F3200000001

>  <PUBCHEM_MMFF94_ENERGY>  (1) 
35.4994

>  <PUBCHEM_FEATURE_SELFOVERLAP>  (1) 
25.371

>  <PUBCHEM_SHAPE_FINGERPRINT>  (1) 
10498660 4 18410294692213949053
10608611 8 18341048514958516629
11132069 177 18408039611087070669
11543360 7 15769762585662473517
12932764 1 17847057787653047871
13380535 21 18269848527442838835
13380535 76 18335700516387147811
13538477 17 17896317098515546658
13764800 53 18336277790045588297
14144814 61 18186519903705762129
14325111 11 18410575071788726548
14614273 12 18261667082869014141
14897335 6 18337665313695813735
15775835 57 18260548922324511496
16945 1 18410293627304087351
17846911 113 18411412925587863225
18186145 218 17846789498331229570
20510252 161 18342463672459798281
20525323 117 18408317779160269183
21028194 46 18410294687918390410
21501502 16 18268145353866629771
21524375 3 18409727352798325450
22802520 49 17916041074260046876
230 275 18338232670058833862
23048698 100 16950561103642366172
23402539 116 18271796956573364476
23463225 33 18188204308496349458
23557571 272 17987808538793435631
23559900 14 18202005430873914260
2748010 2 18192156984379381967
305870 269 18262232218739411714
369184 2 15936411139288980077
449060 62 18340772525082141953
6333449 129 18343299280022342925
7364860 26 18126284134188819534
77492 1 17676202515618276646
81228 2 17695621136321525302

>  <PUBCHEM_SHAPE_MULTIPOLES>  (1) 
256.68
6.14
1.61
0.85
0.37
0.34
0.02
-2.01
-0.02
-0.68
-0.01
0.64
-0.08
0.03

>  <PUBCHEM_SHAPE_SELFOVERLAP>  (1) 
561.465

>  <PUBCHEM_SHAPE_VOLUME>  (1) 
140.5

>  <PUBCHEM_COORDINATE_TYPE>  (1) 
2
5
10

$$$$
