24377
     RDKit          2D

 17 17  0  0  1  0  0  0  0  0999 V2000
    0.0000    0.0000    0.0000 S   0  0  0  0  0  0  0  0  0  0  0  0
    0.0000    0.0000    0.0000 O   0  0  0  0  0  0  0  0  0  0  0  0
    0.0000    0.0000    0.0000 O   0  0  0  0  0  0  0  0  0  0  0  0
    0.0000    0.0000    0.0000 O   0  0  0  0  0  0  0  0  0  0  0  0
    0.0000    0.0000    0.0000 N   0  0  0  0  0  0  0  0  0  0  0  0
    0.0000    0.0000    0.0000 N   0  0  0  0  0  0  0  0  0  0  0  0
    0.0000    0.0000    0.0000 C   0  0  0  0  0  0  0  0  0  0  0  0
    0.0000    0.0000    0.0000 C   0  0  0  0  0  0  0  0  0  0  0  0
    0.0000    0.0000    0.0000 C   0  0  0  0  0  0  0  0  0  0  0  0
    0.0000    0.0000    0.0000 C   0  0  0  0  0  0  0  0  0  0  0  0
    0.0000    0.0000    0.0000 C   0  0  0  0  0  0  0  0  0  0  0  0
    0.0000    0.0000    0.0000 C   0  0  0  0  0  0  0  0  0  0  0  0
    0.0000    0.0000    0.0000 C   0  0  0  0  0  0  0  0  0  0  0  0
    0.0000    0.0000    0.0000 C   0  0  0  0  0  0  0  0  0  0  0  0
    0.0000    0.0000    0.0000 C   0  0  0  0  0  0  0  0  0  0  0  0
    0.0000    0.0000    0.0000 C   0  0  0  0  0  0  0  0  0  0  0  0
    0.0000    0.0000    0.0000 C   0  0  0  0  0  0  0  0  0  0  0  0
  1  3  2  0
  1  4  2  0
  1  6  1  0
  1 17  1  0
  2  8  1  0
  5  7  1  0
  5 16  1  0
  6 13  1  0
  7  8  1  0
  7 10  1  0
  8  9  1  0
  9 11  2  0
  9 12  1  0
 11 14  1  0
 12 15  2  0
 13 14  2  0
 13 15  1  0
M  END
>  <PUBCHEM_COMPOUND_CID>  (1) 
24377

>  <PUBCHEM_CONFORMER_RMSD>  (1) 
0.6

>  <PUBCHEM_CONFORMER_DIVERSEORDER>  (1) 
23
53
238
171
99
17
225
88
280
103
89
234
235
269
166
142
253
281
106
256
259
213
307
81
123
200
115
291
188
275
255
47
126
224
299
113
168
167
162
112
292
215
63
297
96
214
231
117
306
302
60
301
250
267
71
298
277
156
128
18
216
240
308
149
11
164
245
78
182
84
218
174
247
282
13
67
80
283
173
108
42
248
41
261
151
19
100
274
21
169
32
265
87
208
95
258
135
268
57
196
236
147
52
305
49
172
190
61
223
242
130
37
260
309
73
194
210
44
154
177
45
152
107
77
131
229
266
15
46
109
90
120
59
270
133
116
98
293
138
183
75
251
155
228
134
72
287
141
91
51
207
158
294
246
254
12
132
193
118
209
290
272
62
69
129
227
4
310
176
170
74
122
30
243
288
66
202
55
86
136
189
276
237
140
105
230
197
92
186
221
33
27
211
178
148
165
263
249
143
82
79
198
271
239
184
159
300
153
114
284
161
244
185
85
175
64
7
273
20
278
241
14
289
34
68
285
150
26
286
204
119
25
226
192
144
1
217
146
137
65
279
203
43
94
125
29
3
295
180
187
24
205
39
157
111
83
264
179
191
232
40
206
76
163
252
303
56
58
181
101
93
38
145
220
195
48
35
139
124
121
54
8
296
104
160
70
2
102
50
201
222
10
262
97
22
16
212
127
31
9
257
304
219
233
36
6
199
110
28
5

>  <PUBCHEM_MMFF94_PARTIAL_CHARGES>  (1) 
23
1 1.33
11 -0.15
12 -0.15
13 0.2
14 -0.15
15 -0.15
16 0.27
17 0.11
2 -0.68
23 0.36
24 0.15
25 0.15
26 0.15
27 0.15
28 0.4
3 -0.65
32 0.42
4 -0.65
5 -0.9
6 -0.76
7 0.27
8 0.42
9 -0.14

>  <PUBCHEM_EFFECTIVE_ROTOR_COUNT>  (1) 
5

>  <PUBCHEM_PHARMACOPHORE_FEATURES>  (1) 
8
1 2 acceptor
1 2 donor
1 3 acceptor
1 4 acceptor
1 5 cation
1 5 donor
1 6 donor
6 9 11 12 13 14 15 rings

>  <PUBCHEM_HEAVY_ATOM_COUNT>  (1) 
17

>  <PUBCHEM_ATOM_DEF_STEREO_COUNT>  (1) 
0

>  <PUBCHEM_ATOM_UDEF_STEREO_COUNT>  (1) 
2

>  <PUBCHEM_BOND_DEF_STEREO_COUNT>  (1) 
0

>  <PUBCHEM_BOND_UDEF_STEREO_COUNT>  (1) 
0

>  <PUBCHEM_ISOTOPIC_ATOM_COUNT>  (1) 
0

>  <PUBCHEM_COMPONENT_COUNT>  (1) 
1

>  <PUBCHEM_CACTVS_TAUTO_COUNT>  (1) 
1

$$$$
