24383
     RDKit          3D

 18 18  0  0  0  0  0  0  0  0999 V2000
   -1.0994    0.9888   -0.7963 O   0  0  0  0  0  0  0  0  0  0  0  0
    2.7202   -1.7885   -1.4261 O   0  0  0  0  0  0  0  0  0  0  0  0
    4.6879   -1.3715    0.3487 O   0  0  0  0  0  0  0  0  0  0  0  0
   -3.4730   -0.2104    0.1768 N   0  0  0  0  0  0  0  0  0  0  0  0
   -3.3102    1.2399    0.0815 C   0  0  0  0  0  0  0  0  0  0  0  0
   -4.8756   -0.5804   -0.0087 C   0  0  0  0  0  0  0  0  0  0  0  0
   -2.9825   -0.6961    1.4661 C   0  0  0  0  0  0  0  0  0  0  0  0
   -1.8475    1.6268    0.2304 C   0  0  0  0  0  0  0  0  0  0  0  0
   -5.4025   -0.0834   -1.3442 C   0  0  0  0  0  0  0  0  0  0  0  0
   -3.0874   -2.2089    1.5588 C   0  0  0  0  0  0  0  0  0  0  0  0
    0.2088    0.6928   -0.5148 C   0  0  0  0  0  0  0  0  0  0  0  0
    0.8104   -0.4063   -1.1170 C   0  0  0  0  0  0  0  0  0  0  0  0
    0.9214    1.4959    0.3686 C   0  0  0  0  0  0  0  0  0  0  0  0
    2.8639    0.0946    0.0533 C   0  0  0  0  0  0  0  0  0  0  0  0
    2.1425   -0.7066   -0.8319 C   0  0  0  0  0  0  0  0  0  0  0  0
    2.2533    1.1957    0.6536 C   0  0  0  0  0  0  0  0  0  0  0  0
    4.2541   -0.2034    0.3683 C   0  0  0  0  0  0  0  0  0  0  0  0
    5.2157    0.9211    0.7330 C   0  0  0  0  0  0  0  0  0  0  0  0
  1  8  1  0
  1 11  1  0
  2 15  1  0
  3 17  2  0
  4  5  1  0
  4  6  1  0
  4  7  1  0
  5  8  1  0
  6  9  1  0
  7 10  1  0
 11 12  2  0
 11 13  1  0
 12 15  1  0
 13 16  2  0
 14 15  2  0
 14 16  1  0
 14 17  1  0
 17 18  1  0
M  END
>  <PUBCHEM_COMPOUND_CID>  (1) 
24383

>  <PUBCHEM_CONFORMER_RMSD>  (1) 
0.8

>  <PUBCHEM_CONFORMER_DIVERSEORDER>  (1) 
5
86
36
20
61
42
31
1
44
13
77
65
109
57
103
11
34
39
114
47
83
78
45
85
81
87
53
68
37
108
51
56
90
105
32
82
76
54
104
124
84
23
94
80
58
106
64
4
99
79
35
10
111
29
41
98
100
92
121
88
7
119
22
101
50
46
30
40
52
122
55
15
110
102
95
96
66
107
59
112
113
49
93
2
120
62
117
75
26
70
67
74
72
27
33
12
63
115
21
89
97
16
116
123
71
14
28
69
73
17
43
9
19
3
25
91
24
118
6
38
48
18
60
8

>  <PUBCHEM_MMFF94_PARTIAL_CHARGES>  (1) 
20
1 -0.36
11 0.08
12 -0.15
13 -0.15
14 0.09
15 0.08
16 -0.15
17 0.42
18 0.06
2 -0.53
3 -0.57
33 0.15
34 0.15
35 0.15
39 0.45
4 -0.81
5 0.27
6 0.27
7 0.27
8 0.28

>  <PUBCHEM_EFFECTIVE_ROTOR_COUNT>  (1) 
7

>  <PUBCHEM_PHARMACOPHORE_FEATURES>  (1) 
5
1 1 acceptor
1 2 donor
1 3 acceptor
1 4 cation
6 11 12 13 14 15 16 rings

>  <PUBCHEM_HEAVY_ATOM_COUNT>  (1) 
18

>  <PUBCHEM_ATOM_DEF_STEREO_COUNT>  (1) 
0

>  <PUBCHEM_ATOM_UDEF_STEREO_COUNT>  (1) 
0

>  <PUBCHEM_BOND_DEF_STEREO_COUNT>  (1) 
0

>  <PUBCHEM_BOND_UDEF_STEREO_COUNT>  (1) 
0

>  <PUBCHEM_ISOTOPIC_ATOM_COUNT>  (1) 
0

>  <PUBCHEM_COMPONENT_COUNT>  (1) 
1

>  <PUBCHEM_CACTVS_TAUTO_COUNT>  (1) 
9

>  <PUBCHEM_CONFORMER_ID>  (1) 
00005F3F00000005

>  <PUBCHEM_MMFF94_ENERGY>  (1) 
49.7491

>  <PUBCHEM_FEATURE_SELFOVERLAP>  (1) 
25.371

>  <PUBCHEM_SHAPE_FINGERPRINT>  (1) 
10 15 18269540780800233680
10366900 7 18202003252275956169
10803635 8 17095512998940250315
11045977 3 18408038537614200840
11471102 22 17988649579289474436
11615757 297 16774080678390647929
11796584 16 17603580828944341042
12236239 1 15913329100060884697
12251169 10 17703788136961882581
12555020 224 18113610197553558867
12596602 18 15769771372843755851
12633257 1 17988094386305498667
14252887 29 17703796881842143484
14341114 328 15267072445349550239
14386348 63 18407762542794148579
15375358 24 18408323289529463375
15788980 27 16081090385087575221
15880784 105 17346320371206032511
17834072 14 18411142432858248835
19862831 5 14706931743656982773
200 152 17846211168537991989
20261772 1 17846774122501316916
20279233 1 18409736161944762263
20432913 95 17989491809665183623
20645476 183 15502374548043074849
20645477 56 9727635007868096233
20645477 70 17988077781835143414
21079973 296 18335425664144194248
21682296 61 17773607018479348038
22854114 59 17704072897440842313
23402539 116 18408598137672784533
23557571 272 18187077313326004196
23559900 14 18187922936514977641
26918003 58 18335417989090494257
32948 21 8214142967093720654
351380 180 18413103970366209011
474229 33 18130783486282938374
5104073 3 18130506314800181232
5283173 99 18261943043335213357
602551 16 17967817154295607362
9709674 26 18340494387110352103
9882013 296 17346601867599173853

>  <PUBCHEM_SHAPE_MULTIPOLES>  (1) 
347.84
11.33
1.77
1.3
1.42
0.41
-0.05
2.19
0.55
0.33
0.38
0.63
0.49
1.38

>  <PUBCHEM_SHAPE_SELFOVERLAP>  (1) 
703.536

>  <PUBCHEM_SHAPE_VOLUME>  (1) 
206.4

>  <PUBCHEM_COORDINATE_TYPE>  (1) 
2
5
10

$$$$
