2439
     RDKit          3D

 31 32  0  0  1  0  0  0  0  0999 V2000
   -0.6409    4.2585   -0.4787 Br  0  0  0  0  0  0  0  0  0  0  0  0
    0.0211    1.8428    1.3453 O   0  0  0  0  0  0  0  0  0  0  0  0
    4.5288    0.9191   -1.8915 O   0  0  0  0  0  0  0  0  0  0  0  0
    5.3455    2.3952   -0.3500 O   0  0  0  0  0  0  0  0  0  0  0  0
   -3.6551    3.8248   -1.0503 O   0  0  0  0  0  0  0  0  0  0  0  0
    9.0839   -1.7257   -0.1541 O   0  0  0  0  0  0  0  0  0  0  0  0
    7.2537   -3.0874   -0.2471 O   0  0  0  0  0  0  0  0  0  0  0  0
   -5.3974   -2.5640   -1.2197 N   0  0  0  0  0  0  0  0  0  0  0  0
   -3.5815   -3.6030   -0.0801 N   0  0  0  0  0  0  0  0  0  0  0  0
   -2.5873   -2.4829    1.7578 N   0  0  0  0  0  0  0  0  0  0  0  0
   -4.6483   -4.6422   -1.9356 N   0  0  0  0  0  0  0  0  0  0  0  0
    4.6214    0.2401    0.3715 C   0  0  0  0  0  0  0  0  0  0  0  0
    3.1263   -0.1142    0.4389 C   0  0  0  0  0  0  0  0  0  0  0  0
    5.4548   -1.0169    0.0718 C   0  0  0  0  0  0  0  0  0  0  0  0
    2.2526    1.0859    0.8299 C   0  0  0  0  0  0  0  0  0  0  0  0
    0.7836    0.7039    0.9727 C   0  0  0  0  0  0  0  0  0  0  0  0
    6.9595   -0.7464    0.0852 C   0  0  0  0  0  0  0  0  0  0  0  0
    4.8579    1.2937   -0.7294 C   0  0  0  0  0  0  0  0  0  0  0  0
   -1.2930    1.8629    0.9546 C   0  0  0  0  0  0  0  0  0  0  0  0
   -3.4697    0.8323    1.0275 C   0  0  0  0  0  0  0  0  0  0  0  0
   -4.3691   -0.2565    1.5068 C   0  0  0  0  0  0  0  0  0  0  0  0
   -2.1268    0.8443    1.4047 C   0  0  0  0  0  0  0  0  0  0  0  0
    7.8447   -1.9798   -0.1254 C   0  0  0  0  0  0  0  0  0  0  0  0
   -1.7874    2.8695    0.1316 C   0  0  0  0  0  0  0  0  0  0  0  0
   -3.9714    1.8388    0.2025 C   0  0  0  0  0  0  0  0  0  0  0  0
   -4.4202   -1.4609    0.5883 C   0  0  0  0  0  0  0  0  0  0  0  0
   -3.1303    2.8573   -0.2456 C   0  0  0  0  0  0  0  0  0  0  0  0
   -3.5573   -2.5186    0.7245 C   0  0  0  0  0  0  0  0  0  0  0  0
   -5.3592   -1.4954   -0.4120 C   0  0  0  0  0  0  0  0  0  0  0  0
   -4.5288   -3.5664   -1.0381 C   0  0  0  0  0  0  0  0  0  0  0  0
   -3.6102    3.5915   -2.4561 C   0  0  0  0  0  0  0  0  0  0  0  0
  1 24  1  0
  2 16  1  0
  2 19  1  0
  3 18  1  0
  4 18  2  0
  5 27  1  0
  5 31  1  0
  6 23  1  0
  7 23  2  0
  8 29  2  0
  8 30  1  0
  9 28  1  0
  9 30  2  0
 10 28  1  0
 11 30  1  0
 12 13  1  0
 12 14  1  0
 12 18  1  0
 13 15  1  0
 14 17  1  0
 15 16  1  0
 17 23  1  0
 19 22  2  0
 19 24  1  0
 20 21  1  0
 20 22  1  0
 20 25  2  0
 21 26  1  0
 24 27  2  0
 25 27  1  0
 26 28  2  0
 26 29  1  0
M  CHG  3   3  -1   6  -1   8   1
M  END
>  <PUBCHEM_COMPOUND_CID>  (1) 
2439

>  <PUBCHEM_CONFORMER_RMSD>  (1) 
1.4

>  <PUBCHEM_CONFORMER_DIVERSEORDER>  (1) 
1
23
191
124
74
71
225
192
26
186
59
177
121
6
32
134
204
168
111
36
48
151
143
88
43
33
128
62
55
104
169
125
97
215
38
195
82
45
155
198
238
24
9
153
96
108
142
50
15
180
87
171
51
81
149
179
130
21
173
29
99
83
217
107
175
129
235
72
209
207
138
194
165
206
61
95
94
226
213
136
80
230
101
46
103
52
22
164
40
47
100
152
14
25
252
112
39
150
172
102
19
140
109
20
190
49
163
126
67
85
189
224
118
4
5
11
227
146
3
233
79
157
10
214
120
86
105
27
92
239
182
44
147
212
218
184
7
144
64
58
16
13
65
170
17
69
56
145
139
75
106
93
199
123
30
115
241
234
113
188
54
240
162
60
110
247
28
154
127
42
243
131
73
117
135
201
12
132
98
223
246
208
156
18
181
158
196
37
8
245
160
122
76
133
205
2
166
174
89
41
183
242
211
216
197
161
231
66
222
137
210
185
78
219
176
57
141
193
34
35
229
91
221
167
63
114
187
77
119
236
70
248
116
84
53
249
68
251
90
232
159
178
237
244
200
202
31
250
203
220
148
228

>  <PUBCHEM_MMFF94_PARTIAL_CHARGES>  (1) 
36
1 -0.11
10 -0.9
11 -0.9
12 -0.11
16 0.28
17 -0.11
18 0.91
19 0.08
2 -0.36
20 -0.14
21 0.29
22 -0.15
23 0.91
24 0.11
25 -0.15
26 -0.14
27 0.08
28 0.41
29 0.21
3 -0.9
30 0.77
31 0.28
4 -0.9
45 0.15
46 0.15
47 0.15
48 0.46
49 0.4
5 -0.36
50 0.4
54 0.4
55 0.4
6 -0.9
7 -0.9
8 -0.18
9 -0.62

>  <PUBCHEM_EFFECTIVE_ROTOR_COUNT>  (1) 
12

>  <PUBCHEM_PHARMACOPHORE_FEATURES>  (1) 
16
1 1 hydrophobe
1 10 donor
1 11 donor
1 2 acceptor
1 3 acceptor
1 4 acceptor
1 5 acceptor
1 6 acceptor
1 7 acceptor
1 8 donor
3 3 4 18 anion
3 6 7 23 anion
4 8 9 11 30 cation
5 12 13 14 15 17 hydrophobe
6 19 20 22 24 25 27 rings
6 8 9 26 28 29 30 rings

>  <PUBCHEM_HEAVY_ATOM_COUNT>  (1) 
31

>  <PUBCHEM_ATOM_DEF_STEREO_COUNT>  (1) 
0

>  <PUBCHEM_ATOM_UDEF_STEREO_COUNT>  (1) 
1

>  <PUBCHEM_BOND_DEF_STEREO_COUNT>  (1) 
0

>  <PUBCHEM_BOND_UDEF_STEREO_COUNT>  (1) 
0

>  <PUBCHEM_ISOTOPIC_ATOM_COUNT>  (1) 
0

>  <PUBCHEM_COMPONENT_COUNT>  (1) 
1

>  <PUBCHEM_CACTVS_TAUTO_COUNT>  (1) 
40

>  <PUBCHEM_CONFORMER_ID>  (1) 
0000098700000001

>  <PUBCHEM_MMFF94_ENERGY>  (1) 
100.8927

>  <PUBCHEM_FEATURE_SELFOVERLAP>  (1) 
81.353

>  <PUBCHEM_SHAPE_FINGERPRINT>  (1) 
10042902 136 18056765562166217897
10622 236 17626378279904183439
11069576 57 17188678188643505111
11477941 20 17240484684946794996
1361 4 18343304782418949958
13690498 29 18334575737519497721
13782708 43 18202566194335573738
14114206 34 17823122584143377483
15803439 3 17829016872764795053
16989713 51 18413107256285476038
18603816 31 17418080015310539125
19246450 95 11308729309884270588
21307412 95 18340753928374871815
21781055 127 17693927501994470745
23523787 8 17906979956688005917
23559900 14 18263922147211922056
24771750 20 17398095064389558821
397830 11 18130212832018018696
4017518 198 18199185097602012605
4280585 95 18191860339531072897
4756326 101 13757260401855179843
484985 159 18060425681814375593
531348 171 18261397680844886632
57527293 21 18270981135688054585

>  <PUBCHEM_SHAPE_MULTIPOLES>  (1) 
588.77
20.01
6.02
1.58
50.76
0.85
0.5
18.83
4.71
-9.22
3.28
-2.04
-0.15
-0.53

>  <PUBCHEM_SHAPE_SELFOVERLAP>  (1) 
1213.773

>  <PUBCHEM_SHAPE_VOLUME>  (1) 
343.2

>  <PUBCHEM_COORDINATE_TYPE>  (1) 
2
5
10

$$$$
