24392
     RDKit          3D

 32 34  0  0  1  0  0  0  0  0999 V2000
    3.8737    1.6243   -0.8570 O   0  0  0  0  0  0  0  0  0  0  0  0
   -1.8172    0.5876    1.6853 O   0  0  0  0  0  0  0  0  0  0  0  0
   -7.4615    2.7420   -0.3250 O   0  0  0  0  0  0  0  0  0  0  0  0
    7.3041    0.8621    0.2556 N   0  0  0  0  0  0  0  0  0  0  0  0
   -3.4484   -1.0494    0.3440 N   0  0  0  0  0  0  0  0  0  0  0  0
    6.2142    1.1118   -0.6871 C   0  0  0  0  0  0  0  0  0  0  0  0
   -2.1104   -0.9018   -0.1980 C   0  0  0  0  0  0  0  0  0  0  0  0
    8.5642    0.6665   -0.4604 C   0  0  0  0  0  0  0  0  0  0  0  0
    7.0033   -0.3020    1.0882 C   0  0  0  0  0  0  0  0  0  0  0  0
    4.9174    1.3478    0.0684 C   0  0  0  0  0  0  0  0  0  0  0  0
   -1.4532   -2.2628   -0.2665 C   0  0  0  0  0  0  0  0  0  0  0  0
   -1.3063    0.1066    0.6533 C   0  0  0  0  0  0  0  0  0  0  0  0
    0.0376    0.5009    0.2613 C   0  0  0  0  0  0  0  0  0  0  0  0
    8.8929    1.8672   -1.3313 C   0  0  0  0  0  0  0  0  0  0  0  0
    8.0973   -0.5399    2.1151 C   0  0  0  0  0  0  0  0  0  0  0  0
    2.6071    1.2544   -0.4878 C   0  0  0  0  0  0  0  0  0  0  0  0
   -4.4456   -0.1075    0.1782 C   0  0  0  0  0  0  0  0  0  0  0  0
    0.3934    0.5203   -1.0872 C   0  0  0  0  0  0  0  0  0  0  0  0
    0.9708    0.8594    1.2341 C   0  0  0  0  0  0  0  0  0  0  0  0
   -1.6342   -3.0449   -1.3942 C   0  0  0  0  0  0  0  0  0  0  0  0
   -0.6845   -2.6969    0.7999 C   0  0  0  0  0  0  0  0  0  0  0  0
    1.6824    0.8981   -1.4630 C   0  0  0  0  0  0  0  0  0  0  0  0
    2.2599    1.2375    0.8584 C   0  0  0  0  0  0  0  0  0  0  0  0
   -5.7292   -0.3043    0.7260 C   0  0  0  0  0  0  0  0  0  0  0  0
   -4.2102    1.0793   -0.5449 C   0  0  0  0  0  0  0  0  0  0  0  0
   -1.0281   -4.2997   -1.4576 C   0  0  0  0  0  0  0  0  0  0  0  0
   -0.0783   -3.9517    0.7364 C   0  0  0  0  0  0  0  0  0  0  0  0
   -0.2502   -4.7529   -0.3924 C   0  0  0  0  0  0  0  0  0  0  0  0
   -6.7359    0.6463    0.5575 C   0  0  0  0  0  0  0  0  0  0  0  0
   -5.2168    2.0301   -0.7133 C   0  0  0  0  0  0  0  0  0  0  0  0
   -6.4798    1.8136   -0.1620 C   0  0  0  0  0  0  0  0  0  0  0  0
   -8.7287    2.4579    0.2660 C   0  0  0  0  0  0  0  0  0  0  0  0
  1 10  1  0
  1 16  1  0
  2 12  2  0
  3 31  1  0
  3 32  1  0
  4  6  1  0
  4  8  1  0
  4  9  1  0
  5  7  1  0
  5 17  1  0
  6 10  1  0
  7 11  1  0
  7 12  1  0
  8 14  1  0
  9 15  1  0
 11 20  2  0
 11 21  1  0
 12 13  1  0
 13 18  2  0
 13 19  1  0
 16 22  2  0
 16 23  1  0
 17 24  2  0
 17 25  1  0
 18 22  1  0
 19 23  2  0
 20 26  1  0
 21 27  2  0
 24 29  1  0
 25 30  2  0
 26 28  2  0
 27 28  1  0
 29 31  2  0
 30 31  1  0
M  END
>  <PUBCHEM_COMPOUND_CID>  (1) 
24392

>  <PUBCHEM_CONFORMER_RMSD>  (1) 
1.2

>  <PUBCHEM_CONFORMER_DIVERSEORDER>  (1) 
1
29
80
58
10
98
64
23
110
126
31
95
122
43
39
113
92
22
83
45
123
14
79
32
16
69
66
17
54
62
19
127
34
106
65
108
37
46
18
36
72
53
28
76
96
21
85
50
90
84
104
116
24
117
102
86
51
42
38
70
35
56
100
8
6
60
121
99
49
3
115
91
87
114
71
9
41
109
40
88
82
61
25
26
77
78
73
57
27
111
55
7
13
119
120
97
118
81
68
20
89
107
103
125
47
30
128
124
11
63
75
67
33
12
93
59
101
15
48
74
112
52
2
94
44
105
5
4

>  <PUBCHEM_MMFF94_PARTIAL_CHARGES>  (1) 
44
1 -0.36
10 0.28
11 -0.14
12 0.42
13 0.09
16 0.08
17 0.1
18 -0.15
19 -0.15
2 -0.57
20 -0.15
21 -0.15
22 -0.15
23 -0.15
24 -0.15
25 -0.15
26 -0.15
27 -0.15
28 -0.15
29 -0.15
3 -0.36
30 -0.15
31 0.08
32 0.28
4 -0.81
42 0.4
49 0.15
5 -0.87
50 0.15
51 0.15
52 0.15
53 0.15
54 0.15
55 0.15
56 0.15
57 0.15
58 0.15
59 0.15
6 0.27
60 0.15
61 0.15
7 0.57
8 0.27
9 0.27

>  <PUBCHEM_EFFECTIVE_ROTOR_COUNT>  (1) 
12

>  <PUBCHEM_PHARMACOPHORE_FEATURES>  (1) 
9
1 1 acceptor
1 2 acceptor
1 3 acceptor
1 4 cation
1 5 cation
1 5 donor
6 11 20 21 26 27 28 rings
6 13 16 18 19 22 23 rings
6 17 24 25 29 30 31 rings

>  <PUBCHEM_HEAVY_ATOM_COUNT>  (1) 
32

>  <PUBCHEM_ATOM_DEF_STEREO_COUNT>  (1) 
0

>  <PUBCHEM_ATOM_UDEF_STEREO_COUNT>  (1) 
1

>  <PUBCHEM_BOND_DEF_STEREO_COUNT>  (1) 
0

>  <PUBCHEM_BOND_UDEF_STEREO_COUNT>  (1) 
0

>  <PUBCHEM_ISOTOPIC_ATOM_COUNT>  (1) 
0

>  <PUBCHEM_COMPONENT_COUNT>  (1) 
1

>  <PUBCHEM_CACTVS_TAUTO_COUNT>  (1) 
3

>  <PUBCHEM_CONFORMER_ID>  (1) 
00005F4800000001

>  <PUBCHEM_MMFF94_ENERGY>  (1) 
113.9679

>  <PUBCHEM_FEATURE_SELFOVERLAP>  (1) 
45.671

>  <PUBCHEM_SHAPE_FINGERPRINT>  (1) 
10050765 1 18052537965764691932
10165383 225 18412827972174829885
10369192 42 18333730209204920117
10674148 151 18113898282785696864
11135926 11 18338229372336814885
11297750 10 17413021359806199675
11524674 6 18130786789276670358
11796584 16 18270123539152983238
12107183 9 18261392291035580300
12144603 126 18113621218961886524
12293681 160 17846784001147728729
12522641 33 18341051834883568150
12741549 16 12107788515093336455
14150023 24 18408878521442900355
14394314 77 18260826042805822684
14856354 85 16732986474046315297
15064986 96 18261397702446765507
15160629 178 17968363551403678034
15230672 131 18410009945157941338
15276724 80 17095242545029477100
15439362 3 18265615386565178479
15849732 13 18040155127882705700
15927050 60 18413105086842526207
16991971 28 8430304754086238105
19309040 13 16300951028538920358
19315958 150 18413394224847065886
20554085 129 17988633073772393434
21033648 29 18342167925666057009
21133665 82 18411423908468352078
21781055 127 18272097049801378217
23516275 137 18189070728846185498
23559900 14 17987514995671163328
249057 3 18337675312580691204
2747138 104 8070026649467924718
3411729 13 18262800658304570171
3633792 109 18200037235280577696
4015057 19 16701459107733349544
4017518 198 18272377464675599326
4173938 306 17917705799800893720
5085150 59 18131630119248922862
5265222 85 18266464398309054758
5385378 56 18338240345809015585
559249 180 18338799026201278990
59521270 166 18334859407678203524
59755656 520 18340480153609865127
6009941 240 18202004382680309068
6371380 46 18272365404000723656
6523845 18 18059862822266660395
6636735 143 17558528435498499458
6669772 16 18201445744189076367
6691757 9 18059026063325345018
7226269 152 18131354132670184560
9962374 69 8213557997687862377

>  <PUBCHEM_SHAPE_MULTIPOLES>  (1) 
630.97
24.14
4.38
1.4
26.54
7.49
-0.15
-24.59
-1.8
-4.4
1.31
1.76
0.28
-1.57

>  <PUBCHEM_SHAPE_SELFOVERLAP>  (1) 
1332.764

>  <PUBCHEM_SHAPE_VOLUME>  (1) 
354.3

>  <PUBCHEM_COORDINATE_TYPE>  (1) 
2
5
10

$$$$
