24397
     RDKit          3D

 20 22  0  0  1  0  0  0  0  0999 V2000
    0.8198   -4.4110   -0.3528 Cl  0  0  0  0  0  0  0  0  0  0  0  0
   -1.1891    2.7820    0.6263 O   0  0  0  0  0  0  0  0  0  0  0  0
   -0.0828    1.9528    0.4375 N   0  0  0  0  0  0  0  0  0  0  0  0
    2.8403    1.0586   -0.0146 N   0  0  0  0  0  0  0  0  0  0  0  0
    2.3899    2.8694   -1.3683 N   0  0  0  0  0  0  0  0  0  0  0  0
   -0.2523    0.5954    0.1655 C   0  0  0  0  0  0  0  0  0  0  0  0
    0.7027   -0.3685    0.0295 C   0  0  0  0  0  0  0  0  0  0  0  0
   -1.6842    0.2002    0.0326 C   0  0  0  0  0  0  0  0  0  0  0  0
    2.1999   -0.0601    0.1391 C   0  0  0  0  0  0  0  0  0  0  0  0
    1.1521    2.6446    0.7159 C   0  0  0  0  0  0  0  0  0  0  0  0
    0.3687   -1.7811   -0.2136 C   0  0  0  0  0  0  0  0  0  0  0  0
    2.1585    2.2009   -0.2885 C   0  0  0  0  0  0  0  0  0  0  0  0
    3.0755   -1.2417    0.4292 C   0  0  0  0  0  0  0  0  0  0  0  0
   -2.3899   -0.1979    1.1583 C   0  0  0  0  0  0  0  0  0  0  0  0
   -2.2878    0.2391   -1.2156 C   0  0  0  0  0  0  0  0  0  0  0  0
    1.2664   -2.7662   -0.0784 C   0  0  0  0  0  0  0  0  0  0  0  0
    2.6179   -2.4924    0.3221 C   0  0  0  0  0  0  0  0  0  0  0  0
   -3.7296   -0.5653    1.0330 C   0  0  0  0  0  0  0  0  0  0  0  0
   -3.6275   -0.1283   -1.3408 C   0  0  0  0  0  0  0  0  0  0  0  0
   -4.3486   -0.5304   -0.2164 C   0  0  0  0  0  0  0  0  0  0  0  0
  1 16  1  0
  2  3  1  0
  3  6  1  0
  3 10  1  0
  4  9  2  0
  4 12  1  0
  5 12  2  0
  6  7  2  0
  6  8  1  0
  7  9  1  0
  7 11  1  0
  8 14  2  0
  8 15  1  0
  9 13  1  0
 10 12  1  0
 11 16  2  0
 13 17  2  0
 14 18  1  0
 15 19  2  0
 16 17  1  0
 18 20  2  0
 19 20  1  0
M  END
>  <PUBCHEM_COMPOUND_CID>  (1) 
24397

>  <PUBCHEM_CONFORMER_RMSD>  (1) 
0.6

>  <PUBCHEM_CONFORMER_DIVERSEORDER>  (1) 
2
1

>  <PUBCHEM_MMFF94_PARTIAL_CHARGES>  (1) 
30
1 -0.14
10 0.43
11 -0.15
12 0.6
13 -0.14
14 -0.15
15 -0.15
16 0.14
17 -0.15
18 -0.15
19 -0.15
2 -0.38
20 -0.15
23 0.15
24 0.15
25 0.15
26 0.15
27 0.15
28 0.15
29 0.15
3 -0.49
30 0.15
31 0.4
32 0.4
4 -0.66
5 -0.85
6 0.07
7 0.01
8 0.03
9 0.42

>  <PUBCHEM_EFFECTIVE_ROTOR_COUNT>  (1) 
1.4

>  <PUBCHEM_PHARMACOPHORE_FEATURES>  (1) 
7
1 2 anion
1 4 acceptor
1 5 donor
3 4 5 12 cation
6 7 9 11 13 16 17 rings
6 8 14 15 18 19 20 rings
7 3 4 6 7 9 10 12 rings

>  <PUBCHEM_HEAVY_ATOM_COUNT>  (1) 
20

>  <PUBCHEM_ATOM_DEF_STEREO_COUNT>  (1) 
0

>  <PUBCHEM_ATOM_UDEF_STEREO_COUNT>  (1) 
0

>  <PUBCHEM_BOND_DEF_STEREO_COUNT>  (1) 
0

>  <PUBCHEM_BOND_UDEF_STEREO_COUNT>  (1) 
0

>  <PUBCHEM_ISOTOPIC_ATOM_COUNT>  (1) 
0

>  <PUBCHEM_COMPONENT_COUNT>  (1) 
1

>  <PUBCHEM_CACTVS_TAUTO_COUNT>  (1) 
1

>  <PUBCHEM_CONFORMER_ID>  (1) 
00005F4D00000002

>  <PUBCHEM_MMFF94_ENERGY>  (1) 
72.5083

>  <PUBCHEM_FEATURE_SELFOVERLAP>  (1) 
35.529

>  <PUBCHEM_SHAPE_FINGERPRINT>  (1) 
10064457 181 17908156712732497585
10967382 1 18411699923887235266
1100329 8 18267580394121591722
11582403 64 16526312429210333733
12236239 1 17632580483008663401
12553582 1 18195536886975657483
13140716 1 18267297810642684602
14178342 30 17980188696012224178
14251757 5 16181594196152402486
14790565 3 18339939206911895408
15309172 13 18194126454344018593
16945 1 18410577262369870562
17138139 8 17339532192875657623
19591789 44 18050013490892572762
20645477 70 18334848433804497255
21639500 275 18339633551036238117
22112679 90 17489868245910524577
2255824 54 18410859866965275542
23114952 82 18113613469727801749
23184049 29 17544754530355244378
2334 1 18050848015922931546
23388829 49 18271237223186366296
23419403 2 17180465592049779504
23526113 38 17971174942737882167
23559900 14 18335412435586841881
23728640 28 16175660114885932251
238 59 18046592807302676183
257057 1 17905315231025727978
2748010 2 18121509213071548786
3060560 45 18408885170131038942
350125 39 17616819176570664576
394222 165 17896314899545467936
458136 41 18192167077183197193
59682541 52 18123716878734913135
633830 44 17914636070420629941
7097593 13 18054801585048210155
7364860 26 18410291410731820954
77492 1 17632579387755099145
81228 2 17545874932544971640
8272917 22 18411987957737812863

>  <PUBCHEM_SHAPE_MULTIPOLES>  (1) 
392.65
5.92
4.16
1.06
5.18
1.62
-0.13
1.16
-0.24
-4.09
-0.38
0.65
-0.24
-0.41

>  <PUBCHEM_SHAPE_SELFOVERLAP>  (1) 
850.805

>  <PUBCHEM_SHAPE_VOLUME>  (1) 
213.6

>  <PUBCHEM_COORDINATE_TYPE>  (1) 
2
5
10

$$$$
