2442
     RDKit          3D

 18 19  0  0  1  0  0  0  0  0999 V2000
   -3.6026   -3.0136    0.1375 Br  0  0  0  0  0  0  0  0  0  0  0  0
   -4.8596    2.5020   -0.1898 Br  0  0  0  0  0  0  0  0  0  0  0  0
    1.0426    0.0236   -0.4349 N   0  0  0  0  0  0  0  0  0  0  0  0
   -0.6784   -1.8916    0.4127 N   0  0  0  0  0  0  0  0  0  0  0  0
    2.4384    0.4257   -0.2729 C   0  0  0  0  0  0  0  0  0  0  0  0
    2.8458    0.3109    1.2002 C   0  0  0  0  0  0  0  0  0  0  0  0
    3.3365   -0.4394   -1.1639 C   0  0  0  0  0  0  0  0  0  0  0  0
    4.3224    0.6500    1.3973 C   0  0  0  0  0  0  0  0  0  0  0  0
    4.8123   -0.0987   -0.9641 C   0  0  0  0  0  0  0  0  0  0  0  0
    5.2197   -0.2009    0.5030 C   0  0  0  0  0  0  0  0  0  0  0  0
    0.1727    0.8426    0.4091 C   0  0  0  0  0  0  0  0  0  0  0  0
    0.6391    0.1281   -1.8370 C   0  0  0  0  0  0  0  0  0  0  0  0
   -1.2749    0.4542    0.2662 C   0  0  0  0  0  0  0  0  0  0  0  0
   -1.6589   -0.8808    0.2717 C   0  0  0  0  0  0  0  0  0  0  0  0
   -2.2183    1.4652    0.1297 C   0  0  0  0  0  0  0  0  0  0  0  0
   -3.0076   -1.2105    0.1383 C   0  0  0  0  0  0  0  0  0  0  0  0
   -3.5671    1.1355   -0.0037 C   0  0  0  0  0  0  0  0  0  0  0  0
   -3.9617   -0.2024    0.0006 C   0  0  0  0  0  0  0  0  0  0  0  0
  1 16  1  0
  2 17  1  0
  3  5  1  0
  3 11  1  0
  3 12  1  0
  4 14  1  0
  5  6  1  0
  5  7  1  0
  6  8  1  0
  7  9  1  0
  8 10  1  0
  9 10  1  0
 11 13  1  0
 13 14  2  0
 13 15  1  0
 14 16  1  0
 15 17  2  0
 16 18  2  0
 17 18  1  0
M  END
>  <PUBCHEM_COMPOUND_CID>  (1) 
2442

>  <PUBCHEM_CONFORMER_RMSD>  (1) 
0.6

>  <PUBCHEM_CONFORMER_DIVERSEORDER>  (1) 
1
22
18
6
9
27
3
14
15
12
26
7
16
21
24
19
17
5
11
4
31
30
29
23
20
10
8
2
25
13
28

>  <PUBCHEM_MMFF94_PARTIAL_CHARGES>  (1) 
17
1 -0.11
11 0.41
12 0.27
13 -0.14
14 0.1
15 -0.15
16 0.11
17 0.11
18 -0.15
2 -0.11
3 -0.81
35 0.15
36 0.15
37 0.4
38 0.4
4 -0.9
5 0.27

>  <PUBCHEM_EFFECTIVE_ROTOR_COUNT>  (1) 
4.2

>  <PUBCHEM_PHARMACOPHORE_FEATURES>  (1) 
7
1 1 hydrophobe
1 2 hydrophobe
1 3 cation
1 4 cation
1 4 donor
6 13 14 15 16 17 18 rings
6 5 6 7 8 9 10 rings

>  <PUBCHEM_HEAVY_ATOM_COUNT>  (1) 
18

>  <PUBCHEM_ATOM_DEF_STEREO_COUNT>  (1) 
0

>  <PUBCHEM_ATOM_UDEF_STEREO_COUNT>  (1) 
0

>  <PUBCHEM_BOND_DEF_STEREO_COUNT>  (1) 
0

>  <PUBCHEM_BOND_UDEF_STEREO_COUNT>  (1) 
0

>  <PUBCHEM_ISOTOPIC_ATOM_COUNT>  (1) 
0

>  <PUBCHEM_COMPONENT_COUNT>  (1) 
1

>  <PUBCHEM_CACTVS_TAUTO_COUNT>  (1) 
1

>  <PUBCHEM_CONFORMER_ID>  (1) 
0000098A00000001

>  <PUBCHEM_MMFF94_ENERGY>  (1) 
53.8864

>  <PUBCHEM_FEATURE_SELFOVERLAP>  (1) 
35.526

>  <PUBCHEM_SHAPE_FINGERPRINT>  (1) 
10062212 137 17894631469928045643
10646746 165 18342175566106193432
10912923 1 17676487276450781512
11045977 3 18202560679160001424
11315181 36 18114178674892207904
11545043 162 18272090517540703266
11796584 16 18340209588267330390
12119455 92 17060334124140512444
12236239 1 17530686502225712968
12293681 160 17772462401284598529
12346177 29 18409724088696955791
12403259 415 18059859484343412488
12500047 106 18411418384517585735
12507560 40 18130784611828224296
12616971 3 16877943828448092380
13167823 11 18113619006024840546
13583140 156 17918269865918343526
13675066 3 18060137673844039486
13760787 5 16153427255511390550
14386348 63 17988928868364987404
14508225 48 18266166426785064333
14573314 32 18343022164316157588
15042514 8 18264775540197135707
15099037 37 18272089456609921439
15219456 202 17775005691268061296
15242439 84 18059576849873348220
15375358 24 17988642969329492324
16752209 62 18334292119169658955
17539 30 18340761667848150647
17834072 33 18187651353343360692
1813 80 16371010650940832726
19026448 4 18060420231083923954
19489759 90 18413384332830377901
200 152 16008740321436570452
20279233 1 17989491814070927252
20281475 54 17967524688645383026
20600515 1 18341061743479491845
20645477 56 18410858716383746433
20645477 70 16702023024434187876
21033648 29 17632283588751318056
21065201 7 18411699885417197986
212916 134 18337381648011670569
21682296 61 16126986084360529686
21728266 224 18335128834538529491
22182313 1 18129964307471649167
22224240 67 18270411491188803393
22854114 59 17060340738616865010
23402539 116 18341324522668791053
23557571 272 18272099300801395613
23559900 14 18270688571711908134
23598291 2 17677341639476255646
268830 7 17168148970264444204
26918003 58 17988641883108773040
312423 11 17824274897576844277
351380 180 17917987257175787640
4214541 1 18410293614065952520
495365 180 17631437991374332302
5104073 3 18342176717052077480
53917941 68 18337656535236497621
542803 24 17458349619592177044
559249 180 18261108530703842338
573450 72 18187358839852189458
602551 16 18410011082986391930
77492 1 17458627834424712569
9709674 26 18272658930333997902
9862522 239 17460019705041142261

>  <PUBCHEM_SHAPE_MULTIPOLES>  (1) 
372.35
11.09
2.29
1.18
6.91
1.08
0.23
-1.85
-0.62
-5.08
-0.16
1.37
-0.07
0.63

>  <PUBCHEM_SHAPE_SELFOVERLAP>  (1) 
743.22

>  <PUBCHEM_SHAPE_VOLUME>  (1) 
226.1

>  <PUBCHEM_COORDINATE_TYPE>  (1) 
2
5
10

$$$$
