24430
     RDKit          3D

 23 26  0  0  0  0  0  0  0  0999 V2000
    1.5918   -3.3873    0.1098 O   0  0  0  0  0  0  0  0  0  0  0  0
   -0.1761    1.1341   -0.0359 N   0  0  0  0  0  0  0  0  0  0  0  0
    1.2582   -0.7885    0.0288 N   0  0  0  0  0  0  0  0  0  0  0  0
   -1.1250   -1.0689    0.0299 N   0  0  0  0  0  0  0  0  0  0  0  0
   -1.1974    0.2679   -0.0122 C   0  0  0  0  0  0  0  0  0  0  0  0
    1.0245    0.5331   -0.0134 C   0  0  0  0  0  0  0  0  0  0  0  0
   -2.5264    0.8397   -0.0337 C   0  0  0  0  0  0  0  0  0  0  0  0
    2.1785    1.3930   -0.0371 C   0  0  0  0  0  0  0  0  0  0  0  0
    0.1371   -1.5273    0.0482 C   0  0  0  0  0  0  0  0  0  0  0  0
    0.3045   -2.9513    0.0933 C   0  0  0  0  0  0  0  0  0  0  0  0
   -2.7548    2.0946    0.5314 C   0  0  0  0  0  0  0  0  0  0  0  0
   -3.5790    0.1368   -0.6198 C   0  0  0  0  0  0  0  0  0  0  0  0
    2.1165    2.6716    0.5268 C   0  0  0  0  0  0  0  0  0  0  0  0
    3.3711    0.9570   -0.6236 C   0  0  0  0  0  0  0  0  0  0  0  0
   -0.5657   -4.0169    0.1240 C   0  0  0  0  0  0  0  0  0  0  0  0
   -4.0358    2.6461    0.5105 C   0  0  0  0  0  0  0  0  0  0  0  0
   -4.8600    0.6885   -0.6408 C   0  0  0  0  0  0  0  0  0  0  0  0
    3.2347    3.5050    0.5042 C   0  0  0  0  0  0  0  0  0  0  0  0
    4.4893    1.7905   -0.6460 C   0  0  0  0  0  0  0  0  0  0  0  0
   -5.0883    1.9432   -0.0756 C   0  0  0  0  0  0  0  0  0  0  0  0
    4.4211    3.0646   -0.0821 C   0  0  0  0  0  0  0  0  0  0  0  0
    0.2383   -5.1810    0.1617 C   0  0  0  0  0  0  0  0  0  0  0  0
    1.5427   -4.7447    0.1515 C   0  0  0  0  0  0  0  0  0  0  0  0
  1 10  1  0
  1 23  1  0
  2  5  2  0
  2  6  1  0
  3  6  2  0
  3  9  1  0
  4  5  1  0
  4  9  2  0
  5  7  1  0
  6  8  1  0
  7 11  2  0
  7 12  1  0
  8 13  2  0
  8 14  1  0
  9 10  1  0
 10 15  2  0
 11 16  1  0
 12 17  2  0
 13 18  1  0
 14 19  2  0
 15 22  1  0
 16 20  2  0
 17 20  1  0
 18 21  2  0
 19 21  1  0
 22 23  2  0
M  END
>  <PUBCHEM_COMPOUND_CID>  (1) 
24430

>  <PUBCHEM_CONFORMER_RMSD>  (1) 
0.6

>  <PUBCHEM_CONFORMER_DIVERSEORDER>  (1) 
1
5
3
4
2

>  <PUBCHEM_MMFF94_PARTIAL_CHARGES>  (1) 
34
1 -0.28
10 0.09
11 -0.15
12 -0.15
13 -0.15
14 -0.15
15 -0.15
16 -0.15
17 -0.15
18 -0.15
19 -0.15
2 -0.62
20 -0.15
21 -0.15
22 -0.15
23 -0.01
24 0.15
25 0.15
26 0.15
27 0.15
28 0.15
29 0.15
3 -0.62
30 0.15
31 0.15
32 0.15
33 0.15
34 0.15
35 0.15
36 0.15
4 -0.62
5 0.62
6 0.62
9 0.67

>  <PUBCHEM_EFFECTIVE_ROTOR_COUNT>  (1) 
3

>  <PUBCHEM_PHARMACOPHORE_FEATURES>  (1) 
8
1 1 acceptor
3 2 3 6 cation
3 2 4 5 cation
3 3 4 9 cation
5 1 10 15 22 23 rings
6 2 3 4 5 6 9 rings
6 7 11 12 16 17 20 rings
6 8 13 14 18 19 21 rings

>  <PUBCHEM_HEAVY_ATOM_COUNT>  (1) 
23

>  <PUBCHEM_ATOM_DEF_STEREO_COUNT>  (1) 
0

>  <PUBCHEM_ATOM_UDEF_STEREO_COUNT>  (1) 
0

>  <PUBCHEM_BOND_DEF_STEREO_COUNT>  (1) 
0

>  <PUBCHEM_BOND_UDEF_STEREO_COUNT>  (1) 
0

>  <PUBCHEM_ISOTOPIC_ATOM_COUNT>  (1) 
0

>  <PUBCHEM_COMPONENT_COUNT>  (1) 
1

>  <PUBCHEM_CACTVS_TAUTO_COUNT>  (1) 
1

>  <PUBCHEM_CONFORMER_ID>  (1) 
00005F6E00000001

>  <PUBCHEM_MMFF94_ENERGY>  (1) 
56.7332

>  <PUBCHEM_FEATURE_SELFOVERLAP>  (1) 
43.381

>  <PUBCHEM_SHAPE_FINGERPRINT>  (1) 
10319926 262 17838319033484219496
10411042 1 17473826122069137259
1100329 8 18410853231742339834
11045515 52 17252314102499680982
11056379 131 17760942036128297164
11833330 49 17471849685087024994
12107183 9 17405996146414845129
12173636 292 18266457787795581157
12202916 173 17986968367057821150
12293681 160 17989210368859068176
12553582 1 17545877127769852839
12730499 353 18337401469844962697
12788726 201 17907280406012616594
13009979 54 17340969980379629929
13140716 1 18409448076675844610
13590594 115 17257380639591755705
13690498 29 17548162355730416844
138480 1 17978228249135793202
13955234 65 18266182734316866761
14347424 109 15307893309111984434
14508225 48 17045134763008556439
14790565 3 18410575114738418996
14955137 171 18192989323282638346
15042514 8 17688877852908942971
15230672 131 18335149722224772774
15664445 248 17768541490557674710
15705408 1 18194402195249129550
15842332 3 17916297231074824121
15927050 60 18411983602720823750
16087824 20 17833552680442243955
17539 30 17692245657135551838
17913733 40 18339380616507645833
17980427 26 18341040822566543445
1813 80 17408525044174246927
19427546 20 17758967313197709140
19591789 44 18410298033666447302
20101258 96 17114390234583272818
20600515 1 16975894650378775701
21033648 29 18269271429583100993
21049683 271 17901127233916138390
21120745 212 17110464419462769588
21307412 95 18056227785580485628
21796203 349 17546764489440558043
2255824 54 18268427919659694487
22849339 104 18050310325083583476
23366157 5 18118124675821088323
23559900 14 18122333581016072465
23845131 108 18408042931518725515
23929065 36 17621580041024639688
283562 15 18196932391239134227
3091708 16 9118381312227750707
3103668 31 17759230083781938351
3380486 145 17111014192814820139
3886686 26 17980445114593160648
4409770 3 17903630027693191439
458136 41 18337680723933288449
474 4 18411134710655198337
532947 4 18340494352977714038
5385378 56 18339368439896137697
59755656 520 18336821009030450444
6025842 7 18338229363456236173
6058803 2 18057598764716388861
633830 44 18272650147273817685
6442390 28 18337956795740952981
6443956 14 17832425297926749550
6700243 42 17043778997064099020
7164475 11 17471295527454352940
7364860 26 18193838145900084631
77188 2 17617658756746077086
79837 15 18265898136376731395
84936 182 18343018852733361849
9709674 26 17983021334566220172
9777508 108 18052255395075072200
9981440 41 18409444821502305833

>  <PUBCHEM_SHAPE_MULTIPOLES>  (1) 
452.52
8.46
6.9
0.73
3.31
12
-0.02
-12.64
-1.23
-3.09
1.11
0.02
-0.19
-0.19

>  <PUBCHEM_SHAPE_SELFOVERLAP>  (1) 
1017.959

>  <PUBCHEM_SHAPE_VOLUME>  (1) 
234.9

>  <PUBCHEM_COORDINATE_TYPE>  (1) 
2
5
10

$$$$
