24432
     RDKit          3D

 30 33  0  0  0  0  0  0  0  0999 V2000
    6.6903   -1.8657    0.2835 O   0  0  0  0  0  0  0  0  0  0  0  0
   -4.8372   -4.9044   -0.2255 O   0  0  0  0  0  0  0  0  0  0  0  0
   -1.6967    6.6135   -0.1161 O   0  0  0  0  0  0  0  0  0  0  0  0
    0.4062   -1.3924    0.0014 N   0  0  0  0  0  0  0  0  0  0  0  0
    1.0376    0.9225    0.0236 N   0  0  0  0  0  0  0  0  0  0  0  0
   -1.2808    0.3121   -0.0787 N   0  0  0  0  0  0  0  0  0  0  0  0
    1.2963   -0.3917    0.0386 C   0  0  0  0  0  0  0  0  0  0  0  0
   -0.8652   -0.9645   -0.0569 C   0  0  0  0  0  0  0  0  0  0  0  0
   -0.2749    1.2005   -0.0362 C   0  0  0  0  0  0  0  0  0  0  0  0
    2.6903   -0.7725    0.1021 C   0  0  0  0  0  0  0  0  0  0  0  0
   -1.8868   -1.9776   -0.1004 C   0  0  0  0  0  0  0  0  0  0  0  0
   -0.6404    2.5926   -0.0564 C   0  0  0  0  0  0  0  0  0  0  0  0
    3.0600   -1.9637    0.7263 C   0  0  0  0  0  0  0  0  0  0  0  0
   -1.6240   -3.2179   -0.6901 C   0  0  0  0  0  0  0  0  0  0  0  0
    0.2185    3.5381   -0.6252 C   0  0  0  0  0  0  0  0  0  0  0  0
    3.6647    0.0514   -0.4613 C   0  0  0  0  0  0  0  0  0  0  0  0
   -3.1495   -1.7290    0.4470 C   0  0  0  0  0  0  0  0  0  0  0  0
   -1.8574    3.0094    0.4921 C   0  0  0  0  0  0  0  0  0  0  0  0
    4.4043   -2.3310    0.7874 C   0  0  0  0  0  0  0  0  0  0  0  0
   -2.6139   -4.1999   -0.7322 C   0  0  0  0  0  0  0  0  0  0  0  0
   -0.1359    4.8871   -0.6451 C   0  0  0  0  0  0  0  0  0  0  0  0
    5.0090   -0.3159   -0.4004 C   0  0  0  0  0  0  0  0  0  0  0  0
   -4.1393   -2.7108    0.4051 C   0  0  0  0  0  0  0  0  0  0  0  0
   -2.2118    4.3585    0.4721 C   0  0  0  0  0  0  0  0  0  0  0  0
    5.3788   -1.5073    0.2240 C   0  0  0  0  0  0  0  0  0  0  0  0
   -3.8715   -3.9464   -0.1845 C   0  0  0  0  0  0  0  0  0  0  0  0
   -1.3511    5.2973   -0.0965 C   0  0  0  0  0  0  0  0  0  0  0  0
    7.6342   -0.9772   -0.3128 C   0  0  0  0  0  0  0  0  0  0  0  0
   -6.1002   -4.5787    0.3531 C   0  0  0  0  0  0  0  0  0  0  0  0
   -2.9534    6.9636    0.4620 C   0  0  0  0  0  0  0  0  0  0  0  0
  1 25  1  0
  1 28  1  0
  2 26  1  0
  2 29  1  0
  3 27  1  0
  3 30  1  0
  4  7  2  0
  4  8  1  0
  5  7  1  0
  5  9  2  0
  6  8  2  0
  6  9  1  0
  7 10  1  0
  8 11  1  0
  9 12  1  0
 10 13  2  0
 10 16  1  0
 11 14  2  0
 11 17  1  0
 12 15  2  0
 12 18  1  0
 13 19  1  0
 14 20  1  0
 15 21  1  0
 16 22  2  0
 17 23  2  0
 18 24  2  0
 19 25  2  0
 20 26  2  0
 21 27  2  0
 22 25  1  0
 23 26  1  0
 24 27  1  0
M  END
>  <PUBCHEM_COMPOUND_CID>  (1) 
24432

>  <PUBCHEM_CONFORMER_RMSD>  (1) 
0.8

>  <PUBCHEM_CONFORMER_DIVERSEORDER>  (1) 
1
2

>  <PUBCHEM_MMFF94_PARTIAL_CHARGES>  (1) 
39
1 -0.36
13 -0.15
14 -0.15
15 -0.15
16 -0.15
17 -0.15
18 -0.15
19 -0.15
2 -0.36
20 -0.15
21 -0.15
22 -0.15
23 -0.15
24 -0.15
25 0.08
26 0.08
27 0.08
28 0.28
29 0.28
3 -0.36
30 0.28
31 0.15
32 0.15
33 0.15
34 0.15
35 0.15
36 0.15
37 0.15
38 0.15
39 0.15
4 -0.62
40 0.15
41 0.15
42 0.15
5 -0.62
6 -0.62
7 0.62
8 0.62
9 0.62

>  <PUBCHEM_EFFECTIVE_ROTOR_COUNT>  (1) 
6

>  <PUBCHEM_PHARMACOPHORE_FEATURES>  (1) 
10
1 1 acceptor
1 2 acceptor
1 3 acceptor
3 4 5 7 cation
3 4 6 8 cation
3 5 6 9 cation
6 10 13 16 19 22 25 rings
6 11 14 17 20 23 26 rings
6 12 15 18 21 24 27 rings
6 4 5 6 7 8 9 rings

>  <PUBCHEM_HEAVY_ATOM_COUNT>  (1) 
30

>  <PUBCHEM_ATOM_DEF_STEREO_COUNT>  (1) 
0

>  <PUBCHEM_ATOM_UDEF_STEREO_COUNT>  (1) 
0

>  <PUBCHEM_BOND_DEF_STEREO_COUNT>  (1) 
0

>  <PUBCHEM_BOND_UDEF_STEREO_COUNT>  (1) 
0

>  <PUBCHEM_ISOTOPIC_ATOM_COUNT>  (1) 
0

>  <PUBCHEM_COMPONENT_COUNT>  (1) 
1

>  <PUBCHEM_CACTVS_TAUTO_COUNT>  (1) 
1

>  <PUBCHEM_CONFORMER_ID>  (1) 
00005F7000000001

>  <PUBCHEM_MMFF94_ENERGY>  (1) 
117.9453

>  <PUBCHEM_FEATURE_SELFOVERLAP>  (1) 
53.531

>  <PUBCHEM_SHAPE_FINGERPRINT>  (1) 
10319688 45 18411419509698784195
10411042 1 18338517563787879214
10622 236 17053008301710131335
10721379 63 17763196034542893919
11049842 53 16552614907921448831
11056379 131 18338804416675593878
11763715 3 18263946456472895110
12107183 9 18269287901631721307
12202916 173 17971497117421238177
12788726 201 18261385612024072146
13248334 5 17690561209542757057
13590594 115 18337399347999178547
13757389 114 18267879301748324701
138480 1 15744722998976941822
13955234 65 17616819172645235419
14068700 675 18261955245542535734
14068700 686 18342451548616609818
14394314 77 18338519749899937459
14790565 3 17762335812469741970
15042514 8 18411702071255150462
15064981 194 18335427820687834644
15198563 99 18412262835048899070
15400415 2 17689996735430574176
15439362 3 17472981078642076597
15705408 1 17761773266274902878
15927050 60 17907295446993647910
15980000 95 18338803445279372181
16087824 20 18338234861441954533
16992752 21 18338247050390303566
16992779 147 17473286726327999099
17980427 26 17188967359521193631
18393751 57 17761496885336262824
19302320 297 18268170789665543771
19427546 62 17617941327166470368
20101258 96 18410296930070608768
20238998 120 18266735960021321749
20505436 4 17608946279086275978
21033648 29 17908970021194821920
21049683 271 17826799431913945798
21120745 212 18409174320235562276
21133410 127 17178538458369493445
21304303 172 18341898497993093571
21796203 349 17830208974475157323
22311459 1 18338796706449070444
23559900 14 17978503471242475739
23729398 52 17758969503224587996
23929065 36 18339341004087500112
255183 313 18126585443735616233
283562 15 18260827090530306706
3103668 31 18335983082728384485
3534868 343 18261967361645330214
3627633 1 18410855468871090285
4058900 60 17406559104609768400
4403749 210 18120375354570143304
4409770 3 18335978654369078165
44280117 145 18410297974782110982
4461854 278 18123489189439068585
4516262 110 17185588565439118783
504843 32 18047748200528387556
5219985 13 17834954166487245500
563151 97 17762045546175927861
6058803 2 18115027390953909834
6086070 43 18264470945538324591
6673363 416 18266192798306644788
6679774 75 16964351973095493163
6691757 9 17687150143012662970
6695519 79 16246903662503031467
6697151 62 18049413106505937887
6700243 42 17913525456623596278
6898599 12 18264776459293341276
77188 2 18266740375210752869
7808743 9 18192712233878726976
9777508 108 18267857281872913320
9981440 41 17832991537851981153

>  <PUBCHEM_SHAPE_MULTIPOLES>  (1) 
584.83
12.17
10.99
0.77
20.43
19.93
0
-19
0.83
-21.27
-0.14
0.05
-0.06
-1.15

>  <PUBCHEM_SHAPE_SELFOVERLAP>  (1) 
1290.919

>  <PUBCHEM_SHAPE_VOLUME>  (1) 
312.1

>  <PUBCHEM_COORDINATE_TYPE>  (1) 
2
5
10

$$$$
