24442
     RDKit          3D

 15 15  0  0  1  0  0  0  0  0999 V2000
    4.5068    0.2124    0.2387 O   0  0  0  0  0  0  0  0  0  0  0  0
    3.3022    2.1534    0.1581 O   0  0  0  0  0  0  0  0  0  0  0  0
    5.1130   -1.9947    0.1975 O   0  0  0  0  0  0  0  0  0  0  0  0
   -3.8641    0.4539    0.3020 C   0  0  0  0  0  0  0  0  0  0  0  0
   -2.5298    0.1329   -0.3749 C   0  0  0  0  0  0  0  0  0  0  0  0
   -4.9803   -0.4597   -0.2069 C   0  0  0  0  0  0  0  0  0  0  0  0
    2.2938    0.0292   -0.4749 C   0  0  0  0  0  0  0  0  0  0  0  0
   -1.4216    1.0692    0.1112 C   0  0  0  0  0  0  0  0  0  0  0  0
    2.8063   -1.3478   -0.1175 C   0  0  0  0  0  0  0  0  0  0  0  0
   -6.3196   -0.1170    0.4450 C   0  0  0  0  0  0  0  0  0  0  0  0
    0.9829    0.3575    0.1592 C   0  0  0  0  0  0  0  0  0  0  0  0
   -0.1055    0.7333   -0.5279 C   0  0  0  0  0  0  0  0  0  0  0  0
    3.3759    0.9420    0.0210 C   0  0  0  0  0  0  0  0  0  0  0  0
    4.2657   -1.1204    0.1028 C   0  0  0  0  0  0  0  0  0  0  0  0
   -7.4257   -1.0440   -0.0334 C   0  0  0  0  0  0  0  0  0  0  0  0
  1 13  1  0
  1 14  1  0
  2 13  2  0
  3 14  2  0
  4  5  1  0
  4  6  1  0
  5  8  1  0
  6 10  1  0
  7  9  1  0
  7 11  1  0
  7 13  1  0
  8 12  1  0
  9 14  1  0
 10 15  1  0
 11 12  2  0
M  END
>  <PUBCHEM_COMPOUND_CID>  (1) 
24442

>  <PUBCHEM_CONFORMER_RMSD>  (1) 
0.8

>  <PUBCHEM_CONFORMER_DIVERSEORDER>  (1) 
1
39
30
74
75
70
32
21
8
46
26
78
37
9
4
44
56
7
87
63
69
93
84
50
35
41
64
31
15
94
60
34
11
95
68
12
13
19
6
77
2
24
67
14
91
65
20
47
27
10
51
80
79
42
58
72
43
23
81
40
49
89
59
5
82
18
53
25
57
86
66
3
16
29
88
54
22
90
48
55
76
45
52
33
36
38
17
28
61
71
85
62
92
83
73

>  <PUBCHEM_MMFF94_PARTIAL_CHARGES>  (1) 
12
1 -0.3
11 -0.29
12 -0.29
13 0.66
14 0.66
2 -0.57
29 0.15
3 -0.57
30 0.15
7 0.2
8 0.14
9 0.06

>  <PUBCHEM_EFFECTIVE_ROTOR_COUNT>  (1) 
6.6

>  <PUBCHEM_PHARMACOPHORE_FEATURES>  (1) 
6
1 15 hydrophobe
1 2 acceptor
1 3 acceptor
3 4 6 10 hydrophobe
3 5 8 12 hydrophobe
5 1 7 9 13 14 rings

>  <PUBCHEM_HEAVY_ATOM_COUNT>  (1) 
15

>  <PUBCHEM_ATOM_DEF_STEREO_COUNT>  (1) 
0

>  <PUBCHEM_ATOM_UDEF_STEREO_COUNT>  (1) 
1

>  <PUBCHEM_BOND_DEF_STEREO_COUNT>  (1) 
0

>  <PUBCHEM_BOND_UDEF_STEREO_COUNT>  (1) 
1

>  <PUBCHEM_ISOTOPIC_ATOM_COUNT>  (1) 
0

>  <PUBCHEM_COMPONENT_COUNT>  (1) 
1

>  <PUBCHEM_CACTVS_TAUTO_COUNT>  (1) 
4

>  <PUBCHEM_CONFORMER_ID>  (1) 
00005F7A00000001

>  <PUBCHEM_MMFF94_ENERGY>  (1) 
1.1777

>  <PUBCHEM_FEATURE_SELFOVERLAP>  (1) 
30.46

>  <PUBCHEM_SHAPE_FINGERPRINT>  (1) 
100836 57 10159693603834461683
10912923 1 17917437544612175137
11858739 19 18261109669318139879
12616971 3 17774995800153778853
12714333 28 7997967968972114407
13167823 11 18412823582047976647
13533116 47 18411702088455651145
13668630 136 17894912945506467867
13955234 65 18340762741210270584
1420 363 17894634760215762355
14350574 20 18261393321663986518
14848160 23 18260266361237786247
15048467 5 9655568612999073595
17834072 33 18343582967049752741
17834076 25 15339123446649225405
17844677 252 18409172095601148109
18222031 100 16805325491653319213
20526848 3 10303803302647247011
20645477 70 18409167684300112662
20767249 213 10015863181049426375
21130983 4 9655578522385313863
21267235 1 18343024350876712238
220451 1 18342745156437692229
22224240 67 13614521866739708525
23402539 116 18343862213381723997
23536379 177 18411983555628573153
23557571 272 16878221961956130167
29717793 49 17531249456943353517
351380 3 18409445878243718359
4214541 1 18338797810767849165
42788 4 18411982473244040781
465052 167 18342178843171833654
5104073 3 18272082743402160048
5374978 207 17632857525030739016
542803 24 9007061258143391549
57483677 66 18409446994924425471
59682541 52 12035725350472126562
6025842 7 18335425703300170532

>  <PUBCHEM_SHAPE_MULTIPOLES>  (1) 
291.09
16.65
1.55
0.68
24.83
0.08
-0.02
6.92
1.51
-2.14
0.08
0.14
-0.01
-0.13

>  <PUBCHEM_SHAPE_SELFOVERLAP>  (1) 
571.807

>  <PUBCHEM_SHAPE_VOLUME>  (1) 
176.1

>  <PUBCHEM_COORDINATE_TYPE>  (1) 
2
5
10

$$$$
