24466
     RDKit          3D

 17 18  0  0  0  0  0  0  0  0999 V2000
   -3.6661    0.0022    2.3008 Cl  0  0  0  0  0  0  0  0  0  0  0  0
   -5.0591    0.0036   -0.6204 Cl  0  0  0  0  0  0  0  0  0  0  0  0
    2.9542    1.2014    0.0722 N   0  0  0  0  0  0  0  0  0  0  0  0
    2.9664   -1.2083    0.0748 N   0  0  0  0  0  0  0  0  0  0  0  0
    0.9427   -2.4214   -0.0818 N   0  0  0  0  0  0  0  0  0  0  0  0
    4.9675    0.0070    0.2299 N   0  0  0  0  0  0  0  0  0  0  0  0
    0.8815   -0.0141   -0.0883 C   0  0  0  0  0  0  0  0  0  0  0  0
   -0.5610   -0.0105   -0.2004 C   0  0  0  0  0  0  0  0  0  0  0  0
    1.6097    1.1575   -0.0326 C   0  0  0  0  0  0  0  0  0  0  0  0
    1.6217   -1.1783   -0.0301 C   0  0  0  0  0  0  0  0  0  0  0  0
   -1.3511   -0.0070    0.9492 C   0  0  0  0  0  0  0  0  0  0  0  0
   -1.1616   -0.0097   -1.4594 C   0  0  0  0  0  0  0  0  0  0  0  0
    0.9307    2.4881   -0.0863 C   0  0  0  0  0  0  0  0  0  0  0  0
   -2.7415   -0.0027    0.8399 C   0  0  0  0  0  0  0  0  0  0  0  0
   -2.5521   -0.0055   -1.5687 C   0  0  0  0  0  0  0  0  0  0  0  0
    3.5599   -0.0004    0.1204 C   0  0  0  0  0  0  0  0  0  0  0  0
   -3.3420   -0.0020   -0.4191 C   0  0  0  0  0  0  0  0  0  0  0  0
  1 14  1  0
  2 17  1  0
  3  9  2  0
  3 16  1  0
  4 10  1  0
  4 16  2  0
  5 10  1  0
  6 16  1  0
  7  8  1  0
  7  9  1  0
  7 10  2  0
  8 11  2  0
  8 12  1  0
  9 13  1  0
 11 14  1  0
 12 15  2  0
 14 17  2  0
 15 17  1  0
M  END
>  <PUBCHEM_COMPOUND_CID>  (1) 
24466

>  <PUBCHEM_CONFORMER_RMSD>  (1) 
0.6

>  <PUBCHEM_CONFORMER_DIVERSEORDER>  (1) 
1
2

>  <PUBCHEM_MMFF94_PARTIAL_CHARGES>  (1) 
22
1 -0.18
10 0.41
11 -0.15
12 -0.15
13 0.14
14 0.18
15 -0.15
16 0.72
17 0.18
18 0.15
19 0.15
2 -0.18
23 0.15
24 0.4
25 0.4
26 0.4
27 0.4
3 -0.62
4 -0.62
5 -0.9
6 -0.9
9 0.17

>  <PUBCHEM_EFFECTIVE_ROTOR_COUNT>  (1) 
1

>  <PUBCHEM_PHARMACOPHORE_FEATURES>  (1) 
5
1 5 donor
1 6 donor
4 3 4 6 16 cation
6 3 4 7 9 10 16 rings
6 8 11 12 14 15 17 rings

>  <PUBCHEM_HEAVY_ATOM_COUNT>  (1) 
17

>  <PUBCHEM_ATOM_DEF_STEREO_COUNT>  (1) 
0

>  <PUBCHEM_ATOM_UDEF_STEREO_COUNT>  (1) 
0

>  <PUBCHEM_BOND_DEF_STEREO_COUNT>  (1) 
0

>  <PUBCHEM_BOND_UDEF_STEREO_COUNT>  (1) 
0

>  <PUBCHEM_ISOTOPIC_ATOM_COUNT>  (1) 
0

>  <PUBCHEM_COMPONENT_COUNT>  (1) 
1

>  <PUBCHEM_CACTVS_TAUTO_COUNT>  (1) 
9

>  <PUBCHEM_CONFORMER_ID>  (1) 
00005F9200000001

>  <PUBCHEM_MMFF94_ENERGY>  (1) 
69.2945

>  <PUBCHEM_FEATURE_SELFOVERLAP>  (1) 
25.371

>  <PUBCHEM_SHAPE_FINGERPRINT>  (1) 
10219947 1 18410292510528174892
10366900 7 17749382672526484621
11471102 20 18409163316159993708
11615757 297 18343301491840823047
11796584 16 16371000772457789850
12236239 1 17703788123971277535
124424 183 17749103391850885288
13538477 17 17417801898708064287
13581323 91 14996275912133956509
13965767 371 17056713325013299585
14115302 16 17560228241213244799
14251717 144 18411696586565835966
14386348 63 17676489436539763123
15219456 202 17822294625416413373
15309172 13 18410014355287163298
15375358 24 17748825198725080295
15653759 3 17095242535716445617
15775835 57 17203337684332804803
16945 1 18410582785539453661
17844478 74 17894915122078758989
1813 80 18057901164514790270
18175812 5 17531248395796410743
18186145 218 18343304803287125028
19049666 15 17678168300701193157
19422 9 17561367253270490311
200 152 18343576348483940215
20201158 50 18113898234443498411
20279233 1 17749111075895595859
20645476 183 17917702531304356415
20645477 70 18263636290629817959
23175994 123 18187366510748513940
23402539 116 15123501506839236741
23526113 38 17895185541915001979
23557571 272 16950557740482416622
23559900 14 16515682204774636978
23598291 2 17845666828324319379
2748010 2 18123180200611111276
3268164 11 14908175323109529409
474 4 17844234345189003152
568465 68 18113912562470176946
77492 1 17775846821821094765
81228 2 16607984835615749370
8272917 22 18270684156469911367

>  <PUBCHEM_SHAPE_MULTIPOLES>  (1) 
333.67
8.17
1.56
1.38
0.44
0.19
-0.41
-0.21
-0.83
-1.42
0.04
2.09
-0.01
0.04

>  <PUBCHEM_SHAPE_SELFOVERLAP>  (1) 
705.013

>  <PUBCHEM_SHAPE_VOLUME>  (1) 
189

>  <PUBCHEM_COORDINATE_TYPE>  (1) 
2
5
10

$$$$
