24469
     RDKit          3D

 22 23  0  0  1  0  0  0  0  0999 V2000
    1.1360    0.9750    1.3916 O   0  0  0  0  0  0  0  0  0  0  0  0
    3.4210   -0.1256   -0.9079 O   0  0  0  0  0  0  0  0  0  0  0  0
    4.4036    2.1781    0.3467 O   0  0  0  0  0  0  0  0  0  0  0  0
   -4.9383    1.1704   -0.4305 O   0  0  0  0  0  0  0  0  0  0  0  0
    3.4819    1.3201    1.0234 C   0  0  0  0  0  0  0  0  0  0  0  0
    2.0750    1.8415    0.7615 C   0  0  0  0  0  0  0  0  0  0  0  0
    3.6575   -0.0992    0.4958 C   0  0  0  0  0  0  0  0  0  0  0  0
   -0.8585   -0.2987    0.9079 C   0  0  0  0  0  0  0  0  0  0  0  0
   -2.1338   -0.3488    0.2965 C   0  0  0  0  0  0  0  0  0  0  0  0
   -0.0991    0.8793    0.8165 C   0  0  0  0  0  0  0  0  0  0  0  0
    3.6187   -1.4261   -1.4435 C   0  0  0  0  0  0  0  0  0  0  0  0
   -2.6124    0.7803   -0.3880 C   0  0  0  0  0  0  0  0  0  0  0  0
   -0.5899    1.9916    0.1320 C   0  0  0  0  0  0  0  0  0  0  0  0
   -1.8443    1.9424   -0.4689 C   0  0  0  0  0  0  0  0  0  0  0  0
   -0.3803   -1.4277    1.5926 C   0  0  0  0  0  0  0  0  0  0  0  0
   -2.8934   -1.5265    0.3879 C   0  0  0  0  0  0  0  0  0  0  0  0
    2.6589   -2.3958   -0.7711 C   0  0  0  0  0  0  0  0  0  0  0  0
    3.4176   -1.3830   -2.9507 C   0  0  0  0  0  0  0  0  0  0  0  0
   -1.1483   -2.5896    1.6732 C   0  0  0  0  0  0  0  0  0  0  0  0
   -2.4026   -2.6390    1.0719 C   0  0  0  0  0  0  0  0  0  0  0  0
   -3.9180    0.8045   -1.0413 C   0  0  0  0  0  0  0  0  0  0  0  0
   -4.0512    0.3768   -2.4958 C   0  0  0  0  0  0  0  0  0  0  0  0
  1  6  1  0
  1 10  1  0
  2  7  1  0
  2 11  1  0
  3  5  1  0
  4 21  2  0
  5  6  1  0
  5  7  1  0
  8  9  1  0
  8 10  2  0
  8 15  1  0
  9 12  2  0
  9 16  1  0
 10 13  1  0
 11 17  1  0
 11 18  1  0
 12 14  1  0
 12 21  1  0
 13 14  2  0
 15 19  2  0
 16 20  2  0
 19 20  1  0
 21 22  1  0
M  END
>  <PUBCHEM_COMPOUND_CID>  (1) 
24469

>  <PUBCHEM_CONFORMER_RMSD>  (1) 
0.8

>  <PUBCHEM_CONFORMER_DIVERSEORDER>  (1) 
8
168
228
200
105
211
26
212
143
14
229
169
108
191
101
111
205
86
98
161
153
64
110
96
156
165
125
192
215
217
47
218
119
139
197
222
32
157
134
72
128
171
152
230
176
213
51
107
131
81
37
102
207
27
225
122
154
45
85
159
183
151
132
66
187
59
210
180
52
147
167
22
208
126
206
113
175
127
25
40
69
214
117
158
177
88
5
80
162
178
224
181
97
129
24
82
71
78
65
121
46
155
221
84
11
106
109
58
93
198
146
130
44
133
145
76
114
30
100
194
34
116
31
148
136
179
77
163
124
182
112
166
115
67
226
142
2
50
220
149
216
199
60
174
28
10
75
104
62
36
92
193
196
16
35
41
3
186
118
185
18
144
94
160
190
203
219
63
48
141
55
201
73
137
49
42
184
91
204
170
188
56
29
74
195
9
120
103
135
38
33
209
89
43
57
140
6
123
70
7
173
12
39
68
150
15
20
138
227
99
23
1
223
95
164
17
83
53
202
79
87
189
21
54
61
90
19
13
172
4

>  <PUBCHEM_MMFF94_PARTIAL_CHARGES>  (1) 
25
1 -0.36
10 0.08
11 0.28
12 0.09
13 -0.15
14 -0.15
15 -0.15
16 -0.15
19 -0.15
2 -0.56
20 -0.15
21 0.42
22 0.06
29 0.15
3 -0.68
30 0.15
31 0.15
32 0.15
39 0.15
4 -0.57
40 0.15
41 0.4
5 0.28
6 0.28
7 0.28

>  <PUBCHEM_EFFECTIVE_ROTOR_COUNT>  (1) 
7

>  <PUBCHEM_PHARMACOPHORE_FEATURES>  (1) 
8
1 1 acceptor
1 2 acceptor
1 3 acceptor
1 3 donor
1 4 acceptor
3 11 17 18 hydrophobe
6 8 9 10 12 13 14 rings
6 8 9 15 16 19 20 rings

>  <PUBCHEM_HEAVY_ATOM_COUNT>  (1) 
22

>  <PUBCHEM_ATOM_DEF_STEREO_COUNT>  (1) 
0

>  <PUBCHEM_ATOM_UDEF_STEREO_COUNT>  (1) 
1

>  <PUBCHEM_BOND_DEF_STEREO_COUNT>  (1) 
0

>  <PUBCHEM_BOND_UDEF_STEREO_COUNT>  (1) 
0

>  <PUBCHEM_ISOTOPIC_ATOM_COUNT>  (1) 
0

>  <PUBCHEM_COMPONENT_COUNT>  (1) 
1

>  <PUBCHEM_CACTVS_TAUTO_COUNT>  (1) 
2

>  <PUBCHEM_CONFORMER_ID>  (1) 
00005F9500000008

>  <PUBCHEM_MMFF94_ENERGY>  (1) 
75.5515

>  <PUBCHEM_FEATURE_SELFOVERLAP>  (1) 
40.627

>  <PUBCHEM_SHAPE_FINGERPRINT>  (1) 
10366900 7 18272653446225178580
10764073 3 17049137664238655155
10906281 52 18412828018871201784
11640471 11 15864360198292797146
12363563 72 17630058061711615638
12553582 1 17840331942504675418
12824470 246 15626213654664538791
13544592 145 18410295778703076472
13583140 156 16342875380867638043
13617811 41 17822009775413424349
13911987 19 17558265694895307896
14251757 17 18410293601349764995
14659021 117 17046843950135501454
14790565 3 18192144889963181017
15163728 17 16807849833365446565
15375358 24 18339353162807858744
15475509 35 15193847225913343383
15635459 17 18270974543372054698
15664445 248 16307985858478516831
17980427 23 16226604238729274508
1813 80 17536617435903829875
18336668 15 17245819356714867546
19930381 70 17843963646037175479
20645477 70 17917712405128064972
21285901 2 17975980078981605459
21344244 181 18343294882409278095
21781051 124 17676782972143539299
22182313 1 18337113461885449859
23526113 38 18201430376822042464
23557571 272 18189621707902260440
23559900 14 18408599280234104376
238 59 18059850692914544782
2748010 2 18265051508160077171
33382 64 16916210222019222695
3472631 163 17531240712179481588
495365 180 17701800280263948856
5262128 65 17844822386551960802
633830 44 18339069394487644261
9709674 26 18343302548461033968

>  <PUBCHEM_SHAPE_MULTIPOLES>  (1) 
429.27
8.53
2.9
2.1
1.74
1
1.58
-1.46
4.43
0.29
-0.78
0.67
0.88
2.98

>  <PUBCHEM_SHAPE_SELFOVERLAP>  (1) 
901.702

>  <PUBCHEM_SHAPE_VOLUME>  (1) 
244.5

>  <PUBCHEM_COORDINATE_TYPE>  (1) 
2
5
10

$$$$
