24471
     RDKit          3D

 14 14  0  0  1  0  0  0  0  0999 V2000
   -0.6444    1.3310    0.2524 N   0  0  0  0  0  0  0  0  0  0  0  0
    2.8334    0.0535    0.5765 N   0  0  0  0  0  0  0  0  0  0  0  0
    4.9732   -0.8169    0.4027 N   0  0  0  0  0  0  0  0  0  0  0  0
    3.7511   -0.6855   -1.5168 N   0  0  0  0  0  0  0  0  0  0  0  0
    0.6047    0.9904    0.9039 C   0  0  0  0  0  0  0  0  0  0  0  0
   -1.6647    0.3667    0.1158 C   0  0  0  0  0  0  0  0  0  0  0  0
    1.5882    0.4184   -0.1040 C   0  0  0  0  0  0  0  0  0  0  0  0
   -0.8371    2.6788   -0.2445 C   0  0  0  0  0  0  0  0  0  0  0  0
   -1.4696   -0.9277    0.5973 C   0  0  0  0  0  0  0  0  0  0  0  0
   -2.8689    0.7077   -0.4998 C   0  0  0  0  0  0  0  0  0  0  0  0
   -2.4787   -1.8814    0.4632 C   0  0  0  0  0  0  0  0  0  0  0  0
   -3.8781   -0.2458   -0.6339 C   0  0  0  0  0  0  0  0  0  0  0  0
   -3.6829   -1.5404   -0.1524 C   0  0  0  0  0  0  0  0  0  0  0  0
    3.7739   -0.4487   -0.1603 C   0  0  0  0  0  0  0  0  0  0  0  0
  1  5  1  0
  1  6  1  0
  1  8  1  0
  2  7  1  0
  2 14  2  3
  3 14  1  0
  4 14  1  0
  5  7  1  0
  6  9  2  0
  6 10  1  0
  9 11  1  0
 10 12  2  0
 11 13  2  0
 12 13  1  0
M  END
>  <PUBCHEM_COMPOUND_CID>  (1) 
24471

>  <PUBCHEM_CONFORMER_RMSD>  (1) 
0.6

>  <PUBCHEM_CONFORMER_DIVERSEORDER>  (1) 
4
26
25
10
21
13
9
15
27
17
19
16
22
6
23
18
28
24
5
1
8
2
14
20
7
11
3
29
12

>  <PUBCHEM_MMFF94_PARTIAL_CHARGES>  (1) 
23
1 -0.84
10 -0.15
11 -0.15
12 -0.15
13 -0.15
14 0.55
2 -0.7
22 0.15
23 0.15
24 0.15
25 0.15
26 0.15
27 0.4
28 0.4
29 0.4
3 -0.85
30 0.4
4 -0.85
5 0.37
6 0.1
7 0.25
8 0.37
9 -0.15

>  <PUBCHEM_EFFECTIVE_ROTOR_COUNT>  (1) 
4

>  <PUBCHEM_PHARMACOPHORE_FEATURES>  (1) 
5
1 1 cation
1 3 donor
1 4 donor
4 2 3 4 14 cation
6 6 9 10 11 12 13 rings

>  <PUBCHEM_HEAVY_ATOM_COUNT>  (1) 
14

>  <PUBCHEM_ATOM_DEF_STEREO_COUNT>  (1) 
0

>  <PUBCHEM_ATOM_UDEF_STEREO_COUNT>  (1) 
0

>  <PUBCHEM_BOND_DEF_STEREO_COUNT>  (1) 
0

>  <PUBCHEM_BOND_UDEF_STEREO_COUNT>  (1) 
0

>  <PUBCHEM_ISOTOPIC_ATOM_COUNT>  (1) 
0

>  <PUBCHEM_COMPONENT_COUNT>  (1) 
1

>  <PUBCHEM_CACTVS_TAUTO_COUNT>  (1) 
2

>  <PUBCHEM_CONFORMER_ID>  (1) 
00005F9700000004

>  <PUBCHEM_MMFF94_ENERGY>  (1) 
52.4818

>  <PUBCHEM_FEATURE_SELFOVERLAP>  (1) 
25.428

>  <PUBCHEM_SHAPE_FINGERPRINT>  (1) 
10465860 71 18187085091442685341
10751810 167 17749388187079954259
11127187 94 18333730234573413439
11458722 379 18334011674837399746
11543360 7 15647335290024295155
12032990 46 18338797918014976427
12251169 10 11455884776096000762
12346645 44 9295021171298138933
13296908 3 18339357573353987344
14115302 16 18114185258654969349
14386348 63 18202565077148490214
14911166 2 18334282176857938589
15775835 57 9655582910918555548
17804303 29 18411701023767991737
17870717 6 18339090302050662510
18186145 218 13767927935910996116
19107657 162 18202568371536014894
200 152 17131826569233372959
20201158 50 18342458136025543727
20279233 1 18201720643823550390
20281407 28 18343586252330378216
20281475 54 18342745142962232360
20374829 77 18411694396248539955
20432913 95 16917350333503426782
20645476 183 16950557800944677203
20645477 70 18201148974875326967
20671657 53 18335703870608932444
20871999 31 18187080663537086077
21061003 4 17203608189926319600
21069387 34 17845361323416966847
21079973 296 18412539938218120856
21119208 17 17167859759872096366
23402539 116 18336256860364175068
23403322 49 18412261727021351250
23557571 272 18271525291592595128
23559900 14 18409720773399077616
25 1 12252173074221017652
2748010 2 18191854841951652985
7364860 26 17978790443544833265
81228 2 18339651035664062313

>  <PUBCHEM_SHAPE_MULTIPOLES>  (1) 
268.19
8.35
1.99
0.92
8.25
0.89
-0.15
-4.49
-1.57
-1.29
0.05
0.41
-0.08
0.43

>  <PUBCHEM_SHAPE_SELFOVERLAP>  (1) 
541.221

>  <PUBCHEM_SHAPE_VOLUME>  (1) 
154.4

>  <PUBCHEM_COORDINATE_TYPE>  (1) 
2
5
10

$$$$
