24490
     RDKit          3D

  6  5  0  0  1  0  0  0  0  0999 V2000
    0.8995   -0.0790   -0.4923 S   0  0  0  0  0  0  0  0  0  0  0  0
   -0.8996   -0.0789    0.4925 S   0  0  0  0  0  0  0  0  0  0  0  0
    1.5189    1.2933    0.0717 O   0  0  0  0  0  0  0  0  0  0  0  0
   -1.5187    1.2932   -0.0718 O   0  0  0  0  0  0  0  0  0  0  0  0
    1.5812   -1.2145    0.2111 O   0  0  0  0  0  0  0  0  0  0  0  0
   -1.5813   -1.2142   -0.2112 O   0  0  0  0  0  0  0  0  0  0  0  0
  1  2  1  0
  1  3  1  0
  1  5  2  0
  2  4  1  0
  2  6  2  0
M  END
>  <PUBCHEM_COMPOUND_CID>  (1) 
24490

>  <PUBCHEM_CONFORMER_RMSD>  (1) 
0.4

>  <PUBCHEM_CONFORMER_DIVERSEORDER>  (1) 
1
2
3
4
5

>  <PUBCHEM_MMFF94_PARTIAL_CHARGES>  (1) 
8
1 0.55
2 0.55
3 -0.55
4 -0.55
5 -0.5
6 -0.5
7 0.5
8 0.5

>  <PUBCHEM_EFFECTIVE_ROTOR_COUNT>  (1) 
1

>  <PUBCHEM_PHARMACOPHORE_FEATURES>  (1) 
0

>  <PUBCHEM_HEAVY_ATOM_COUNT>  (1) 
6

>  <PUBCHEM_ATOM_DEF_STEREO_COUNT>  (1) 
0

>  <PUBCHEM_ATOM_UDEF_STEREO_COUNT>  (1) 
0

>  <PUBCHEM_BOND_DEF_STEREO_COUNT>  (1) 
0

>  <PUBCHEM_BOND_UDEF_STEREO_COUNT>  (1) 
0

>  <PUBCHEM_ISOTOPIC_ATOM_COUNT>  (1) 
0

>  <PUBCHEM_COMPONENT_COUNT>  (1) 
1

>  <PUBCHEM_CACTVS_TAUTO_COUNT>  (1) 
1

>  <PUBCHEM_CONFORMER_ID>  (1) 
00005FAA00000001

>  <PUBCHEM_MMFF94_ENERGY>  (1) 
7.3411

>  <PUBCHEM_FEATURE_SELFOVERLAP>  (1) 
0

>  <PUBCHEM_SHAPE_FINGERPRINT>  (1) 
139733 1 9295288322173892930
16714656 1 17761220916459275694
20096714 4 18336835169210245969
21040471 1 18122913027247878461
24536 1 18410562990035173383
29004967 10 17973734863252058091
5943 1 11836188900445407779

>  <PUBCHEM_SHAPE_MULTIPOLES>  (1) 
107.7
2.27
1.45
0.7
0
0.12
0
-0.02
0
0
0
0
-0.03
-0.06

>  <PUBCHEM_SHAPE_SELFOVERLAP>  (1) 
172.353

>  <PUBCHEM_SHAPE_VOLUME>  (1) 
76.4

>  <PUBCHEM_COORDINATE_TYPE>  (1) 
2
5
10

$$$$
