24499
     RDKit          3D

  5  4  0  0  0  0  0  0  0  0999 V2000
   -1.8203    0.4593    0.0267 Cl  0  0  0  0  0  0  0  0  0  0  0  0
    0.1389   -0.1349   -0.0060 S   0  0  0  0  0  0  0  0  0  0  0  0
    0.3213   -0.8761    1.2251 O   0  0  0  0  0  0  0  0  0  0  0  0
    0.3107   -0.7548   -1.3039 O   0  0  0  0  0  0  0  0  0  0  0  0
    1.0493    1.3064    0.0582 N   0  0  0  0  0  0  0  0  0  0  0  0
  1  2  1  0
  2  3  2  0
  2  4  2  0
  2  5  1  0
M  END
>  <PUBCHEM_COMPOUND_CID>  (1) 
24499

>  <PUBCHEM_CONFORMER_RMSD>  (1) 
0.4

>  <PUBCHEM_CONFORMER_DIVERSEORDER>  (1) 
1

>  <PUBCHEM_MMFF94_PARTIAL_CHARGES>  (1) 
7
1 -0.19
2 1.62
3 -0.65
4 -0.65
5 -0.98
6 0.42
7 0.42

>  <PUBCHEM_EFFECTIVE_ROTOR_COUNT>  (1) 
0

>  <PUBCHEM_PHARMACOPHORE_FEATURES>  (1) 
1
1 5 donor

>  <PUBCHEM_HEAVY_ATOM_COUNT>  (1) 
5

>  <PUBCHEM_ATOM_DEF_STEREO_COUNT>  (1) 
0

>  <PUBCHEM_ATOM_UDEF_STEREO_COUNT>  (1) 
0

>  <PUBCHEM_BOND_DEF_STEREO_COUNT>  (1) 
0

>  <PUBCHEM_BOND_UDEF_STEREO_COUNT>  (1) 
0

>  <PUBCHEM_ISOTOPIC_ATOM_COUNT>  (1) 
0

>  <PUBCHEM_COMPONENT_COUNT>  (1) 
1

>  <PUBCHEM_CACTVS_TAUTO_COUNT>  (1) 
1

>  <PUBCHEM_CONFORMER_ID>  (1) 
00005FB300000001

>  <PUBCHEM_MMFF94_ENERGY>  (1) 
2.0384

>  <PUBCHEM_FEATURE_SELFOVERLAP>  (1) 
5.074

>  <PUBCHEM_SHAPE_FINGERPRINT>  (1) 
139733 1 14402604538796829291
20096714 4 18340200903199593809
21015797 1 8858758252972103518
24536 1 17988074475095537649
5943 1 11664677447011497958

>  <PUBCHEM_SHAPE_MULTIPOLES>  (1) 
91.9
1.61
1.14
1.1
1.17
0.32
0.02
0.34
-0.01
-0.38
-0.01
-0.23
-0.4
0

>  <PUBCHEM_SHAPE_SELFOVERLAP>  (1) 
143.497

>  <PUBCHEM_SHAPE_VOLUME>  (1) 
67.1

>  <PUBCHEM_COORDINATE_TYPE>  (1) 
2
5
10

$$$$
