24508
     RDKit          3D

 14 14  0  0  0  0  0  0  0  0999 V2000
    2.5925    0.2941    0.0543 O   0  0  0  0  0  0  0  0  0  0  0  0
    1.8463   -1.8669   -0.2784 O   0  0  0  0  0  0  0  0  0  0  0  0
    4.8715    1.0418    0.1866 C   0  0  0  0  0  0  0  0  0  0  0  0
    3.9509   -0.1542   -0.0018 C   0  0  0  0  0  0  0  0  0  0  0  0
    6.3351    0.6434    0.1237 C   0  0  0  0  0  0  0  0  0  0  0  0
   -2.1600   -0.2464   -0.0480 C   0  0  0  0  0  0  0  0  0  0  0  0
   -0.8036   -0.7657   -0.1249 C   0  0  0  0  0  0  0  0  0  0  0  0
   -2.4009    1.1104   -0.2645 C   0  0  0  0  0  0  0  0  0  0  0  0
   -3.2200   -1.1052    0.2425 C   0  0  0  0  0  0  0  0  0  0  0  0
    0.3224   -0.0262   -0.0152 C   0  0  0  0  0  0  0  0  0  0  0  0
    1.6504   -0.6752   -0.1001 C   0  0  0  0  0  0  0  0  0  0  0  0
   -3.7019    1.6082   -0.1905 C   0  0  0  0  0  0  0  0  0  0  0  0
   -4.5209   -0.6074    0.3164 C   0  0  0  0  0  0  0  0  0  0  0  0
   -4.7619    0.7493    0.0998 C   0  0  0  0  0  0  0  0  0  0  0  0
  1  4  1  0
  1 11  1  0
  2 11  2  0
  3  4  1  0
  3  5  1  0
  6  7  1  0
  6  8  2  0
  6  9  1  0
  7 10  2  0
  8 12  1  0
  9 13  2  0
 10 11  1  0
 12 14  2  0
 13 14  1  0
M  END
>  <PUBCHEM_COMPOUND_CID>  (1) 
24508

>  <PUBCHEM_CONFORMER_RMSD>  (1) 
0.6

>  <PUBCHEM_CONFORMER_DIVERSEORDER>  (1) 
1
18
28
31
5
38
12
34
6
13
29
3
37
7
32
19
2
20
26
25
17
27
23
36
30
15
39
21
9
4
16
24
22
8
33
35
14
11
10

>  <PUBCHEM_MMFF94_PARTIAL_CHARGES>  (1) 
19
1 -0.43
10 -0.14
11 0.71
12 -0.15
13 -0.15
14 -0.15
2 -0.57
22 0.15
23 0.15
24 0.15
25 0.15
26 0.15
27 0.15
28 0.15
4 0.28
6 0.03
7 -0.18
8 -0.15
9 -0.15

>  <PUBCHEM_EFFECTIVE_ROTOR_COUNT>  (1) 
5

>  <PUBCHEM_PHARMACOPHORE_FEATURES>  (1) 
3
1 2 acceptor
1 5 hydrophobe
6 6 8 9 12 13 14 rings

>  <PUBCHEM_HEAVY_ATOM_COUNT>  (1) 
14

>  <PUBCHEM_ATOM_DEF_STEREO_COUNT>  (1) 
0

>  <PUBCHEM_ATOM_UDEF_STEREO_COUNT>  (1) 
0

>  <PUBCHEM_BOND_DEF_STEREO_COUNT>  (1) 
0

>  <PUBCHEM_BOND_UDEF_STEREO_COUNT>  (1) 
1

>  <PUBCHEM_ISOTOPIC_ATOM_COUNT>  (1) 
0

>  <PUBCHEM_COMPONENT_COUNT>  (1) 
1

>  <PUBCHEM_CACTVS_TAUTO_COUNT>  (1) 
1

>  <PUBCHEM_CONFORMER_ID>  (1) 
00005FBC00000001

>  <PUBCHEM_MMFF94_ENERGY>  (1) 
28.3301

>  <PUBCHEM_FEATURE_SELFOVERLAP>  (1) 
15.223

>  <PUBCHEM_SHAPE_FINGERPRINT>  (1) 
10014705 185 18261107436009271901
100836 57 18410295826596569700
10354089 29 17894911841536127896
11128504 68 14692566650320980336
13081056 2 18413952793443241204
13214271 11 18409447003319084095
13533116 47 14117528598140864790
13690532 89 8502657008629129172
13897977 58 18409449189399545125
14123238 8 18334575750135055632
14251752 14 13470423123217909448
14252887 29 13767917993399459200
15048467 5 18202005400355813545
15501527 16 18412827984030778481
17834076 25 17846499240125364504
20281389 69 18334572447959774512
20432913 95 14345791630417650896
20645477 56 18413669119036911271
20645477 70 17417822690898276990
23272321 79 18336265747010297396
23402539 116 18114175375840528903
23402655 69 17988923344783837244
23559900 14 18125156026858788190
26918003 58 12035447237700427301
2916195 48 18201430437452692400
300161 21 18186795855771138151
3545911 37 18411702075496934973
42788 4 18410575102328264304
441001 317 18342458127504265577
449060 50 18410857646335113439
5104073 3 18189341177997599643
77779 3 18410576145625749439

>  <PUBCHEM_SHAPE_MULTIPOLES>  (1) 
276.37
13.09
1.43
0.63
14.24
0.01
-0.01
-4.21
-1.15
-0.6
0.07
-0.06
0
0.38

>  <PUBCHEM_SHAPE_SELFOVERLAP>  (1) 
558.744

>  <PUBCHEM_SHAPE_VOLUME>  (1) 
161.6

>  <PUBCHEM_COORDINATE_TYPE>  (1) 
2
5
10

$$$$
