24514
     RDKit          3D

 14 13  0  0  1  0  0  0  0  0999 V2000
    1.3477   -1.5503   -0.6496 O   0  0  0  0  0  0  0  0  0  0  0  0
    6.3445   -0.3802    0.1941 O   0  0  0  0  0  0  0  0  0  0  0  0
    5.1992    1.5189   -0.3034 O   0  0  0  0  0  0  0  0  0  0  0  0
   -1.1658   -0.4045    0.2523 C   0  0  0  0  0  0  0  0  0  0  0  0
    0.1236    0.3998    0.0428 C   0  0  0  0  0  0  0  0  0  0  0  0
   -2.4368    0.4088   -0.0132 C   0  0  0  0  0  0  0  0  0  0  0  0
    1.3791   -0.4535    0.2666 C   0  0  0  0  0  0  0  0  0  0  0  0
   -3.7580   -0.3464    0.1642 C   0  0  0  0  0  0  0  0  0  0  0  0
    2.6857    0.3201    0.0331 C   0  0  0  0  0  0  0  0  0  0  0  0
   -5.0299    0.4802   -0.0469 C   0  0  0  0  0  0  0  0  0  0  0  0
   -6.3140   -0.3423    0.0641 C   0  0  0  0  0  0  0  0  0  0  0  0
    3.9632   -0.5020    0.1668 C   0  0  0  0  0  0  0  0  0  0  0  0
   -7.5462    0.5212   -0.1596 C   0  0  0  0  0  0  0  0  0  0  0  0
    5.2077    0.3301   -0.0111 C   0  0  0  0  0  0  0  0  0  0  0  0
  1  7  1  0
  2 14  1  0
  3 14  2  0
  4  5  1  0
  4  6  1  0
  5  7  1  0
  6  8  1  0
  7  9  1  0
  8 10  1  0
  9 12  1  0
 10 11  1  0
 11 13  1  0
 12 14  1  0
M  END
>  <PUBCHEM_COMPOUND_CID>  (1) 
24514

>  <PUBCHEM_CONFORMER_RMSD>  (1) 
1

>  <PUBCHEM_CONFORMER_DIVERSEORDER>  (1) 
1
81
22
556
613
192
165
337
465
10
398
207
374
5
354
136
377
309
327
302
30
61
565
474
576
293
2
532
23
585
379
194
53
371
270
102
33
529
574
169
29
350
277
315
3
184
384
435
582
8
14
51
344
25
524
19
313
570
56
140
626
588
322
253
424
513
412
101
115
543
4
493
577
413
52
16
119
18
620
321
426
199
84
244
144
422
462
290
535
174
485
214
154
13
225
236
6
456
220
79
333
20
563
206
275
411
399
90
95
131
450
224
63
516
145
484
124
584
17

>  <PUBCHEM_MMFF94_PARTIAL_CHARGES>  (1) 
8
1 -0.68
12 0.06
14 0.66
2 -0.65
3 -0.57
32 0.4
36 0.5
7 0.28

>  <PUBCHEM_EFFECTIVE_ROTOR_COUNT>  (1) 
9

>  <PUBCHEM_PHARMACOPHORE_FEATURES>  (1) 
8
1 1 acceptor
1 1 donor
1 13 hydrophobe
1 2 acceptor
1 3 acceptor
3 2 3 14 anion
3 4 5 6 hydrophobe
3 8 10 11 hydrophobe

>  <PUBCHEM_HEAVY_ATOM_COUNT>  (1) 
14

>  <PUBCHEM_ATOM_DEF_STEREO_COUNT>  (1) 
0

>  <PUBCHEM_ATOM_UDEF_STEREO_COUNT>  (1) 
1

>  <PUBCHEM_BOND_DEF_STEREO_COUNT>  (1) 
0

>  <PUBCHEM_BOND_UDEF_STEREO_COUNT>  (1) 
0

>  <PUBCHEM_ISOTOPIC_ATOM_COUNT>  (1) 
0

>  <PUBCHEM_COMPONENT_COUNT>  (1) 
1

>  <PUBCHEM_CACTVS_TAUTO_COUNT>  (1) 
1

>  <PUBCHEM_CONFORMER_ID>  (1) 
00005FC200000001

>  <PUBCHEM_MMFF94_ENERGY>  (1) 
6.7739

>  <PUBCHEM_FEATURE_SELFOVERLAP>  (1) 
40.666

>  <PUBCHEM_SHAPE_FINGERPRINT>  (1) 
10968037 39 18342738521061359773
12091667 2 18334295371408830955
12714333 28 18408322190054732905
12815109 37 17676206870873363833
13533116 47 16733253565610114448
14123238 8 18412825781202938627
14123256 10 18060419109928700209
1420 363 18333455339433872187
14251718 22 18412545414528263355
14251732 16 18261957444270067171
14251764 46 18343582936409955778
14729087 3 17022894628751090005
15048467 5 18411136944132819337
17834072 33 17989203772036525429
17834076 25 18131069333631191163
20281389 69 18040994042259247869
20645477 70 18271528572214464526
20767249 213 18333732429343808641
21130983 4 18334017198587075405
22224240 67 18412820304603061314
23035841 295 14117798016463892965
23402539 116 18113615716053602375
23521765 1 18341894090839325841
33684 2 18408039602734292114
3545911 37 18343301466250490739
42630746 31 18131355176964675846
42788 4 18335138691451102105
4463277 17 18408040710983826781
59755656 520 17603862330271578323
8209 1 18410855455833194497

>  <PUBCHEM_SHAPE_MULTIPOLES>  (1) 
270.51
19.15
1
0.64
12.69
0.01
0
3.11
0.42
-0.71
0.11
0.02
-0.04
-0.01

>  <PUBCHEM_SHAPE_SELFOVERLAP>  (1) 
494.443

>  <PUBCHEM_SHAPE_VOLUME>  (1) 
171.7

>  <PUBCHEM_COORDINATE_TYPE>  (1) 
2
5
10

$$$$
