2451
     RDKit          3D

 22 25  0  0  0  0  0  0  0  0999 V2000
    0.0803    4.8719    0.0861 Br  0  0  0  0  0  0  0  0  0  0  0  0
   -1.3715   -1.3821   -2.2465 Cl  0  0  0  0  0  0  0  0  0  0  0  0
    1.9423    2.3170   -0.2569 S   0  0  0  0  0  0  0  0  0  0  0  0
    2.2656   -0.3079    0.0469 N   0  0  0  0  0  0  0  0  0  0  0  0
   -0.2993   -1.6152    1.1550 N   0  0  0  0  0  0  0  0  0  0  0  0
    3.0942   -2.3278    0.3730 N   0  0  0  0  0  0  0  0  0  0  0  0
    3.9598   -1.6355   -0.4371 N   0  0  0  0  0  0  0  0  0  0  0  0
    1.3810    0.7615    0.1157 C   0  0  0  0  0  0  0  0  0  0  0  0
    0.0422    0.7064    0.4579 C   0  0  0  0  0  0  0  0  0  0  0  0
    2.1036   -1.5195    0.6853 C   0  0  0  0  0  0  0  0  0  0  0  0
   -0.7464   -0.5176    0.6520 C   0  0  0  0  0  0  0  0  0  0  0  0
    1.0429   -1.7476    1.6948 C   0  0  0  0  0  0  0  0  0  0  0  0
    3.4733   -0.4259   -0.5953 C   0  0  0  0  0  0  0  0  0  0  0  0
   -2.1662   -0.5011    0.2108 C   0  0  0  0  0  0  0  0  0  0  0  0
   -0.4844    2.0485    0.5094 C   0  0  0  0  0  0  0  0  0  0  0  0
    0.4371    3.0088    0.1529 C   0  0  0  0  0  0  0  0  0  0  0  0
    4.1211    0.5969   -1.4425 C   0  0  0  0  0  0  0  0  0  0  0  0
   -2.5381   -0.8761   -1.0777 C   0  0  0  0  0  0  0  0  0  0  0  0
   -3.1298   -0.0971    1.1315 C   0  0  0  0  0  0  0  0  0  0  0  0
   -3.8827   -0.8470   -1.4479 C   0  0  0  0  0  0  0  0  0  0  0  0
   -4.4744   -0.0679    0.7611 C   0  0  0  0  0  0  0  0  0  0  0  0
   -4.8508   -0.4428   -0.5285 C   0  0  0  0  0  0  0  0  0  0  0  0
  1 16  1  0
  2 18  1  0
  3  8  1  0
  3 16  1  0
  4  8  1  0
  4 10  1  0
  4 13  1  0
  5 11  2  0
  5 12  1  0
  6  7  1  0
  6 10  2  0
  7 13  2  0
  8  9  2  0
  9 11  1  0
  9 15  1  0
 10 12  1  0
 11 14  1  0
 13 17  1  0
 14 18  2  0
 14 19  1  0
 15 16  2  0
 18 20  1  0
 19 21  2  0
 20 22  2  0
 21 22  1  0
M  END
>  <PUBCHEM_COMPOUND_CID>  (1) 
2451

>  <PUBCHEM_CONFORMER_RMSD>  (1) 
0.6

>  <PUBCHEM_CONFORMER_DIVERSEORDER>  (1) 
1
4
5
6
7
3
2

>  <PUBCHEM_MMFF94_PARTIAL_CHARGES>  (1) 
27
1 -0.06
10 0.01
11 0.45
12 0.43
13 0.01
14 0.09
15 -0.15
16 0.1
17 0.18
18 0.18
19 -0.15
2 -0.18
20 -0.15
21 -0.15
22 -0.15
25 0.15
29 0.15
3 -0.08
30 0.15
31 0.15
32 0.15
4 0.38
5 -0.7
6 -0.34
7 -0.34
8 -0.04
9 -0.09

>  <PUBCHEM_EFFECTIVE_ROTOR_COUNT>  (1) 
1.2

>  <PUBCHEM_PHARMACOPHORE_FEATURES>  (1) 
8
1 1 hydrophobe
1 5 acceptor
3 4 6 10 cation
3 4 7 13 cation
5 3 8 9 15 16 rings
5 4 6 7 10 13 rings
6 14 18 19 20 21 22 rings
7 4 5 8 9 10 11 12 rings

>  <PUBCHEM_HEAVY_ATOM_COUNT>  (1) 
22

>  <PUBCHEM_ATOM_DEF_STEREO_COUNT>  (1) 
0

>  <PUBCHEM_ATOM_UDEF_STEREO_COUNT>  (1) 
0

>  <PUBCHEM_BOND_DEF_STEREO_COUNT>  (1) 
0

>  <PUBCHEM_BOND_UDEF_STEREO_COUNT>  (1) 
0

>  <PUBCHEM_ISOTOPIC_ATOM_COUNT>  (1) 
0

>  <PUBCHEM_COMPONENT_COUNT>  (1) 
1

>  <PUBCHEM_CACTVS_TAUTO_COUNT>  (1) 
1

>  <PUBCHEM_CONFORMER_ID>  (1) 
0000099300000001

>  <PUBCHEM_MMFF94_ENERGY>  (1) 
64.9257

>  <PUBCHEM_FEATURE_SELFOVERLAP>  (1) 
43.178

>  <PUBCHEM_SHAPE_FINGERPRINT>  (1) 
10165383 225 17530971327519488319
104564 63 18194118512770088193
105312 117 17252310207429483580
10906281 52 18265060317761155832
11578080 2 17773291500995919632
12236239 1 18059860567192129387
12293681 160 18188790438895013612
12553582 1 18411982446836031010
12788726 201 18265054635217950256
13009979 54 17703796950609326723
13134695 92 18410290328468822749
13140716 1 17974850880455159080
13149001 5 18118134790384784898
13583140 156 18263085573586982055
13911987 19 18042707142205959228
15210252 30 17749107781387239852
15238133 3 17680119925567435793
1601671 61 18129384796150389561
16752209 62 18126835015589548385
16945 1 18335699485336150858
17349148 13 17346875672355248559
1813 80 18272656709819841151
18186145 218 18261107530155433515
21634736 98 18199465643910888253
22112679 90 18271254806772251849
221357 26 18334849507773200925
2255824 54 18268707401534124941
23402539 116 18339642231355476210
23419403 2 14144718432929835488
23558518 356 17901114014497340066
23559900 14 18262811791091857948
23598288 3 17906443325576495418
23598291 2 18130507534787203029
238 59 17832967722241961103
25 1 18188491405474415792
3323516 105 18187648067398155459
34934 24 18342458183549648380
352729 6 17548415908291441512
474 4 18051402174157705233
7164475 11 18193840340976428694
7471813 234 18263629694066219578
84936 182 17769653436400609057

>  <PUBCHEM_SHAPE_MULTIPOLES>  (1) 
444.49
7.41
3.81
1.49
4.09
6.28
0.44
-3.41
2.11
-2.81
-0.37
0.54
-0.82
-0.85

>  <PUBCHEM_SHAPE_SELFOVERLAP>  (1) 
953.003

>  <PUBCHEM_SHAPE_VOLUME>  (1) 
251.1

>  <PUBCHEM_COORDINATE_TYPE>  (1) 
2
5
10

$$$$
