24512
     RDKit          3D

 12 12  0  0  0  0  0  0  0  0999 V2000
    1.3881   -0.1930   -0.2059 N   0  0  0  0  0  0  0  0  0  0  0  0
   -0.5226    1.2988   -0.2163 N   0  0  0  0  0  0  0  0  0  0  0  0
   -0.8589   -1.1023   -0.2095 N   0  0  0  0  0  0  0  0  0  0  0  0
    0.8581    1.1012    0.2613 C   0  0  0  0  0  0  0  0  0  0  0  0
    0.5234   -1.2889    0.2684 C   0  0  0  0  0  0  0  0  0  0  0  0
   -1.3792    0.1960    0.2570 C   0  0  0  0  0  0  0  0  0  0  0  0
    2.7637   -0.3841    0.2523 C   0  0  0  0  0  0  0  0  0  0  0  0
   -1.0453    2.5885    0.2331 C   0  0  0  0  0  0  0  0  0  0  0  0
   -1.7154   -2.1962    0.2464 C   0  0  0  0  0  0  0  0  0  0  0  0
    3.6559    0.7093   -0.3031 C   0  0  0  0  0  0  0  0  0  0  0  0
   -2.4572    2.7884   -0.2832 C   0  0  0  0  0  0  0  0  0  0  0  0
   -1.2105   -3.5177   -0.3006 C   0  0  0  0  0  0  0  0  0  0  0  0
  1  4  1  0
  1  5  1  0
  1  7  1  0
  2  4  1  0
  2  6  1  0
  2  8  1  0
  3  5  1  0
  3  6  1  0
  3  9  1  0
  7 10  1  0
  8 11  1  0
  9 12  1  0
M  END
>  <PUBCHEM_COMPOUND_CID>  (1) 
24512

>  <PUBCHEM_CONFORMER_RMSD>  (1) 
0.6

>  <PUBCHEM_CONFORMER_DIVERSEORDER>  (1) 
2
11
14
15
16
19
7
9
13
10
12
8
18
1
3
5
4
17
6

>  <PUBCHEM_MMFF94_PARTIAL_CHARGES>  (1) 
9
1 -0.81
2 -0.81
3 -0.81
4 0.54
5 0.54
6 0.54
7 0.27
8 0.27
9 0.27

>  <PUBCHEM_EFFECTIVE_ROTOR_COUNT>  (1) 
4.2

>  <PUBCHEM_PHARMACOPHORE_FEATURES>  (1) 
4
1 1 cation
1 2 cation
1 3 cation
6 1 2 3 4 5 6 rings

>  <PUBCHEM_HEAVY_ATOM_COUNT>  (1) 
12

>  <PUBCHEM_ATOM_DEF_STEREO_COUNT>  (1) 
0

>  <PUBCHEM_ATOM_UDEF_STEREO_COUNT>  (1) 
0

>  <PUBCHEM_BOND_DEF_STEREO_COUNT>  (1) 
0

>  <PUBCHEM_BOND_UDEF_STEREO_COUNT>  (1) 
0

>  <PUBCHEM_ISOTOPIC_ATOM_COUNT>  (1) 
0

>  <PUBCHEM_COMPONENT_COUNT>  (1) 
1

>  <PUBCHEM_CACTVS_TAUTO_COUNT>  (1) 
1

>  <PUBCHEM_CONFORMER_ID>  (1) 
00005FC000000002

>  <PUBCHEM_MMFF94_ENERGY>  (1) 
19.6905

>  <PUBCHEM_FEATURE_SELFOVERLAP>  (1) 
20.382

>  <PUBCHEM_SHAPE_FINGERPRINT>  (1) 
1 1 17761773962006973044
13380535 76 18049438145483803912
13380537 58 18338529529724463180
14817 1 7906895428837186818
16945 1 18411133658250554032
17990270 104 17401480945268021627
19021347 4 18266458698291347584
193761 8 18050568443780438707
20645476 183 18044395854300299926
20645477 70 17326888479440188765
20711985 344 18337940298586790530
20711985 365 18410293575764934502
20871998 184 18339654398591299515
21040471 1 18194681471392480888
21499 59 18120085079168136605
21524375 3 18044657494907287600
23526114 1 16537357684434828615
23530152 11 18194682557913588365
23557571 272 18200887270145101092
23559900 14 18200315395808671390
241688 4 18194402427108634897
257057 1 18051403264952472890
2748010 2 18121513357503908263
3071541 12 17259063991492544312
3071541 236 18263346045392672784
3071541 250 17617109434892587174
458136 41 17836105376267085393
7364860 26 17259336674802789529
81228 2 18410574028101124336
81539 233 17829890932468212485

>  <PUBCHEM_SHAPE_MULTIPOLES>  (1) 
232.01
3.94
3.92
0.66
4.15
1.34
-0.01
-1.32
0.31
-4.14
0.31
0
0
-0.01

>  <PUBCHEM_SHAPE_SELFOVERLAP>  (1) 
438.879

>  <PUBCHEM_SHAPE_VOLUME>  (1) 
143.9

>  <PUBCHEM_COORDINATE_TYPE>  (1) 
2
5
10

$$$$
