24515
     RDKit          3D

 14 14  0  0  0  0  0  0  0  0999 V2000
   -1.2017   -0.0209    0.0953 O   0  0  0  0  0  0  0  0  0  0  0  0
   -0.2233   -1.9383   -0.7209 O   0  0  0  0  0  0  0  0  0  0  0  0
    2.3120   -2.1675    0.2893 N   0  0  0  0  0  0  0  0  0  0  0  0
   -3.5602    0.3786    0.4497 C   0  0  0  0  0  0  0  0  0  0  0  0
   -2.4901   -0.6107   -0.0198 C   0  0  0  0  0  0  0  0  0  0  0  0
   -3.5559    1.6500   -0.4017 C   0  0  0  0  0  0  0  0  0  0  0  0
   -4.9400   -0.2753    0.4198 C   0  0  0  0  0  0  0  0  0  0  0  0
    1.1314   -0.0699   -0.1215 C   0  0  0  0  0  0  0  0  0  0  0  0
   -0.1519   -0.7973   -0.2912 C   0  0  0  0  0  0  0  0  0  0  0  0
    2.2942   -0.7611    0.1561 C   0  0  0  0  0  0  0  0  0  0  0  0
    1.1117    1.3059   -0.2513 C   0  0  0  0  0  0  0  0  0  0  0  0
    3.4842   -0.0499    0.3101 C   0  0  0  0  0  0  0  0  0  0  0  0
    2.3017    2.0171   -0.0972 C   0  0  0  0  0  0  0  0  0  0  0  0
    3.4880    1.3393    0.1834 C   0  0  0  0  0  0  0  0  0  0  0  0
  1  5  1  0
  1  9  1  0
  2  9  2  0
  3 10  1  0
  4  5  1  0
  4  6  1  0
  4  7  1  0
  8  9  1  0
  8 10  2  0
  8 11  1  0
 10 12  1  0
 11 13  2  0
 12 14  2  0
 13 14  1  0
M  END
>  <PUBCHEM_COMPOUND_CID>  (1) 
24515

>  <PUBCHEM_CONFORMER_RMSD>  (1) 
0.6

>  <PUBCHEM_CONFORMER_DIVERSEORDER>  (1) 
1
16
33
25
5
32
36
24
17
13
28
35
21
14
34
31
22
39
15
30
20
12
27
7
6
29
18
37
19
26
3
4
38
2
23
11
8
9
10

>  <PUBCHEM_MMFF94_PARTIAL_CHARGES>  (1) 
17
1 -0.43
10 0.1
11 -0.15
12 -0.15
13 -0.15
14 -0.15
2 -0.57
24 0.15
25 0.15
26 0.15
27 0.15
28 0.4
29 0.4
3 -0.9
5 0.28
8 0.09
9 0.63

>  <PUBCHEM_EFFECTIVE_ROTOR_COUNT>  (1) 
4

>  <PUBCHEM_PHARMACOPHORE_FEATURES>  (1) 
5
1 2 acceptor
1 3 cation
1 3 donor
3 4 6 7 hydrophobe
6 8 10 11 12 13 14 rings

>  <PUBCHEM_HEAVY_ATOM_COUNT>  (1) 
14

>  <PUBCHEM_ATOM_DEF_STEREO_COUNT>  (1) 
0

>  <PUBCHEM_ATOM_UDEF_STEREO_COUNT>  (1) 
0

>  <PUBCHEM_BOND_DEF_STEREO_COUNT>  (1) 
0

>  <PUBCHEM_BOND_UDEF_STEREO_COUNT>  (1) 
0

>  <PUBCHEM_ISOTOPIC_ATOM_COUNT>  (1) 
0

>  <PUBCHEM_COMPONENT_COUNT>  (1) 
1

>  <PUBCHEM_CACTVS_TAUTO_COUNT>  (1) 
2

>  <PUBCHEM_CONFORMER_ID>  (1) 
00005FC300000001

>  <PUBCHEM_MMFF94_ENERGY>  (1) 
44.8434

>  <PUBCHEM_FEATURE_SELFOVERLAP>  (1) 
25.371

>  <PUBCHEM_SHAPE_FINGERPRINT>  (1) 
10465860 228 18342464698719513993
10608611 8 18335419032968137189
10980938 120 18409165523936603584
11471102 20 18409727365793821796
12251169 10 18335421287683328319
12346645 6 18342176657091346094
13922767 16 18412540985699764328
14144814 61 18409729551868845985
14178342 30 18051110773843662202
14325111 11 18411699898228084253
14897335 6 18342454893319765638
15219456 202 18334292024901528125
15442244 35 18194965140875914336
15775835 57 18271528696947318189
16945 1 18337658789846180486
17802600 8 18409726270809581613
18186145 218 18202008707005598181
20233049 118 17704069599206672424
20645477 70 18340768152404852551
20871998 22 18124594185471009958
21524375 3 18343022241599350903
22485316 2 8142083143967870041
22854114 111 18411140255336339785
23402539 116 14908180837256446872
23402655 69 18343580733424367229
2748010 2 18050270480729727404
2838139 119 15410035426944071176
293599 30 18265619960774200020
351380 180 18333729126704050593
42 15 18113901554801280489
4921388 177 14836115607320762965
6333272 397 18411140259779006707
7364860 26 18343024367782352694
7832392 63 18270677705249476644

>  <PUBCHEM_SHAPE_MULTIPOLES>  (1) 
271.39
8.06
1.98
0.7
7.74
0.05
-0.01
-1.82
1.31
-1.08
-0.19
0.11
0.02
0.05

>  <PUBCHEM_SHAPE_SELFOVERLAP>  (1) 
555.114

>  <PUBCHEM_SHAPE_VOLUME>  (1) 
157.6

>  <PUBCHEM_COORDINATE_TYPE>  (1) 
2
5
10

$$$$
