24520
     RDKit          3D

 15 14  0  0  1  0  0  0  0  0999 V2000
   -1.0470   -2.1858   -1.1674 O   0  0  0  0  0  0  0  0  0  0  0  0
   -6.3419    1.3323    0.4150 O   0  0  0  0  0  0  0  0  0  0  0  0
   -4.6684    1.8125   -1.0419 O   0  0  0  0  0  0  0  0  0  0  0  0
    0.1236   -0.5421    0.1500 C   0  0  0  0  0  0  0  0  0  0  0  0
    1.5719   -1.0251    0.0003 C   0  0  0  0  0  0  0  0  0  0  0  0
   -0.8684   -1.7118    0.1650 C   0  0  0  0  0  0  0  0  0  0  0  0
    2.5950    0.1156    0.0008 C   0  0  0  0  0  0  0  0  0  0  0  0
   -2.2290   -1.3395    0.7741 C   0  0  0  0  0  0  0  0  0  0  0  0
    4.0654   -0.3108   -0.0556 C   0  0  0  0  0  0  0  0  0  0  0  0
    5.0878    0.8287   -0.0001 C   0  0  0  0  0  0  0  0  0  0  0  0
   -2.9504   -0.1915    0.0535 C   0  0  0  0  0  0  0  0  0  0  0  0
    6.5566    0.3982    0.0058 C   0  0  0  0  0  0  0  0  0  0  0  0
   -4.3319    0.0904    0.6485 C   0  0  0  0  0  0  0  0  0  0  0  0
    7.5283    1.5598    0.1437 C   0  0  0  0  0  0  0  0  0  0  0  0
   -5.0916    1.1690   -0.0918 C   0  0  0  0  0  0  0  0  0  0  0  0
  1  6  1  0
  2 15  1  0
  3 15  2  0
  4  5  1  0
  4  6  1  0
  5  7  1  0
  6  8  1  0
  7  9  1  0
  8 11  1  0
  9 10  1  0
 10 12  1  0
 11 13  1  0
 12 14  1  0
 13 15  1  0
M  END
>  <PUBCHEM_COMPOUND_CID>  (1) 
24520

>  <PUBCHEM_CONFORMER_RMSD>  (1) 
1

>  <PUBCHEM_CONFORMER_DIVERSEORDER>  (1) 
1
4
111
131
106
90
197
95
140
89
98
113
186
14
65
103
171
73
139
114
161
96
41
108
97
18
112
146
107
202
54
122
200
47
79
137
7
69
191
91
151
29
180
166
156
63
68
119
184
9
92
177
167
126
26
147
46
39
130
85
83
32
179
196
45
53
176
72
16
190
40
23
170
174
22
116
101
11
165
185
189
10
160
94
194
117
35
168
37
42
104
20
71
198
124
172
13
129
102
133
182
67
149
87
49
3
81
173
138
27
144
84
152
57
157
60
15
132
120
169
178
105
75
78
153
2
164
158
82
59
142
38
76
128
127
6
181
195
30
134
163
183
24
58
159
141
52
74
66
93
115
44
5
31
19
55
8
199
99
148
43
25
125
33
175
201
145
188
135
109
17
86
110
88
77
12
121
193
48
80
154
21
136
28
64
56
192
61
118
50
155
162
70
187
62
51
123
143
150
34
100
36

>  <PUBCHEM_MMFF94_PARTIAL_CHARGES>  (1) 
8
1 -0.68
13 0.06
15 0.66
2 -0.65
3 -0.57
35 0.4
39 0.5
6 0.28

>  <PUBCHEM_EFFECTIVE_ROTOR_COUNT>  (1) 
10

>  <PUBCHEM_PHARMACOPHORE_FEATURES>  (1) 
8
1 1 acceptor
1 1 donor
1 14 hydrophobe
1 2 acceptor
1 3 acceptor
3 2 3 15 anion
3 4 5 7 hydrophobe
3 9 10 12 hydrophobe

>  <PUBCHEM_HEAVY_ATOM_COUNT>  (1) 
15

>  <PUBCHEM_ATOM_DEF_STEREO_COUNT>  (1) 
0

>  <PUBCHEM_ATOM_UDEF_STEREO_COUNT>  (1) 
1

>  <PUBCHEM_BOND_DEF_STEREO_COUNT>  (1) 
0

>  <PUBCHEM_BOND_UDEF_STEREO_COUNT>  (1) 
0

>  <PUBCHEM_ISOTOPIC_ATOM_COUNT>  (1) 
0

>  <PUBCHEM_COMPONENT_COUNT>  (1) 
1

>  <PUBCHEM_CACTVS_TAUTO_COUNT>  (1) 
1

>  <PUBCHEM_CONFORMER_ID>  (1) 
00005FC800000001

>  <PUBCHEM_MMFF94_ENERGY>  (1) 
7.39

>  <PUBCHEM_FEATURE_SELFOVERLAP>  (1) 
40.665

>  <PUBCHEM_SHAPE_FINGERPRINT>  (1) 
10014705 185 18201720703868761530
100836 57 18335706035119137434
117890 112 18409730677661843976
13257819 101 18340483378929747199
13740256 8 9583512122904773807
14123255 352 18411138030332082435
14123256 34 10519695713796383821
1420 363 10665225956447065648
14251764 18 18040434412283592562
14350574 20 9655576305723259730
14729087 3 18413386558151179000
15048467 5 18409730673187639104
15501527 16 18407760334943510088
15716309 27 11530483337226614888
15778101 99 18408888464234064410
16079462 125 18201995560738589272
167882 2 17845099475972210230
17834072 8 17846499248910614592
18006028 8 11314310564056433787
193927 3 9223226394840855251
20281389 69 18260829298069130280
20526848 3 18410578379061672864
20621476 21 9583513235233056620
20621476 66 18335704970668997964
20621476 8 18410577280594030278
20645477 56 18341895211878829994
20767249 213 18410294713508826747
21054139 6 12175627274378268124
21150785 3 13183020744490221176
22288116 15 17560790087418119895
23035841 295 10447930572491895557
23402539 116 18130783477481955174
23402655 69 17917428700942209567
270888 7 18336826365150171093
2767999 5 18342455937149896984
2838139 119 18411412916855809269
28498 318 18343588418186333806
293599 30 18410856555503259802
300161 21 18131631210428649690
351380 3 9007055751320351304
5283384 27 18040707031897796797
59682541 35 18260278456282547449
59682541 52 17131565938244627582
7062679 6 18259708904268208844

>  <PUBCHEM_SHAPE_MULTIPOLES>  (1) 
291.09
18.61
1.86
0.81
17.72
0.15
0.08
-14.48
-0.97
-1.56
0.32
-0.54
0.09
0.48

>  <PUBCHEM_SHAPE_SELFOVERLAP>  (1) 
531.51

>  <PUBCHEM_SHAPE_VOLUME>  (1) 
184.9

>  <PUBCHEM_COORDINATE_TYPE>  (1) 
2
5
10

$$$$
