24530
     RDKit          3D

  3  2  0  0  0  0  0  0  0  0999 V2000
    0.0340    0.0000    0.0000 N   0  0  0  0  0  0  0  0  0  0  0  0
   -1.2080    0.0000    0.0000 N   0  0  0  0  0  0  0  0  0  0  0  0
    1.1740    0.0000    0.0000 N   0  0  0  0  0  0  0  0  0  0  0  0
  1  2  2  0
  1  3  2  0
M  CHG  2   1   1   3  -1
M  END
>  <PUBCHEM_COMPOUND_CID>  (1) 
24530

>  <PUBCHEM_CONFORMER_RMSD>  (1) 
0.4

>  <PUBCHEM_CONFORMER_DIVERSEORDER>  (1) 
1

>  <PUBCHEM_MMFF94_PARTIAL_CHARGES>  (1) 
4
1 0.69
2 -0.72
3 -0.37
4 0.4

>  <PUBCHEM_EFFECTIVE_ROTOR_COUNT>  (1) 
0

>  <PUBCHEM_PHARMACOPHORE_FEATURES>  (1) 
0

>  <PUBCHEM_HEAVY_ATOM_COUNT>  (1) 
3

>  <PUBCHEM_ATOM_DEF_STEREO_COUNT>  (1) 
0

>  <PUBCHEM_ATOM_UDEF_STEREO_COUNT>  (1) 
0

>  <PUBCHEM_BOND_DEF_STEREO_COUNT>  (1) 
0

>  <PUBCHEM_BOND_UDEF_STEREO_COUNT>  (1) 
0

>  <PUBCHEM_ISOTOPIC_ATOM_COUNT>  (1) 
0

>  <PUBCHEM_COMPONENT_COUNT>  (1) 
1

>  <PUBCHEM_CACTVS_TAUTO_COUNT>  (1) 
1

>  <PUBCHEM_CONFORMER_ID>  (1) 
00005FD200000001

>  <PUBCHEM_MMFF94_ENERGY>  (1) 
-0.0124

>  <PUBCHEM_FEATURE_SELFOVERLAP>  (1) 
0

>  <PUBCHEM_SHAPE_FINGERPRINT>  (1) 
21015797 1 18122625230021162404

>  <PUBCHEM_SHAPE_MULTIPOLES>  (1) 
46.8
1.46
0.51
0.51
0.05
0
0
0
0
0
0
0
0
0

>  <PUBCHEM_SHAPE_SELFOVERLAP>  (1) 
76.377

>  <PUBCHEM_SHAPE_VOLUME>  (1) 
32.4

>  <PUBCHEM_COORDINATE_TYPE>  (1) 
2
5
10

$$$$
