2454
     RDKit          3D

 33 35  0  0  0  0  0  0  0  0999 V2000
   -5.3854    0.3425    1.4353 O   0  0  0  0  0  0  0  0  0  0  0  0
   -4.7136   -0.8583   -0.9907 O   0  0  0  0  0  0  0  0  0  0  0  0
    3.5841   -2.8208    1.0025 O   0  0  0  0  0  0  0  0  0  0  0  0
    5.8274   -1.0926    0.0518 O   0  0  0  0  0  0  0  0  0  0  0  0
    3.8993   -2.8842   -1.2778 O   0  0  0  0  0  0  0  0  0  0  0  0
    0.7003   -1.7037   -0.5065 N   0  0  0  0  0  0  0  0  0  0  0  0
   -2.5701   -0.0119   -0.7209 N   0  0  0  0  0  0  0  0  0  0  0  0
    3.8495    0.1250   -0.0681 N   0  0  0  0  0  0  0  0  0  0  0  0
   -6.5869    0.1836    2.1871 C   0  0  0  0  0  0  0  0  0  0  0  0
   -5.4707    1.0488    0.2737 C   0  0  0  0  0  0  0  0  0  0  0  0
   -5.1358    0.4553   -0.9434 C   0  0  0  0  0  0  0  0  0  0  0  0
   -6.4118    0.8288    3.5535 C   0  0  0  0  0  0  0  0  0  0  0  0
   -6.9163   -1.2972    2.2976 C   0  0  0  0  0  0  0  0  0  0  0  0
   -5.8968    2.3767    0.3082 C   0  0  0  0  0  0  0  0  0  0  0  0
   -5.2271    1.1896   -2.1259 C   0  0  0  0  0  0  0  0  0  0  0  0
   -5.9883    3.1108   -0.8743 C   0  0  0  0  0  0  0  0  0  0  0  0
   -5.6534    2.5173   -2.0913 C   0  0  0  0  0  0  0  0  0  0  0  0
   -3.3685   -1.0921   -0.8733 C   0  0  0  0  0  0  0  0  0  0  0  0
   -0.6846   -1.5226   -0.6341 C   0  0  0  0  0  0  0  0  0  0  0  0
   -2.9072   -2.3980   -0.9150 C   0  0  0  0  0  0  0  0  0  0  0  0
   -1.5383   -2.6088   -0.7924 C   0  0  0  0  0  0  0  0  0  0  0  0
   -1.2454   -0.2559   -0.6050 C   0  0  0  0  0  0  0  0  0  0  0  0
    2.9916   -0.9267   -0.2241 C   0  0  0  0  0  0  0  0  0  0  0  0
    5.9947    1.2388    0.1984 C   0  0  0  0  0  0  0  0  0  0  0  0
    1.6668   -0.7601   -0.3471 C   0  0  0  0  0  0  0  0  0  0  0  0
    5.2224   -0.0233    0.0609 C   0  0  0  0  0  0  0  0  0  0  0  0
    7.2168    1.2388    0.8711 C   0  0  0  0  0  0  0  0  0  0  0  0
    5.4980    2.4235   -0.3454 C   0  0  0  0  0  0  0  0  0  0  0  0
    7.9421    2.4234    1.0000 C   0  0  0  0  0  0  0  0  0  0  0  0
    6.2234    3.6080   -0.2165 C   0  0  0  0  0  0  0  0  0  0  0  0
    3.5426   -2.3092   -0.2589 C   0  0  0  0  0  0  0  0  0  0  0  0
    7.4454    3.6078    0.4561 C   0  0  0  0  0  0  0  0  0  0  0  0
    4.0960   -4.1531    1.1145 C   0  0  0  0  0  0  0  0  0  0  0  0
  1  9  1  0
  1 10  1  0
  2 11  1  0
  2 18  1  0
  3 31  1  0
  3 33  1  0
  4 26  2  0
  5 31  2  0
  6 19  1  0
  6 25  1  0
  7 18  2  0
  7 22  1  0
  8 23  1  0
  8 26  1  0
  9 12  1  0
  9 13  1  0
 10 11  2  0
 10 14  1  0
 11 15  1  0
 14 16  2  0
 15 17  2  0
 16 17  1  0
 18 20  1  0
 19 21  1  0
 19 22  2  0
 20 21  2  0
 23 25  2  0
 23 31  1  0
 24 26  1  0
 24 27  2  0
 24 28  1  0
 27 29  1  0
 28 30  2  0
 29 32  2  0
 30 32  1  0
M  END
>  <PUBCHEM_COMPOUND_CID>  (1) 
2454

>  <PUBCHEM_CONFORMER_RMSD>  (1) 
1

>  <PUBCHEM_CONFORMER_DIVERSEORDER>  (1) 
1
128
86
28
93
119
52
99
58
126
101
100
141
71
146
42
87
15
43
118
20
124
95
54
74
102
19
65
18
153
139
116
150
64
140
121
108
78
35
29
88
155
138
137
66
104
149
152
92
129
72
57
96
49
122
12
76
94
156
113
85
132
50
112
11
25
80
84
38
105
144
73
69
107
145
83
7
97
56
53
147
110
6
27
117
21
67
13
143
68
79
4
89
22
81
77
60
142
44
14
23
127
62
24
3
10
106
30
41
91
114
48
123
103
111
148
51
154
134
31
115
135
82
55
63
125
32
109
131
90
45
61
37
70
46
120
98
5
40
34
59
16
151
133
8
2
17
130
9
33
75
136
26
47
36
39

>  <PUBCHEM_MMFF94_PARTIAL_CHARGES>  (1) 
46
1 -0.36
10 0.08
11 0.08
14 -0.15
15 -0.15
16 -0.15
17 -0.15
18 0.39
19 0.1
2 -0.17
20 -0.15
21 -0.15
22 0.16
23 0.12
24 0.09
25 -0.05
26 0.54
27 -0.15
28 -0.15
29 -0.15
3 -0.43
30 -0.15
31 0.71
32 -0.15
33 0.28
4 -0.57
41 0.15
42 0.15
43 0.15
44 0.15
45 0.15
46 0.15
47 0.4
48 0.15
49 0.15
5 -0.57
50 0.37
51 0.15
52 0.15
53 0.15
54 0.15
55 0.15
6 -0.6
7 -0.62
8 -0.54
9 0.28

>  <PUBCHEM_EFFECTIVE_ROTOR_COUNT>  (1) 
11

>  <PUBCHEM_PHARMACOPHORE_FEATURES>  (1) 
10
1 1 acceptor
1 4 acceptor
1 5 acceptor
1 6 cation
1 6 donor
1 8 donor
3 9 12 13 hydrophobe
6 10 11 14 15 16 17 rings
6 24 27 28 29 30 32 rings
6 7 18 19 20 21 22 rings

>  <PUBCHEM_HEAVY_ATOM_COUNT>  (1) 
33

>  <PUBCHEM_ATOM_DEF_STEREO_COUNT>  (1) 
0

>  <PUBCHEM_ATOM_UDEF_STEREO_COUNT>  (1) 
0

>  <PUBCHEM_BOND_DEF_STEREO_COUNT>  (1) 
0

>  <PUBCHEM_BOND_UDEF_STEREO_COUNT>  (1) 
1

>  <PUBCHEM_ISOTOPIC_ATOM_COUNT>  (1) 
0

>  <PUBCHEM_COMPONENT_COUNT>  (1) 
1

>  <PUBCHEM_CACTVS_TAUTO_COUNT>  (1) 
6

>  <PUBCHEM_CONFORMER_ID>  (1) 
0000099600000001

>  <PUBCHEM_MMFF94_ENERGY>  (1) 
119.2366

>  <PUBCHEM_FEATURE_SELFOVERLAP>  (1) 
50.747

>  <PUBCHEM_SHAPE_FINGERPRINT>  (1) 
10 15 18260550022057386473
10554248 39 17561082454368797494
10675989 125 18266453214167373422
10835480 77 18410281519754474164
10906281 52 17632587036738782951
10930396 42 17022619759614084813
11007060 377 18334574664136674875
11456790 92 18187071868272681272
12013929 29 18128533769339422924
12061779 8 17417269636359452657
12645989 146 9655312440060300138
12758862 56 17973719178502083306
12975358 362 18340785762093240409
13782708 43 11314026872591567286
14118638 360 18271231816208280263
14150022 121 18198913702740167659
15152005 77 10517688045085162701
15183329 4 17846772988645781353
15400415 2 18272927263333612942
15519825 34 16081373019821761033
16991971 28 10809612681388739688
18603816 31 12685087117053564891
20058555 10 18412257346086449740
21033648 29 18186801336376183495
21298829 104 18340201990438581004
21315759 148 17676497107710303667
21585482 111 18335977602250745588
21647283 7 17894906352246787364
21814621 53 17677333792834717467
23081809 10 16773508868141514151
23569914 152 9941593266205097113
2748736 6 18341036480697601908
328310 630 17917711297063639989
3504750 166 12180107775165170591
3610482 184 16343429410621961963
397830 11 18187370930396358171
4073 2 18334291006942128914
4169191 19 18342734135098501756
5104073 3 18040431062362537451
5109719 28 18334861658109158268
5718773 13 8646776603568544148
5937810 71 17917152822619596536
6289498 60 18266163098086294280
6328613 192 18342733026981017492
6712543 237 15502647174960199633

>  <PUBCHEM_SHAPE_MULTIPOLES>  (1) 
634.83
26.01
4.58
2.04
12.93
0.24
-1.57
-22.77
-10.11
6.91
0.31
-6.33
-0.35
1.78

>  <PUBCHEM_SHAPE_SELFOVERLAP>  (1) 
1357.697

>  <PUBCHEM_SHAPE_VOLUME>  (1) 
348.7

>  <PUBCHEM_COORDINATE_TYPE>  (1) 
2
5
10

$$$$
