24629
     RDKit          3D

 13 12  0  0  0  0  0  0  0  0999 V2000
    3.1237    0.5291   -0.4561 O   0  0  0  0  0  0  0  0  0  0  0  0
    2.0367   -1.5065   -0.5313 O   0  0  0  0  0  0  0  0  0  0  0  0
   -6.7154    0.3788    0.3352 N   0  0  0  0  0  0  0  0  0  0  0  0
   -1.7591    0.5155   -0.1101 C   0  0  0  0  0  0  0  0  0  0  0  0
   -3.0044   -0.3726   -0.0697 C   0  0  0  0  0  0  0  0  0  0  0  0
   -0.4867   -0.3200   -0.2779 C   0  0  0  0  0  0  0  0  0  0  0  0
   -4.2742    0.4575    0.1309 C   0  0  0  0  0  0  0  0  0  0  0  0
    0.7708    0.5408   -0.3523 C   0  0  0  0  0  0  0  0  0  0  0  0
   -5.5184   -0.4291    0.1342 C   0  0  0  0  0  0  0  0  0  0  0  0
    2.0293   -0.2845   -0.4571 C   0  0  0  0  0  0  0  0  0  0  0  0
    4.3119   -0.0378    0.1048 C   0  0  0  0  0  0  0  0  0  0  0  0
    5.4445    0.9725    0.0038 C   0  0  0  0  0  0  0  0  0  0  0  0
    4.0413   -0.4437    1.5456 C   0  0  0  0  0  0  0  0  0  0  0  0
  1 10  1  0
  1 11  1  0
  2 10  2  0
  3  9  1  0
  4  5  1  0
  4  6  1  0
  5  7  1  0
  6  8  1  0
  7  9  1  0
  8 10  1  0
 11 12  1  0
 11 13  1  0
M  END
>  <PUBCHEM_COMPOUND_CID>  (1) 
24629

>  <PUBCHEM_CONFORMER_RMSD>  (1) 
0.8

>  <PUBCHEM_CONFORMER_DIVERSEORDER>  (1) 
1
209
318
41
271
220
60
316
104
234
146
267
78
273
154
327
2
143
305
196
120
315
119
314
270
164
330
326
9
221
48
228
23
261
14
285
293
310
139
45
38
20
186
260
181
298
180
238
237
43
303
291
243
114
280
317
13
283
144
294
11
250
313
87
257
240
129
274
130
113
3
63
279
15
124
156
302
161
37
312
136
300
79
290
159
31
115
176
178
84
52
289
36
32
292
278
297
75
233
6
82
22
213
4
307
332
61
33
126
155
184
335
320
244
281
334
226
151
25
56
208
77
249
92
236
203
158
148
127
322
282
29
163
277
5
167
90
198
16
299
328
254
231
325
108
12
49
100
308
331
50
201
259
89
10
8
134
152
301
232
17
131
55
309
286
145
53
174
218
295
69
103
105
288
18
44
166
109
272
34
150
252
190
28
91
324
72
263
39
71
101
284
264
246
125
67
183
35
189
42
197
215
323
112
97
26
275
222
70
287
149
242
191
147
65
51
276
47
235
118
306
194
204
268
21
62
195
74
165
59
93
199
311
175
256
68
329
157
107
58
117
27
177
98
229
19
46
251
95
160
171
321
7
188
193
253
296
241
202
140
172
30
211
24
333
64
217
153
247
81
133
57
169
304
122
179
173
224
192
182
116
266
54
132
319
262
76
239
205
83
258
185
223
110
40
255
73
170
214
123
269
128
168
121
138
225
99
200
80
210
227
85
137
135
265
96
162
141
106
245
248
216
66
111
219
212
86
230
142
102
207
187
94
88
206

>  <PUBCHEM_MMFF94_PARTIAL_CHARGES>  (1) 
9
1 -0.43
10 0.66
11 0.28
2 -0.57
27 0.36
28 0.36
3 -0.99
8 0.06
9 0.27

>  <PUBCHEM_EFFECTIVE_ROTOR_COUNT>  (1) 
8

>  <PUBCHEM_PHARMACOPHORE_FEATURES>  (1) 
5
1 2 acceptor
1 3 cation
1 3 donor
3 11 12 13 hydrophobe
5 4 5 6 7 8 hydrophobe

>  <PUBCHEM_HEAVY_ATOM_COUNT>  (1) 
13

>  <PUBCHEM_ATOM_DEF_STEREO_COUNT>  (1) 
0

>  <PUBCHEM_ATOM_UDEF_STEREO_COUNT>  (1) 
0

>  <PUBCHEM_BOND_DEF_STEREO_COUNT>  (1) 
0

>  <PUBCHEM_BOND_UDEF_STEREO_COUNT>  (1) 
0

>  <PUBCHEM_ISOTOPIC_ATOM_COUNT>  (1) 
0

>  <PUBCHEM_COMPONENT_COUNT>  (1) 
1

>  <PUBCHEM_CACTVS_TAUTO_COUNT>  (1) 
1

>  <PUBCHEM_CONFORMER_ID>  (1) 
0000603500000001

>  <PUBCHEM_MMFF94_ENERGY>  (1) 
5.9313

>  <PUBCHEM_FEATURE_SELFOVERLAP>  (1) 
25.371

>  <PUBCHEM_SHAPE_FINGERPRINT>  (1) 
10354089 29 17131833174629304264
12815109 37 18409449193731331725
13533116 47 17749382633866602258
14123238 8 18409448089866655949
14251718 22 16200429187350116559
14251732 16 18261677098637679233
14251764 46 18273215296381693734
15048467 5 17775004600288501913
15242439 84 10375867472648740189
17834072 33 17775000228312306037
17834072 8 10665229254744578593
17834076 25 17846499235677416348
20279233 1 18040726856918085003
20645477 70 16009020645372745282
20767249 13 17967814951172426599
20767249 213 17775286079945165133
21130983 4 17917998291089189457
22224240 67 18410568522522951386
22485316 2 17240199945446298242
23218964 4 8358263635574278381
23402539 116 15936404559705213399
23557571 272 18130235856267313637
3545911 37 17490154114237709663
42 15 16588021294920934674
42788 4 18343303669384077829
449060 50 18272932725956292260
522135 26 11167942459374844156
5374978 207 18335416863798565224
57483677 66 16370723742846005147

>  <PUBCHEM_SHAPE_MULTIPOLES>  (1) 
250.81
14.91
0.95
0.86
13.89
0.09
0.19
-1.41
3.25
-0.62
-0.03
-0.7
0.16
-0.28

>  <PUBCHEM_SHAPE_SELFOVERLAP>  (1) 
459.933

>  <PUBCHEM_SHAPE_VOLUME>  (1) 
160.1

>  <PUBCHEM_COORDINATE_TYPE>  (1) 
2
5
10

$$$$
