24622
     RDKit          3D

  6  5  0  0  0  0  0  0  0  0999 V2000
    1.8171    0.0016   -1.0770 Cl  0  0  0  0  0  0  0  0  0  0  0  0
    0.4555   -1.4583    1.0294 Cl  0  0  0  0  0  0  0  0  0  0  0  0
    0.4554    1.4552    1.0336 Cl  0  0  0  0  0  0  0  0  0  0  0  0
   -0.8916    0.0013   -0.8725 C   0  0  0  0  0  0  0  0  0  0  0  0
    0.3768    0.0000   -0.0045 C   0  0  0  0  0  0  0  0  0  0  0  0
   -2.2133    0.0001   -0.1090 C   0  0  0  0  0  0  0  0  0  0  0  0
  1  5  1  0
  2  5  1  0
  3  5  1  0
  4  5  1  0
  4  6  1  0
M  END
>  <PUBCHEM_COMPOUND_CID>  (1) 
24622

>  <PUBCHEM_CONFORMER_RMSD>  (1) 
0.4

>  <PUBCHEM_CONFORMER_DIVERSEORDER>  (1) 
1

>  <PUBCHEM_MMFF94_PARTIAL_CHARGES>  (1) 
4
1 -0.29
2 -0.29
3 -0.29
5 0.87

>  <PUBCHEM_EFFECTIVE_ROTOR_COUNT>  (1) 
1

>  <PUBCHEM_PHARMACOPHORE_FEATURES>  (1) 
1
1 6 hydrophobe

>  <PUBCHEM_HEAVY_ATOM_COUNT>  (1) 
6

>  <PUBCHEM_ATOM_DEF_STEREO_COUNT>  (1) 
0

>  <PUBCHEM_ATOM_UDEF_STEREO_COUNT>  (1) 
0

>  <PUBCHEM_BOND_DEF_STEREO_COUNT>  (1) 
0

>  <PUBCHEM_BOND_UDEF_STEREO_COUNT>  (1) 
0

>  <PUBCHEM_ISOTOPIC_ATOM_COUNT>  (1) 
0

>  <PUBCHEM_COMPONENT_COUNT>  (1) 
1

>  <PUBCHEM_CACTVS_TAUTO_COUNT>  (1) 
1

>  <PUBCHEM_CONFORMER_ID>  (1) 
0000602E00000001

>  <PUBCHEM_MMFF94_ENERGY>  (1) 
2.9464

>  <PUBCHEM_FEATURE_SELFOVERLAP>  (1) 
5.074

>  <PUBCHEM_SHAPE_FINGERPRINT>  (1) 
137420 1 16763452846083008120
16714656 1 17201937941479717589
20096714 4 17630027498281251145
21040471 1 17822851004032909559
24536 1 16987128695839874901
29004967 10 17632306686985182702
5943 1 11045310310908034792

>  <PUBCHEM_SHAPE_MULTIPOLES>  (1) 
129.09
2.21
1.37
1.33
0.85
0
0.07
0
-0.78
-0.31
0.76
-0.38
0
0

>  <PUBCHEM_SHAPE_SELFOVERLAP>  (1) 
203.771

>  <PUBCHEM_SHAPE_VOLUME>  (1) 
90.2

>  <PUBCHEM_COORDINATE_TYPE>  (1) 
2
5
10

$$$$
