24623
     RDKit          3D

  7  6  0  0  0  0  0  0  0  0999 V2000
    1.1364   -1.7692    0.5285 Cl  0  0  0  0  0  0  0  0  0  0  0  0
    0.1982   -0.2866   -1.7860 Cl  0  0  0  0  0  0  0  0  0  0  0  0
   -2.4118    0.7276    0.0886 Cl  0  0  0  0  0  0  0  0  0  0  0  0
    1.5714    1.5419    0.0917 O   0  0  0  0  0  0  0  0  0  0  0  0
    0.1087   -0.4057   -0.0098 C   0  0  0  0  0  0  0  0  0  0  0  0
   -1.3241   -0.6379    0.4692 C   0  0  0  0  0  0  0  0  0  0  0  0
    0.7211    0.8299    0.6177 C   0  0  0  0  0  0  0  0  0  0  0  0
  1  5  1  0
  2  5  1  0
  3  6  1  0
  4  7  2  0
  5  6  1  0
  5  7  1  0
M  END
>  <PUBCHEM_COMPOUND_CID>  (1) 
24623

>  <PUBCHEM_CONFORMER_RMSD>  (1) 
0.4

>  <PUBCHEM_CONFORMER_DIVERSEORDER>  (1) 
1
5
4
2
7
8
3
6

>  <PUBCHEM_MMFF94_PARTIAL_CHARGES>  (1) 
8
1 -0.29
10 0.06
2 -0.29
3 -0.29
4 -0.57
5 0.64
6 0.29
7 0.45

>  <PUBCHEM_EFFECTIVE_ROTOR_COUNT>  (1) 
2

>  <PUBCHEM_PHARMACOPHORE_FEATURES>  (1) 
1
1 4 acceptor

>  <PUBCHEM_HEAVY_ATOM_COUNT>  (1) 
7

>  <PUBCHEM_ATOM_DEF_STEREO_COUNT>  (1) 
0

>  <PUBCHEM_ATOM_UDEF_STEREO_COUNT>  (1) 
0

>  <PUBCHEM_BOND_DEF_STEREO_COUNT>  (1) 
0

>  <PUBCHEM_BOND_UDEF_STEREO_COUNT>  (1) 
0

>  <PUBCHEM_ISOTOPIC_ATOM_COUNT>  (1) 
0

>  <PUBCHEM_COMPONENT_COUNT>  (1) 
1

>  <PUBCHEM_CACTVS_TAUTO_COUNT>  (1) 
1

>  <PUBCHEM_CONFORMER_ID>  (1) 
0000602F00000001

>  <PUBCHEM_MMFF94_ENERGY>  (1) 
9.7634

>  <PUBCHEM_FEATURE_SELFOVERLAP>  (1) 
5.074

>  <PUBCHEM_SHAPE_FINGERPRINT>  (1) 
137420 1 17553250602625832522
20096714 4 18270680986288083713
21040471 1 18194118748914057896
29004967 10 18121769535102491043
5084963 1 17913780688659160737
5943 1 8603091292419651814

>  <PUBCHEM_SHAPE_MULTIPOLES>  (1) 
143.8
2.34
1.59
1.25
1.73
0.27
0.81
-0.06
-0.39
-0.9
-0.37
-0.2
-0.07
-0.01

>  <PUBCHEM_SHAPE_SELFOVERLAP>  (1) 
240.445

>  <PUBCHEM_SHAPE_VOLUME>  (1) 
99.7

>  <PUBCHEM_COORDINATE_TYPE>  (1) 
2
5
10

$$$$
