2463
     RDKit          3D

 18 19  0  0  0  0  0  0  0  0999 V2000
    0.3360   -0.4463   -0.2863 N   0  0  0  0  0  0  0  0  0  0  0  0
   -0.5983    1.7194   -0.2639 N   0  0  0  0  0  0  0  0  0  0  0  0
    1.5581    0.0892   -0.4585 N   0  0  0  0  0  0  0  0  0  0  0  0
   -1.6598    2.5632   -0.1736 N   0  0  0  0  0  0  0  0  0  0  0  0
   -2.0609   -0.1827   -0.0140 C   0  0  0  0  0  0  0  0  0  0  0  0
   -3.1564    0.6883    0.0801 C   0  0  0  0  0  0  0  0  0  0  0  0
   -0.7950    0.3802   -0.1862 C   0  0  0  0  0  0  0  0  0  0  0  0
   -2.2674   -1.5701    0.0667 C   0  0  0  0  0  0  0  0  0  0  0  0
   -4.4482    0.1640    0.2543 C   0  0  0  0  0  0  0  0  0  0  0  0
   -3.5542   -2.0809    0.2397 C   0  0  0  0  0  0  0  0  0  0  0  0
   -2.8987    2.0520   -0.0062 C   0  0  0  0  0  0  0  0  0  0  0  0
   -4.6425   -1.2156    0.3334 C   0  0  0  0  0  0  0  0  0  0  0  0
    2.5662   -0.7289   -0.5440 C   0  0  0  0  0  0  0  0  0  0  0  0
    4.7335    0.1727    0.3088 C   0  0  0  0  0  0  0  0  0  0  0  0
    3.9411   -0.1818   -0.7175 C   0  0  0  0  0  0  0  0  0  0  0  0
    2.4701   -2.2339   -0.4413 C   0  0  0  0  0  0  0  0  0  0  0  0
    6.1209    0.6937    0.0454 C   0  0  0  0  0  0  0  0  0  0  0  0
    4.3554    0.1175    1.7631 C   0  0  0  0  0  0  0  0  0  0  0  0
  1  3  1  0
  1  7  1  0
  2  4  2  0
  2  7  1  0
  3 13  2  0
  4 11  1  0
  5  6  1  0
  5  7  2  0
  5  8  1  0
  6  9  1  0
  6 11  2  0
  8 10  2  0
  9 12  2  0
 10 12  1  0
 13 15  1  0
 13 16  1  0
 14 15  2  0
 14 17  1  0
 14 18  1  0
M  END
>  <PUBCHEM_COMPOUND_CID>  (1) 
2463

>  <PUBCHEM_CONFORMER_RMSD>  (1) 
0.6

>  <PUBCHEM_CONFORMER_DIVERSEORDER>  (1) 
1
10
6
16
14
3
11
9
15
4
13
5
2
12
8
7

>  <PUBCHEM_MMFF94_PARTIAL_CHARGES>  (1) 
23
1 -0.46
10 -0.15
11 0.16
12 -0.15
13 0.37
14 -0.28
15 -0.14
16 0.06
17 0.14
18 0.14
19 0.15
2 -0.31
20 0.15
21 0.15
22 0.15
23 0.15
24 0.4
25 0.15
3 -0.49
4 -0.31
7 0.41
8 -0.15
9 -0.15

>  <PUBCHEM_EFFECTIVE_ROTOR_COUNT>  (1) 
3

>  <PUBCHEM_PHARMACOPHORE_FEATURES>  (1) 
7
1 1 donor
1 3 acceptor
1 4 acceptor
3 1 2 7 cation
3 14 17 18 hydrophobe
6 2 4 5 6 7 11 rings
6 5 6 8 9 10 12 rings

>  <PUBCHEM_HEAVY_ATOM_COUNT>  (1) 
18

>  <PUBCHEM_ATOM_DEF_STEREO_COUNT>  (1) 
0

>  <PUBCHEM_ATOM_UDEF_STEREO_COUNT>  (1) 
0

>  <PUBCHEM_BOND_DEF_STEREO_COUNT>  (1) 
0

>  <PUBCHEM_BOND_UDEF_STEREO_COUNT>  (1) 
1

>  <PUBCHEM_ISOTOPIC_ATOM_COUNT>  (1) 
0

>  <PUBCHEM_COMPONENT_COUNT>  (1) 
1

>  <PUBCHEM_CACTVS_TAUTO_COUNT>  (1) 
2

>  <PUBCHEM_CONFORMER_ID>  (1) 
0000099F00000001

>  <PUBCHEM_MMFF94_ENERGY>  (1) 
61.506

>  <PUBCHEM_FEATURE_SELFOVERLAP>  (1) 
35.547

>  <PUBCHEM_SHAPE_FINGERPRINT>  (1) 
10319926 262 18268134376347089586
10366900 7 18201428194872959402
11315181 36 17967816072011353748
11405975 8 18125724491739732058
11595378 159 18040986315923994144
12107183 9 17612299759148293328
12173636 292 18121499055585001677
12236239 1 17530963583851592122
12507560 40 18272091548369758150
12596602 18 17603583058564935544
13167823 11 18187079521360849434
13214271 11 18343018891450864397
13237642 15 18272931635219273738
14081887 123 18341044146987086056
14178342 30 18262515875838732750
14341114 328 18187079555788841328
15099037 37 18410855464460111039
15196674 1 18338802212613371070
17349148 13 17676210177924504106
1813 80 17385733486437062047
18785283 64 17843671408168164640
200 152 15430033262049902837
20510252 161 18270966722130847409
20645477 56 18337955589023947789
21033648 29 17489575745705318904
21065198 48 18113612353500138386
21079973 296 18412265059873469714
21267235 1 18336559303893613391
21637258 2 16009611190955098305
22854114 59 18060419123114321266
22943178 12 18200596869825253950
2297311 6 18342188764561864700
23366157 5 17680433543768543597
23402539 116 18260263074907511374
23557571 272 18271538515290075516
23559900 14 18268432330780920838
3009799 131 18336531777869817245
34934 24 18409443657582005183
3545911 37 18340772554993776526
4214541 1 18338239258591394044
474229 33 18410856598880441094
5104073 3 18267871592303147210
543368 44 13182440231872409322
573450 72 18040990718054391440
633830 44 13686288089636976358
67856867 119 18042411403305904652
9709674 26 18268719324305654543

>  <PUBCHEM_SHAPE_MULTIPOLES>  (1) 
350.51
11.97
2.16
0.88
11.61
0.23
0.29
-0.48
2.14
-2
-0.16
0.95
-0.03
0.58

>  <PUBCHEM_SHAPE_SELFOVERLAP>  (1) 
737.078

>  <PUBCHEM_SHAPE_VOLUME>  (1) 
197

>  <PUBCHEM_COORDINATE_TYPE>  (1) 
2
5
10

$$$$
