24649
     RDKit          3D

  9  8  0  0  0  0  0  0  0  0999 V2000
    2.8231   -1.3856    0.1953 Cl  0  0  0  0  0  0  0  0  0  0  0  0
   -2.8229   -1.3855   -0.1965 Cl  0  0  0  0  0  0  0  0  0  0  0  0
    1.4550    0.1185   -0.0396 S   0  0  0  0  0  0  0  0  0  0  0  0
   -1.4550    0.1185    0.0398 S   0  0  0  0  0  0  0  0  0  0  0  0
    0.0001   -0.6158   -0.0003 O   0  0  0  0  0  0  0  0  0  0  0  0
    1.6055    0.9436    1.1414 O   0  0  0  0  0  0  0  0  0  0  0  0
    1.6945    0.6316   -1.3730 O   0  0  0  0  0  0  0  0  0  0  0  0
   -1.6055    0.9444   -1.1406 O   0  0  0  0  0  0  0  0  0  0  0  0
   -1.6947    0.6303    1.3734 O   0  0  0  0  0  0  0  0  0  0  0  0
  1  3  1  0
  2  4  1  0
  3  5  1  0
  3  6  2  0
  3  7  2  0
  4  5  1  0
  4  8  2  0
  4  9  2  0
M  END
>  <PUBCHEM_COMPOUND_CID>  (1) 
24649

>  <PUBCHEM_CONFORMER_RMSD>  (1) 
0.4

>  <PUBCHEM_CONFORMER_DIVERSEORDER>  (1) 
1
4
5
2
3
6

>  <PUBCHEM_MMFF94_PARTIAL_CHARGES>  (1) 
9
1 -0.19
2 -0.19
3 1.67
4 1.67
5 -0.37
6 -0.65
7 -0.65
8 -0.65
9 -0.65

>  <PUBCHEM_EFFECTIVE_ROTOR_COUNT>  (1) 
2

>  <PUBCHEM_PHARMACOPHORE_FEATURES>  (1) 
4
1 6 acceptor
1 7 acceptor
1 8 acceptor
1 9 acceptor

>  <PUBCHEM_HEAVY_ATOM_COUNT>  (1) 
9

>  <PUBCHEM_ATOM_DEF_STEREO_COUNT>  (1) 
0

>  <PUBCHEM_ATOM_UDEF_STEREO_COUNT>  (1) 
0

>  <PUBCHEM_BOND_DEF_STEREO_COUNT>  (1) 
0

>  <PUBCHEM_BOND_UDEF_STEREO_COUNT>  (1) 
0

>  <PUBCHEM_ISOTOPIC_ATOM_COUNT>  (1) 
0

>  <PUBCHEM_COMPONENT_COUNT>  (1) 
1

>  <PUBCHEM_CACTVS_TAUTO_COUNT>  (1) 
1

>  <PUBCHEM_CONFORMER_ID>  (1) 
0000604900000001

>  <PUBCHEM_MMFF94_ENERGY>  (1) 
-0.3008

>  <PUBCHEM_FEATURE_SELFOVERLAP>  (1) 
20.332

>  <PUBCHEM_SHAPE_FINGERPRINT>  (1) 
10857977 72 16773802545135909211
12932764 1 18410864260516157799
20645464 45 11023827288088590783
20653091 64 18272934933928172018
23552423 10 18040150712550947067
24536 1 17203609280737132112
29004967 10 16200440164753859430
3248919 1 16200155417249498015
5084963 1 18334857216416518563

>  <PUBCHEM_SHAPE_MULTIPOLES>  (1) 
167.31
4.31
1.36
1.16
0
0.4
0
1.76
0
0
0
0
-0.44
-0.13

>  <PUBCHEM_SHAPE_SELFOVERLAP>  (1) 
276.32

>  <PUBCHEM_SHAPE_VOLUME>  (1) 
116.5

>  <PUBCHEM_COORDINATE_TYPE>  (1) 
2
5
10

$$$$
