2466
     RDKit          3D

 16 16  0  0  0  0  0  0  0  0999 V2000
    2.3451   -0.5597   -0.7356 O   0  0  0  0  0  0  0  0  0  0  0  0
   -4.1539   -0.9308   -0.7940 O   0  0  0  0  0  0  0  0  0  0  0  0
   -5.7102    1.2788   -0.8220 O   0  0  0  0  0  0  0  0  0  0  0  0
   -4.7232    1.0960    0.1556 N   0  0  0  0  0  0  0  0  0  0  0  0
    4.6547   -0.1191   -0.2832 C   0  0  0  0  0  0  0  0  0  0  0  0
    5.6780    0.9219    0.1615 C   0  0  0  0  0  0  0  0  0  0  0  0
    3.2480    0.4600   -0.3309 C   0  0  0  0  0  0  0  0  0  0  0  0
   -1.5525   -0.2776    0.6639 C   0  0  0  0  0  0  0  0  0  0  0  0
    1.0582   -0.4660   -0.2728 C   0  0  0  0  0  0  0  0  0  0  0  0
    7.0748    0.3282    0.2493 C   0  0  0  0  0  0  0  0  0  0  0  0
   -2.9524   -0.1762    1.1672 C   0  0  0  0  0  0  0  0  0  0  0  0
   -0.9941   -1.5286    0.4021 C   0  0  0  0  0  0  0  0  0  0  0  0
   -0.8010    0.8790    0.4558 C   0  0  0  0  0  0  0  0  0  0  0  0
    0.3158   -1.6231   -0.0679 C   0  0  0  0  0  0  0  0  0  0  0  0
    0.5089    0.7845   -0.0143 C   0  0  0  0  0  0  0  0  0  0  0  0
   -3.9962   -0.0672    0.0653 C   0  0  0  0  0  0  0  0  0  0  0  0
  1  7  1  0
  1  9  1  0
  2 16  2  0
  3  4  1  0
  4 16  1  0
  5  6  1  0
  5  7  1  0
  6 10  1  0
  8 11  1  0
  8 12  2  0
  8 13  1  0
  9 14  2  0
  9 15  1  0
 11 16  1  0
 12 14  1  0
 13 15  2  0
M  END
>  <PUBCHEM_COMPOUND_CID>  (1) 
2466

>  <PUBCHEM_CONFORMER_RMSD>  (1) 
0.8

>  <PUBCHEM_CONFORMER_DIVERSEORDER>  (1) 
1
31
42
29
60
61
28
39
47
51
67
37
45
20
30
44
23
40
7
11
38
27
32
56
4
6
17
55
58
36
50
19
16
8
10
66
12
62
21
34
63
13
24
54
35
68
59
49
2
15
52
33
9
57
53
26
14
22
41
46
48
25
64
3
43
65
18
5

>  <PUBCHEM_MMFF94_PARTIAL_CHARGES>  (1) 
19
1 -0.36
11 0.2
12 -0.15
13 -0.15
14 -0.15
15 -0.15
16 0.57
2 -0.57
28 0.15
29 0.15
3 -0.44
30 0.15
31 0.15
32 0.37
33 0.4
4 -0.39
7 0.28
8 -0.14
9 0.08

>  <PUBCHEM_EFFECTIVE_ROTOR_COUNT>  (1) 
7

>  <PUBCHEM_PHARMACOPHORE_FEATURES>  (1) 
5
1 1 acceptor
1 10 hydrophobe
1 2 acceptor
1 4 donor
6 8 9 12 13 14 15 rings

>  <PUBCHEM_HEAVY_ATOM_COUNT>  (1) 
16

>  <PUBCHEM_ATOM_DEF_STEREO_COUNT>  (1) 
0

>  <PUBCHEM_ATOM_UDEF_STEREO_COUNT>  (1) 
0

>  <PUBCHEM_BOND_DEF_STEREO_COUNT>  (1) 
0

>  <PUBCHEM_BOND_UDEF_STEREO_COUNT>  (1) 
0

>  <PUBCHEM_ISOTOPIC_ATOM_COUNT>  (1) 
0

>  <PUBCHEM_COMPONENT_COUNT>  (1) 
1

>  <PUBCHEM_CACTVS_TAUTO_COUNT>  (1) 
3

>  <PUBCHEM_CONFORMER_ID>  (1) 
000009A200000001

>  <PUBCHEM_MMFF94_ENERGY>  (1) 
36.1404

>  <PUBCHEM_FEATURE_SELFOVERLAP>  (1) 
25.371

>  <PUBCHEM_SHAPE_FINGERPRINT>  (1) 
10014705 185 18340208591338415418
11089746 13 18408881871733350652
11401426 45 18413109459123358159
117890 112 18333169466495202324
12236239 1 17676489475779849378
12714333 28 18202283593344305577
13288520 33 10663817477730582433
13533116 47 18336541622014585026
13740256 8 10375863082770209301
14123238 8 14836409125158631768
14123256 10 16487254374134279244
1420 363 9295288344234213916
14251718 22 12895355491107616712
14251764 18 15285648715195082250
14350574 20 9871747988462461826
17834072 33 15051731997690210680
17834076 25 17894912935992990296
19489759 90 17894911840702548296
200 152 16845294938261738523
21029758 11 18131072636224152584
21150785 3 17203602696990260525
23035841 295 11095885964653586204
23402539 116 18412542128308673892
23402655 69 18272370833034297949
23559900 14 17774999124452924872
300161 21 18342173376068693162
34934 24 18410009935945384658
351380 180 18272934938392041648
4072396 5 18261665991899841658
7062679 117 14836402549184030261

>  <PUBCHEM_SHAPE_MULTIPOLES>  (1) 
306.68
14.05
1.32
0.85
13.29
0.23
-0.06
-5.16
0.88
-0.8
0.05
-0.49
0.01
0.36

>  <PUBCHEM_SHAPE_SELFOVERLAP>  (1) 
615.777

>  <PUBCHEM_SHAPE_VOLUME>  (1) 
180.3

>  <PUBCHEM_COORDINATE_TYPE>  (1) 
2
5
10

$$$$
