24672
     RDKit          3D

 29 32  0  0  0  0  0  0  0  0999 V2000
    0.6759   -2.3539    0.0967 S   0  0  0  0  0  0  0  0  0  0  0  0
    5.6332   -0.1771    0.0824 S   0  0  0  0  0  0  0  0  0  0  0  0
   -2.6069    1.2426   -2.4006 O   0  0  0  0  0  0  0  0  0  0  0  0
   -2.6487    1.3739    2.3432 O   0  0  0  0  0  0  0  0  0  0  0  0
    0.0056   -2.4295   -1.3898 O   0  0  0  0  0  0  0  0  0  0  0  0
    6.0756   -0.2687   -1.4891 O   0  0  0  0  0  0  0  0  0  0  0  0
    1.5584   -3.5001    0.2295 O   0  0  0  0  0  0  0  0  0  0  0  0
   -0.3796   -2.1054    1.0621 O   0  0  0  0  0  0  0  0  0  0  0  0
    6.2241    1.0405    0.6189 O   0  0  0  0  0  0  0  0  0  0  0  0
    5.9005   -1.4660    0.7021 O   0  0  0  0  0  0  0  0  0  0  0  0
   -0.2432    0.4800    0.0144 N   0  0  0  0  0  0  0  0  0  0  0  0
   -2.2558    1.8228   -0.0393 C   0  0  0  0  0  0  0  0  0  0  0  0
   -0.7667    1.7268   -0.0232 C   0  0  0  0  0  0  0  0  0  0  0  0
   -2.8565    1.0800   -1.2209 C   0  0  0  0  0  0  0  0  0  0  0  0
   -2.8781    1.1458    1.1703 C   0  0  0  0  0  0  0  0  0  0  0  0
   -3.8173    0.1039   -0.7025 C   0  0  0  0  0  0  0  0  0  0  0  0
   -3.8297    0.1420    0.6891 C   0  0  0  0  0  0  0  0  0  0  0  0
    1.0971    0.3525    0.0288 C   0  0  0  0  0  0  0  0  0  0  0  0
    1.9518    1.4745    0.0059 C   0  0  0  0  0  0  0  0  0  0  0  0
    1.6777   -0.9122    0.0673 C   0  0  0  0  0  0  0  0  0  0  0  0
   -0.0128    2.8824   -0.0478 C   0  0  0  0  0  0  0  0  0  0  0  0
    1.3680    2.7480   -0.0329 C   0  0  0  0  0  0  0  0  0  0  0  0
    3.3467    1.3046    0.0218 C   0  0  0  0  0  0  0  0  0  0  0  0
    3.9002    0.0281    0.0603 C   0  0  0  0  0  0  0  0  0  0  0  0
    3.0643   -1.0815    0.0831 C   0  0  0  0  0  0  0  0  0  0  0  0
   -4.6196   -0.7684   -1.4120 C   0  0  0  0  0  0  0  0  0  0  0  0
   -4.6451   -0.6905    1.4308 C   0  0  0  0  0  0  0  0  0  0  0  0
   -5.4533   -1.6168   -0.6781 C   0  0  0  0  0  0  0  0  0  0  0  0
   -5.4658   -1.5783    0.7297 C   0  0  0  0  0  0  0  0  0  0  0  0
  1  5  1  0
  1  7  2  0
  1  8  2  0
  1 20  1  0
  2  6  1  0
  2  9  2  0
  2 10  2  0
  2 24  1  0
  3 14  2  0
  4 15  2  0
 11 13  2  0
 11 18  1  0
 12 13  1  0
 12 14  1  0
 12 15  1  0
 13 21  1  0
 14 16  1  0
 15 17  1  0
 16 17  2  0
 16 26  1  0
 17 27  1  0
 18 19  2  0
 18 20  1  0
 19 22  1  0
 19 23  1  0
 20 25  2  0
 21 22  2  0
 23 24  2  0
 24 25  1  0
 26 28  2  0
 27 29  2  0
 28 29  1  0
M  END
>  <PUBCHEM_COMPOUND_CID>  (1) 
24672

>  <PUBCHEM_CONFORMER_RMSD>  (1) 
0.8

>  <PUBCHEM_CONFORMER_DIVERSEORDER>  (1) 
1
6
5
4
3
2

>  <PUBCHEM_MMFF94_PARTIAL_CHARGES>  (1) 
38
1 1.49
10 -0.65
11 -0.62
12 0.27
13 0.17
14 0.42
15 0.42
16 0.09
17 0.09
18 0.31
2 1.49
20 -0.01
21 -0.15
22 -0.15
23 -0.15
24 -0.01
25 -0.15
26 -0.15
27 -0.15
28 -0.15
29 -0.15
3 -0.57
31 0.15
32 0.15
33 0.15
34 0.15
35 0.15
36 0.15
37 0.15
38 0.15
39 0.5
4 -0.57
40 0.5
5 -0.68
6 -0.68
7 -0.65
8 -0.65
9 -0.65

>  <PUBCHEM_EFFECTIVE_ROTOR_COUNT>  (1) 
3.2

>  <PUBCHEM_PHARMACOPHORE_FEATURES>  (1) 
16
1 10 acceptor
1 11 acceptor
1 12 anion
1 3 acceptor
1 4 acceptor
1 5 acceptor
1 6 acceptor
1 7 acceptor
1 8 acceptor
1 9 acceptor
4 1 5 7 8 anion
4 2 6 9 10 anion
5 12 14 15 16 17 rings
6 11 13 18 19 21 22 rings
6 16 17 26 27 28 29 rings
6 18 19 20 23 24 25 rings

>  <PUBCHEM_HEAVY_ATOM_COUNT>  (1) 
29

>  <PUBCHEM_ATOM_DEF_STEREO_COUNT>  (1) 
0

>  <PUBCHEM_ATOM_UDEF_STEREO_COUNT>  (1) 
0

>  <PUBCHEM_BOND_DEF_STEREO_COUNT>  (1) 
0

>  <PUBCHEM_BOND_UDEF_STEREO_COUNT>  (1) 
0

>  <PUBCHEM_ISOTOPIC_ATOM_COUNT>  (1) 
0

>  <PUBCHEM_COMPONENT_COUNT>  (1) 
1

>  <PUBCHEM_CACTVS_TAUTO_COUNT>  (1) 
3

>  <PUBCHEM_CONFORMER_ID>  (1) 
0000606000000001

>  <PUBCHEM_MMFF94_ENERGY>  (1) 
64.1635

>  <PUBCHEM_FEATURE_SELFOVERLAP>  (1) 
81.436

>  <PUBCHEM_SHAPE_FINGERPRINT>  (1) 
10076449 9 18341904004668401980
1100329 8 18268709600520327354
11089746 13 13045940226838636598
11488393 25 17914904136483459118
11578080 2 17098046140201681927
11607047 403 15330916932204061851
12035758 1 18339355379195541720
12166972 35 17894916251945237084
12236239 1 17846781814466380209
12422481 6 17202485498713663806
12596602 18 17346600793693872097
13140716 1 18195530513222474283
13224815 77 18338234864871589587
13402501 40 18261111902427067611
13583140 156 16587745347794266832
13862211 1 18409727353220084818
13911987 19 18261118478201469756
14787075 74 18259988158604357010
14844126 61 16604061773601178651
14849402 71 17345465076341890552
14856354 85 15626215857930644468
14955137 171 17632305566199529232
15209289 33 18059858380447211497
15324884 4 17534887883039395525
17349148 13 18411138034938364376
17980427 23 15864079732269359543
19489759 90 16153704314776658021
19591789 44 18410854369591583990
200 152 18342172293710664785
20028762 73 18130224964225210255
20775438 99 15827428929713946055
21267235 1 18412550928622784252
21814621 53 15769220419472613490
22393880 68 18115010953465098277
23559900 14 16877941693612495749
3178227 256 18337117859842088835
3383291 50 18409442567172645618
34797466 226 15647349545279135508
350125 39 18336830908745217036
3737641 26 18128827343459909534
392239 28 18272096019230032523
463206 1 18267303312917751023
474229 33 18408884036201760522
5104073 3 18270394984901348304
57307002 85 17677065593444137475
59755656 215 18408039598223339423
6287921 2 17702962331068705775
6669772 16 18191300696955826360
9896288 288 17416704457054331465

>  <PUBCHEM_SHAPE_MULTIPOLES>  (1) 
552.57
12.81
3
1.39
7.83
0.59
0.14
4.2
-0.02
0.34
-0.04
-1.58
-0.13
-0.04

>  <PUBCHEM_SHAPE_SELFOVERLAP>  (1) 
1218.993

>  <PUBCHEM_SHAPE_VOLUME>  (1) 
299.4

>  <PUBCHEM_COORDINATE_TYPE>  (1) 
2
5
10

$$$$
