24674
     RDKit          3D

 29 31  0  0  0  0  0  0  0  0999 V2000
    2.7074    0.3595   -0.4701 N   0  0  0  0  0  0  0  0  0  0  0  0
    2.3469    0.8512    0.6244 N   0  0  0  0  0  0  0  0  0  0  0  0
   -2.8602    0.4469   -0.4752 N   0  0  0  0  0  0  0  0  0  0  0  0
    7.5139   -2.4457    0.1771 N   0  0  0  0  0  0  0  0  0  0  0  0
   -2.4833    0.9261    0.6200 N   0  0  0  0  0  0  0  0  0  0  0  0
   -7.7684   -2.1741    0.1816 N   0  0  0  0  0  0  0  0  0  0  0  0
    2.6711   -2.4005    0.1893 N   0  0  0  0  0  0  0  0  0  0  0  0
   -2.9274   -2.3107    0.1921 N   0  0  0  0  0  0  0  0  0  0  0  0
    6.3188   -0.3743   -0.3092 C   0  0  0  0  0  0  0  0  0  0  0  0
   -6.4965   -0.1516   -0.3162 C   0  0  0  0  0  0  0  0  0  0  0  0
    3.9067   -0.3538   -0.3027 C   0  0  0  0  0  0  0  0  0  0  0  0
    6.3068   -1.7314    0.0130 C   0  0  0  0  0  0  0  0  0  0  0  0
   -6.5353   -1.5065    0.0136 C   0  0  0  0  0  0  0  0  0  0  0  0
   -4.0854   -0.2217   -0.3105 C   0  0  0  0  0  0  0  0  0  0  0  0
    3.8908   -1.7086    0.0190 C   0  0  0  0  0  0  0  0  0  0  0  0
    5.1169    0.3157   -0.4674 C   0  0  0  0  0  0  0  0  0  0  0  0
   -5.2698    0.4918   -0.4785 C   0  0  0  0  0  0  0  0  0  0  0  0
   -4.1203   -1.5743    0.0188 C   0  0  0  0  0  0  0  0  0  0  0  0
    1.1683    2.9182    0.1308 C   0  0  0  0  0  0  0  0  0  0  0  0
    1.1519    1.5621    0.4570 C   0  0  0  0  0  0  0  0  0  0  0  0
    5.0927   -2.3985    0.1770 C   0  0  0  0  0  0  0  0  0  0  0  0
   -5.3472   -2.2178    0.1812 C   0  0  0  0  0  0  0  0  0  0  0  0
   -1.2639    1.5913    0.4567 C   0  0  0  0  0  0  0  0  0  0  0  0
   -0.0641    0.8987    0.6200 C   0  0  0  0  0  0  0  0  0  0  0  0
    7.6045    0.3641   -0.4944 C   0  0  0  0  0  0  0  0  0  0  0  0
   -0.0314    3.6109   -0.0323 C   0  0  0  0  0  0  0  0  0  0  0  0
   -7.7537    0.6351   -0.4980 C   0  0  0  0  0  0  0  0  0  0  0  0
   -1.2475    2.9474    0.1306 C   0  0  0  0  0  0  0  0  0  0  0  0
    2.4579    3.6506   -0.0477 C   0  0  0  0  0  0  0  0  0  0  0  0
  1  2  2  0
  1 11  1  0
  2 20  1  0
  3  5  2  0
  3 14  1  0
  4 12  1  0
  5 23  1  0
  6 13  1  0
  7 15  1  0
  8 18  1  0
  9 12  2  0
  9 16  1  0
  9 25  1  0
 10 13  2  0
 10 17  1  0
 10 27  1  0
 11 15  1  0
 11 16  2  0
 12 21  1  0
 13 22  1  0
 14 17  2  0
 14 18  1  0
 15 21  2  0
 18 22  2  0
 19 20  2  0
 19 26  1  0
 19 29  1  0
 20 24  1  0
 23 24  2  0
 23 28  1  0
 26 28  2  0
M  END
>  <PUBCHEM_COMPOUND_CID>  (1) 
24674

>  <PUBCHEM_CONFORMER_RMSD>  (1) 
0.8

>  <PUBCHEM_CONFORMER_DIVERSEORDER>  (1) 
1
29
21
44
35
22
28
2
39
23
16
13
37
27
41
10
33
38
24
36
26
30
9
15
43
42
5
8
17
18
34
4
32
7
40
19
20
11
25
6
31
14
12
3

>  <PUBCHEM_MMFF94_PARTIAL_CHARGES>  (1) 
44
1 -0.18
10 -0.14
11 0.18
12 0.1
13 0.1
14 0.18
15 0.1
16 -0.15
17 -0.15
18 0.1
19 -0.14
2 -0.18
20 0.18
21 -0.15
22 -0.15
23 0.18
24 -0.15
25 0.14
26 -0.15
27 0.14
28 -0.15
29 0.14
3 -0.18
30 0.15
31 0.15
32 0.15
33 0.15
34 0.15
38 0.15
4 -0.9
42 0.15
46 0.4
47 0.4
48 0.4
49 0.4
5 -0.18
50 0.4
51 0.4
52 0.4
53 0.4
6 -0.9
7 -0.9
8 -0.9
9 -0.14

>  <PUBCHEM_EFFECTIVE_ROTOR_COUNT>  (1) 
4

>  <PUBCHEM_PHARMACOPHORE_FEATURES>  (1) 
11
1 4 cation
1 4 donor
1 6 cation
1 6 donor
1 7 cation
1 7 donor
1 8 cation
1 8 donor
6 10 13 14 17 18 22 rings
6 19 20 23 24 26 28 rings
6 9 11 12 15 16 21 rings

>  <PUBCHEM_HEAVY_ATOM_COUNT>  (1) 
29

>  <PUBCHEM_ATOM_DEF_STEREO_COUNT>  (1) 
0

>  <PUBCHEM_ATOM_UDEF_STEREO_COUNT>  (1) 
0

>  <PUBCHEM_BOND_DEF_STEREO_COUNT>  (1) 
0

>  <PUBCHEM_BOND_UDEF_STEREO_COUNT>  (1) 
0

>  <PUBCHEM_ISOTOPIC_ATOM_COUNT>  (1) 
0

>  <PUBCHEM_COMPONENT_COUNT>  (1) 
1

>  <PUBCHEM_CACTVS_TAUTO_COUNT>  (1) 
144

>  <PUBCHEM_CONFORMER_ID>  (1) 
0000606200000001

>  <PUBCHEM_MMFF94_ENERGY>  (1) 
126.2913

>  <PUBCHEM_FEATURE_SELFOVERLAP>  (1) 
55.824

>  <PUBCHEM_SHAPE_FINGERPRINT>  (1) 
10 15 10663813096478968237
10100884 174 18261388894202714386
10411042 1 18411419501214968032
10622 236 17607791812930292586
10939801 23 18272087249513501206
11410812 94 16660916670244618556
11456790 92 17774455970990494371
117089 54 18119535581606577195
12107183 9 18270692978728746905
12166972 35 17967818241096328948
12516196 113 18413107264537481714
12592606 108 18342453764766941759
12760667 363 18271804601736548381
13248334 5 18123469646668672688
13402501 40 18411138039096720551
13533116 47 18200876309414864081
13540713 5 18268731483480070808
13631057 29 18340488855651456440
13685833 64 18411982481417153137
13690498 29 18187358818799671237
14068700 675 18344146981680732520
14117953 113 18272653420218011655
14394314 77 18338803299577843729
14420673 8 18408605877488610451
14866123 147 18269560430101792545
15183329 4 18408038494812142963
15721738 202 17561083614315831488
15927050 60 17766276857855825652
16087824 20 18339080377099068453
16992752 21 18341624706850285708
17134984 74 17603585236034694922
17492 89 18123188172176381627
20028762 73 18339361852160415498
20165401 70 18126283276213868439
20567600 70 18411138065040071366
21033650 10 16877936097629026365
21049683 271 18410858802346915604
21267235 1 18413111675384810505
21403212 168 8862948260495991140
23522609 53 18124349126937121985
23559900 14 18339354279663028921
249999 5 18057597879605506136
3004659 81 18187080676116013249
329604 57 18409451367269561844
335352 9 18411415112596596685
3421961 26 18341328993455595369
4098825 35 17967249789000144853
4107672 100 17749946666611042981
437815 12 18411134745368163253
439807 62 18335983086353444726
4461854 278 17775012322772349390
46194498 28 17676484011859380229
465052 167 18272653462771779028
5718773 13 18339078190728164618
6138700 20 18410573973026594283
6697151 62 18129638882226889053
7970288 3 18411417293459262082
999808 66 18041572412010289275

>  <PUBCHEM_SHAPE_MULTIPOLES>  (1) 
556.96
22.32
3.91
0.71
6.35
2.25
0
-17.73
3.02
-1.59
-0.36
0.01
0.07
0.05

>  <PUBCHEM_SHAPE_SELFOVERLAP>  (1) 
1210.329

>  <PUBCHEM_SHAPE_VOLUME>  (1) 
306.1

>  <PUBCHEM_COORDINATE_TYPE>  (1) 
2
5
10

$$$$
