2468
     RDKit          3D

 11 10  0  0  0  0  0  0  0  0999 V2000
   -0.3497   -0.5099   -0.4042 N   0  0  0  0  0  0  0  0  0  0  0  0
    1.8576   -0.2370   -0.7525 N   0  0  0  0  0  0  0  0  0  0  0  0
    1.1708   -2.1080    0.5274 N   0  0  0  0  0  0  0  0  0  0  0  0
    3.3991    1.4977   -0.5205 N   0  0  0  0  0  0  0  0  0  0  0  0
    2.0376    1.0653    1.2613 N   0  0  0  0  0  0  0  0  0  0  0  0
   -2.7829   -0.5724   -0.2281 C   0  0  0  0  0  0  0  0  0  0  0  0
   -2.8865    0.8622    0.2945 C   0  0  0  0  0  0  0  0  0  0  0  0
   -1.4718   -1.2433    0.1662 C   0  0  0  0  0  0  0  0  0  0  0  0
   -4.1958    1.5127   -0.1242 C   0  0  0  0  0  0  0  0  0  0  0  0
    0.8380   -0.9825   -0.1947 C   0  0  0  0  0  0  0  0  0  0  0  0
    2.3836    0.7152   -0.0251 C   0  0  0  0  0  0  0  0  0  0  0  0
  1  8  1  0
  1 10  2  0
  2 10  1  0
  2 11  2  0
  3 10  1  0
  4 11  1  0
  5 11  1  0
  6  7  1  0
  6  8  1  0
  7  9  1  0
M  END
>  <PUBCHEM_COMPOUND_CID>  (1) 
2468

>  <PUBCHEM_CONFORMER_RMSD>  (1) 
0.6

>  <PUBCHEM_CONFORMER_DIVERSEORDER>  (1) 
1
54
34
57
55
47
50
42
21
49
5
60
35
51
46
37
48
27
28
33
41
45
52
18
58
40
38
43
62
10
24
32
17
6
8
19
16
61
36
31
12
14
23
30
56
59
9
3
22
44
4
29
13
20
63
7
11
39
26
2
15
25
53

>  <PUBCHEM_MMFF94_PARTIAL_CHARGES>  (1) 
14
1 -0.7
10 0.71
11 0.55
2 -0.66
21 0.4
22 0.4
23 0.4
24 0.4
25 0.4
26 0.4
3 -0.85
4 -0.85
5 -0.85
8 0.25

>  <PUBCHEM_EFFECTIVE_ROTOR_COUNT>  (1) 
4

>  <PUBCHEM_PHARMACOPHORE_FEATURES>  (1) 
6
1 3 donor
1 4 donor
1 5 donor
1 9 hydrophobe
4 1 2 3 10 cation
4 2 4 5 11 cation

>  <PUBCHEM_HEAVY_ATOM_COUNT>  (1) 
11

>  <PUBCHEM_ATOM_DEF_STEREO_COUNT>  (1) 
0

>  <PUBCHEM_ATOM_UDEF_STEREO_COUNT>  (1) 
0

>  <PUBCHEM_BOND_DEF_STEREO_COUNT>  (1) 
0

>  <PUBCHEM_BOND_UDEF_STEREO_COUNT>  (1) 
0

>  <PUBCHEM_ISOTOPIC_ATOM_COUNT>  (1) 
0

>  <PUBCHEM_COMPONENT_COUNT>  (1) 
1

>  <PUBCHEM_CACTVS_TAUTO_COUNT>  (1) 
5

>  <PUBCHEM_CONFORMER_ID>  (1) 
000009A400000001

>  <PUBCHEM_MMFF94_ENERGY>  (1) 
24.0027

>  <PUBCHEM_FEATURE_SELFOVERLAP>  (1) 
30.548

>  <PUBCHEM_SHAPE_FINGERPRINT>  (1) 
10149128 111 18334299802797345757
12932764 1 17917429864968160471
13618510 140 18410858746095115593
14251710 61 9799684918257147413
14390081 3 18342457058310323903
14897335 6 18410569570400000031
15775835 57 18412548695461472701
170605 34 18411141329046521791
177051 138 10665234752366144289
18342897 96 18342457088264292943
20767249 442 18407757023909035221
20767249 462 18335135410302160797
230 275 18411133628016984371
305870 269 18334853918003084602
3248919 1 17312829290274296111
449060 62 18340772550831028621
7364860 26 18270399356661343526

>  <PUBCHEM_SHAPE_MULTIPOLES>  (1) 
201.47
6.45
1.86
0.82
3.76
0.25
0.12
-4.28
-0.36
-0.25
0.18
-0.35
-0.11
-0.07

>  <PUBCHEM_SHAPE_SELFOVERLAP>  (1) 
376.439

>  <PUBCHEM_SHAPE_VOLUME>  (1) 
121.2

>  <PUBCHEM_COORDINATE_TYPE>  (1) 
2
5
10

$$$$
