24685
     RDKit          3D

 13 13  0  0  0  0  0  0  0  0999 V2000
    2.2832   -0.5262   -0.4715 O   0  0  0  0  0  0  0  0  0  0  0  0
    1.0780    1.4171   -0.5080 O   0  0  0  0  0  0  0  0  0  0  0  0
    0.0513   -0.6689   -0.1994 N   0  0  0  0  0  0  0  0  0  0  0  0
    3.4678    0.1403   -0.0198 C   0  0  0  0  0  0  0  0  0  0  0  0
    3.2838    0.5600    1.4307 C   0  0  0  0  0  0  0  0  0  0  0  0
    4.6615   -0.7864   -0.1946 C   0  0  0  0  0  0  0  0  0  0  0  0
   -1.3036   -0.3623   -0.0698 C   0  0  0  0  0  0  0  0  0  0  0  0
    1.1227    0.1976   -0.4022 C   0  0  0  0  0  0  0  0  0  0  0  0
   -2.2336   -1.3825    0.1305 C   0  0  0  0  0  0  0  0  0  0  0  0
   -1.7280    0.9645   -0.1395 C   0  0  0  0  0  0  0  0  0  0  0  0
   -3.5882   -1.0757    0.2611 C   0  0  0  0  0  0  0  0  0  0  0  0
   -3.0825    1.2713   -0.0088 C   0  0  0  0  0  0  0  0  0  0  0  0
   -4.0125    0.2512    0.1913 C   0  0  0  0  0  0  0  0  0  0  0  0
  1  4  1  0
  1  8  1  0
  2  8  2  0
  3  7  1  0
  3  8  1  0
  4  5  1  0
  4  6  1  0
  7  9  2  0
  7 10  1  0
  9 11  1  0
 10 12  2  0
 11 13  2  0
 12 13  1  0
M  END
>  <PUBCHEM_COMPOUND_CID>  (1) 
24685

>  <PUBCHEM_CONFORMER_RMSD>  (1) 
0.6

>  <PUBCHEM_CONFORMER_DIVERSEORDER>  (1) 
2
14
5
8
11
12
15
16
4
1
9
17
13
3
6
7
10

>  <PUBCHEM_MMFF94_PARTIAL_CHARGES>  (1) 
17
1 -0.43
10 -0.15
11 -0.15
12 -0.15
13 -0.15
2 -0.57
21 0.37
22 0.15
23 0.15
24 0.15
25 0.15
26 0.15
3 -0.55
4 0.28
7 0.12
8 0.78
9 -0.15

>  <PUBCHEM_EFFECTIVE_ROTOR_COUNT>  (1) 
4

>  <PUBCHEM_PHARMACOPHORE_FEATURES>  (1) 
4
1 2 acceptor
1 3 donor
3 4 5 6 hydrophobe
6 7 9 10 11 12 13 rings

>  <PUBCHEM_HEAVY_ATOM_COUNT>  (1) 
13

>  <PUBCHEM_ATOM_DEF_STEREO_COUNT>  (1) 
0

>  <PUBCHEM_ATOM_UDEF_STEREO_COUNT>  (1) 
0

>  <PUBCHEM_BOND_DEF_STEREO_COUNT>  (1) 
0

>  <PUBCHEM_BOND_UDEF_STEREO_COUNT>  (1) 
0

>  <PUBCHEM_ISOTOPIC_ATOM_COUNT>  (1) 
0

>  <PUBCHEM_COMPONENT_COUNT>  (1) 
1

>  <PUBCHEM_CACTVS_TAUTO_COUNT>  (1) 
2

>  <PUBCHEM_CONFORMER_ID>  (1) 
0000606D00000002

>  <PUBCHEM_MMFF94_ENERGY>  (1) 
33.2913

>  <PUBCHEM_FEATURE_SELFOVERLAP>  (1) 
20.297

>  <PUBCHEM_SHAPE_FINGERPRINT>  (1) 
11062470 55 15339120130322523605
11132069 177 18410856564441230533
12251169 10 18334860523836521285
124424 183 17917709089212845752
12932764 1 17632574980849615302
13296908 3 18342737429475054318
13675066 3 18343581858631698714
14144814 61 18186517704703495275
14325111 11 18410577288018264125
15375462 189 17313377912090003456
17804303 29 18410578391793327588
17834072 33 18187935023079930276
18186145 218 16343706555823219190
18522853 276 18411420617979882729
1986462 14 18409451375274096423
200 152 18060411435407639983
20279233 1 17988931058682446063
20281475 54 17603862312806430410
20645464 45 17988931067609867151
20645477 56 18340491058859078105
20645477 70 13334723618842890808
21501925 9 18336541728433517173
22485316 2 17603862304137036560
2255824 54 17095811026705141164
23402539 116 18343295968977084965
23559900 14 18342457015650664860
42 15 18409730647191118330
474 4 16517387714934556940
5104073 3 18410295838806161248
573450 72 18113890546504695491
57812782 119 18343581854183698641
69090 78 18060133258628533783

>  <PUBCHEM_SHAPE_MULTIPOLES>  (1) 
250.81
8.67
1.32
0.82
4.38
0.04
0.22
-0.92
1.01
-0.73
-0.02
0.56
0.1
0.4

>  <PUBCHEM_SHAPE_SELFOVERLAP>  (1) 
509.377

>  <PUBCHEM_SHAPE_VOLUME>  (1) 
145.9

>  <PUBCHEM_COORDINATE_TYPE>  (1) 
2
5
10

$$$$
