24691
     RDKit          3D

 12 13  0  0  0  0  0  0  0  0999 V2000
    3.6731   -0.1999    0.0013 Cl  0  0  0  0  0  0  0  0  0  0  0  0
    1.3758   -2.0959   -0.0002 O   0  0  0  0  0  0  0  0  0  0  0  0
   -1.2699   -1.4333   -0.0001 N   0  0  0  0  0  0  0  0  0  0  0  0
   -0.7032    0.9089    0.0000 C   0  0  0  0  0  0  0  0  0  0  0  0
   -0.3444   -0.4553   -0.0003 C   0  0  0  0  0  0  0  0  0  0  0  0
    1.0102   -0.7762   -0.0005 C   0  0  0  0  0  0  0  0  0  0  0  0
    0.2892    1.9038   -0.0001 C   0  0  0  0  0  0  0  0  0  0  0  0
   -2.0667    1.2325    0.0002 C   0  0  0  0  0  0  0  0  0  0  0  0
    1.9971    0.2127   -0.0006 C   0  0  0  0  0  0  0  0  0  0  0  0
    1.6366    1.5544   -0.0004 C   0  0  0  0  0  0  0  0  0  0  0  0
   -3.0227    0.2269    0.0004 C   0  0  0  0  0  0  0  0  0  0  0  0
   -2.5753   -1.0787    0.0002 C   0  0  0  0  0  0  0  0  0  0  0  0
  1  9  1  0
  2  6  1  0
  3  5  2  0
  3 12  1  0
  4  5  1  0
  4  7  1  0
  4  8  2  0
  5  6  1  0
  6  9  2  0
  7 10  2  0
  8 11  1  0
  9 10  1  0
 11 12  2  0
M  END
>  <PUBCHEM_COMPOUND_CID>  (1) 
24691

>  <PUBCHEM_CONFORMER_RMSD>  (1) 
0.4

>  <PUBCHEM_CONFORMER_DIVERSEORDER>  (1) 
1

>  <PUBCHEM_MMFF94_PARTIAL_CHARGES>  (1) 
17
1 -0.18
10 -0.15
11 -0.15
12 0.16
13 0.15
14 0.15
15 0.15
16 0.15
17 0.15
18 0.45
2 -0.53
3 -0.62
5 0.31
6 0.08
7 -0.15
8 -0.15
9 0.18

>  <PUBCHEM_EFFECTIVE_ROTOR_COUNT>  (1) 
0

>  <PUBCHEM_PHARMACOPHORE_FEATURES>  (1) 
4
1 2 donor
1 3 acceptor
6 3 4 5 8 11 12 rings
6 4 5 6 7 9 10 rings

>  <PUBCHEM_HEAVY_ATOM_COUNT>  (1) 
12

>  <PUBCHEM_ATOM_DEF_STEREO_COUNT>  (1) 
0

>  <PUBCHEM_ATOM_UDEF_STEREO_COUNT>  (1) 
0

>  <PUBCHEM_BOND_DEF_STEREO_COUNT>  (1) 
0

>  <PUBCHEM_BOND_UDEF_STEREO_COUNT>  (1) 
0

>  <PUBCHEM_ISOTOPIC_ATOM_COUNT>  (1) 
0

>  <PUBCHEM_COMPONENT_COUNT>  (1) 
1

>  <PUBCHEM_CACTVS_TAUTO_COUNT>  (1) 
3

>  <PUBCHEM_CONFORMER_ID>  (1) 
0000607300000001

>  <PUBCHEM_MMFF94_ENERGY>  (1) 
32.6264

>  <PUBCHEM_FEATURE_SELFOVERLAP>  (1) 
20.329

>  <PUBCHEM_SHAPE_FINGERPRINT>  (1) 
10967382 1 18410855425784325638
11132069 177 18410848859206624128
11206711 2 18408322194001709925
11471102 20 18338513144651101485
12032990 46 18411707586240792518
12382932 28 18341048514947759568
12423570 1 10860173598067315345
12524768 44 18198065780988621095
12897270 3 18410011061068125453
13380535 76 18410008823364121683
14325111 11 18338516442806462336
16945 1 18410575080489593313
17844478 74 17968387805294253665
193761 8 17690279309480166212
20201158 50 18409728452262311543
20588541 1 18409451358030787118
21040471 1 17834395996415433216
21501502 16 18338239395977833757
2334 1 17978229683660144772
23402655 69 18196354945934977173
23463225 33 18335136475696279338
23552423 10 18262519311485567381
23559900 14 18343026589002995052
241688 4 17977950081294515240
2748010 2 18121780792206290989
5084963 1 18129666425170851416
528886 8 18411414003476805576
53812653 166 18342172250233367416
63268167 104 18338518534529187377
8809292 202 18187651365737951107

>  <PUBCHEM_SHAPE_MULTIPOLES>  (1) 
237.97
4.56
1.91
0.61
0.96
0.01
0
0.52
0
0.1
0
0.01
-0.03
0

>  <PUBCHEM_SHAPE_SELFOVERLAP>  (1) 
516.286

>  <PUBCHEM_SHAPE_VOLUME>  (1) 
131.2

>  <PUBCHEM_COORDINATE_TYPE>  (1) 
2
5
10

$$$$
