24712
     RDKit          2D

 32 33  0  0  1  0  0  0  0  0999 V2000
    0.0000    0.0000    0.0000 S   0  0  0  0  0  0  0  0  0  0  0  0
    0.0000    0.0000    0.0000 S   0  0  0  0  0  0  0  0  0  0  0  0
    0.0000    0.0000    0.0000 O   0  0  0  0  0  0  0  0  0  0  0  0
    0.0000    0.0000    0.0000 O   0  0  0  0  0  0  0  0  0  0  0  0
    0.0000    0.0000    0.0000 O   0  0  0  0  0  0  0  0  0  0  0  0
    0.0000    0.0000    0.0000 O   0  0  0  0  0  0  0  0  0  0  0  0
    0.0000    0.0000    0.0000 O   0  0  0  0  0  0  0  0  0  0  0  0
    0.0000    0.0000    0.0000 O   0  0  0  0  0  0  0  0  0  0  0  0
    0.0000    0.0000    0.0000 O   0  0  0  0  0  0  0  0  0  0  0  0
    0.0000    0.0000    0.0000 O   0  0  0  0  0  0  0  0  0  0  0  0
    0.0000    0.0000    0.0000 O   0  0  0  0  0  0  0  0  0  0  0  0
    0.0000    0.0000    0.0000 O   0  0  0  0  0  0  0  0  0  0  0  0
    0.0000    0.0000    0.0000 C   0  0  0  0  0  0  0  0  0  0  0  0
    0.0000    0.0000    0.0000 C   0  0  0  0  0  0  0  0  0  0  0  0
    0.0000    0.0000    0.0000 C   0  0  0  0  0  0  0  0  0  0  0  0
    0.0000    0.0000    0.0000 C   0  0  0  0  0  0  0  0  0  0  0  0
    0.0000    0.0000    0.0000 C   0  0  0  0  0  0  0  0  0  0  0  0
    0.0000    0.0000    0.0000 C   0  0  0  0  0  0  0  0  0  0  0  0
    0.0000    0.0000    0.0000 C   0  0  0  0  0  0  0  0  0  0  0  0
    0.0000    0.0000    0.0000 C   0  0  0  0  0  0  0  0  0  0  0  0
    0.0000    0.0000    0.0000 C   0  0  0  0  0  0  0  0  0  0  0  0
    0.0000    0.0000    0.0000 C   0  0  0  0  0  0  0  0  0  0  0  0
    0.0000    0.0000    0.0000 C   0  0  0  0  0  0  0  0  0  0  0  0
    0.0000    0.0000    0.0000 C   0  0  0  0  0  0  0  0  0  0  0  0
    0.0000    0.0000    0.0000 C   0  0  0  0  0  0  0  0  0  0  0  0
    0.0000    0.0000    0.0000 C   0  0  0  0  0  0  0  0  0  0  0  0
    0.0000    0.0000    0.0000 C   0  0  0  0  0  0  0  0  0  0  0  0
    0.0000    0.0000    0.0000 C   0  0  0  0  0  0  0  0  0  0  0  0
    0.0000    0.0000    0.0000 C   0  0  0  0  0  0  0  0  0  0  0  0
    0.0000    0.0000    0.0000 C   0  0  0  0  0  0  0  0  0  0  0  0
    0.0000    0.0000    0.0000 C   0  0  0  0  0  0  0  0  0  0  0  0
    0.0000    0.0000    0.0000 C   0  0  0  0  0  0  0  0  0  0  0  0
  1  4  1  0
  1  6  2  0
  1  7  2  0
  1 15  1  0
  2 10  1  0
  2 11  2  0
  2 12  2  0
  2 22  1  0
  3 13  1  0
  3 20  1  0
  5 21  1  0
  5 31  1  0
  8 26  1  0
  9 28  1  0
  9 32  1  0
 13 14  1  0
 13 15  1  0
 14 16  1  0
 16 26  2  0
 16 27  1  0
 17 18  1  0
 17 19  1  0
 18 22  1  0
 19 23  2  0
 19 24  1  0
 20 21  2  0
 20 25  1  0
 21 23  1  0
 24 25  2  0
 26 28  1  0
 27 29  2  0
 28 30  2  0
 29 30  1  0
M  END
>  <PUBCHEM_COMPOUND_CID>  (1) 
24712

>  <PUBCHEM_CONFORMER_RMSD>  (1) 
1.2

>  <PUBCHEM_CONFORMER_DIVERSEORDER>  (1) 
15
345
223
276
353
142
366
70
291
329
383
242
38
290
100
325
224
264
50
332
144
368
322
21
200
228
177
161
251
1
186
365
311
112
160
392
253
149
257
45
388
267
77
82
266
42
297
303
170
191
183
73
189
10
28
232
103
99
163
337
296
16
373
134
130
185
255
85
343
313
184
275
136
289
129
156
22
246
258
34
174
320
218
319
11
92
143
279
30
169
126
273
372
90
3
233
306
305
347
106
198
304
247
175
29
389
39
300
350
221
81
302
151
72
260
13
374
364
231
52
391
128
292
199
283
331
141
113
307
195
359
346
60
269
348
377
342
71
285
172
18
153
180
79
108
386
7
349
116
48
226
371
369
65
23
262
62
354
32
104
168
352
194
225
88
281
171
220
192
201
123
110
263
33
394
360
19
147
334
204
229
55
271
41
140
310
286
390
355
217
222
321
162
210
51
381
133
250
387
96
67
12
295
43
219
119
58
326
318
284
362
64
280
121
17
102
378
333
125
213
120
145
74
2
9
361
124
241
212
370
89
137
272
14
393
197
236
8
178
244
340
154
203
278
234
166
146
314
173
35
294
293
309
61
344
76
86
336
117
176
367
274
26
249
63
205
316
84
265
315
196
40
139
56
148
132
299
114
384
155
256
207
159
138
157
91
49
66
25
215
101
20
211
308
301
239
118
259
209
282
181
338
68
245
341
46
87
375
268
75
107
206
80
252
47
356
376
382
357
216
288
95
240
323
115
127
351
179
59
150
243
69
131
135
165
182
152
379
4
277
190
380
230
328
53
109
339
122
238
31
363
324
202
98
193
270
6
24
261
94
317
158
97
287
214
5
57
188
93
208
187
83
335
395
248
298
27
254
330
227
167
327
237
164
36
358
111
235
44
78
37
385
312
54
105

>  <PUBCHEM_MMFF94_PARTIAL_CHARGES>  (1) 
40
1 1.38
10 -0.68
11 -0.65
12 -0.65
13 0.28
14 0.14
15 0.11
16 -0.14
17 0.14
19 -0.14
2 1.38
20 0.08
21 0.08
22 0.11
23 -0.15
24 -0.15
25 -0.15
26 0.08
27 -0.15
28 0.08
29 -0.15
3 -0.36
30 -0.15
31 0.28
32 0.28
4 -0.68
44 0.15
45 0.15
46 0.15
47 0.15
48 0.15
49 0.15
5 -0.36
50 0.5
51 0.45
55 0.5
6 -0.65
7 -0.65
8 -0.53
9 -0.36

>  <PUBCHEM_EFFECTIVE_ROTOR_COUNT>  (1) 
12

>  <PUBCHEM_PHARMACOPHORE_FEATURES>  (1) 
14
1 10 acceptor
1 11 acceptor
1 12 acceptor
1 3 acceptor
1 4 acceptor
1 5 acceptor
1 6 acceptor
1 7 acceptor
1 8 donor
1 9 acceptor
4 1 4 6 7 anion
4 2 10 11 12 anion
6 16 26 27 28 29 30 rings
6 19 20 21 23 24 25 rings

>  <PUBCHEM_HEAVY_ATOM_COUNT>  (1) 
32

>  <PUBCHEM_ATOM_DEF_STEREO_COUNT>  (1) 
0

>  <PUBCHEM_ATOM_UDEF_STEREO_COUNT>  (1) 
1

>  <PUBCHEM_BOND_DEF_STEREO_COUNT>  (1) 
0

>  <PUBCHEM_BOND_UDEF_STEREO_COUNT>  (1) 
0

>  <PUBCHEM_ISOTOPIC_ATOM_COUNT>  (1) 
0

>  <PUBCHEM_COMPONENT_COUNT>  (1) 
1

>  <PUBCHEM_CACTVS_TAUTO_COUNT>  (1) 
3

$$$$
