24713
     RDKit          3D

 13 13  0  0  1  0  0  0  0  0999 V2000
    2.7480   -2.2409   -0.3773 O   0  0  0  0  0  0  0  0  0  0  0  0
   -1.4669   -0.3059    1.1619 C   0  0  0  0  0  0  0  0  0  0  0  0
   -2.5869    0.2014    0.2283 C   0  0  0  0  0  0  0  0  0  0  0  0
   -0.0761   -0.1530    0.5708 C   0  0  0  0  0  0  0  0  0  0  0  0
   -2.6339   -0.5448   -1.1093 C   0  0  0  0  0  0  0  0  0  0  0  0
   -1.5560    0.4043    2.5183 C   0  0  0  0  0  0  0  0  0  0  0  0
    0.3801    1.1104    0.2491 C   0  0  0  0  0  0  0  0  0  0  0  0
    0.6944   -1.2820    0.3712 C   0  0  0  0  0  0  0  0  0  0  0  0
    1.6574    1.2503   -0.2937 C   0  0  0  0  0  0  0  0  0  0  0  0
   -3.7574   -0.0262   -1.9941 C   0  0  0  0  0  0  0  0  0  0  0  0
    1.9717   -1.1419   -0.1719 C   0  0  0  0  0  0  0  0  0  0  0  0
    2.4532    0.1242   -0.5042 C   0  0  0  0  0  0  0  0  0  0  0  0
    2.1724    2.6041   -0.6491 C   0  0  0  0  0  0  0  0  0  0  0  0
  1 11  1  0
  2  3  1  0
  2  4  1  0
  2  6  1  0
  3  5  1  0
  4  7  2  0
  4  8  1  0
  5 10  1  0
  7  9  1  0
  8 11  2  0
  9 12  2  0
  9 13  1  0
 11 12  1  0
M  END
>  <PUBCHEM_COMPOUND_CID>  (1) 
24713

>  <PUBCHEM_CONFORMER_RMSD>  (1) 
0.6

>  <PUBCHEM_CONFORMER_DIVERSEORDER>  (1) 
1
9
3
6
13
18
4
12
7
14
15
10
2
11
8
5
17
16

>  <PUBCHEM_MMFF94_PARTIAL_CHARGES>  (1) 
13
1 -0.53
11 0.08
12 -0.15
13 0.14
2 0.14
22 0.15
23 0.15
27 0.15
31 0.45
4 -0.14
7 -0.15
8 -0.15
9 -0.14

>  <PUBCHEM_EFFECTIVE_ROTOR_COUNT>  (1) 
3

>  <PUBCHEM_PHARMACOPHORE_FEATURES>  (1) 
4
1 1 donor
1 10 hydrophobe
1 6 hydrophobe
6 4 7 8 9 11 12 rings

>  <PUBCHEM_HEAVY_ATOM_COUNT>  (1) 
13

>  <PUBCHEM_ATOM_DEF_STEREO_COUNT>  (1) 
0

>  <PUBCHEM_ATOM_UDEF_STEREO_COUNT>  (1) 
1

>  <PUBCHEM_BOND_DEF_STEREO_COUNT>  (1) 
0

>  <PUBCHEM_BOND_UDEF_STEREO_COUNT>  (1) 
0

>  <PUBCHEM_ISOTOPIC_ATOM_COUNT>  (1) 
0

>  <PUBCHEM_COMPONENT_COUNT>  (1) 
1

>  <PUBCHEM_CACTVS_TAUTO_COUNT>  (1) 
17

>  <PUBCHEM_CONFORMER_ID>  (1) 
0000608900000001

>  <PUBCHEM_MMFF94_ENERGY>  (1) 
25.4096

>  <PUBCHEM_FEATURE_SELFOVERLAP>  (1) 
20.297

>  <PUBCHEM_SHAPE_FINGERPRINT>  (1) 
12138202 97 17386006225381876267
124424 183 17458336451454361408
12932764 1 17418107528301318369
13294875 104 16734642248521857281
13380537 58 15936690479461255697
13571099 52 17604699109563265325
13764800 53 15430037609269132013
13839132 238 16515677875194063551
13898156 1 17632032878488094257
14115302 16 17489021557632717901
14128692 85 17988915648313413891
14614273 12 17757847996873785530
14761567 1 17843682407293994131
14817 1 8911089805238289953
15852999 172 18191857045069214592
16945 1 18336847350111952944
18186145 218 17604142645580082341
18380122 1 17389408195951869249
20361792 2 18196103148554254542
20671657 53 18267853995785276887
21639500 275 18338240482536078772
21930827 45 16008754614903089425
21947302 44 17895180138851606581
22112679 90 17489043585955704505
22802520 49 17968096395810345653
228727 97 17559408043988083001
232386 152 16773786000753034799
23557571 272 16878517859290471877
23598291 2 17915482522194906879
25 1 17315068866542108421
25610 171 15937264441900896617
2748010 2 17823151162111979200
6049 1 17386590031780733585
63268167 104 18411708698489453872
68419 9 17345494646457694017
6992083 37 17628089892272860194
77492 1 17846227647952746129
8030462 33 17917440864110081529
81228 2 17467642498970956616
88987 49 15502376776535008371

>  <PUBCHEM_SHAPE_MULTIPOLES>  (1) 
261.66
4.99
1.92
1.74
2.73
0.38
-0.71
0.24
2.83
-2.47
0.41
2.12
0.07
0.19

>  <PUBCHEM_SHAPE_SELFOVERLAP>  (1) 
527.373

>  <PUBCHEM_SHAPE_VOLUME>  (1) 
155.3

>  <PUBCHEM_COORDINATE_TYPE>  (1) 
2
5
10

$$$$
