24720
     RDKit          3D

 17 18  0  0  0  0  0  0  0  0999 V2000
   -0.0364    0.1120   -0.7881 S   0  0  0  0  0  0  0  0  0  0  0  0
    0.3030   -1.1105   -1.5022 O   0  0  0  0  0  0  0  0  0  0  0  0
    0.2143    1.4052   -1.4097 O   0  0  0  0  0  0  0  0  0  0  0  0
    4.2770    0.9440    0.2757 O   0  0  0  0  0  0  0  0  0  0  0  0
    2.9442    1.2854    0.4703 N   0  0  0  0  0  0  0  0  0  0  0  0
   -5.7692   -0.2017    0.7595 N   0  0  0  0  0  0  0  0  0  0  0  0
    0.8402    0.1024    0.7594 C   0  0  0  0  0  0  0  0  0  0  0  0
   -1.7196    0.0198   -0.3335 C   0  0  0  0  0  0  0  0  0  0  0  0
    2.3137    0.1194    0.5486 C   0  0  0  0  0  0  0  0  0  0  0  0
   -2.4475    1.1892   -0.1130 C   0  0  0  0  0  0  0  0  0  0  0  0
   -2.3367   -1.2231   -0.1909 C   0  0  0  0  0  0  0  0  0  0  0  0
    3.1610   -0.9811    0.4158 C   0  0  0  0  0  0  0  0  0  0  0  0
   -3.7922    1.1157    0.2505 C   0  0  0  0  0  0  0  0  0  0  0  0
   -3.6814   -1.2965    0.1725 C   0  0  0  0  0  0  0  0  0  0  0  0
    4.3935   -0.4082    0.2450 C   0  0  0  0  0  0  0  0  0  0  0  0
   -4.4091   -0.1270    0.3932 C   0  0  0  0  0  0  0  0  0  0  0  0
    5.7453   -0.9450    0.0470 C   0  0  0  0  0  0  0  0  0  0  0  0
  1  2  2  0
  1  3  2  0
  1  7  1  0
  1  8  1  0
  4  5  1  0
  4 15  1  0
  5  9  2  0
  6 16  1  0
  7  9  1  0
  8 10  2  0
  8 11  1  0
  9 12  1  0
 10 13  1  0
 11 14  2  0
 12 15  2  0
 13 16  2  0
 14 16  1  0
 15 17  1  0
M  END
>  <PUBCHEM_COMPOUND_CID>  (1) 
24720

>  <PUBCHEM_CONFORMER_RMSD>  (1) 
0.6

>  <PUBCHEM_CONFORMER_DIVERSEORDER>  (1) 
2
4
5
7
10
1
3
6
8
9

>  <PUBCHEM_MMFF94_PARTIAL_CHARGES>  (1) 
24
1 1.2
10 -0.15
11 -0.15
12 -0.15
13 -0.15
14 -0.15
15 -0.04
16 0.1
17 0.18
2 -0.65
20 0.15
21 0.15
22 0.15
23 0.15
24 0.15
28 0.4
29 0.4
3 -0.65
4 -0.02
5 -0.41
6 -0.9
7 0.29
8 -0.01
9 0.11

>  <PUBCHEM_EFFECTIVE_ROTOR_COUNT>  (1) 
3

>  <PUBCHEM_PHARMACOPHORE_FEATURES>  (1) 
7
1 2 acceptor
1 3 acceptor
1 5 acceptor
1 6 cation
1 6 donor
5 4 5 9 12 15 rings
6 8 10 11 13 14 16 rings

>  <PUBCHEM_HEAVY_ATOM_COUNT>  (1) 
17

>  <PUBCHEM_ATOM_DEF_STEREO_COUNT>  (1) 
0

>  <PUBCHEM_ATOM_UDEF_STEREO_COUNT>  (1) 
0

>  <PUBCHEM_BOND_DEF_STEREO_COUNT>  (1) 
0

>  <PUBCHEM_BOND_UDEF_STEREO_COUNT>  (1) 
0

>  <PUBCHEM_ISOTOPIC_ATOM_COUNT>  (1) 
0

>  <PUBCHEM_COMPONENT_COUNT>  (1) 
1

>  <PUBCHEM_CACTVS_TAUTO_COUNT>  (1) 
1

>  <PUBCHEM_CONFORMER_ID>  (1) 
0000609000000002

>  <PUBCHEM_MMFF94_ENERGY>  (1) 
30.5974

>  <PUBCHEM_FEATURE_SELFOVERLAP>  (1) 
35.538

>  <PUBCHEM_SHAPE_FINGERPRINT>  (1) 
11128504 68 16588314882291171182
11401426 45 12031785863932447450
114248 4 10809343343008197763
12107183 9 17689996739102140650
12119455 92 16559030489106192853
12236239 1 17749112196945162189
12251169 10 18410292527650099869
124424 183 17632291281074531569
12507557 5 15841546405557789883
12507560 40 18412538825410595576
12815109 37 12324242762965946435
13288520 33 17749111084733294315
13675066 3 17561356284382711778
14251764 18 18059852895942623554
14341114 176 18410859871102039400
17834072 33 18114186362604138604
1813 80 17022626342769658334
18222031 100 16153426164257362044
19422 9 18408321116307738116
20645477 56 10663815286959716283
20871999 31 11241964889392507143
21267235 1 18187654604311772347
2297311 6 18410864230609843868
23035841 295 16877943828115919882
231179 274 15410900630498465185
23402539 116 18201431485477278117
23557571 272 18187366480440981044
23559900 14 18410567431147701184
23622692 88 18040436599123488391
42 15 18410293613981355051
4214541 1 18411417284905893649
465052 167 18412831287172060302
5104073 3 18272364330127063794
77779 3 18411417323729209456

>  <PUBCHEM_SHAPE_MULTIPOLES>  (1) 
326.13
11.65
1.36
0.97
3.16
0.07
-0.25
-1.87
2.94
-0.19
-0.13
-0.04
0.02
0.11

>  <PUBCHEM_SHAPE_SELFOVERLAP>  (1) 
680.59

>  <PUBCHEM_SHAPE_VOLUME>  (1) 
186.4

>  <PUBCHEM_COORDINATE_TYPE>  (1) 
2
5
10

$$$$
