2472
     RDKit          3D

 27 29  0  0  0  0  0  0  0  0999 V2000
   -3.9586   -2.0042    1.0414 O   0  0  0  0  0  0  0  0  0  0  0  0
    4.5478   -2.2664    1.2746 O   0  0  0  0  0  0  0  0  0  0  0  0
    5.7314   -0.6166   -0.6223 O   0  0  0  0  0  0  0  0  0  0  0  0
   -4.1560    0.2814    0.6778 N   0  0  0  0  0  0  0  0  0  0  0  0
   -1.4957    1.5069    0.8708 N   0  0  0  0  0  0  0  0  0  0  0  0
    0.5170    0.2548    1.0007 N   0  0  0  0  0  0  0  0  0  0  0  0
    0.3421    2.1449   -0.4839 N   0  0  0  0  0  0  0  0  0  0  0  0
    2.1613    2.7854   -1.8317 N   0  0  0  0  0  0  0  0  0  0  0  0
   -3.2505    2.1019   -0.7618 C   0  0  0  0  0  0  0  0  0  0  0  0
   -4.4913    1.4210   -0.1830 C   0  0  0  0  0  0  0  0  0  0  0  0
   -2.2880    2.6090    0.3160 C   0  0  0  0  0  0  0  0  0  0  0  0
   -3.5796    0.6173    1.9811 C   0  0  0  0  0  0  0  0  0  0  0  0
   -2.0505    0.6723    1.9461 C   0  0  0  0  0  0  0  0  0  0  0  0
   -4.2459   -1.0600    0.3009 C   0  0  0  0  0  0  0  0  0  0  0  0
   -0.1769    1.2983    0.4502 C   0  0  0  0  0  0  0  0  0  0  0  0
   -4.7261   -1.3382   -1.1012 C   0  0  0  0  0  0  0  0  0  0  0  0
   -4.7694   -2.8342   -1.3588 C   0  0  0  0  0  0  0  0  0  0  0  0
    1.7845    0.0488    0.6016 C   0  0  0  0  0  0  0  0  0  0  0  0
    2.3950    0.8749   -0.3562 C   0  0  0  0  0  0  0  0  0  0  0  0
    1.6131    1.9101   -0.8611 C   0  0  0  0  0  0  0  0  0  0  0  0
   -5.1869   -3.1776   -2.7819 C   0  0  0  0  0  0  0  0  0  0  0  0
    2.5355   -0.9984    1.1301 C   0  0  0  0  0  0  0  0  0  0  0  0
    3.7208    0.6499   -0.7660 C   0  0  0  0  0  0  0  0  0  0  0  0
    3.8545   -1.2288    0.7278 C   0  0  0  0  0  0  0  0  0  0  0  0
    4.4481   -0.4039   -0.2212 C   0  0  0  0  0  0  0  0  0  0  0  0
    4.4619   -3.5251    0.6096 C   0  0  0  0  0  0  0  0  0  0  0  0
    6.2624    0.2767   -1.5998 C   0  0  0  0  0  0  0  0  0  0  0  0
  1 14  2  0
  2 24  1  0
  2 26  1  0
  3 25  1  0
  3 27  1  0
  4 10  1  0
  4 12  1  0
  4 14  1  0
  5 11  1  0
  5 13  1  0
  5 15  1  0
  6 15  2  0
  6 18  1  0
  7 15  1  0
  7 20  2  0
  8 20  1  0
  9 10  1  0
  9 11  1  0
 12 13  1  0
 14 16  1  0
 16 17  1  0
 17 21  1  0
 18 19  2  0
 18 22  1  0
 19 20  1  0
 19 23  1  0
 22 24  2  0
 23 25  2  0
 24 25  1  0
M  END
>  <PUBCHEM_COMPOUND_CID>  (1) 
2472

>  <PUBCHEM_CONFORMER_RMSD>  (1) 
0.8

>  <PUBCHEM_CONFORMER_DIVERSEORDER>  (1) 
7
191
281
184
93
129
108
173
59
194
167
341
119
133
332
351
298
55
250
66
11
169
360
223
306
346
64
53
340
240
356
278
303
308
79
128
241
210
227
141
286
57
98
288
161
203
181
152
110
224
41
335
285
15
154
78
295
225
283
132
297
174
299
249
175
216
1
117
372
116
84
61
211
370
277
58
242
150
245
20
229
358
4
214
86
323
357
267
355
374
276
165
183
228
44
54
82
244
195
213
35
373
327
151
256
123
313
339
160
104
74
112
149
81
118
113
252
34
159
68
73
144
2
177
321
185
314
359
294
3
182
260
325
345
56
65
197
22
163
366
338
196
293
304
243
198
259
131
284
218
49
192
268
36
139
31
262
187
354
138
232
146
143
344
105
328
279
269
263
282
136
157
326
62
317
353
8
280
135
248
125
208
343
103
291
207
271
9
226
365
115
193
221
254
26
87
315
67
155
134
142
347
265
238
369
148
76
233
63
27
180
261
70
94
85
188
292
190
251
30
137
19
290
69
318
17
47
38
156
100
127
16
237
23
99
375
189
51
202
289
14
236
48
270
301
287
114
361
45
147
164
350
166
101
239
247
92
258
362
12
158
217
77
204
95
171
18
333
122
21
60
10
96
121
102
120
168
145
220
72
329
186
209
300
40
363
88
130
264
50
234
28
305
6
322
200
90
162
107
13
296
37
215
32
231
80
219
39
83
331
5
312
172
324
319
307
29
199
24
230
368
71
140
348
310
75
212
106
371
255
46
257
176
253
275
273
179
178
109
33
201
222
126
52
302
330
111
170
43
364
266
311
97
352
205
342
272
206
124
153
91
42
246
337
25
89
367
309
320
349
235
334
316
274
336

>  <PUBCHEM_MMFF94_PARTIAL_CHARGES>  (1) 
27
1 -0.57
10 0.3
11 0.37
12 0.3
13 0.37
14 0.57
15 0.72
16 0.06
18 0.31
2 -0.36
20 0.41
22 -0.15
23 -0.15
24 0.08
25 0.08
26 0.28
27 0.28
3 -0.36
4 -0.66
45 0.15
46 0.15
47 0.4
48 0.4
5 -0.84
6 -0.62
7 -0.62
8 -0.9

>  <PUBCHEM_EFFECTIVE_ROTOR_COUNT>  (1) 
7.4

>  <PUBCHEM_PHARMACOPHORE_FEATURES>  (1) 
9
1 1 acceptor
1 2 acceptor
1 21 hydrophobe
1 3 acceptor
1 8 donor
4 5 6 7 15 cation
6 18 19 22 23 24 25 rings
6 6 7 15 18 19 20 rings
7 4 5 9 10 11 12 13 rings

>  <PUBCHEM_HEAVY_ATOM_COUNT>  (1) 
27

>  <PUBCHEM_ATOM_DEF_STEREO_COUNT>  (1) 
0

>  <PUBCHEM_ATOM_UDEF_STEREO_COUNT>  (1) 
0

>  <PUBCHEM_BOND_DEF_STEREO_COUNT>  (1) 
0

>  <PUBCHEM_BOND_UDEF_STEREO_COUNT>  (1) 
0

>  <PUBCHEM_ISOTOPIC_ATOM_COUNT>  (1) 
0

>  <PUBCHEM_COMPONENT_COUNT>  (1) 
1

>  <PUBCHEM_CACTVS_TAUTO_COUNT>  (1) 
3

>  <PUBCHEM_CONFORMER_ID>  (1) 
000009A800000007

>  <PUBCHEM_MMFF94_ENERGY>  (1) 
103.982

>  <PUBCHEM_FEATURE_SELFOVERLAP>  (1) 
45.704

>  <PUBCHEM_SHAPE_FINGERPRINT>  (1) 
10042902 136 17988081217946363855
10622 236 18337093593309281275
10928967 22 18057327391123307887
11796584 16 18060143098092510668
12596602 18 17917993901664177176
13782708 43 17489035855900964238
14576447 43 18334580148635215008
14950920 106 14404909136833934007
15238133 3 10881398738476862686
15250474 111 18339636741991853938
15537594 2 18336561438022647131
17357779 13 16877662361592208157
200 152 18260555502035295105
20775438 99 16832308860589848447
20775530 9 18199744911881576851
21756936 100 11025796513783378113
221490 88 17822872964227470968
23559900 14 18260830397059155496
24771293 8 18335145336847827372
314194 84 18334305240658257976
392239 28 11527948949865823826
397830 11 17560787871515675210
44062 13 18411694371111511631
46194498 28 15937272129712859151
463206 1 18341327916099344619
5326457 24 18338234839070455794
59025328 239 18188475965040853805
602551 16 17203335536759576766
7495541 125 17489592277277300520
7808743 9 12252170880067911367
9709674 26 17822305590462899273
9849439 229 11459793484895417695

>  <PUBCHEM_SHAPE_MULTIPOLES>  (1) 
513.13
14.09
3.6
1.9
3.95
2.22
0.37
10.25
4.5
-2.43
1.35
-1.18
0.63
-4.22

>  <PUBCHEM_SHAPE_SELFOVERLAP>  (1) 
1079.337

>  <PUBCHEM_SHAPE_VOLUME>  (1) 
286.5

>  <PUBCHEM_COORDINATE_TYPE>  (1) 
2
5
10

$$$$
