24731
     RDKit          3D

 13 13  0  0  0  0  0  0  0  0999 V2000
   -1.4528   -2.3922   -0.0918 Cl  0  0  0  0  0  0  0  0  0  0  0  0
    3.5347   -0.2679   -0.0160 Cl  0  0  0  0  0  0  0  0  0  0  0  0
    2.2308    2.6564    0.1350 Cl  0  0  0  0  0  0  0  0  0  0  0  0
   -2.8210    1.2509   -0.9959 O   0  0  0  0  0  0  0  0  0  0  0  0
   -3.1764    0.0688    0.9128 O   0  0  0  0  0  0  0  0  0  0  0  0
    1.5354   -2.4709   -0.1125 N   0  0  0  0  0  0  0  0  0  0  0  0
   -0.9603    0.2717    0.0342 C   0  0  0  0  0  0  0  0  0  0  0  0
    0.9769   -1.1698   -0.0462 C   0  0  0  0  0  0  0  0  0  0  0  0
   -0.4085   -1.0077   -0.0308 C   0  0  0  0  0  0  0  0  0  0  0  0
   -0.1268    1.3890    0.0841 C   0  0  0  0  0  0  0  0  0  0  0  0
    1.8104   -0.0525    0.0034 C   0  0  0  0  0  0  0  0  0  0  0  0
    1.2586    1.2269    0.0687 C   0  0  0  0  0  0  0  0  0  0  0  0
   -2.4011    0.4972    0.0550 C   0  0  0  0  0  0  0  0  0  0  0  0
  1  9  1  0
  2 11  1  0
  3 12  1  0
  4 13  1  0
  5 13  2  0
  6  8  1  0
  7  9  2  0
  7 10  1  0
  7 13  1  0
  8  9  1  0
  8 11  2  0
 10 12  2  0
 11 12  1  0
M  END
>  <PUBCHEM_COMPOUND_CID>  (1) 
24731

>  <PUBCHEM_CONFORMER_RMSD>  (1) 
0.4

>  <PUBCHEM_CONFORMER_DIVERSEORDER>  (1) 
1
2

>  <PUBCHEM_MMFF94_PARTIAL_CHARGES>  (1) 
17
1 -0.18
10 -0.15
11 0.18
12 0.18
13 0.63
14 0.15
15 0.4
16 0.4
17 0.5
2 -0.18
3 -0.18
4 -0.65
5 -0.57
6 -0.9
7 0.09
8 0.1
9 0.18

>  <PUBCHEM_EFFECTIVE_ROTOR_COUNT>  (1) 
1

>  <PUBCHEM_PHARMACOPHORE_FEATURES>  (1) 
6
1 4 acceptor
1 5 acceptor
1 6 cation
1 6 donor
3 4 5 13 anion
6 7 8 9 10 11 12 rings

>  <PUBCHEM_HEAVY_ATOM_COUNT>  (1) 
13

>  <PUBCHEM_ATOM_DEF_STEREO_COUNT>  (1) 
0

>  <PUBCHEM_ATOM_UDEF_STEREO_COUNT>  (1) 
0

>  <PUBCHEM_BOND_DEF_STEREO_COUNT>  (1) 
0

>  <PUBCHEM_BOND_UDEF_STEREO_COUNT>  (1) 
0

>  <PUBCHEM_ISOTOPIC_ATOM_COUNT>  (1) 
0

>  <PUBCHEM_COMPONENT_COUNT>  (1) 
1

>  <PUBCHEM_CACTVS_TAUTO_COUNT>  (1) 
1

>  <PUBCHEM_CONFORMER_ID>  (1) 
0000609B00000001

>  <PUBCHEM_MMFF94_ENERGY>  (1) 
47.6465

>  <PUBCHEM_FEATURE_SELFOVERLAP>  (1) 
30.503

>  <PUBCHEM_SHAPE_FINGERPRINT>  (1) 
1 1 18411139155734969900
10967382 1 18411419475513092842
11132069 177 18411128131060264786
11206711 2 18051131698338460638
11471102 20 18194398897231378501
11680611 10 17971728194301585258
12423570 1 18114750450681857505
13140716 1 18339923835027867992
13380535 21 18194975259998406488
13380535 76 18411695487065017438
13897977 150 18339641247570400108
14614273 12 18119797269240699701
14911166 2 18411982429819575548
16945 1 18411981334434090160
193761 8 18195245752817392906
20201158 50 18336544915272792601
20511035 2 18265337390152924308
20588541 1 18410296869883200006
21501502 16 18195809793592131216
2334 1 18123468551408560304
23402539 116 18128242403526925878
23402655 69 18123170326650791797
23526114 1 18266739267378443188
23552423 10 18263641947391318798
23559900 14 18271816735689060020
241688 4 17691409611807556928
25 1 17829036624992353957
2748010 2 18267304429176484540
5255222 1 18409165519351537997
528886 8 18412539912258529842
53812653 166 18341894091192818922
63268167 104 18340767018554111097
81228 2 17258213493668319752

>  <PUBCHEM_SHAPE_MULTIPOLES>  (1) 
256.42
4.52
2.66
0.71
0.05
0.57
0.01
-1.04
-0.14
0.62
0.14
-0.27
-0.11
0.22

>  <PUBCHEM_SHAPE_SELFOVERLAP>  (1) 
516.56

>  <PUBCHEM_SHAPE_VOLUME>  (1) 
153.4

>  <PUBCHEM_COORDINATE_TYPE>  (1) 
2
5
10

$$$$
