24768
     RDKit          3D

 10  9  0  0  0  0  0  0  0  0999 V2000
   -2.2450   -0.0162   -0.1714 S   0  0  0  0  0  0  0  0  0  0  0  0
   -0.8418    0.0310    0.6649 O   0  0  0  0  0  0  0  0  0  0  0  0
   -3.3802    0.2453    0.9706 O   0  0  0  0  0  0  0  0  0  0  0  0
   -2.2570    1.1242   -1.0687 O   0  0  0  0  0  0  0  0  0  0  0  0
   -2.4376   -1.3564   -0.6933 O   0  0  0  0  0  0  0  0  0  0  0  0
    2.9318    0.0045    0.3501 C   0  0  0  0  0  0  0  0  0  0  0  0
    1.5316    0.0364    0.9838 C   0  0  0  0  0  0  0  0  0  0  0  0
    0.3969   -0.0248   -0.0316 C   0  0  0  0  0  0  0  0  0  0  0  0
    3.0985   -1.2719   -0.4779 C   0  0  0  0  0  0  0  0  0  0  0  0
    3.2026    1.2278   -0.5266 C   0  0  0  0  0  0  0  0  0  0  0  0
  1  2  1  0
  1  3  1  0
  1  4  2  0
  1  5  2  0
  2  8  1  0
  6  7  1  0
  6  9  1  0
  6 10  1  0
  7  8  1  0
M  END
>  <PUBCHEM_COMPOUND_CID>  (1) 
24768

>  <PUBCHEM_CONFORMER_RMSD>  (1) 
0.6

>  <PUBCHEM_CONFORMER_DIVERSEORDER>  (1) 
1
3
5
2
4

>  <PUBCHEM_MMFF94_PARTIAL_CHARGES>  (1) 
7
1 1.67
2 -0.46
22 0.5
3 -0.68
4 -0.65
5 -0.65
8 0.28

>  <PUBCHEM_EFFECTIVE_ROTOR_COUNT>  (1) 
4

>  <PUBCHEM_PHARMACOPHORE_FEATURES>  (1) 
5
1 3 acceptor
1 4 acceptor
1 5 acceptor
3 6 9 10 hydrophobe
4 1 3 4 5 anion

>  <PUBCHEM_HEAVY_ATOM_COUNT>  (1) 
10

>  <PUBCHEM_ATOM_DEF_STEREO_COUNT>  (1) 
0

>  <PUBCHEM_ATOM_UDEF_STEREO_COUNT>  (1) 
0

>  <PUBCHEM_BOND_DEF_STEREO_COUNT>  (1) 
0

>  <PUBCHEM_BOND_UDEF_STEREO_COUNT>  (1) 
0

>  <PUBCHEM_ISOTOPIC_ATOM_COUNT>  (1) 
0

>  <PUBCHEM_COMPONENT_COUNT>  (1) 
1

>  <PUBCHEM_CACTVS_TAUTO_COUNT>  (1) 
1

>  <PUBCHEM_CONFORMER_ID>  (1) 
000060C000000001

>  <PUBCHEM_MMFF94_ENERGY>  (1) 
5.4166

>  <PUBCHEM_FEATURE_SELFOVERLAP>  (1) 
25.43

>  <PUBCHEM_SHAPE_FINGERPRINT>  (1) 
12932764 1 18260542312200804170
14325111 11 18202844370186719474
14390081 3 17313098653094910012
20279233 1 13326853310062958152
20653085 51 18188209793095947721
230 275 16877657998379987308
3248919 1 18059847363971959850
93112 12 18409726231885441630

>  <PUBCHEM_SHAPE_MULTIPOLES>  (1) 
186.17
6.45
1.18
1.01
0.45
0.11
0.05
-0.09
-0.48
-0.42
-0.38
0.23
-0.08
-0.05

>  <PUBCHEM_SHAPE_SELFOVERLAP>  (1) 
330.603

>  <PUBCHEM_SHAPE_VOLUME>  (1) 
122.2

>  <PUBCHEM_COORDINATE_TYPE>  (1) 
2
5
10

$$$$
