24766
     RDKit          3D

 30 31  0  0  1  0  0  0  0  0999 V2000
   -4.7745   -2.1586   -0.3803 S   0  0  0  0  0  0  0  0  0  0  0  0
    0.6945    0.9157    0.5600 O   0  0  0  0  0  0  0  0  0  0  0  0
    1.8435   -1.1008    0.3226 O   0  0  0  0  0  0  0  0  0  0  0  0
   -3.4111    0.5106    0.1076 O   0  0  0  0  0  0  0  0  0  0  0  0
   -1.3456   -0.4515    1.8023 O   0  0  0  0  0  0  0  0  0  0  0  0
   -3.2693   -1.8305    0.1622 O   0  0  0  0  0  0  0  0  0  0  0  0
    2.9462    2.2960   -0.4448 O   0  0  0  0  0  0  0  0  0  0  0  0
    5.4559    0.8346    0.0434 O   0  0  0  0  0  0  0  0  0  0  0  0
   -3.7274    2.8179   -0.0259 O   0  0  0  0  0  0  0  0  0  0  0  0
    5.1991   -1.9062   -0.8896 O   0  0  0  0  0  0  0  0  0  0  0  0
    3.6445   -4.0409   -0.3402 O   0  0  0  0  0  0  0  0  0  0  0  0
    1.9956   -3.5140    1.1430 O   0  0  0  0  0  0  0  0  0  0  0  0
    0.4650    3.8542    1.2647 O   0  0  0  0  0  0  0  0  0  0  0  0
   -5.1937   -3.5036    0.4421 O   0  0  0  0  0  0  0  0  0  0  0  0
   -5.6421   -1.0848    0.0668 O   0  0  0  0  0  0  0  0  0  0  0  0
   -4.7046   -2.5005   -1.7889 O   0  0  0  0  0  0  0  0  0  0  0  0
   -0.8759    3.1562   -0.5051 N   0  0  0  0  0  0  0  0  0  0  0  0
   -0.5524    0.7638   -0.1133 C   0  0  0  0  0  0  0  0  0  0  0  0
   -1.4457    1.9873    0.1294 C   0  0  0  0  0  0  0  0  0  0  0  0
   -1.2272   -0.5171    0.3782 C   0  0  0  0  0  0  0  0  0  0  0  0
    1.7450    0.2453   -0.1356 C   0  0  0  0  0  0  0  0  0  0  0  0
    3.0474    0.9974    0.1392 C   0  0  0  0  0  0  0  0  0  0  0  0
    4.2474    0.2641   -0.4608 C   0  0  0  0  0  0  0  0  0  0  0  0
   -2.8705    1.7360   -0.3924 C   0  0  0  0  0  0  0  0  0  0  0  0
   -2.6211   -0.6280   -0.2399 C   0  0  0  0  0  0  0  0  0  0  0  0
    4.2353   -1.2199   -0.0927 C   0  0  0  0  0  0  0  0  0  0  0  0
    2.8631   -1.8293   -0.3515 C   0  0  0  0  0  0  0  0  0  0  0  0
    2.7625   -3.1951    0.2466 C   0  0  0  0  0  0  0  0  0  0  0  0
    0.0326    3.9884    0.1229 C   0  0  0  0  0  0  0  0  0  0  0  0
    0.4837    5.1130   -0.7701 C   0  0  0  0  0  0  0  0  0  0  0  0
  1  6  1  0
  1 14  1  0
  1 15  2  0
  1 16  2  0
  2 18  1  0
  2 21  1  0
  3 21  1  0
  3 27  1  0
  4 24  1  0
  4 25  1  0
  5 20  1  0
  6 25  1  0
  7 22  1  0
  8 23  1  0
  9 24  1  0
 10 26  1  0
 11 28  1  0
 12 28  2  0
 13 29  2  0
 17 19  1  0
 17 29  1  0
 18 19  1  0
 18 20  1  0
 19 24  1  0
 20 25  1  0
 21 22  1  0
 22 23  1  0
 23 26  1  0
 26 27  1  0
 27 28  1  0
 29 30  1  0
M  END
>  <PUBCHEM_COMPOUND_CID>  (1) 
24766

>  <PUBCHEM_CONFORMER_RMSD>  (1) 
1

>  <PUBCHEM_CONFORMER_DIVERSEORDER>  (1) 
2
82
6
71
10
22
39
43
59
26
8
60
14
96
65
50
76
23
51
48
31
92
34
58
93
68
7
61
49
83
38
33
64
100
87
72
86
47
37
80
16
94
15
55
24
32
66
53
88
97
74
35
90
41
52
81
3
45
20
56
67
84
29
62
44
5
42
73
79
12
30
70
11
54
1
78
28
99
46
19
36
69
25
57
4
13
21
98
18
75
63
17
9
40
85
77
89
27
91
95

>  <PUBCHEM_MMFF94_PARTIAL_CHARGES>  (1) 
38
1 1.67
10 -0.68
11 -0.65
12 -0.57
13 -0.57
14 -0.68
15 -0.65
16 -0.65
17 -0.73
18 0.28
19 0.3
2 -0.56
20 0.28
21 0.56
22 0.28
23 0.28
24 0.56
25 0.56
26 0.28
27 0.34
28 0.66
29 0.57
3 -0.56
30 0.06
4 -0.56
41 0.37
42 0.4
43 0.4
44 0.4
45 0.4
46 0.4
5 -0.68
50 0.5
51 0.5
6 -0.46
7 -0.68
8 -0.68
9 -0.68

>  <PUBCHEM_EFFECTIVE_ROTOR_COUNT>  (1) 
9.4

>  <PUBCHEM_PHARMACOPHORE_FEATURES>  (1) 
24
1 10 acceptor
1 10 donor
1 11 acceptor
1 12 acceptor
1 13 acceptor
1 14 acceptor
1 15 acceptor
1 16 acceptor
1 17 donor
1 2 acceptor
1 3 acceptor
1 4 acceptor
1 5 acceptor
1 5 donor
1 7 acceptor
1 7 donor
1 8 acceptor
1 8 donor
1 9 acceptor
1 9 donor
3 11 12 28 anion
4 1 14 15 16 anion
6 3 21 22 23 26 27 rings
6 4 18 19 20 24 25 rings

>  <PUBCHEM_HEAVY_ATOM_COUNT>  (1) 
30

>  <PUBCHEM_ATOM_DEF_STEREO_COUNT>  (1) 
10

>  <PUBCHEM_ATOM_UDEF_STEREO_COUNT>  (1) 
0

>  <PUBCHEM_BOND_DEF_STEREO_COUNT>  (1) 
0

>  <PUBCHEM_BOND_UDEF_STEREO_COUNT>  (1) 
0

>  <PUBCHEM_ISOTOPIC_ATOM_COUNT>  (1) 
0

>  <PUBCHEM_COMPONENT_COUNT>  (1) 
1

>  <PUBCHEM_CACTVS_TAUTO_COUNT>  (1) 
2

>  <PUBCHEM_CONFORMER_ID>  (1) 
000060BE00000002

>  <PUBCHEM_MMFF94_ENERGY>  (1) 
62.9576

>  <PUBCHEM_FEATURE_SELFOVERLAP>  (1) 
122.077

>  <PUBCHEM_SHAPE_FINGERPRINT>  (1) 
10616163 171 18340207362936012654
10940486 97 17686351871832696870
11045515 52 18334858307692010093
11578080 2 17702642407164888648
12553582 1 18268415992419670375
12788726 201 18117839893519074329
13140716 1 18268991990504277305
1361 2 18050565441281411041
13690498 29 18124053238440010934
13692114 37 16830077989401715955
138480 1 14735636255615898789
13911987 19 18045239364772026980
15042514 8 18195247715991811683
17492 89 18338797801882924750
19930381 70 18337389456156673945
20775438 99 17762285437358225157
21133410 171 17540201603055372859
22393880 68 18339367345043311654
23559900 14 18339355246204711152
2871803 45 18409166632033462838
3380486 145 18336844004296117089
3421961 26 18195809793966768625
46194498 28 17460587272179248527
463206 1 18337112379316820751
5104073 3 18271522009925851730
5309563 4 18411983597802773006
9709674 26 18334584503447664914

>  <PUBCHEM_SHAPE_MULTIPOLES>  (1) 
528.21
10.62
6.07
0.94
3.13
3.8
-0.06
-10.53
2.03
0.06
0.27
0.33
-0.16
-0.3

>  <PUBCHEM_SHAPE_SELFOVERLAP>  (1) 
1080.288

>  <PUBCHEM_SHAPE_VOLUME>  (1) 
303.9

>  <PUBCHEM_COORDINATE_TYPE>  (1) 
2
5
10

$$$$
