24776
     RDKit          3D

 13 12  0  0  1  0  0  0  0  0999 V2000
    2.5515    1.4406   -0.0880 O   0  0  0  0  0  0  0  0  0  0  0  0
   -1.1643   -0.1798    2.2388 O   0  0  0  0  0  0  0  0  0  0  0  0
   -3.0692    1.9423   -0.5316 O   0  0  0  0  0  0  0  0  0  0  0  0
    2.7022   -1.8910   -0.4158 O   0  0  0  0  0  0  0  0  0  0  0  0
   -0.6746   -0.6028   -0.1399 C   0  0  0  0  0  0  0  0  0  0  0  0
   -2.0603   -0.2438   -0.7464 C   0  0  0  0  0  0  0  0  0  0  0  0
    0.2970    0.5980   -0.2807 C   0  0  0  0  0  0  0  0  0  0  0  0
   -0.7489   -1.1555    1.2962 C   0  0  0  0  0  0  0  0  0  0  0  0
    1.7517    0.2858    0.0807 C   0  0  0  0  0  0  0  0  0  0  0  0
   -3.0014   -1.4449   -0.8302 C   0  0  0  0  0  0  0  0  0  0  0  0
   -2.7679    0.8740   -0.0071 C   0  0  0  0  0  0  0  0  0  0  0  0
    2.2706   -0.8158   -0.8192 C   0  0  0  0  0  0  0  0  0  0  0  0
    3.9135    1.1929    0.2433 C   0  0  0  0  0  0  0  0  0  0  0  0
  1  9  1  0
  1 13  1  0
  2  8  1  0
  3 11  2  0
  4 12  2  0
  5  6  1  0
  5  7  1  0
  5  8  1  0
  6 10  1  0
  6 11  1  0
  7  9  1  0
  9 12  1  0
M  END
>  <PUBCHEM_COMPOUND_CID>  (1) 
24776

>  <PUBCHEM_CONFORMER_RMSD>  (1) 
0.8

>  <PUBCHEM_CONFORMER_DIVERSEORDER>  (1) 
6
183
175
204
112
140
2
145
86
8
142
25
127
105
195
60
165
96
185
177
187
116
14
43
84
174
95
104
162
50
184
44
30
34
194
124
42
37
181
91
77
69
164
213
210
46
211
79
202
144
141
11
58
45
159
53
35
117
78
3
139
74
75
212
209
108
38
190
161
178
1
151
192
40
208
15
92
16
29
149
150
122
134
176
132
110
154
49
24
5
48
130
85
136
180
13
31
125
156
82
90
36
27
193
51
171
152
197
47
57
115
93
179
12
196
80
131
200
26
146
186
68
158
129
203
81
167
160
7
163
205
88
168
65
148
137
111
71
119
21
166
70
155
28
191
114
87
20
63
72
189
198
100
128
67
169
153
33
73
138
173
99
59
62
113
102
143
19
121
103
61
52
54
135
172
97
56
94
107
199
22
123
41
9
182
55
18
66
126
120
39
32
83
23
118
64
10
201
170
147
76
106
101
157
109
4
206
89
207
17
188
98
133

>  <PUBCHEM_MMFF94_PARTIAL_CHARGES>  (1) 
13
1 -0.56
11 0.45
12 0.45
13 0.28
2 -0.68
24 0.06
25 0.06
26 0.4
3 -0.57
4 -0.57
6 0.06
8 0.28
9 0.34

>  <PUBCHEM_EFFECTIVE_ROTOR_COUNT>  (1) 
7

>  <PUBCHEM_PHARMACOPHORE_FEATURES>  (1) 
6
1 1 acceptor
1 10 hydrophobe
1 2 acceptor
1 2 donor
1 3 acceptor
1 4 acceptor

>  <PUBCHEM_HEAVY_ATOM_COUNT>  (1) 
13

>  <PUBCHEM_ATOM_DEF_STEREO_COUNT>  (1) 
0

>  <PUBCHEM_ATOM_UDEF_STEREO_COUNT>  (1) 
3

>  <PUBCHEM_BOND_DEF_STEREO_COUNT>  (1) 
0

>  <PUBCHEM_BOND_UDEF_STEREO_COUNT>  (1) 
0

>  <PUBCHEM_ISOTOPIC_ATOM_COUNT>  (1) 
0

>  <PUBCHEM_COMPONENT_COUNT>  (1) 
1

>  <PUBCHEM_CACTVS_TAUTO_COUNT>  (1) 
4

>  <PUBCHEM_CONFORMER_ID>  (1) 
000060C800000006

>  <PUBCHEM_MMFF94_ENERGY>  (1) 
29.7925

>  <PUBCHEM_FEATURE_SELFOVERLAP>  (1) 
30.448

>  <PUBCHEM_SHAPE_FINGERPRINT>  (1) 
12162725 195 18261669389050297596
124424 183 17604418713198410896
12932764 1 18270697418759053278
14325111 11 18412542106770514405
15219456 202 18411420600783942612
15279308 16 18334298712091774272
15310529 11 18130783499152055015
15775835 57 18202007646011623525
16945 1 17985529285696545783
18186145 218 18040712515747756383
20201158 50 18335136548531446806
20645464 45 17749390398819215728
20653085 51 18339084787454825513
21501502 16 18411694383363488878
21930827 45 17023482887891738483
23402539 116 18116697711518014175
305870 269 17677317317208365777
3248919 1 17676212411133275646
81228 2 16662354998419566059
93112 12 18342737373329263015
9939556 21 18271802372215972831

>  <PUBCHEM_SHAPE_MULTIPOLES>  (1) 
244.06
5.92
1.75
1.23
2.5
0.04
0.79
1.42
-1.12
-0.08
-0.27
-0.59
-0.27
0.31

>  <PUBCHEM_SHAPE_SELFOVERLAP>  (1) 
459.367

>  <PUBCHEM_SHAPE_VOLUME>  (1) 
149.9

>  <PUBCHEM_COORDINATE_TYPE>  (1) 
2
5
10

$$$$
