24777
     RDKit          3D

 45 48  0  0  1  0  0  0  0  0999 V2000
   -0.3766    0.7208    0.4432 O   0  0  0  0  0  0  0  0  0  0  0  0
    3.6608    0.5921    1.1851 O   0  0  0  0  0  0  0  0  0  0  0  0
   -0.3436    3.0467    0.2609 O   0  0  0  0  0  0  0  0  0  0  0  0
    4.7945   -0.7875   -0.3166 O   0  0  0  0  0  0  0  0  0  0  0  0
   -1.9309   -1.4972   -0.0261 O   0  0  0  0  0  0  0  0  0  0  0  0
    2.2692   -1.8110    0.3826 O   0  0  0  0  0  0  0  0  0  0  0  0
    2.4617    2.9566   -0.1003 O   0  0  0  0  0  0  0  0  0  0  0  0
   -4.0772    4.6105   -0.4324 O   0  0  0  0  0  0  0  0  0  0  0  0
   -2.5743   -3.7213   -0.3153 O   0  0  0  0  0  0  0  0  0  0  0  0
   -2.6455    1.9188    1.5969 O   0  0  0  0  0  0  0  0  0  0  0  0
    6.1261    1.7575    1.9416 O   0  0  0  0  0  0  0  0  0  0  0  0
   -1.0771    4.0034   -2.4275 O   0  0  0  0  0  0  0  0  0  0  0  0
    8.3831   -0.0970    1.5575 O   0  0  0  0  0  0  0  0  0  0  0  0
    8.3452   -1.1974   -1.1154 O   0  0  0  0  0  0  0  0  0  0  0  0
   -3.3451    5.6946   -2.3645 O   0  0  0  0  0  0  0  0  0  0  0  0
   -4.5352   -0.8870    0.8975 O   0  0  0  0  0  0  0  0  0  0  0  0
   -6.5556   -2.7177   -0.2196 O   0  0  0  0  0  0  0  0  0  0  0  0
   -5.7563   -5.4678    0.1724 O   0  0  0  0  0  0  0  0  0  0  0  0
   -6.3350    3.8908    0.9606 O   0  0  0  0  0  0  0  0  0  0  0  0
    4.5344   -2.1050   -2.7152 O   0  0  0  0  0  0  0  0  0  0  0  0
   -1.6322   -6.3033   -0.2741 O   0  0  0  0  0  0  0  0  0  0  0  0
    2.4915    0.5889    0.3647 C   0  0  0  0  0  0  0  0  0  0  0  0
    1.6268   -0.6020    0.7785 C   0  0  0  0  0  0  0  0  0  0  0  0
    1.7397    1.9077    0.5447 C   0  0  0  0  0  0  0  0  0  0  0  0
    0.2460   -0.5245    0.1228 C   0  0  0  0  0  0  0  0  0  0  0  0
    0.3421    1.8397   -0.0709 C   0  0  0  0  0  0  0  0  0  0  0  0
   -1.6636    3.0609   -0.2848 C   0  0  0  0  0  0  0  0  0  0  0  0
    4.8445    0.4428    0.4019 C   0  0  0  0  0  0  0  0  0  0  0  0
   -2.6543    3.1483    0.8762 C   0  0  0  0  0  0  0  0  0  0  0  0
   -0.6747   -1.6382    0.6117 C   0  0  0  0  0  0  0  0  0  0  0  0
    6.0424    0.4605    1.3513 C   0  0  0  0  0  0  0  0  0  0  0  0
   -1.8110    4.2540   -1.2292 C   0  0  0  0  0  0  0  0  0  0  0  0
    7.3442    0.1555    0.6101 C   0  0  0  0  0  0  0  0  0  0  0  0
   -4.0696    3.4237    0.3629 C   0  0  0  0  0  0  0  0  0  0  0  0
    7.2000   -1.0828   -0.2748 C   0  0  0  0  0  0  0  0  0  0  0  0
    5.9430   -0.9868   -1.1426 C   0  0  0  0  0  0  0  0  0  0  0  0
   -3.2743    4.4887   -1.6042 C   0  0  0  0  0  0  0  0  0  0  0  0
   -2.8488   -2.5100    0.3846 C   0  0  0  0  0  0  0  0  0  0  0  0
   -4.2623   -2.0190    0.0721 C   0  0  0  0  0  0  0  0  0  0  0  0
   -5.3015   -3.1070    0.3430 C   0  0  0  0  0  0  0  0  0  0  0  0
   -4.8905   -4.4355   -0.2921 C   0  0  0  0  0  0  0  0  0  0  0  0
   -3.4453   -4.7862    0.0698 C   0  0  0  0  0  0  0  0  0  0  0  0
   -5.0553    3.6314    1.5083 C   0  0  0  0  0  0  0  0  0  0  0  0
    5.7144   -2.2617   -1.9485 C   0  0  0  0  0  0  0  0  0  0  0  0
   -2.9741   -6.0478   -0.6468 C   0  0  0  0  0  0  0  0  0  0  0  0
  1 25  1  0
  1 26  1  0
  2 22  1  0
  2 28  1  0
  3 26  1  0
  3 27  1  0
  4 28  1  0
  4 36  1  0
  5 30  1  0
  5 38  1  0
  6 23  1  0
  7 24  1  0
  8 34  1  0
  8 37  1  0
  9 38  1  0
  9 42  1  0
 10 29  1  0
 11 31  1  0
 12 32  1  0
 13 33  1  0
 14 35  1  0
 15 37  1  0
 16 39  1  0
 17 40  1  0
 18 41  1  0
 19 43  1  0
 20 44  1  0
 21 45  1  0
 22 23  1  0
 22 24  1  0
 23 25  1  0
 24 26  1  0
 25 30  1  0
 27 29  1  0
 27 32  1  0
 28 31  1  0
 29 34  1  0
 31 33  1  0
 32 37  1  0
 33 35  1  0
 34 43  1  0
 35 36  1  0
 36 44  1  0
 38 39  1  0
 39 40  1  0
 40 41  1  0
 41 42  1  0
 42 45  1  0
M  END
>  <PUBCHEM_COMPOUND_CID>  (1) 
24777

>  <PUBCHEM_CONFORMER_RMSD>  (1) 
1.4

>  <PUBCHEM_CONFORMER_DIVERSEORDER>  (1) 
1
12
26
20
23
17
10
7
4
11
8
29
32
15
2
31
33
22
19
30
13
35
21
24
28
36
34
27
3
6
14
9
16
18
25
5

>  <PUBCHEM_MMFF94_PARTIAL_CHARGES>  (1) 
59
1 -0.56
10 -0.68
11 -0.68
12 -0.68
13 -0.68
14 -0.68
15 -0.68
16 -0.68
17 -0.68
18 -0.68
19 -0.68
2 -0.56
20 -0.68
21 -0.68
22 0.28
23 0.28
24 0.28
25 0.28
26 0.56
27 0.28
28 0.56
29 0.28
3 -0.56
30 0.28
31 0.28
32 0.28
33 0.28
34 0.28
35 0.28
36 0.28
37 0.56
38 0.56
39 0.28
4 -0.56
40 0.28
41 0.28
42 0.28
43 0.28
44 0.28
45 0.28
5 -0.56
6 -0.68
68 0.4
69 0.4
7 -0.68
74 0.4
75 0.4
76 0.4
79 0.4
8 -0.56
80 0.4
81 0.4
82 0.4
83 0.4
84 0.4
85 0.4
86 0.4
87 0.4
9 -0.56

>  <PUBCHEM_EFFECTIVE_ROTOR_COUNT>  (1) 
14.8

>  <PUBCHEM_PHARMACOPHORE_FEATURES>  (1) 
39
1 1 acceptor
1 10 acceptor
1 10 donor
1 11 acceptor
1 11 donor
1 12 acceptor
1 12 donor
1 13 acceptor
1 13 donor
1 14 acceptor
1 14 donor
1 15 acceptor
1 15 donor
1 16 acceptor
1 16 donor
1 17 acceptor
1 17 donor
1 18 acceptor
1 18 donor
1 19 acceptor
1 19 donor
1 2 acceptor
1 20 acceptor
1 20 donor
1 21 acceptor
1 21 donor
1 3 acceptor
1 4 acceptor
1 5 acceptor
1 6 acceptor
1 6 donor
1 7 acceptor
1 7 donor
1 8 acceptor
1 9 acceptor
6 1 22 23 24 25 26 rings
6 4 28 31 33 35 36 rings
6 8 27 29 32 34 37 rings
6 9 38 39 40 41 42 rings

>  <PUBCHEM_HEAVY_ATOM_COUNT>  (1) 
45

>  <PUBCHEM_ATOM_DEF_STEREO_COUNT>  (1) 
20

>  <PUBCHEM_ATOM_UDEF_STEREO_COUNT>  (1) 
0

>  <PUBCHEM_BOND_DEF_STEREO_COUNT>  (1) 
0

>  <PUBCHEM_BOND_UDEF_STEREO_COUNT>  (1) 
0

>  <PUBCHEM_ISOTOPIC_ATOM_COUNT>  (1) 
0

>  <PUBCHEM_COMPONENT_COUNT>  (1) 
1

>  <PUBCHEM_CACTVS_TAUTO_COUNT>  (1) 
1

>  <PUBCHEM_CONFORMER_ID>  (1) 
000060C900000001

>  <PUBCHEM_MMFF94_ENERGY>  (1) 
133.2438

>  <PUBCHEM_FEATURE_SELFOVERLAP>  (1) 
198.27

>  <PUBCHEM_SHAPE_FINGERPRINT>  (1) 
10050765 1 18339926017294059424
10258939 38 18194385918151382272
10290309 65 17976541607390113361
10815517 723 18408328795878140145
11331351 85 18196370544770613159
11991303 11 18190750742860760213
12218070 45 18341341054688880289
13383665 225 18262813977241190140
13383668 254 16056299723198589186
13540713 4 18201147816052205176
14068700 675 18115020935100865790
14294032 229 18042406833503009996
15131766 46 14709789417812458766
15400415 2 17832979451719609701
15927050 60 18264486178921861618
15968369 26 17036405177860323189
16989713 51 18408042909838186428
19301679 30 18268148845554053498
23516275 137 16199317469188110988
23559900 14 17620182579279500971
244849 19 17489006228968403072
3103668 31 18333723629261950197
4017518 198 18267024960593456045
4046055 25 18122624113767495919
4073 2 18272650109330858904
4403749 210 18262796238557103209
44249763 50 18337951191283326992
4461854 278 18265631892451759705
504843 32 18265039241886804661
6669772 16 17982171123608083510
6698420 124 17914624860260706176

>  <PUBCHEM_SHAPE_MULTIPOLES>  (1) 
802.82
19.02
9.62
1.61
33.86
4.03
0.77
8.31
-1.83
-25
3.67
1.37
-1.44
2.43

>  <PUBCHEM_SHAPE_SELFOVERLAP>  (1) 
1663.752

>  <PUBCHEM_SHAPE_VOLUME>  (1) 
446.1

>  <PUBCHEM_COORDINATE_TYPE>  (1) 
2
5
10

$$$$
