24775
     RDKit          3D

 21 21  0  0  0  0  0  0  0  0999 V2000
   -2.2029    0.2306   -0.0577 O   0  0  0  0  0  0  0  0  0  0  0  0
   -4.9349   -0.3828    0.0225 O   0  0  0  0  0  0  0  0  0  0  0  0
   -7.4408    0.7625    0.5091 O   0  0  0  0  0  0  0  0  0  0  0  0
    3.3511    1.2088    0.1050 C   0  0  0  0  0  0  0  0  0  0  0  0
    4.0982   -1.4301   -0.0904 C   0  0  0  0  0  0  0  0  0  0  0  0
    4.1787   -0.0307    0.6043 C   0  0  0  0  0  0  0  0  0  0  0  0
    1.8330    0.9418    0.0607 C   0  0  0  0  0  0  0  0  0  0  0  0
    3.9280    1.7441   -1.2224 C   0  0  0  0  0  0  0  0  0  0  0  0
    3.5699    2.3467    1.1443 C   0  0  0  0  0  0  0  0  0  0  0  0
    4.9705   -2.4023    0.7420 C   0  0  0  0  0  0  0  0  0  0  0  0
    4.6976   -1.4015   -1.5099 C   0  0  0  0  0  0  0  0  0  0  0  0
    2.6819   -2.0141   -0.1530 C   0  0  0  0  0  0  0  0  0  0  0  0
    1.2117    0.5467    1.2161 C   0  0  0  0  0  0  0  0  0  0  0  0
    1.1814    1.1124   -1.1326 C   0  0  0  0  0  0  0  0  0  0  0  0
   -0.1613    0.3044    1.1754 C   0  0  0  0  0  0  0  0  0  0  0  0
   -0.1917    0.8702   -1.1731 C   0  0  0  0  0  0  0  0  0  0  0  0
   -0.8631    0.4663   -0.0193 C   0  0  0  0  0  0  0  0  0  0  0  0
   -2.7166   -0.7467    0.8460 C   0  0  0  0  0  0  0  0  0  0  0  0
   -3.9491   -1.3858    0.2356 C   0  0  0  0  0  0  0  0  0  0  0  0
   -6.1159   -0.9269   -0.5500 C   0  0  0  0  0  0  0  0  0  0  0  0
   -7.1257    0.1862   -0.7526 C   0  0  0  0  0  0  0  0  0  0  0  0
  1 17  1  0
  1 18  1  0
  2 19  1  0
  2 20  1  0
  3 21  1  0
  4  6  1  0
  4  7  1  0
  4  8  1  0
  4  9  1  0
  5  6  1  0
  5 10  1  0
  5 11  1  0
  5 12  1  0
  7 13  2  0
  7 14  1  0
 13 15  1  0
 14 16  2  0
 15 17  2  0
 16 17  1  0
 18 19  1  0
 20 21  1  0
M  END
>  <PUBCHEM_COMPOUND_CID>  (1) 
24775

>  <PUBCHEM_CONFORMER_RMSD>  (1) 
0.8

>  <PUBCHEM_CONFORMER_DIVERSEORDER>  (1) 
2
86
85
123
103
140
144
31
68
74
136
153
70
148
93
90
101
104
66
131
26
83
108
4
106
73
37
132
92
69
82
67
113
147
44
115
138
81
130
25
78
3
33
145
6
118
139
89
146
88
141
61
36
116
133
64
63
134
40
38
96
124
30
28
77
43
102
35
71
142
129
149
110
14
107
47
127
143
84
112
98
97
100
119
122
151
105
125
50
39
152
154
58
87
109
13
79
16
45
75
42
80
54
111
95
65
56
120
23
57
62
49
29
137
12
121
52
46
126
48
99
27
72
91
94
5
117
17
135
51
18
128
22
55
21
34
59
114
19
60
15
20
76
11
7
150
24
53
41
9
32
8
10
1

>  <PUBCHEM_MMFF94_PARTIAL_CHARGES>  (1) 
19
1 -0.36
13 -0.15
14 -0.15
15 -0.15
16 -0.15
17 0.08
18 0.28
19 0.28
2 -0.56
20 0.28
21 0.28
3 -0.68
39 0.15
4 0.14
40 0.15
41 0.15
42 0.15
51 0.4
7 -0.14

>  <PUBCHEM_EFFECTIVE_ROTOR_COUNT>  (1) 
9

>  <PUBCHEM_PHARMACOPHORE_FEATURES>  (1) 
7
1 1 acceptor
1 2 acceptor
1 3 acceptor
1 3 donor
3 4 8 9 hydrophobe
4 5 10 11 12 hydrophobe
6 7 13 14 15 16 17 rings

>  <PUBCHEM_HEAVY_ATOM_COUNT>  (1) 
21

>  <PUBCHEM_ATOM_DEF_STEREO_COUNT>  (1) 
0

>  <PUBCHEM_ATOM_UDEF_STEREO_COUNT>  (1) 
0

>  <PUBCHEM_BOND_DEF_STEREO_COUNT>  (1) 
0

>  <PUBCHEM_BOND_UDEF_STEREO_COUNT>  (1) 
0

>  <PUBCHEM_ISOTOPIC_ATOM_COUNT>  (1) 
0

>  <PUBCHEM_COMPONENT_COUNT>  (1) 
1

>  <PUBCHEM_CACTVS_TAUTO_COUNT>  (1) 
1

>  <PUBCHEM_CONFORMER_ID>  (1) 
000060C700000002

>  <PUBCHEM_MMFF94_ENERGY>  (1) 
80.4976

>  <PUBCHEM_FEATURE_SELFOVERLAP>  (1) 
35.529

>  <PUBCHEM_SHAPE_FINGERPRINT>  (1) 
11724838 91 9151164333847067787
11796584 16 18272656778771848719
11858739 19 18343585135802612959
11954058 11 17131285549757726734
12236239 1 18114179774699319313
12670546 56 18131356314566383505
13533116 47 18413388734976593163
14251758 9 18114471102214780747
14573314 32 18334853914093011901
15183329 4 18409168788623497063
15475509 8 17386009408337537493
17857418 61 18272368668133670235
20028762 73 17989486295049587038
20567600 234 12391500997381206691
20645477 70 18413671314102926646
21344244 78 17489576841201411736
21641784 216 14562803310118563735
220451 1 18271814583361850655
22061861 79 18413386545139481799
2215653 11 18333450941440387919
23081809 10 17561083635954184497
23536379 177 18341893005061880625
23557571 272 17458615718717882772
23559900 14 18336547221675791297
29717793 49 18413672409198124821
3004659 81 18413109450528473634
3014965 18 18408881811509090327
328311 84 18186243927347617291
3286 77 18409446956443637232
34797466 226 8070029999531891817
4072396 5 16486973986032162565
4073 2 18189054364155305443
42630746 31 18341047497678690306
4340502 62 18058442265943300152
4463277 69 18411142424463687950
465052 167 17560805454283739631
59682541 52 18334569123512591479
59755656 215 18113896023242326623
8988823 20 18130784585699730776
960060 61 17749396966183232310
9971528 1 18187081784550138517

>  <PUBCHEM_SHAPE_MULTIPOLES>  (1) 
414.56
15.76
2.16
1.27
35.08
0.42
-0.13
3.71
-1.71
-3.68
0.09
-0.89
-0.21
0.16

>  <PUBCHEM_SHAPE_SELFOVERLAP>  (1) 
827.525

>  <PUBCHEM_SHAPE_VOLUME>  (1) 
246.9

>  <PUBCHEM_COORDINATE_TYPE>  (1) 
2
5
10

$$$$
