24785
     RDKit          3D

 17 18  0  0  0  0  0  0  0  0999 V2000
    2.7455    1.9221    2.1072 F   0  0  0  0  0  0  0  0  0  0  0  0
    3.3510    1.0564   -0.2515 O   0  0  0  0  0  0  0  0  0  0  0  0
    1.4019   -0.2351   -0.5637 N   0  0  0  0  0  0  0  0  0  0  0  0
    0.1845   -0.6593   -0.0178 C   0  0  0  0  0  0  0  0  0  0  0  0
   -1.0057    0.0595   -0.2162 C   0  0  0  0  0  0  0  0  0  0  0  0
   -2.2067   -0.4180    0.3600 C   0  0  0  0  0  0  0  0  0  0  0  0
    1.8284   -0.6886   -1.9214 C   0  0  0  0  0  0  0  0  0  0  0  0
    0.1904   -1.8319    0.7381 C   0  0  0  0  0  0  0  0  0  0  0  0
   -1.0304    1.2415   -0.9742 C   0  0  0  0  0  0  0  0  0  0  0  0
   -2.1824   -1.6002    1.1178 C   0  0  0  0  0  0  0  0  0  0  0  0
   -0.9908   -2.3015    1.3048 C   0  0  0  0  0  0  0  0  0  0  0  0
    2.2671    0.6450    0.1693 C   0  0  0  0  0  0  0  0  0  0  0  0
   -3.3970    0.3005    0.1614 C   0  0  0  0  0  0  0  0  0  0  0  0
    2.6298   -1.9718   -1.8154 C   0  0  0  0  0  0  0  0  0  0  0  0
   -2.2219    1.9428   -1.1611 C   0  0  0  0  0  0  0  0  0  0  0  0
   -3.4031    1.4731   -0.5946 C   0  0  0  0  0  0  0  0  0  0  0  0
    1.8394    1.0654    1.5573 C   0  0  0  0  0  0  0  0  0  0  0  0
  1 17  1  0
  2 12  2  0
  3  4  1  0
  3  7  1  0
  3 12  1  0
  4  5  2  0
  4  8  1  0
  5  6  1  0
  5  9  1  0
  6 10  2  0
  6 13  1  0
  7 14  1  0
  8 11  2  0
  9 15  2  0
 10 11  1  0
 12 17  1  0
 13 16  2  0
 15 16  1  0
M  END
>  <PUBCHEM_COMPOUND_CID>  (1) 
24785

>  <PUBCHEM_CONFORMER_RMSD>  (1) 
0.6

>  <PUBCHEM_CONFORMER_DIVERSEORDER>  (1) 
2
22
5
24
20
12
19
15
14
23
10
11
25
21
9
16
7
13
18
17
8
1
4
6
3

>  <PUBCHEM_MMFF94_PARTIAL_CHARGES>  (1) 
21
1 -0.34
10 -0.15
11 -0.15
12 0.57
13 -0.15
15 -0.15
16 -0.15
17 0.4
2 -0.57
20 0.15
21 0.15
22 0.15
23 0.15
24 0.15
28 0.15
29 0.15
3 -0.48
4 0.12
7 0.3
8 -0.15
9 -0.15

>  <PUBCHEM_EFFECTIVE_ROTOR_COUNT>  (1) 
4

>  <PUBCHEM_PHARMACOPHORE_FEATURES>  (1) 
3
1 2 acceptor
6 4 5 6 8 10 11 rings
6 5 6 9 13 15 16 rings

>  <PUBCHEM_HEAVY_ATOM_COUNT>  (1) 
17

>  <PUBCHEM_ATOM_DEF_STEREO_COUNT>  (1) 
0

>  <PUBCHEM_ATOM_UDEF_STEREO_COUNT>  (1) 
0

>  <PUBCHEM_BOND_DEF_STEREO_COUNT>  (1) 
0

>  <PUBCHEM_BOND_UDEF_STEREO_COUNT>  (1) 
0

>  <PUBCHEM_ISOTOPIC_ATOM_COUNT>  (1) 
0

>  <PUBCHEM_COMPONENT_COUNT>  (1) 
1

>  <PUBCHEM_CACTVS_TAUTO_COUNT>  (1) 
1

>  <PUBCHEM_CONFORMER_ID>  (1) 
000060D100000002

>  <PUBCHEM_MMFF94_ENERGY>  (1) 
65.2445

>  <PUBCHEM_FEATURE_SELFOVERLAP>  (1) 
15.249

>  <PUBCHEM_SHAPE_FINGERPRINT>  (1) 
11640471 11 16226059928115915806
12716301 132 18186525418448895946
13134695 92 17702659931116349428
13140716 1 17679582230137402641
13294875 104 17974835190638575738
13538477 17 16805897289202485551
13898156 1 16733267957787202526
13911987 19 17773343200286894902
14817 1 15681761922513127170
15219456 202 18341624719402436342
16945 1 17895486890085277023
18186145 218 18266462010212520117
19049666 15 18341623572461369898
19786989 88 17703778258415613293
20510252 161 18261402186460745737
20511035 2 17751635455814282451
20645476 183 16081669845175039087
21486144 27 18131360725676871443
21639500 275 17418094347167849888
21947302 44 18272926107427617224
22112679 90 16805609212908462166
22802520 49 18264795205955331911
23175994 123 17843703083562001886
2334 1 17823704062422170119
23402539 116 18191296290124182263
23419403 2 18129683970196839922
23493267 7 16444217234487010697
23526113 38 18199759059197680414
23557571 272 18263655124266885795
23559900 14 18191041010638502214
23598291 2 15552789268636005198
25610 171 18115590498950326091
27216 239 17695602423206831816
2748010 2 18261405450699486299
3286 77 17987537956181075431
7364860 26 17902500494254429555
77492 1 15123521280409471822
81228 2 18117575130677324283

>  <PUBCHEM_SHAPE_MULTIPOLES>  (1) 
331.73
5.18
2.37
1.76
0.32
0.69
0.12
-1.89
-0.53
0.54
0.45
-1.9
-0.18
2.04

>  <PUBCHEM_SHAPE_SELFOVERLAP>  (1) 
708.217

>  <PUBCHEM_SHAPE_VOLUME>  (1) 
185.2

>  <PUBCHEM_COORDINATE_TYPE>  (1) 
2
5
10

$$$$
