24783
     RDKit          3D

 15 15  0  0  0  0  0  0  0  0999 V2000
   -0.4933   -2.7090    0.5598 Cl  0  0  0  0  0  0  0  0  0  0  0  0
    3.0152    2.2997   -0.7090 Cl  0  0  0  0  0  0  0  0  0  0  0  0
    4.2467   -0.2412    0.8703 Cl  0  0  0  0  0  0  0  0  0  0  0  0
   -3.1235    1.2907    1.9914 F   0  0  0  0  0  0  0  0  0  0  0  0
   -3.6234    0.3595   -0.3671 O   0  0  0  0  0  0  0  0  0  0  0  0
   -1.3965   -0.2035   -0.9047 N   0  0  0  0  0  0  0  0  0  0  0  0
   -0.0643   -0.2225   -0.4808 C   0  0  0  0  0  0  0  0  0  0  0  0
    0.4658   -1.3170    0.2025 C   0  0  0  0  0  0  0  0  0  0  0  0
    0.7387    0.8846   -0.7543 C   0  0  0  0  0  0  0  0  0  0  0  0
   -1.7771   -0.7218   -2.2539 C   0  0  0  0  0  0  0  0  0  0  0  0
   -2.4313    0.3144   -0.0539 C   0  0  0  0  0  0  0  0  0  0  0  0
    2.0721    0.8972   -0.3449 C   0  0  0  0  0  0  0  0  0  0  0  0
    1.7993   -1.3044    0.6121 C   0  0  0  0  0  0  0  0  0  0  0  0
    2.6024   -0.1972    0.3386 C   0  0  0  0  0  0  0  0  0  0  0  0
   -2.0308    0.8705    1.2939 C   0  0  0  0  0  0  0  0  0  0  0  0
  1  8  1  0
  2 12  1  0
  3 14  1  0
  4 15  1  0
  5 11  2  0
  6  7  1  0
  6 10  1  0
  6 11  1  0
  7  8  2  0
  7  9  1  0
  8 13  1  0
  9 12  2  0
 11 15  1  0
 12 14  1  0
 13 14  2  0
M  END
>  <PUBCHEM_COMPOUND_CID>  (1) 
24783

>  <PUBCHEM_CONFORMER_RMSD>  (1) 
0.6

>  <PUBCHEM_CONFORMER_DIVERSEORDER>  (1) 
2
13
18
9
15
12
7
11
14
6
3
16
10
17
1
8
5
4

>  <PUBCHEM_MMFF94_PARTIAL_CHARGES>  (1) 
17
1 -0.18
10 0.3
11 0.57
12 0.18
13 -0.15
14 0.18
15 0.4
16 0.15
2 -0.18
20 0.15
3 -0.18
4 -0.34
5 -0.57
6 -0.48
7 0.12
8 0.18
9 -0.15

>  <PUBCHEM_EFFECTIVE_ROTOR_COUNT>  (1) 
3

>  <PUBCHEM_PHARMACOPHORE_FEATURES>  (1) 
2
1 5 acceptor
6 7 8 9 12 13 14 rings

>  <PUBCHEM_HEAVY_ATOM_COUNT>  (1) 
15

>  <PUBCHEM_ATOM_DEF_STEREO_COUNT>  (1) 
0

>  <PUBCHEM_ATOM_UDEF_STEREO_COUNT>  (1) 
0

>  <PUBCHEM_BOND_DEF_STEREO_COUNT>  (1) 
0

>  <PUBCHEM_BOND_UDEF_STEREO_COUNT>  (1) 
0

>  <PUBCHEM_ISOTOPIC_ATOM_COUNT>  (1) 
0

>  <PUBCHEM_COMPONENT_COUNT>  (1) 
1

>  <PUBCHEM_CACTVS_TAUTO_COUNT>  (1) 
1

>  <PUBCHEM_CONFORMER_ID>  (1) 
000060CF00000002

>  <PUBCHEM_MMFF94_ENERGY>  (1) 
55.0629

>  <PUBCHEM_FEATURE_SELFOVERLAP>  (1) 
10.148

>  <PUBCHEM_SHAPE_FINGERPRINT>  (1) 
11471102 22 17895197657949178520
12491281 212 17918277566820831946
12500047 106 14274278260201757086
12932764 1 17168130274414008030
13140716 1 18042676373007515954
13380535 21 17969508293663460356
13538477 17 17845636115097627559
14617773 55 18120936367455818826
14787075 74 18197498643964500923
14817 1 11571143131367196887
15209294 21 18130774626134620128
15309172 13 18187368713813373210
15653759 3 16298379145955313580
15775835 57 17846219891131209049
16945 1 18187632597163137142
17357990 137 18130802113434963432
17844478 74 16877943823836653228
18175812 5 16877666763954388911
18186145 218 18334849554780288948
18219364 16 17967802851859345678
18534176 82 15482376625576457791
19049666 15 16444732853542146836
20510252 161 17255407544595553832
20715346 28 16805875277742987820
21061003 4 17824265903778338690
21339142 149 17988630939295135210
21501502 16 17971187265056946654
21524375 3 18202286879184165145
22802520 49 13901641670678384625
23236772 104 18130217182091992499
2334 1 17825944012458158318
23402539 116 16558449938519516189
23419403 2 16828673926296773855
23557571 272 15912753024613371925
23559900 14 18335419115505945636
2748010 2 17898000476935563750
305870 269 17416974919602831047
568465 68 17531538585140387488
74978 22 18262798592161186286
77492 1 18201430376737366781
81228 2 17173779732540231874

>  <PUBCHEM_SHAPE_MULTIPOLES>  (1) 
296.18
5.8
2.11
1.51
1.58
0.73
0.05
-1.94
-1.42
0.85
-0.14
-1.6
-0.31
-1.04

>  <PUBCHEM_SHAPE_SELFOVERLAP>  (1) 
585.717

>  <PUBCHEM_SHAPE_VOLUME>  (1) 
179.7

>  <PUBCHEM_COORDINATE_TYPE>  (1) 
2
5
10

$$$$
