24787
     RDKit          3D

 13 13  0  0  0  0  0  0  0  0999 V2000
    4.3083    0.6337    0.0963 F   0  0  0  0  0  0  0  0  0  0  0  0
   -4.3504    0.8809    0.1993 F   0  0  0  0  0  0  0  0  0  0  0  0
   -1.8333    1.4588    0.2997 O   0  0  0  0  0  0  0  0  0  0  0  0
   -1.0427   -0.7205   -0.1399 N   0  0  0  0  0  0  0  0  0  0  0  0
    0.3086   -0.3782   -0.0796 C   0  0  0  0  0  0  0  0  0  0  0  0
    0.7200    0.9042   -0.4419 C   0  0  0  0  0  0  0  0  0  0  0  0
    1.2481   -1.3191    0.3420 C   0  0  0  0  0  0  0  0  0  0  0  0
   -1.4665   -2.1277   -0.4182 C   0  0  0  0  0  0  0  0  0  0  0  0
   -2.0647    0.2704    0.0639 C   0  0  0  0  0  0  0  0  0  0  0  0
    2.0710    1.2459   -0.3829 C   0  0  0  0  0  0  0  0  0  0  0  0
    2.5993   -0.9775    0.4011 C   0  0  0  0  0  0  0  0  0  0  0  0
    3.0108    0.3051    0.0387 C   0  0  0  0  0  0  0  0  0  0  0  0
   -3.5086   -0.1760    0.0215 C   0  0  0  0  0  0  0  0  0  0  0  0
  1 12  1  0
  2 13  1  0
  3  9  2  0
  4  5  1  0
  4  8  1  0
  4  9  1  0
  5  6  2  0
  5  7  1  0
  6 10  1  0
  7 11  2  0
  9 13  1  0
 10 12  2  0
 11 12  1  0
M  END
>  <PUBCHEM_COMPOUND_CID>  (1) 
24787

>  <PUBCHEM_CONFORMER_RMSD>  (1) 
0.6

>  <PUBCHEM_CONFORMER_DIVERSEORDER>  (1) 
1
11
3
7
2
5
6
8
12
9
10
4

>  <PUBCHEM_MMFF94_PARTIAL_CHARGES>  (1) 
17
1 -0.19
10 -0.15
11 -0.15
12 0.19
13 0.4
14 0.15
15 0.15
19 0.15
2 -0.34
20 0.15
3 -0.57
4 -0.48
5 0.12
6 -0.15
7 -0.15
8 0.3
9 0.57

>  <PUBCHEM_EFFECTIVE_ROTOR_COUNT>  (1) 
3

>  <PUBCHEM_PHARMACOPHORE_FEATURES>  (1) 
2
1 3 acceptor
6 5 6 7 10 11 12 rings

>  <PUBCHEM_HEAVY_ATOM_COUNT>  (1) 
13

>  <PUBCHEM_ATOM_DEF_STEREO_COUNT>  (1) 
0

>  <PUBCHEM_ATOM_UDEF_STEREO_COUNT>  (1) 
0

>  <PUBCHEM_BOND_DEF_STEREO_COUNT>  (1) 
0

>  <PUBCHEM_BOND_UDEF_STEREO_COUNT>  (1) 
0

>  <PUBCHEM_ISOTOPIC_ATOM_COUNT>  (1) 
0

>  <PUBCHEM_COMPONENT_COUNT>  (1) 
1

>  <PUBCHEM_CACTVS_TAUTO_COUNT>  (1) 
1

>  <PUBCHEM_CONFORMER_ID>  (1) 
000060D300000001

>  <PUBCHEM_MMFF94_ENERGY>  (1) 
44.87

>  <PUBCHEM_FEATURE_SELFOVERLAP>  (1) 
10.148

>  <PUBCHEM_SHAPE_FINGERPRINT>  (1) 
10219947 1 18335140860377899047
10465860 228 17913503333051868233
10980938 120 18261673688333451818
11132069 177 18410287047398450136
11471102 20 18334852796900218518
12251169 10 18408037416421819584
12932764 1 17530951501908336286
13380535 76 18412263947498435335
14144814 61 18410012113250651987
14325111 11 18410575067831375853
14897335 6 18411416228301688703
14993402 34 18411138017447193759
15442244 35 18194118517133594826
15775835 57 18411140246556397169
16945 1 18410285917663717774
17844478 74 17312819351345154349
20510252 161 18130791101207596577
20645477 70 18263075531489441199
20871998 184 18058734739988897303
20871998 22 18049155562965304258
23402539 116 18059566992939157005
23402655 69 18340480084990751397
23463225 33 18334857199273371318
23559900 14 18131069372945520280
2748010 2 17975405815920075276
528886 8 18408317813446245554
53812653 166 18341045302670957224
69090 78 18413384345768176791
7364860 26 18270683048136532558

>  <PUBCHEM_SHAPE_MULTIPOLES>  (1) 
242.14
6.4
1.65
0.66
1.5
0.48
-0.02
-1.68
0.57
0.29
-0.1
-0.04
0.04
-0.46

>  <PUBCHEM_SHAPE_SELFOVERLAP>  (1) 
500.176

>  <PUBCHEM_SHAPE_VOLUME>  (1) 
139.4

>  <PUBCHEM_COORDINATE_TYPE>  (1) 
2
5
10

$$$$
