24784
     RDKit          3D

 13 13  0  0  0  0  0  0  0  0999 V2000
    4.4039    0.3508    0.3574 F   0  0  0  0  0  0  0  0  0  0  0  0
    2.0096    1.3209    0.4378 O   0  0  0  0  0  0  0  0  0  0  0  0
    0.8994   -0.6580   -0.2098 N   0  0  0  0  0  0  0  0  0  0  0  0
   -0.3810   -0.1063   -0.1576 C   0  0  0  0  0  0  0  0  0  0  0  0
   -1.4761   -0.9114    0.1562 C   0  0  0  0  0  0  0  0  0  0  0  0
   -2.7559   -0.3588    0.2080 C   0  0  0  0  0  0  0  0  0  0  0  0
   -0.5658    1.2513   -0.4194 C   0  0  0  0  0  0  0  0  0  0  0  0
   -2.9405    0.9988   -0.0538 C   0  0  0  0  0  0  0  0  0  0  0  0
   -1.8455    1.8038   -0.3674 C   0  0  0  0  0  0  0  0  0  0  0  0
    1.1038   -2.0884   -0.5966 C   0  0  0  0  0  0  0  0  0  0  0  0
    2.0574    0.1335    0.1069 C   0  0  0  0  0  0  0  0  0  0  0  0
   -3.9269   -1.2194    0.5440 C   0  0  0  0  0  0  0  0  0  0  0  0
    3.4177   -0.5168   -0.0058 C   0  0  0  0  0  0  0  0  0  0  0  0
  1 13  1  0
  2 11  2  0
  3  4  1  0
  3 10  1  0
  3 11  1  0
  4  5  2  0
  4  7  1  0
  5  6  1  0
  6  8  2  0
  6 12  1  0
  7  9  2  0
  8  9  1  0
 11 13  1  0
M  END
>  <PUBCHEM_COMPOUND_CID>  (1) 
24784

>  <PUBCHEM_CONFORMER_RMSD>  (1) 
0.6

>  <PUBCHEM_CONFORMER_DIVERSEORDER>  (1) 
1
27
30
15
25
24
11
10
8
3
6
2
21
19
16
28
7
23
29
14
12
26
4
22
20
5
13
18
9
17

>  <PUBCHEM_MMFF94_PARTIAL_CHARGES>  (1) 
17
1 -0.34
10 0.3
11 0.57
12 0.14
13 0.4
14 0.15
15 0.15
16 0.15
2 -0.57
20 0.15
3 -0.48
4 0.12
5 -0.15
6 -0.14
7 -0.15
8 -0.15
9 -0.15

>  <PUBCHEM_EFFECTIVE_ROTOR_COUNT>  (1) 
3

>  <PUBCHEM_PHARMACOPHORE_FEATURES>  (1) 
2
1 2 acceptor
6 4 5 6 7 8 9 rings

>  <PUBCHEM_HEAVY_ATOM_COUNT>  (1) 
13

>  <PUBCHEM_ATOM_DEF_STEREO_COUNT>  (1) 
0

>  <PUBCHEM_ATOM_UDEF_STEREO_COUNT>  (1) 
0

>  <PUBCHEM_BOND_DEF_STEREO_COUNT>  (1) 
0

>  <PUBCHEM_BOND_UDEF_STEREO_COUNT>  (1) 
0

>  <PUBCHEM_ISOTOPIC_ATOM_COUNT>  (1) 
0

>  <PUBCHEM_COMPONENT_COUNT>  (1) 
1

>  <PUBCHEM_CACTVS_TAUTO_COUNT>  (1) 
1

>  <PUBCHEM_CONFORMER_ID>  (1) 
000060D000000001

>  <PUBCHEM_MMFF94_ENERGY>  (1) 
47.3189

>  <PUBCHEM_FEATURE_SELFOVERLAP>  (1) 
10.148

>  <PUBCHEM_SHAPE_FINGERPRINT>  (1) 
10608611 8 18339358548422580068
10857977 72 18335136514245593945
11132069 177 18410290315499336265
12032990 46 18410299111555435142
12251169 10 18411418448831396826
12932764 1 17489294274585660055
13214271 11 18410570678364302093
13380535 21 18195539094609251535
13380535 76 18338513045387059063
14144814 61 18409164372806292602
14325111 11 18410854330910511076
15219456 202 18269839730964740351
16945 1 18412829092422276821
17844478 74 18410862053172077553
18175812 5 18410572898714778941
18186145 218 16988838406598927562
18380122 1 18412268311327314663
19973954 147 18268150864088111421
200 152 17988913484203590125
20201158 50 18411980222048038559
20510252 161 18341614793485160521
20645477 70 17845086256083328983
20871998 184 18413109459429495471
20871998 22 18337408088384381799
21061003 4 18060137665217571801
21501502 16 18265612078754467451
23402539 116 18335412504644324975
23463225 33 18334575728913439804
23552423 10 18042134176009241927
23559900 14 18193554463674557574
2748010 2 18265902358741130847
43471831 8 18114177488927983419
5104073 3 18338796719597808338
53812653 166 18341891844703454848
6333449 129 18409727331602875525
7364860 26 18124875655620016438
8809292 202 18187370981814789459

>  <PUBCHEM_SHAPE_MULTIPOLES>  (1) 
249.41
6.41
1.79
0.7
2.77
0.08
0.02
0.54
-1.19
-0.57
0.22
-0.04
0.04
0.62

>  <PUBCHEM_SHAPE_SELFOVERLAP>  (1) 
511.221

>  <PUBCHEM_SHAPE_VOLUME>  (1) 
145.2

>  <PUBCHEM_COORDINATE_TYPE>  (1) 
2
5
10

$$$$
