24793
     RDKit          3D

 19 20  0  0  1  0  0  0  0  0999 V2000
   -2.0956    3.1913   -1.1397 F   0  0  0  0  0  0  0  0  0  0  0  0
   -3.7438   -1.2866   -0.1071 O   0  0  0  0  0  0  0  0  0  0  0  0
   -2.9649    1.4372    0.5477 O   0  0  0  0  0  0  0  0  0  0  0  0
   -1.1970   -0.0980    0.2616 N   0  0  0  0  0  0  0  0  0  0  0  0
   -1.7689   -1.0584    1.2520 C   0  0  0  0  0  0  0  0  0  0  0  0
    0.0041   -0.3832   -0.3996 C   0  0  0  0  0  0  0  0  0  0  0  0
    1.2478    0.0039    0.1255 C   0  0  0  0  0  0  0  0  0  0  0  0
   -2.7305   -2.0259    0.5653 C   0  0  0  0  0  0  0  0  0  0  0  0
   -0.6462   -1.8083    1.9574 C   0  0  0  0  0  0  0  0  0  0  0  0
    2.4289   -0.3125   -0.5871 C   0  0  0  0  0  0  0  0  0  0  0  0
   -0.0740   -1.0728   -1.6100 C   0  0  0  0  0  0  0  0  0  0  0  0
   -1.9042    1.1235    0.0019 C   0  0  0  0  0  0  0  0  0  0  0  0
    1.3451    0.6983    1.3422 C   0  0  0  0  0  0  0  0  0  0  0  0
    2.3314   -1.0068   -1.8040 C   0  0  0  0  0  0  0  0  0  0  0  0
    1.0875   -1.3838   -2.3108 C   0  0  0  0  0  0  0  0  0  0  0  0
    3.6725    0.0749   -0.0621 C   0  0  0  0  0  0  0  0  0  0  0  0
   -1.3318    2.0679   -1.0308 C   0  0  0  0  0  0  0  0  0  0  0  0
    2.5891    1.0752    1.8491 C   0  0  0  0  0  0  0  0  0  0  0  0
    3.7507    0.7641    1.1484 C   0  0  0  0  0  0  0  0  0  0  0  0
  1 17  1  0
  2  8  1  0
  3 12  2  0
  4  5  1  0
  4  6  1  0
  4 12  1  0
  5  8  1  0
  5  9  1  0
  6  7  2  0
  6 11  1  0
  7 10  1  0
  7 13  1  0
 10 14  2  0
 10 16  1  0
 11 15  2  0
 12 17  1  0
 13 18  2  0
 14 15  1  0
 16 19  2  0
 18 19  1  0
M  END
>  <PUBCHEM_COMPOUND_CID>  (1) 
24793

>  <PUBCHEM_CONFORMER_RMSD>  (1) 
0.6

>  <PUBCHEM_CONFORMER_DIVERSEORDER>  (1) 
1
20
16
6
47
31
32
43
24
41
23
28
15
22
14
26
17
33
9
35
40
25
11
46
19
7
36
45
44
10
30
2
34
12
5
3
39
27
4
29
38
42
21
13
18
8
37

>  <PUBCHEM_MMFF94_PARTIAL_CHARGES>  (1) 
24
1 -0.34
11 -0.15
12 0.57
13 -0.15
14 -0.15
15 -0.15
16 -0.15
17 0.4
18 -0.15
19 -0.15
2 -0.68
26 0.15
27 0.15
28 0.15
29 0.15
3 -0.57
30 0.15
33 0.15
34 0.15
35 0.4
4 -0.48
5 0.3
6 0.12
8 0.28

>  <PUBCHEM_EFFECTIVE_ROTOR_COUNT>  (1) 
5

>  <PUBCHEM_PHARMACOPHORE_FEATURES>  (1) 
5
1 2 acceptor
1 2 donor
1 3 acceptor
6 6 7 10 11 14 15 rings
6 7 10 13 16 18 19 rings

>  <PUBCHEM_HEAVY_ATOM_COUNT>  (1) 
19

>  <PUBCHEM_ATOM_DEF_STEREO_COUNT>  (1) 
0

>  <PUBCHEM_ATOM_UDEF_STEREO_COUNT>  (1) 
1

>  <PUBCHEM_BOND_DEF_STEREO_COUNT>  (1) 
0

>  <PUBCHEM_BOND_UDEF_STEREO_COUNT>  (1) 
0

>  <PUBCHEM_ISOTOPIC_ATOM_COUNT>  (1) 
0

>  <PUBCHEM_COMPONENT_COUNT>  (1) 
1

>  <PUBCHEM_CACTVS_TAUTO_COUNT>  (1) 
1

>  <PUBCHEM_CONFORMER_ID>  (1) 
000060D900000001

>  <PUBCHEM_MMFF94_ENERGY>  (1) 
75.8105

>  <PUBCHEM_FEATURE_SELFOVERLAP>  (1) 
25.4

>  <PUBCHEM_SHAPE_FINGERPRINT>  (1) 
11582403 64 17190034641667381296
11640471 11 16733281057268702725
11725454 13 17910633693344684704
12236239 1 16660364804884362651
12403814 3 17914882356418502506
13294875 104 17542215770711516228
13538477 17 17095823077887436457
13583140 156 18123997296664508344
13898156 1 16951144918399082100
14614273 12 17199921652329885684
14787075 74 16018637278832473870
14817 1 10805945684463830324
15219456 202 17988932153846300251
15309172 13 17346603031677917818
16945 1 17749969820088385074
18219364 16 17632294596947558984
19049666 15 18128546959288515946
20600515 1 18117850012810144233
21639500 275 17060331899421266976
22112679 90 17168157753097783847
23402539 116 18338226180785684495
23419403 2 17915761807002053942
23493267 7 18337114458634165536
23526113 38 17914343372435645862
23557571 272 18410866455387059485
23559900 14 18334861593505203550
238 59 17273389739092143196
25 1 17560232518948242116
2748010 2 17917711284194465076
3286 77 17560254594695060562
427121 178 18045788875371955897
6442390 28 17977681809775870289
68419 9 16951431886570457503
77492 1 16588034527604442818
81228 2 18262819409793933993
8272917 22 16414661301176040795

>  <PUBCHEM_SHAPE_MULTIPOLES>  (1) 
367.02
5.44
2.28
2.05
0.79
0.66
0.06
0.61
1.14
-1.1
-1
-0.14
-0.2
2.24

>  <PUBCHEM_SHAPE_SELFOVERLAP>  (1) 
782.373

>  <PUBCHEM_SHAPE_VOLUME>  (1) 
204.6

>  <PUBCHEM_COORDINATE_TYPE>  (1) 
2
5
10

$$$$
