24799
     RDKit          3D

 22 21  0  0  0  0  0  0  0  0999 V2000
   -2.2074   -1.2191    0.7923 O   0  0  0  0  0  0  0  0  0  0  0  0
    2.2420   -0.3914   -0.9778 O   0  0  0  0  0  0  0  0  0  0  0  0
   -0.9103   -0.8753    2.6707 O   0  0  0  0  0  0  0  0  0  0  0  0
    3.7505   -2.1315   -0.8469 O   0  0  0  0  0  0  0  0  0  0  0  0
   -3.7681    0.3674   -0.1987 C   0  0  0  0  0  0  0  0  0  0  0  0
    2.6493    1.9237   -0.3381 C   0  0  0  0  0  0  0  0  0  0  0  0
   -3.1754    0.1052   -1.6013 C   0  0  0  0  0  0  0  0  0  0  0  0
   -4.3642    1.7773   -0.0204 C   0  0  0  0  0  0  0  0  0  0  0  0
    1.4133    1.9008    0.5821 C   0  0  0  0  0  0  0  0  0  0  0  0
    3.7180    2.9638    0.0661 C   0  0  0  0  0  0  0  0  0  0  0  0
   -2.7553    0.0962    0.9256 C   0  0  0  0  0  0  0  0  0  0  0  0
    3.2269    0.5036   -0.4516 C   0  0  0  0  0  0  0  0  0  0  0  0
    0.4721   -2.9936    0.6270 C   0  0  0  0  0  0  0  0  0  0  0  0
    0.2387   -2.4188   -0.7757 C   0  0  0  0  0  0  0  0  0  0  0  0
   -2.0406    1.0349   -2.0085 C   0  0  0  0  0  0  0  0  0  0  0  0
   -5.5013    2.0909   -0.9823 C   0  0  0  0  0  0  0  0  0  0  0  0
    0.6612    3.2229    0.6357 C   0  0  0  0  0  0  0  0  0  0  0  0
    4.3043    2.7816    1.4592 C   0  0  0  0  0  0  0  0  0  0  0  0
   -0.7924   -2.9722    1.4817 C   0  0  0  0  0  0  0  0  0  0  0  0
    1.4867   -2.5054   -1.6548 C   0  0  0  0  0  0  0  0  0  0  0  0
   -1.2923   -1.5722    1.7394 C   0  0  0  0  0  0  0  0  0  0  0  0
    2.6442   -1.6887   -1.1238 C   0  0  0  0  0  0  0  0  0  0  0  0
  1 11  1  0
  1 21  1  0
  2 12  1  0
  2 22  1  0
  3 21  2  0
  4 22  2  0
  5  7  1  0
  5  8  1  0
  5 11  1  0
  6  9  1  0
  6 10  1  0
  6 12  1  0
  7 15  1  0
  8 16  1  0
  9 17  1  0
 10 18  1  0
 13 14  1  0
 13 19  1  0
 14 20  1  0
 19 21  1  0
 20 22  1  0
M  END
>  <PUBCHEM_COMPOUND_CID>  (1) 
24799

>  <PUBCHEM_CONFORMER_RMSD>  (1) 
1.6

>  <PUBCHEM_CONFORMER_DIVERSEORDER>  (1) 
1
8
12
13
19
21
4
10
11
17
5
15
18
16
20
2
14
7
6
9
3

>  <PUBCHEM_MMFF94_PARTIAL_CHARGES>  (1) 
10
1 -0.43
11 0.28
12 0.28
19 0.06
2 -0.43
20 0.06
21 0.66
22 0.66
3 -0.57
4 -0.57

>  <PUBCHEM_EFFECTIVE_ROTOR_COUNT>  (1) 
15

>  <PUBCHEM_PHARMACOPHORE_FEATURES>  (1) 
7
1 15 hydrophobe
1 16 hydrophobe
1 17 hydrophobe
1 18 hydrophobe
1 3 acceptor
1 4 acceptor
4 13 14 19 20 hydrophobe

>  <PUBCHEM_HEAVY_ATOM_COUNT>  (1) 
22

>  <PUBCHEM_ATOM_DEF_STEREO_COUNT>  (1) 
0

>  <PUBCHEM_ATOM_UDEF_STEREO_COUNT>  (1) 
0

>  <PUBCHEM_BOND_DEF_STEREO_COUNT>  (1) 
0

>  <PUBCHEM_BOND_UDEF_STEREO_COUNT>  (1) 
0

>  <PUBCHEM_ISOTOPIC_ATOM_COUNT>  (1) 
0

>  <PUBCHEM_COMPONENT_COUNT>  (1) 
1

>  <PUBCHEM_CACTVS_TAUTO_COUNT>  (1) 
1

>  <PUBCHEM_CONFORMER_ID>  (1) 
000060DF00000001

>  <PUBCHEM_MMFF94_ENERGY>  (1) 
17.7015

>  <PUBCHEM_FEATURE_SELFOVERLAP>  (1) 
35.525

>  <PUBCHEM_SHAPE_FINGERPRINT>  (1) 
11370993 70 18269837677970483288
13402501 40 18261682484310358372
14251757 17 18335993003649300529
14251764 3 18041274383348410911
14251764 38 18337666524470513199
14468879 13 18337393871562305187
14931854 50 17975423412369452013
15295992 7 18260556588651523150
17093844 170 18409165498262485952
18219364 16 18054520367737849368
192875 21 18129668478545351914
19930381 70 18270405004948915441
20600515 1 15440972015857083043
20621476 13 18413111658289324336
238 59 18272376377262206998
2803657 2 16241518692209177103
3187 122 17394180153837182947
35225 105 17246635502946611351
3524813 1 18041570113511702239
9862522 239 17981606288717815866

>  <PUBCHEM_SHAPE_MULTIPOLES>  (1) 
429.27
8.61
4.59
1.97
4.56
0.36
0.42
-8.21
-1.76
-3.22
0.71
0.56
0.87
2.78

>  <PUBCHEM_SHAPE_SELFOVERLAP>  (1) 
805.008

>  <PUBCHEM_SHAPE_VOLUME>  (1) 
266.6

>  <PUBCHEM_COORDINATE_TYPE>  (1) 
2
5
10

$$$$
