24792
     RDKit          3D

 18 19  0  0  0  0  0  0  0  0999 V2000
    2.1936    2.5267    1.9970 F   0  0  0  0  0  0  0  0  0  0  0  0
    3.7798   -1.3475   -0.6245 O   0  0  0  0  0  0  0  0  0  0  0  0
    3.0119    1.4527   -0.2068 O   0  0  0  0  0  0  0  0  0  0  0  0
    1.2246   -0.0698   -0.4345 N   0  0  0  0  0  0  0  0  0  0  0  0
    0.0287   -0.5537    0.1096 C   0  0  0  0  0  0  0  0  0  0  0  0
   -1.2159    0.0037   -0.2259 C   0  0  0  0  0  0  0  0  0  0  0  0
    1.7683   -0.6353   -1.7053 C   0  0  0  0  0  0  0  0  0  0  0  0
   -2.3914   -0.5270    0.3565 C   0  0  0  0  0  0  0  0  0  0  0  0
    0.1132   -1.6189    1.0068 C   0  0  0  0  0  0  0  0  0  0  0  0
   -1.3198    1.0761   -1.1268 C   0  0  0  0  0  0  0  0  0  0  0  0
   -2.2878   -1.5997    1.2573 C   0  0  0  0  0  0  0  0  0  0  0  0
    1.9542    0.9806    0.2171 C   0  0  0  0  0  0  0  0  0  0  0  0
    2.6938   -1.8070   -1.4187 C   0  0  0  0  0  0  0  0  0  0  0  0
   -1.0428   -2.1410    1.5793 C   0  0  0  0  0  0  0  0  0  0  0  0
   -3.6361    0.0301    0.0210 C   0  0  0  0  0  0  0  0  0  0  0  0
   -2.5646    1.6175   -1.4486 C   0  0  0  0  0  0  0  0  0  0  0  0
   -3.7206    1.0955   -0.8757 C   0  0  0  0  0  0  0  0  0  0  0  0
    1.4110    1.5170    1.5222 C   0  0  0  0  0  0  0  0  0  0  0  0
  1 18  1  0
  2 13  1  0
  3 12  2  0
  4  5  1  0
  4  7  1  0
  4 12  1  0
  5  6  2  0
  5  9  1  0
  6  8  1  0
  6 10  1  0
  7 13  1  0
  8 11  2  0
  8 15  1  0
  9 14  2  0
 10 16  2  0
 11 14  1  0
 12 18  1  0
 15 17  2  0
 16 17  1  0
M  END
>  <PUBCHEM_COMPOUND_CID>  (1) 
24792

>  <PUBCHEM_CONFORMER_RMSD>  (1) 
0.6

>  <PUBCHEM_CONFORMER_DIVERSEORDER>  (1) 
1
7
29
52
27
45
9
51
4
49
42
13
53
17
23
10
37
38
21
8
39
35
48
19
22
24
2
46
50
12
26
15
36
31
40
47
11
54
41
18
6
16
33
14
5
43
34
25
30
20
44
32
28
3

>  <PUBCHEM_MMFF94_PARTIAL_CHARGES>  (1) 
24
1 -0.34
10 -0.15
11 -0.15
12 0.57
13 0.28
14 -0.15
15 -0.15
16 -0.15
17 -0.15
18 0.4
2 -0.68
21 0.15
22 0.15
23 0.15
26 0.15
27 0.15
28 0.15
29 0.15
3 -0.57
32 0.4
4 -0.48
5 0.12
7 0.3
9 -0.15

>  <PUBCHEM_EFFECTIVE_ROTOR_COUNT>  (1) 
5

>  <PUBCHEM_PHARMACOPHORE_FEATURES>  (1) 
5
1 2 acceptor
1 2 donor
1 3 acceptor
6 5 6 8 9 11 14 rings
6 6 8 10 15 16 17 rings

>  <PUBCHEM_HEAVY_ATOM_COUNT>  (1) 
18

>  <PUBCHEM_ATOM_DEF_STEREO_COUNT>  (1) 
0

>  <PUBCHEM_ATOM_UDEF_STEREO_COUNT>  (1) 
0

>  <PUBCHEM_BOND_DEF_STEREO_COUNT>  (1) 
0

>  <PUBCHEM_BOND_UDEF_STEREO_COUNT>  (1) 
0

>  <PUBCHEM_ISOTOPIC_ATOM_COUNT>  (1) 
0

>  <PUBCHEM_COMPONENT_COUNT>  (1) 
1

>  <PUBCHEM_CACTVS_TAUTO_COUNT>  (1) 
1

>  <PUBCHEM_CONFORMER_ID>  (1) 
000060D800000001

>  <PUBCHEM_MMFF94_ENERGY>  (1) 
67.9319

>  <PUBCHEM_FEATURE_SELFOVERLAP>  (1) 
25.4

>  <PUBCHEM_SHAPE_FINGERPRINT>  (1) 
10165383 225 17480324678065391344
11582403 64 17187497071830606749
12716301 132 17894914044163092347
13134695 92 17988918917210794172
13294875 104 18045198484497492483
13538477 17 16298393508246849571
13898156 1 16298664005186924802
13911987 19 18059033734643149974
14022347 108 17097795709528518731
14817 1 15680219114272724994
15219456 202 18410581716366975158
16752209 62 17386002901615291667
16945 1 18117009788010146983
1813 80 16413816803373474670
18186145 218 18336262341264684061
18219364 16 17700412760839949440
19049666 15 18410860953507456056
20510252 161 18114751541840771849
20645476 183 15719401646059276979
21639500 275 17703508895415527968
21947302 44 18271800250365030488
22802520 49 18262255368486465135
23175994 123 18129393613512474430
23419403 2 18270977837142180138
23493267 7 16226344620387134137
23526113 38 18340494344224320518
23557571 272 18116436036514682707
23559900 14 18113914753552331870
23598291 2 16199054745616477278
2748010 2 18188217610216111787
3286 77 18272944820832299279
6049 1 18337124443995226827
7364860 26 17827904149443017155
77492 1 15698011729224130614
81228 2 17899146180805032051

>  <PUBCHEM_SHAPE_MULTIPOLES>  (1) 
346.44
5.68
2.35
1.74
0.19
0.37
0.38
-1
-1.52
0.09
0.8
-1.31
-0.41
2.23

>  <PUBCHEM_SHAPE_SELFOVERLAP>  (1) 
739.158

>  <PUBCHEM_SHAPE_VOLUME>  (1) 
192.7

>  <PUBCHEM_COORDINATE_TYPE>  (1) 
2
5
10

$$$$
