24790
     RDKit          3D

 15 15  0  0  0  0  0  0  0  0999 V2000
   -4.9617    1.0595    0.2749 F   0  0  0  0  0  0  0  0  0  0  0  0
   -2.4138    1.4832    0.3663 O   0  0  0  0  0  0  0  0  0  0  0  0
    4.1578    1.4699   -0.2298 O   0  0  0  0  0  0  0  0  0  0  0  0
    4.5237   -0.6017    0.3975 O   0  0  0  0  0  0  0  0  0  0  0  0
   -1.7589   -0.7195   -0.1689 N   0  0  0  0  0  0  0  0  0  0  0  0
    3.7437    0.3212    0.0589 N   0  0  0  0  0  0  0  0  0  0  0  0
   -0.3891   -0.4605   -0.1122 C   0  0  0  0  0  0  0  0  0  0  0  0
    0.0941    0.8090   -0.4289 C   0  0  0  0  0  0  0  0  0  0  0  0
    0.4970   -1.4711    0.2610 C   0  0  0  0  0  0  0  0  0  0  0  0
    2.3498    0.0575    0.0011 C   0  0  0  0  0  0  0  0  0  0  0  0
   -2.2686   -2.0871   -0.4973 C   0  0  0  0  0  0  0  0  0  0  0  0
    1.4637    1.0680   -0.3722 C   0  0  0  0  0  0  0  0  0  0  0  0
    1.8664   -1.2119    0.3178 C   0  0  0  0  0  0  0  0  0  0  0  0
   -2.7180    0.3209    0.0867 C   0  0  0  0  0  0  0  0  0  0  0  0
   -4.1862   -0.0373    0.0450 C   0  0  0  0  0  0  0  0  0  0  0  0
  1 15  1  0
  2 14  2  0
  3  6  1  0
  4  6  2  0
  5  7  1  0
  5 11  1  0
  5 14  1  0
  6 10  1  0
  7  8  2  0
  7  9  1  0
  8 12  1  0
  9 13  2  0
 10 12  2  0
 10 13  1  0
 14 15  1  0
M  CHG  2   3  -1   6   1
M  END
>  <PUBCHEM_COMPOUND_CID>  (1) 
24790

>  <PUBCHEM_CONFORMER_RMSD>  (1) 
0.6

>  <PUBCHEM_CONFORMER_DIVERSEORDER>  (1) 
1
7
3
4
11
9
2
5
12
10
6
8

>  <PUBCHEM_MMFF94_PARTIAL_CHARGES>  (1) 
19
1 -0.34
10 0.13
11 0.3
12 -0.15
13 -0.15
14 0.57
15 0.4
16 0.15
17 0.15
2 -0.57
21 0.15
22 0.15
3 -0.52
4 -0.52
5 -0.48
6 0.91
7 0.12
8 -0.15
9 -0.15

>  <PUBCHEM_EFFECTIVE_ROTOR_COUNT>  (1) 
4

>  <PUBCHEM_PHARMACOPHORE_FEATURES>  (1) 
5
1 2 acceptor
1 3 acceptor
1 3 anion
1 4 acceptor
6 7 8 9 10 12 13 rings

>  <PUBCHEM_HEAVY_ATOM_COUNT>  (1) 
15

>  <PUBCHEM_ATOM_DEF_STEREO_COUNT>  (1) 
0

>  <PUBCHEM_ATOM_UDEF_STEREO_COUNT>  (1) 
0

>  <PUBCHEM_BOND_DEF_STEREO_COUNT>  (1) 
0

>  <PUBCHEM_BOND_UDEF_STEREO_COUNT>  (1) 
0

>  <PUBCHEM_ISOTOPIC_ATOM_COUNT>  (1) 
0

>  <PUBCHEM_COMPONENT_COUNT>  (1) 
1

>  <PUBCHEM_CACTVS_TAUTO_COUNT>  (1) 
1

>  <PUBCHEM_CONFORMER_ID>  (1) 
000060D600000001

>  <PUBCHEM_MMFF94_ENERGY>  (1) 
56.9981

>  <PUBCHEM_FEATURE_SELFOVERLAP>  (1) 
25.453

>  <PUBCHEM_SHAPE_FINGERPRINT>  (1) 
10980938 120 18335140838919023291
11132069 177 18410004455677436528
11471102 20 18334853913797443788
12251169 10 18408885126796237175
12346645 44 18409446994544565418
12500047 106 18131063857437489295
13380535 76 18412265030035909239
13675066 3 18113621196146814544
13760787 5 17676481774692751014
14144814 61 18410012104924487443
14325111 11 18409728504144706550
14897335 6 18411981351756533631
14943859 89 18341895207583706835
15196674 1 18409730694092711306
15442244 35 18194964041538450770
15536298 74 18342459192856582430
15775835 57 18411984663133893425
16945 1 18410564076667239079
18186145 218 18260824921581644054
18522853 276 18411982446925773361
19026448 4 17131553942100399062
200 152 18340477976388675367
21267235 1 18409456855789743354
23402539 116 18059848459647692933
23402655 69 18342450401475116245
23463225 33 18333446534967180142
23557571 272 17774729782680015679
23559900 14 18202564012566222040
449060 50 18408324380340341375
5104073 3 18336545009767413714
528886 8 18409161125673990178
53655031 270 18409446964395372368
53812653 166 18412822508147819296
69090 78 18343299262758318191
7364860 26 18198908015549138382

>  <PUBCHEM_SHAPE_MULTIPOLES>  (1) 
273.85
8.22
1.67
0.66
0.43
0.38
-0.02
-2.25
0.76
0.39
-0.08
0.03
0.04
-0.6

>  <PUBCHEM_SHAPE_SELFOVERLAP>  (1) 
568.516

>  <PUBCHEM_SHAPE_VOLUME>  (1) 
157.3

>  <PUBCHEM_COORDINATE_TYPE>  (1) 
2
5
10

$$$$
