24794
     RDKit          3D

 16 17  0  0  0  0  0  0  0  0999 V2000
   -5.2980    0.5026    0.4442 F   0  0  0  0  0  0  0  0  0  0  0  0
   -2.8568    1.3505    0.4823 O   0  0  0  0  0  0  0  0  0  0  0  0
   -1.8643   -0.6650   -0.2385 N   0  0  0  0  0  0  0  0  0  0  0  0
   -0.5568   -0.1789   -0.2080 C   0  0  0  0  0  0  0  0  0  0  0  0
    1.8252   -0.5725    0.0928 C   0  0  0  0  0  0  0  0  0  0  0  0
    2.0751    0.7997   -0.1466 C   0  0  0  0  0  0  0  0  0  0  0  0
    0.5034   -1.0460    0.0583 C   0  0  0  0  0  0  0  0  0  0  0  0
   -0.3109    1.1705   -0.4438 C   0  0  0  0  0  0  0  0  0  0  0  0
    0.9960    1.6581   -0.4135 C   0  0  0  0  0  0  0  0  0  0  0  0
    2.9044   -1.4308    0.3593 C   0  0  0  0  0  0  0  0  0  0  0  0
    3.3968    1.2733   -0.1124 C   0  0  0  0  0  0  0  0  0  0  0  0
   -2.1499   -2.0740   -0.6515 C   0  0  0  0  0  0  0  0  0  0  0  0
   -2.9726    0.1753    0.1264 C   0  0  0  0  0  0  0  0  0  0  0  0
    4.2112   -0.9430    0.3897 C   0  0  0  0  0  0  0  0  0  0  0  0
    4.4569    0.4065    0.1544 C   0  0  0  0  0  0  0  0  0  0  0  0
   -4.3596   -0.4262    0.1068 C   0  0  0  0  0  0  0  0  0  0  0  0
  1 16  1  0
  2 13  2  0
  3  4  1  0
  3 12  1  0
  3 13  1  0
  4  7  2  0
  4  8  1  0
  5  6  2  0
  5  7  1  0
  5 10  1  0
  6  9  1  0
  6 11  1  0
  8  9  2  0
 10 14  2  0
 11 15  2  0
 13 16  1  0
 14 15  1  0
M  END
>  <PUBCHEM_COMPOUND_CID>  (1) 
24794

>  <PUBCHEM_CONFORMER_RMSD>  (1) 
0.6

>  <PUBCHEM_CONFORMER_DIVERSEORDER>  (1) 
1
15
17
3
5
12
2
21
13
11
4
22
14
20
6
8
10
16
18
24
9
23
19
7

>  <PUBCHEM_MMFF94_PARTIAL_CHARGES>  (1) 
21
1 -0.34
10 -0.15
11 -0.15
12 0.3
13 0.57
14 -0.15
15 -0.15
16 0.4
17 0.15
18 0.15
19 0.15
2 -0.57
20 0.15
21 0.15
25 0.15
26 0.15
3 -0.48
4 0.12
7 -0.15
8 -0.15
9 -0.15

>  <PUBCHEM_EFFECTIVE_ROTOR_COUNT>  (1) 
3

>  <PUBCHEM_PHARMACOPHORE_FEATURES>  (1) 
3
1 2 acceptor
6 4 5 6 7 8 9 rings
6 5 6 10 11 14 15 rings

>  <PUBCHEM_HEAVY_ATOM_COUNT>  (1) 
16

>  <PUBCHEM_ATOM_DEF_STEREO_COUNT>  (1) 
0

>  <PUBCHEM_ATOM_UDEF_STEREO_COUNT>  (1) 
0

>  <PUBCHEM_BOND_DEF_STEREO_COUNT>  (1) 
0

>  <PUBCHEM_BOND_UDEF_STEREO_COUNT>  (1) 
0

>  <PUBCHEM_ISOTOPIC_ATOM_COUNT>  (1) 
0

>  <PUBCHEM_COMPONENT_COUNT>  (1) 
1

>  <PUBCHEM_CACTVS_TAUTO_COUNT>  (1) 
1

>  <PUBCHEM_CONFORMER_ID>  (1) 
000060DA00000001

>  <PUBCHEM_MMFF94_ENERGY>  (1) 
60.2156

>  <PUBCHEM_FEATURE_SELFOVERLAP>  (1) 
15.249

>  <PUBCHEM_SHAPE_FINGERPRINT>  (1) 
10967382 1 18409165502551606806
11132069 177 18410846673068159922
11471102 20 18334290981224358188
12032990 46 18261674779471273430
12236239 1 18272369776271882979
12251169 10 18412262839306740935
13675066 3 18186802499827192593
13760787 19 18339927120799175022
13760787 5 17968371334041848262
14144814 61 18411138026026565649
14252887 29 18340493283377798418
14965852 173 18341326803058970239
15048467 5 17988640818025624496
15196674 1 18409729598986976519
15375462 189 18186792561415431242
15442244 35 18411136896713975888
15536298 74 18413388752631196332
16945 1 18336814296201853020
17834072 33 18340766035143906319
1813 80 17385446496885789150
18186145 218 17676479575458576594
18522853 276 18412826880466886977
19050596 39 18410288146836309354
19141452 34 18341891904743631695
19422 9 18410572928932569766
200 152 18343012312109489039
20281475 54 18408878560171264198
20510252 161 18059860498124740017
20645477 70 18408319960655996198
21267235 1 18409174285754556298
21501502 16 18265894833710501782
23402539 116 17988917869412899437
23402655 69 18410854382365703300
23463225 33 18408321086253445164
23557571 272 14764358119415972177
23559900 14 17988641943423184856
26918003 58 17821729442000734296
2748010 2 17545310883486266822
34934 24 18410568522248495262
3545911 37 18412265051220192519
42 15 18334577936352491633
5104073 3 18410854407951021395
53655031 270 18411138030448328424
69090 78 18413668019852564967
77779 3 18410575101895858067
9981440 41 17256240973908729480

>  <PUBCHEM_SHAPE_MULTIPOLES>  (1) 
311.15
8.89
1.74
0.7
4.53
0.18
-0.02
0.06
1.52
-0.21
-0.17
0.07
0.03
-0.63

>  <PUBCHEM_SHAPE_SELFOVERLAP>  (1) 
669.792

>  <PUBCHEM_SHAPE_VOLUME>  (1) 
172.4

>  <PUBCHEM_COORDINATE_TYPE>  (1) 
2
5
10

$$$$
