2479
     RDKit          3D

 15 15  0  0  1  0  0  0  0  0999 V2000
   -0.6135   -2.1755   -1.2362 O   0  0  0  0  0  0  0  0  0  0  0  0
    0.2788    0.8621    2.2319 O   0  0  0  0  0  0  0  0  0  0  0  0
   -3.2579    1.5230   -0.6163 O   0  0  0  0  0  0  0  0  0  0  0  0
   -1.8740   -0.2753   -0.9852 N   0  0  0  0  0  0  0  0  0  0  0  0
   -1.4279    1.2425    0.7467 N   0  0  0  0  0  0  0  0  0  0  0  0
    0.2848   -0.4177    0.1722 C   0  0  0  0  0  0  0  0  0  0  0  0
    1.2532    0.3475   -0.7475 C   0  0  0  0  0  0  0  0  0  0  0  0
    1.0578   -1.5080    0.9283 C   0  0  0  0  0  0  0  0  0  0  0  0
    2.3162    1.0626    0.1015 C   0  0  0  0  0  0  0  0  0  0  0  0
   -0.7647   -1.0662   -0.7251 C   0  0  0  0  0  0  0  0  0  0  0  0
   -0.2776    0.5921    1.1677 C   0  0  0  0  0  0  0  0  0  0  0  0
    1.8642   -0.6168   -1.7625 C   0  0  0  0  0  0  0  0  0  0  0  0
    0.1230   -2.3537    1.7634 C   0  0  0  0  0  0  0  0  0  0  0  0
    3.2851    1.8991   -0.7219 C   0  0  0  0  0  0  0  0  0  0  0  0
   -2.2474    0.8845   -0.3169 C   0  0  0  0  0  0  0  0  0  0  0  0
  1 10  2  0
  2 11  2  0
  3 15  2  0
  4 10  1  0
  4 15  1  0
  5 11  1  0
  5 15  1  0
  6  7  1  0
  6  8  1  0
  6 10  1  0
  6 11  1  0
  7  9  1  0
  7 12  1  0
  8 13  1  0
  9 14  1  0
M  END
>  <PUBCHEM_COMPOUND_CID>  (1) 
2479

>  <PUBCHEM_CONFORMER_RMSD>  (1) 
0.6

>  <PUBCHEM_CONFORMER_DIVERSEORDER>  (1) 
1
9
2
8
7
3
4
6
5

>  <PUBCHEM_MMFF94_PARTIAL_CHARGES>  (1) 
11
1 -0.57
10 0.57
11 0.57
15 0.69
2 -0.57
3 -0.57
30 0.37
31 0.37
4 -0.49
5 -0.49
6 0.12

>  <PUBCHEM_EFFECTIVE_ROTOR_COUNT>  (1) 
3.6

>  <PUBCHEM_PHARMACOPHORE_FEATURES>  (1) 
9
1 1 acceptor
1 12 hydrophobe
1 13 hydrophobe
1 14 hydrophobe
1 2 acceptor
1 3 acceptor
1 4 donor
1 5 donor
6 4 5 6 10 11 15 rings

>  <PUBCHEM_HEAVY_ATOM_COUNT>  (1) 
15

>  <PUBCHEM_ATOM_DEF_STEREO_COUNT>  (1) 
0

>  <PUBCHEM_ATOM_UDEF_STEREO_COUNT>  (1) 
1

>  <PUBCHEM_BOND_DEF_STEREO_COUNT>  (1) 
0

>  <PUBCHEM_BOND_UDEF_STEREO_COUNT>  (1) 
0

>  <PUBCHEM_ISOTOPIC_ATOM_COUNT>  (1) 
0

>  <PUBCHEM_COMPONENT_COUNT>  (1) 
1

>  <PUBCHEM_CACTVS_TAUTO_COUNT>  (1) 
5

>  <PUBCHEM_CONFORMER_ID>  (1) 
000009AF00000001

>  <PUBCHEM_MMFF94_ENERGY>  (1) 
45.9484

>  <PUBCHEM_FEATURE_SELFOVERLAP>  (1) 
45.713

>  <PUBCHEM_SHAPE_FINGERPRINT>  (1) 
10702982 57 18260259789373412042
12138202 97 18200317735505421380
12326174 3 17684391463268203487
12423570 1 13631489443146038786
12491281 212 17750508658364633444
13024252 1 17826519060933421838
13134695 92 17320678492898886837
13299463 15 17130997636171163148
13571099 52 17240481381937452693
137420 1 15725529073720460550
14713566 1 18202284671776774734
14817 1 9789180209560204216
15775835 57 18334575737250517892
16945 1 18127146172747696751
19765921 60 18410572902841155600
19837323 101 17970349428121220118
20653085 51 18336559290792362548
21524375 3 18408602565114049828
23419403 2 17476418980719252075
23559900 14 17632293523918333424
2748010 2 16908318073045773079
305870 269 17967807228452151700
353137 74 17917722266046227584
430814 3 18114172051593714669
4369600 1 17489294240431663121
5084963 1 17901991583262697182
59915604 170 17775290486360344176
81228 2 17466545546674379362

>  <PUBCHEM_SHAPE_MULTIPOLES>  (1) 
281.12
3.53
2.23
1.75
0.88
1.04
-0.25
-3.13
0.98
-0.2
-0.41
0.07
0.49
-0.06

>  <PUBCHEM_SHAPE_SELFOVERLAP>  (1) 
576.072

>  <PUBCHEM_SHAPE_VOLUME>  (1) 
160.5

>  <PUBCHEM_COORDINATE_TYPE>  (1) 
2
5
10

$$$$
