24791
     RDKit          3D

 16 16  0  0  0  0  0  0  0  0999 V2000
   -0.2826    1.6098    2.3529 Cl  0  0  0  0  0  0  0  0  0  0  0  0
    3.0382   -1.4624   -1.9528 Cl  0  0  0  0  0  0  0  0  0  0  0  0
    4.4364    0.7143   -0.0093 Cl  0  0  0  0  0  0  0  0  0  0  0  0
   -2.8292    1.9477   -1.9357 F   0  0  0  0  0  0  0  0  0  0  0  0
   -3.5215    0.0503   -0.3232 O   0  0  0  0  0  0  0  0  0  0  0  0
   -1.3431   -0.4765    0.4134 N   0  0  0  0  0  0  0  0  0  0  0  0
   -1.8337   -1.5580    1.3206 C   0  0  0  0  0  0  0  0  0  0  0  0
    0.0211   -0.1854    0.3195 C   0  0  0  0  0  0  0  0  0  0  0  0
   -2.3061    0.2570   -0.3598 C   0  0  0  0  0  0  0  0  0  0  0  0
    0.6238    0.7535    1.1568 C   0  0  0  0  0  0  0  0  0  0  0  0
    0.7829   -0.8597   -0.6347 C   0  0  0  0  0  0  0  0  0  0  0  0
   -1.8762   -2.8812    0.5806 C   0  0  0  0  0  0  0  0  0  0  0  0
    2.1476   -0.5951   -0.7515 C   0  0  0  0  0  0  0  0  0  0  0  0
    1.9884    1.0181    1.0399 C   0  0  0  0  0  0  0  0  0  0  0  0
    2.7502    0.3438    0.0857 C   0  0  0  0  0  0  0  0  0  0  0  0
   -1.7964    1.3238   -1.3023 C   0  0  0  0  0  0  0  0  0  0  0  0
  1 10  1  0
  2 13  1  0
  3 15  1  0
  4 16  1  0
  5  9  2  0
  6  7  1  0
  6  8  1  0
  6  9  1  0
  7 12  1  0
  8 10  2  0
  8 11  1  0
  9 16  1  0
 10 14  1  0
 11 13  2  0
 13 15  1  0
 14 15  2  0
M  END
>  <PUBCHEM_COMPOUND_CID>  (1) 
24791

>  <PUBCHEM_CONFORMER_RMSD>  (1) 
0.6

>  <PUBCHEM_CONFORMER_DIVERSEORDER>  (1) 
1
20
18
7
22
23
15
26
25
13
21
9
12
11
2
19
16
17
6
24
14
3
5
4
10
8

>  <PUBCHEM_MMFF94_PARTIAL_CHARGES>  (1) 
17
1 -0.18
10 0.18
11 -0.15
13 0.18
14 -0.15
15 0.18
16 0.4
19 0.15
2 -0.18
23 0.15
3 -0.18
4 -0.34
5 -0.57
6 -0.48
7 0.3
8 0.12
9 0.57

>  <PUBCHEM_EFFECTIVE_ROTOR_COUNT>  (1) 
4

>  <PUBCHEM_PHARMACOPHORE_FEATURES>  (1) 
2
1 5 acceptor
6 8 10 11 13 14 15 rings

>  <PUBCHEM_HEAVY_ATOM_COUNT>  (1) 
16

>  <PUBCHEM_ATOM_DEF_STEREO_COUNT>  (1) 
0

>  <PUBCHEM_ATOM_UDEF_STEREO_COUNT>  (1) 
0

>  <PUBCHEM_BOND_DEF_STEREO_COUNT>  (1) 
0

>  <PUBCHEM_BOND_UDEF_STEREO_COUNT>  (1) 
0

>  <PUBCHEM_ISOTOPIC_ATOM_COUNT>  (1) 
0

>  <PUBCHEM_COMPONENT_COUNT>  (1) 
1

>  <PUBCHEM_CACTVS_TAUTO_COUNT>  (1) 
1

>  <PUBCHEM_CONFORMER_ID>  (1) 
000060D700000001

>  <PUBCHEM_MMFF94_ENERGY>  (1) 
52.9473

>  <PUBCHEM_FEATURE_SELFOVERLAP>  (1) 
10.148

>  <PUBCHEM_SHAPE_FINGERPRINT>  (1) 
11640471 11 16370991971800839413
12138202 97 18335410275070780742
12491281 212 16877665651769037600
13538477 17 16805593811366689643
13583140 156 18193248988652413808
13898156 1 16588845975954998451
14817 1 14749373669994157705
15775835 57 16661198140109138549
16945 1 17530973479224120503
17357990 137 16153991218792302884
18186145 218 18267022756467800061
18534176 82 18335976557923916609
200 152 17203326676774801420
20201158 50 18202285818353707778
20645477 56 18187368726745728380
20645477 70 17846785070579053350
21061003 4 17630337547564430938
21524375 3 16660922150079698645
23114952 82 18340218439909721100
2334 1 16984329477033226216
23402539 116 18041547135647587143
23419403 2 17913481612917163905
23493267 7 18409161113184617104
23526113 38 18272646848585634866
23557571 272 18188780581269491844
23559900 14 18338795612293154978
25 1 18200305516418513265
2748010 2 17343493711921563744
298252 57 17459187391591457337
430814 3 16371563670723877201
6442390 28 18189624835218771961
77492 1 15338843083462493355
81228 2 18116155656971040491

>  <PUBCHEM_SHAPE_MULTIPOLES>  (1) 
316.76
5.75
2.21
1.85
3.14
0.31
0.64
0.72
1.7
0.25
-0.82
-1.95
-0.18
1.7

>  <PUBCHEM_SHAPE_SELFOVERLAP>  (1) 
624.392

>  <PUBCHEM_SHAPE_VOLUME>  (1) 
192.5

>  <PUBCHEM_COORDINATE_TYPE>  (1) 
2
5
10

$$$$
