24827
     RDKit          3D

  9  8  0  0  0  0  0  0  0  0999 V2000
    0.9090   -0.1022    0.1125 O   0  0  0  0  0  0  0  0  0  0  0  0
   -0.9108   -2.0796   -0.5995 O   0  0  0  0  0  0  0  0  0  0  0  0
    0.0423    1.9958   -0.2658 O   0  0  0  0  0  0  0  0  0  0  0  0
    2.2360    0.4141   -0.0367 C   0  0  0  0  0  0  0  0  0  0  0  0
   -1.4114    0.1275    0.1550 C   0  0  0  0  0  0  0  0  0  0  0  0
   -1.4886   -1.3377    0.4667 C   0  0  0  0  0  0  0  0  0  0  0  0
   -0.0962    0.8041   -0.0280 C   0  0  0  0  0  0  0  0  0  0  0  0
    3.2279   -0.7146    0.1476 C   0  0  0  0  0  0  0  0  0  0  0  0
   -2.5082    0.8926    0.0482 C   0  0  0  0  0  0  0  0  0  0  0  0
  1  4  1  0
  1  7  1  0
  2  6  1  0
  3  7  2  0
  4  8  1  0
  5  6  1  0
  5  7  1  0
  5  9  2  0
M  END
>  <PUBCHEM_COMPOUND_CID>  (1) 
24827

>  <PUBCHEM_CONFORMER_RMSD>  (1) 
0.6

>  <PUBCHEM_CONFORMER_DIVERSEORDER>  (1) 
1
45
22
47
32
35
44
30
19
40
11
4
21
42
38
17
43
24
33
25
28
23
37
5
29
7
27
41
2
18
3
20
39
6
31
15
10
48
46
16
9
8
12
26
14
34
13
36

>  <PUBCHEM_MMFF94_PARTIAL_CHARGES>  (1) 
11
1 -0.43
17 0.15
18 0.15
19 0.4
2 -0.68
3 -0.57
4 0.28
5 -0.12
6 0.42
7 0.71
9 -0.3

>  <PUBCHEM_EFFECTIVE_ROTOR_COUNT>  (1) 
4

>  <PUBCHEM_PHARMACOPHORE_FEATURES>  (1) 
4
1 2 acceptor
1 2 donor
1 3 acceptor
1 9 hydrophobe

>  <PUBCHEM_HEAVY_ATOM_COUNT>  (1) 
9

>  <PUBCHEM_ATOM_DEF_STEREO_COUNT>  (1) 
0

>  <PUBCHEM_ATOM_UDEF_STEREO_COUNT>  (1) 
0

>  <PUBCHEM_BOND_DEF_STEREO_COUNT>  (1) 
0

>  <PUBCHEM_BOND_UDEF_STEREO_COUNT>  (1) 
0

>  <PUBCHEM_ISOTOPIC_ATOM_COUNT>  (1) 
0

>  <PUBCHEM_COMPONENT_COUNT>  (1) 
1

>  <PUBCHEM_CACTVS_TAUTO_COUNT>  (1) 
1

>  <PUBCHEM_CONFORMER_ID>  (1) 
000060FB00000001

>  <PUBCHEM_MMFF94_ENERGY>  (1) 
10.9216

>  <PUBCHEM_FEATURE_SELFOVERLAP>  (1) 
20.297

>  <PUBCHEM_SHAPE_FINGERPRINT>  (1) 
15310529 11 16370722582809260832
16714656 1 18336547127159974440
18185500 45 18263925595426393410
20653085 51 8213603154023666862
20871998 184 18343024418873638855
21040471 1 18410858728830551553
23552423 10 17973729374009501588

>  <PUBCHEM_SHAPE_MULTIPOLES>  (1) 
167.61
3.91
1.8
0.65
2.86
0.33
-0.01
0.36
-0.27
-0.67
0.24
-0.06
0.1
-0.05

>  <PUBCHEM_SHAPE_SELFOVERLAP>  (1) 
314.304

>  <PUBCHEM_SHAPE_VOLUME>  (1) 
104.9

>  <PUBCHEM_COORDINATE_TYPE>  (1) 
2
5
10

$$$$
