2482
     RDKit          3D

 14 14  0  0  0  0  0  0  0  0999 V2000
    1.2295    0.1188   -0.0191 O   0  0  0  0  0  0  0  0  0  0  0  0
    0.4465    2.2571   -0.3561 O   0  0  0  0  0  0  0  0  0  0  0  0
   -4.8841   -1.2569    0.1679 N   0  0  0  0  0  0  0  0  0  0  0  0
    3.5101   -0.6006    0.1036 C   0  0  0  0  0  0  0  0  0  0  0  0
    4.9736   -0.1710    0.0598 C   0  0  0  0  0  0  0  0  0  0  0  0
    2.5711    0.5824   -0.0851 C   0  0  0  0  0  0  0  0  0  0  0  0
    5.9072   -1.3483    0.2917 C   0  0  0  0  0  0  0  0  0  0  0  0
   -1.0896    0.4545   -0.0807 C   0  0  0  0  0  0  0  0  0  0  0  0
    0.2610    1.0644   -0.1710 C   0  0  0  0  0  0  0  0  0  0  0  0
   -2.1329    1.2136    0.4087 C   0  0  0  0  0  0  0  0  0  0  0  0
   -1.2604   -0.8522   -0.4902 C   0  0  0  0  0  0  0  0  0  0  0  0
   -3.6004   -0.6781    0.0848 C   0  0  0  0  0  0  0  0  0  0  0  0
   -3.4021    0.6410    0.4924 C   0  0  0  0  0  0  0  0  0  0  0  0
   -2.5296   -1.4247   -0.4065 C   0  0  0  0  0  0  0  0  0  0  0  0
  1  6  1  0
  1  9  1  0
  2  9  2  0
  3 12  1  0
  4  5  1  0
  4  6  1  0
  5  7  1  0
  8  9  1  0
  8 10  2  0
  8 11  1  0
 10 13  1  0
 11 14  2  0
 12 13  2  0
 12 14  1  0
M  END
>  <PUBCHEM_COMPOUND_CID>  (1) 
2482

>  <PUBCHEM_CONFORMER_RMSD>  (1) 
0.6

>  <PUBCHEM_CONFORMER_DIVERSEORDER>  (1) 
1
44
15
20
41
3
43
47
64
4
74
40
50
6
22
69
26
77
16
49
58
67
24
63
62
53
32
57
48
70
11
65
73
75
10
38
19
42
76
68
9
55
12
31
17
23
25
34
51
14
8
39
27
18
30
45
56
28
37
52
21
2
33
46
71
36
35
60
54
29
5
59
61
66
72
13
7

>  <PUBCHEM_MMFF94_PARTIAL_CHARGES>  (1) 
17
1 -0.43
10 -0.15
11 -0.15
12 0.1
13 -0.15
14 -0.15
2 -0.57
24 0.15
25 0.15
26 0.15
27 0.15
28 0.4
29 0.4
3 -0.9
6 0.28
8 0.09
9 0.63

>  <PUBCHEM_EFFECTIVE_ROTOR_COUNT>  (1) 
5

>  <PUBCHEM_PHARMACOPHORE_FEATURES>  (1) 
5
1 2 acceptor
1 3 cation
1 3 donor
1 7 hydrophobe
6 8 10 11 12 13 14 rings

>  <PUBCHEM_HEAVY_ATOM_COUNT>  (1) 
14

>  <PUBCHEM_ATOM_DEF_STEREO_COUNT>  (1) 
0

>  <PUBCHEM_ATOM_UDEF_STEREO_COUNT>  (1) 
0

>  <PUBCHEM_BOND_DEF_STEREO_COUNT>  (1) 
0

>  <PUBCHEM_BOND_UDEF_STEREO_COUNT>  (1) 
0

>  <PUBCHEM_ISOTOPIC_ATOM_COUNT>  (1) 
0

>  <PUBCHEM_COMPONENT_COUNT>  (1) 
1

>  <PUBCHEM_CACTVS_TAUTO_COUNT>  (1) 
2

>  <PUBCHEM_CONFORMER_ID>  (1) 
000009B200000001

>  <PUBCHEM_MMFF94_ENERGY>  (1) 
37.6573

>  <PUBCHEM_FEATURE_SELFOVERLAP>  (1) 
25.371

>  <PUBCHEM_SHAPE_FINGERPRINT>  (1) 
100836 57 10159698014681569634
10465860 250 17560801026409840824
10968037 39 18334860532706076262
11046707 91 18409446968875007888
12032990 46 18409167722796458732
12251169 10 18060418027818494148
13167823 11 18408884002153362562
13288520 33 18409449176182216983
13551218 46 18271246019554461838
13690532 89 18409730694488324239
13862211 1 18342737464157124439
14252887 29 17989215824073662222
17804303 29 18273497883407034329
17834072 33 18410858797987871828
1813 80 17968106291694363110
18186145 218 14851610998530919788
200 152 17603303731034923240
20281475 54 18337672035071718772
20645477 56 8430314645052814722
20767249 213 10735876175016196106
20828058 44 18273214175553485026
21267235 1 18410019844213228018
22485316 2 18408319965303949520
2297311 6 18130235869948326148
23402539 116 17846774109975305965
23463225 33 18411140233692529510
23559900 14 18270389607016860713
351380 180 7853570202186987630
351380 3 18260264127807735554
42 15 18342740715072314210
4214541 1 18340769252185330128
5104073 3 18271814574349904193
559249 180 18335415716841888978
7364860 26 18126568057260076032
83771 10 18407758140568773188

>  <PUBCHEM_SHAPE_MULTIPOLES>  (1) 
271.39
10.92
1.64
0.68
12.87
0.32
0
-5.75
1.62
-0.5
-0.11
-0.08
0
-0.42

>  <PUBCHEM_SHAPE_SELFOVERLAP>  (1) 
550.571

>  <PUBCHEM_SHAPE_VOLUME>  (1) 
159

>  <PUBCHEM_COORDINATE_TYPE>  (1) 
2
5
10

$$$$
