24839
     RDKit          3D

  9  9  0  0  1  0  0  0  0  0999 V2000
   -0.9788    0.6625   -0.0042 S   0  0  0  0  0  0  0  0  0  0  0  0
   -1.6344    0.6168   -1.2964 O   0  0  0  0  0  0  0  0  0  0  0  0
   -1.5581    1.3816    1.1130 O   0  0  0  0  0  0  0  0  0  0  0  0
   -0.5982   -1.0047    0.5357 C   0  0  0  0  0  0  0  0  0  0  0  0
    0.6817    1.2606   -0.2566 C   0  0  0  0  0  0  0  0  0  0  0  0
    1.5222    0.0526   -0.0067 C   0  0  0  0  0  0  0  0  0  0  0  0
    0.8875   -1.0623    0.3812 C   0  0  0  0  0  0  0  0  0  0  0  0
   -1.3203   -2.0678   -0.2722 C   0  0  0  0  0  0  0  0  0  0  0  0
    2.9985    0.1606   -0.1938 C   0  0  0  0  0  0  0  0  0  0  0  0
  1  2  2  0
  1  3  2  0
  1  4  1  0
  1  5  1  0
  4  7  1  0
  4  8  1  0
  5  6  1  0
  6  7  2  0
  6  9  1  0
M  END
>  <PUBCHEM_COMPOUND_CID>  (1) 
24839

>  <PUBCHEM_CONFORMER_RMSD>  (1) 
0.4

>  <PUBCHEM_CONFORMER_DIVERSEORDER>  (1) 
1
2

>  <PUBCHEM_MMFF94_PARTIAL_CHARGES>  (1) 
9
1 1.09
13 0.15
2 -0.65
3 -0.65
4 0.24
5 0.24
6 -0.28
7 -0.29
9 0.14

>  <PUBCHEM_EFFECTIVE_ROTOR_COUNT>  (1) 
0.4

>  <PUBCHEM_PHARMACOPHORE_FEATURES>  (1) 
3
1 2 acceptor
1 3 acceptor
5 1 4 5 6 7 rings

>  <PUBCHEM_HEAVY_ATOM_COUNT>  (1) 
9

>  <PUBCHEM_ATOM_DEF_STEREO_COUNT>  (1) 
0

>  <PUBCHEM_ATOM_UDEF_STEREO_COUNT>  (1) 
1

>  <PUBCHEM_BOND_DEF_STEREO_COUNT>  (1) 
0

>  <PUBCHEM_BOND_UDEF_STEREO_COUNT>  (1) 
0

>  <PUBCHEM_ISOTOPIC_ATOM_COUNT>  (1) 
0

>  <PUBCHEM_COMPONENT_COUNT>  (1) 
1

>  <PUBCHEM_CACTVS_TAUTO_COUNT>  (1) 
1

>  <PUBCHEM_CONFORMER_ID>  (1) 
0000610700000001

>  <PUBCHEM_MMFF94_ENERGY>  (1) 
3.3382

>  <PUBCHEM_FEATURE_SELFOVERLAP>  (1) 
15.24

>  <PUBCHEM_SHAPE_FINGERPRINT>  (1) 
12423570 1 9335861942037627732
13024252 1 15719395052999394032
137420 1 13991912580267365963
16945 1 18410846681230833042
18185500 45 18334573576918637618
21040471 1 18337955571696041360
23235685 24 18339644442825582360
23552423 10 18186523228638339590
241688 4 15093370085915974856
29004967 10 16733562511060700824
369184 2 16950000339969703960
5084963 1 18187364397624253260

>  <PUBCHEM_SHAPE_MULTIPOLES>  (1) 
177.33
2.86
1.78
0.92
2.1
0.39
0.04
0.06
0.3
-0.95
-0.06
-0.39
-0.21
-0.2

>  <PUBCHEM_SHAPE_SELFOVERLAP>  (1) 
341.573

>  <PUBCHEM_SHAPE_VOLUME>  (1) 
110.4

>  <PUBCHEM_COORDINATE_TYPE>  (1) 
2
5
10

$$$$
