2484
     RDKit          3D

 24 26  0  0  1  0  0  0  0  0999 V2000
   -0.4864    0.9275   -0.6259 N   0  0  0  0  0  0  0  0  0  0  0  0
    5.6086   -0.6959    0.6535 C   0  0  0  0  0  0  0  0  0  0  0  0
    4.3181   -0.2201    0.0777 C   0  0  0  0  0  0  0  0  0  0  0  0
    6.0535   -2.0447    0.0076 C   0  0  0  0  0  0  0  0  0  0  0  0
    5.4909   -0.9276    2.1921 C   0  0  0  0  0  0  0  0  0  0  0  0
    6.8236    0.2734    0.4709 C   0  0  0  0  0  0  0  0  0  0  0  0
    0.6129    1.1454   -1.5754 C   0  0  0  0  0  0  0  0  0  0  0  0
    1.9141    0.6659   -0.9943 C   0  0  0  0  0  0  0  0  0  0  0  0
    3.1728   -1.0088    0.1871 C   0  0  0  0  0  0  0  0  0  0  0  0
    4.2560    1.0135   -0.5702 C   0  0  0  0  0  0  0  0  0  0  0  0
   -1.7545    1.3133   -1.2005 C   0  0  0  0  0  0  0  0  0  0  0  0
    1.9653   -0.5638   -0.3513 C   0  0  0  0  0  0  0  0  0  0  0  0
    3.0487    1.4586   -1.1086 C   0  0  0  0  0  0  0  0  0  0  0  0
   -2.8758    1.0315   -0.2487 C   0  0  0  0  0  0  0  0  0  0  0  0
   -3.5543   -0.1982   -0.2405 C   0  0  0  0  0  0  0  0  0  0  0  0
   -0.2225    1.6650    0.6166 C   0  0  0  0  0  0  0  0  0  0  0  0
   -4.6058   -0.4022    0.6845 C   0  0  0  0  0  0  0  0  0  0  0  0
   -3.2292    2.0456    0.6421 C   0  0  0  0  0  0  0  0  0  0  0  0
   -3.2122   -1.2299   -1.1299 C   0  0  0  0  0  0  0  0  0  0  0  0
   -4.9478    0.6293    1.5741 C   0  0  0  0  0  0  0  0  0  0  0  0
   -4.2630    1.8448    1.5520 C   0  0  0  0  0  0  0  0  0  0  0  0
   -5.2843   -1.6318    0.6929 C   0  0  0  0  0  0  0  0  0  0  0  0
   -3.8972   -2.4451   -1.1077 C   0  0  0  0  0  0  0  0  0  0  0  0
   -4.9314   -2.6456   -0.1981 C   0  0  0  0  0  0  0  0  0  0  0  0
  1  7  1  0
  1 11  1  0
  1 16  1  0
  2  3  1  0
  2  4  1  0
  2  5  1  0
  2  6  1  0
  3  9  2  0
  3 10  1  0
  7  8  1  0
  8 12  2  0
  8 13  1  0
  9 12  1  0
 10 13  2  0
 11 14  1  0
 14 15  1  0
 14 18  2  0
 15 17  2  0
 15 19  1  0
 17 20  1  0
 17 22  1  0
 18 21  1  0
 19 23  2  0
 20 21  2  0
 22 24  2  0
 23 24  1  0
M  END
>  <PUBCHEM_COMPOUND_CID>  (1) 
2484

>  <PUBCHEM_CONFORMER_RMSD>  (1) 
0.8

>  <PUBCHEM_CONFORMER_DIVERSEORDER>  (1) 
9
30
8
11
22
2
18
21
1
29
13
16
27
5
23
14
17
19
20
31
24
6
12
26
7
3
4
25
28
10
15

>  <PUBCHEM_MMFF94_PARTIAL_CHARGES>  (1) 
30
1 -0.81
10 -0.15
11 0.41
12 -0.15
13 -0.15
14 -0.14
16 0.27
18 -0.15
19 -0.15
2 0.14
20 -0.15
21 -0.15
22 -0.15
23 -0.15
24 -0.15
3 -0.14
38 0.15
39 0.15
40 0.15
41 0.15
45 0.15
46 0.15
47 0.15
48 0.15
49 0.15
50 0.15
51 0.15
7 0.41
8 -0.14
9 -0.15

>  <PUBCHEM_EFFECTIVE_ROTOR_COUNT>  (1) 
5

>  <PUBCHEM_PHARMACOPHORE_FEATURES>  (1) 
5
1 1 cation
4 2 4 5 6 hydrophobe
6 14 15 17 18 20 21 rings
6 15 17 19 22 23 24 rings
6 3 8 9 10 12 13 rings

>  <PUBCHEM_HEAVY_ATOM_COUNT>  (1) 
24

>  <PUBCHEM_ATOM_DEF_STEREO_COUNT>  (1) 
0

>  <PUBCHEM_ATOM_UDEF_STEREO_COUNT>  (1) 
0

>  <PUBCHEM_BOND_DEF_STEREO_COUNT>  (1) 
0

>  <PUBCHEM_BOND_UDEF_STEREO_COUNT>  (1) 
0

>  <PUBCHEM_ISOTOPIC_ATOM_COUNT>  (1) 
0

>  <PUBCHEM_COMPONENT_COUNT>  (1) 
1

>  <PUBCHEM_CACTVS_TAUTO_COUNT>  (1) 
1

>  <PUBCHEM_CONFORMER_ID>  (1) 
000009B400000009

>  <PUBCHEM_MMFF94_ENERGY>  (1) 
91.2484

>  <PUBCHEM_FEATURE_SELFOVERLAP>  (1) 
25.398

>  <PUBCHEM_SHAPE_FINGERPRINT>  (1) 
10 15 16917349251013315224
10319926 262 17917722261877607868
11036077 4 18342461409518253307
11089746 13 9079112255222478670
11315181 36 18411981377658290605
12236239 1 18334581251903934877
12422481 6 18271526390745540350
12523318 42 18060420227100297107
12596602 18 18272650139168621216
12616971 3 18187373120497376164
12633257 1 17345494728842677545
12839892 36 18342738507232732470
13103583 49 18341337716576221985
13167823 11 18408045112750194972
13383661 66 16231419120243016867
13583140 156 17703497822910990381
14251751 18 18343018904246089024
14341114 176 18201441316573080820
14341114 328 18343310270559161140
14844126 61 18273214231720914955
14849402 71 18268711787630248976
14950920 106 18201716262545764040
15081414 286 13758361081196081304
15163728 17 8358272470290734833
15183329 4 17458062673185996994
15188451 53 18341608248397976487
15250474 111 18410856598353044031
15326921 28 17980198587418080329
15348495 7 17775279469974620826
15788980 27 17603304842898878540
16992828 155 10663286404972958595
17349148 13 17894634751219730248
17780758 139 18343301466229385353
17857418 61 18187080663362869618
17870717 6 13695587759000692305
17913733 40 15913332373015999158
1813 80 17822025193717801733
18927931 339 17095530556539767965
19319366 153 16824471597419400975
19377110 9 18339081600647562332
19841028 212 17969784275478084107
20028762 73 18335136501567251962
20554085 129 17630888197665518113
21033648 29 15841286869543052233
21315759 148 17846504725147073238
22061861 79 15285357310523015298
23402539 116 17240763956288628172
23522609 53 17972068935960054580
23559900 14 18269264833214531561
2748736 6 11815600983640109154
312425 54 18272367525799015962
314194 84 17603586309939567848
339767 52 18411415129380859303
351380 3 18113057121228589738
3663271 9 18343021099480948400
392239 28 17988646328030646563
397830 11 17988632039291709240
4015057 19 16878516729604057164
4258327 124 14476664356726681569
439807 62 17969504995372073123
4409770 3 18190738631845302789
46194498 28 13263266392370989622
484985 159 18261382352819004159
4938544 92 18271244928690654425
5104073 3 18201439207195870144
5364581 5 17560226054632312809
559249 180 18333449825286616861
5924683 9 18343301487836051775
59755656 520 12967129432298909213
6431902 208 17530964674525573698
7495541 125 18272930561672947000
9953998 17 18272649034792365760

>  <PUBCHEM_SHAPE_MULTIPOLES>  (1) 
488.93
16.82
2.44
1.53
14.5
0.83
-0.34
7.45
-6.31
-2.76
0.14
-0.04
-0.21
-2.15

>  <PUBCHEM_SHAPE_SELFOVERLAP>  (1) 
1053.647

>  <PUBCHEM_SHAPE_VOLUME>  (1) 
270.5

>  <PUBCHEM_COORDINATE_TYPE>  (1) 
2
5
10

$$$$
