24859
     RDKit          3D

 14 15  0  0  0  0  0  0  0  0999 V2000
   -3.9935    1.5794   -0.0006 Cl  0  0  0  0  0  0  0  0  0  0  0  0
   -3.9383   -1.6436   -0.0002 Cl  0  0  0  0  0  0  0  0  0  0  0  0
    4.0029   -1.0868    0.0007 O   0  0  0  0  0  0  0  0  0  0  0  0
    3.9727    1.1082   -0.0006 O   0  0  0  0  0  0  0  0  0  0  0  0
    1.1868    1.1102    0.0002 N   0  0  0  0  0  0  0  0  0  0  0  0
    1.2326   -1.1119   -0.0004 N   0  0  0  0  0  0  0  0  0  0  0  0
    3.3570    0.0019    0.0000 N   0  0  0  0  0  0  0  0  0  0  0  0
   -0.1268    0.7171    0.0002 C   0  0  0  0  0  0  0  0  0  0  0  0
   -0.0719   -0.6739   -0.0002 C   0  0  0  0  0  0  0  0  0  0  0  0
   -1.3221    1.4370    0.0006 C   0  0  0  0  0  0  0  0  0  0  0  0
    1.9599   -0.0173   -0.0005 C   0  0  0  0  0  0  0  0  0  0  0  0
   -1.2708   -1.4067   -0.0001 C   0  0  0  0  0  0  0  0  0  0  0  0
   -2.5057    0.6917    0.0004 C   0  0  0  0  0  0  0  0  0  0  0  0
   -2.4829   -0.7051    0.0003 C   0  0  0  0  0  0  0  0  0  0  0  0
  1 13  1  0
  2 14  1  0
  3  7  1  0
  4  7  2  0
  5  8  1  0
  5 11  1  0
  6  9  1  0
  6 11  2  0
  7 11  1  0
  8  9  2  0
  8 10  1  0
  9 12  1  0
 10 13  2  0
 12 14  2  0
 13 14  1  0
M  CHG  2   3  -1   7   1
M  END
>  <PUBCHEM_COMPOUND_CID>  (1) 
24859

>  <PUBCHEM_CONFORMER_RMSD>  (1) 
0.4

>  <PUBCHEM_CONFORMER_DIVERSEORDER>  (1) 
1
2

>  <PUBCHEM_MMFF94_PARTIAL_CHARGES>  (1) 
17
1 -0.18
10 -0.15
11 0.27
12 -0.15
13 0.18
14 0.18
15 0.27
16 0.15
17 0.15
2 -0.18
3 -0.52
4 -0.52
5 0.03
6 -0.57
7 0.96
8 -0.15
9 0.23

>  <PUBCHEM_EFFECTIVE_ROTOR_COUNT>  (1) 
1

>  <PUBCHEM_PHARMACOPHORE_FEATURES>  (1) 
6
1 3 acceptor
1 4 acceptor
1 5 donor
4 5 6 7 11 cation
5 5 6 8 9 11 rings
6 8 9 10 12 13 14 rings

>  <PUBCHEM_HEAVY_ATOM_COUNT>  (1) 
14

>  <PUBCHEM_ATOM_DEF_STEREO_COUNT>  (1) 
0

>  <PUBCHEM_ATOM_UDEF_STEREO_COUNT>  (1) 
0

>  <PUBCHEM_BOND_DEF_STEREO_COUNT>  (1) 
0

>  <PUBCHEM_BOND_UDEF_STEREO_COUNT>  (1) 
0

>  <PUBCHEM_ISOTOPIC_ATOM_COUNT>  (1) 
0

>  <PUBCHEM_COMPONENT_COUNT>  (1) 
1

>  <PUBCHEM_CACTVS_TAUTO_COUNT>  (1) 
1

>  <PUBCHEM_CONFORMER_ID>  (1) 
0000611B00000001

>  <PUBCHEM_MMFF94_ENERGY>  (1) 
26.3525

>  <PUBCHEM_FEATURE_SELFOVERLAP>  (1) 
30.635

>  <PUBCHEM_SHAPE_FINGERPRINT>  (1) 
10608611 8 18412822499447452584
11132069 177 18410851045023347760
11806522 49 18264767834334320231
12032990 46 18411422833913988599
12932764 1 17313375699954985780
13214271 11 18342453746879930973
13380535 76 18340768131172407687
14144814 61 18408884035974874818
14325111 11 18410573985399494400
14897335 6 18339077082325610013
15196674 1 18410856563998060388
15219456 202 18130796611608263823
15775835 57 18262238824530715369
16945 1 18266740178022006789
18186145 218 17894345562539836702
19422 9 18334017202549570982
200 152 18060131077212233367
20510252 161 18343867727323062849
20645477 70 17417533488726579814
20871998 184 18202003248360848991
21267235 1 18409739477311829363
23402539 116 18341604910717679711
23402655 69 18198047098704121933
23463225 33 18335981982884472726
23557571 272 18200888347485215932
23559900 14 18343016658611176130
2748010 2 18339918320501025029
3312278 4 18412545392747523881
43471831 8 18261387819426518739
5104073 3 18410854360875004336
528886 8 18411412874238062321
53812653 166 18341890766619255897
6333449 129 18413105052808717845
69090 78 18342452608734670463
7364860 26 18124313805331242574
8809292 202 18115591603089880187
9709674 26 18411143536728770934

>  <PUBCHEM_SHAPE_MULTIPOLES>  (1) 
265.17
7.26
1.77
0.59
3.24
0.02
0
0.01
0
-1.36
0
-0.12
0
0

>  <PUBCHEM_SHAPE_SELFOVERLAP>  (1) 
562.863

>  <PUBCHEM_SHAPE_VOLUME>  (1) 
151.9

>  <PUBCHEM_COORDINATE_TYPE>  (1) 
2
5
10

$$$$
