24858
     RDKit          3D

  8  7  0  0  0  0  0  0  0  0999 V2000
   -0.5167    0.3414   -0.2512 N   0  0  0  0  0  0  0  0  0  0  0  0
   -2.7570    0.8677   -0.5244 N   0  0  0  0  0  0  0  0  0  0  0  0
   -2.2758   -1.0609    0.5909 N   0  0  0  0  0  0  0  0  0  0  0  0
    0.4770   -0.5942    0.2787 C   0  0  0  0  0  0  0  0  0  0  0  0
    1.8643   -0.0737    0.0232 C   0  0  0  0  0  0  0  0  0  0  0  0
    2.2160    1.2501    0.6390 C   0  0  0  0  0  0  0  0  0  0  0  0
   -1.7629    0.0405   -0.0576 C   0  0  0  0  0  0  0  0  0  0  0  0
    2.7551   -0.7708   -0.6986 C   0  0  0  0  0  0  0  0  0  0  0  0
  1  4  1  0
  1  7  2  3
  2  7  1  0
  3  7  1  0
  4  5  1  0
  5  6  1  0
  5  8  2  0
M  END
>  <PUBCHEM_COMPOUND_CID>  (1) 
24858

>  <PUBCHEM_CONFORMER_RMSD>  (1) 
0.4

>  <PUBCHEM_CONFORMER_DIVERSEORDER>  (1) 
1
4
3
2
9
5
8
7
6

>  <PUBCHEM_MMFF94_PARTIAL_CHARGES>  (1) 
14
1 -0.7
14 0.15
15 0.15
16 0.4
17 0.4
18 0.4
19 0.4
2 -0.85
3 -0.85
4 0.38
5 -0.28
6 0.14
7 0.55
8 -0.3

>  <PUBCHEM_EFFECTIVE_ROTOR_COUNT>  (1) 
2

>  <PUBCHEM_PHARMACOPHORE_FEATURES>  (1) 
3
1 2 donor
1 3 donor
4 1 2 3 7 cation

>  <PUBCHEM_HEAVY_ATOM_COUNT>  (1) 
8

>  <PUBCHEM_ATOM_DEF_STEREO_COUNT>  (1) 
0

>  <PUBCHEM_ATOM_UDEF_STEREO_COUNT>  (1) 
0

>  <PUBCHEM_BOND_DEF_STEREO_COUNT>  (1) 
0

>  <PUBCHEM_BOND_UDEF_STEREO_COUNT>  (1) 
0

>  <PUBCHEM_ISOTOPIC_ATOM_COUNT>  (1) 
0

>  <PUBCHEM_COMPONENT_COUNT>  (1) 
1

>  <PUBCHEM_CACTVS_TAUTO_COUNT>  (1) 
2

>  <PUBCHEM_CONFORMER_ID>  (1) 
0000611A00000001

>  <PUBCHEM_MMFF94_ENERGY>  (1) 
16.4495

>  <PUBCHEM_FEATURE_SELFOVERLAP>  (1) 
15.279

>  <PUBCHEM_SHAPE_FINGERPRINT>  (1) 
10857977 72 18041839644099667545
12897270 3 18409730642600602614
12932741 1 18410575093263576063
12932764 1 18260830392868975003
14325111 11 18410291427864100398
14390081 3 18408595955354397453
19973954 147 18412265051241681408
21040471 1 17967249797447329266
29004967 10 17988928851301312258
3248919 1 16343705438804791662
5460574 1 9367347037208672254

>  <PUBCHEM_SHAPE_MULTIPOLES>  (1) 
149.69
4.56
1.14
0.79
0.91
0.16
0
0.09
0.44
-0.35
-0.1
-0.02
-0.02
0.69

>  <PUBCHEM_SHAPE_SELFOVERLAP>  (1) 
276.238

>  <PUBCHEM_SHAPE_VOLUME>  (1) 
94

>  <PUBCHEM_COORDINATE_TYPE>  (1) 
2
5
10

$$$$
