24860
     RDKit          3D

 14 15  0  0  0  0  0  0  0  0999 V2000
   -3.8769    0.2857    0.0000 O   0  0  0  0  0  0  0  0  0  0  0  0
    4.1582   -0.5764    0.0007 O   0  0  0  0  0  0  0  0  0  0  0  0
    3.6956    1.5696   -0.0005 O   0  0  0  0  0  0  0  0  0  0  0  0
    0.9642    1.0221    0.0002 N   0  0  0  0  0  0  0  0  0  0  0  0
    1.4471   -1.1474   -0.0001 N   0  0  0  0  0  0  0  0  0  0  0  0
    3.3102    0.3637    0.0000 N   0  0  0  0  0  0  0  0  0  0  0  0
   -0.2462    0.3778    0.0001 C   0  0  0  0  0  0  0  0  0  0  0  0
    0.0819   -0.9751   -0.0002 C   0  0  0  0  0  0  0  0  0  0  0  0
   -1.5599    0.8479    0.0003 C   0  0  0  0  0  0  0  0  0  0  0  0
   -0.9490   -1.9299   -0.0002 C   0  0  0  0  0  0  0  0  0  0  0  0
   -2.5734   -0.1161    0.0000 C   0  0  0  0  0  0  0  0  0  0  0  0
    1.9444    0.0691   -0.0003 C   0  0  0  0  0  0  0  0  0  0  0  0
   -2.2757   -1.4810    0.0000 C   0  0  0  0  0  0  0  0  0  0  0  0
   -4.1203    1.6902    0.0000 C   0  0  0  0  0  0  0  0  0  0  0  0
  1 11  1  0
  1 14  1  0
  2  6  1  0
  3  6  2  0
  4  7  1  0
  4 12  1  0
  5  8  1  0
  5 12  2  0
  6 12  1  0
  7  8  2  0
  7  9  1  0
  8 10  1  0
  9 11  2  0
 10 13  2  0
 11 13  1  0
M  CHG  2   2  -1   6   1
M  END
>  <PUBCHEM_COMPOUND_CID>  (1) 
24860

>  <PUBCHEM_CONFORMER_RMSD>  (1) 
0.6

>  <PUBCHEM_CONFORMER_DIVERSEORDER>  (1) 
1
2

>  <PUBCHEM_MMFF94_PARTIAL_CHARGES>  (1) 
18
1 -0.36
10 -0.15
11 0.08
12 0.27
13 -0.15
14 0.28
15 0.15
16 0.27
17 0.15
18 0.15
2 -0.52
3 -0.52
4 0.03
5 -0.57
6 0.96
7 -0.15
8 0.23
9 -0.15

>  <PUBCHEM_EFFECTIVE_ROTOR_COUNT>  (1) 
2

>  <PUBCHEM_PHARMACOPHORE_FEATURES>  (1) 
7
1 1 acceptor
1 2 acceptor
1 3 acceptor
1 4 donor
4 4 5 6 12 cation
5 4 5 7 8 12 rings
6 7 8 9 10 11 13 rings

>  <PUBCHEM_HEAVY_ATOM_COUNT>  (1) 
14

>  <PUBCHEM_ATOM_DEF_STEREO_COUNT>  (1) 
0

>  <PUBCHEM_ATOM_UDEF_STEREO_COUNT>  (1) 
0

>  <PUBCHEM_BOND_DEF_STEREO_COUNT>  (1) 
0

>  <PUBCHEM_BOND_UDEF_STEREO_COUNT>  (1) 
0

>  <PUBCHEM_ISOTOPIC_ATOM_COUNT>  (1) 
0

>  <PUBCHEM_COMPONENT_COUNT>  (1) 
1

>  <PUBCHEM_CACTVS_TAUTO_COUNT>  (1) 
2

>  <PUBCHEM_CONFORMER_ID>  (1) 
0000611C00000001

>  <PUBCHEM_MMFF94_ENERGY>  (1) 
37.6334

>  <PUBCHEM_FEATURE_SELFOVERLAP>  (1) 
35.709

>  <PUBCHEM_SHAPE_FINGERPRINT>  (1) 
10608611 8 18341047522863275864
11132069 177 18411694409249434536
11543360 7 15841538708939530269
122479 349 18334861631795665385
12346645 44 18339080385303329161
12932764 1 17240749701523865246
13380535 76 18412826867492509135
14325111 11 18410855499020276768
14897335 6 18411979144090543959
14943859 89 18410573989657506107
15196674 1 18410856581119913798
15219456 202 18272098179403858030
15775835 57 18335139774009636083
16945 1 18410856594147441863
18186145 218 18340771446523176396
193761 8 17545882624915839949
20510252 161 18270967959018092835
20645477 56 18410011065315905704
20645477 70 17560527196353786502
20871998 184 18128542754642692631
23402539 116 18201710734880305140
23402655 69 18198611161059178717
23463225 33 18335417954978760106
23559900 14 18272651251776068928
25 1 18339920403523012957
2748010 2 18051971712516559693
366044 4 18410573964072493971
5104073 3 18409166640617513018
528886 8 18411414003714279859
53812653 166 18413666915702896809
6333449 129 18340767134687214935
6430166 295 18409726236001171048
69090 78 18342452647231373935
7364860 26 18268147544216067806

>  <PUBCHEM_SHAPE_MULTIPOLES>  (1) 
255.56
6.93
1.75
0.58
1.94
0.23
0
-2.97
0
-0.69
0
-0.07
0.01
0

>  <PUBCHEM_SHAPE_SELFOVERLAP>  (1) 
557.134

>  <PUBCHEM_SHAPE_VOLUME>  (1) 
140

>  <PUBCHEM_COORDINATE_TYPE>  (1) 
2
5
10

$$$$
