24879
     RDKit          3D

 26 29  0  0  1  0  0  0  0  0999 V2000
   -2.0271   -0.8598   -0.9146 N   0  0  0  0  0  0  0  0  0  0  0  0
   -5.4519   -0.0454    0.5784 N   0  0  0  0  0  0  0  0  0  0  0  0
    0.2436   -0.7558   -0.0236 C   0  0  0  0  0  0  0  0  0  0  0  0
    1.2231   -0.1442    1.0323 C   0  0  0  0  0  0  0  0  0  0  0  0
    0.8370   -0.5635   -1.4667 C   0  0  0  0  0  0  0  0  0  0  0  0
    2.2484    0.0851   -1.3867 C   0  0  0  0  0  0  0  0  0  0  0  0
   -1.1713   -0.1869    0.0828 C   0  0  0  0  0  0  0  0  0  0  0  0
    1.4933    1.2990    0.6186 C   0  0  0  0  0  0  0  0  0  0  0  0
    2.5284   -0.9168    0.8467 C   0  0  0  0  0  0  0  0  0  0  0  0
    2.0428    1.4225   -0.6840 C   0  0  0  0  0  0  0  0  0  0  0  0
    3.0742   -0.7990   -0.4590 C   0  0  0  0  0  0  0  0  0  0  0  0
   -3.4684   -0.3273   -0.8556 C   0  0  0  0  0  0  0  0  0  0  0  0
   -2.0750   -2.3768   -0.6682 C   0  0  0  0  0  0  0  0  0  0  0  0
   -1.4988   -0.6308   -2.3404 C   0  0  0  0  0  0  0  0  0  0  0  0
   -4.0835   -0.6124    0.5005 C   0  0  0  0  0  0  0  0  0  0  0  0
    1.2544    2.4237    1.3952 C   0  0  0  0  0  0  0  0  0  0  0  0
    3.1670   -1.6770    1.8155 C   0  0  0  0  0  0  0  0  0  0  0  0
    2.3497    2.6703   -1.2067 C   0  0  0  0  0  0  0  0  0  0  0  0
    4.2578   -1.4418   -0.7906 C   0  0  0  0  0  0  0  0  0  0  0  0
    1.5627    3.6781    0.8651 C   0  0  0  0  0  0  0  0  0  0  0  0
    4.3574   -2.3238    1.4770 C   0  0  0  0  0  0  0  0  0  0  0  0
    2.1052    3.8002   -0.4236 C   0  0  0  0  0  0  0  0  0  0  0  0
    4.8974   -2.2075    0.1865 C   0  0  0  0  0  0  0  0  0  0  0  0
   -5.4343    1.4637    0.2968 C   0  0  0  0  0  0  0  0  0  0  0  0
   -6.3777   -0.7111   -0.4493 C   0  0  0  0  0  0  0  0  0  0  0  0
   -6.0544   -0.2626    1.9737 C   0  0  0  0  0  0  0  0  0  0  0  0
  1  7  1  0
  1 12  1  0
  1 13  1  0
  1 14  1  0
  2 15  1  0
  2 24  1  0
  2 25  1  0
  2 26  1  0
  3  4  1  0
  3  5  1  0
  3  7  1  0
  4  8  1  0
  4  9  1  0
  5  6  1  0
  6 10  1  0
  6 11  1  0
  8 10  2  0
  8 16  1  0
  9 11  2  0
  9 17  1  0
 10 18  1  0
 11 19  1  0
 12 15  1  0
 16 20  2  0
 17 21  2  0
 18 22  2  0
 19 23  2  0
 20 22  1  0
 21 23  1  0
M  CHG  2   1   1   2   1
M  END
>  <PUBCHEM_COMPOUND_CID>  (1) 
24879

>  <PUBCHEM_CONFORMER_RMSD>  (1) 
0.8

>  <PUBCHEM_CONFORMER_DIVERSEORDER>  (1) 
2
4
1
3
5

>  <PUBCHEM_MMFF94_PARTIAL_CHARGES>  (1) 
32
1 -1.01
10 -0.14
11 -0.14
12 0.5
13 0.5
14 0.5
15 0.5
16 -0.15
17 -0.15
18 -0.15
19 -0.15
2 -1.01
20 -0.15
21 -0.15
22 -0.15
23 -0.15
24 0.5
25 0.5
26 0.5
4 0.29
44 0.15
45 0.15
46 0.15
47 0.15
48 0.15
49 0.15
50 0.15
51 0.15
6 0.29
7 0.5
8 -0.14
9 -0.14

>  <PUBCHEM_EFFECTIVE_ROTOR_COUNT>  (1) 
5.4

>  <PUBCHEM_PHARMACOPHORE_FEATURES>  (1) 
5
1 1 cation
1 2 cation
6 8 10 16 18 20 22 rings
6 9 11 17 19 21 23 rings
8 3 4 5 6 8 9 10 11 rings

>  <PUBCHEM_HEAVY_ATOM_COUNT>  (1) 
26

>  <PUBCHEM_ATOM_DEF_STEREO_COUNT>  (1) 
0

>  <PUBCHEM_ATOM_UDEF_STEREO_COUNT>  (1) 
1

>  <PUBCHEM_BOND_DEF_STEREO_COUNT>  (1) 
0

>  <PUBCHEM_BOND_UDEF_STEREO_COUNT>  (1) 
0

>  <PUBCHEM_ISOTOPIC_ATOM_COUNT>  (1) 
0

>  <PUBCHEM_COMPONENT_COUNT>  (1) 
1

>  <PUBCHEM_CACTVS_TAUTO_COUNT>  (1) 
1

>  <PUBCHEM_CONFORMER_ID>  (1) 
0000612F00000002

>  <PUBCHEM_MMFF94_ENERGY>  (1) 
146.5144

>  <PUBCHEM_FEATURE_SELFOVERLAP>  (1) 
25.394

>  <PUBCHEM_SHAPE_FINGERPRINT>  (1) 
10165383 225 17750246970286347308
11265709 11 18339078190754291410
11405975 8 18337954592755143523
11545043 162 17748828497586842273
11578080 2 17606988322947855672
12166972 35 18060136531509346235
12403259 118 18060138718164677105
12403260 363 18272930527682025221
12422481 6 17630889309302066941
12553582 1 18337939100755489182
12616971 3 18202848764755797867
12633257 1 18342737421049105135
12778500 126 17896329030187928469
12788726 201 18192150400458520914
13004483 165 18267293241256534258
13134695 92 18269255963774424892
13533116 47 18262234538670623971
13583140 156 18192164891440703859
13590594 115 18337676312701598081
13673619 4 17603867758651024871
13782708 43 17749112171334296611
13878862 14 18264466512936461573
14022347 108 18271257014807733974
14466204 15 18196371425354726161
14739800 52 17630314466526733721
14950920 106 18264229005681819985
14955137 171 18337391539300702426
15042514 8 17979353062895918928
15142383 8 18115583734419091237
15163728 17 17611198434754973452
15238133 3 17846788394740925411
15420108 30 17629742725312937260
15842332 3 17914317220406031335
15849732 13 18059853935335427798
17349148 13 17632579340478927427
17868525 174 18335976480910313705
17980427 23 17345449626832147140
17980427 26 17982154932278379084
1813 80 18341331089910987902
19078846 21 18413106138971226529
20721686 146 15626214741555224216
20739085 24 18272365374141342834
21033648 29 17201620182898833275
21304253 335 16559030467568228015
21344244 78 18342725321693534176
21421861 104 18410005568269561120
21503847 285 18408605885492820173
21927370 108 18116143369612672434
22849341 161 18342181029236015858
23419403 2 17912043284922005368
23559900 14 17703805729195653527
249057 25 17846497054873188631
25147074 1 17986659570865309207
3052486 1 18127702521384155664
312423 11 18199457947688645055
3178227 256 18336840718788352731
3411729 13 18200024183540000016
345986 75 17898838068314382474
376196 1 16839663463502544928
44802255 64 11669782798413474306
5104073 3 18270124634143239059
513202 73 17836939905867224658
58260988 587 17605575433527118284
5895379 119 17273999985251847481
5912855 24 18051975020206789679
6086070 43 18191284036888026597
621550 5 17603863343376782518
6786 2 17538856084780576084
6823239 73 16153707635097373957
7495541 125 18040719160152074139
81228 2 17981593885063319872
8509985 295 18343584023247762671
9841814 1 18335128796242065426
9981440 41 17619898900224438440

>  <PUBCHEM_SHAPE_MULTIPOLES>  (1) 
525.11
11.73
3.44
1.76
21.32
3.82
0.03
-5.1
-3.43
-4.56
-0.49
0.04
-0.27
-1.24

>  <PUBCHEM_SHAPE_SELFOVERLAP>  (1) 
1128.282

>  <PUBCHEM_SHAPE_VOLUME>  (1) 
288

>  <PUBCHEM_COORDINATE_TYPE>  (1) 
2
5
10

$$$$
