24882
     RDKit          3D

 25 28  0  0  1  0  0  0  0  0999 V2000
    0.3552   -0.4152   -1.7406 O   0  0  0  0  0  0  0  0  0  0  0  0
   -5.5715   -0.6196    0.1609 O   0  0  0  0  0  0  0  0  0  0  0  0
    4.2290   -2.1132   -0.9510 N   0  0  0  0  0  0  0  0  0  0  0  0
    0.9032   -1.0688    0.5457 C   0  0  0  0  0  0  0  0  0  0  0  0
    0.0952   -0.0766   -0.3672 C   0  0  0  0  0  0  0  0  0  0  0  0
    0.2783   -2.4734    0.5109 C   0  0  0  0  0  0  0  0  0  0  0  0
   -1.4243   -0.2384   -0.1961 C   0  0  0  0  0  0  0  0  0  0  0  0
   -1.1303   -2.4222    1.0928 C   0  0  0  0  0  0  0  0  0  0  0  0
   -1.9830   -1.3477    0.4705 C   0  0  0  0  0  0  0  0  0  0  0  0
    0.5669    1.3606   -0.0853 C   0  0  0  0  0  0  0  0  0  0  0  0
    2.3996   -1.1072    0.2473 C   0  0  0  0  0  0  0  0  0  0  0  0
   -2.2975    0.7026   -0.7799 C   0  0  0  0  0  0  0  0  0  0  0  0
   -3.3789   -1.4534    0.5963 C   0  0  0  0  0  0  0  0  0  0  0  0
    0.3472    1.9210    1.1665 C   0  0  0  0  0  0  0  0  0  0  0  0
    1.2075    2.0806   -1.0856 C   0  0  0  0  0  0  0  0  0  0  0  0
    3.2642   -0.2213    0.8667 C   0  0  0  0  0  0  0  0  0  0  0  0
   -3.6815    0.5777   -0.6592 C   0  0  0  0  0  0  0  0  0  0  0  0
   -4.2222   -0.4967    0.0358 C   0  0  0  0  0  0  0  0  0  0  0  0
    2.9154   -2.0255   -0.6434 C   0  0  0  0  0  0  0  0  0  0  0  0
    0.7749    3.2238    1.4223 C   0  0  0  0  0  0  0  0  0  0  0  0
    1.6353    3.3834   -0.8297 C   0  0  0  0  0  0  0  0  0  0  0  0
    4.6227   -0.2806    0.5759 C   0  0  0  0  0  0  0  0  0  0  0  0
    1.4190    3.9549    0.4243 C   0  0  0  0  0  0  0  0  0  0  0  0
    5.0506   -1.2362   -0.3316 C   0  0  0  0  0  0  0  0  0  0  0  0
   -6.3750    0.3912   -0.4464 C   0  0  0  0  0  0  0  0  0  0  0  0
  1  5  1  0
  2 18  1  0
  2 25  1  0
  3 19  2  0
  3 24  1  0
  4  5  1  0
  4  6  1  0
  4 11  1  0
  5  7  1  0
  5 10  1  0
  6  8  1  0
  7  9  2  0
  7 12  1  0
  8  9  1  0
  9 13  1  0
 10 14  2  0
 10 15  1  0
 11 16  2  0
 11 19  1  0
 12 17  2  0
 13 18  2  0
 14 20  1  0
 15 21  2  0
 16 22  1  0
 17 18  1  0
 20 23  2  0
 21 23  1  0
 22 24  2  0
M  END
>  <PUBCHEM_COMPOUND_CID>  (1) 
24882

>  <PUBCHEM_CONFORMER_RMSD>  (1) 
0.8

>  <PUBCHEM_CONFORMER_DIVERSEORDER>  (1) 
1
9
4
12
8
14
6
10
11
3
13
5
2
7

>  <PUBCHEM_MMFF94_PARTIAL_CHARGES>  (1) 
37
1 -0.68
10 -0.14
11 -0.14
12 -0.15
13 -0.15
14 -0.15
15 -0.15
16 -0.15
17 -0.15
18 0.08
19 0.16
2 -0.36
20 -0.15
21 -0.15
22 -0.15
23 -0.15
24 0.16
25 0.28
3 -0.62
31 0.15
32 0.15
33 0.4
34 0.15
35 0.15
36 0.15
37 0.15
38 0.15
39 0.15
4 0.14
40 0.15
41 0.15
42 0.15
43 0.15
5 0.57
7 -0.14
8 0.14
9 -0.14

>  <PUBCHEM_EFFECTIVE_ROTOR_COUNT>  (1) 
3.8

>  <PUBCHEM_PHARMACOPHORE_FEATURES>  (1) 
8
1 1 acceptor
1 1 donor
1 2 acceptor
1 3 acceptor
6 10 14 15 20 21 23 rings
6 3 11 16 19 22 24 rings
6 4 5 6 7 8 9 rings
6 7 9 12 13 17 18 rings

>  <PUBCHEM_HEAVY_ATOM_COUNT>  (1) 
25

>  <PUBCHEM_ATOM_DEF_STEREO_COUNT>  (1) 
0

>  <PUBCHEM_ATOM_UDEF_STEREO_COUNT>  (1) 
2

>  <PUBCHEM_BOND_DEF_STEREO_COUNT>  (1) 
0

>  <PUBCHEM_BOND_UDEF_STEREO_COUNT>  (1) 
0

>  <PUBCHEM_ISOTOPIC_ATOM_COUNT>  (1) 
0

>  <PUBCHEM_COMPONENT_COUNT>  (1) 
1

>  <PUBCHEM_CACTVS_TAUTO_COUNT>  (1) 
1

>  <PUBCHEM_CONFORMER_ID>  (1) 
0000613200000001

>  <PUBCHEM_MMFF94_ENERGY>  (1) 
90.8585

>  <PUBCHEM_FEATURE_SELFOVERLAP>  (1) 
40.618

>  <PUBCHEM_SHAPE_FINGERPRINT>  (1) 
1100329 8 18337107968290007755
11112241 14 16984888007603197848
11421498 54 13623802792043062797
11578080 2 17606985028644746157
11582403 64 15765259179382881360
11646440 116 18411427180716168427
12011746 2 18408603643166684647
12035758 1 18335407006822143784
12166972 35 17822016363592374158
12236239 1 15913323585407623443
12403259 415 17894900846609637837
12422481 6 17975666667060729144
12516196 113 18413387618369836334
12788726 201 18265614278326102666
13004483 165 18268422439244728834
13132413 78 18267302041058967693
13134695 92 18060132158837350497
13140716 1 18189054373040697451
13149001 5 18261674873681427346
13590594 115 18339653222324792001
13899415 154 18411146835373787380
14022347 108 18335420132611744538
140371 6 18341344322314778354
14170010 4 18413384350310908017
14347332 77 18050569535129887198
14466204 15 18262792952864163873
14787075 74 18335137604982852686
14849402 71 18338244863899021889
14866123 147 17331122693748417154
14955137 171 18272936020111929087
15131766 46 15911038874145565818
15230672 131 17616812572136121840
15238133 3 18200327532764088937
15475509 8 18126584335443960751
15849732 13 17775280564953982527
15927050 60 17765717206595588668
1601671 61 18261670372687381571
16945 1 17967813799630925182
17357779 13 18270389495685028476
17804303 29 18186522128847189011
17980427 23 17632309946992117257
1813 80 18059870419430212804
18393751 57 17986648507837020682
18785283 64 18190744334770002497
20510252 161 18264486174927106474
20600515 1 18334298634972163548
20642791 13 18200318689056830088
20642791 178 17754458177536653460
20642791 239 17533811370765732996
20905425 154 17687761840444109566
21029758 11 18411420587646001955
21033648 29 17631432515354275707
21041028 32 18343021068999854713
21054139 6 10665813134427490449
21285901 2 18129667374875887742
23175994 123 18412830166027035107
23419403 2 18057860516549421632
23557571 272 18268434542926429198
23558518 356 17830160664672156522
23559900 14 18261108625662270373
283562 15 18193279581472419010
3178227 256 18334587819789924947
3298306 158 17978803625152821460
335352 9 18334012796256257303
3411729 13 18117834619769375960
350125 39 18333449846556101893
495365 180 18128532863422316809
5104073 3 18262244451618407899
5895379 119 17202228247516247177
6443956 14 18412544327479778272
70251023 43 18270097103286723319
7364860 26 18267304416275946728
7399639 24 17987788602505287550
7471813 234 18060414716615311521
81228 2 18123203307361096752
9709674 26 18191025809994743635
9971528 1 18272647943770406443
9981440 41 17478034421024769897

>  <PUBCHEM_SHAPE_MULTIPOLES>  (1) 
497.77
9.36
3.77
1.17
8.97
3.67
0.02
-3.9
1.15
-3.06
-0.62
-0.33
0.28
0.91

>  <PUBCHEM_SHAPE_SELFOVERLAP>  (1) 
1098.515

>  <PUBCHEM_SHAPE_VOLUME>  (1) 
264.6

>  <PUBCHEM_COORDINATE_TYPE>  (1) 
2
5
10

$$$$
