24884
     RDKit          3D

 15 15  0  0  1  0  0  0  0  0999 V2000
   -2.8909   -0.1793    0.4675 O   0  0  0  0  0  0  0  0  0  0  0  0
    4.0294    0.7486   -0.8604 O   0  0  0  0  0  0  0  0  0  0  0  0
    3.9778    0.0740    1.2324 O   0  0  0  0  0  0  0  0  0  0  0  0
   -2.5145    1.4523   -0.9675 O   0  0  0  0  0  0  0  0  0  0  0  0
   -2.8716    1.9847    1.1680 O   0  0  0  0  0  0  0  0  0  0  0  0
    3.4188    0.2764    0.1280 N   0  0  0  0  0  0  0  0  0  0  0  0
   -2.7496    1.2095    0.2168 N   0  0  0  0  0  0  0  0  0  0  0  0
   -2.1122   -0.9933   -0.4172 C   0  0  0  0  0  0  0  0  0  0  0  0
   -0.6652   -0.6619   -0.2750 C   0  0  0  0  0  0  0  0  0  0  0  0
    0.0396   -0.1360   -1.3576 C   0  0  0  0  0  0  0  0  0  0  0  0
   -0.0169   -0.8772    0.9412 C   0  0  0  0  0  0  0  0  0  0  0  0
   -2.4153   -2.4648   -0.1188 C   0  0  0  0  0  0  0  0  0  0  0  0
    2.0414   -0.0408   -0.0080 C   0  0  0  0  0  0  0  0  0  0  0  0
    1.3929    0.1744   -1.2242 C   0  0  0  0  0  0  0  0  0  0  0  0
    1.3364   -0.5666    1.0748 C   0  0  0  0  0  0  0  0  0  0  0  0
  1  7  1  0
  1  8  1  0
  2  6  1  0
  3  6  2  0
  4  7  1  0
  5  7  2  0
  6 13  1  0
  8  9  1  0
  8 12  1  0
  9 10  2  0
  9 11  1  0
 10 14  1  0
 11 15  2  0
 13 14  2  0
 13 15  1  0
M  CHG  4   2  -1   4  -1   6   1   7   1
M  END
>  <PUBCHEM_COMPOUND_CID>  (1) 
24884

>  <PUBCHEM_CONFORMER_RMSD>  (1) 
0.6

>  <PUBCHEM_CONFORMER_DIVERSEORDER>  (1) 
1
3
4
2
5
8
7
6

>  <PUBCHEM_MMFF94_PARTIAL_CHARGES>  (1) 
18
1 -0.27
10 -0.15
11 -0.15
13 0.13
14 -0.15
15 -0.15
17 0.15
18 0.15
2 -0.52
22 0.15
23 0.15
3 -0.52
4 -0.52
5 -0.52
6 0.91
7 1.03
8 0.42
9 -0.14

>  <PUBCHEM_EFFECTIVE_ROTOR_COUNT>  (1) 
4

>  <PUBCHEM_PHARMACOPHORE_FEATURES>  (1) 
6
1 2 acceptor
1 2 anion
1 3 acceptor
1 4 acceptor
1 5 acceptor
6 9 10 11 13 14 15 rings

>  <PUBCHEM_HEAVY_ATOM_COUNT>  (1) 
15

>  <PUBCHEM_ATOM_DEF_STEREO_COUNT>  (1) 
0

>  <PUBCHEM_ATOM_UDEF_STEREO_COUNT>  (1) 
1

>  <PUBCHEM_BOND_DEF_STEREO_COUNT>  (1) 
0

>  <PUBCHEM_BOND_UDEF_STEREO_COUNT>  (1) 
0

>  <PUBCHEM_ISOTOPIC_ATOM_COUNT>  (1) 
0

>  <PUBCHEM_COMPONENT_COUNT>  (1) 
1

>  <PUBCHEM_CACTVS_TAUTO_COUNT>  (1) 
1

>  <PUBCHEM_CONFORMER_ID>  (1) 
0000613400000001

>  <PUBCHEM_MMFF94_ENERGY>  (1) 
48.7162

>  <PUBCHEM_FEATURE_SELFOVERLAP>  (1) 
30.598

>  <PUBCHEM_SHAPE_FINGERPRINT>  (1) 
10219947 1 16443060617000583654
11132069 177 18113889451641592564
11471102 22 15864078658411386128
12138202 97 17846494816398896143
124424 183 17632572721807769058
12491281 212 18408328778270840520
12932764 1 17489585705602764974
13296909 8 18334848441977460197
13764800 53 18201728323235482561
13839132 238 18130231437056649981
14144814 61 17458059400172620110
14289901 80 18340768255816240626
15219456 202 17774732973582162886
15309172 13 16805319998453516026
15775835 57 18261114028457055929
16945 1 18339926025218803399
1741750 31 18272090444383600547
17844478 74 17345760818508367075
18534176 82 17988924483261517399
19026448 4 17988926704028699814
19026448 5 18334855052343747586
19422 9 18187078486189295722
200 152 17313662780344462083
201361 129 18334295327747164146
20645477 70 15502914399446444626
20711983 171 18411982459836763124
23236772 104 17821725057229592971
23402539 116 18271798069218074047
23493267 7 18060145314533129194
23557571 272 17988375852612899709
23559900 14 18131074788899319526
25 1 16701188460701279945
305870 269 18263927644168225483
568465 68 15140976040301155561
77492 1 17967534609687449478

>  <PUBCHEM_SHAPE_MULTIPOLES>  (1) 
269.38
6.12
1.66
1.27
4.15
0.09
0.02
-1.49
-0.8
-2.31
-0.17
0.31
-0.18
-0.65

>  <PUBCHEM_SHAPE_SELFOVERLAP>  (1) 
560.069

>  <PUBCHEM_SHAPE_VOLUME>  (1) 
154.5

>  <PUBCHEM_COORDINATE_TYPE>  (1) 
2
5
10

$$$$
