24899
     RDKit          3D

 27 29  0  0  0  0  0  0  0  0999 V2000
   -5.3072    4.0252    2.0435 Cl  0  0  0  0  0  0  0  0  0  0  0  0
   -6.3739   -1.3996   -2.0757 Cl  0  0  0  0  0  0  0  0  0  0  0  0
    0.7418   -5.9404    0.7959 Cl  0  0  0  0  0  0  0  0  0  0  0  0
    3.6060    3.8879   -0.5894 O   0  0  0  0  0  0  0  0  0  0  0  0
   -3.8292    0.7864    0.1562 N   0  0  0  0  0  0  0  0  0  0  0  0
   -0.2303    0.5793   -0.6391 N   0  0  0  0  0  0  0  0  0  0  0  0
    3.2355   -1.5399    0.3927 N   0  0  0  0  0  0  0  0  0  0  0  0
   -2.4783    1.2655   -0.1080 C   0  0  0  0  0  0  0  0  0  0  0  0
   -1.5386    0.0927   -0.3561 C   0  0  0  0  0  0  0  0  0  0  0  0
    0.9449   -0.1389   -0.2883 C   0  0  0  0  0  0  0  0  0  0  0  0
   -4.7247    1.9059    0.4540 C   0  0  0  0  0  0  0  0  0  0  0  0
   -4.3370    0.0198   -0.9832 C   0  0  0  0  0  0  0  0  0  0  0  0
    2.1680    0.5335   -0.1992 C   0  0  0  0  0  0  0  0  0  0  0  0
    0.8683   -1.5124   -0.0365 C   0  0  0  0  0  0  0  0  0  0  0  0
    3.3037   -0.2169    0.1492 C   0  0  0  0  0  0  0  0  0  0  0  0
    2.0549   -2.1827    0.3054 C   0  0  0  0  0  0  0  0  0  0  0  0
    2.2741    1.9131   -0.4469 C   0  0  0  0  0  0  0  0  0  0  0  0
   -4.2134    2.6737    1.6630 C   0  0  0  0  0  0  0  0  0  0  0  0
   -5.7560   -0.4502   -0.7030 C   0  0  0  0  0  0  0  0  0  0  0  0
   -0.3475   -2.2136   -0.1188 C   0  0  0  0  0  0  0  0  0  0  0  0
    4.5244    0.4469    0.2394 C   0  0  0  0  0  0  0  0  0  0  0  0
    1.9851   -3.5504    0.5571 C   0  0  0  0  0  0  0  0  0  0  0  0
    3.5062    2.5529   -0.3500 C   0  0  0  0  0  0  0  0  0  0  0  0
    4.6335    1.8179   -0.0062 C   0  0  0  0  0  0  0  0  0  0  0  0
   -0.3903   -3.5807    0.1376 C   0  0  0  0  0  0  0  0  0  0  0  0
    0.7787   -4.2501    0.4763 C   0  0  0  0  0  0  0  0  0  0  0  0
    4.9013    4.4751   -0.4701 C   0  0  0  0  0  0  0  0  0  0  0  0
  1 18  1  0
  2 19  1  0
  3 26  1  0
  4 23  1  0
  4 27  1  0
  5  8  1  0
  5 11  1  0
  5 12  1  0
  6  9  1  0
  6 10  1  0
  7 15  2  0
  7 16  1  0
  8  9  1  0
 10 13  2  0
 10 14  1  0
 11 18  1  0
 12 19  1  0
 13 15  1  0
 13 17  1  0
 14 16  2  0
 14 20  1  0
 15 21  1  0
 16 22  1  0
 17 23  2  0
 20 25  2  0
 21 24  2  0
 22 26  2  0
 23 24  1  0
 25 26  1  0
M  END
>  <PUBCHEM_COMPOUND_CID>  (1) 
24899

>  <PUBCHEM_CONFORMER_RMSD>  (1) 
1

>  <PUBCHEM_CONFORMER_DIVERSEORDER>  (1) 
2
6
19
3
11
18
8
21
15
17
13
1
5
4
7
22
10
20
12
14
16
9

>  <PUBCHEM_MMFF94_PARTIAL_CHARGES>  (1) 
32
1 -0.29
10 0.1
11 0.27
12 0.27
15 0.31
16 0.31
17 -0.15
18 0.29
19 0.29
2 -0.29
20 -0.15
21 -0.15
22 -0.15
23 0.08
24 -0.15
25 -0.15
26 0.18
27 0.28
3 -0.18
32 0.4
37 0.15
4 -0.36
42 0.15
43 0.15
44 0.15
45 0.15
46 0.15
5 -0.81
6 -0.87
7 -0.62
8 0.27
9 0.37

>  <PUBCHEM_EFFECTIVE_ROTOR_COUNT>  (1) 
9

>  <PUBCHEM_PHARMACOPHORE_FEATURES>  (1) 
8
1 4 acceptor
1 5 cation
1 6 cation
1 6 donor
1 7 acceptor
6 13 15 17 21 23 24 rings
6 14 16 20 22 25 26 rings
6 7 10 13 14 15 16 rings

>  <PUBCHEM_HEAVY_ATOM_COUNT>  (1) 
27

>  <PUBCHEM_ATOM_DEF_STEREO_COUNT>  (1) 
0

>  <PUBCHEM_ATOM_UDEF_STEREO_COUNT>  (1) 
0

>  <PUBCHEM_BOND_DEF_STEREO_COUNT>  (1) 
0

>  <PUBCHEM_BOND_UDEF_STEREO_COUNT>  (1) 
0

>  <PUBCHEM_ISOTOPIC_ATOM_COUNT>  (1) 
0

>  <PUBCHEM_COMPONENT_COUNT>  (1) 
1

>  <PUBCHEM_CACTVS_TAUTO_COUNT>  (1) 
2

>  <PUBCHEM_CONFORMER_ID>  (1) 
0000614300000002

>  <PUBCHEM_MMFF94_ENERGY>  (1) 
123.1201

>  <PUBCHEM_FEATURE_SELFOVERLAP>  (1) 
40.656

>  <PUBCHEM_SHAPE_FINGERPRINT>  (1) 
10050765 1 17975977885076094028
10411042 1 17472414348796668779
10937287 8 18337957895331494200
1100329 8 18409162234619558394
11049842 53 16484452655978314383
11135609 187 18264196071746636093
12107183 9 17549545111687212873
12128747 34 15432531262448288320
12390115 104 18120670273189655004
12788726 201 17907287011841096902
13140716 1 18407479959731953218
1361 2 18263075668960017437
13692114 37 18125985295097323990
13785724 45 17333379995710471063
138480 1 17976535010172958730
14787075 74 18200872993478428853
14790565 3 18409733992859969660
14849402 71 18337395942126892778
15250474 111 18199456689706267175
15475509 8 17985000197977611838
15950262 2 16270203108775245618
16993438 75 17826228777554930827
17138139 8 17842251938777927543
19319366 153 18339909520102934799
19377110 9 18343586235820591257
19427546 62 18335136535335419087
20028762 73 18341883074555070134
20642791 268 18125993876024671843
20739085 24 18188501159614664252
21033648 144 18040432226546373613
21033650 10 17844557532529753372
23558518 356 17754738557333100514
23845131 108 18333732450639726139
24771293 8 18198891514981269114
283562 15 17397259912303634154
3178227 256 18191039915036251786
335352 9 18336262432102504364
474 4 18410575063262394433
5104073 3 18264493888883413275
5312544 6 18409441492754964343
6058803 2 18200306603656915655
633830 44 18271814496824442109
6371009 1 18338499932867839136
9961470 85 17476353276516312457

>  <PUBCHEM_SHAPE_MULTIPOLES>  (1) 
540.44
12.58
7.22
1.24
16.56
4.88
0.12
-12.97
-1.55
-5.05
2.58
2.52
-0.51
-4.98

>  <PUBCHEM_SHAPE_SELFOVERLAP>  (1) 
1127.636

>  <PUBCHEM_SHAPE_VOLUME>  (1) 
312.3

>  <PUBCHEM_COORDINATE_TYPE>  (1) 
2
5
10

$$$$
