24897
     RDKit          3D

 24 26  0  0  0  0  0  0  0  0999 V2000
    0.5045    5.9303   -0.2524 Cl  0  0  0  0  0  0  0  0  0  0  0  0
   -7.9633   -2.2784   -0.6309 Cl  0  0  0  0  0  0  0  0  0  0  0  0
    2.8911   -4.1129    0.1449 O   0  0  0  0  0  0  0  0  0  0  0  0
   -0.7462   -0.6307    0.6976 N   0  0  0  0  0  0  0  0  0  0  0  0
    2.7688    1.3908   -0.3632 N   0  0  0  0  0  0  0  0  0  0  0  0
   -4.3901   -0.5862    0.1074 N   0  0  0  0  0  0  0  0  0  0  0  0
    0.4455    0.0545    0.3367 C   0  0  0  0  0  0  0  0  0  0  0  0
    1.6224   -0.6689    0.1188 C   0  0  0  0  0  0  0  0  0  0  0  0
    0.4313    1.4467    0.2044 C   0  0  0  0  0  0  0  0  0  0  0  0
   -2.0392   -0.0559    0.5357 C   0  0  0  0  0  0  0  0  0  0  0  0
    2.7769    0.0499   -0.2343 C   0  0  0  0  0  0  0  0  0  0  0  0
    1.6324    2.0827   -0.1522 C   0  0  0  0  0  0  0  0  0  0  0  0
   -3.0552   -1.1541    0.2488 C   0  0  0  0  0  0  0  0  0  0  0  0
    1.6654   -2.0684    0.2450 C   0  0  0  0  0  0  0  0  0  0  0  0
   -0.7370    2.1989    0.4175 C   0  0  0  0  0  0  0  0  0  0  0  0
    3.9519   -0.6646   -0.4526 C   0  0  0  0  0  0  0  0  0  0  0  0
    1.6248    3.4687   -0.2855 C   0  0  0  0  0  0  0  0  0  0  0  0
    2.8527   -2.7591    0.0213 C   0  0  0  0  0  0  0  0  0  0  0  0
    3.9981   -2.0553   -0.3283 C   0  0  0  0  0  0  0  0  0  0  0  0
   -5.3731   -1.6276   -0.1567 C   0  0  0  0  0  0  0  0  0  0  0  0
   -0.7180    3.5833    0.2779 C   0  0  0  0  0  0  0  0  0  0  0  0
    0.4655    4.2192   -0.0743 C   0  0  0  0  0  0  0  0  0  0  0  0
   -6.7524   -1.0099   -0.3268 C   0  0  0  0  0  0  0  0  0  0  0  0
    4.1434   -4.7530   -0.0987 C   0  0  0  0  0  0  0  0  0  0  0  0
  1 22  1  0
  2 23  1  0
  3 18  1  0
  3 24  1  0
  4  7  1  0
  4 10  1  0
  5 11  2  0
  5 12  1  0
  6 13  1  0
  6 20  1  0
  7  8  2  0
  7  9  1  0
  8 11  1  0
  8 14  1  0
  9 12  2  0
  9 15  1  0
 10 13  1  0
 11 16  1  0
 12 17  1  0
 14 18  2  0
 15 21  2  0
 16 19  2  0
 17 22  2  0
 18 19  1  0
 20 23  1  0
 21 22  1  0
M  END
>  <PUBCHEM_COMPOUND_CID>  (1) 
24897

>  <PUBCHEM_CONFORMER_RMSD>  (1) 
0.8

>  <PUBCHEM_CONFORMER_DIVERSEORDER>  (1) 
1
27
12
16
22
15
9
11
26
10
23
4
20
18
5
7
19
8
14
25
3
2
13
21
6
24
17

>  <PUBCHEM_MMFF94_PARTIAL_CHARGES>  (1) 
30
1 -0.18
10 0.37
11 0.31
12 0.31
13 0.27
14 -0.15
15 -0.15
16 -0.15
17 -0.15
18 0.08
19 -0.15
2 -0.29
20 0.27
21 -0.15
22 0.18
23 0.29
24 0.28
27 0.4
3 -0.36
30 0.15
31 0.15
32 0.15
33 0.36
34 0.15
35 0.15
38 0.15
4 -0.87
5 -0.62
6 -0.9
7 0.1

>  <PUBCHEM_EFFECTIVE_ROTOR_COUNT>  (1) 
7

>  <PUBCHEM_PHARMACOPHORE_FEATURES>  (1) 
9
1 3 acceptor
1 4 cation
1 4 donor
1 5 acceptor
1 6 cation
1 6 donor
6 5 7 8 9 11 12 rings
6 8 11 14 16 18 19 rings
6 9 12 15 17 21 22 rings

>  <PUBCHEM_HEAVY_ATOM_COUNT>  (1) 
24

>  <PUBCHEM_ATOM_DEF_STEREO_COUNT>  (1) 
0

>  <PUBCHEM_ATOM_UDEF_STEREO_COUNT>  (1) 
0

>  <PUBCHEM_BOND_DEF_STEREO_COUNT>  (1) 
0

>  <PUBCHEM_BOND_UDEF_STEREO_COUNT>  (1) 
0

>  <PUBCHEM_ISOTOPIC_ATOM_COUNT>  (1) 
0

>  <PUBCHEM_COMPONENT_COUNT>  (1) 
1

>  <PUBCHEM_CACTVS_TAUTO_COUNT>  (1) 
2

>  <PUBCHEM_CONFORMER_ID>  (1) 
0000614100000001

>  <PUBCHEM_MMFF94_ENERGY>  (1) 
105.3304

>  <PUBCHEM_FEATURE_SELFOVERLAP>  (1) 
45.732

>  <PUBCHEM_SHAPE_FINGERPRINT>  (1) 
10050765 1 17977948978585815286
10411042 1 18338516331058431762
10622 236 18201432576599769015
10693767 8 18129957770436265150
1100329 8 17834399295715610360
11135609 149 18196344027726768335
11578080 2 17700674200247775568
11607047 191 16840204392847345961
11719270 70 18123182669600758153
12107183 9 18270974428093487033
12553582 1 18265074495110057194
12730499 353 18047478013405939771
13004483 165 18268139868835079891
13140716 1 18196649825256165794
13533116 47 18269274729008520307
13540713 5 17682692727364226806
13617811 41 18336270132974039540
138480 1 18410296938370867000
13911987 19 18044962262087692100
13955234 65 18196936789164105721
14866123 147 17618222806522258763
15042514 8 17905896876708044897
15420108 30 17400908095542096848
15484559 13 18196381535612646582
16087824 20 18049729521284369825
16728300 4 17608609995995290088
16988056 13 18262226824772665701
17492 89 18122624959919180078
17539 30 17978226054407452967
19319366 153 17911801594142818597
19427546 62 17833267902123187217
19591789 44 17039798257748176136
20775438 99 17906126808225894309
21478907 32 18266180526339711875
21703447 108 18267008463439618810
221357 26 18334851732655599581
22849339 104 17117217100637868190
23402539 116 17042034669152878388
23522609 53 17628382630093854795
23523788 1 18052220000561810754
23558518 356 17901117317511787258
23559900 14 18265612259670699363
255183 451 18343308037445563335
3421961 26 18412542132798826395
46194498 28 17749387122265636775
59682541 52 18337662110346998231
6025842 7 18194964265245736005
6443956 14 18336831986555246116
70251023 43 18337112254667525315
7164475 11 18192719947159773622
77188 2 18410855425948096365

>  <PUBCHEM_SHAPE_MULTIPOLES>  (1) 
476.84
11.88
7.36
0.71
36.16
6.56
0
-17.07
2.95
-8.29
0.55
0.14
0.01
-0.6

>  <PUBCHEM_SHAPE_SELFOVERLAP>  (1) 
1009.851

>  <PUBCHEM_SHAPE_VOLUME>  (1) 
270.5

>  <PUBCHEM_COORDINATE_TYPE>  (1) 
2
5
10

$$$$
