24903
     RDKit          3D

 32 34  0  0  1  0  0  0  0  0999 V2000
    4.5551   -1.2627   -0.5512 N   0  0  0  0  0  0  0  0  0  0  0  0
   -3.9500   -0.9228    0.0090 N   0  0  0  0  0  0  0  0  0  0  0  0
    3.9803   -1.1394    0.8526 C   0  0  0  0  0  0  0  0  0  0  0  0
   -3.2465    0.3698   -0.1941 C   0  0  0  0  0  0  0  0  0  0  0  0
    2.7610   -2.0585    1.0094 C   0  0  0  0  0  0  0  0  0  0  0  0
   -2.1018    0.1880   -1.2177 C   0  0  0  0  0  0  0  0  0  0  0  0
    5.9644   -0.6887   -0.5747 C   0  0  0  0  0  0  0  0  0  0  0  0
   -5.0519   -0.7819    1.0674 C   0  0  0  0  0  0  0  0  0  0  0  0
    1.4868   -1.4701    0.4261 C   0  0  0  0  0  0  0  0  0  0  0  0
   -0.8515   -0.3898   -0.6452 C   0  0  0  0  0  0  0  0  0  0  0  0
    4.5980   -2.7294   -0.9550 C   0  0  0  0  0  0  0  0  0  0  0  0
    3.6775   -0.4931   -1.5277 C   0  0  0  0  0  0  0  0  0  0  0  0
   -4.5993   -1.3996   -1.2969 C   0  0  0  0  0  0  0  0  0  0  0  0
   -2.9706   -2.0063    0.4796 C   0  0  0  0  0  0  0  0  0  0  0  0
    2.5644   -2.4070    2.4895 C   0  0  0  0  0  0  0  0  0  0  0  0
   -1.8411    1.5504   -1.8942 C   0  0  0  0  0  0  0  0  0  0  0  0
    0.8172   -2.1361   -0.6005 C   0  0  0  0  0  0  0  0  0  0  0  0
   -0.3519   -1.5961   -1.1361 C   0  0  0  0  0  0  0  0  0  0  0  0
    0.9871   -0.2639    0.9170 C   0  0  0  0  0  0  0  0  0  0  0  0
   -0.1822    0.2763    0.3814 C   0  0  0  0  0  0  0  0  0  0  0  0
    6.0157    0.7600   -0.1879 C   0  0  0  0  0  0  0  0  0  0  0  0
   -6.1154    0.2034    0.6811 C   0  0  0  0  0  0  0  0  0  0  0  0
    5.8917    1.7477   -1.1651 C   0  0  0  0  0  0  0  0  0  0  0  0
   -5.9835    1.5464    1.0350 C   0  0  0  0  0  0  0  0  0  0  0  0
    6.1869    1.1194    1.1491 C   0  0  0  0  0  0  0  0  0  0  0  0
   -7.2357   -0.2230   -0.0322 C   0  0  0  0  0  0  0  0  0  0  0  0
    5.9392    3.0946   -0.8056 C   0  0  0  0  0  0  0  0  0  0  0  0
   -6.9720    2.4626    0.6759 C   0  0  0  0  0  0  0  0  0  0  0  0
    6.2341    2.4664    1.5086 C   0  0  0  0  0  0  0  0  0  0  0  0
   -8.2240    0.6935   -0.3915 C   0  0  0  0  0  0  0  0  0  0  0  0
    6.1103    3.4538    0.5312 C   0  0  0  0  0  0  0  0  0  0  0  0
   -8.0921    2.0363   -0.0374 C   0  0  0  0  0  0  0  0  0  0  0  0
  1  3  1  0
  1  7  1  0
  1 11  1  0
  1 12  1  0
  2  4  1  0
  2  8  1  0
  2 13  1  0
  2 14  1  0
  3  5  1  0
  4  6  1  0
  5  9  1  0
  5 15  1  0
  6 10  1  0
  6 16  1  0
  7 21  1  0
  8 22  1  0
  9 17  2  0
  9 19  1  0
 10 18  2  0
 10 20  1  0
 17 18  1  0
 19 20  2  0
 21 23  2  0
 21 25  1  0
 22 24  2  0
 22 26  1  0
 23 27  1  0
 24 28  1  0
 25 29  2  0
 26 30  2  0
 27 31  2  0
 28 32  2  0
 29 31  1  0
 30 32  1  0
M  CHG  2   1   1   2   1
M  END
>  <PUBCHEM_COMPOUND_CID>  (1) 
24903

>  <PUBCHEM_CONFORMER_RMSD>  (1) 
1.2

>  <PUBCHEM_CONFORMER_DIVERSEORDER>  (1) 
10
41
83
28
45
52
40
110
125
115
24
13
68
4
106
3
20
11
136
95
121
138
103
44
105
119
76
36
73
117
49
56
62
135
75
87
26
116
93
85
122
123
59
134
29
37
126
130
38
67
33
92
109
61
6
108
53
91
55
137
112
27
63
90
97
124
34
47
84
132
43
18
131
96
60
127
107
118
21
79
139
98
72
82
129
77
31
88
80
54
71
113
17
133
69
30
101
57
35
99
16
48
9
89
58
42
25
120
100
65
22
66
51
5
15
14
128
64
94
19
78
32
50
70
74
39
104
86
8
102
81
46
23
2
1
111
12
114
7

>  <PUBCHEM_MMFF94_PARTIAL_CHARGES>  (1) 
44
1 -1.01
10 -0.14
11 0.5
12 0.5
13 0.5
14 0.5
17 -0.15
18 -0.15
19 -0.15
2 -1.01
20 -0.15
21 -0.14
22 -0.14
23 -0.15
24 -0.15
25 -0.15
26 -0.15
27 -0.15
28 -0.15
29 -0.15
3 0.5
30 -0.15
31 -0.15
32 -0.15
4 0.5
5 0.14
6 0.14
61 0.15
62 0.15
63 0.15
64 0.15
65 0.15
66 0.15
67 0.15
68 0.15
69 0.15
7 0.65
70 0.15
71 0.15
72 0.15
73 0.15
74 0.15
8 0.65
9 -0.14

>  <PUBCHEM_EFFECTIVE_ROTOR_COUNT>  (1) 
10

>  <PUBCHEM_PHARMACOPHORE_FEATURES>  (1) 
7
1 1 cation
1 15 hydrophobe
1 16 hydrophobe
1 2 cation
6 21 23 25 27 29 31 rings
6 22 24 26 28 30 32 rings
6 9 10 17 18 19 20 rings

>  <PUBCHEM_HEAVY_ATOM_COUNT>  (1) 
32

>  <PUBCHEM_ATOM_DEF_STEREO_COUNT>  (1) 
0

>  <PUBCHEM_ATOM_UDEF_STEREO_COUNT>  (1) 
2

>  <PUBCHEM_BOND_DEF_STEREO_COUNT>  (1) 
0

>  <PUBCHEM_BOND_UDEF_STEREO_COUNT>  (1) 
0

>  <PUBCHEM_ISOTOPIC_ATOM_COUNT>  (1) 
0

>  <PUBCHEM_COMPONENT_COUNT>  (1) 
1

>  <PUBCHEM_CACTVS_TAUTO_COUNT>  (1) 
1

>  <PUBCHEM_CONFORMER_ID>  (1) 
000061470000000A

>  <PUBCHEM_MMFF94_ENERGY>  (1) 
135.2877

>  <PUBCHEM_FEATURE_SELFOVERLAP>  (1) 
35.522

>  <PUBCHEM_SHAPE_FINGERPRINT>  (1) 
10066227 112 18343303652336265921
10066227 49 9223236243333357273
10280341 67 17773584118035895288
10554248 39 17346600716463653830
10673678 19 18202289125816109942
10693767 8 11311791544431565300
10816530 90 17989198270442168888
10838868 160 18267857453809618944
11007060 377 18335146393203229347
11135609 127 17846771945601945720
11135609 187 18198063771508981576
11211813 74 18409728444121224749
11408170 253 17916876703536144249
11578821 258 18269556032351329961
11991303 11 15841258329633246405
125118 31 18410296912653869144
12522641 24 18041555841926429594
12539765 74 17845945022521172487
12645989 146 11240000066224061723
12664476 115 18334013870414631012
13617811 41 15339123433384704120
13782708 43 9511463316480625763
14251757 52 18343581841193425289
14565420 104 18187362134440674826
14675020 138 15430034335992168418
15131766 46 18057877129693776020
15183329 4 13614519645344830263
15276724 80 18260827043290564477
15461852 350 17918267650891287503
15840311 113 18409452470437996677
16096371 109 17240749693340145922
16994733 274 18342455988837295320
17686467 74 18260548957781216333
19377110 9 17240479178376227520
20691028 202 18411981385852293976
21130935 74 18260551108737828443
21792934 111 17022893515811000773
2215653 11 12031793578226526028
23569943 247 10086550778751155060
24771293 8 18188770677439210020
25269216 80 15553306189541272428
27425 322 18272370888737738838
34797466 226 18411702062839211630
4073 2 18334580182842642043
4093350 32 18343587321719563542
4169191 19 18412827976184934589
4258327 124 17917993902001663863
4340502 62 17385441025287916618
44317340 157 18412260615125540124
444735 82 18335706065400823268
4625314 4 18412265000018682575
49967989 163 16198716191568753341
5104073 3 17241596226344968953
5109719 28 18187659053755927632
5265222 85 18130505327448787247
5372103 7 16055458678672067728
552612 73 18336541625639905405
6328613 192 18413674608543335289

>  <PUBCHEM_SHAPE_MULTIPOLES>  (1) 
648.58
23.91
3.33
1.6
22.5
1.41
-0.19
18.17
-2.21
-4.8
-0.43
-1.15
-0.26
-0.2

>  <PUBCHEM_SHAPE_SELFOVERLAP>  (1) 
1354.949

>  <PUBCHEM_SHAPE_VOLUME>  (1) 
368.4

>  <PUBCHEM_COORDINATE_TYPE>  (1) 
2
5
10

$$$$
