24908
     RDKit          3D

 23 25  0  0  0  0  0  0  0  0999 V2000
    0.1959    0.5482   -1.0702 O   0  0  0  0  0  0  0  0  0  0  0  0
    3.5055    1.3759    0.3249 N   0  0  0  0  0  0  0  0  0  0  0  0
   -1.0641    0.3380   -0.4785 N   0  0  0  0  0  0  0  0  0  0  0  0
   -2.7535   -0.6508    0.4437 N   0  0  0  0  0  0  0  0  0  0  0  0
    2.5060    1.0619   -0.6852 C   0  0  0  0  0  0  0  0  0  0  0  0
   -2.0019    1.3220   -0.2420 C   0  0  0  0  0  0  0  0  0  0  0  0
   -1.5305   -0.8435   -0.0609 C   0  0  0  0  0  0  0  0  0  0  0  0
    1.1467    0.8355   -0.0431 C   0  0  0  0  0  0  0  0  0  0  0  0
   -3.0926    0.6835    0.3534 C   0  0  0  0  0  0  0  0  0  0  0  0
    4.8065    1.6355   -0.2964 C   0  0  0  0  0  0  0  0  0  0  0  0
    3.6187    0.2868    1.2982 C   0  0  0  0  0  0  0  0  0  0  0  0
   -0.8297   -2.1486   -0.1366 C   0  0  0  0  0  0  0  0  0  0  0  0
   -1.9831    2.6884   -0.4956 C   0  0  0  0  0  0  0  0  0  0  0  0
   -4.2405    1.3672    0.7366 C   0  0  0  0  0  0  0  0  0  0  0  0
    4.7151    2.7625   -1.3112 C   0  0  0  0  0  0  0  0  0  0  0  0
    4.6097    0.6329    2.3965 C   0  0  0  0  0  0  0  0  0  0  0  0
   -3.1346    3.3919   -0.1142 C   0  0  0  0  0  0  0  0  0  0  0  0
   -4.2364    2.7470    0.4870 C   0  0  0  0  0  0  0  0  0  0  0  0
   -1.0904   -3.1175    0.8205 C   0  0  0  0  0  0  0  0  0  0  0  0
    0.0735   -2.3776   -1.1633 C   0  0  0  0  0  0  0  0  0  0  0  0
   -0.4317   -4.3450    0.7492 C   0  0  0  0  0  0  0  0  0  0  0  0
    0.7320   -3.6053   -1.2345 C   0  0  0  0  0  0  0  0  0  0  0  0
    0.4794   -4.5888   -0.2782 C   0  0  0  0  0  0  0  0  0  0  0  0
  1  3  1  0
  1  8  1  0
  2  5  1  0
  2 10  1  0
  2 11  1  0
  3  6  1  0
  3  7  2  0
  4  7  1  0
  4  9  1  0
  5  8  1  0
  6  9  2  0
  6 13  1  0
  7 12  1  0
  9 14  1  0
 10 15  1  0
 11 16  1  0
 12 19  2  0
 12 20  1  0
 13 17  2  0
 14 18  2  0
 17 18  1  0
 19 21  1  0
 20 22  2  0
 21 23  2  0
 22 23  1  0
M  CHG  1   3   1
M  END
>  <PUBCHEM_COMPOUND_CID>  (1) 
24908

>  <PUBCHEM_CONFORMER_RMSD>  (1) 
0.8

>  <PUBCHEM_CONFORMER_DIVERSEORDER>  (1) 
1
34
27
25
42
20
26
24
17
31
21
16
37
3
40
39
2
33
46
32
9
38
35
30
23
36
19
11
44
22
28
10
29
18
43
13
45
4
41
12
15
14
8
5
7
47
6

>  <PUBCHEM_MMFF94_PARTIAL_CHARGES>  (1) 
31
1 -0.01
10 0.27
11 0.27
12 0.02
13 -0.11
14 -0.11
17 -0.15
18 -0.15
19 -0.15
2 -0.81
20 -0.15
21 -0.15
22 -0.15
23 -0.15
3 -0.52
32 0.45
33 0.15
34 0.15
4 -0.7
41 0.15
42 0.15
43 0.15
44 0.15
45 0.15
46 0.15
47 0.15
5 0.27
6 0.31
7 0.78
8 0.28
9 0.31

>  <PUBCHEM_EFFECTIVE_ROTOR_COUNT>  (1) 
7

>  <PUBCHEM_PHARMACOPHORE_FEATURES>  (1) 
6
1 2 cation
1 4 donor
3 3 4 7 cation
5 3 4 6 7 9 rings
6 12 19 20 21 22 23 rings
6 6 9 13 14 17 18 rings

>  <PUBCHEM_HEAVY_ATOM_COUNT>  (1) 
23

>  <PUBCHEM_ATOM_DEF_STEREO_COUNT>  (1) 
0

>  <PUBCHEM_ATOM_UDEF_STEREO_COUNT>  (1) 
0

>  <PUBCHEM_BOND_DEF_STEREO_COUNT>  (1) 
0

>  <PUBCHEM_BOND_UDEF_STEREO_COUNT>  (1) 
0

>  <PUBCHEM_ISOTOPIC_ATOM_COUNT>  (1) 
0

>  <PUBCHEM_COMPONENT_COUNT>  (1) 
1

>  <PUBCHEM_CACTVS_TAUTO_COUNT>  (1) 
2

>  <PUBCHEM_CONFORMER_ID>  (1) 
0000614C00000001

>  <PUBCHEM_MMFF94_ENERGY>  (1) 
48.7476

>  <PUBCHEM_FEATURE_SELFOVERLAP>  (1) 
30.554

>  <PUBCHEM_SHAPE_FINGERPRINT>  (1) 
10411042 1 17402340767888239262
1100329 8 16394936835372791280
11582403 64 17560218263782800036
12173636 292 18340196470793318524
12553582 1 17545879794981375950
12788726 201 18046905167331469058
12839892 36 18408601457602896059
13004483 165 17763733686865011851
13140716 1 18337114440895179055
133893 2 17762583258647615151
13540713 4 17827090511429618297
138480 1 17617101304403509750
14251757 5 18269568298149484592
14844126 61 18048313646132101546
15042514 8 18048889777139875583
15230672 131 18336279960022672142
15842332 3 17897430904327324672
18785283 64 18120378652903578978
20028762 73 18127982013019892663
20101258 96 17545335523566054616
20554085 129 18058144186217309401
21120745 212 17688605174125533532
212916 134 18271794718642488168
21731228 192 18411693270871974674
23366157 5 18046913667139786647
23419403 2 17250040334107579751
23559900 14 17830743045669119189
23598288 3 17828499289696124806
23728640 28 18265888232361930114
283562 15 18341333392266399679
3091708 16 9049980698216918639
3298306 158 18269282261748311238
352729 6 18264219165458128279
3610482 184 17606986133501336180
5265222 85 18338812160748886150
532947 4 18051972520028817070
5385378 56 18126289636342612961
57124632 79 18194682562055828065
58807428 26 18410292471783831193
7364860 26 17980484460318650503
7808743 9 18266465480752284764
79837 15 18410009948809155531
81228 2 17838601602795887499
90316 7 17763751287667578930
9981440 41 18409449155203454641

>  <PUBCHEM_SHAPE_MULTIPOLES>  (1) 
452.52
8.41
6
1.35
6.27
7.39
-0.46
-11.89
-2.39
-0.94
0.85
1.73
0
-0.32

>  <PUBCHEM_SHAPE_SELFOVERLAP>  (1) 
961.946

>  <PUBCHEM_SHAPE_VOLUME>  (1) 
256

>  <PUBCHEM_COORDINATE_TYPE>  (1) 
2
5
10

$$$$
