2490
     RDKit          3D

 31 33  0  0  1  0  0  0  0  0999 V2000
   -0.7188    1.6991   -0.7805 O   0  0  0  0  0  0  0  0  0  0  0  0
   -3.9635    2.6191    0.2595 O   0  0  0  0  0  0  0  0  0  0  0  0
   -0.4222   -1.2849    1.1549 O   0  0  0  0  0  0  0  0  0  0  0  0
   -1.9996    3.3518   -1.7303 O   0  0  0  0  0  0  0  0  0  0  0  0
    0.0678   -0.8057   -1.0513 O   0  0  0  0  0  0  0  0  0  0  0  0
   -5.6889   -3.0803   -0.8917 O   0  0  0  0  0  0  0  0  0  0  0  0
    5.4296    1.7359   -0.8060 O   0  0  0  0  0  0  0  0  0  0  0  0
   -0.7632    0.9138    0.4215 C   0  0  0  0  0  0  0  0  0  0  0  0
   -2.2157    1.0153    0.9162 C   0  0  0  0  0  0  0  0  0  0  0  0
   -2.5868    2.4220    0.4413 C   0  0  0  0  0  0  0  0  0  0  0  0
    0.2472    1.4930    1.4144 C   0  0  0  0  0  0  0  0  0  0  0  0
   -3.1506   -0.0865    0.4297 C   0  0  0  0  0  0  0  0  0  0  0  0
   -1.7726    2.5744   -0.8171 C   0  0  0  0  0  0  0  0  0  0  0  0
   -0.3202   -0.4767    0.0616 C   0  0  0  0  0  0  0  0  0  0  0  0
    1.6285    1.5530    0.8246 C   0  0  0  0  0  0  0  0  0  0  0  0
   -3.3213   -0.2911   -0.9348 C   0  0  0  0  0  0  0  0  0  0  0  0
   -3.8231   -0.8769    1.3548 C   0  0  0  0  0  0  0  0  0  0  0  0
    2.4853    0.4699    0.9729 C   0  0  0  0  0  0  0  0  0  0  0  0
    2.0316    2.6913    0.1383 C   0  0  0  0  0  0  0  0  0  0  0  0
    3.7671    0.5260    0.4256 C   0  0  0  0  0  0  0  0  0  0  0  0
   -4.1760   -1.2995   -1.3802 C   0  0  0  0  0  0  0  0  0  0  0  0
   -4.6777   -1.8854    0.9093 C   0  0  0  0  0  0  0  0  0  0  0  0
   -4.8541   -2.0967   -0.4581 C   0  0  0  0  0  0  0  0  0  0  0  0
    3.3133    2.7473   -0.4091 C   0  0  0  0  0  0  0  0  0  0  0  0
    4.1811    1.6647   -0.2654 C   0  0  0  0  0  0  0  0  0  0  0  0
    4.6823   -0.6423    0.5876 C   0  0  0  0  0  0  0  0  0  0  0  0
   -0.0304   -2.6463    0.9519 C   0  0  0  0  0  0  0  0  0  0  0  0
    4.5600   -1.6440   -0.5338 C   0  0  0  0  0  0  0  0  0  0  0  0
    4.1821   -2.9344   -0.4572 C   0  0  0  0  0  0  0  0  0  0  0  0
    3.8271   -3.5464    0.8720 C   0  0  0  0  0  0  0  0  0  0  0  0
    4.0817   -3.8797   -1.6205 C   0  0  0  0  0  0  0  0  0  0  0  0
  1  8  1  0
  1 13  1  0
  2 10  1  0
  3 14  1  0
  3 27  1  0
  4 13  2  0
  5 14  2  0
  6 23  1  0
  7 25  1  0
  8  9  1  0
  8 11  1  0
  8 14  1  0
  9 10  1  0
  9 12  1  0
 10 13  1  0
 11 15  1  0
 12 16  2  0
 12 17  1  0
 15 18  2  0
 15 19  1  0
 16 21  1  0
 17 22  2  0
 18 20  1  0
 19 24  2  0
 20 25  2  0
 20 26  1  0
 21 23  2  0
 22 23  1  0
 24 25  1  0
 26 28  1  0
 28 29  2  3
 29 30  1  0
 29 31  1  0
M  END
>  <PUBCHEM_COMPOUND_CID>  (1) 
2490

>  <PUBCHEM_CONFORMER_RMSD>  (1) 
1

>  <PUBCHEM_CONFORMER_DIVERSEORDER>  (1) 
1
94
122
63
210
175
162
165
166
207
115
87
41
100
196
141
143
190
179
206
36
157
151
85
74
128
167
186
119
4
199
99
121
95
144
15
201
111
117
92
147
113
126
35
46
56
129
178
110
171
194
205
139
71
204
173
58
160
20
154
109
193
89
124
185
135
136
61
146
200
86
133
188
17
116
27
137
140
64
192
59
127
187
54
132
103
37
12
180
55
123
156
70
2
104
26
68
16
177
181
138
209
77
152
164
45
130
184
170
197
168
125
29
158
21
13
66
25
75
163
97
134
120
88
76
105
53
107
72
69
3
155
48
28
40
91
78
79
145
34
102
153
106
62
208
93
172
82
195
22
203
169
5
47
52
98
18
67
202
84
112
10
57
174
33
101
49
6
50
131
60
39
38
8
23
142
148
24
108
96
176
31
32
149
14
9
11
198
90
73
44
183
83
80
30
19
191
118
7
81
43
51
182
42
189
159
150
65
161
114

>  <PUBCHEM_MMFF94_PARTIAL_CHARGES>  (1) 
42
1 -0.43
10 0.34
11 0.14
12 -0.14
13 0.66
14 0.66
15 -0.14
16 -0.15
17 -0.15
18 -0.15
19 -0.15
2 -0.68
20 -0.14
21 -0.15
22 -0.15
23 0.08
24 -0.15
25 0.08
26 0.28
27 0.28
28 -0.29
29 -0.28
3 -0.43
30 0.14
31 0.14
36 0.15
37 0.15
38 0.4
39 0.15
4 -0.57
40 0.15
41 0.15
42 0.15
43 0.15
49 0.15
5 -0.57
50 0.45
51 0.45
6 -0.53
7 -0.53
8 0.34
9 0.14

>  <PUBCHEM_EFFECTIVE_ROTOR_COUNT>  (1) 
7.8

>  <PUBCHEM_PHARMACOPHORE_FEATURES>  (1) 
10
1 2 acceptor
1 2 donor
1 4 acceptor
1 5 acceptor
1 6 donor
1 7 donor
3 29 30 31 hydrophobe
5 1 8 9 10 13 rings
6 12 16 17 21 22 23 rings
6 15 18 19 20 24 25 rings

>  <PUBCHEM_HEAVY_ATOM_COUNT>  (1) 
31

>  <PUBCHEM_ATOM_DEF_STEREO_COUNT>  (1) 
0

>  <PUBCHEM_ATOM_UDEF_STEREO_COUNT>  (1) 
3

>  <PUBCHEM_BOND_DEF_STEREO_COUNT>  (1) 
0

>  <PUBCHEM_BOND_UDEF_STEREO_COUNT>  (1) 
0

>  <PUBCHEM_ISOTOPIC_ATOM_COUNT>  (1) 
0

>  <PUBCHEM_COMPONENT_COUNT>  (1) 
1

>  <PUBCHEM_CACTVS_TAUTO_COUNT>  (1) 
42

>  <PUBCHEM_CONFORMER_ID>  (1) 
000009BA00000001

>  <PUBCHEM_MMFF94_ENERGY>  (1) 
77.2746

>  <PUBCHEM_FEATURE_SELFOVERLAP>  (1) 
50.749

>  <PUBCHEM_SHAPE_FINGERPRINT>  (1) 
10928967 22 17774999137047949382
11513181 2 18341620304091952710
11963148 33 18124586733049358127
12403259 226 18410008823406345744
12422481 6 18200891586428796107
12623949 98 18270419281009355095
13150687 139 18047208607836776228
13690498 29 18191037711317212662
14347332 77 18411416207000730697
15361156 5 18188509981424560604
17492 89 18342176639885460446
1813 80 18268156538093701541
19301679 30 18340216284274111595
19591789 44 18409729534652183690
21285901 2 18115296894906889276
21307412 95 17838340675201242982
23559900 14 18268140972646371826
23569914 152 17763150602785357439
34797466 226 16805884134055125319
4280585 95 17977097956332579466
44062 13 18193557770371626814
460360 51 18272094850835449535
463206 1 17977102362599259634
508706 21 18187931612401390338
70251023 43 18411692219058719971
7970288 3 18125717040256790775
9709674 26 18335708234596106506

>  <PUBCHEM_SHAPE_MULTIPOLES>  (1) 
596.88
11.62
4.72
1.36
0.43
1.61
0.14
7.46
2.02
2.14
1.21
-0.39
0.27
0.29

>  <PUBCHEM_SHAPE_SELFOVERLAP>  (1) 
1286.549

>  <PUBCHEM_SHAPE_VOLUME>  (1) 
328.7

>  <PUBCHEM_COORDINATE_TYPE>  (1) 
2
5
10

$$$$
