24906
     RDKit          3D

 14 15  0  0  0  0  0  0  0  0999 V2000
   -3.4347   -0.5078    0.2538 S   0  0  0  0  0  0  0  0  0  0  0  0
    3.4348    0.5075    0.2538 S   0  0  0  0  0  0  0  0  0  0  0  0
   -0.6018   -0.3724    0.2539 C   0  0  0  0  0  0  0  0  0  0  0  0
    0.6017    0.3722    0.2540 C   0  0  0  0  0  0  0  0  0  0  0  0
   -1.8303    0.3083    0.2538 C   0  0  0  0  0  0  0  0  0  0  0  0
    1.8302   -0.3082    0.2539 C   0  0  0  0  0  0  0  0  0  0  0  0
   -0.5413   -1.7754    0.2538 C   0  0  0  0  0  0  0  0  0  0  0  0
    0.5413    1.7754    0.2538 C   0  0  0  0  0  0  0  0  0  0  0  0
   -1.8717    1.7030    0.2541 C   0  0  0  0  0  0  0  0  0  0  0  0
    1.8717   -1.7027    0.2541 C   0  0  0  0  0  0  0  0  0  0  0  0
    0.6881   -2.4349    0.2540 C   0  0  0  0  0  0  0  0  0  0  0  0
   -0.6881    2.4352    0.2538 C   0  0  0  0  0  0  0  0  0  0  0  0
   -3.7479   -0.6666   -1.5234 C   0  0  0  0  0  0  0  0  0  0  0  0
    3.7480    0.6664   -1.5234 C   0  0  0  0  0  0  0  0  0  0  0  0
  1  5  1  0
  1 13  1  0
  2  6  1  0
  2 14  1  0
  3  4  1  0
  3  5  2  0
  3  7  1  0
  4  6  1  0
  4  8  2  0
  5  9  1  0
  6 10  2  0
  7 11  2  0
  8 12  1  0
  9 12  2  0
 10 11  1  0
M  END
>  <PUBCHEM_COMPOUND_CID>  (1) 
24906

>  <PUBCHEM_CONFORMER_RMSD>  (1) 
0.6

>  <PUBCHEM_CONFORMER_DIVERSEORDER>  (1) 
3
4
2
1

>  <PUBCHEM_MMFF94_PARTIAL_CHARGES>  (1) 
18
1 -0.33
10 -0.15
11 -0.15
12 -0.15
13 0.23
14 0.23
15 0.15
16 0.15
17 0.15
18 0.15
19 0.15
2 -0.33
20 0.15
5 0.1
6 0.1
7 -0.15
8 -0.15
9 -0.15

>  <PUBCHEM_EFFECTIVE_ROTOR_COUNT>  (1) 
2

>  <PUBCHEM_PHARMACOPHORE_FEATURES>  (1) 
4
1 13 hydrophobe
1 14 hydrophobe
6 3 4 5 8 9 12 rings
6 3 4 6 7 10 11 rings

>  <PUBCHEM_HEAVY_ATOM_COUNT>  (1) 
14

>  <PUBCHEM_ATOM_DEF_STEREO_COUNT>  (1) 
0

>  <PUBCHEM_ATOM_UDEF_STEREO_COUNT>  (1) 
0

>  <PUBCHEM_BOND_DEF_STEREO_COUNT>  (1) 
0

>  <PUBCHEM_BOND_UDEF_STEREO_COUNT>  (1) 
0

>  <PUBCHEM_ISOTOPIC_ATOM_COUNT>  (1) 
0

>  <PUBCHEM_COMPONENT_COUNT>  (1) 
1

>  <PUBCHEM_CACTVS_TAUTO_COUNT>  (1) 
1

>  <PUBCHEM_CONFORMER_ID>  (1) 
0000614A00000003

>  <PUBCHEM_MMFF94_ENERGY>  (1) 
48.3582

>  <PUBCHEM_FEATURE_SELFOVERLAP>  (1) 
20.324

>  <PUBCHEM_SHAPE_FINGERPRINT>  (1) 
10756046 5 18122344579672924254
10967382 1 18410574032396143603
11206711 2 18410854352206266029
11680986 33 17907858757760537513
12202030 40 15697421231360931855
13140716 1 18122626325221999217
13380535 21 18125172536496406681
13380535 76 18408321099075504850
14576447 43 18128517436163806847
14614273 12 18188486852809413469
14790565 3 18266200463684323961
14911166 2 18338797926219776222
14993402 34 18410575131907719277
16945 1 18410856593999528178
193761 8 18050286959854616827
20645476 183 17532379853686489238
21501502 16 18194683670151830113
21637258 2 15770055021031422063
2334 1 17690279734502522216
23388829 49 18412823577705588593
23402539 116 18342451552225469740
23419403 2 16601180168314320627
23552423 10 18046913675434432674
23559900 14 18196666296931006436
2748010 2 18266458698291347595
34934 24 18341325588105419457
353137 74 18335421248722570128
449060 23 17846782922778640573
537710 114 18334861644569946804
53812653 8 18336274482968249304
57096353 35 18410855460128162236
57177213 63 18262246516864556794
7364860 26 17981326686357700970

>  <PUBCHEM_SHAPE_MULTIPOLES>  (1) 
295.81
5.64
2.43
1.01
0
0
-0.48
0
-2.25
0
0.36
0
0
-0.57

>  <PUBCHEM_SHAPE_SELFOVERLAP>  (1) 
603.299

>  <PUBCHEM_SHAPE_VOLUME>  (1) 
173.4

>  <PUBCHEM_COORDINATE_TYPE>  (1) 
2
5
10

$$$$
