24913
     RDKit          3D

 11 11  0  0  1  0  0  0  0  0999 V2000
    1.3647    0.3616    0.2230 P   0  0  0  0  0  0  0  0  0  0  0  0
    2.0552   -0.7246   -0.7661 O   0  0  0  0  0  0  0  0  0  0  0  0
    1.7403   -0.2525    1.6776 O   0  0  0  0  0  0  0  0  0  0  0  0
    1.9039    1.7530    0.0443 O   0  0  0  0  0  0  0  0  0  0  0  0
   -0.3788    0.1253    0.0679 C   0  0  0  0  0  0  0  0  0  0  0  0
   -1.2081    1.2115   -0.2118 C   0  0  0  0  0  0  0  0  0  0  0  0
   -0.9264   -1.1481    0.2247 C   0  0  0  0  0  0  0  0  0  0  0  0
   -2.5849    1.0245   -0.3347 C   0  0  0  0  0  0  0  0  0  0  0  0
   -2.3032   -1.3350    0.1017 C   0  0  0  0  0  0  0  0  0  0  0  0
   -3.1324   -0.2487   -0.1780 C   0  0  0  0  0  0  0  0  0  0  0  0
    3.4696   -0.7668   -0.8486 C   0  0  0  0  0  0  0  0  0  0  0  0
  1  2  1  0
  1  3  1  0
  1  4  2  0
  1  5  1  0
  2 11  1  0
  5  6  2  0
  5  7  1  0
  6  8  1  0
  7  9  2  0
  8 10  2  0
  9 10  1  0
M  END
>  <PUBCHEM_COMPOUND_CID>  (1) 
24913

>  <PUBCHEM_CONFORMER_RMSD>  (1) 
0.4

>  <PUBCHEM_CONFORMER_DIVERSEORDER>  (1) 
1
3
8
5
4
7
6
2

>  <PUBCHEM_MMFF94_PARTIAL_CHARGES>  (1) 
17
1 1.38
10 -0.15
11 0.28
12 0.15
13 0.15
14 0.15
15 0.15
16 0.15
17 0.5
2 -0.55
3 -0.77
4 -0.7
5 -0.14
6 -0.15
7 -0.15
8 -0.15
9 -0.15

>  <PUBCHEM_EFFECTIVE_ROTOR_COUNT>  (1) 
2

>  <PUBCHEM_PHARMACOPHORE_FEATURES>  (1) 
3
1 3 acceptor
1 4 acceptor
6 5 6 7 8 9 10 rings

>  <PUBCHEM_HEAVY_ATOM_COUNT>  (1) 
11

>  <PUBCHEM_ATOM_DEF_STEREO_COUNT>  (1) 
0

>  <PUBCHEM_ATOM_UDEF_STEREO_COUNT>  (1) 
0

>  <PUBCHEM_BOND_DEF_STEREO_COUNT>  (1) 
0

>  <PUBCHEM_BOND_UDEF_STEREO_COUNT>  (1) 
0

>  <PUBCHEM_ISOTOPIC_ATOM_COUNT>  (1) 
0

>  <PUBCHEM_COMPONENT_COUNT>  (1) 
1

>  <PUBCHEM_CACTVS_TAUTO_COUNT>  (1) 
1

>  <PUBCHEM_CONFORMER_ID>  (1) 
0000615100000001

>  <PUBCHEM_MMFF94_ENERGY>  (1) 
2.3004

>  <PUBCHEM_FEATURE_SELFOVERLAP>  (1) 
15.235

>  <PUBCHEM_SHAPE_FINGERPRINT>  (1) 
12032990 46 18336835298671421899
12524768 44 18337950224519819029
12716758 59 18408604768737928763
12897270 3 18407761451666688183
12932764 1 17749102284023635869
14325111 11 18411136956917533485
14648413 74 18341052994730777640
15219456 202 18272088339775908600
15775835 57 17677051243900027941
16945 1 18335974277718249595
17990270 104 18340766060692189844
19973954 147 18412265064242536805
20201158 50 18202007585940324758
20645464 45 18200856448773690531
20645476 183 17312824887837976107
20653085 51 18411143515469731729
20671657 53 17988100897918900988
20871998 22 17903370543133756771
21040471 1 18191857938585981081
23552423 10 18041278888932543645
23559900 14 18269274565778950142
2748010 2 18336259167141310525
3248919 1 18272922851990106233
369184 2 17894897564700683337
5084963 1 18130790044613512123
7364860 26 18199468934104263384
8030462 33 17530677714885993339

>  <PUBCHEM_SHAPE_MULTIPOLES>  (1) 
212.62
5.06
1.48
0.93
1.4
0.23
0.25
-0.75
-1.08
-0.21
-0.05
0.61
-0.11
0.4

>  <PUBCHEM_SHAPE_SELFOVERLAP>  (1) 
416.844

>  <PUBCHEM_SHAPE_VOLUME>  (1) 
127.9

>  <PUBCHEM_COORDINATE_TYPE>  (1) 
2
5
10

$$$$
