24911
     RDKit          3D

 14 14  0  0  1  0  0  0  0  0999 V2000
   -1.9484   -2.6524   -0.5917 I   0  0  0  0  0  0  0  0  0  0  0  0
   -3.4649    0.3977   -0.5086 O   0  0  0  0  0  0  0  0  0  0  0  0
    0.3311   -1.6512    1.5246 O   0  0  0  0  0  0  0  0  0  0  0  0
    2.0652   -0.6216   -1.4281 O   0  0  0  0  0  0  0  0  0  0  0  0
    4.0078   -0.1082   -0.3741 O   0  0  0  0  0  0  0  0  0  0  0  0
    0.5034    0.3760    0.4210 N   0  0  0  0  0  0  0  0  0  0  0  0
   -0.1618    1.5494   -0.1583 C   0  0  0  0  0  0  0  0  0  0  0  0
   -1.2766    1.1316   -1.1059 C   0  0  0  0  0  0  0  0  0  0  0  0
   -1.6688   -0.8310    0.5027 C   0  0  0  0  0  0  0  0  0  0  0  0
   -2.2497    0.2616   -0.3615 C   0  0  0  0  0  0  0  0  0  0  0  0
   -0.1931   -0.7474    0.8656 C   0  0  0  0  0  0  0  0  0  0  0  0
   -0.6598    2.4973    0.9366 C   0  0  0  0  0  0  0  0  0  0  0  0
    1.9325    0.4972    0.6847 C   0  0  0  0  0  0  0  0  0  0  0  0
    2.7833   -0.0989   -0.4070 C   0  0  0  0  0  0  0  0  0  0  0  0
  1  9  1  0
  2 10  2  0
  3 11  2  0
  4 14  1  0
  5 14  2  0
  6  7  1  0
  6 11  1  0
  6 13  1  0
  7  8  1  0
  7 12  1  0
  8 10  1  0
  9 10  1  0
  9 11  1  0
 13 14  1  0
M  END
>  <PUBCHEM_COMPOUND_CID>  (1) 
24911

>  <PUBCHEM_CONFORMER_RMSD>  (1) 
0.6

>  <PUBCHEM_CONFORMER_DIVERSEORDER>  (1) 
2
20
22
9
4
11
15
17
7
8
6
14
10
18
19
16
12
3
21
5
13
1

>  <PUBCHEM_MMFF94_PARTIAL_CHARGES>  (1) 
14
1 -0.19
10 0.45
11 0.57
13 0.36
14 0.66
2 -0.57
24 0.5
3 -0.57
4 -0.65
5 -0.57
6 -0.66
7 0.3
8 0.06
9 0.31

>  <PUBCHEM_EFFECTIVE_ROTOR_COUNT>  (1) 
2.8

>  <PUBCHEM_PHARMACOPHORE_FEATURES>  (1) 
8
1 1 hydrophobe
1 2 acceptor
1 3 acceptor
1 4 acceptor
1 5 acceptor
1 9 anion
3 4 5 14 anion
6 6 7 8 9 10 11 rings

>  <PUBCHEM_HEAVY_ATOM_COUNT>  (1) 
14

>  <PUBCHEM_ATOM_DEF_STEREO_COUNT>  (1) 
0

>  <PUBCHEM_ATOM_UDEF_STEREO_COUNT>  (1) 
2

>  <PUBCHEM_BOND_DEF_STEREO_COUNT>  (1) 
0

>  <PUBCHEM_BOND_UDEF_STEREO_COUNT>  (1) 
0

>  <PUBCHEM_ISOTOPIC_ATOM_COUNT>  (1) 
0

>  <PUBCHEM_COMPONENT_COUNT>  (1) 
1

>  <PUBCHEM_CACTVS_TAUTO_COUNT>  (1) 
5

>  <PUBCHEM_CONFORMER_ID>  (1) 
0000614F00000002

>  <PUBCHEM_MMFF94_ENERGY>  (1) 
26.2318

>  <PUBCHEM_FEATURE_SELFOVERLAP>  (1) 
40.656

>  <PUBCHEM_SHAPE_FINGERPRINT>  (1) 
11206711 2 17969204806700140079
12138202 97 18409443665823702574
12423570 1 12723964236491348699
13024252 1 16805614676027669633
13380535 220 18117837922419163965
14614273 12 17822848671812953020
14993402 34 18339911676376321039
15775835 57 17749389230720045004
16945 1 18342181046226039241
19837323 101 18126578811831343840
20201158 50 18343586230987521070
20511035 2 14799509927263173387
20645476 183 17168147836087051035
20871999 31 18337673143099727095
21501502 16 18049442840015128629
22213442 358 18126564750261150646
23402539 116 18340757166104999012
23419403 2 16967675165142564060
23557571 272 18269560597230281646
23559900 14 18409725176114809952
241688 4 15384411930943827313
2748010 2 17827625174189630393
353137 74 18262799545074415065
449060 23 18123459742573515999
53812653 8 18263359188156343105
53812654 72 17844267309015299499
81228 2 18199762370332824216

>  <PUBCHEM_SHAPE_MULTIPOLES>  (1) 
271.59
4.48
2.47
1.2
2.6
0.09
0.06
-1.65
-1.3
-1.52
0.12
0.11
-0.19
0.29

>  <PUBCHEM_SHAPE_SELFOVERLAP>  (1) 
529.83

>  <PUBCHEM_SHAPE_VOLUME>  (1) 
167.8

>  <PUBCHEM_COORDINATE_TYPE>  (1) 
2
5
10

$$$$
