2491
     RDKit          3D

 23 24  0  0  1  0  0  0  0  0999 V2000
    3.2461   -4.1284    0.5493 F   0  0  0  0  0  0  0  0  0  0  0  0
    3.2393    1.2742   -0.4277 O   0  0  0  0  0  0  0  0  0  0  0  0
   -2.8184   -2.1602    0.0199 O   0  0  0  0  0  0  0  0  0  0  0  0
   -5.5156    0.1193    0.6307 O   0  0  0  0  0  0  0  0  0  0  0  0
   -3.6638   -1.0451   -0.0775 N   0  0  0  0  0  0  0  0  0  0  0  0
   -4.9971   -1.8616    1.6379 N   0  0  0  0  0  0  0  0  0  0  0  0
   -3.2482   -0.1129   -1.0972 C   0  0  0  0  0  0  0  0  0  0  0  0
   -1.8708    0.3816   -0.7504 C   0  0  0  0  0  0  0  0  0  0  0  0
   -3.2723   -0.7746   -2.4693 C   0  0  0  0  0  0  0  0  0  0  0  0
   -0.2736    2.1952   -0.1088 C   0  0  0  0  0  0  0  0  0  0  0  0
   -1.6005    1.6655   -0.4646 C   0  0  0  0  0  0  0  0  0  0  0  0
    0.8600    1.4718   -0.4446 C   0  0  0  0  0  0  0  0  0  0  0  0
    2.1167    1.9739   -0.1065 C   0  0  0  0  0  0  0  0  0  0  0  0
   -0.1827    3.4077    0.5565 C   0  0  0  0  0  0  0  0  0  0  0  0
    2.2236    3.1931    0.5630 C   0  0  0  0  0  0  0  0  0  0  0  0
    1.0738    3.9098    0.8946 C   0  0  0  0  0  0  0  0  0  0  0  0
   -4.7718   -0.8599    0.7152 C   0  0  0  0  0  0  0  0  0  0  0  0
    3.2407   -0.0885   -0.1814 C   0  0  0  0  0  0  0  0  0  0  0  0
    2.7586   -0.5549    1.0281 C   0  0  0  0  0  0  0  0  0  0  0  0
    3.7246   -0.9477   -1.1512 C   0  0  0  0  0  0  0  0  0  0  0  0
    2.7606   -1.9275    1.2763 C   0  0  0  0  0  0  0  0  0  0  0  0
    3.7265   -2.3204   -0.9031 C   0  0  0  0  0  0  0  0  0  0  0  0
    3.2444   -2.8104    0.3108 C   0  0  0  0  0  0  0  0  0  0  0  0
  1 23  1  0
  2 13  1  0
  2 18  1  0
  3  5  1  0
  4 17  2  0
  5  7  1  0
  5 17  1  0
  6 17  1  0
  7  8  1  0
  7  9  1  0
  8 11  2  0
 10 11  1  0
 10 12  2  0
 10 14  1  0
 12 13  1  0
 13 15  2  0
 14 16  2  0
 15 16  1  0
 18 19  2  0
 18 20  1  0
 19 21  1  0
 20 22  2  0
 21 23  2  0
 22 23  1  0
M  END
>  <PUBCHEM_COMPOUND_CID>  (1) 
2491

>  <PUBCHEM_CONFORMER_RMSD>  (1) 
0.8

>  <PUBCHEM_CONFORMER_DIVERSEORDER>  (1) 
7
386
179
167
107
246
142
116
205
390
392
244
397
238
166
222
363
114
357
243
28
329
53
118
298
314
231
281
232
268
5
255
45
331
364
302
343
277
186
70
349
61
377
74
348
230
320
144
126
337
265
26
132
233
241
68
81
12
315
212
361
6
339
372
41
374
210
158
42
365
304
237
284
321
293
297
76
24
20
193
92
82
172
139
208
51
308
63
38
94
85
4
157
206
252
154
289
150
344
17
354
323
102
18
115
151
261
3
159
242
225
129
330
195
190
57
256
86
29
168
240
194
21
99
162
367
25
371
369
221
105
169
165
370
184
80
311
58
77
149
285
235
318
378
188
101
375
31
90
291
30
389
124
393
245
69
13
218
37
56
196
201
36
340
199
174
239
59
257
278
338
203
180
219
87
258
224
84
22
97
164
328
300
11
215
108
387
209
145
322
110
279
383
376
127
356
189
55
270
187
346
182
98
306
156
317
351
93
197
204
326
269
382
355
353
83
113
52
100
394
161
16
275
109
14
147
254
125
89
103
274
234
75
336
23
352
287
73
366
175
131
155
10
48
60
262
19
217
177
309
122
368
305
176
247
170
347
288
137
33
95
47
263
198
143
135
251
120
303
44
292
335
341
130
342
78
283
250
310
220
46
123
236
273
295
313
88
312
307
8
136
373
249
1
112
66
27
299
271
379
141
54
160
301
185
294
226
152
71
191
200
360
104
316
223
325
62
134
359
34
65
385
396
128
388
380
332
327
173
2
121
211
260
384
119
381
72
216
40
319
213
111
248
214
183
171
395
202
117
146
272
153
35
227
32
266
207
49
133
264
267
334
345
15
67
140
228
43
333
229
64
358
181
106
280
391
296
148
362
286
50
350
91
163
259
290
276
178
9
192
96
138
79
253
324
282
39

>  <PUBCHEM_MMFF94_PARTIAL_CHARGES>  (1) 
35
1 -0.19
10 0.03
11 -0.18
12 -0.15
13 0.08
14 -0.15
15 -0.15
16 -0.15
17 0.69
18 0.08
19 -0.15
2 -0.17
20 -0.15
21 -0.15
22 -0.15
23 0.19
25 0.15
29 0.15
3 -0.44
30 0.15
31 0.15
32 0.15
33 0.15
34 0.15
35 0.15
36 0.4
37 0.15
38 0.15
39 0.37
4 -0.57
40 0.37
5 -0.32
6 -0.8
7 0.44
8 -0.29

>  <PUBCHEM_EFFECTIVE_ROTOR_COUNT>  (1) 
6

>  <PUBCHEM_PHARMACOPHORE_FEATURES>  (1) 
5
1 2 acceptor
1 4 acceptor
1 6 donor
6 10 12 13 14 15 16 rings
6 18 19 20 21 22 23 rings

>  <PUBCHEM_HEAVY_ATOM_COUNT>  (1) 
23

>  <PUBCHEM_ATOM_DEF_STEREO_COUNT>  (1) 
0

>  <PUBCHEM_ATOM_UDEF_STEREO_COUNT>  (1) 
1

>  <PUBCHEM_BOND_DEF_STEREO_COUNT>  (1) 
0

>  <PUBCHEM_BOND_UDEF_STEREO_COUNT>  (1) 
1

>  <PUBCHEM_ISOTOPIC_ATOM_COUNT>  (1) 
0

>  <PUBCHEM_COMPONENT_COUNT>  (1) 
1

>  <PUBCHEM_CACTVS_TAUTO_COUNT>  (1) 
2

>  <PUBCHEM_CONFORMER_ID>  (1) 
000009BB00000007

>  <PUBCHEM_MMFF94_ENERGY>  (1) 
66.8668

>  <PUBCHEM_FEATURE_SELFOVERLAP>  (1) 
25.372

>  <PUBCHEM_SHAPE_FINGERPRINT>  (1) 
114674 6 18262798604613786186
12107183 9 18199764561551973097
12553582 1 18341888576296600886
13402501 40 17969508297309886826
13533116 47 18197217160666776975
13631057 29 18266467512513818022
14251757 17 17967807250069328707
14848160 33 18336252492509042054
14863182 85 18265050409350640644
14866123 147 17691686688901682937
14957384 54 10519687965770132534
15537594 2 18272093828701766190
17818456 19 17632589219072858033
20291156 8 18339359656692791684
20645477 70 18196070339336004261
20775530 9 18266733598100668894
21315759 227 18113609092939803282
21421861 104 18341331175399338640
23184049 29 18268701711161549700
235170 7 16877939455654544543
3117164 225 18341625780797701817
314173 41 18410859871207462964
3421961 26 18412265064100157673
345986 75 17988928855649144649
3737641 26 18410301323600827148
5309563 4 18412267203184047911
5486654 36 18338524014812732385
613672 6 18193816185890906578
6433294 58 18336264638555300746
7097593 13 18200312263954755237
79837 15 16686242090260026993
86090 222 17387706135389875859
88748 71 18189618233068158318

>  <PUBCHEM_SHAPE_MULTIPOLES>  (1) 
438.49
9.8
4.78
1.42
10.78
1.68
0.38
-8.8
-1.16
-4.53
-1.52
1.08
-0.67
0.44

>  <PUBCHEM_SHAPE_SELFOVERLAP>  (1) 
932.05

>  <PUBCHEM_SHAPE_VOLUME>  (1) 
245.9

>  <PUBCHEM_COORDINATE_TYPE>  (1) 
2
5
10

$$$$
