24921
     RDKit          3D

 18 17  0  0  0  0  0  0  0  0999 V2000
    2.9143    0.1201   -0.0233 O   0  0  0  0  0  0  0  0  0  0  0  0
   -2.9062   -0.1259   -0.0228 O   0  0  0  0  0  0  0  0  0  0  0  0
    1.7353   -1.8669   -0.0256 O   0  0  0  0  0  0  0  0  0  0  0  0
   -1.7359    1.8660   -0.0258 O   0  0  0  0  0  0  0  0  0  0  0  0
    6.6497   -0.2833   -0.0008 C   0  0  0  0  0  0  0  0  0  0  0  0
   -6.6506    0.2851   -0.0010 C   0  0  0  0  0  0  0  0  0  0  0  0
    5.2907    0.4131   -0.0189 C   0  0  0  0  0  0  0  0  0  0  0  0
   -5.2921   -0.4122   -0.0186 C   0  0  0  0  0  0  0  0  0  0  0  0
    7.7933    0.7297    0.0440 C   0  0  0  0  0  0  0  0  0  0  0  0
   -7.7947   -0.7272    0.0441 C   0  0  0  0  0  0  0  0  0  0  0  0
    4.1453   -0.5892   -0.0211 C   0  0  0  0  0  0  0  0  0  0  0  0
   -4.1460    0.5895   -0.0211 C   0  0  0  0  0  0  0  0  0  0  0  0
    9.1471    0.0398    0.0962 C   0  0  0  0  0  0  0  0  0  0  0  0
   -9.1482   -0.0364    0.0958 C   0  0  0  0  0  0  0  0  0  0  0  0
    1.7854   -0.6472   -0.0253 C   0  0  0  0  0  0  0  0  0  0  0  0
   -1.7863    0.6463   -0.0251 C   0  0  0  0  0  0  0  0  0  0  0  0
    0.6159    0.2592   -0.0257 C   0  0  0  0  0  0  0  0  0  0  0  0
   -0.6170   -0.2605   -0.0253 C   0  0  0  0  0  0  0  0  0  0  0  0
  1 11  1  0
  1 15  1  0
  2 12  1  0
  2 16  1  0
  3 15  2  0
  4 16  2  0
  5  7  1  0
  5  9  1  0
  6  8  1  0
  6 10  1  0
  7 11  1  0
  8 12  1  0
  9 13  1  0
 10 14  1  0
 15 17  1  0
 16 18  1  0
 17 18  2  0
M  END
>  <PUBCHEM_COMPOUND_CID>  (1) 
24921

>  <PUBCHEM_CONFORMER_RMSD>  (1) 
1

>  <PUBCHEM_CONFORMER_DIVERSEORDER>  (1) 
1
61
69
60
20
10
45
38
55
36
3
59
6
34
67
48
30
24
19
13
47
44
46
11
73
41
75
54
51
40
2
65
49
64
7
5
28
12
43
62
23
9
80
35
17
42
25
37
81
72
27
52
68
50
58
31
71
78
22
74
77
32
33
29
56
66
79
53
21
16
63
18
57
26
76
39
14
4
70
15
8

>  <PUBCHEM_MMFF94_PARTIAL_CHARGES>  (1) 
12
1 -0.43
11 0.28
12 0.28
15 0.71
16 0.71
17 -0.14
18 -0.14
2 -0.43
3 -0.57
4 -0.57
41 0.15
42 0.15

>  <PUBCHEM_EFFECTIVE_ROTOR_COUNT>  (1) 
12

>  <PUBCHEM_PHARMACOPHORE_FEATURES>  (1) 
4
1 13 hydrophobe
1 14 hydrophobe
1 3 acceptor
1 4 acceptor

>  <PUBCHEM_HEAVY_ATOM_COUNT>  (1) 
18

>  <PUBCHEM_ATOM_DEF_STEREO_COUNT>  (1) 
0

>  <PUBCHEM_ATOM_UDEF_STEREO_COUNT>  (1) 
0

>  <PUBCHEM_BOND_DEF_STEREO_COUNT>  (1) 
0

>  <PUBCHEM_BOND_UDEF_STEREO_COUNT>  (1) 
1

>  <PUBCHEM_ISOTOPIC_ATOM_COUNT>  (1) 
0

>  <PUBCHEM_COMPONENT_COUNT>  (1) 
1

>  <PUBCHEM_CACTVS_TAUTO_COUNT>  (1) 
1

>  <PUBCHEM_CONFORMER_ID>  (1) 
0000615900000001

>  <PUBCHEM_MMFF94_ENERGY>  (1) 
12.976

>  <PUBCHEM_FEATURE_SELFOVERLAP>  (1) 
20.298

>  <PUBCHEM_SHAPE_FINGERPRINT>  (1) 
10968037 39 18411136935954224567
11315181 36 18272936021267060969
11638347 137 16732698334018813890
13533116 47 17095793335555371632
14123256 10 18410575088958046214
14251764 46 17894630357600016187
14428016 248 18410300219652287892
155225 1 18337110164448156420
18006028 8 18272932726684526097
18335252 98 18272936002969041582
20621476 8 10592045747598453570
21095086 128 16845855685007752654
22224240 67 18113899373047824850
22896161 15 18410855460128161799
232437 2 18410012135116151314
23521765 1 18341895194640646157
246663 6 17632861931656381613
28498 318 9295293841665739408
33684 2 18410573985151451138
4325135 7 18410575088963321229
559249 180 10809353242976997777
59682541 35 18410574015216222675
67123 10 18410855477308030991
8209 1 18410575088958046213

>  <PUBCHEM_SHAPE_MULTIPOLES>  (1) 
346.95
29.73
1.08
0.6
0.03
0
0
-0.03
1.08
0
-0.01
0
0
0.04

>  <PUBCHEM_SHAPE_SELFOVERLAP>  (1) 
651.746

>  <PUBCHEM_SHAPE_VOLUME>  (1) 
215.4

>  <PUBCHEM_COORDINATE_TYPE>  (1) 
2
5
10

$$$$
