24944
     RDKit          3D

 22 23  0  0  0  0  0  0  0  0999 V2000
   -1.7953   -2.1768    0.4884 O   0  0  0  0  0  0  0  0  0  0  0  0
   -1.7652    2.1885   -0.4668 O   0  0  0  0  0  0  0  0  0  0  0  0
    1.0948   -2.4748   -0.9954 O   0  0  0  0  0  0  0  0  0  0  0  0
    1.1359    2.6242    1.1043 O   0  0  0  0  0  0  0  0  0  0  0  0
   -3.5308   -3.0588   -0.7555 O   0  0  0  0  0  0  0  0  0  0  0  0
   -3.5827    3.0072    0.7010 O   0  0  0  0  0  0  0  0  0  0  0  0
    1.0737   -1.2832   -0.5252 N   0  0  0  0  0  0  0  0  0  0  0  0
    1.1274    1.2992    0.5625 N   0  0  0  0  0  0  0  0  0  0  0  0
   -0.1843   -0.5765   -0.2392 C   0  0  0  0  0  0  0  0  0  0  0  0
   -0.0998    0.6626    0.2974 C   0  0  0  0  0  0  0  0  0  0  0  0
    2.3591   -0.6387   -0.2680 C   0  0  0  0  0  0  0  0  0  0  0  0
    2.3642    0.6538    0.2783 C   0  0  0  0  0  0  0  0  0  0  0  0
   -1.3858   -1.3888   -0.6145 C   0  0  0  0  0  0  0  0  0  0  0  0
   -1.3660    1.4281    0.6494 C   0  0  0  0  0  0  0  0  0  0  0  0
    3.5515   -1.3143   -0.5661 C   0  0  0  0  0  0  0  0  0  0  0  0
    3.6182    1.2492    0.5190 C   0  0  0  0  0  0  0  0  0  0  0  0
    4.7756   -0.7003   -0.3181 C   0  0  0  0  0  0  0  0  0  0  0  0
    4.8094    0.5792    0.2241 C   0  0  0  0  0  0  0  0  0  0  0  0
   -2.8903   -2.9742    0.2837 C   0  0  0  0  0  0  0  0  0  0  0  0
   -2.9015    2.9443   -0.3135 C   0  0  0  0  0  0  0  0  0  0  0  0
   -3.2056   -3.7461    1.5289 C   0  0  0  0  0  0  0  0  0  0  0  0
   -3.2028    3.6961   -1.5745 C   0  0  0  0  0  0  0  0  0  0  0  0
  1 13  1  0
  1 19  1  0
  2 14  1  0
  2 20  1  0
  3  7  2  0
  4  8  1  0
  5 19  2  0
  6 20  2  0
  7  9  1  0
  7 11  1  0
  8 10  1  0
  8 12  1  0
  9 10  2  0
  9 13  1  0
 10 14  1  0
 11 12  2  0
 11 15  1  0
 12 16  1  0
 15 17  2  0
 16 18  2  0
 17 18  1  0
 19 21  1  0
 20 22  1  0
M  CHG  2   4  -1   7   1
M  END
>  <PUBCHEM_COMPOUND_CID>  (1) 
24944

>  <PUBCHEM_CONFORMER_RMSD>  (1) 
0.8

>  <PUBCHEM_CONFORMER_DIVERSEORDER>  (1) 
1
17
15
21
11
23
3
20
14
13
27
12
19
22
25
8
16
24
5
9
7
26
6
18
4
2
10

>  <PUBCHEM_MMFF94_PARTIAL_CHARGES>  (1) 
26
1 -0.43
10 -0.17
11 -0.03
12 -0.03
13 0.42
14 0.42
15 -0.15
16 -0.15
17 -0.15
18 -0.15
19 0.66
2 -0.43
20 0.66
21 0.06
22 0.06
27 0.15
28 0.15
29 0.15
3 -0.63
30 0.15
4 -0.86
5 -0.57
6 -0.57
7 0.7
8 -0.08
9 -0.17

>  <PUBCHEM_EFFECTIVE_ROTOR_COUNT>  (1) 
6

>  <PUBCHEM_PHARMACOPHORE_FEATURES>  (1) 
5
1 4 anion
1 5 acceptor
1 6 acceptor
6 11 12 15 16 17 18 rings
6 7 8 9 10 11 12 rings

>  <PUBCHEM_HEAVY_ATOM_COUNT>  (1) 
22

>  <PUBCHEM_ATOM_DEF_STEREO_COUNT>  (1) 
0

>  <PUBCHEM_ATOM_UDEF_STEREO_COUNT>  (1) 
0

>  <PUBCHEM_BOND_DEF_STEREO_COUNT>  (1) 
0

>  <PUBCHEM_BOND_UDEF_STEREO_COUNT>  (1) 
0

>  <PUBCHEM_ISOTOPIC_ATOM_COUNT>  (1) 
0

>  <PUBCHEM_COMPONENT_COUNT>  (1) 
1

>  <PUBCHEM_CACTVS_TAUTO_COUNT>  (1) 
1

>  <PUBCHEM_CONFORMER_ID>  (1) 
0000617000000001

>  <PUBCHEM_MMFF94_ENERGY>  (1) 
60.7466

>  <PUBCHEM_FEATURE_SELFOVERLAP>  (1) 
25.394

>  <PUBCHEM_SHAPE_FINGERPRINT>  (1) 
10688039 33 18191589850869591643
108634 29 18342177722053377335
1100329 8 17904477403155443546
12730499 353 17758962520162068397
12788726 201 18189611825377659082
13052359 8 18336261237067581913
13134695 92 17832702748920310071
13140716 1 18267873972126225633
13540713 4 18201719557618577272
13583140 156 17677627375514724304
14363568 33 17326905474366770293
14790565 3 16609698510250197793
14955137 171 16966614243801353904
15420108 30 14532711532460673400
15885798 251 18193282012128762923
16945 1 17984410004866965118
17357779 13 18269541909495462743
19427546 20 18335712658644523580
20739085 24 17834978724941146891
21033648 29 18193266395680967696
21041028 32 18120939661658486991
21641784 216 18117575134703305700
22182313 1 17988932171659101086
23419403 2 17273964903858208033
23558518 356 18260552255345493512
23559900 14 18129097828416876822
25 1 18126840487183179068
2748010 2 18202563978032215428
350125 39 18270403931186564296
352729 6 18129667379159921694
3759504 43 18263643961599293925
4058900 60 17761224210477989956
5104073 3 18343015593770621346
59554788 170 18053105317827073884
59755656 520 18117273666437092726
633830 44 17626386714697706533
7164475 11 18335706112729398388
81228 2 18262514909518752449
9709674 26 18272371923739940998
9925002 15 18042421255913441557
9981440 41 16551656163192730856

>  <PUBCHEM_SHAPE_MULTIPOLES>  (1) 
407.57
8.16
4.96
1.08
5.55
0.12
0
0.08
0.15
-9.26
-0.02
-0.63
-0.04
1.95

>  <PUBCHEM_SHAPE_SELFOVERLAP>  (1) 
851.079

>  <PUBCHEM_SHAPE_VOLUME>  (1) 
228.7

>  <PUBCHEM_COORDINATE_TYPE>  (1) 
2
5
10

$$$$
