24955
     RDKit          3D

  7  7  0  0  0  0  0  0  0  0999 V2000
   -2.5592    0.3328    0.0007 O   0  0  0  0  0  0  0  0  0  0  0  0
    0.7630   -1.1180    0.0000 N   0  0  0  0  0  0  0  0  0  0  0  0
    0.1960    1.0293   -0.0003 N   0  0  0  0  0  0  0  0  0  0  0  0
   -0.2551   -0.2054   -0.0007 C   0  0  0  0  0  0  0  0  0  0  0  0
    1.9381   -0.4206    0.0006 C   0  0  0  0  0  0  0  0  0  0  0  0
    1.5625    0.9022    0.0000 C   0  0  0  0  0  0  0  0  0  0  0  0
   -1.6454   -0.5203   -0.0004 C   0  0  0  0  0  0  0  0  0  0  0  0
  1  7  2  0
  2  4  1  0
  2  5  1  0
  3  4  2  0
  3  6  1  0
  4  7  1  0
  5  6  2  0
M  END
>  <PUBCHEM_COMPOUND_CID>  (1) 
24955

>  <PUBCHEM_CONFORMER_RMSD>  (1) 
0.4

>  <PUBCHEM_CONFORMER_DIVERSEORDER>  (1) 
1

>  <PUBCHEM_MMFF94_PARTIAL_CHARGES>  (1) 
11
1 -0.57
10 0.15
11 0.06
2 0.03
3 -0.57
4 0.1
5 -0.3
6 0.08
7 0.59
8 0.27
9 0.15

>  <PUBCHEM_EFFECTIVE_ROTOR_COUNT>  (1) 
1

>  <PUBCHEM_PHARMACOPHORE_FEATURES>  (1) 
4
1 1 acceptor
1 2 donor
3 2 3 4 cation
5 2 3 4 5 6 rings

>  <PUBCHEM_HEAVY_ATOM_COUNT>  (1) 
7

>  <PUBCHEM_ATOM_DEF_STEREO_COUNT>  (1) 
0

>  <PUBCHEM_ATOM_UDEF_STEREO_COUNT>  (1) 
0

>  <PUBCHEM_BOND_DEF_STEREO_COUNT>  (1) 
0

>  <PUBCHEM_BOND_UDEF_STEREO_COUNT>  (1) 
0

>  <PUBCHEM_ISOTOPIC_ATOM_COUNT>  (1) 
0

>  <PUBCHEM_COMPONENT_COUNT>  (1) 
1

>  <PUBCHEM_CACTVS_TAUTO_COUNT>  (1) 
3

>  <PUBCHEM_CONFORMER_ID>  (1) 
0000617B00000001

>  <PUBCHEM_MMFF94_ENERGY>  (1) 
2.0167

>  <PUBCHEM_FEATURE_SELFOVERLAP>  (1) 
20.297

>  <PUBCHEM_SHAPE_FINGERPRINT>  (1) 
20096714 4 18339924942823409828
21040471 1 18266741479170218180
29004967 10 18334581234739727554
5460574 1 9295292741911362435

>  <PUBCHEM_SHAPE_MULTIPOLES>  (1) 
128.23
2.84
1.08
0.58
1.25
0.02
0
0.13
0
-0.28
0
-0.03
-0.01
0

>  <PUBCHEM_SHAPE_SELFOVERLAP>  (1) 
265.08

>  <PUBCHEM_SHAPE_VOLUME>  (1) 
74.4

>  <PUBCHEM_COORDINATE_TYPE>  (1) 
2
5
10

$$$$
