24961
     RDKit          3D

 18 19  0  0  0  0  0  0  0  0999 V2000
    3.3495    1.9259   -0.3833 O   0  0  0  0  0  0  0  0  0  0  0  0
    4.6312   -0.5482    0.0079 N   0  0  0  0  0  0  0  0  0  0  0  0
   -0.9218   -0.2412   -0.6486 N   0  0  0  0  0  0  0  0  0  0  0  0
   -1.4783   -0.1026    0.4661 N   0  0  0  0  0  0  0  0  0  0  0  0
    3.2318   -0.4597   -0.1582 C   0  0  0  0  0  0  0  0  0  0  0  0
    2.6165    0.7772   -0.3511 C   0  0  0  0  0  0  0  0  0  0  0  0
    0.4720   -0.3143   -0.4842 C   0  0  0  0  0  0  0  0  0  0  0  0
    2.4638   -1.6238   -0.1288 C   0  0  0  0  0  0  0  0  0  0  0  0
    1.2333    0.8500   -0.5146 C   0  0  0  0  0  0  0  0  0  0  0  0
    1.0805   -1.5509   -0.2921 C   0  0  0  0  0  0  0  0  0  0  0  0
    5.2560   -1.5697    0.7885 C   0  0  0  0  0  0  0  0  0  0  0  0
   -2.8650   -0.0295    0.3029 C   0  0  0  0  0  0  0  0  0  0  0  0
   -3.6331   -1.1934    0.3327 C   0  0  0  0  0  0  0  0  0  0  0  0
   -3.4804    1.2074    0.1103 C   0  0  0  0  0  0  0  0  0  0  0  0
    3.5561    2.5970    0.8577 C   0  0  0  0  0  0  0  0  0  0  0  0
   -5.0166   -1.1206    0.1698 C   0  0  0  0  0  0  0  0  0  0  0  0
   -4.8637    1.2803   -0.0523 C   0  0  0  0  0  0  0  0  0  0  0  0
   -5.6318    0.1163   -0.0227 C   0  0  0  0  0  0  0  0  0  0  0  0
  1  6  1  0
  1 15  1  0
  2  5  1  0
  2 11  1  0
  3  4  2  0
  3  7  1  0
  4 12  1  0
  5  6  2  0
  5  8  1  0
  6  9  1  0
  7  9  2  0
  7 10  1  0
  8 10  2  0
 12 13  2  0
 12 14  1  0
 13 16  1  0
 14 17  2  0
 16 18  2  0
 17 18  1  0
M  END
>  <PUBCHEM_COMPOUND_CID>  (1) 
24961

>  <PUBCHEM_CONFORMER_RMSD>  (1) 
0.6

>  <PUBCHEM_CONFORMER_DIVERSEORDER>  (1) 
1
12
4
15
3
10
6
7
8
14
13
9
2
5
11

>  <PUBCHEM_MMFF94_PARTIAL_CHARGES>  (1) 
27
1 -0.36
10 -0.15
11 0.37
12 0.18
13 -0.15
14 -0.15
15 0.28
16 -0.15
17 -0.15
18 -0.15
19 0.15
2 -0.87
20 0.15
21 0.15
22 0.4
26 0.15
27 0.15
3 -0.18
31 0.15
32 0.15
33 0.15
4 -0.18
5 0.1
6 0.08
7 0.18
8 -0.15
9 -0.15

>  <PUBCHEM_EFFECTIVE_ROTOR_COUNT>  (1) 
4

>  <PUBCHEM_PHARMACOPHORE_FEATURES>  (1) 
5
1 1 acceptor
1 2 cation
1 2 donor
6 12 13 14 16 17 18 rings
6 5 6 7 8 9 10 rings

>  <PUBCHEM_HEAVY_ATOM_COUNT>  (1) 
18

>  <PUBCHEM_ATOM_DEF_STEREO_COUNT>  (1) 
0

>  <PUBCHEM_ATOM_UDEF_STEREO_COUNT>  (1) 
0

>  <PUBCHEM_BOND_DEF_STEREO_COUNT>  (1) 
0

>  <PUBCHEM_BOND_UDEF_STEREO_COUNT>  (1) 
0

>  <PUBCHEM_ISOTOPIC_ATOM_COUNT>  (1) 
0

>  <PUBCHEM_COMPONENT_COUNT>  (1) 
1

>  <PUBCHEM_CACTVS_TAUTO_COUNT>  (1) 
2

>  <PUBCHEM_CONFORMER_ID>  (1) 
0000618100000001

>  <PUBCHEM_MMFF94_ENERGY>  (1) 
70.9327

>  <PUBCHEM_FEATURE_SELFOVERLAP>  (1) 
25.371

>  <PUBCHEM_SHAPE_FINGERPRINT>  (1) 
10937287 8 17031369917096009756
11089746 13 18411129204596412557
11405975 8 18408326575110866923
12107183 9 17688873034313904769
12236239 1 17989485208142415151
12507557 5 18343581824103207553
12616971 3 18060698407641828631
13167823 11 18410292519250420023
13911852 28 18045492011749411778
15196674 1 18410294731047612789
15475509 35 16878488065582453568
15527383 91 18334855000761786348
15788980 27 18343019995415818607
17834072 33 18412826906310459375
17844677 252 18411708681721366033
18222031 100 16008746939627940911
19050596 39 18411985754192814615
19433438 28 18114185233354780729
19784866 140 12468637180014569010
200 152 18344145878364318599
20645477 56 18188494567414643869
20645477 70 18341618096241223046
21065198 57 18408044017744530931
21065201 7 17313103060010716409
21267235 1 18410303492691329799
21315763 129 18410572864555604421
21452121 103 18341042012921440768
21637258 2 15936678273955653858
21709351 56 18411976944956415223
23402539 116 18408037395342641775
23557571 272 12607406568099317427
23559900 14 18334295383217702969
26918003 58 18409730647296639467
351380 180 18408885126870064307
3545911 37 18335707130979324261
42 15 18261115157959374463
4214541 1 18408605829911316517
465052 167 18261114050206471866
474 4 18115030834483771525
5104073 3 18410017654233192265
542803 24 17240208724586304703
67856867 119 18413102883423043569
77779 3 18410578383788818991
9709674 26 18410584968011321615
9971528 1 17748828539777198388
9999458 23 18260267460718012686

>  <PUBCHEM_SHAPE_MULTIPOLES>  (1) 
349.62
12.79
2.04
0.77
7.12
0.85
-0.04
-0.43
-1.95
-2.12
-0.32
-0.32
0.05
0.11

>  <PUBCHEM_SHAPE_SELFOVERLAP>  (1) 
742.135

>  <PUBCHEM_SHAPE_VOLUME>  (1) 
196.3

>  <PUBCHEM_COORDINATE_TYPE>  (1) 
2
5
10

$$$$
