24969
     RDKit          3D

 24 24  0  0  0  0  0  0  0  0999 V2000
   -2.4971    1.5306    0.0241 P   0  0  0  0  0  0  0  0  0  0  0  0
   -2.6655   -1.3815    0.2264 P   0  0  0  0  0  0  0  0  0  0  0  0
    0.1188    2.8734   -0.1112 P   0  0  0  0  0  0  0  0  0  0  0  0
   -0.1033   -2.8010   -0.2089 P   0  0  0  0  0  0  0  0  0  0  0  0
    2.6049    1.3333   -0.0005 P   0  0  0  0  0  0  0  0  0  0  0  0
    2.5207   -1.6069    0.2864 P   0  0  0  0  0  0  0  0  0  0  0  0
   -1.9138    0.0487    0.3104 O   0  0  0  0  0  0  0  0  0  0  0  0
   -1.3228    2.5184    0.5193 O   0  0  0  0  0  0  0  0  0  0  0  0
   -1.5046   -2.4614    0.5117 O   0  0  0  0  0  0  0  0  0  0  0  0
    1.0231    1.5776    0.2298 O   0  0  0  0  0  0  0  0  0  0  0  0
    0.9027   -1.6460    0.3105 O   0  0  0  0  0  0  0  0  0  0  0  0
    2.8889   -0.0921    0.6964 O   0  0  0  0  0  0  0  0  0  0  0  0
   -3.6298    1.7070    1.1651 O   0  0  0  0  0  0  0  0  0  0  0  0
   -2.9679   -1.5506   -1.3532 O   0  0  0  0  0  0  0  0  0  0  0  0
    0.6830    4.0043    0.8979 O   0  0  0  0  0  0  0  0  0  0  0  0
    0.3942   -4.1161    0.5917 O   0  0  0  0  0  0  0  0  0  0  0  0
    3.2933    2.3822    1.0203 O   0  0  0  0  0  0  0  0  0  0  0  0
    2.8724   -1.6751   -1.2905 O   0  0  0  0  0  0  0  0  0  0  0  0
   -2.9782    1.7579   -1.3790 O   0  0  0  0  0  0  0  0  0  0  0  0
   -3.8719   -1.5030    1.1109 O   0  0  0  0  0  0  0  0  0  0  0  0
    0.0915    3.2766   -1.5560 O   0  0  0  0  0  0  0  0  0  0  0  0
   -0.1777   -2.9680   -1.6980 O   0  0  0  0  0  0  0  0  0  0  0  0
    3.0590    1.4571   -1.4253 O   0  0  0  0  0  0  0  0  0  0  0  0
    3.1800   -2.6653    1.1216 O   0  0  0  0  0  0  0  0  0  0  0  0
  1  7  1  0
  1  8  1  0
  1 13  1  0
  1 19  2  0
  2  7  1  0
  2  9  1  0
  2 14  1  0
  2 20  2  0
  3  8  1  0
  3 10  1  0
  3 15  1  0
  3 21  2  0
  4  9  1  0
  4 11  1  0
  4 16  1  0
  4 22  2  0
  5 10  1  0
  5 12  1  0
  5 17  1  0
  5 23  2  0
  6 11  1  0
  6 12  1  0
  6 18  1  0
  6 24  2  0
M  END
>  <PUBCHEM_COMPOUND_CID>  (1) 
24969

>  <PUBCHEM_CONFORMER_RMSD>  (1) 
0.6

>  <PUBCHEM_CONFORMER_DIVERSEORDER>  (1) 
1
3
10
7
6
5
8
11
4
2
9

>  <PUBCHEM_MMFF94_PARTIAL_CHARGES>  (1) 
30
1 1.51
10 -0.54
11 -0.54
12 -0.54
13 -0.77
14 -0.77
15 -0.77
16 -0.77
17 -0.77
18 -0.77
19 -0.7
2 1.51
20 -0.7
21 -0.7
22 -0.7
23 -0.7
24 -0.7
25 0.5
26 0.5
27 0.5
28 0.5
29 0.5
3 1.51
30 0.5
4 1.51
5 1.51
6 1.51
7 -0.54
8 -0.54
9 -0.54

>  <PUBCHEM_EFFECTIVE_ROTOR_COUNT>  (1) 
1.2

>  <PUBCHEM_PHARMACOPHORE_FEATURES>  (1) 
12
1 13 acceptor
1 14 acceptor
1 15 acceptor
1 16 acceptor
1 17 acceptor
1 18 acceptor
1 19 acceptor
1 20 acceptor
1 21 acceptor
1 22 acceptor
1 23 acceptor
1 24 acceptor

>  <PUBCHEM_HEAVY_ATOM_COUNT>  (1) 
24

>  <PUBCHEM_ATOM_DEF_STEREO_COUNT>  (1) 
0

>  <PUBCHEM_ATOM_UDEF_STEREO_COUNT>  (1) 
0

>  <PUBCHEM_BOND_DEF_STEREO_COUNT>  (1) 
0

>  <PUBCHEM_BOND_UDEF_STEREO_COUNT>  (1) 
0

>  <PUBCHEM_ISOTOPIC_ATOM_COUNT>  (1) 
0

>  <PUBCHEM_COMPONENT_COUNT>  (1) 
1

>  <PUBCHEM_CACTVS_TAUTO_COUNT>  (1) 
1

>  <PUBCHEM_CONFORMER_ID>  (1) 
0000618900000001

>  <PUBCHEM_MMFF94_ENERGY>  (1) 
-73.1823

>  <PUBCHEM_FEATURE_SELFOVERLAP>  (1) 
60.981

>  <PUBCHEM_SHAPE_FINGERPRINT>  (1) 
12038231 1 18266458715476524082
12156800 1 15533801948275028793
12539773 59 17343489017353822369
12553582 1 18194686096914106993
12596599 1 17845081875200596247
12633257 1 18122628249446501299
13122387 1 18122344566777452896
13140716 1 18338798914067535705
14178342 30 18340203089254032664
14251757 5 17326068737750241828
20905425 154 18411709806564681550
2334 1 18410574006631562369
238 59 17979035535884624631
2748010 2 18410572877071026801

>  <PUBCHEM_SHAPE_MULTIPOLES>  (1) 
411.36
5.82
5.55
1.29
0.92
0.1
0.42
-0.09
-0.77
-0.91
-0.11
0.05
0.03
-0.07

>  <PUBCHEM_SHAPE_SELFOVERLAP>  (1) 
740.795

>  <PUBCHEM_SHAPE_VOLUME>  (1) 
263

>  <PUBCHEM_COORDINATE_TYPE>  (1) 
2
5
10

$$$$
