24971
     RDKit          3D

 14 15  0  0  0  0  0  0  0  0999 V2000
    4.6979    0.8184   -0.0012 O   0  0  0  0  0  0  0  0  0  0  0  0
    4.1431   -0.2907    0.0003 N   0  0  0  0  0  0  0  0  0  0  0  0
   -0.0141   -0.0816    0.0002 C   0  0  0  0  0  0  0  0  0  0  0  0
   -1.4592   -0.0078    0.0003 C   0  0  0  0  0  0  0  0  0  0  0  0
    0.6820   -0.1183   -1.2077 C   0  0  0  0  0  0  0  0  0  0  0  0
    0.6824   -0.1150    1.2082 C   0  0  0  0  0  0  0  0  0  0  0  0
   -2.0939    1.2345   -0.0013 C   0  0  0  0  0  0  0  0  0  0  0  0
   -2.2176   -1.1784    0.0015 C   0  0  0  0  0  0  0  0  0  0  0  0
    2.0751   -0.1885   -1.2078 C   0  0  0  0  0  0  0  0  0  0  0  0
    2.0755   -0.1851    1.2082 C   0  0  0  0  0  0  0  0  0  0  0  0
    2.7719   -0.2219    0.0001 C   0  0  0  0  0  0  0  0  0  0  0  0
   -3.4870    1.3059   -0.0016 C   0  0  0  0  0  0  0  0  0  0  0  0
   -3.6107   -1.1068    0.0012 C   0  0  0  0  0  0  0  0  0  0  0  0
   -4.2453    0.1353   -0.0004 C   0  0  0  0  0  0  0  0  0  0  0  0
  1  2  2  0
  2 11  1  0
  3  4  1  0
  3  5  2  0
  3  6  1  0
  4  7  2  0
  4  8  1  0
  5  9  1  0
  6 10  2  0
  7 12  1  0
  8 13  2  0
  9 11  2  0
 10 11  1  0
 12 14  2  0
 13 14  1  0
M  END
>  <PUBCHEM_COMPOUND_CID>  (1) 
24971

>  <PUBCHEM_CONFORMER_RMSD>  (1) 
0.6

>  <PUBCHEM_CONFORMER_DIVERSEORDER>  (1) 
1
2

>  <PUBCHEM_MMFF94_PARTIAL_CHARGES>  (1) 
21
1 -0.16
10 -0.15
11 0.3
12 -0.15
13 -0.15
14 -0.15
15 0.15
16 0.15
17 0.15
18 0.15
19 0.15
2 -0.14
20 0.15
21 0.15
22 0.15
23 0.15
5 -0.15
6 -0.15
7 -0.15
8 -0.15
9 -0.15

>  <PUBCHEM_EFFECTIVE_ROTOR_COUNT>  (1) 
2

>  <PUBCHEM_PHARMACOPHORE_FEATURES>  (1) 
2
6 3 5 6 9 10 11 rings
6 4 7 8 12 13 14 rings

>  <PUBCHEM_HEAVY_ATOM_COUNT>  (1) 
14

>  <PUBCHEM_ATOM_DEF_STEREO_COUNT>  (1) 
0

>  <PUBCHEM_ATOM_UDEF_STEREO_COUNT>  (1) 
0

>  <PUBCHEM_BOND_DEF_STEREO_COUNT>  (1) 
0

>  <PUBCHEM_BOND_UDEF_STEREO_COUNT>  (1) 
0

>  <PUBCHEM_ISOTOPIC_ATOM_COUNT>  (1) 
0

>  <PUBCHEM_COMPONENT_COUNT>  (1) 
1

>  <PUBCHEM_CACTVS_TAUTO_COUNT>  (1) 
1

>  <PUBCHEM_CONFORMER_ID>  (1) 
0000618B00000001

>  <PUBCHEM_MMFF94_ENERGY>  (1) 
44.7071

>  <PUBCHEM_FEATURE_SELFOVERLAP>  (1) 
10.149

>  <PUBCHEM_SHAPE_FINGERPRINT>  (1) 
10219947 1 15841834447412654834
11401426 45 16588019134415254310
11471102 20 16057160605747098530
12236239 1 17748825211578171259
124424 183 17846775178694207698
12500047 106 18343577439089518615
12932764 1 17489294283323352751
13581323 91 18409444782689187919
13675066 3 17313389989137132285
13760787 19 18342174466747897254
13760787 5 15841556267066230900
14144814 61 17458343018253544075
14252887 29 16153426104407395000
14911166 2 15697999652435516132
14943859 89 18409450271588729635
14993402 34 17385722504147858091
15219456 202 17775290421856427815
15309172 13 15791453720853044851
15653759 3 18131346418950969355
15775835 57 18040997306634547561
17844478 74 17418097611380028705
18175812 5 17775560966114996133
19026448 4 18343304751816050302
19026448 5 18334010580026459770
200 152 16443061721012809579
20201158 50 17203612566587671191
20279233 1 17775570831839550087
20645477 56 18341898446659233801
20645477 70 16558475158192640111
23402539 116 18411693292700206727
23402655 69 16008735901883905911
23557571 272 18272094876552914677
23559900 14 18200878362182417110
2748010 2 15624510584315361010
474 4 17314237854795420596
77492 1 17676207961747610211
77779 3 18411138026306199002

>  <PUBCHEM_SHAPE_MULTIPOLES>  (1) 
277.26
8.05
1.09
1.04
2.11
0.09
0
0.78
0
-0.99
0
0.62
-0.06
0

>  <PUBCHEM_SHAPE_SELFOVERLAP>  (1) 
604.156

>  <PUBCHEM_SHAPE_VOLUME>  (1) 
152.1

>  <PUBCHEM_COORDINATE_TYPE>  (1) 
2
5
10

$$$$
