24977
     RDKit          3D

 11 12  0  0  0  0  0  0  0  0999 V2000
    0.0000    0.0000   -0.1157 O   0  0  0  0  0  0  0  0  0  0  0  0
    1.1162    0.3689    0.6846 C   0  0  0  0  0  0  0  0  0  0  0  0
   -1.1162   -0.3689    0.6846 C   0  0  0  0  0  0  0  0  0  0  0  0
    1.9962    1.3374   -0.0905 C   0  0  0  0  0  0  0  0  0  0  0  0
    2.0309   -0.8270    0.9017 C   0  0  0  0  0  0  0  0  0  0  0  0
   -1.9961   -1.3374   -0.0904 C   0  0  0  0  0  0  0  0  0  0  0  0
   -2.0309    0.8271    0.9017 C   0  0  0  0  0  0  0  0  0  0  0  0
    2.8097    0.4482   -1.0299 C   0  0  0  0  0  0  0  0  0  0  0  0
    2.8058   -0.9485   -0.4080 C   0  0  0  0  0  0  0  0  0  0  0  0
   -2.8097   -0.4483   -1.0299 C   0  0  0  0  0  0  0  0  0  0  0  0
   -2.8058    0.9485   -0.4080 C   0  0  0  0  0  0  0  0  0  0  0  0
  1  2  1  0
  1  3  1  0
  2  4  1  0
  2  5  1  0
  3  6  1  0
  3  7  1  0
  4  8  1  0
  5  9  1  0
  6 10  1  0
  7 11  1  0
  8  9  1  0
 10 11  1  0
M  END
>  <PUBCHEM_COMPOUND_CID>  (1) 
24977

>  <PUBCHEM_CONFORMER_RMSD>  (1) 
0.6

>  <PUBCHEM_CONFORMER_DIVERSEORDER>  (1) 
1
5
8
3
9
2
4
7
6

>  <PUBCHEM_MMFF94_PARTIAL_CHARGES>  (1) 
3
1 -0.56
2 0.28
3 0.28

>  <PUBCHEM_EFFECTIVE_ROTOR_COUNT>  (1) 
4

>  <PUBCHEM_PHARMACOPHORE_FEATURES>  (1) 
3
1 1 acceptor
5 2 4 5 8 9 rings
5 3 6 7 10 11 rings

>  <PUBCHEM_HEAVY_ATOM_COUNT>  (1) 
11

>  <PUBCHEM_ATOM_DEF_STEREO_COUNT>  (1) 
0

>  <PUBCHEM_ATOM_UDEF_STEREO_COUNT>  (1) 
0

>  <PUBCHEM_BOND_DEF_STEREO_COUNT>  (1) 
0

>  <PUBCHEM_BOND_UDEF_STEREO_COUNT>  (1) 
0

>  <PUBCHEM_ISOTOPIC_ATOM_COUNT>  (1) 
0

>  <PUBCHEM_COMPONENT_COUNT>  (1) 
1

>  <PUBCHEM_CACTVS_TAUTO_COUNT>  (1) 
1

>  <PUBCHEM_CONFORMER_ID>  (1) 
0000619100000001

>  <PUBCHEM_MMFF94_ENERGY>  (1) 
21.4303

>  <PUBCHEM_FEATURE_SELFOVERLAP>  (1) 
15.223

>  <PUBCHEM_SHAPE_FINGERPRINT>  (1) 
10857977 72 11169921567330281223
11031198 65 17095527261941116915
12696612 119 9799689315987043466
12716758 59 17774996861042154267
12897270 3 18338516455538032652
12932764 1 18334860527931106537
13764800 53 13984661408820239549
14144814 61 18410575067483209891
14390081 3 15864067684817294351
15775835 57 18186522089917865085
16945 1 18338798918357221626
20201158 50 14979955852352735701
20279233 1 15697995219375035108
20645464 45 14634865353473148705
20653085 51 18041274379533556365
20711985 344 16270823116741296576
230 275 16660638583522434292
23552423 10 18410008849128507931
3248919 1 18411697699041363466
369184 2 18113898273514779641
5084963 1 18131067130091454803
57812782 119 15697710432973264477
74978 22 18410855460128161856
8030462 33 18412262856486551650
93112 12 18410856563934757141

>  <PUBCHEM_SHAPE_MULTIPOLES>  (1) 
220.51
5.3
1.3
1.08
0
0
0.02
0
1.34
0
0.01
0
0
-0.31

>  <PUBCHEM_SHAPE_SELFOVERLAP>  (1) 
444.69

>  <PUBCHEM_SHAPE_VOLUME>  (1) 
132.3

>  <PUBCHEM_COORDINATE_TYPE>  (1) 
2
5
10

$$$$
