2497
     RDKit          3D

 38 41  0  0  0  0  0  0  0  0999 V2000
    2.6508   -2.9467   -0.3693 N   0  0  0  0  0  0  0  0  0  0  0  0
   -3.8319    1.7247    0.0813 N   0  0  0  0  0  0  0  0  0  0  0  0
   -1.0049   -3.9825    1.2986 N   0  0  0  0  0  0  0  0  0  0  0  0
   -5.9392   -1.4309   -1.5977 N   0  0  0  0  0  0  0  0  0  0  0  0
    5.1374    4.0492    0.1488 C   0  0  0  0  0  0  0  0  0  0  0  0
    3.6983    3.9503    0.6626 C   0  0  0  0  0  0  0  0  0  0  0  0
    5.9869    2.8044    0.4285 C   0  0  0  0  0  0  0  0  0  0  0  0
    2.9028    5.2107    0.3138 C   0  0  0  0  0  0  0  0  0  0  0  0
    5.5127    1.5029   -0.2278 C   0  0  0  0  0  0  0  0  0  0  0  0
    1.4445    5.1649    0.7819 C   0  0  0  0  0  0  0  0  0  0  0  0
    6.4189    0.2999    0.0469 C   0  0  0  0  0  0  0  0  0  0  0  0
    0.6042    3.9976    0.2458 C   0  0  0  0  0  0  0  0  0  0  0  0
    5.9095   -0.9519   -0.6733 C   0  0  0  0  0  0  0  0  0  0  0  0
   -0.8517    4.0190    0.7179 C   0  0  0  0  0  0  0  0  0  0  0  0
    4.5326   -1.3990   -0.1816 C   0  0  0  0  0  0  0  0  0  0  0  0
   -1.6402    2.8276    0.1707 C   0  0  0  0  0  0  0  0  0  0  0  0
    3.9883   -2.6196   -0.9144 C   0  0  0  0  0  0  0  0  0  0  0  0
   -3.0959    2.8889    0.6196 C   0  0  0  0  0  0  0  0  0  0  0  0
    1.5480   -2.3992   -0.9146 C   0  0  0  0  0  0  0  0  0  0  0  0
   -3.8988    0.5824    0.7909 C   0  0  0  0  0  0  0  0  0  0  0  0
    2.6086   -3.7937    0.6676 C   0  0  0  0  0  0  0  0  0  0  0  0
   -4.4086    1.8735   -1.1186 C   0  0  0  0  0  0  0  0  0  0  0  0
    0.2837   -2.7261   -0.3763 C   0  0  0  0  0  0  0  0  0  0  0  0
   -4.6071   -0.5160    0.2548 C   0  0  0  0  0  0  0  0  0  0  0  0
    1.3961   -4.1490    1.2346 C   0  0  0  0  0  0  0  0  0  0  0  0
   -5.1154    0.8294   -1.6915 C   0  0  0  0  0  0  0  0  0  0  0  0
    0.2263   -3.6113    0.7087 C   0  0  0  0  0  0  0  0  0  0  0  0
   -5.2150   -0.3729   -0.9998 C   0  0  0  0  0  0  0  0  0  0  0  0
    1.6509   -1.5202   -1.9971 C   0  0  0  0  0  0  0  0  0  0  0  0
   -3.2774    0.4830    2.0396 C   0  0  0  0  0  0  0  0  0  0  0  0
    3.8753   -4.3604    1.2182 C   0  0  0  0  0  0  0  0  0  0  0  0
   -4.2905    3.1719   -1.8457 C   0  0  0  0  0  0  0  0  0  0  0  0
   -0.8640   -2.1536   -0.9471 C   0  0  0  0  0  0  0  0  0  0  0  0
   -4.6749   -1.7055    0.9971 C   0  0  0  0  0  0  0  0  0  0  0  0
    0.5001   -0.9611   -2.5511 C   0  0  0  0  0  0  0  0  0  0  0  0
   -3.3552   -0.7066    2.7626 C   0  0  0  0  0  0  0  0  0  0  0  0
   -0.7534   -1.2766   -2.0281 C   0  0  0  0  0  0  0  0  0  0  0  0
   -4.0517   -1.7975    2.2435 C   0  0  0  0  0  0  0  0  0  0  0  0
  1 17  1  0
  1 19  1  0
  1 21  2  0
  2 18  1  0
  2 20  1  0
  2 22  2  0
  3 27  1  0
  4 28  1  0
  5  6  1  0
  5  7  1  0
  6  8  1  0
  7  9  1  0
  8 10  1  0
  9 11  1  0
 10 12  1  0
 11 13  1  0
 12 14  1  0
 13 15  1  0
 14 16  1  0
 15 17  1  0
 16 18  1  0
 19 23  2  0
 19 29  1  0
 20 24  2  0
 20 30  1  0
 21 25  1  0
 21 31  1  0
 22 26  1  0
 22 32  1  0
 23 27  1  0
 23 33  1  0
 24 28  1  0
 24 34  1  0
 25 27  2  0
 26 28  2  0
 29 35  2  0
 30 36  2  0
 33 37  2  0
 34 38  2  0
 35 37  1  0
 36 38  1  0
M  CHG  2   1   1   2   1
M  END
>  <PUBCHEM_COMPOUND_CID>  (1) 
2497

>  <PUBCHEM_CONFORMER_RMSD>  (1) 
2

>  <PUBCHEM_CONFORMER_DIVERSEORDER>  (1) 
1
2
43
17
64
97
44
37
67
6
13
95
45
58
11
35
28
32
50
82
38
3
16
14
81
56
7
83
102
104
96
4
25
33
26
39
59
74
24
42
80
36
46
68
77
10
51
15
53
52
8
91
30
5
57
21
66
86
61
23
9
22
31
78
63
18
94
76
87
88
27
73
20
70
92
62
84
48
93
72
101
100
90
34
54
98
71
75
49
40
19
65
29
47
99
41
103
79
85
12
60
69
55
89

>  <PUBCHEM_MMFF94_PARTIAL_CHARGES>  (1) 
38
1 -0.21
17 0.49
18 0.49
19 0.36
2 -0.21
20 0.36
21 0.22
22 0.22
25 -0.15
26 -0.15
27 0.1
28 0.1
29 -0.15
3 -0.9
30 -0.15
31 0.14
32 0.14
33 -0.15
34 -0.15
35 -0.15
36 -0.15
37 -0.15
38 -0.15
4 -0.9
67 0.15
68 0.15
69 0.15
70 0.15
77 0.15
78 0.15
79 0.15
80 0.15
81 0.15
82 0.15
83 0.4
84 0.4
85 0.4
86 0.4

>  <PUBCHEM_EFFECTIVE_ROTOR_COUNT>  (1) 
15

>  <PUBCHEM_PHARMACOPHORE_FEATURES>  (1) 
8
1 3 cation
1 3 donor
1 4 cation
1 4 donor
6 1 19 21 23 25 27 rings
6 19 23 29 33 35 37 rings
6 2 20 22 24 26 28 rings
6 20 24 30 34 36 38 rings

>  <PUBCHEM_HEAVY_ATOM_COUNT>  (1) 
38

>  <PUBCHEM_ATOM_DEF_STEREO_COUNT>  (1) 
0

>  <PUBCHEM_ATOM_UDEF_STEREO_COUNT>  (1) 
0

>  <PUBCHEM_BOND_DEF_STEREO_COUNT>  (1) 
0

>  <PUBCHEM_BOND_UDEF_STEREO_COUNT>  (1) 
0

>  <PUBCHEM_ISOTOPIC_ATOM_COUNT>  (1) 
0

>  <PUBCHEM_COMPONENT_COUNT>  (1) 
1

>  <PUBCHEM_CACTVS_TAUTO_COUNT>  (1) 
2

>  <PUBCHEM_CONFORMER_ID>  (1) 
000009C100000001

>  <PUBCHEM_MMFF94_ENERGY>  (1) 
127.6287

>  <PUBCHEM_FEATURE_SELFOVERLAP>  (1) 
40.657

>  <PUBCHEM_SHAPE_FINGERPRINT>  (1) 
13165054 342 17544207433596079452
13383668 40 18409454709229215993
1361 2 18411979178814870704
15320291 9 18051131394018963336
15320467 1 18339365279158767408
15538507 32 18339639057828838439
15815584 197 18339376217892026429
16067690 210 17977104556889561955
16112460 7 18129108990488909352
17627616 140 18411973697877074420
20764821 26 18122069706155990689
23398203 216 18049163573142361660
373842 8 18411983593930208036
392239 28 18266746792055592222
437795 96 18120096332171934160
50080093 196 17906744600642754056
6036956 94 18265060123918123357

>  <PUBCHEM_SHAPE_MULTIPOLES>  (1) 
762.1
14.25
8.3
2.08
4.6
5.56
-0.1
4.69
-0.9
9.3
2.68
-2.62
-1.07
1.84

>  <PUBCHEM_SHAPE_SELFOVERLAP>  (1) 
1601.781

>  <PUBCHEM_SHAPE_VOLUME>  (1) 
425.6

>  <PUBCHEM_COORDINATE_TYPE>  (1) 
2
5
10

$$$$
