24980
     RDKit          3D

 12 11  0  0  1  0  0  0  0  0999 V2000
    2.6392   -1.4895   -1.2976 O   0  0  0  0  0  0  0  0  0  0  0  0
   -0.3240    1.3192    0.1807 C   0  0  0  0  0  0  0  0  0  0  0  0
   -1.7374    0.9358   -0.3057 C   0  0  0  0  0  0  0  0  0  0  0  0
   -2.1921   -0.4386    0.2025 C   0  0  0  0  0  0  0  0  0  0  0  0
    0.0383    2.7735   -0.1912 C   0  0  0  0  0  0  0  0  0  0  0  0
   -3.6228   -0.7466   -0.2408 C   0  0  0  0  0  0  0  0  0  0  0  0
    0.7191    0.3496   -0.3296 C   0  0  0  0  0  0  0  0  0  0  0  0
    1.3417    3.3014    0.3958 C   0  0  0  0  0  0  0  0  0  0  0  0
   -4.0949   -2.0891    0.2945 C   0  0  0  0  0  0  0  0  0  0  0  0
    1.4754   -0.4072    0.4772 C   0  0  0  0  0  0  0  0  0  0  0  0
    2.4793   -1.3503   -0.0872 C   0  0  0  0  0  0  0  0  0  0  0  0
    3.2782   -2.1581    0.9014 C   0  0  0  0  0  0  0  0  0  0  0  0
  1 11  2  0
  2  3  1  0
  2  5  1  0
  2  7  1  0
  3  4  1  0
  4  6  1  0
  5  8  1  0
  6  9  1  0
  7 10  2  0
 10 11  1  0
 11 12  1  0
M  END
>  <PUBCHEM_COMPOUND_CID>  (1) 
24980

>  <PUBCHEM_CONFORMER_RMSD>  (1) 
0.6

>  <PUBCHEM_CONFORMER_DIVERSEORDER>  (1) 
1
94
54
136
62
148
100
163
115
77
155
85
18
76
135
161
146
139
23
128
102
160
122
105
158
75
117
153
15
49
51
141
143
17
20
157
16
124
107
103
46
116
101
38
52
133
21
27
59
57
87
131
5
89
30
145
152
69
56
156
118
63
83
19
149
65
109
126
121
97
9
24
142
37
95
159
4
123
7
78
34
150
55
45
31
67
162
35
106
151
82
91
50
13
112
36
32
138
48
22
58
64
104
79
110
98
120
14
147
42
3
127
61
88
6
2
26
72
10
11
132
28
43
80
29
92
113
73
66
47
8
96
154
41
71
119
84
125
53
12
90
114
108
68
130
140
134
60
40
99
137
81
129
25
39
44
86
144
74
33
93
70
111

>  <PUBCHEM_MMFF94_PARTIAL_CHARGES>  (1) 
8
1 -0.57
10 -0.14
11 0.49
12 0.06
2 0.14
22 0.15
29 0.15
7 -0.29

>  <PUBCHEM_EFFECTIVE_ROTOR_COUNT>  (1) 
6

>  <PUBCHEM_PHARMACOPHORE_FEATURES>  (1) 
4
1 1 acceptor
1 8 hydrophobe
1 9 hydrophobe
6 2 3 4 5 6 7 hydrophobe

>  <PUBCHEM_HEAVY_ATOM_COUNT>  (1) 
12

>  <PUBCHEM_ATOM_DEF_STEREO_COUNT>  (1) 
0

>  <PUBCHEM_ATOM_UDEF_STEREO_COUNT>  (1) 
0

>  <PUBCHEM_BOND_DEF_STEREO_COUNT>  (1) 
0

>  <PUBCHEM_BOND_UDEF_STEREO_COUNT>  (1) 
1

>  <PUBCHEM_ISOTOPIC_ATOM_COUNT>  (1) 
0

>  <PUBCHEM_COMPONENT_COUNT>  (1) 
1

>  <PUBCHEM_CACTVS_TAUTO_COUNT>  (1) 
5

>  <PUBCHEM_CONFORMER_ID>  (1) 
0000619400000001

>  <PUBCHEM_MMFF94_ENERGY>  (1) 
7.1778

>  <PUBCHEM_FEATURE_SELFOVERLAP>  (1) 
20.297

>  <PUBCHEM_SHAPE_FINGERPRINT>  (1) 
1 1 17978506764880569693
12553582 1 18338244760466105867
12841375 25 18410858758905683797
12841375 5 18126584519974586719
13380535 76 17686333574791740217
15502708 68 17979631565428674377
18186145 218 12035739669112576775
19021347 4 17257930927669916336
20645477 70 18194392510884210279
20671657 53 18408601466018873955
20871998 184 18057596564711601086
20871998 22 18410288125213747417
21650355 55 18122333593315502888
21665056 4 17042615214774980103
23530152 11 17472985476367061653
23557571 272 17984415240432228852
257057 1 18336540530106084017
2748010 2 18269257015535048940
3250762 1 18263344980542282357
33824 294 17977947109636192483
58554843 112 18120377811369615599
5902787 121 18336540538659024066
7364860 26 18197500829564641397
81228 2 17910953543574584120
81539 233 17974563912062334653

>  <PUBCHEM_SHAPE_MULTIPOLES>  (1) 
241.09
6.09
3.56
0.85
5.08
2.53
0.09
-6.48
-0.35
-2.21
-0.46
-0.46
-0.26
0.25

>  <PUBCHEM_SHAPE_SELFOVERLAP>  (1) 
442.001

>  <PUBCHEM_SHAPE_VOLUME>  (1) 
153.4

>  <PUBCHEM_COORDINATE_TYPE>  (1) 
2
5
10

$$$$
