24982
     RDKit          3D

 16 15  0  0  1  0  0  0  0  0999 V2000
   -1.7203   -0.7576    0.0005 O   0  0  0  0  0  0  0  0  0  0  0  0
   -2.1504   -3.4375    0.6754 O   0  0  0  0  0  0  0  0  0  0  0  0
    1.6868    0.8772   -0.6972 C   0  0  0  0  0  0  0  0  0  0  0  0
    0.5900   -0.1403   -0.2986 C   0  0  0  0  0  0  0  0  0  0  0  0
   -0.8643    0.3596   -0.2409 C   0  0  0  0  0  0  0  0  0  0  0  0
    3.0881    0.2144   -0.7212 C   0  0  0  0  0  0  0  0  0  0  0  0
   -1.1561    1.4521    0.7979 C   0  0  0  0  0  0  0  0  0  0  0  0
    3.5708   -0.4276    0.5954 C   0  0  0  0  0  0  0  0  0  0  0  0
   -2.5877    2.0176    0.7863 C   0  0  0  0  0  0  0  0  0  0  0  0
    1.4353    1.5105   -2.0715 C   0  0  0  0  0  0  0  0  0  0  0  0
    4.9722   -1.0146    0.3968 C   0  0  0  0  0  0  0  0  0  0  0  0
    3.5926    0.5672    1.7557 C   0  0  0  0  0  0  0  0  0  0  0  0
   -3.6277    0.9769    1.2021 C   0  0  0  0  0  0  0  0  0  0  0  0
   -2.9210    2.5526   -0.6090 C   0  0  0  0  0  0  0  0  0  0  0  0
   -1.4877   -1.7967   -0.9370 C   0  0  0  0  0  0  0  0  0  0  0  0
   -2.4204   -2.9538   -0.6348 C   0  0  0  0  0  0  0  0  0  0  0  0
  1  5  1  0
  1 15  1  0
  2 16  1  0
  3  4  1  0
  3  6  1  0
  3 10  1  0
  4  5  1  0
  5  7  1  0
  6  8  1  0
  7  9  1  0
  8 11  1  0
  8 12  1  0
  9 13  1  0
  9 14  1  0
 15 16  1  0
M  END
>  <PUBCHEM_COMPOUND_CID>  (1) 
24982

>  <PUBCHEM_CONFORMER_RMSD>  (1) 
0.8

>  <PUBCHEM_CONFORMER_DIVERSEORDER>  (1) 
2
24
18
17
4
19
22
25
16
5
26
27
12
13
9
23
7
1
20
14
3
21
11
8
15
10
6

>  <PUBCHEM_MMFF94_PARTIAL_CHARGES>  (1) 
6
1 -0.56
15 0.28
16 0.28
2 -0.68
46 0.4
5 0.28

>  <PUBCHEM_EFFECTIVE_ROTOR_COUNT>  (1) 
9

>  <PUBCHEM_PHARMACOPHORE_FEATURES>  (1) 
7
1 1 acceptor
1 10 hydrophobe
1 2 acceptor
1 2 donor
3 8 11 12 hydrophobe
3 9 13 14 hydrophobe
4 3 4 6 8 hydrophobe

>  <PUBCHEM_HEAVY_ATOM_COUNT>  (1) 
16

>  <PUBCHEM_ATOM_DEF_STEREO_COUNT>  (1) 
0

>  <PUBCHEM_ATOM_UDEF_STEREO_COUNT>  (1) 
2

>  <PUBCHEM_BOND_DEF_STEREO_COUNT>  (1) 
0

>  <PUBCHEM_BOND_UDEF_STEREO_COUNT>  (1) 
0

>  <PUBCHEM_ISOTOPIC_ATOM_COUNT>  (1) 
0

>  <PUBCHEM_COMPONENT_COUNT>  (1) 
1

>  <PUBCHEM_CACTVS_TAUTO_COUNT>  (1) 
1

>  <PUBCHEM_CONFORMER_ID>  (1) 
0000619600000002

>  <PUBCHEM_MMFF94_ENERGY>  (1) 
36.157

>  <PUBCHEM_FEATURE_SELFOVERLAP>  (1) 
35.634

>  <PUBCHEM_SHAPE_FINGERPRINT>  (1) 
11357001 24 18410859901552036187
121448 382 18201143361801736941
12346177 29 18341604910886536766
124424 183 17417805090100893048
12500047 106 18270393889526080624
12553582 1 17767133372655321919
12633257 1 18199169708433491586
12824470 246 17897439721162122763
13052359 8 18411136927206190319
13083527 12 17411317111833720225
13296909 8 18271515468463896844
13538477 17 18337402633126920205
13583140 156 17489293214498832426
14178000 22 18268702810409342389
14178342 30 18409160018021041570
15042514 8 18411145766238492035
15099037 8 18189335843347543502
15295992 7 17060048242653853208
15842332 3 18042701652826506228
15852999 172 18059017155198981293
20361792 2 17313097549731355388
20671657 53 17170086365560850998
20681677 76 17488159647869833296
21033648 29 18196920085757574248
212916 134 18125426532251492480
22112679 90 18261399982984429828
22169311 14 18059849533473763448
23184049 29 18198059381413451380
23402539 116 17988350465151520477
23419403 2 17618738833721010396
23503958 8 18411411830883269706
23532345 11 18341317977238475506
23557571 272 17846228798935714924
23559900 14 17988657251029422132
23598288 3 18340211906990300023
23598291 2 18041285451869393190
23598294 1 18197798784209326852
23728640 28 18410858746000202915
266924 1 17972898109154661692
2748010 2 18051435980055743029
3071541 236 18341613698495086653
3086196 2 18270388516268941634
532947 4 17692812592708113911
5706482 22 18340770330301054265
6049 1 17274277144123515660
6992083 37 18187646881760250788
7615 1 18261115239632559068
81228 2 18199760287674092175
88987 49 18271538553976527172

>  <PUBCHEM_SHAPE_MULTIPOLES>  (1) 
317.53
7.68
3.14
1.49
7.15
2.91
0.18
-0.19
-2.71
-4.54
0.24
0.61
-0.59
-0.65

>  <PUBCHEM_SHAPE_SELFOVERLAP>  (1) 
583.501

>  <PUBCHEM_SHAPE_VOLUME>  (1) 
202.8

>  <PUBCHEM_COORDINATE_TYPE>  (1) 
2
5
10

$$$$
