24988
     RDKit          3D

  9  8  0  0  0  0  0  0  0  0999 V2000
    0.7205    1.0016    0.7625 O   0  0  0  0  0  0  0  0  0  0  0  0
   -1.8234    1.0696   -0.8205 O   0  0  0  0  0  0  0  0  0  0  0  0
    1.3427   -0.9873   -0.2604 N   0  0  0  0  0  0  0  0  0  0  0  0
    2.7208   -0.6327   -0.5099 C   0  0  0  0  0  0  0  0  0  0  0  0
   -0.9313   -0.7253    0.5208 C   0  0  0  0  0  0  0  0  0  0  0  0
    0.4516   -0.1292    0.3614 C   0  0  0  0  0  0  0  0  0  0  0  0
    3.0008    0.7673    0.0020 C   0  0  0  0  0  0  0  0  0  0  0  0
   -2.0400    0.0735   -0.1321 C   0  0  0  0  0  0  0  0  0  0  0  0
   -3.4417   -0.4376    0.0762 C   0  0  0  0  0  0  0  0  0  0  0  0
  1  6  2  0
  2  8  2  0
  3  4  1  0
  3  6  1  0
  4  7  1  0
  5  6  1  0
  5  8  1  0
  8  9  1  0
M  END
>  <PUBCHEM_COMPOUND_CID>  (1) 
24988

>  <PUBCHEM_CONFORMER_RMSD>  (1) 
0.6

>  <PUBCHEM_CONFORMER_DIVERSEORDER>  (1) 
1
8
13
5
15
11
10
16
14
4
7
2
12
3
9
6

>  <PUBCHEM_MMFF94_PARTIAL_CHARGES>  (1) 
9
1 -0.57
14 0.37
2 -0.57
3 -0.73
4 0.3
5 0.12
6 0.57
8 0.45
9 0.06

>  <PUBCHEM_EFFECTIVE_ROTOR_COUNT>  (1) 
4

>  <PUBCHEM_PHARMACOPHORE_FEATURES>  (1) 
4
1 1 acceptor
1 2 acceptor
1 3 donor
1 5 anion

>  <PUBCHEM_HEAVY_ATOM_COUNT>  (1) 
9

>  <PUBCHEM_ATOM_DEF_STEREO_COUNT>  (1) 
0

>  <PUBCHEM_ATOM_UDEF_STEREO_COUNT>  (1) 
0

>  <PUBCHEM_BOND_DEF_STEREO_COUNT>  (1) 
0

>  <PUBCHEM_BOND_UDEF_STEREO_COUNT>  (1) 
0

>  <PUBCHEM_ISOTOPIC_ATOM_COUNT>  (1) 
0

>  <PUBCHEM_COMPONENT_COUNT>  (1) 
1

>  <PUBCHEM_CACTVS_TAUTO_COUNT>  (1) 
8

>  <PUBCHEM_CONFORMER_ID>  (1) 
0000619C00000001

>  <PUBCHEM_MMFF94_ENERGY>  (1) 
16.7861

>  <PUBCHEM_FEATURE_SELFOVERLAP>  (1) 
20.298

>  <PUBCHEM_SHAPE_FINGERPRINT>  (1) 
11062470 55 15482953851922017210
12897270 3 18408041788408422190
12932764 1 18261111850607885050
14325111 11 18334857203589489515
14390081 3 18113053822419308908
15310529 11 18411415085930065415
20201158 50 18412830178854116086
20653085 51 17459206096189836380
21293036 1 18201723980859950750
23235685 24 16702303455454244431
23552423 10 18194125105397389338
29004967 10 17917712379073560834

>  <PUBCHEM_SHAPE_MULTIPOLES>  (1) 
168.5
5.18
1.07
0.78
0.58
0.08
0
-0.02
0.63
-0.21
0.04
0.02
0.07
0.39

>  <PUBCHEM_SHAPE_SELFOVERLAP>  (1) 
314.534

>  <PUBCHEM_SHAPE_VOLUME>  (1) 
105.5

>  <PUBCHEM_COORDINATE_TYPE>  (1) 
2
5
10

$$$$
