24986
     RDKit          3D

 12 13  0  0  1  0  0  0  0  0999 V2000
    2.0445    0.3107   -0.2738 O   0  0  0  0  0  0  0  0  0  0  0  0
    1.1189   -1.7079    0.3628 O   0  0  0  0  0  0  0  0  0  0  0  0
   -1.4497   -0.9223   -0.3153 C   0  0  0  0  0  0  0  0  0  0  0  0
   -2.0379    0.9060    0.8288 C   0  0  0  0  0  0  0  0  0  0  0  0
   -0.2589    0.0337   -0.5652 C   0  0  0  0  0  0  0  0  0  0  0  0
   -1.8333   -0.5796    1.1311 C   0  0  0  0  0  0  0  0  0  0  0  0
   -0.6501    1.2892    0.2658 C   0  0  0  0  0  0  0  0  0  0  0  0
   -2.6508   -0.3258   -1.0135 C   0  0  0  0  0  0  0  0  0  0  0  0
   -2.9982    0.7760   -0.3311 C   0  0  0  0  0  0  0  0  0  0  0  0
    1.0260   -0.5789   -0.0997 C   0  0  0  0  0  0  0  0  0  0  0  0
    3.3377   -0.1478    0.1329 C   0  0  0  0  0  0  0  0  0  0  0  0
    4.3519    0.9466   -0.1229 C   0  0  0  0  0  0  0  0  0  0  0  0
  1 10  1  0
  1 11  1  0
  2 10  2  0
  3  5  1  0
  3  6  1  0
  3  8  1  0
  4  6  1  0
  4  7  1  0
  4  9  1  0
  5  7  1  0
  5 10  1  0
  8  9  2  0
 11 12  1  0
M  END
>  <PUBCHEM_COMPOUND_CID>  (1) 
24986

>  <PUBCHEM_CONFORMER_RMSD>  (1) 
0.6

>  <PUBCHEM_CONFORMER_DIVERSEORDER>  (1) 
1
48
42
49
13
36
19
15
44
9
17
20
35
18
45
10
38
14
7
39
16
43
11
47
2
12
46
8
29
26
4
23
5
25
30
6
3
24
22
28
27
21
32
31
40
41
37
33
34

>  <PUBCHEM_MMFF94_PARTIAL_CHARGES>  (1) 
11
1 -0.43
10 0.66
11 0.28
2 -0.57
20 0.15
21 0.15
3 0.14
4 0.14
5 0.06
8 -0.29
9 -0.29

>  <PUBCHEM_EFFECTIVE_ROTOR_COUNT>  (1) 
3.6

>  <PUBCHEM_PHARMACOPHORE_FEATURES>  (1) 
2
1 2 acceptor
7 3 4 5 6 7 8 9 rings

>  <PUBCHEM_HEAVY_ATOM_COUNT>  (1) 
12

>  <PUBCHEM_ATOM_DEF_STEREO_COUNT>  (1) 
0

>  <PUBCHEM_ATOM_UDEF_STEREO_COUNT>  (1) 
3

>  <PUBCHEM_BOND_DEF_STEREO_COUNT>  (1) 
0

>  <PUBCHEM_BOND_UDEF_STEREO_COUNT>  (1) 
0

>  <PUBCHEM_ISOTOPIC_ATOM_COUNT>  (1) 
0

>  <PUBCHEM_COMPONENT_COUNT>  (1) 
1

>  <PUBCHEM_CACTVS_TAUTO_COUNT>  (1) 
1

>  <PUBCHEM_CONFORMER_ID>  (1) 
0000619A00000001

>  <PUBCHEM_MMFF94_ENERGY>  (1) 
36.5651

>  <PUBCHEM_FEATURE_SELFOVERLAP>  (1) 
10.148

>  <PUBCHEM_SHAPE_FINGERPRINT>  (1) 
11062470 55 17822006501751135893
11769659 78 8357956863013652905
12423570 1 7847733874154667531
124424 183 15502365738521824900
12932764 1 16486969588006925678
13024252 1 16225766324568266077
13214271 11 18259989292185397317
13581323 91 13912327867080292409
14325111 11 18410575089496096950
14577589 140 13623524662682286624
14993402 34 17704063006368569293
15775835 57 18273216374212873688
16945 1 18114194007698562445
18186145 218 18342748416360197652
20645464 45 16660365861556996139
23236772 104 18272936011780314467
23552423 10 18055632807217634815
369184 2 18040436547235636539
5084963 1 10015571797039870927
7364860 26 18127129671937448382

>  <PUBCHEM_SHAPE_MULTIPOLES>  (1) 
235.22
5.94
1.28
0.93
6.84
0.07
-0.07
-1.52
0.5
-0.01
-0.13
-0.57
0.05
-0.22

>  <PUBCHEM_SHAPE_SELFOVERLAP>  (1) 
497.339

>  <PUBCHEM_SHAPE_VOLUME>  (1) 
137.3

>  <PUBCHEM_COORDINATE_TYPE>  (1) 
2
5
10

$$$$
