24989
     RDKit          3D

 11 10  0  0  1  0  0  0  0  0999 V2000
   -0.8240    0.3523   -0.1870 O   0  0  0  0  0  0  0  0  0  0  0  0
   -2.9586    1.6021    1.1181 O   0  0  0  0  0  0  0  0  0  0  0  0
   -0.1582   -0.8075   -0.6889 C   0  0  0  0  0  0  0  0  0  0  0  0
    1.2035   -0.9254    0.0076 C   0  0  0  0  0  0  0  0  0  0  0  0
    2.0995    0.2900   -0.2611 C   0  0  0  0  0  0  0  0  0  0  0  0
   -1.0651   -2.0196   -0.4443 C   0  0  0  0  0  0  0  0  0  0  0  0
    3.4597    0.1373    0.4204 C   0  0  0  0  0  0  0  0  0  0  0  0
   -1.3306   -2.3023    1.0253 C   0  0  0  0  0  0  0  0  0  0  0  0
   -2.0659    0.5563   -0.8416 C   0  0  0  0  0  0  0  0  0  0  0  0
    4.3675    1.3204    0.1236 C   0  0  0  0  0  0  0  0  0  0  0  0
   -2.7277    1.7963   -0.2720 C   0  0  0  0  0  0  0  0  0  0  0  0
  1  3  1  0
  1  9  1  0
  2 11  1  0
  3  4  1  0
  3  6  1  0
  4  5  1  0
  5  7  1  0
  6  8  1  0
  7 10  1  0
  9 11  1  0
M  END
>  <PUBCHEM_COMPOUND_CID>  (1) 
24989

>  <PUBCHEM_CONFORMER_RMSD>  (1) 
0.6

>  <PUBCHEM_CONFORMER_DIVERSEORDER>  (1) 
1
129
8
124
69
143
4
9
67
139
88
103
15
136
35
22
128
64
77
117
137
27
72
134
6
142
76
3
28
135
93
75
95
47
112
59
48
26
30
123
97
51
63
60
114
73
52
115
24
41
122
130
106
119
57
7
104
118
61
78
133
109
108
11
141
87
40
71
92
111
25
90
33
131
66
42
65
138
45
14
74
13
50
116
62
107
16
44
54
37
94
17
80
81
126
32
120
46
49
53
127
85
101
86
121
55
99
70
105
12
5
89
39
125
20
2
84
79
56
100
113
110
19
91
98
140
10
43
96
58
102
132
34
38
23
83
36
82
68
29
18
31
21

>  <PUBCHEM_MMFF94_PARTIAL_CHARGES>  (1) 
6
1 -0.56
11 0.28
2 -0.68
3 0.28
31 0.4
9 0.28

>  <PUBCHEM_EFFECTIVE_ROTOR_COUNT>  (1) 
7

>  <PUBCHEM_PHARMACOPHORE_FEATURES>  (1) 
5
1 1 acceptor
1 10 hydrophobe
1 2 acceptor
1 2 donor
1 8 hydrophobe

>  <PUBCHEM_HEAVY_ATOM_COUNT>  (1) 
11

>  <PUBCHEM_ATOM_DEF_STEREO_COUNT>  (1) 
0

>  <PUBCHEM_ATOM_UDEF_STEREO_COUNT>  (1) 
1

>  <PUBCHEM_BOND_DEF_STEREO_COUNT>  (1) 
0

>  <PUBCHEM_BOND_UDEF_STEREO_COUNT>  (1) 
0

>  <PUBCHEM_ISOTOPIC_ATOM_COUNT>  (1) 
0

>  <PUBCHEM_COMPONENT_COUNT>  (1) 
1

>  <PUBCHEM_CACTVS_TAUTO_COUNT>  (1) 
1

>  <PUBCHEM_CONFORMER_ID>  (1) 
0000619D00000001

>  <PUBCHEM_MMFF94_ENERGY>  (1) 
13.4091

>  <PUBCHEM_FEATURE_SELFOVERLAP>  (1) 
25.375

>  <PUBCHEM_SHAPE_FINGERPRINT>  (1) 
122479 349 18412545401158214148
12932764 1 17022886953269816238
13380535 21 18335708221753649174
13380535 76 18411129217244184406
13764800 53 18342183288315006008
15775835 57 18270394992884698557
170605 34 18056477253717145989
1741750 31 18343016692612224896
18186145 218 18128255588691402708
20653085 51 17774164496042709295
21499 59 18267292158576395485
21524375 3 18269825441597815183
23402539 116 18268419304182340799
23500284 214 18343024380419263352
305870 269 18118397337313911029
58734987 124 18265049326279942514
58734987 91 18187937123071167627
81228 2 18189060956914396951

>  <PUBCHEM_SHAPE_MULTIPOLES>  (1) 
214.64
6.18
2.34
0.95
6.98
0.61
-0.12
-4.27
-1
-2.17
-0.45
-0.53
0.07
-0.01

>  <PUBCHEM_SHAPE_SELFOVERLAP>  (1) 
385.094

>  <PUBCHEM_SHAPE_VOLUME>  (1) 
139

>  <PUBCHEM_COORDINATE_TYPE>  (1) 
2
5
10

$$$$
