24990
     RDKit          3D

 16 16  0  0  1  0  0  0  0  0999 V2000
   -2.7528    0.8756    0.3299 O   0  0  0  0  0  0  0  0  0  0  0  0
    2.7408    0.8906   -0.3202 O   0  0  0  0  0  0  0  0  0  0  0  0
   -1.9342   -0.1051   -1.5950 O   0  0  0  0  0  0  0  0  0  0  0  0
    1.9443   -0.1311    1.5926 O   0  0  0  0  0  0  0  0  0  0  0  0
   -0.6402   -0.1293    0.4389 C   0  0  0  0  0  0  0  0  0  0  0  0
    0.6271   -0.1119   -0.4263 C   0  0  0  0  0  0  0  0  0  0  0  0
   -0.8696   -1.4422    1.1937 C   0  0  0  0  0  0  0  0  0  0  0  0
    0.8659   -1.4062   -1.2089 C   0  0  0  0  0  0  0  0  0  0  0  0
   -0.6572   -2.6851    0.3346 C   0  0  0  0  0  0  0  0  0  0  0  0
    0.6980   -2.6613   -0.3584 C   0  0  0  0  0  0  0  0  0  0  0  0
   -1.8319    0.1993   -0.4143 C   0  0  0  0  0  0  0  0  0  0  0  0
    1.8286    0.1986    0.4200 C   0  0  0  0  0  0  0  0  0  0  0  0
   -3.9460    1.2536   -0.3637 C   0  0  0  0  0  0  0  0  0  0  0  0
    3.9422    1.2539    0.3677 C   0  0  0  0  0  0  0  0  0  0  0  0
   -4.8599    1.9901    0.5925 C   0  0  0  0  0  0  0  0  0  0  0  0
    4.8450    2.0107   -0.5831 C   0  0  0  0  0  0  0  0  0  0  0  0
  1 11  1  0
  1 13  1  0
  2 12  1  0
  2 14  1  0
  3 11  2  0
  4 12  2  0
  5  6  1  0
  5  7  1  0
  5 11  1  0
  6  8  1  0
  6 12  1  0
  7  9  1  0
  8 10  1  0
  9 10  1  0
 13 15  1  0
 14 16  1  0
M  END
>  <PUBCHEM_COMPOUND_CID>  (1) 
24990

>  <PUBCHEM_CONFORMER_RMSD>  (1) 
0.8

>  <PUBCHEM_CONFORMER_DIVERSEORDER>  (1) 
1
6
17
61
40
106
28
93
5
70
19
16
9
3
66
15
32
27
8
115
89
83
33
73
90
74
52
4
97
60
54
37
51
12
55
67
86
78
113
11
58
99
7
114
57
39
71
84
23
13
103
111
53
38
49
46
85
30
102
2
94
80
48
109
20
88
59
69
47
105
81
91
14
87
44
43
112
22
21
98
92
79
101
104
10
65
76
95
107
41
96
50
56
31
29
45
18
64
110
26
100
108
77
42
25
35
82
36
63
34
24
68
75
62
72

>  <PUBCHEM_MMFF94_PARTIAL_CHARGES>  (1) 
10
1 -0.43
11 0.66
12 0.66
13 0.28
14 0.28
2 -0.43
3 -0.57
4 -0.57
5 0.06
6 0.06

>  <PUBCHEM_EFFECTIVE_ROTOR_COUNT>  (1) 
7.2

>  <PUBCHEM_PHARMACOPHORE_FEATURES>  (1) 
3
1 3 acceptor
1 4 acceptor
6 5 6 7 8 9 10 rings

>  <PUBCHEM_HEAVY_ATOM_COUNT>  (1) 
16

>  <PUBCHEM_ATOM_DEF_STEREO_COUNT>  (1) 
0

>  <PUBCHEM_ATOM_UDEF_STEREO_COUNT>  (1) 
2

>  <PUBCHEM_BOND_DEF_STEREO_COUNT>  (1) 
0

>  <PUBCHEM_BOND_UDEF_STEREO_COUNT>  (1) 
0

>  <PUBCHEM_ISOTOPIC_ATOM_COUNT>  (1) 
0

>  <PUBCHEM_COMPONENT_COUNT>  (1) 
1

>  <PUBCHEM_CACTVS_TAUTO_COUNT>  (1) 
1

>  <PUBCHEM_CONFORMER_ID>  (1) 
0000619E00000001

>  <PUBCHEM_MMFF94_ENERGY>  (1) 
14.934

>  <PUBCHEM_FEATURE_SELFOVERLAP>  (1) 
15.223

>  <PUBCHEM_SHAPE_FINGERPRINT>  (1) 
10726558 24 18343585148597655620
10922049 32 18410577287992072138
12173636 292 18195804304856133236
12186901 62 18196101164643048910
122479 349 18336548312824272624
12423570 1 12369754091670869307
12788726 201 17977087273994780618
12892183 10 15719381798583125673
13024252 1 16662595817236092450
14123255 52 18410855464428917024
14817 1 11053815196384274110
15342168 16 18334579040149050757
15534591 1 18340200881597832031
15906896 17 18266452303154323582
16945 1 18046608032619173222
1741750 31 18338512049292159232
17834072 32 18338521944818148940
18222031 100 11386371421894947672
18785283 64 18189055313517183338
19765921 60 18272363149084617539
204376 136 18334856112973796945
20645477 56 18337113487766029504
20820808 20 18271243811829813363
21499 59 18410285900531425453
21524375 3 18410845568818492096
21728266 224 11311236256720795100
2255824 54 18054227631399521999
23402539 116 18201431506667589692
23419403 2 17903962951988371210
23500284 214 18335423495069931576
23559900 14 18131073788398955200
25 1 18272931604864462585
474 4 18411417272189874689
633830 44 18341610374016326685
7364860 26 18054223233300107351
81539 233 18339637833118697269
9999458 23 18115026277871753378

>  <PUBCHEM_SHAPE_MULTIPOLES>  (1) 
305.8
7.61
2.66
1.17
0.09
1.4
0
-9.54
0.03
-0.03
0
0
0.22
-0.2

>  <PUBCHEM_SHAPE_SELFOVERLAP>  (1) 
604.54

>  <PUBCHEM_SHAPE_VOLUME>  (1) 
180.6

>  <PUBCHEM_COORDINATE_TYPE>  (1) 
2
5
10

$$$$
