24993
     RDKit          3D

 13 12  0  0  0  0  0  0  0  0999 V2000
    1.9567   -3.5455   -0.1847 Cl  0  0  0  0  0  0  0  0  0  0  0  0
    3.2610    1.8378    1.6669 Cl  0  0  0  0  0  0  0  0  0  0  0  0
   -3.8948    0.6798    1.6441 Cl  0  0  0  0  0  0  0  0  0  0  0  0
   -0.1841    0.4266   -1.0133 Si  0  0  0  0  0  4  0  0  0  0  0  0
    0.0872   -1.1942   -0.7262 O   0  0  0  0  0  0  0  0  0  0  0  0
    1.0443    1.3577   -0.3754 O   0  0  0  0  0  0  0  0  0  0  0  0
   -1.6539    0.9049   -0.3854 O   0  0  0  0  0  0  0  0  0  0  0  0
    0.1611   -1.6637    0.6124 C   0  0  0  0  0  0  0  0  0  0  0  0
    2.3786    1.1376   -0.8093 C   0  0  0  0  0  0  0  0  0  0  0  0
   -2.8403    0.2618   -0.8285 C   0  0  0  0  0  0  0  0  0  0  0  0
    0.4126   -3.1602    0.6172 C   0  0  0  0  0  0  0  0  0  0  0  0
    3.3139    2.0959   -0.0954 C   0  0  0  0  0  0  0  0  0  0  0  0
   -4.0423    0.8615   -0.1225 C   0  0  0  0  0  0  0  0  0  0  0  0
  1 11  1  0
  2 12  1  0
  3 13  1  0
  4  5  1  0
  4  6  1  0
  4  7  1  0
  5  8  1  0
  6  9  1  0
  7 10  1  0
  8 11  1  0
  9 12  1  0
 10 13  1  0
M  END
>  <PUBCHEM_COMPOUND_CID>  (1) 
24993

>  <PUBCHEM_CONFORMER_RMSD>  (1) 
0.8

>  <PUBCHEM_CONFORMER_DIVERSEORDER>  (1) 
1
55
99
9
125
4
128
93
41
130
102
88
78
103
71
107
50
118
124
82
116
89
101
122
5
114
16
120
106
74
109
98
113
87
69
8
40
49
77
126
133
94
15
43
97
110
20
21
136
42
117
80
37
96
84
108
63
39
58
65
95
31
18
86
100
85
34
12
134
38
70
59
68
105
33
62
73
129
81
115
123
11
29
72
79
132
90
24
75
119
111
66
35
13
32
92
27
137
112
104
83
30
61
14
22
64
121
23
25
135
131
19
7
60
91
127
51
76
26
67
56
17
52
28
47
10
3
57
48
6
53
2
54
44
36
45
46

>  <PUBCHEM_MMFF94_PARTIAL_CHARGES>  (1) 
14
1 -0.29
10 0.28
11 0.29
12 0.29
13 0.29
14 -0.2
2 -0.29
3 -0.29
4 1.09
5 -0.58
6 -0.58
7 -0.58
8 0.28
9 0.28

>  <PUBCHEM_EFFECTIVE_ROTOR_COUNT>  (1) 
9

>  <PUBCHEM_PHARMACOPHORE_FEATURES>  (1) 
0

>  <PUBCHEM_HEAVY_ATOM_COUNT>  (1) 
13

>  <PUBCHEM_ATOM_DEF_STEREO_COUNT>  (1) 
0

>  <PUBCHEM_ATOM_UDEF_STEREO_COUNT>  (1) 
0

>  <PUBCHEM_BOND_DEF_STEREO_COUNT>  (1) 
0

>  <PUBCHEM_BOND_UDEF_STEREO_COUNT>  (1) 
0

>  <PUBCHEM_ISOTOPIC_ATOM_COUNT>  (1) 
0

>  <PUBCHEM_COMPONENT_COUNT>  (1) 
1

>  <PUBCHEM_CACTVS_TAUTO_COUNT>  (1) 
1

>  <PUBCHEM_CONFORMER_ID>  (1) 
000061A100000001

>  <PUBCHEM_MMFF94_ENERGY>  (1) 
8.3398

>  <PUBCHEM_FEATURE_SELFOVERLAP>  (1) 
0

>  <PUBCHEM_SHAPE_FINGERPRINT>  (1) 
100427 49 17545009647380819094
108231 29 17828493465805348019
136203 1 17689153830348334330
15502708 68 18335135380078750829
18186145 218 18130515200892889557
201361 129 18270130010941172225
204376 136 18335424633436777173
20603629 256 18266762207067719019
20645477 70 18188765042848046119
20671657 1 18342176614073263735
20711985 344 17469343872665874534
21061003 4 17904202525416732735
21524375 3 18201154455074599485
23419403 2 17537203252025381346
23598294 1 17828207923815978020
276578 36 18410292531855682060
305870 269 18411134723466052397
3250762 1 17682381568955839669
458136 41 18335720333049474244
57672749 33 18194959639175938258
633830 44 18273221918984524445
7364860 26 18266456516601176055
81228 2 17686616157543056454
81539 233 18260543416144634037

>  <PUBCHEM_SHAPE_MULTIPOLES>  (1) 
273.75
6.39
3.69
1.45
4.79
4.72
0.47
-4.83
2.33
-4.35
0.7
0.17
-0.55
0.38

>  <PUBCHEM_SHAPE_SELFOVERLAP>  (1) 
466.386

>  <PUBCHEM_SHAPE_VOLUME>  (1) 
186.4

>  <PUBCHEM_COORDINATE_TYPE>  (1) 
2
5
10

$$$$
