24999
     RDKit          3D

 11 10  0  0  0  0  0  0  0  0999 V2000
    5.9941   -0.3079   -0.0684 Cl  0  0  0  0  0  0  0  0  0  0  0  0
   -2.8980    0.4519   -0.0094 O   0  0  0  0  0  0  0  0  0  0  0  0
   -1.8023   -1.5783    0.0294 O   0  0  0  0  0  0  0  0  0  0  0  0
    1.9670    0.5685    0.0477 C   0  0  0  0  0  0  0  0  0  0  0  0
    0.7247   -0.3238    0.0109 C   0  0  0  0  0  0  0  0  0  0  0  0
    3.2807   -0.2155   -0.0237 C   0  0  0  0  0  0  0  0  0  0  0  0
   -0.5562    0.5105    0.0124 C   0  0  0  0  0  0  0  0  0  0  0  0
    4.5144    0.6764    0.0403 C   0  0  0  0  0  0  0  0  0  0  0  0
   -1.7957   -0.3551    0.0130 C   0  0  0  0  0  0  0  0  0  0  0  0
   -4.1581   -0.2266   -0.0134 C   0  0  0  0  0  0  0  0  0  0  0  0
   -5.2706    0.7998   -0.0388 C   0  0  0  0  0  0  0  0  0  0  0  0
  1  8  1  0
  2  9  1  0
  2 10  1  0
  3  9  2  0
  4  5  1  0
  4  6  1  0
  5  7  1  0
  6  8  1  0
  7  9  1  0
 10 11  1  0
M  END
>  <PUBCHEM_COMPOUND_CID>  (1) 
24999

>  <PUBCHEM_CONFORMER_RMSD>  (1) 
0.8

>  <PUBCHEM_CONFORMER_DIVERSEORDER>  (1) 
1
102
55
5
132
80
108
138
34
11
91
2
69
139
79
38
10
4
83
105
125
133
12
143
59
89
40
25
70
41
112
134
42
101
44
117
93
62
64
98
71
87
146
97
21
127
100
147
65
8
68
36
54
24
99
47
103
142
128
144
124
145
20
113
43
115
114
16
116
58
110
9
96
135
75
33
6
129
66
30
82
18
78
140
49
61
74
84
73
7
46
121
122
53
120
3
109
39
137
57
123
28
141
15
29
50
22
88
77
37
27
13
126
95
136
118
48
85
131
52
81
19
60
119
92
26
107
130
72
23
32
51
63
67
86
45
14
56
104
106
35
17
94
31
111
76
90

>  <PUBCHEM_MMFF94_PARTIAL_CHARGES>  (1) 
7
1 -0.29
10 0.28
2 -0.43
3 -0.57
7 0.06
8 0.29
9 0.66

>  <PUBCHEM_EFFECTIVE_ROTOR_COUNT>  (1) 
7

>  <PUBCHEM_PHARMACOPHORE_FEATURES>  (1) 
2
1 3 acceptor
4 4 5 6 7 hydrophobe

>  <PUBCHEM_HEAVY_ATOM_COUNT>  (1) 
11

>  <PUBCHEM_ATOM_DEF_STEREO_COUNT>  (1) 
0

>  <PUBCHEM_ATOM_UDEF_STEREO_COUNT>  (1) 
0

>  <PUBCHEM_BOND_DEF_STEREO_COUNT>  (1) 
0

>  <PUBCHEM_BOND_UDEF_STEREO_COUNT>  (1) 
0

>  <PUBCHEM_ISOTOPIC_ATOM_COUNT>  (1) 
0

>  <PUBCHEM_COMPONENT_COUNT>  (1) 
1

>  <PUBCHEM_CACTVS_TAUTO_COUNT>  (1) 
1

>  <PUBCHEM_CONFORMER_ID>  (1) 
000061A700000001

>  <PUBCHEM_MMFF94_ENERGY>  (1) 
2.9916

>  <PUBCHEM_FEATURE_SELFOVERLAP>  (1) 
10.148

>  <PUBCHEM_SHAPE_FINGERPRINT>  (1) 
11062470 55 18411419522478138756
11401426 45 17632574959116309285
114248 4 9367345933824050884
12815109 37 17917711301316246880
14123238 8 10881399837856205728
1420 363 9223228567888838404
14251718 22 11167939160729236384
15242433 33 18334295370818338034
15242439 84 18202003244171136056
15501527 16 18408886222387814253
17834072 33 17917989529044526276
17834076 25 18272088296646796636
187816 3 17346880048699998027
20279233 1 17703800231816576510
20645477 56 18334574642081076645
20645477 70 17203337646184690142
20719005 15 18411138043528246664
20767249 13 17060339621877927744
21119208 17 18334295379197048632
22485316 2 18343581863201057094
23218964 4 18409446968922415668
23402539 116 18201995534583728573
366044 4 18411136935711858747
42788 4 18411136939415813412
8209 1 18412262835565674548

>  <PUBCHEM_SHAPE_MULTIPOLES>  (1) 
216.51
13.09
0.99
0.6
5.28
0.18
0
-1.4
0.29
-0.37
-0.01
0.07
-0.01
0.05

>  <PUBCHEM_SHAPE_SELFOVERLAP>  (1) 
384.494

>  <PUBCHEM_SHAPE_VOLUME>  (1) 
141.3

>  <PUBCHEM_COORDINATE_TYPE>  (1) 
2
5
10

$$$$
