25005
     RDKit          3D

 12 11  0  0  0  0  0  0  0  0999 V2000
   -0.5222   -0.3789   -0.1776 O   0  0  0  0  0  0  0  0  0  0  0  0
   -3.1861    0.3532    0.3011 O   0  0  0  0  0  0  0  0  0  0  0  0
    3.7867   -0.4407   -0.7700 O   0  0  0  0  0  0  0  0  0  0  0  0
    0.9338    2.4170    0.5509 O   0  0  0  0  0  0  0  0  0  0  0  0
    0.9938   -1.8746    0.6576 O   0  0  0  0  0  0  0  0  0  0  0  0
    1.6839    0.2557    0.0236 N   0  0  0  0  0  0  0  0  0  0  0  0
   -1.5513   -1.3639   -0.0299 C   0  0  0  0  0  0  0  0  0  0  0  0
   -2.8685   -0.7779   -0.5006 C   0  0  0  0  0  0  0  0  0  0  0  0
    3.0908    0.0539    0.3637 C   0  0  0  0  0  0  0  0  0  0  0  0
    1.3065    1.5578   -0.5158 C   0  0  0  0  0  0  0  0  0  0  0  0
    0.7367   -0.7593    0.2080 C   0  0  0  0  0  0  0  0  0  0  0  0
   -4.4040    0.9578   -0.1110 C   0  0  0  0  0  0  0  0  0  0  0  0
  1  7  1  0
  1 11  1  0
  2  8  1  0
  2 12  1  0
  3  9  1  0
  4 10  1  0
  5 11  2  0
  6  9  1  0
  6 10  1  0
  6 11  1  0
  7  8  1  0
M  END
>  <PUBCHEM_COMPOUND_CID>  (1) 
25005

>  <PUBCHEM_CONFORMER_RMSD>  (1) 
0.8

>  <PUBCHEM_CONFORMER_DIVERSEORDER>  (1) 
1
53
40
63
62
47
59
12
55
25
30
51
2
45
48
26
5
49
46
14
37
7
22
43
13
20
57
60
66
19
42
17
34
39
54
4
10
58
29
56
16
18
21
23
50
24
38
11
32
52
31
36
41
44
28
3
6
61
35
15
9
8
64
65
27
33

>  <PUBCHEM_MMFF94_PARTIAL_CHARGES>  (1) 
14
1 -0.43
10 0.58
11 0.78
12 0.28
2 -0.56
24 0.4
25 0.4
3 -0.68
4 -0.68
5 -0.57
6 -0.66
7 0.28
8 0.28
9 0.58

>  <PUBCHEM_EFFECTIVE_ROTOR_COUNT>  (1) 
7

>  <PUBCHEM_PHARMACOPHORE_FEATURES>  (1) 
6
1 2 acceptor
1 3 acceptor
1 3 donor
1 4 acceptor
1 4 donor
1 5 acceptor

>  <PUBCHEM_HEAVY_ATOM_COUNT>  (1) 
12

>  <PUBCHEM_ATOM_DEF_STEREO_COUNT>  (1) 
0

>  <PUBCHEM_ATOM_UDEF_STEREO_COUNT>  (1) 
0

>  <PUBCHEM_BOND_DEF_STEREO_COUNT>  (1) 
0

>  <PUBCHEM_BOND_UDEF_STEREO_COUNT>  (1) 
0

>  <PUBCHEM_ISOTOPIC_ATOM_COUNT>  (1) 
0

>  <PUBCHEM_COMPONENT_COUNT>  (1) 
1

>  <PUBCHEM_CACTVS_TAUTO_COUNT>  (1) 
1

>  <PUBCHEM_CONFORMER_ID>  (1) 
000061AD00000001

>  <PUBCHEM_MMFF94_ENERGY>  (1) 
19.6646

>  <PUBCHEM_FEATURE_SELFOVERLAP>  (1) 
30.449

>  <PUBCHEM_SHAPE_FINGERPRINT>  (1) 
10130415 120 18259977185110420506
12932764 1 17313649547096301943
13922767 16 18340481252921149376
14325111 11 18264770028862037951
15207287 21 12679461984377491852
15775835 57 18335702728484884525
17802600 8 18410002256928741013
18511873 20 18411982476763431236
19973954 147 18121780801001784955
20233049 118 18334294245130802732
20653085 51 18338804532127637635
23402539 116 18272925025591802270

>  <PUBCHEM_SHAPE_MULTIPOLES>  (1) 
212.63
6.66
1.87
0.73
4.18
0.64
0.03
1.11
0.65
-0.24
-0.24
-0.18
0
-0.11

>  <PUBCHEM_SHAPE_SELFOVERLAP>  (1) 
394.275

>  <PUBCHEM_SHAPE_VOLUME>  (1) 
132.7

>  <PUBCHEM_COORDINATE_TYPE>  (1) 
2
5
10

$$$$
