25008
     RDKit          3D

 11 10  0  0  0  0  0  0  0  0999 V2000
   -0.0181   -0.3391    0.0252 O   0  0  0  0  0  0  0  0  0  0  0  0
    3.5586    0.2942   -0.0280 O   0  0  0  0  0  0  0  0  0  0  0  0
   -3.5712    0.4139    0.1564 O   0  0  0  0  0  0  0  0  0  0  0  0
    1.1698    0.4403    0.0286 C   0  0  0  0  0  0  0  0  0  0  0  0
    2.3696   -0.4864   -0.0108 C   0  0  0  0  0  0  0  0  0  0  0  0
   -1.1792    0.4806    0.0838 C   0  0  0  0  0  0  0  0  0  0  0  0
   -2.4106   -0.4046    0.0772 C   0  0  0  0  0  0  0  0  0  0  0  0
    4.7192   -0.5252   -0.0429 C   0  0  0  0  0  0  0  0  0  0  0  0
    5.9474    0.3596   -0.0608 C   0  0  0  0  0  0  0  0  0  0  0  0
   -4.7083   -0.3227    0.1334 C   0  0  0  0  0  0  0  0  0  0  0  0
   -5.8770    0.0895   -0.3620 C   0  0  0  0  0  0  0  0  0  0  0  0
  1  4  1  0
  1  6  1  0
  2  5  1  0
  2  8  1  0
  3  7  1  0
  3 10  1  0
  4  5  1  0
  6  7  1  0
  8  9  1  0
 10 11  2  0
M  END
>  <PUBCHEM_COMPOUND_CID>  (1) 
25008

>  <PUBCHEM_CONFORMER_RMSD>  (1) 
0.8

>  <PUBCHEM_CONFORMER_DIVERSEORDER>  (1) 
3
40
49
55
43
21
42
31
23
53
56
58
52
7
57
65
44
63
62
14
60
66
51
54
5
16
35
10
46
27
68
8
17
9
19
36
41
28
50
12
64
20
6
34
24
37
48
25
26
59
47
11
67
13
4
45
38
29
33
18
32
69
2
61
15
1
39
22
30

>  <PUBCHEM_MMFF94_PARTIAL_CHARGES>  (1) 
13
1 -0.56
10 -0.07
11 -0.3
2 -0.56
25 0.15
26 0.15
27 0.15
3 -0.36
4 0.28
5 0.28
6 0.28
7 0.28
8 0.28

>  <PUBCHEM_EFFECTIVE_ROTOR_COUNT>  (1) 
8

>  <PUBCHEM_PHARMACOPHORE_FEATURES>  (1) 
3
1 1 acceptor
1 2 acceptor
1 3 acceptor

>  <PUBCHEM_HEAVY_ATOM_COUNT>  (1) 
11

>  <PUBCHEM_ATOM_DEF_STEREO_COUNT>  (1) 
0

>  <PUBCHEM_ATOM_UDEF_STEREO_COUNT>  (1) 
0

>  <PUBCHEM_BOND_DEF_STEREO_COUNT>  (1) 
0

>  <PUBCHEM_BOND_UDEF_STEREO_COUNT>  (1) 
0

>  <PUBCHEM_ISOTOPIC_ATOM_COUNT>  (1) 
0

>  <PUBCHEM_COMPONENT_COUNT>  (1) 
1

>  <PUBCHEM_CACTVS_TAUTO_COUNT>  (1) 
1

>  <PUBCHEM_CONFORMER_ID>  (1) 
000061B000000003

>  <PUBCHEM_MMFF94_ENERGY>  (1) 
20.2605

>  <PUBCHEM_FEATURE_SELFOVERLAP>  (1) 
15.223

>  <PUBCHEM_SHAPE_FINGERPRINT>  (1) 
12091667 2 18260830402118104035
12815109 37 18259984876980077028
14123238 8 17988925565313584214
14251718 22 18411418423198697515
17834072 33 17988922309744334604
17834076 25 18410292514475002030
187816 3 16732985318979921217
20645477 70 18270120098378420190
20719005 15 18411138030326807690
20767249 13 18410855460128168299
20767249 213 18410575101842954604
23402539 116 12829208897113046243
23521765 1 18341894095129024870
366044 4 18408323293508445922
42788 4 18410575084705361384
8209 1 18410573989446424957

>  <PUBCHEM_SHAPE_MULTIPOLES>  (1) 
208.77
15.05
0.75
0.61
0.65
0.01
0.01
-0.12
1.02
0.14
0
-0.09
0
0.03

>  <PUBCHEM_SHAPE_SELFOVERLAP>  (1) 
374.456

>  <PUBCHEM_SHAPE_VOLUME>  (1) 
135.5

>  <PUBCHEM_COORDINATE_TYPE>  (1) 
2
5
10

$$$$
