25009
     RDKit          3D

 13 12  0  0  1  0  0  0  0  0999 V2000
   -0.2788   -0.4492   -0.5998 O   0  0  0  0  0  0  0  0  0  0  0  0
    2.4890   -0.5332   -0.1964 O   0  0  0  0  0  0  0  0  0  0  0  0
    3.5968    1.7647    0.9102 O   0  0  0  0  0  0  0  0  0  0  0  0
   -2.2619    0.9267   -0.9118 C   0  0  0  0  0  0  0  0  0  0  0  0
   -2.8352    0.7079    0.5033 C   0  0  0  0  0  0  0  0  0  0  0  0
   -1.4222   -0.2531   -1.4195 C   0  0  0  0  0  0  0  0  0  0  0  0
   -3.7453   -0.5179    0.6088 C   0  0  0  0  0  0  0  0  0  0  0  0
   -1.4302    2.2147   -0.9256 C   0  0  0  0  0  0  0  0  0  0  0  0
   -4.3502   -0.6412    1.9993 C   0  0  0  0  0  0  0  0  0  0  0  0
    0.4961   -1.5566   -1.0402 C   0  0  0  0  0  0  0  0  0  0  0  0
    1.6978   -1.7134   -0.1286 C   0  0  0  0  0  0  0  0  0  0  0  0
    3.6213   -0.6158    0.6579 C   0  0  0  0  0  0  0  0  0  0  0  0
    4.4227    0.6665    0.5425 C   0  0  0  0  0  0  0  0  0  0  0  0
  1  6  1  0
  1 10  1  0
  2 11  1  0
  2 12  1  0
  3 13  1  0
  4  5  1  0
  4  6  1  0
  4  8  1  0
  5  7  1  0
  7  9  1  0
 10 11  1  0
 12 13  1  0
M  END
>  <PUBCHEM_COMPOUND_CID>  (1) 
25009

>  <PUBCHEM_CONFORMER_RMSD>  (1) 
0.8

>  <PUBCHEM_CONFORMER_DIVERSEORDER>  (1) 
1
17
336
109
164
102
357
206
22
134
352
216
280
171
271
268
47
249
121
241
338
119
302
15
246
278
138
16
38
291
173
192
33
31
56
331
84
93
329
204
290
214
161
40
303
87
146
267
45
353
328
221
123
61
30
349
62
90
322
205
185
318
142
86
260
300
315
165
235
233
126
13
334
154
6
169
348
223
262
137
282
339
324
184
200
69
106
72
181
219
135
98
197
265
213
71
301
230
131
108
59
250
299
212
92
335
252
25
222
153
39
248
215
32
80
304
244
111
78
101
337
155
266
294
41
323
91
273
182
220
148
269
347
11
279
70
170
196
258
224
326
140
139
24
210
342
23
4
42
120
188
145
236
50
333
132
94
54
2
158
209
189
48
211
344
296
207
8
312
129
73
317
295
110
83
240
46
286
356
187
117
20
351
345
194
118
288
307
21
115
355
26
36
159
18
231
253
289
191
320
293
179
43
133
67
29
186
202
58
275
116
76
276
63
150
321
340
180
112
105
229
297
316
177
257
34
201
245
130
128
88
330
74
27
259
234
264
136
64
77
313
9
255
75
178
147
160
325
7
218
243
162
49
199
270
166
193
157
35
256
341
53
156
226
143
5
292
52
232
55
308
89
254
195
198
176
237
174
95
57
141
263
144
68
287
217
125
203
79
183
343
122
354
124
99
19
3
305
107
309
44
163
97
37
346
272
114
81
281
167
208
60
127
284
285
311
274
283
14
96
152
28
327
104
238
319
66
225
310
242
168
332
306
261
190
82
239
247
227
228
149
172
12
51
113
85
350
100
175
298
10
251
314
65
103
277
151

>  <PUBCHEM_MMFF94_PARTIAL_CHARGES>  (1) 
9
1 -0.56
10 0.28
11 0.28
12 0.28
13 0.28
2 -0.56
3 -0.68
35 0.4
6 0.28

>  <PUBCHEM_EFFECTIVE_ROTOR_COUNT>  (1) 
9

>  <PUBCHEM_PHARMACOPHORE_FEATURES>  (1) 
6
1 1 acceptor
1 2 acceptor
1 3 acceptor
1 3 donor
1 8 hydrophobe
1 9 hydrophobe

>  <PUBCHEM_HEAVY_ATOM_COUNT>  (1) 
13

>  <PUBCHEM_ATOM_DEF_STEREO_COUNT>  (1) 
0

>  <PUBCHEM_ATOM_UDEF_STEREO_COUNT>  (1) 
1

>  <PUBCHEM_BOND_DEF_STEREO_COUNT>  (1) 
0

>  <PUBCHEM_BOND_UDEF_STEREO_COUNT>  (1) 
0

>  <PUBCHEM_ISOTOPIC_ATOM_COUNT>  (1) 
0

>  <PUBCHEM_COMPONENT_COUNT>  (1) 
1

>  <PUBCHEM_CACTVS_TAUTO_COUNT>  (1) 
1

>  <PUBCHEM_CONFORMER_ID>  (1) 
000061B100000001

>  <PUBCHEM_MMFF94_ENERGY>  (1) 
16.3172

>  <PUBCHEM_FEATURE_SELFOVERLAP>  (1) 
30.454

>  <PUBCHEM_SHAPE_FINGERPRINT>  (1) 
10610426 29 15502377871968141839
10726558 24 11383842541256762021
13549 16 10447930555243584423
13897977 13 18131634456970205993
14026960 21 18409726279140865156
14123260 362 16630524042089749011
14178342 30 17241612702140196655
15342168 16 17846784017937271937
15806764 133 17842574949992395908
17834072 14 15719391767481502455
18186145 218 17846774092711008302
19107657 9 17060334124024539218
200 152 13045942408328711666
20621476 91 17896601889275712275
20671657 53 14851896893213483927
20742870 56 10159700170744479414
20828058 19 13045943495076848022
22218785 32 10879993515387378673
22959321 28 18271522013835670460
22959321 60 18335699416558736108
23253445 4 18338529603176737643
23503958 25 18339367349053286492
23532345 11 17531817818539840679
23557571 272 17968384424928034789
23590187 138 17774436208833179840
251288 83 15864074303910517174
3086196 2 17458632190080668061
57210444 14 11167945745072675229
57483677 103 16630532799854996611
6049 1 18122355583395246798
9882013 296 18334016107216840035

>  <PUBCHEM_SHAPE_MULTIPOLES>  (1) 
249.93
8.79
1.9
1.5
3.7
0.73
0.21
0.17
5.61
0.18
-0.21
-1.09
-0.19
1.59

>  <PUBCHEM_SHAPE_SELFOVERLAP>  (1) 
450.659

>  <PUBCHEM_SHAPE_VOLUME>  (1) 
161.3

>  <PUBCHEM_COORDINATE_TYPE>  (1) 
2
5
10

$$$$
