25002
     RDKit          3D

 15 14  0  0  1  0  0  0  0  0999 V2000
    3.2683   -0.8592    0.1273 O   0  0  0  0  0  0  0  0  0  0  0  0
   -2.3238    0.8131    0.5155 C   0  0  0  0  0  0  0  0  0  0  0  0
   -0.9249    1.2312    1.0257 C   0  0  0  0  0  0  0  0  0  0  0  0
   -2.4127   -0.7155    0.2929 C   0  0  0  0  0  0  0  0  0  0  0  0
    0.1941    1.0566   -0.0076 C   0  0  0  0  0  0  0  0  0  0  0  0
    1.5336    1.5618    0.5402 C   0  0  0  0  0  0  0  0  0  0  0  0
   -3.8017   -1.2330   -0.1451 C   0  0  0  0  0  0  0  0  0  0  0  0
    2.6963    1.4311   -0.4649 C   0  0  0  0  0  0  0  0  0  0  0  0
   -2.6461    1.6199   -0.7453 C   0  0  0  0  0  0  0  0  0  0  0  0
   -4.2407   -0.6290   -1.4825 C   0  0  0  0  0  0  0  0  0  0  0  0
   -4.8537   -0.8907    0.9164 C   0  0  0  0  0  0  0  0  0  0  0  0
    2.9200   -0.0061   -0.9539 C   0  0  0  0  0  0  0  0  0  0  0  0
    3.9777    1.9816    0.1719 C   0  0  0  0  0  0  0  0  0  0  0  0
    3.4245   -2.1446   -0.2747 C   0  0  0  0  0  0  0  0  0  0  0  0
    3.1892   -3.2173    0.4839 C   0  0  0  0  0  0  0  0  0  0  0  0
  1 12  1  0
  1 14  1  0
  2  3  1  0
  2  4  1  0
  2  9  1  0
  3  5  1  0
  4  7  1  0
  5  6  1  0
  6  8  1  0
  7 10  1  0
  7 11  1  0
  8 12  1  0
  8 13  1  0
 14 15  2  0
M  END
>  <PUBCHEM_COMPOUND_CID>  (1) 
25002

>  <PUBCHEM_CONFORMER_RMSD>  (1) 
0.8

>  <PUBCHEM_CONFORMER_DIVERSEORDER>  (1) 
50
173
42
169
27
13
179
125
38
47
144
97
175
143
129
160
78
141
20
48
29
168
18
45
100
155
35
181
112
137
158
95
108
58
63
107
131
59
111
11
115
180
53
170
182
124
67
70
177
9
161
15
93
52
69
8
28
106
5
154
102
79
46
43
30
60
151
134
40
1
156
116
17
6
66
81
83
128
92
25
138
140
26
57
74
36
145
75
133
132
94
84
119
163
174
16
85
126
55
101
54
171
24
12
178
32
130
23
77
62
80
88
139
157
72
172
135
14
176
150
73
3
91
165
21
104
64
162
149
152
89
147
76
146
33
148
159
37
153
109
39
166
123
98
118
110
96
121
114
41
61
82
113
142
56
34
44
122
86
167
103
105
90
19
127
99
65
2
68
136
7
184
87
49
164
10
120
22
31
71
51
117
183
4

>  <PUBCHEM_MMFF94_PARTIAL_CHARGES>  (1) 
7
1 -0.36
12 0.28
14 -0.07
15 -0.3
41 0.15
42 0.15
43 0.15

>  <PUBCHEM_EFFECTIVE_ROTOR_COUNT>  (1) 
9

>  <PUBCHEM_PHARMACOPHORE_FEATURES>  (1) 
4
1 1 acceptor
1 13 hydrophobe
1 9 hydrophobe
3 7 10 11 hydrophobe

>  <PUBCHEM_HEAVY_ATOM_COUNT>  (1) 
15

>  <PUBCHEM_ATOM_DEF_STEREO_COUNT>  (1) 
0

>  <PUBCHEM_ATOM_UDEF_STEREO_COUNT>  (1) 
2

>  <PUBCHEM_BOND_DEF_STEREO_COUNT>  (1) 
0

>  <PUBCHEM_BOND_UDEF_STEREO_COUNT>  (1) 
0

>  <PUBCHEM_ISOTOPIC_ATOM_COUNT>  (1) 
0

>  <PUBCHEM_COMPONENT_COUNT>  (1) 
1

>  <PUBCHEM_CACTVS_TAUTO_COUNT>  (1) 
1

>  <PUBCHEM_CONFORMER_ID>  (1) 
000061AA00000032

>  <PUBCHEM_MMFF94_ENERGY>  (1) 
33.6141

>  <PUBCHEM_FEATURE_SELFOVERLAP>  (1) 
20.298

>  <PUBCHEM_SHAPE_FINGERPRINT>  (1) 
10062212 137 18200873972678237611
122479 349 8718835279827415173
12616999 72 18187091701819386108
13533116 47 18342739628730607051
14123260 362 12685093666182333023
14251705 54 18268714900763620006
14251731 5 18336834082668072150
14251757 17 18040721385103701603
14848160 33 18411698751303466142
15099037 8 18270403789114734728
15239191 94 18272654558273165317
15375462 189 17988646336657685889
15537594 2 18200886191633471767
18186145 218 17313105224389468433
20281475 54 18342179933861483049
20291156 8 18268433438708494066
20621476 51 17398377638587831546
20645477 70 18261111889378531546
21054139 6 18127122211599847852
221490 88 18336270063431259410
22485316 2 18130791208845373233
235170 7 17676480687738951959
23557571 272 17676198091681253557
23559900 14 18409441488449642216
23596394 208 18186794777328210599
2871803 45 18340209682318299916
33824 294 18410857702734060664
4283 87 18411974754402443590
556388 4 18411134749035733723
58051976 100 18337113341489156917
58051976 378 18338799047560148996
59682541 52 18194936644680652799
6433294 58 18410015463410396450
88748 71 18190749634744029643
9709674 26 18333736831300347354
9971528 1 11747479675578762392

>  <PUBCHEM_SHAPE_MULTIPOLES>  (1) 
302.82
10.03
2.85
1.07
3.99
1.84
-0.16
3.9
-0.78
-3.78
0.34
0.8
-0.01
-0.1

>  <PUBCHEM_SHAPE_SELFOVERLAP>  (1) 
556.628

>  <PUBCHEM_SHAPE_VOLUME>  (1) 
192.7

>  <PUBCHEM_COORDINATE_TYPE>  (1) 
2
5
10

$$$$
