25013
     RDKit          3D

 15 15  0  0  1  0  0  0  0  0999 V2000
   -1.3351    2.7491   -0.6764 Cl  0  0  0  0  0  0  0  0  0  0  0  0
   -4.6184   -1.5157   -0.7143 Cl  0  0  0  0  0  0  0  0  0  0  0  0
    2.1566   -0.5479    0.3241 O   0  0  0  0  0  0  0  0  0  0  0  0
    3.4168   -0.4747   -1.6009 O   0  0  0  0  0  0  0  0  0  0  0  0
    3.9945   -1.8393    0.1572 N   0  0  0  0  0  0  0  0  0  0  0  0
    0.4995    1.0379    1.1143 C   0  0  0  0  0  0  0  0  0  0  0  0
    1.6701    0.7814    0.1483 C   0  0  0  0  0  0  0  0  0  0  0  0
   -0.7820    0.4298    0.6430 C   0  0  0  0  0  0  0  0  0  0  0  0
    2.8222    1.7499    0.3844 C   0  0  0  0  0  0  0  0  0  0  0  0
   -1.6706    1.1334   -0.1701 C   0  0  0  0  0  0  0  0  0  0  0  0
   -1.0796   -0.8751    1.0359 C   0  0  0  0  0  0  0  0  0  0  0  0
   -2.8572    0.5320   -0.5900 C   0  0  0  0  0  0  0  0  0  0  0  0
   -2.2659   -1.4764    0.6161 C   0  0  0  0  0  0  0  0  0  0  0  0
   -3.1548   -0.7729   -0.1968 C   0  0  0  0  0  0  0  0  0  0  0  0
    3.2042   -0.9114   -0.4748 C   0  0  0  0  0  0  0  0  0  0  0  0
  1 10  1  0
  2 14  1  0
  3  7  1  0
  3 15  1  0
  4 15  2  0
  5 15  1  0
  6  7  1  0
  6  8  1  0
  7  9  1  0
  8 10  2  0
  8 11  1  0
 10 12  1  0
 11 13  2  0
 12 14  2  0
 13 14  1  0
M  END
>  <PUBCHEM_COMPOUND_CID>  (1) 
25013

>  <PUBCHEM_CONFORMER_RMSD>  (1) 
0.6

>  <PUBCHEM_CONFORMER_DIVERSEORDER>  (1) 
1
35
52
58
57
53
29
36
26
3
50
15
32
51
42
24
6
38
40
7
33
31
37
41
43
5
23
55
56
54
8
21
44
19
16
20
46
45
49
18
12
22
47
34
4
14
30
48
25
39
28
9
2
27
11
13
10
17

>  <PUBCHEM_MMFF94_PARTIAL_CHARGES>  (1) 
19
1 -0.18
10 0.18
11 -0.15
12 -0.15
13 -0.15
14 0.18
15 0.78
2 -0.18
22 0.15
23 0.15
24 0.15
25 0.37
26 0.37
3 -0.43
4 -0.57
5 -0.8
6 0.14
7 0.28
8 -0.14

>  <PUBCHEM_EFFECTIVE_ROTOR_COUNT>  (1) 
4

>  <PUBCHEM_PHARMACOPHORE_FEATURES>  (1) 
3
1 4 acceptor
1 5 donor
6 8 10 11 12 13 14 rings

>  <PUBCHEM_HEAVY_ATOM_COUNT>  (1) 
15

>  <PUBCHEM_ATOM_DEF_STEREO_COUNT>  (1) 
0

>  <PUBCHEM_ATOM_UDEF_STEREO_COUNT>  (1) 
1

>  <PUBCHEM_BOND_DEF_STEREO_COUNT>  (1) 
0

>  <PUBCHEM_BOND_UDEF_STEREO_COUNT>  (1) 
0

>  <PUBCHEM_ISOTOPIC_ATOM_COUNT>  (1) 
0

>  <PUBCHEM_COMPONENT_COUNT>  (1) 
1

>  <PUBCHEM_CACTVS_TAUTO_COUNT>  (1) 
2

>  <PUBCHEM_CONFORMER_ID>  (1) 
000061B500000001

>  <PUBCHEM_MMFF94_ENERGY>  (1) 
34.2499

>  <PUBCHEM_FEATURE_SELFOVERLAP>  (1) 
15.223

>  <PUBCHEM_SHAPE_FINGERPRINT>  (1) 
10062212 137 17972028141822080562
10465860 71 17967813898789466221
11127187 94 18409450258840964895
11206711 2 18334861571539574545
11769659 78 17917426579433970167
12032990 46 18335701697898637315
12251169 10 11239989057948523162
13296908 3 18343299279579322305
13764800 53 10737295627326433502
14252887 29 18266739276036664137
16945 1 18262228920172678705
18186145 218 18114170930902746909
200 152 17917710218620510986
20279233 1 18335419127188139242
20281475 54 18201439215975214739
20361792 2 16558749009708239176
20374829 77 18411693292732192703
20645476 183 16226042331867370035
20645477 70 18202001070480185359
20671657 53 18342179938556961112
20871999 31 18186521007939580005
21501502 16 18342183258108199865
21524375 3 17464534196489608645
21618674 68 18263921201638387684
22802520 49 18408606958918165761
23402539 116 18260538996480809437
23403322 49 18270964527344900486
23557571 272 18260816137767479144
23559900 14 18410284792767557648
2748010 2 18190742127330431339
3286 77 17561075947445682251
4463277 69 17916583275606425527
58051976 378 18265616661896275820
7097593 13 11815337014838911812
7364860 26 17760645167888810881
76465 3 18342449335648331198
8030462 33 17530680987572062360
81228 2 18259983786333444297
90316 7 12895070700131583803
9709674 26 18337106868751642338

>  <PUBCHEM_SHAPE_MULTIPOLES>  (1) 
295.71
7.39
2.3
1.08
0.79
1.01
-0.08
-4.44
-2.3
0.02
-0.27
0.23
-0.05
0.54

>  <PUBCHEM_SHAPE_SELFOVERLAP>  (1) 
590.086

>  <PUBCHEM_SHAPE_VOLUME>  (1) 
176.7

>  <PUBCHEM_COORDINATE_TYPE>  (1) 
2
5
10

$$$$
