25010
     RDKit          3D

 17 16  0  0  1  0  0  0  0  0999 V2000
   -0.0001    0.0000   -0.1313 O   0  0  0  0  0  0  0  0  0  0  0  0
   -2.4264    0.0358   -0.2249 C   0  0  0  0  0  0  0  0  0  0  0  0
    2.4264   -0.0359   -0.2249 C   0  0  0  0  0  0  0  0  0  0  0  0
   -3.6813   -0.1766    0.6479 C   0  0  0  0  0  0  0  0  0  0  0  0
    3.6813    0.1765    0.6479 C   0  0  0  0  0  0  0  0  0  0  0  0
   -1.1750    0.0120    0.6680 C   0  0  0  0  0  0  0  0  0  0  0  0
    1.1750   -0.0121    0.6681 C   0  0  0  0  0  0  0  0  0  0  0  0
   -2.4853    1.2930   -1.1215 C   0  0  0  0  0  0  0  0  0  0  0  0
    2.4853   -1.2929   -1.1215 C   0  0  0  0  0  0  0  0  0  0  0  0
   -4.9745   -0.3183   -0.1614 C   0  0  0  0  0  0  0  0  0  0  0  0
    4.9745    0.3183   -0.1614 C   0  0  0  0  0  0  0  0  0  0  0  0
   -6.2154   -0.5115    0.7146 C   0  0  0  0  0  0  0  0  0  0  0  0
    6.2154    0.5115    0.7145 C   0  0  0  0  0  0  0  0  0  0  0  0
   -2.6015    2.6150   -0.3752 C   0  0  0  0  0  0  0  0  0  0  0  0
    2.6015   -2.6150   -0.3753 C   0  0  0  0  0  0  0  0  0  0  0  0
   -7.5061   -0.6269   -0.0818 C   0  0  0  0  0  0  0  0  0  0  0  0
    7.5061    0.6269   -0.0818 C   0  0  0  0  0  0  0  0  0  0  0  0
  1  6  1  0
  1  7  1  0
  2  4  1  0
  2  6  1  0
  2  8  1  0
  3  5  1  0
  3  7  1  0
  3  9  1  0
  4 10  1  0
  5 11  1  0
  8 14  1  0
  9 15  1  0
 10 12  1  0
 11 13  1  0
 12 16  1  0
 13 17  1  0
M  END
>  <PUBCHEM_COMPOUND_CID>  (1) 
25010

>  <PUBCHEM_CONFORMER_RMSD>  (1) 
1

>  <PUBCHEM_CONFORMER_DIVERSEORDER>  (1) 
1
288
171
231
193
181
226
2
230
7
342
138
12
174
142
339
139
218
293
322
77
87
328
106
323
54
32
223
15
292
307
40
337
61
227
274
21
14
299
334
336
89
330
49
256
266
11
105
308
29
191
269
296
85
6
199
243
335
244
197
9
94
302
135
228
291
316
144
252
215
38
321
55
116
271
3
333
295
220
277
319
207
95
122
290
245
242
151
129
212
254
119
160
280
22
325
24
312
236
20
303
130
310
275
154
318
74
17
162
187
125
313
272
64
5
163
239
279
259
249
152
117
25
86
203
80
283
158
107
147
183
56
102
297
309
58
108
96
268
289
127
332
263
344
112
173
149
111
169
194
248
219
246
233
35
224
164
156
83
75
257
84
258
136
284
214
128
305
50
184
341
217
148
170
176
221
209
51
270
234
211
264
4
93
298
59
167
30
282
186
109
120
222
100
251
37
260
98
315
28
213
146
190
41
229
287
90
255
67
285
159
133
150
345
237
157
76
300
113
123
200
185
46
286
202
177
45
331
132
114
265
126
103
141
180
189
326
65
82
72
320
143
216
99
13
192
168
68
225
201
31
145
278
33
304
121
175
238
311
179
276
18
327
137
53
208
34
317
235
115
343
210
198
88
101
262
182
178
172
329
241
273
206
161
124
240
42
63
19
155
69
62
134
118
71
301
281
195
165
294
70
267
91
66
79
306
131
8
48
232
81
43
247
338
10
166
16
104
324
73
26
57
39
253
97
153
23
204
60
188
140
47
52
44
110
340
92
250
36
27
314
78
261
205
196

>  <PUBCHEM_MMFF94_PARTIAL_CHARGES>  (1) 
3
1 -0.56
6 0.28
7 0.28

>  <PUBCHEM_EFFECTIVE_ROTOR_COUNT>  (1) 
12

>  <PUBCHEM_PHARMACOPHORE_FEATURES>  (1) 
7
1 1 acceptor
1 14 hydrophobe
1 15 hydrophobe
1 16 hydrophobe
1 17 hydrophobe
5 2 4 8 10 12 hydrophobe
5 3 5 9 11 13 hydrophobe

>  <PUBCHEM_HEAVY_ATOM_COUNT>  (1) 
17

>  <PUBCHEM_ATOM_DEF_STEREO_COUNT>  (1) 
0

>  <PUBCHEM_ATOM_UDEF_STEREO_COUNT>  (1) 
2

>  <PUBCHEM_BOND_DEF_STEREO_COUNT>  (1) 
0

>  <PUBCHEM_BOND_UDEF_STEREO_COUNT>  (1) 
0

>  <PUBCHEM_ISOTOPIC_ATOM_COUNT>  (1) 
0

>  <PUBCHEM_COMPONENT_COUNT>  (1) 
1

>  <PUBCHEM_CACTVS_TAUTO_COUNT>  (1) 
1

>  <PUBCHEM_CONFORMER_ID>  (1) 
000061B200000001

>  <PUBCHEM_MMFF94_ENERGY>  (1) 
14.0353

>  <PUBCHEM_FEATURE_SELFOVERLAP>  (1) 
35.53

>  <PUBCHEM_SHAPE_FINGERPRINT>  (1) 
11089746 13 8286199444371677267
11315181 36 16515691056533454817
12166972 35 15430037677445056460
13073987 5 18260825939177676376
13533116 47 16805590456775796560
13914758 101 14346064305201459949
14123256 10 18410856572524691475
14251732 16 18410856559639789683
14251764 46 17989488537258767842
17834072 8 9511462225379447719
17834076 25 17561366192655868992
18006028 8 18334856143624227925
18335252 98 18411140225804286171
20645477 70 17916873404779083942
20681677 155 13973677343356149612
22224240 67 18341327881570437338
23035841 295 14333410047536812532
23402539 116 17822006553343705219
23521765 1 18341895207525548217
23557571 272 18260829271798342045
3545911 37 18273495680484294354
4325135 7 18410574002331320508
5104073 3 18266459797802975931
59682541 35 18338516446948098562
59755656 520 15913323602497523909
8209 1 15985107422366316120

>  <PUBCHEM_SHAPE_MULTIPOLES>  (1) 
343.98
18.98
1.72
0.95
0
0
-0.07
0
2.1
0
-0.51
0
0
0.98

>  <PUBCHEM_SHAPE_SELFOVERLAP>  (1) 
620.941

>  <PUBCHEM_SHAPE_VOLUME>  (1) 
222.2

>  <PUBCHEM_COORDINATE_TYPE>  (1) 
2
5
10

$$$$
