25011
     RDKit          3D

  8  7  0  0  1  0  0  0  0  0999 V2000
    1.5175   -0.8454    0.3457 O   0  0  0  0  0  0  0  0  0  0  0  0
   -2.5618    0.3211    0.2042 O   0  0  0  0  0  0  0  0  0  0  0  0
    1.1711    0.3733   -0.3066 C   0  0  0  0  0  0  0  0  0  0  0  0
   -0.2208    0.8276    0.1361 C   0  0  0  0  0  0  0  0  0  0  0  0
   -1.3040   -0.1827   -0.2253 C   0  0  0  0  0  0  0  0  0  0  0  0
    2.2296    1.4189    0.0162 C   0  0  0  0  0  0  0  0  0  0  0  0
    2.7825   -1.3232   -0.0872 C   0  0  0  0  0  0  0  0  0  0  0  0
   -3.6141   -0.5897   -0.0831 C   0  0  0  0  0  0  0  0  0  0  0  0
  1  3  1  0
  1  7  1  0
  2  5  1  0
  2  8  1  0
  3  4  1  0
  3  6  1  0
  4  5  1  0
M  END
>  <PUBCHEM_COMPOUND_CID>  (1) 
25011

>  <PUBCHEM_CONFORMER_RMSD>  (1) 
0.6

>  <PUBCHEM_CONFORMER_DIVERSEORDER>  (1) 
1
10
44
14
47
32
6
52
50
20
2
25
35
34
9
31
49
16
24
40
30
53
13
39
11
28
19
5
15
4
17
12
27
43
37
51
22
8
42
38
36
29
41
26
7
18
21
45
48
23
33
3
46

>  <PUBCHEM_MMFF94_PARTIAL_CHARGES>  (1) 
6
1 -0.56
2 -0.56
3 0.28
5 0.28
7 0.28
8 0.28

>  <PUBCHEM_EFFECTIVE_ROTOR_COUNT>  (1) 
4

>  <PUBCHEM_PHARMACOPHORE_FEATURES>  (1) 
2
1 1 acceptor
1 2 acceptor

>  <PUBCHEM_HEAVY_ATOM_COUNT>  (1) 
8

>  <PUBCHEM_ATOM_DEF_STEREO_COUNT>  (1) 
0

>  <PUBCHEM_ATOM_UDEF_STEREO_COUNT>  (1) 
1

>  <PUBCHEM_BOND_DEF_STEREO_COUNT>  (1) 
0

>  <PUBCHEM_BOND_UDEF_STEREO_COUNT>  (1) 
0

>  <PUBCHEM_ISOTOPIC_ATOM_COUNT>  (1) 
0

>  <PUBCHEM_COMPONENT_COUNT>  (1) 
1

>  <PUBCHEM_CACTVS_TAUTO_COUNT>  (1) 
1

>  <PUBCHEM_CONFORMER_ID>  (1) 
000061B300000001

>  <PUBCHEM_MMFF94_ENERGY>  (1) 
18.0687

>  <PUBCHEM_FEATURE_SELFOVERLAP>  (1) 
10.149

>  <PUBCHEM_SHAPE_FINGERPRINT>  (1) 
12932741 1 17168435938335280569
12932764 1 17703785968267187329
14325111 11 18410856585926564541
20645477 70 18410851058377982159
20651381 32 18408876331088369517
20871998 22 18127415553534605166
23552333 60 18272937132719416432
23552423 10 18333734585079859053
23552449 11 18261382335016298112
29004967 10 18113902688340577529
3248919 1 17530969124349036253
5460574 1 8935012464198196901

>  <PUBCHEM_SHAPE_MULTIPOLES>  (1) 
152.9
5.33
1.34
0.63
3.94
0.02
-0.02
1.39
-0.02
-1.2
0.02
-0.03
0
-0.07

>  <PUBCHEM_SHAPE_SELFOVERLAP>  (1) 
269.048

>  <PUBCHEM_SHAPE_VOLUME>  (1) 
101.9

>  <PUBCHEM_COORDINATE_TYPE>  (1) 
2
5
10

$$$$
