25019
     RDKit          3D

 20 21  0  0  0  0  0  0  0  0999 V2000
    0.3319    0.2546   -1.0012 N   0  0  0  0  0  0  0  0  0  0  0  0
    2.2533    1.6673   -0.4523 N   0  0  0  0  0  0  0  0  0  0  0  0
    0.4685    2.5801   -1.4813 N   0  0  0  0  0  0  0  0  0  0  0  0
    3.4918    2.2081    1.5371 N   0  0  0  0  0  0  0  0  0  0  0  0
    1.2092    2.1462    1.5770 N   0  0  0  0  0  0  0  0  0  0  0  0
   -0.9531    0.0949   -1.6875 C   0  0  0  0  0  0  0  0  0  0  0  0
   -2.0810    0.0606   -0.6938 C   0  0  0  0  0  0  0  0  0  0  0  0
    0.8879   -0.9378   -0.4649 C   0  0  0  0  0  0  0  0  0  0  0  0
   -2.4880   -1.1556   -0.1608 C   0  0  0  0  0  0  0  0  0  0  0  0
   -2.7019    1.2456   -0.3205 C   0  0  0  0  0  0  0  0  0  0  0  0
    0.9900    1.4928   -0.9856 C   0  0  0  0  0  0  0  0  0  0  0  0
    0.6601   -1.2642    0.8667 C   0  0  0  0  0  0  0  0  0  0  0  0
    1.6538   -1.7647   -1.2779 C   0  0  0  0  0  0  0  0  0  0  0  0
   -3.5341   -1.1876    0.7613 C   0  0  0  0  0  0  0  0  0  0  0  0
   -3.7479    1.2136    0.6017 C   0  0  0  0  0  0  0  0  0  0  0  0
    1.2065   -2.4346    1.3931 C   0  0  0  0  0  0  0  0  0  0  0  0
    2.2001   -2.9352   -0.7513 C   0  0  0  0  0  0  0  0  0  0  0  0
   -4.1641   -0.0031    1.1425 C   0  0  0  0  0  0  0  0  0  0  0  0
    1.9763   -3.2701    0.5842 C   0  0  0  0  0  0  0  0  0  0  0  0
    2.3407    1.9891    0.8133 C   0  0  0  0  0  0  0  0  0  0  0  0
  1  6  1  0
  1  8  1  0
  1 11  1  0
  2 11  1  0
  2 20  2  3
  3 11  2  0
  4 20  1  0
  5 20  1  0
  6  7  1  0
  7  9  2  0
  7 10  1  0
  8 12  2  0
  8 13  1  0
  9 14  1  0
 10 15  2  0
 12 16  1  0
 13 17  2  0
 14 18  2  0
 15 18  1  0
 16 19  2  0
 17 19  1  0
M  END
>  <PUBCHEM_COMPOUND_CID>  (1) 
25019

>  <PUBCHEM_CONFORMER_RMSD>  (1) 
0.8

>  <PUBCHEM_CONFORMER_DIVERSEORDER>  (1) 
1
24
34
10
55
38
18
20
49
12
27
25
17
26
42
57
31
29
32
11
19
39
51
37
41
21
16
30
43
46
33
47
4
40
53
45
48
35
54
2
28
7
52
50
5
3
9
15
14
36
22
56
8
6
13
44
23

>  <PUBCHEM_MMFF94_PARTIAL_CHARGES>  (1) 
35
1 -0.52
10 -0.15
11 0.71
12 -0.15
13 -0.15
14 -0.15
15 -0.15
16 -0.15
17 -0.15
18 -0.15
19 -0.15
2 -0.66
20 0.55
23 0.15
24 0.15
25 0.15
26 0.15
27 0.15
28 0.15
29 0.15
3 -0.85
30 0.15
31 0.15
32 0.15
33 0.4
34 0.4
35 0.4
36 0.4
37 0.4
4 -0.85
5 -0.85
6 0.51
7 -0.14
8 0.1
9 -0.15

>  <PUBCHEM_EFFECTIVE_ROTOR_COUNT>  (1) 
5

>  <PUBCHEM_PHARMACOPHORE_FEATURES>  (1) 
7
1 3 donor
1 4 donor
1 5 donor
4 1 2 3 11 cation
4 2 4 5 20 cation
6 7 9 10 14 15 18 rings
6 8 12 13 16 17 19 rings

>  <PUBCHEM_HEAVY_ATOM_COUNT>  (1) 
20

>  <PUBCHEM_ATOM_DEF_STEREO_COUNT>  (1) 
0

>  <PUBCHEM_ATOM_UDEF_STEREO_COUNT>  (1) 
0

>  <PUBCHEM_BOND_DEF_STEREO_COUNT>  (1) 
0

>  <PUBCHEM_BOND_UDEF_STEREO_COUNT>  (1) 
0

>  <PUBCHEM_ISOTOPIC_ATOM_COUNT>  (1) 
0

>  <PUBCHEM_COMPONENT_COUNT>  (1) 
1

>  <PUBCHEM_CACTVS_TAUTO_COUNT>  (1) 
3

>  <PUBCHEM_CONFORMER_ID>  (1) 
000061BB00000001

>  <PUBCHEM_MMFF94_ENERGY>  (1) 
79.5143

>  <PUBCHEM_FEATURE_SELFOVERLAP>  (1) 
35.621

>  <PUBCHEM_SHAPE_FINGERPRINT>  (1) 
11578080 2 17750792134421668948
12506688 2 17899143719435343103
12553582 1 17972040236782535407
12788726 201 17113253343738945038
13533116 47 18411145710762502899
14178342 30 18264211477435000245
14223421 5 18408888451549382143
14787075 74 17968387749523599470
15309172 13 18045490061300885588
15375462 189 17534080583247192667
18981168 100 13686008882281860527
20600515 1 17617110104786153740
21524375 3 18055910145876594958
21731228 192 18124025990813530480
23419403 2 17973985289925977892
23559900 14 18261119547901124231
2748010 2 18114451254764763335
305870 269 18271801375646442356
35225 105 17329669598884659883
576247 118 17981038613931571606
5895379 119 16197082106161825089
7364860 26 18342181046368652415
81228 2 17117469971005266574

>  <PUBCHEM_SHAPE_MULTIPOLES>  (1) 
386.69
5.8
3.61
1.61
5.79
0.01
0.04
0.36
2.11
-4.14
0.73
-0.51
-0.39
0.91

>  <PUBCHEM_SHAPE_SELFOVERLAP>  (1) 
822.68

>  <PUBCHEM_SHAPE_VOLUME>  (1) 
210.2

>  <PUBCHEM_COORDINATE_TYPE>  (1) 
2
5
10

$$$$
