25023
     RDKit          3D

 17 19  0  0  1  0  0  0  0  0999 V2000
   -0.0983   -1.2246   -0.0924 N   0  0  0  0  0  0  0  0  0  0  0  0
    0.8798   -2.2624   -0.4409 C   0  0  0  0  0  0  0  0  0  0  0  0
    0.3451    0.0848   -0.6024 C   0  0  0  0  0  0  0  0  0  0  0  0
    2.1979   -2.0038    0.2960 C   0  0  0  0  0  0  0  0  0  0  0  0
    1.7619    0.4324   -0.2065 C   0  0  0  0  0  0  0  0  0  0  0  0
    2.6620   -0.5752    0.1810 C   0  0  0  0  0  0  0  0  0  0  0  0
   -1.4196   -1.5571   -0.6242 C   0  0  0  0  0  0  0  0  0  0  0  0
    2.2039    1.7600   -0.2861 C   0  0  0  0  0  0  0  0  0  0  0  0
    3.9785   -0.2359    0.5188 C   0  0  0  0  0  0  0  0  0  0  0  0
   -2.4549   -0.5367   -0.2324 C   0  0  0  0  0  0  0  0  0  0  0  0
    3.5193    2.0864    0.0431 C   0  0  0  0  0  0  0  0  0  0  0  0
    4.4049    1.0900    0.4472 C   0  0  0  0  0  0  0  0  0  0  0  0
   -3.1683   -0.7047    0.9462 C   0  0  0  0  0  0  0  0  0  0  0  0
   -2.6812    0.5580   -1.0552 C   0  0  0  0  0  0  0  0  0  0  0  0
   -4.1274    0.2407    1.3093 C   0  0  0  0  0  0  0  0  0  0  0  0
   -3.6403    1.5035   -0.6919 C   0  0  0  0  0  0  0  0  0  0  0  0
   -4.3633    1.3448    0.4904 C   0  0  0  0  0  0  0  0  0  0  0  0
  1  2  1  0
  1  3  1  0
  1  7  1  0
  2  4  1  0
  3  5  1  0
  4  6  1  0
  5  6  2  0
  5  8  1  0
  6  9  1  0
  7 10  1  0
  8 11  2  0
  9 12  2  0
 10 13  2  0
 10 14  1  0
 11 12  1  0
 13 15  1  0
 14 16  2  0
 15 17  2  0
 16 17  1  0
M  END
>  <PUBCHEM_COMPOUND_CID>  (1) 
25023

>  <PUBCHEM_CONFORMER_RMSD>  (1) 
0.6

>  <PUBCHEM_CONFORMER_DIVERSEORDER>  (1) 
1
4
7
6
3
5
8
9
10
2

>  <PUBCHEM_MMFF94_PARTIAL_CHARGES>  (1) 
26
1 -0.81
10 -0.14
11 -0.15
12 -0.15
13 -0.15
14 -0.15
15 -0.15
16 -0.15
17 -0.15
2 0.27
26 0.15
27 0.15
28 0.15
29 0.15
3 0.41
30 0.15
31 0.15
32 0.15
33 0.15
34 0.15
4 0.14
5 -0.14
6 -0.14
7 0.41
8 -0.15
9 -0.15

>  <PUBCHEM_EFFECTIVE_ROTOR_COUNT>  (1) 
2.8

>  <PUBCHEM_PHARMACOPHORE_FEATURES>  (1) 
4
1 1 cation
6 1 2 3 4 5 6 rings
6 10 13 14 15 16 17 rings
6 5 6 8 9 11 12 rings

>  <PUBCHEM_HEAVY_ATOM_COUNT>  (1) 
17

>  <PUBCHEM_ATOM_DEF_STEREO_COUNT>  (1) 
0

>  <PUBCHEM_ATOM_UDEF_STEREO_COUNT>  (1) 
0

>  <PUBCHEM_BOND_DEF_STEREO_COUNT>  (1) 
0

>  <PUBCHEM_BOND_UDEF_STEREO_COUNT>  (1) 
0

>  <PUBCHEM_ISOTOPIC_ATOM_COUNT>  (1) 
0

>  <PUBCHEM_COMPONENT_COUNT>  (1) 
1

>  <PUBCHEM_CACTVS_TAUTO_COUNT>  (1) 
1

>  <PUBCHEM_CONFORMER_ID>  (1) 
000061BF00000001

>  <PUBCHEM_MMFF94_ENERGY>  (1) 
47.3616

>  <PUBCHEM_FEATURE_SELFOVERLAP>  (1) 
20.319

>  <PUBCHEM_SHAPE_FINGERPRINT>  (1) 
10366900 7 17894921762361955747
10382601 240 18187076248590202722
10465860 228 18341334418278416670
10608611 8 18334574595068467053
10980938 120 18410289216246281758
11046707 91 12324236174475610233
11543360 7 14117511090741212440
11640471 11 17846781780391225011
12251169 10 18187085074415705919
12390115 104 18123763203698811276
12507560 40 18187649068220117047
12633257 1 17895185601991796906
12670546 177 12463566300879740642
12788726 201 17629737205895659455
12892183 10 17748826332095117947
13583140 156 16806426124304417412
13675066 3 18186240619183354522
14123255 52 18341894116630228626
14123260 362 17561368378868075769
14289901 80 16298105380239073460
14790565 3 18117846714677057948
15188451 53 16009316530180882163
15219456 202 18261393308647248175
15342168 16 18201165377788070241
15653759 3 17530969055539693877
1601671 61 18407762534721204892
1741750 31 18202565119860831695
1798214 55 18343020016679756000
18186145 218 18272939336153586262
18915474 69 10737293454057397921
193927 3 11386361504826010656
19784866 170 18259705588342329740
19784866 9 18412543193576517080
20157964 124 18339919295896412357
20291156 8 7997974574083182899
204376 136 18342458157706017631
20739085 24 18186523198679128780
20871999 31 10880004548905193475
21065199 12 18186806855182376971
21503847 285 18340774749732744146
21524375 3 18269835474620761358
21713013 43 11599999934476506689
21731228 192 18336266833299634010
22854114 111 18409169913103029758
22854114 59 18408888442885503539
231179 274 18412265025714119934
23402539 116 15482674580838496992
23403322 49 9079117752411384785
27216 239 18335422383258639641
293599 30 18339082692022669900
474 4 18413387618432958043
49207404 50 18188504548174724507
4921388 177 14548734049718650125
5104073 3 18336819892465119170
5161694 15 12103568550441707203
602551 16 15936701431596205816
633830 44 18202005442946621644
6786 2 13195752074652120246
7808743 9 18049445043855987116

>  <PUBCHEM_SHAPE_MULTIPOLES>  (1) 
344.87
9.14
2.23
0.98
1.94
0.28
0.08
-4.5
2.35
-1.14
-0.2
0.81
-0.03
0.1

>  <PUBCHEM_SHAPE_SELFOVERLAP>  (1) 
745.392

>  <PUBCHEM_SHAPE_VOLUME>  (1) 
189.1

>  <PUBCHEM_COORDINATE_TYPE>  (1) 
2
5
10

$$$$
