25032
     RDKit          3D

 13 14  0  0  0  0  0  0  0  0999 V2000
   -0.2570   -1.7828   -0.2387 O   0  0  0  0  0  0  0  0  0  0  0  0
    3.3157    1.3769   -0.5256 O   0  0  0  0  0  0  0  0  0  0  0  0
    3.7276   -0.5958    0.6017 N   0  0  0  0  0  0  0  0  0  0  0  0
   -0.8041    0.5759    0.0339 C   0  0  0  0  0  0  0  0  0  0  0  0
   -1.1647   -0.7698   -0.0914 C   0  0  0  0  0  0  0  0  0  0  0  0
    1.5011   -0.0325   -0.0036 C   0  0  0  0  0  0  0  0  0  0  0  0
    1.1293   -1.4807   -0.0131 C   0  0  0  0  0  0  0  0  0  0  0  0
    0.6024    0.9543    0.0155 C   0  0  0  0  0  0  0  0  0  0  0  0
   -1.8039    1.5482    0.1565 C   0  0  0  0  0  0  0  0  0  0  0  0
   -2.5125   -1.1380   -0.1023 C   0  0  0  0  0  0  0  0  0  0  0  0
   -3.1495    1.1766    0.1543 C   0  0  0  0  0  0  0  0  0  0  0  0
   -3.5032   -0.1650    0.0243 C   0  0  0  0  0  0  0  0  0  0  0  0
    2.9189    0.3327   -0.0114 C   0  0  0  0  0  0  0  0  0  0  0  0
  1  5  1  0
  1  7  1  0
  2 13  2  0
  3 13  1  0
  4  5  2  0
  4  8  1  0
  4  9  1  0
  5 10  1  0
  6  7  1  0
  6  8  2  0
  6 13  1  0
  9 11  2  0
 10 12  2  0
 11 12  1  0
M  END
>  <PUBCHEM_COMPOUND_CID>  (1) 
25032

>  <PUBCHEM_CONFORMER_RMSD>  (1) 
0.4

>  <PUBCHEM_CONFORMER_DIVERSEORDER>  (1) 
1
5
3
4
2
6

>  <PUBCHEM_MMFF94_PARTIAL_CHARGES>  (1) 
20
1 -0.36
10 -0.15
11 -0.15
12 -0.15
13 0.62
16 0.15
17 0.15
18 0.15
19 0.15
2 -0.57
20 0.15
21 0.37
22 0.37
3 -0.8
4 0.03
5 0.08
6 -0.12
7 0.42
8 -0.18
9 -0.15

>  <PUBCHEM_EFFECTIVE_ROTOR_COUNT>  (1) 
1.4

>  <PUBCHEM_PHARMACOPHORE_FEATURES>  (1) 
5
1 1 acceptor
1 2 acceptor
1 3 donor
6 1 4 5 6 7 8 rings
6 4 5 9 10 11 12 rings

>  <PUBCHEM_HEAVY_ATOM_COUNT>  (1) 
13

>  <PUBCHEM_ATOM_DEF_STEREO_COUNT>  (1) 
0

>  <PUBCHEM_ATOM_UDEF_STEREO_COUNT>  (1) 
0

>  <PUBCHEM_BOND_DEF_STEREO_COUNT>  (1) 
0

>  <PUBCHEM_BOND_UDEF_STEREO_COUNT>  (1) 
0

>  <PUBCHEM_ISOTOPIC_ATOM_COUNT>  (1) 
0

>  <PUBCHEM_COMPONENT_COUNT>  (1) 
1

>  <PUBCHEM_CACTVS_TAUTO_COUNT>  (1) 
2

>  <PUBCHEM_CONFORMER_ID>  (1) 
000061C800000001

>  <PUBCHEM_MMFF94_ENERGY>  (1) 
39.7704

>  <PUBCHEM_FEATURE_SELFOVERLAP>  (1) 
25.402

>  <PUBCHEM_SHAPE_FINGERPRINT>  (1) 
10608611 8 18411697655991788389
11132069 177 18413383224538911536
12251169 10 18334289834478659210
12932764 1 17418085537878806327
13380535 21 18270694068906134203
13380535 76 18411698755709118535
14144814 61 18409730668449625128
14325111 11 18410575084768762348
14614273 12 18262513689690076709
14897335 6 18340482253906797213
14993402 34 18334015020616579076
15219456 202 18059300846426471135
15536298 74 18200312104972425790
15669948 3 18270397325299697958
15775835 57 18411142432700110057
16945 1 18341891926397484679
18186145 218 18272657839633830936
193761 8 17691125937591377473
19422 9 18259704518837359714
20510252 161 18201442497050901153
20645476 183 17896336876876939830
20871998 184 18129667537963344983
21501502 16 18340485548104612635
23402539 116 18272076201981961684
23402655 69 18198608962062368453
23463225 33 18335417929013621650
23552423 10 18264490594179630023
23559900 14 18202847665318204948
2748010 2 18196096542883789567
369184 2 17095238116390107913
474 4 17170120498014411284
528886 8 18411976962273382059
53812653 166 18201432567012523256
57096353 35 18338516455611899263
6333449 129 18343016692564758493
7364860 26 18055635014630494710

>  <PUBCHEM_SHAPE_MULTIPOLES>  (1) 
250.81
5.88
1.67
0.64
1.88
0.15
-0.01
-0.94
-0.27
-0.25
0.07
0.09
-0.02
-0.33

>  <PUBCHEM_SHAPE_SELFOVERLAP>  (1) 
545.701

>  <PUBCHEM_SHAPE_VOLUME>  (1) 
135.2

>  <PUBCHEM_COORDINATE_TYPE>  (1) 
2
5
10

$$$$
