25047
     RDKit          3D

 15 14  0  0  0  0  0  0  0  0999 V2000
    2.0532   -0.7120   -0.4539 O   0  0  0  0  0  0  0  0  0  0  0  0
   -2.5268   -0.0614   -0.3443 O   0  0  0  0  0  0  0  0  0  0  0  0
    1.0527   -1.8173    1.3025 O   0  0  0  0  0  0  0  0  0  0  0  0
   -1.7014   -1.9624    0.6535 O   0  0  0  0  0  0  0  0  0  0  0  0
    1.0358    2.1535    0.3389 C   0  0  0  0  0  0  0  0  0  0  0  0
   -0.1277    1.2143    0.7298 C   0  0  0  0  0  0  0  0  0  0  0  0
   -0.1894   -0.1536    0.0195 C   0  0  0  0  0  0  0  0  0  0  0  0
    1.0333    2.3600   -1.1801 C   0  0  0  0  0  0  0  0  0  0  0  0
    0.9790    3.5123    1.0350 C   0  0  0  0  0  0  0  0  0  0  0  0
    1.0163   -1.0053    0.3878 C   0  0  0  0  0  0  0  0  0  0  0  0
   -1.5370   -0.8476    0.1752 C   0  0  0  0  0  0  0  0  0  0  0  0
    3.2654   -1.4342   -0.2150 C   0  0  0  0  0  0  0  0  0  0  0  0
   -3.8444   -0.6191   -0.3084 C   0  0  0  0  0  0  0  0  0  0  0  0
    4.3065   -0.9975   -1.2235 C   0  0  0  0  0  0  0  0  0  0  0  0
   -4.8154    0.3703   -0.9169 C   0  0  0  0  0  0  0  0  0  0  0  0
  1 10  1  0
  1 12  1  0
  2 11  1  0
  2 13  1  0
  3 10  2  0
  4 11  2  0
  5  6  1  0
  5  8  1  0
  5  9  1  0
  6  7  1  0
  7 10  1  0
  7 11  1  0
 12 14  1  0
 13 15  1  0
M  END
>  <PUBCHEM_COMPOUND_CID>  (1) 
25047

>  <PUBCHEM_CONFORMER_RMSD>  (1) 
0.8

>  <PUBCHEM_CONFORMER_DIVERSEORDER>  (1) 
1
15
41
44
32
40
46
43
24
8
57
26
51
34
50
6
56
55
14
30
42
37
48
10
53
4
38
29
7
54
58
25
19
39
45
9
12
16
52
49
28
59
31
47
5
20
2
13
21
18
27
23
36
17
11
33
35
3
22

>  <PUBCHEM_MMFF94_PARTIAL_CHARGES>  (1) 
9
1 -0.43
10 0.66
11 0.66
12 0.28
13 0.28
2 -0.43
3 -0.57
4 -0.57
7 0.12

>  <PUBCHEM_EFFECTIVE_ROTOR_COUNT>  (1) 
8

>  <PUBCHEM_PHARMACOPHORE_FEATURES>  (1) 
4
1 3 acceptor
1 4 acceptor
1 7 anion
3 5 8 9 hydrophobe

>  <PUBCHEM_HEAVY_ATOM_COUNT>  (1) 
15

>  <PUBCHEM_ATOM_DEF_STEREO_COUNT>  (1) 
0

>  <PUBCHEM_ATOM_UDEF_STEREO_COUNT>  (1) 
0

>  <PUBCHEM_BOND_DEF_STEREO_COUNT>  (1) 
0

>  <PUBCHEM_BOND_UDEF_STEREO_COUNT>  (1) 
0

>  <PUBCHEM_ISOTOPIC_ATOM_COUNT>  (1) 
0

>  <PUBCHEM_COMPONENT_COUNT>  (1) 
1

>  <PUBCHEM_CACTVS_TAUTO_COUNT>  (1) 
1

>  <PUBCHEM_CONFORMER_ID>  (1) 
000061D700000001

>  <PUBCHEM_MMFF94_ENERGY>  (1) 
16.7904

>  <PUBCHEM_FEATURE_SELFOVERLAP>  (1) 
20.3

>  <PUBCHEM_SHAPE_FINGERPRINT>  (1) 
1 1 17909269431337326740
10756046 5 18198054987983940735
13134695 92 18272645757642920757
13380535 21 18120100739014036307
14178000 29 17989486316191249855
14648413 74 18265611168384814291
14911166 2 18408604742984228711
14993402 34 18342738485937243751
15490181 7 17478614967369096100
16945 1 18041000617838041963
17041 50 18412819175443062663
18186145 218 18334562561034275399
18410436 195 18342454824795623592
187816 3 18261119534758266142
20233049 118 18260543377463567375
20671657 1 18341048639966112501
20671657 53 18272937102448806343
20711985 344 18053671265519909842
20871999 31 18338519612423586485
21029758 11 18413389813071575448
21041028 32 18197243440891264321
21524375 3 17617641594230952657
22112679 90 17843432650545548928
22620623 9 17485669069169965868
228727 97 18188782621822309506
23402539 116 18198061387363840318
23419403 2 17028015161079687928
23557571 272 18270396067465045690
23559900 14 18335145298102853118
2748010 2 18044657748405258147
3071541 12 18340768268416351313
3071541 158 18335142020061306140
3250762 1 17904209470157518802
465052 167 12823001058615126671
4663303 62 18198064887714395392
58734987 36 18413387635533621494
6049 1 18042696177028079123
68521 5 18268432330406432732
7364860 26 18270959175577986985
81228 2 18122920732798872954

>  <PUBCHEM_SHAPE_MULTIPOLES>  (1) 
285.22
6.66
3.1
1.13
4.8
3.28
0.08
-3.35
3.39
-2.13
-0.82
-0.36
0.18
0.54

>  <PUBCHEM_SHAPE_SELFOVERLAP>  (1) 
537.686

>  <PUBCHEM_SHAPE_VOLUME>  (1) 
177.5

>  <PUBCHEM_COORDINATE_TYPE>  (1) 
2
5
10

$$$$
