25046
     RDKit          3D

 13 12  0  0  1  0  0  0  0  0999 V2000
    1.8203    1.4429   -0.4448 O   0  0  0  0  0  0  0  0  0  0  0  0
    0.4412   -0.5067   -0.0490 C   0  0  0  0  0  0  0  0  0  0  0  0
    1.7674    0.2022    0.2632 C   0  0  0  0  0  0  0  0  0  0  0  0
   -0.8061    0.3327    0.2548 C   0  0  0  0  0  0  0  0  0  0  0  0
   -2.0844   -0.4373   -0.0898 C   0  0  0  0  0  0  0  0  0  0  0  0
    3.0338   -0.5846   -0.0955 C   0  0  0  0  0  0  0  0  0  0  0  0
   -3.3663    0.3429    0.2158 C   0  0  0  0  0  0  0  0  0  0  0  0
    4.3593    0.1398    0.1529 C   0  0  0  0  0  0  0  0  0  0  0  0
   -4.6431   -0.4163   -0.1519 C   0  0  0  0  0  0  0  0  0  0  0  0
    5.6210   -0.6767   -0.1361 C   0  0  0  0  0  0  0  0  0  0  0  0
   -5.8897    0.4122    0.1624 C   0  0  0  0  0  0  0  0  0  0  0  0
    6.9097    0.1004    0.0826 C   0  0  0  0  0  0  0  0  0  0  0  0
   -7.1630   -0.3516   -0.1647 C   0  0  0  0  0  0  0  0  0  0  0  0
  1  3  1  0
  2  3  1  0
  2  4  1  0
  3  6  1  0
  4  5  1  0
  5  7  1  0
  6  8  1  0
  7  9  1  0
  8 10  1  0
  9 11  1  0
 10 12  1  0
 11 13  1  0
M  END
>  <PUBCHEM_COMPOUND_CID>  (1) 
25046

>  <PUBCHEM_CONFORMER_RMSD>  (1) 
1

>  <PUBCHEM_CONFORMER_DIVERSEORDER>  (1) 
2
178
444
518
137
421
526
134
132
483
488
47
544
26
272
460
209
315
1
48
389
44
417
38
419
202
367
36
228
7
165
424
41
512
217
494
354
118
14
102
308
8
6
297
426
520
247
68
186
378
66
240
309
194
366
5
98
3
271
9
325
401
77
529
319
261
12
210
156
514
82
24
390
105
15
101
56
372
428
273
72
507
135
18
169
345
495
60
170
361
353
435
103
283
152
214
355
443
201
264

>  <PUBCHEM_MMFF94_PARTIAL_CHARGES>  (1) 
3
1 -0.68
3 0.28
33 0.4

>  <PUBCHEM_EFFECTIVE_ROTOR_COUNT>  (1) 
9

>  <PUBCHEM_PHARMACOPHORE_FEATURES>  (1) 
6
1 1 acceptor
1 1 donor
1 12 hydrophobe
1 13 hydrophobe
3 2 4 5 hydrophobe
3 7 9 11 hydrophobe

>  <PUBCHEM_HEAVY_ATOM_COUNT>  (1) 
13

>  <PUBCHEM_ATOM_DEF_STEREO_COUNT>  (1) 
0

>  <PUBCHEM_ATOM_UDEF_STEREO_COUNT>  (1) 
1

>  <PUBCHEM_BOND_DEF_STEREO_COUNT>  (1) 
0

>  <PUBCHEM_BOND_UDEF_STEREO_COUNT>  (1) 
0

>  <PUBCHEM_ISOTOPIC_ATOM_COUNT>  (1) 
0

>  <PUBCHEM_COMPONENT_COUNT>  (1) 
1

>  <PUBCHEM_CACTVS_TAUTO_COUNT>  (1) 
1

>  <PUBCHEM_CONFORMER_ID>  (1) 
000061D600000002

>  <PUBCHEM_MMFF94_ENERGY>  (1) 
1.5832

>  <PUBCHEM_FEATURE_SELFOVERLAP>  (1) 
30.461

>  <PUBCHEM_SHAPE_FINGERPRINT>  (1) 
12091667 2 18334295362660653779
12815109 37 18272370867088061634
13533116 47 17988641835917627242
14123238 8 18342739606743957002
1420 363 11743840278651585813
14251764 18 18410856555344835280
14251764 46 18410855460128187803
17834072 8 18334013899619454571
17834076 25 12823295697708803695
18006028 8 17847059982397322969
20645477 70 18340206263688421254
22224240 67 17704066305346733038
23402539 116 17489582368550079229
23521765 1 18341894090849966315
33684 2 18335137583486748275
3545911 37 18413670210190888331
42788 4 18343582941116321225
4463277 17 18407759231427279788
8209 1 18410855460138730798

>  <PUBCHEM_SHAPE_MULTIPOLES>  (1) 
261.66
19.26
0.88
0.65
4.94
0.1
0
-1.48
0.28
-0.21
0.06
0
0.02
-0.12

>  <PUBCHEM_SHAPE_SELFOVERLAP>  (1) 
464.636

>  <PUBCHEM_SHAPE_VOLUME>  (1) 
170.9

>  <PUBCHEM_COORDINATE_TYPE>  (1) 
2
5
10

$$$$
