25042
     RDKit          3D

  8  8  0  0  0  0  0  0  0  0999 V2000
    2.2330   -0.0669   -0.0321 O   0  0  0  0  0  0  0  0  0  0  0  0
    0.1076   -0.0327    0.0208 C   0  0  0  0  0  0  0  0  0  0  0  0
    1.2129    0.6281   -0.7849 C   0  0  0  0  0  0  0  0  0  0  0  0
    1.2326   -0.6456    0.8365 C   0  0  0  0  0  0  0  0  0  0  0  0
   -0.7137   -1.0451   -0.7657 C   0  0  0  0  0  0  0  0  0  0  0  0
   -0.7748    0.9200    0.7816 C   0  0  0  0  0  0  0  0  0  0  0  0
   -1.8063   -1.6346    0.1088 C   0  0  0  0  0  0  0  0  0  0  0  0
   -1.4913    1.8768   -0.1650 C   0  0  0  0  0  0  0  0  0  0  0  0
  1  3  1  0
  1  4  1  0
  2  3  1  0
  2  4  1  0
  2  5  1  0
  2  6  1  0
  5  7  1  0
  6  8  1  0
M  END
>  <PUBCHEM_COMPOUND_CID>  (1) 
25042

>  <PUBCHEM_CONFORMER_RMSD>  (1) 
0.6

>  <PUBCHEM_CONFORMER_DIVERSEORDER>  (1) 
1
4
2
3

>  <PUBCHEM_MMFF94_PARTIAL_CHARGES>  (1) 
3
1 -0.52
3 0.26
4 0.26

>  <PUBCHEM_EFFECTIVE_ROTOR_COUNT>  (1) 
2.8

>  <PUBCHEM_PHARMACOPHORE_FEATURES>  (1) 
4
1 1 acceptor
1 7 hydrophobe
1 8 hydrophobe
4 1 2 3 4 rings

>  <PUBCHEM_HEAVY_ATOM_COUNT>  (1) 
8

>  <PUBCHEM_ATOM_DEF_STEREO_COUNT>  (1) 
0

>  <PUBCHEM_ATOM_UDEF_STEREO_COUNT>  (1) 
0

>  <PUBCHEM_BOND_DEF_STEREO_COUNT>  (1) 
0

>  <PUBCHEM_BOND_UDEF_STEREO_COUNT>  (1) 
0

>  <PUBCHEM_ISOTOPIC_ATOM_COUNT>  (1) 
0

>  <PUBCHEM_COMPONENT_COUNT>  (1) 
1

>  <PUBCHEM_CACTVS_TAUTO_COUNT>  (1) 
1

>  <PUBCHEM_CONFORMER_ID>  (1) 
000061D200000001

>  <PUBCHEM_MMFF94_ENERGY>  (1) 
15.4455

>  <PUBCHEM_FEATURE_SELFOVERLAP>  (1) 
20.297

>  <PUBCHEM_SHAPE_FINGERPRINT>  (1) 
12423570 1 12926903159171880568
137420 1 12478766301740797061
18185500 45 18193276518664845111
20653091 64 17549266286283453763
21040471 1 18124876763547050696
23552333 60 17677033759056601947
29004967 10 18050003599392810738
5084963 1 17840862975917582737
5943 1 12698255150731120658

>  <PUBCHEM_SHAPE_MULTIPOLES>  (1) 
158.77
2.3
1.76
0.94
0.54
0.28
0.02
-0.22
0
-1.29
-0.05
0.09
-0.01
-0.21

>  <PUBCHEM_SHAPE_SELFOVERLAP>  (1) 
306.527

>  <PUBCHEM_SHAPE_VOLUME>  (1) 
99.7

>  <PUBCHEM_COORDINATE_TYPE>  (1) 
2
5
10

$$$$
