25045
     RDKit          3D

 13 12  0  0  1  0  0  0  0  0999 V2000
    5.3969   -1.3390    0.4518 O   0  0  0  0  0  0  0  0  0  0  0  0
    0.2138   -0.2533   -0.2322 C   0  0  0  0  0  0  0  0  0  0  0  0
   -1.0853    0.4731    0.1308 C   0  0  0  0  0  0  0  0  0  0  0  0
    1.4727    0.5364    0.1334 C   0  0  0  0  0  0  0  0  0  0  0  0
   -2.3419   -0.3482   -0.1679 C   0  0  0  0  0  0  0  0  0  0  0  0
    2.7403   -0.2429   -0.2280 C   0  0  0  0  0  0  0  0  0  0  0  0
   -3.6416    0.3839    0.1833 C   0  0  0  0  0  0  0  0  0  0  0  0
    3.9979    0.5620    0.1027 C   0  0  0  0  0  0  0  0  0  0  0  0
   -4.9365   -0.3786   -0.1136 C   0  0  0  0  0  0  0  0  0  0  0  0
    5.2976   -0.1353   -0.3098 C   0  0  0  0  0  0  0  0  0  0  0  0
   -6.2005    0.4208    0.2040 C   0  0  0  0  0  0  0  0  0  0  0  0
    6.5425    0.7041   -0.0544 C   0  0  0  0  0  0  0  0  0  0  0  0
   -7.4557   -0.3830   -0.1001 C   0  0  0  0  0  0  0  0  0  0  0  0
  1 10  1  0
  2  3  1  0
  2  4  1  0
  3  5  1  0
  4  6  1  0
  5  7  1  0
  6  8  1  0
  7  9  1  0
  8 10  1  0
  9 11  1  0
 10 12  1  0
 11 13  1  0
M  END
>  <PUBCHEM_COMPOUND_CID>  (1) 
25045

>  <PUBCHEM_CONFORMER_RMSD>  (1) 
1

>  <PUBCHEM_CONFORMER_DIVERSEORDER>  (1) 
1
171
75
546
581
113
499
357
281
246
32
326
503
631
41
612
455
5
374
103
70
196
214
117
34
44
273
100
296
11
623
245
224
329
379
545
108
62
57
497
601
124
37
473
232
141
201
287
36
552
30
4
515
8
507
297
306
180
459
54
29
207
17
178
370
205
39
331
61
407
569
3
595
92
304
580
252
112
16
276
15
509
114
120
212
478
241
24
598
415
485
93
575
432
327
457
382
163
266
291
191
156
195
161
402
565
446
254
620
175
397
46
289
236
487
486

>  <PUBCHEM_MMFF94_PARTIAL_CHARGES>  (1) 
3
1 -0.68
10 0.28
39 0.4

>  <PUBCHEM_EFFECTIVE_ROTOR_COUNT>  (1) 
9

>  <PUBCHEM_PHARMACOPHORE_FEATURES>  (1) 
3
1 1 acceptor
1 1 donor
1 13 hydrophobe

>  <PUBCHEM_HEAVY_ATOM_COUNT>  (1) 
13

>  <PUBCHEM_ATOM_DEF_STEREO_COUNT>  (1) 
0

>  <PUBCHEM_ATOM_UDEF_STEREO_COUNT>  (1) 
1

>  <PUBCHEM_BOND_DEF_STEREO_COUNT>  (1) 
0

>  <PUBCHEM_BOND_UDEF_STEREO_COUNT>  (1) 
0

>  <PUBCHEM_ISOTOPIC_ATOM_COUNT>  (1) 
0

>  <PUBCHEM_COMPONENT_COUNT>  (1) 
1

>  <PUBCHEM_CACTVS_TAUTO_COUNT>  (1) 
1

>  <PUBCHEM_CONFORMER_ID>  (1) 
000061D500000001

>  <PUBCHEM_MMFF94_ENERGY>  (1) 
0.8134

>  <PUBCHEM_FEATURE_SELFOVERLAP>  (1) 
15.223

>  <PUBCHEM_SHAPE_FINGERPRINT>  (1) 
12091667 2 18334576846343388969
13533116 47 18339640049707340442
14123238 8 17775568632758122596
1420 363 16805045111961710553
14251764 18 18272371975326806561
14251764 46 18409729568821816265
17834076 25 18409167714512329861
20281389 69 18413388730903672169
20621476 8 16877939400542512773
20645477 70 18261954038820417970
20767249 213 17489588973893243133
22224240 67 17023182759972151754
23035841 295 18333730221904854387
23402539 116 17847055593457496757
23521765 1 18341895198935626445
33684 2 18410855460128161797
42788 4 18342176670118607657
4463277 17 18412262839354557897
8209 1 18413671318033870996

>  <PUBCHEM_SHAPE_MULTIPOLES>  (1) 
261.66
20.71
0.88
0.65
9.1
0.08
0
0.76
0.19
-0.6
0.06
-0.07
0.02
-0.3

>  <PUBCHEM_SHAPE_SELFOVERLAP>  (1) 
464.723

>  <PUBCHEM_SHAPE_VOLUME>  (1) 
171

>  <PUBCHEM_COORDINATE_TYPE>  (1) 
2
5
10

$$$$
