25040
     RDKit          3D

 14 13  0  0  0  0  0  0  0  0999 V2000
   -6.9741    0.1643    0.0163 S   0  0  0  0  0  0  0  0  0  0  0  0
    6.9740   -0.1644    0.0234 S   0  0  0  0  0  0  0  0  0  0  0  0
   -3.0219    0.4514   -0.0082 O   0  0  0  0  0  0  0  0  0  0  0  0
    3.0218   -0.4513   -0.0140 O   0  0  0  0  0  0  0  0  0  0  0  0
   -4.4283   -1.3734    0.0247 O   0  0  0  0  0  0  0  0  0  0  0  0
    4.4283    1.3733    0.0235 O   0  0  0  0  0  0  0  0  0  0  0  0
   -0.6274    0.4330   -0.0247 C   0  0  0  0  0  0  0  0  0  0  0  0
    0.6275   -0.4328   -0.0384 C   0  0  0  0  0  0  0  0  0  0  0  0
   -1.8932   -0.4119   -0.0051 C   0  0  0  0  0  0  0  0  0  0  0  0
    1.8933    0.4119   -0.0147 C   0  0  0  0  0  0  0  0  0  0  0  0
   -4.2494   -0.1637    0.0083 C   0  0  0  0  0  0  0  0  0  0  0  0
    4.2494    0.1636    0.0064 C   0  0  0  0  0  0  0  0  0  0  0  0
   -5.3209    0.8974    0.0004 C   0  0  0  0  0  0  0  0  0  0  0  0
    5.3208   -0.8975    0.0020 C   0  0  0  0  0  0  0  0  0  0  0  0
  1 13  1  0
  2 14  1  0
  3  9  1  0
  3 11  1  0
  4 10  1  0
  4 12  1  0
  5 11  2  0
  6 12  2  0
  7  8  1  0
  7  9  1  0
  8 10  1  0
 11 13  1  0
 12 14  1  0
M  END
>  <PUBCHEM_COMPOUND_CID>  (1) 
25040

>  <PUBCHEM_CONFORMER_RMSD>  (1) 
0.8

>  <PUBCHEM_CONFORMER_DIVERSEORDER>  (1) 
1
74
126
15
117
83
24
161
67
62
2
157
46
112
96
99
66
72
88
13
61
29
125
19
81
7
6
50
163
92
85
42
123
131
56
10
118
64
101
155
138
12
130
68
5
144
129
52
33
114
93
21
86
105
43
89
37
115
160
35
59
14
44
23
40
103
156
113
41
124
120
80
27
122
132
34
90
143
73
39
60
38
102
11
25
91
16
142
146
30
106
108
49
147
94
71
31
150
137
54
119
162
47
97
133
53
151
8
17
111
75
28
158
152
36
109
20
22
149
77
139
57
148
127
32
145
78
26
76
65
55
87
110
69
4
84
141
82
51
98
140
134
3
159
100
107
95
164
9
70
128
104
48
153
135
63
154
79
18
116
45
121
58
136

>  <PUBCHEM_MMFF94_PARTIAL_CHARGES>  (1) 
14
1 -0.41
10 0.28
11 0.66
12 0.66
13 0.29
14 0.29
2 -0.41
27 0.18
28 0.18
3 -0.43
4 -0.43
5 -0.57
6 -0.57
9 0.28

>  <PUBCHEM_EFFECTIVE_ROTOR_COUNT>  (1) 
9

>  <PUBCHEM_PHARMACOPHORE_FEATURES>  (1) 
2
1 5 acceptor
1 6 acceptor

>  <PUBCHEM_HEAVY_ATOM_COUNT>  (1) 
14

>  <PUBCHEM_ATOM_DEF_STEREO_COUNT>  (1) 
0

>  <PUBCHEM_ATOM_UDEF_STEREO_COUNT>  (1) 
0

>  <PUBCHEM_BOND_DEF_STEREO_COUNT>  (1) 
0

>  <PUBCHEM_BOND_UDEF_STEREO_COUNT>  (1) 
0

>  <PUBCHEM_ISOTOPIC_ATOM_COUNT>  (1) 
0

>  <PUBCHEM_COMPONENT_COUNT>  (1) 
1

>  <PUBCHEM_CACTVS_TAUTO_COUNT>  (1) 
1

>  <PUBCHEM_CONFORMER_ID>  (1) 
000061D000000001

>  <PUBCHEM_MMFF94_ENERGY>  (1) 
13.0658

>  <PUBCHEM_FEATURE_SELFOVERLAP>  (1) 
10.149

>  <PUBCHEM_SHAPE_FINGERPRINT>  (1) 
11315181 36 17989208162015263761
12091667 2 16588024607010606869
13533116 47 17240754043941530754
1420 363 17530969076698077858
14251764 18 18410856555344822298
14251764 46 17167864158134742379
17834072 33 18342175600254902726
17834076 25 18410011030913618529
20281389 69 18407758127678953793
20621476 8 18338800018264605125
20645477 70 17987804003656579190
220451 1 16515400772288494794
23035841 295 18260266343657081555
23402539 116 18343015605990747959
23521765 1 18341894086539083783
23536379 177 18410573972266549481
33684 2 18408602547949679883
3545911 37 18408886222361063715
42788 4 18410855460471111621
57583515 80 17418094308776940339
8209 1 18410855455838469260

>  <PUBCHEM_SHAPE_MULTIPOLES>  (1) 
272.34
20.05
1.01
0.6
0
0
0
0
0.23
0
0
0
0
0.02

>  <PUBCHEM_SHAPE_SELFOVERLAP>  (1) 
492.588

>  <PUBCHEM_SHAPE_VOLUME>  (1) 
175.7

>  <PUBCHEM_COORDINATE_TYPE>  (1) 
2
5
10

$$$$
