25056
     RDKit          3D

 17 19  0  0  1  0  0  0  0  0999 V2000
    0.5237   -0.2060    0.9297 N   0  0  0  0  0  0  0  0  0  0  0  0
   -4.1037    1.1483   -0.7981 N   0  0  0  0  0  0  0  0  0  0  0  0
    0.5432    1.0429    1.6883 C   0  0  0  0  0  0  0  0  0  0  0  0
    1.5944    1.9504    1.0174 C   0  0  0  0  0  0  0  0  0  0  0  0
    1.7221   -0.2767    0.2337 C   0  0  0  0  0  0  0  0  0  0  0  0
    2.4018    0.9479    0.2576 C   0  0  0  0  0  0  0  0  0  0  0  0
   -0.2361   -1.3556    1.3505 C   0  0  0  0  0  0  0  0  0  0  0  0
   -1.1886   -1.8148    0.2475 C   0  0  0  0  0  0  0  0  0  0  0  0
    2.2699   -1.3541   -0.4454 C   0  0  0  0  0  0  0  0  0  0  0  0
    3.6148    1.1291   -0.3849 C   0  0  0  0  0  0  0  0  0  0  0  0
   -2.2152   -0.7715   -0.1208 C   0  0  0  0  0  0  0  0  0  0  0  0
    3.4993   -1.1905   -1.0921 C   0  0  0  0  0  0  0  0  0  0  0  0
    4.1669    0.0426   -1.0623 C   0  0  0  0  0  0  0  0  0  0  0  0
   -3.4256   -0.7446    0.5443 C   0  0  0  0  0  0  0  0  0  0  0  0
   -1.9290    0.1413   -1.1172 C   0  0  0  0  0  0  0  0  0  0  0  0
   -4.3337    0.2324    0.1694 C   0  0  0  0  0  0  0  0  0  0  0  0
   -2.9042    1.0788   -1.4177 C   0  0  0  0  0  0  0  0  0  0  0  0
  1  3  1  0
  1  5  1  0
  1  7  1  0
  2 16  2  0
  2 17  1  0
  3  4  1  0
  4  6  1  0
  5  6  2  0
  5  9  1  0
  6 10  1  0
  7  8  1  0
  8 11  1  0
  9 12  2  0
 10 13  2  0
 11 14  2  0
 11 15  1  0
 12 13  1  0
 14 16  1  0
 15 17  2  0
M  END
>  <PUBCHEM_COMPOUND_CID>  (1) 
25056

>  <PUBCHEM_CONFORMER_RMSD>  (1) 
0.6

>  <PUBCHEM_CONFORMER_DIVERSEORDER>  (1) 
1
3
6
10
5
15
13
16
7
14
8
4
9
2
12
11

>  <PUBCHEM_MMFF94_PARTIAL_CHARGES>  (1) 
25
1 -0.84
10 -0.15
11 -0.14
12 -0.15
13 -0.15
14 -0.15
15 -0.15
16 0.16
17 0.16
2 -0.62
26 0.15
27 0.15
28 0.15
29 0.15
3 0.37
30 0.15
31 0.15
32 0.15
33 0.15
4 0.14
5 0.1
6 -0.14
7 0.37
8 0.14
9 -0.15

>  <PUBCHEM_EFFECTIVE_ROTOR_COUNT>  (1) 
3.6

>  <PUBCHEM_PHARMACOPHORE_FEATURES>  (1) 
5
1 1 cation
1 2 acceptor
5 1 3 4 5 6 rings
6 2 11 14 15 16 17 rings
6 5 6 9 10 12 13 rings

>  <PUBCHEM_HEAVY_ATOM_COUNT>  (1) 
17

>  <PUBCHEM_ATOM_DEF_STEREO_COUNT>  (1) 
0

>  <PUBCHEM_ATOM_UDEF_STEREO_COUNT>  (1) 
0

>  <PUBCHEM_BOND_DEF_STEREO_COUNT>  (1) 
0

>  <PUBCHEM_BOND_UDEF_STEREO_COUNT>  (1) 
0

>  <PUBCHEM_ISOTOPIC_ATOM_COUNT>  (1) 
0

>  <PUBCHEM_COMPONENT_COUNT>  (1) 
1

>  <PUBCHEM_CACTVS_TAUTO_COUNT>  (1) 
1

>  <PUBCHEM_CONFORMER_ID>  (1) 
000061E000000001

>  <PUBCHEM_MMFF94_ENERGY>  (1) 
55.5201

>  <PUBCHEM_FEATURE_SELFOVERLAP>  (1) 
25.462

>  <PUBCHEM_SHAPE_FINGERPRINT>  (1) 
104564 63 17416697842530317233
10498660 4 17749378253079204901
12251169 10 8142080944844368200
12346177 29 12967133779074434715
12623949 98 17626133054140721367
12654215 9 18343301500715665784
13134695 92 17561080315454146912
13549 16 17846781780232839571
13693222 15 8070029969203415295
13764800 53 17095248033643655075
14289901 80 12757140295015831797
14341114 328 14779272990431108653
14386348 128 18187072936959505181
14787075 74 14347228782657445009
15309172 13 12179843926733742288
15775835 57 17530678801486384301
16752209 62 15338850707303841587
18186145 218 18411982459636420139
18981168 100 17097186408024132159
19862831 5 18273497857647546240
200 152 17417821617076921654
20361792 2 16487259880419411976
204376 136 12252198384663765974
20626108 58 15051431830699427389
20645477 70 17703801344329118246
21069387 34 15769771377238690287
21486144 27 18270673289838557945
21501925 9 10952044563462702243
221357 26 18272930501680593541
22646028 28 13973963220563555749
22802520 49 18340767138681521545
22854114 59 11674878909346906166
23114952 82 18265908028193186364
23402539 116 17968089850538415532
23402655 69 18272092694825248060
23557571 272 17679595698495739242
23559900 14 18342177778752907178
24859131 72 10735886040608738116
25 1 18411702066907299291
251288 83 9007052478681774740
2637199 183 18335703776377887417
3009799 131 18341334414711365502
3323516 105 18412266150816242363
3797600 57 14779562183231967301
474 4 15069765173754507094
5161694 15 18343303669093934166
5281201 14 18409455799116746260
6287921 2 17903924696593307349
6442390 28 17895202125190414315
7399639 24 17478325795869228114
74978 22 16773224214703920151
81228 2 17684364336592807787
9882013 296 11530486635629596789

>  <PUBCHEM_SHAPE_MULTIPOLES>  (1) 
339.89
7.96
1.75
1.41
2.25
0.04
-0.08
1
3.09
-0.49
-0.25
0.08
0.22
1.13

>  <PUBCHEM_SHAPE_SELFOVERLAP>  (1) 
737.248

>  <PUBCHEM_SHAPE_VOLUME>  (1) 
185.3

>  <PUBCHEM_COORDINATE_TYPE>  (1) 
2
5
10

$$$$
