25059
     RDKit          3D

  8  7  0  0  0  0  0  0  0  0999 V2000
   -0.0506    1.4951    1.6230 Br  0  0  0  0  0  0  0  0  0  0  0  0
   -0.0502    1.4928   -1.6246 Br  0  0  0  0  0  0  0  0  0  0  0  0
   -0.7807   -1.8164    0.0004 O   0  0  0  0  0  0  0  0  0  0  0  0
   -2.2580   -0.0743    0.0000 N   0  0  0  0  0  0  0  0  0  0  0  0
    2.5146   -0.7080    0.0003 N   0  0  0  0  0  0  0  0  0  0  0  0
    0.1418    0.4214    0.0000 C   0  0  0  0  0  0  0  0  0  0  0  0
   -0.9836   -0.6017    0.0004 C   0  0  0  0  0  0  0  0  0  0  0  0
    1.4667   -0.2089    0.0005 C   0  0  0  0  0  0  0  0  0  0  0  0
  1  6  1  0
  2  6  1  0
  3  7  2  0
  4  7  1  0
  5  8  3  0
  6  7  1  0
  6  8  1  0
M  END
>  <PUBCHEM_COMPOUND_CID>  (1) 
25059

>  <PUBCHEM_CONFORMER_RMSD>  (1) 
0.4

>  <PUBCHEM_CONFORMER_DIVERSEORDER>  (1) 
1
4
2
5
3

>  <PUBCHEM_MMFF94_PARTIAL_CHARGES>  (1) 
10
1 -0.23
10 0.37
2 -0.23
3 -0.57
4 -0.8
5 -0.56
6 0.72
7 0.57
8 0.36
9 0.37

>  <PUBCHEM_EFFECTIVE_ROTOR_COUNT>  (1) 
1

>  <PUBCHEM_PHARMACOPHORE_FEATURES>  (1) 
6
1 1 hydrophobe
1 2 hydrophobe
1 3 acceptor
1 4 donor
1 5 acceptor
3 1 2 6 hydrophobe

>  <PUBCHEM_HEAVY_ATOM_COUNT>  (1) 
8

>  <PUBCHEM_ATOM_DEF_STEREO_COUNT>  (1) 
0

>  <PUBCHEM_ATOM_UDEF_STEREO_COUNT>  (1) 
0

>  <PUBCHEM_BOND_DEF_STEREO_COUNT>  (1) 
0

>  <PUBCHEM_BOND_UDEF_STEREO_COUNT>  (1) 
0

>  <PUBCHEM_ISOTOPIC_ATOM_COUNT>  (1) 
0

>  <PUBCHEM_COMPONENT_COUNT>  (1) 
1

>  <PUBCHEM_CACTVS_TAUTO_COUNT>  (1) 
2

>  <PUBCHEM_CONFORMER_ID>  (1) 
000061E300000001

>  <PUBCHEM_MMFF94_ENERGY>  (1) 
11.8509

>  <PUBCHEM_FEATURE_SELFOVERLAP>  (1) 
31.72

>  <PUBCHEM_SHAPE_FINGERPRINT>  (1) 
137420 1 9653929219871742057
14128692 85 18120670281404647014
16714656 1 18114177493195907542
18185500 45 18188781668059858598
24536 1 17537705982263294375
29004967 10 17531536463495140712
5943 1 15176672428389496964

>  <PUBCHEM_SHAPE_MULTIPOLES>  (1) 
160.69
2.19
1.74
1.49
0.67
0.05
0
-0.91
0
-0.24
0
-0.08
1.21
0

>  <PUBCHEM_SHAPE_SELFOVERLAP>  (1) 
282.427

>  <PUBCHEM_SHAPE_VOLUME>  (1) 
107.7

>  <PUBCHEM_COORDINATE_TYPE>  (1) 
2
5
10

$$$$
