25051
     RDKit          3D

 16 18  0  0  1  0  0  0  0  0999 V2000
   -1.5174   -0.6417    1.1225 O   0  0  0  0  0  0  0  0  0  0  0  0
   -0.1148    1.2542   -1.0545 O   0  0  0  0  0  0  0  0  0  0  0  0
   -3.5249    1.4756    0.1487 O   0  0  0  0  0  0  0  0  0  0  0  0
   -1.8244   -2.9110   -0.4936 O   0  0  0  0  0  0  0  0  0  0  0  0
    0.6510    0.2945    0.8231 N   0  0  0  0  0  0  0  0  0  0  0  0
    2.1030    0.5225   -1.0507 N   0  0  0  0  0  0  0  0  0  0  0  0
    4.2676   -0.2451   -0.8851 N   0  0  0  0  0  0  0  0  0  0  0  0
   -1.1453    1.4127   -0.0537 C   0  0  0  0  0  0  0  0  0  0  0  0
   -0.7255    0.5535    1.1376 C   0  0  0  0  0  0  0  0  0  0  0  0
   -2.4508    0.8061   -0.5108 C   0  0  0  0  0  0  0  0  0  0  0  0
   -2.3913   -0.6348   -0.0193 C   0  0  0  0  0  0  0  0  0  0  0  0
    0.9655    0.6770   -0.4506 C   0  0  0  0  0  0  0  0  0  0  0  0
   -1.8466   -1.6089   -1.0556 C   0  0  0  0  0  0  0  0  0  0  0  0
    1.6061   -0.3242    1.5774 C   0  0  0  0  0  0  0  0  0  0  0  0
    2.8325   -0.5421    1.0852 C   0  0  0  0  0  0  0  0  0  0  0  0
    3.1153   -0.0883   -0.3207 C   0  0  0  0  0  0  0  0  0  0  0  0
  1  9  1  0
  1 11  1  0
  2  8  1  0
  2 12  1  0
  3 10  1  0
  4 13  1  0
  5  9  1  0
  5 12  1  0
  5 14  1  0
  6 12  2  0
  6 16  1  0
  7 16  2  0
  8  9  1  0
  8 10  1  0
 10 11  1  0
 11 13  1  0
 14 15  2  0
 15 16  1  0
M  END
>  <PUBCHEM_COMPOUND_CID>  (1) 
25051

>  <PUBCHEM_CONFORMER_RMSD>  (1) 
0.6

>  <PUBCHEM_CONFORMER_DIVERSEORDER>  (1) 
2
1

>  <PUBCHEM_MMFF94_PARTIAL_CHARGES>  (1) 
21
1 -0.56
10 0.28
11 0.28
12 0.65
13 0.28
14 -0.05
15 -0.14
16 0.65
2 -0.43
23 0.15
24 0.4
25 0.15
26 0.4
27 0.4
3 -0.68
4 -0.68
5 -0.52
6 -0.66
7 -0.85
8 0.28
9 0.65

>  <PUBCHEM_EFFECTIVE_ROTOR_COUNT>  (1) 
1.8

>  <PUBCHEM_PHARMACOPHORE_FEATURES>  (1) 
11
1 1 acceptor
1 3 acceptor
1 3 donor
1 4 acceptor
1 4 donor
1 7 donor
3 5 6 12 cation
3 6 7 16 cation
5 1 8 9 10 11 rings
5 2 5 8 9 12 rings
6 5 6 12 14 15 16 rings

>  <PUBCHEM_HEAVY_ATOM_COUNT>  (1) 
16

>  <PUBCHEM_ATOM_DEF_STEREO_COUNT>  (1) 
4

>  <PUBCHEM_ATOM_UDEF_STEREO_COUNT>  (1) 
0

>  <PUBCHEM_BOND_DEF_STEREO_COUNT>  (1) 
0

>  <PUBCHEM_BOND_UDEF_STEREO_COUNT>  (1) 
0

>  <PUBCHEM_ISOTOPIC_ATOM_COUNT>  (1) 
0

>  <PUBCHEM_COMPONENT_COUNT>  (1) 
1

>  <PUBCHEM_CACTVS_TAUTO_COUNT>  (1) 
1

>  <PUBCHEM_CONFORMER_ID>  (1) 
000061DB00000002

>  <PUBCHEM_MMFF94_ENERGY>  (1) 
46.3379

>  <PUBCHEM_FEATURE_SELFOVERLAP>  (1) 
56.705

>  <PUBCHEM_SHAPE_FINGERPRINT>  (1) 
11471102 22 15267068064171327742
12202030 40 17489304247621209606
12423570 1 11487447855183625473
12500047 106 18201433640896648372
12932764 1 18187638098668291512
13024252 1 16081096973884048313
14115302 16 18272937115355034580
14993402 34 18334851693568643565
15207287 21 17203042985099022765
15669948 3 18334852809895890042
15775835 57 17749114357097590188
15852999 172 17988644038992523335
15906896 17 18260834795769635779
16752209 62 18339062870595696079
16945 1 18339909438213244817
18186145 218 16153431653763688382
20279233 1 17560792221869172098
20645476 183 18333452019392692215
20871999 31 18341331179604037431
21452121 199 17620454145027654967
22112679 90 17968918856071880680
23419403 2 16897297590659832353
23557571 272 18200582722171442952
23559900 14 18131348588753433554
25 1 16153707600690325216
369184 2 14045733824908006737
465052 167 18118142470498947843
5084963 1 12247676054425619728
528886 8 17240485801421779616
53748568 43 18040996241298093770
568465 68 16343431699470603502
74978 22 18342172288787937105
77492 1 17968088698980855864
90525 40 18334297552366357719

>  <PUBCHEM_SHAPE_MULTIPOLES>  (1) 
290.85
5.43
1.72
1.31
3.14
1.13
-0.24
0.32
0.91
-1.81
0.4
0.56
0.07
-0.42

>  <PUBCHEM_SHAPE_SELFOVERLAP>  (1) 
633.867

>  <PUBCHEM_SHAPE_VOLUME>  (1) 
159

>  <PUBCHEM_COORDINATE_TYPE>  (1) 
2
5
10

$$$$
