25061
     RDKit          3D

  8  7  0  0  0  0  0  0  0  0999 V2000
   -4.4567    0.3482   -0.0243 Br  0  0  0  0  0  0  0  0  0  0  0  0
    2.4098   -1.2677   -0.0213 O   0  0  0  0  0  0  0  0  0  0  0  0
   -0.2602   -0.3301    0.0004 C   0  0  0  0  0  0  0  0  0  0  0  0
   -1.6106    0.3926   -0.0030 C   0  0  0  0  0  0  0  0  0  0  0  0
    0.9206    0.6395   -0.0051 C   0  0  0  0  0  0  0  0  0  0  0  0
   -2.7588   -0.6019    0.0380 C   0  0  0  0  0  0  0  0  0  0  0  0
    2.2773   -0.0450    0.0048 C   0  0  0  0  0  0  0  0  0  0  0  0
    3.4785    0.8643    0.0106 C   0  0  0  0  0  0  0  0  0  0  0  0
  1  6  1  0
  2  7  2  0
  3  4  1  0
  3  5  1  0
  4  6  1  0
  5  7  1  0
  7  8  1  0
M  END
>  <PUBCHEM_COMPOUND_CID>  (1) 
25061

>  <PUBCHEM_CONFORMER_RMSD>  (1) 
0.6

>  <PUBCHEM_CONFORMER_DIVERSEORDER>  (1) 
1
17
7
21
40
4
36
28
41
5
33
31
35
27
25
6
14
23
3
29
10
8
15
11
32
38
9
18
2
39
37
16
26
30
19
22
20
13
12
24
34

>  <PUBCHEM_MMFF94_PARTIAL_CHARGES>  (1) 
6
1 -0.23
2 -0.57
5 0.06
6 0.23
7 0.45
8 0.06

>  <PUBCHEM_EFFECTIVE_ROTOR_COUNT>  (1) 
4

>  <PUBCHEM_PHARMACOPHORE_FEATURES>  (1) 
2
1 1 hydrophobe
1 2 acceptor

>  <PUBCHEM_HEAVY_ATOM_COUNT>  (1) 
8

>  <PUBCHEM_ATOM_DEF_STEREO_COUNT>  (1) 
0

>  <PUBCHEM_ATOM_UDEF_STEREO_COUNT>  (1) 
0

>  <PUBCHEM_BOND_DEF_STEREO_COUNT>  (1) 
0

>  <PUBCHEM_BOND_UDEF_STEREO_COUNT>  (1) 
0

>  <PUBCHEM_ISOTOPIC_ATOM_COUNT>  (1) 
0

>  <PUBCHEM_COMPONENT_COUNT>  (1) 
1

>  <PUBCHEM_CACTVS_TAUTO_COUNT>  (1) 
3

>  <PUBCHEM_CONFORMER_ID>  (1) 
000061E500000001

>  <PUBCHEM_MMFF94_ENERGY>  (1) 
2.822

>  <PUBCHEM_FEATURE_SELFOVERLAP>  (1) 
10.148

>  <PUBCHEM_SHAPE_FINGERPRINT>  (1) 
11062470 55 18413671322624211333
12932764 1 17274811459081639897
14325111 11 18410856564240763947
190213 19 17531249452727585029
20645477 70 18340485569368888039
20719005 15 18410293623162081355
22485316 2 18411133649924532343
3248919 1 17240492411165165457
5460574 1 9223235143515157192

>  <PUBCHEM_SHAPE_MULTIPOLES>  (1) 
164.71
7.83
1.01
0.62
4.26
0.11
0
-1.04
-0.02
-0.43
0
0.11
-0.02
0.02

>  <PUBCHEM_SHAPE_SELFOVERLAP>  (1) 
281.264

>  <PUBCHEM_SHAPE_VOLUME>  (1) 
112.1

>  <PUBCHEM_COORDINATE_TYPE>  (1) 
2
5
10

$$$$
