25062
     RDKit          3D

 18 19  0  0  0  0  0  0  0  0999 V2000
    1.9381    0.3835    0.0005 O   0  0  0  0  0  0  0  0  0  0  0  0
   -4.5035    0.1668    0.0000 O   0  0  0  0  0  0  0  0  0  0  0  0
    5.4131    0.7533   -0.0005 O   0  0  0  0  0  0  0  0  0  0  0  0
    3.7836    2.2305   -0.0005 O   0  0  0  0  0  0  0  0  0  0  0  0
   -2.2692   -0.1504   -0.0001 N   0  0  0  0  0  0  0  0  0  0  0  0
   -1.0079    0.3409    0.0008 N   0  0  0  0  0  0  0  0  0  0  0  0
   -0.9866   -1.9435    0.0006 N   0  0  0  0  0  0  0  0  0  0  0  0
   -3.0351    2.0049   -0.0002 N   0  0  0  0  0  0  0  0  0  0  0  0
   -3.3644   -2.2601   -0.0012 N   0  0  0  0  0  0  0  0  0  0  0  0
    4.1775    1.0276   -0.0001 N   0  0  0  0  0  0  0  0  0  0  0  0
   -0.2826   -0.7780    0.0007 C   0  0  0  0  0  0  0  0  0  0  0  0
    1.1912   -0.7523    0.0004 C   0  0  0  0  0  0  0  0  0  0  0  0
   -2.2296   -1.5231   -0.0002 C   0  0  0  0  0  0  0  0  0  0  0  0
    2.0027   -1.8632    0.0001 C   0  0  0  0  0  0  0  0  0  0  0  0
    3.2397   -0.0068    0.0000 C   0  0  0  0  0  0  0  0  0  0  0  0
    3.3326   -1.3791   -0.0003 C   0  0  0  0  0  0  0  0  0  0  0  0
   -3.3930    0.6748   -0.0003 C   0  0  0  0  0  0  0  0  0  0  0  0
   -4.0064    3.0743    0.0001 C   0  0  0  0  0  0  0  0  0  0  0  0
  1 12  1  0
  1 15  1  0
  2 17  2  0
  3 10  1  0
  4 10  2  0
  5  6  1  0
  5 13  1  0
  5 17  1  0
  6 11  2  0
  7 11  1  0
  7 13  2  0
  8 17  1  0
  8 18  1  0
  9 13  1  0
 10 15  1  0
 11 12  1  0
 12 14  2  0
 14 16  1  0
 15 16  2  0
M  CHG  2   3  -1  10   1
M  END
>  <PUBCHEM_COMPOUND_CID>  (1) 
25062

>  <PUBCHEM_CONFORMER_RMSD>  (1) 
0.6

>  <PUBCHEM_CONFORMER_DIVERSEORDER>  (1) 
1
7
13
2
8
9
10
3
6
14
4
5
11
12

>  <PUBCHEM_MMFF94_PARTIAL_CHARGES>  (1) 
23
1 -0.28
10 0.96
11 0.52
12 0.14
13 0.27
14 -0.15
15 0.22
16 -0.15
17 0.64
18 0.3
19 0.15
2 -0.57
20 0.15
21 0.37
22 0.4
23 0.4
3 -0.52
4 -0.52
5 0.56
6 -0.71
7 -0.57
8 -0.73
9 -0.88

>  <PUBCHEM_EFFECTIVE_ROTOR_COUNT>  (1) 
4

>  <PUBCHEM_PHARMACOPHORE_FEATURES>  (1) 
10
1 1 acceptor
1 2 acceptor
1 3 acceptor
1 3 anion
1 4 acceptor
1 8 donor
1 9 donor
3 6 7 11 cation
5 1 12 14 15 16 rings
5 5 6 7 11 13 rings

>  <PUBCHEM_HEAVY_ATOM_COUNT>  (1) 
18

>  <PUBCHEM_ATOM_DEF_STEREO_COUNT>  (1) 
0

>  <PUBCHEM_ATOM_UDEF_STEREO_COUNT>  (1) 
0

>  <PUBCHEM_BOND_DEF_STEREO_COUNT>  (1) 
0

>  <PUBCHEM_BOND_UDEF_STEREO_COUNT>  (1) 
0

>  <PUBCHEM_ISOTOPIC_ATOM_COUNT>  (1) 
0

>  <PUBCHEM_COMPONENT_COUNT>  (1) 
1

>  <PUBCHEM_CACTVS_TAUTO_COUNT>  (1) 
6

>  <PUBCHEM_CONFORMER_ID>  (1) 
000061E600000001

>  <PUBCHEM_MMFF94_ENERGY>  (1) 
22.3945

>  <PUBCHEM_FEATURE_SELFOVERLAP>  (1) 
50.837

>  <PUBCHEM_SHAPE_FINGERPRINT>  (1) 
10014705 185 18260261950010915943
10608611 8 18411699880874213186
11405975 8 18335419024293969282
12107183 9 17903066738315814290
12173636 292 18410572881719682247
122479 349 18337111172525228611
12390115 104 18127990632707934905
14123255 52 18409729525872136835
14252887 29 13190330254688996176
14415576 193 18412266125415775318
15196674 1 18338797810350864385
15442244 35 18265612078949750258
17834072 32 18267305327036152617
18186145 218 18129952152275987283
20510252 161 18341336660399285483
20645477 56 18409171000083183509
20645477 70 17059785416488861238
21065198 57 18410012100550892514
21618674 54 18411417310786765870
21652331 79 18409450288916499609
23227448 37 18411980265193170029
23402539 116 18337383958625181878
23402655 69 18272366425902038644
23557571 272 18271253810392391622
23559900 14 18128533765634870362
245318 6 16738064169658961900
27216 239 18333738996570558513
2916195 48 17986945448885228680
335352 9 18194401091880545790
3545911 37 18411421717401631846
4214541 1 18410575058930204900
474 4 17749114430338816172
5104073 3 18334576798017464450
633830 44 18126562319631460367
77779 3 18410857659415518742
9709674 26 18341616979645067791

>  <PUBCHEM_SHAPE_MULTIPOLES>  (1) 
317.07
9.81
2.72
0.56
3.19
1.04
0
5.63
0
-1.91
0
-0.01
-0.02
0

>  <PUBCHEM_SHAPE_SELFOVERLAP>  (1) 
683.024

>  <PUBCHEM_SHAPE_VOLUME>  (1) 
174.5

>  <PUBCHEM_COORDINATE_TYPE>  (1) 
2
5
10

$$$$
