25080
     RDKit          3D

 24 24  0  0  0  0  0  0  0  0999 V2000
    2.5878    1.3206    0.9579 O   0  0  0  0  0  0  0  0  0  0  0  0
   -2.5800    1.3100   -0.9590 O   0  0  0  0  0  0  0  0  0  0  0  0
    8.1280   -1.1201   -0.2109 N   0  0  0  0  0  0  0  0  0  0  0  0
   -8.1323   -1.1156    0.2109 N   0  0  0  0  0  0  0  0  0  0  0  0
    7.2492    0.0206    0.1433 C   0  0  0  0  0  0  0  0  0  0  0  0
   -7.2499    0.0208   -0.1478 C   0  0  0  0  0  0  0  0  0  0  0  0
    5.8012   -0.4466    0.1411 C   0  0  0  0  0  0  0  0  0  0  0  0
   -5.8031   -0.4496   -0.1388 C   0  0  0  0  0  0  0  0  0  0  0  0
    9.5995   -0.6835   -0.2521 C   0  0  0  0  0  0  0  0  0  0  0  0
    7.9958   -2.2520    0.8180 C   0  0  0  0  0  0  0  0  0  0  0  0
    7.7603   -1.6854   -1.5902 C   0  0  0  0  0  0  0  0  0  0  0  0
   -7.9999   -2.2540   -0.8109 C   0  0  0  0  0  0  0  0  0  0  0  0
   -7.7694   -1.6733    1.5945 C   0  0  0  0  0  0  0  0  0  0  0  0
   -9.6030   -0.6760    0.2455 C   0  0  0  0  0  0  0  0  0  0  0  0
    4.8595    0.6850    0.5462 C   0  0  0  0  0  0  0  0  0  0  0  0
   -4.8577    0.6774   -0.5481 C   0  0  0  0  0  0  0  0  0  0  0  0
    3.4104    0.2218    0.5906 C   0  0  0  0  0  0  0  0  0  0  0  0
   -3.4094    0.2107   -0.5858 C   0  0  0  0  0  0  0  0  0  0  0  0
    1.3025    1.3176    0.4815 C   0  0  0  0  0  0  0  0  0  0  0  0
   -1.3041    1.3121   -0.4853 C   0  0  0  0  0  0  0  0  0  0  0  0
    0.6584    0.1083    0.2470 C   0  0  0  0  0  0  0  0  0  0  0  0
   -0.6494    0.1055   -0.2382 C   0  0  0  0  0  0  0  0  0  0  0  0
    0.6568    2.5242    0.2378 C   0  0  0  0  0  0  0  0  0  0  0  0
   -0.6511    2.5215   -0.2471 C   0  0  0  0  0  0  0  0  0  0  0  0
  1 17  1  0
  1 19  1  0
  2 18  1  0
  2 20  1  0
  3  5  1  0
  3  9  1  0
  3 10  1  0
  3 11  1  0
  4  6  1  0
  4 12  1  0
  4 13  1  0
  4 14  1  0
  5  7  1  0
  6  8  1  0
  7 15  1  0
  8 16  1  0
 15 17  1  0
 16 18  1  0
 19 21  2  0
 19 23  1  0
 20 22  2  0
 20 24  1  0
 21 22  1  0
 23 24  2  0
M  CHG  2   3   1   4   1
M  END
>  <PUBCHEM_COMPOUND_CID>  (1) 
25080

>  <PUBCHEM_CONFORMER_RMSD>  (1) 
1.2

>  <PUBCHEM_CONFORMER_DIVERSEORDER>  (1) 
1
13
32
4
21
16
10
26
2
28
14
19
9
23
30
31
27
11
34
24
37
18
22
12
5
6
17
20
35
25
33
8
36
29
7
15
3

>  <PUBCHEM_MMFF94_PARTIAL_CHARGES>  (1) 
24
1 -0.36
10 0.5
11 0.5
12 0.5
13 0.5
14 0.5
17 0.28
18 0.28
19 0.08
2 -0.36
20 0.08
21 -0.15
22 -0.15
23 -0.15
24 -0.15
3 -1.01
4 -1.01
5 0.5
59 0.15
6 0.5
60 0.15
61 0.15
62 0.15
9 0.5

>  <PUBCHEM_EFFECTIVE_ROTOR_COUNT>  (1) 
12

>  <PUBCHEM_PHARMACOPHORE_FEATURES>  (1) 
5
1 1 acceptor
1 2 acceptor
1 3 cation
1 4 cation
6 19 20 21 22 23 24 rings

>  <PUBCHEM_HEAVY_ATOM_COUNT>  (1) 
24

>  <PUBCHEM_ATOM_DEF_STEREO_COUNT>  (1) 
0

>  <PUBCHEM_ATOM_UDEF_STEREO_COUNT>  (1) 
0

>  <PUBCHEM_BOND_DEF_STEREO_COUNT>  (1) 
0

>  <PUBCHEM_BOND_UDEF_STEREO_COUNT>  (1) 
0

>  <PUBCHEM_ISOTOPIC_ATOM_COUNT>  (1) 
0

>  <PUBCHEM_COMPONENT_COUNT>  (1) 
1

>  <PUBCHEM_CACTVS_TAUTO_COUNT>  (1) 
1

>  <PUBCHEM_CONFORMER_ID>  (1) 
000061F800000001

>  <PUBCHEM_MMFF94_ENERGY>  (1) 
87.4255

>  <PUBCHEM_FEATURE_SELFOVERLAP>  (1) 
25.371

>  <PUBCHEM_SHAPE_FINGERPRINT>  (1) 
10076449 9 18334297565071781776
10429389 143 8286196150131917358
125118 31 10303806610357374002
12539745 222 17917996040769387841
13530399 1 12175322748697644330
13673619 4 18410852165888999296
14216079 64 18343302557298920926
14251920 17 9655580704824909683
14344974 52 13984673580599300580
14429380 56 14273462487847984526
14729087 3 10592046864827949081
15419008 145 16271935896208729307
155225 1 9367351436178641735
16067689 302 18271527490494889270
1754911 235 14273455877001908430
1818759 1 18410576188470018279
18335252 114 13695872515701728126
18335252 98 18411699868764810430
18643901 69 18186518809042827591
195137 95 11240003338656883587
20554085 129 8862943840595044172
20771845 65 18343864446153743448
21095086 128 18407758135909815507
21150785 3 15719391728562825100
21267235 1 18410572889935284356
21403212 168 10375870775642413252
21585481 151 18342175596677853907
21591340 7 10879985857371317881
21781051 124 18336836359322706782
232437 2 18410855464423427911
246663 6 18410575084663085412
249057 3 15719398355744842094
33532 11 18411978061600633746
54039377 194 18408323289265817085
5470011 282 17531248370485737982
5719381 82 18335415751945627626
5937810 71 12540960873616507839
636775 72 10015592714248793643
636775 8 18335143081282257654
9995097 26 18187366545266182820

>  <PUBCHEM_SHAPE_MULTIPOLES>  (1) 
472.21
35.06
2.29
1.04
0.17
0.27
0
-30.18
0
-0.02
0
0
-0.37
1.25

>  <PUBCHEM_SHAPE_SELFOVERLAP>  (1) 
918.199

>  <PUBCHEM_SHAPE_VOLUME>  (1) 
290

>  <PUBCHEM_COORDINATE_TYPE>  (1) 
2
5
10

$$$$
