25091
     RDKit          3D

 25 28  0  0  1  0  0  0  0  0999 V2000
   -4.6808    1.4908   -0.2946 F   0  0  0  0  0  0  0  0  0  0  0  0
   -3.0741    2.7612    0.4190 F   0  0  0  0  0  0  0  0  0  0  0  0
   -3.1416    2.1696   -1.6725 F   0  0  0  0  0  0  0  0  0  0  0  0
    1.7876   -4.1601    0.2003 O   0  0  0  0  0  0  0  0  0  0  0  0
    1.8848   -1.1253   -0.9295 N   0  0  0  0  0  0  0  0  0  0  0  0
   -0.1969   -2.9946    0.5937 N   0  0  0  0  0  0  0  0  0  0  0  0
    1.2034   -0.4563    0.2030 C   0  0  0  0  0  0  0  0  0  0  0  0
    1.9841   -0.2390   -2.0968 C   0  0  0  0  0  0  0  0  0  0  0  0
    1.7601    0.9370    0.4918 C   0  0  0  0  0  0  0  0  0  0  0  0
   -0.3265   -0.5542    0.1315 C   0  0  0  0  0  0  0  0  0  0  0  0
    2.8697    0.9651   -1.7784 C   0  0  0  0  0  0  0  0  0  0  0  0
    2.5190    1.6231   -0.4720 C   0  0  0  0  0  0  0  0  0  0  0  0
    1.2677   -2.3956   -1.3162 C   0  0  0  0  0  0  0  0  0  0  0  0
   -0.9632   -1.7916    0.4103 C   0  0  0  0  0  0  0  0  0  0  0  0
    1.0031   -3.2542   -0.0911 C   0  0  0  0  0  0  0  0  0  0  0  0
    1.5123    1.5502    1.7322 C   0  0  0  0  0  0  0  0  0  0  0  0
   -1.1225    0.5680   -0.1629 C   0  0  0  0  0  0  0  0  0  0  0  0
    3.0141    2.9028   -0.1846 C   0  0  0  0  0  0  0  0  0  0  0  0
   -2.3652   -1.8327    0.5042 C   0  0  0  0  0  0  0  0  0  0  0  0
   -2.5134    0.4957   -0.1050 C   0  0  0  0  0  0  0  0  0  0  0  0
    2.0016    2.8273    2.0041 C   0  0  0  0  0  0  0  0  0  0  0  0
    2.7505    3.5038    1.0454 C   0  0  0  0  0  0  0  0  0  0  0  0
   -3.1327   -0.6972    0.2460 C   0  0  0  0  0  0  0  0  0  0  0  0
   -0.7051   -3.9973    1.5265 C   0  0  0  0  0  0  0  0  0  0  0  0
   -3.3360    1.7034   -0.4045 C   0  0  0  0  0  0  0  0  0  0  0  0
  1 25  1  0
  2 25  1  0
  3 25  1  0
  4 15  2  0
  5  7  1  0
  5  8  1  0
  5 13  1  0
  6 14  1  0
  6 15  1  0
  6 24  1  0
  7  9  1  0
  7 10  1  0
  8 11  1  0
  9 12  2  0
  9 16  1  0
 10 14  2  0
 10 17  1  0
 11 12  1  0
 12 18  1  0
 13 15  1  0
 14 19  1  0
 16 21  2  0
 17 20  2  0
 18 22  2  0
 19 23  2  0
 20 23  1  0
 20 25  1  0
 21 22  1  0
M  END
>  <PUBCHEM_COMPOUND_CID>  (1) 
25091

>  <PUBCHEM_CONFORMER_RMSD>  (1) 
0.6

>  <PUBCHEM_CONFORMER_DIVERSEORDER>  (1) 
1
2
3
4

>  <PUBCHEM_MMFF94_PARTIAL_CHARGES>  (1) 
32
1 -0.34
10 -0.14
11 0.14
12 -0.14
13 0.33
14 0.12
15 0.57
16 -0.15
17 -0.15
18 -0.15
19 -0.15
2 -0.34
20 -0.14
21 -0.15
22 -0.15
23 -0.15
24 0.3
25 1.16
3 -0.34
33 0.15
34 0.15
35 0.15
36 0.15
37 0.15
38 0.15
39 0.15
4 -0.57
5 -0.81
6 -0.48
7 0.56
8 0.27
9 -0.14

>  <PUBCHEM_EFFECTIVE_ROTOR_COUNT>  (1) 
1.8

>  <PUBCHEM_PHARMACOPHORE_FEATURES>  (1) 
6
1 4 acceptor
1 5 cation
6 10 14 17 19 20 23 rings
6 5 7 8 9 11 12 rings
6 9 12 16 18 21 22 rings
7 5 6 7 10 13 14 15 rings

>  <PUBCHEM_HEAVY_ATOM_COUNT>  (1) 
25

>  <PUBCHEM_ATOM_DEF_STEREO_COUNT>  (1) 
0

>  <PUBCHEM_ATOM_UDEF_STEREO_COUNT>  (1) 
1

>  <PUBCHEM_BOND_DEF_STEREO_COUNT>  (1) 
0

>  <PUBCHEM_BOND_UDEF_STEREO_COUNT>  (1) 
0

>  <PUBCHEM_ISOTOPIC_ATOM_COUNT>  (1) 
0

>  <PUBCHEM_COMPONENT_COUNT>  (1) 
1

>  <PUBCHEM_CACTVS_TAUTO_COUNT>  (1) 
1

>  <PUBCHEM_CONFORMER_ID>  (1) 
0000620300000001

>  <PUBCHEM_MMFF94_ENERGY>  (1) 
83.7971

>  <PUBCHEM_FEATURE_SELFOVERLAP>  (1) 
30.49

>  <PUBCHEM_SHAPE_FINGERPRINT>  (1) 
10165383 225 18048071620213823757
10369192 42 14176650845004544800
11582403 64 16985427785759176768
11640471 11 16951961967208072164
12035759 4 16968888575334883350
12156800 1 14651103113064748933
12173636 292 18265329701992789525
12293681 160 17977408052670650854
12730499 353 18412271640475517249
12788726 201 17177997506367688000
13134695 92 17909249296303543415
13140716 1 18408879620901573009
13294875 104 18340199700814245382
13965767 371 17750218262493325733
14022347 108 17179983232952630994
14955137 171 17692262837585114435
16945 1 17610639521986076063
17357779 13 16476835689860411454
17974551 9 18118662526344342026
17980427 23 17980723161384303107
20510252 161 18196377141877147457
20600515 1 17612576839767415715
20775438 99 17539922327897334621
21524375 3 18200310064635879502
22182313 1 17692832783397026831
23419403 2 16548395084971833190
23526113 38 17986420916881383590
23536364 44 17766603146383984422
23557571 272 17904772428499972829
23559900 14 18191013501129519889
238 59 18131063848831626885
266924 78 16744589440187453598
2748010 2 17764608889504588542
2803657 2 17477507312551950608
3187 122 17257646154094726643
350125 39 18408890667225038307
3524813 1 17194907969491120866
44317340 157 17902206955606661853
6442390 28 18337684130068934939
7364860 26 18267298729644294771
7471813 234 17766261086408847589
7808743 9 17974014143406197580
81228 2 17332249100466590946
84936 182 18339367357405590533
90316 7 17186151514606056130
9862522 239 16982364679814315672
9981440 41 18266724952151933633

>  <PUBCHEM_SHAPE_MULTIPOLES>  (1) 
476.84
5.9
4.96
1.62
4.4
1.03
-0.12
2.41
1.58
-5.42
-0.72
1.11
-0.21
2.18

>  <PUBCHEM_SHAPE_SELFOVERLAP>  (1) 
1052.212

>  <PUBCHEM_SHAPE_VOLUME>  (1) 
255.5

>  <PUBCHEM_COORDINATE_TYPE>  (1) 
2
5
10

$$$$
