25093
     RDKit          3D

 12 12  0  0  0  0  0  0  0  0999 V2000
   -0.3047   -0.3767   -0.5171 N   0  0  0  0  0  0  0  0  0  0  0  0
    0.8438   -1.9206    0.9082 N   0  0  0  0  0  0  0  0  0  0  0  0
    1.9355   -0.5353   -0.6728 N   0  0  0  0  0  0  0  0  0  0  0  0
    3.7351    0.9480   -0.6651 N   0  0  0  0  0  0  0  0  0  0  0  0
    2.1957    1.1651    1.0077 N   0  0  0  0  0  0  0  0  0  0  0  0
   -1.5831   -0.7754    0.0791 C   0  0  0  0  0  0  0  0  0  0  0  0
   -2.7096   -0.5349   -0.9143 C   0  0  0  0  0  0  0  0  0  0  0  0
   -1.9309    0.1578    1.2289 C   0  0  0  0  0  0  0  0  0  0  0  0
   -3.0081    0.9591   -0.8132 C   0  0  0  0  0  0  0  0  0  0  0  0
   -2.5041    1.4044    0.5596 C   0  0  0  0  0  0  0  0  0  0  0  0
    0.7644   -0.9619   -0.0785 C   0  0  0  0  0  0  0  0  0  0  0  0
    2.5661    0.4706   -0.1225 C   0  0  0  0  0  0  0  0  0  0  0  0
  1  6  1  0
  1 11  2  0
  2 11  1  0
  3 11  1  0
  3 12  2  0
  4 12  1  0
  5 12  1  0
  6  7  1  0
  6  8  1  0
  7  9  1  0
  8 10  1  0
  9 10  1  0
M  END
>  <PUBCHEM_COMPOUND_CID>  (1) 
25093

>  <PUBCHEM_CONFORMER_RMSD>  (1) 
0.6

>  <PUBCHEM_CONFORMER_DIVERSEORDER>  (1) 
1
5
4
3
6
2

>  <PUBCHEM_MMFF94_PARTIAL_CHARGES>  (1) 
14
1 -0.7
11 0.71
12 0.55
2 -0.85
22 0.4
23 0.4
24 0.4
25 0.4
26 0.4
27 0.4
3 -0.66
4 -0.85
5 -0.85
6 0.25

>  <PUBCHEM_EFFECTIVE_ROTOR_COUNT>  (1) 
3

>  <PUBCHEM_PHARMACOPHORE_FEATURES>  (1) 
6
1 2 donor
1 4 donor
1 5 donor
4 1 2 3 11 cation
4 3 4 5 12 cation
5 6 7 8 9 10 rings

>  <PUBCHEM_HEAVY_ATOM_COUNT>  (1) 
12

>  <PUBCHEM_ATOM_DEF_STEREO_COUNT>  (1) 
0

>  <PUBCHEM_ATOM_UDEF_STEREO_COUNT>  (1) 
0

>  <PUBCHEM_BOND_DEF_STEREO_COUNT>  (1) 
0

>  <PUBCHEM_BOND_UDEF_STEREO_COUNT>  (1) 
0

>  <PUBCHEM_ISOTOPIC_ATOM_COUNT>  (1) 
0

>  <PUBCHEM_COMPONENT_COUNT>  (1) 
1

>  <PUBCHEM_CACTVS_TAUTO_COUNT>  (1) 
5

>  <PUBCHEM_CONFORMER_ID>  (1) 
0000620500000001

>  <PUBCHEM_MMFF94_ENERGY>  (1) 
32.9162

>  <PUBCHEM_FEATURE_SELFOVERLAP>  (1) 
30.548

>  <PUBCHEM_SHAPE_FINGERPRINT>  (1) 
10857977 72 16081670884736206463
12251169 10 14634873058549421831
12382932 28 13190333578192070132
12897270 3 17489866059392180919
12932764 1 18335707079128636279
14250199 8 17489023884999077648
14390081 3 18412542098296591653
14577589 140 10953723522023742019
15775835 57 18341899562722892325
18186145 218 18339375105959083382
20361792 2 11240001148265539706
20645464 45 16443067162467322363
20653085 51 18131365093394880219
20711985 344 11670963449514223458
21028194 46 18340771545576299958
230 275 18335417941756014288
23552423 10 17630326338043043383
305870 269 18260263019289279354
3248919 1 16370733603864264511
369184 2 18115026308178714755
63268167 104 18271531913867215144
8030462 33 18060131016549882535

>  <PUBCHEM_SHAPE_MULTIPOLES>  (1) 
222.05
5.53
1.49
1.1
2.16
0.12
-0.14
-2.34
1.14
0.12
-0.28
-0.3
-0.03
-0.21

>  <PUBCHEM_SHAPE_SELFOVERLAP>  (1) 
442.509

>  <PUBCHEM_SHAPE_VOLUME>  (1) 
128.8

>  <PUBCHEM_COORDINATE_TYPE>  (1) 
2
5
10

$$$$
