25099
     RDKit          3D

 22 24  0  0  1  0  0  0  0  0999 V2000
    4.9812    1.4352   -0.2753 O   0  0  0  0  0  0  0  0  0  0  0  0
    3.0863    1.7646   -1.5144 O   0  0  0  0  0  0  0  0  0  0  0  0
    0.6582   -0.9491    0.2484 C   0  0  0  0  0  0  0  0  0  0  0  0
    1.5936    0.2969    0.0431 C   0  0  0  0  0  0  0  0  0  0  0  0
   -0.7914   -0.5010   -0.2042 C   0  0  0  0  0  0  0  0  0  0  0  0
    3.1194    0.0145    0.0712 C   0  0  0  0  0  0  0  0  0  0  0  0
    1.1482   -2.1109   -0.6562 C   0  0  0  0  0  0  0  0  0  0  0  0
    1.1524    1.4664    0.9490 C   0  0  0  0  0  0  0  0  0  0  0  0
    3.4859   -1.1867   -0.8115 C   0  0  0  0  0  0  0  0  0  0  0  0
    2.6375   -2.4147   -0.5053 C   0  0  0  0  0  0  0  0  0  0  0  0
   -1.2178    0.8384    0.3923 C   0  0  0  0  0  0  0  0  0  0  0  0
    0.6292   -1.4449    1.7154 C   0  0  0  0  0  0  0  0  0  0  0  0
   -1.8846   -1.5616    0.0413 C   0  0  0  0  0  0  0  0  0  0  0  0
   -0.3301    1.7039    0.9139 C   0  0  0  0  0  0  0  0  0  0  0  0
    3.8059   -0.0468    1.4346 C   0  0  0  0  0  0  0  0  0  0  0  0
   -3.2453   -1.0998   -0.4911 C   0  0  0  0  0  0  0  0  0  0  0  0
    3.7993    1.1903   -0.6444 C   0  0  0  0  0  0  0  0  0  0  0  0
   -2.6346    1.1649    0.3531 C   0  0  0  0  0  0  0  0  0  0  0  0
   -3.5793    0.3084   -0.0727 C   0  0  0  0  0  0  0  0  0  0  0  0
   -5.0255    0.6984   -0.1554 C   0  0  0  0  0  0  0  0  0  0  0  0
   -5.5146    0.6071   -1.5969 C   0  0  0  0  0  0  0  0  0  0  0  0
   -5.8738   -0.1738    0.7652 C   0  0  0  0  0  0  0  0  0  0  0  0
  1 17  1  0
  2 17  2  0
  3  4  1  0
  3  5  1  0
  3  7  1  0
  3 12  1  0
  4  6  1  0
  4  8  1  0
  5 11  1  0
  5 13  1  0
  6  9  1  0
  6 15  1  0
  6 17  1  0
  7 10  1  0
  8 14  1  0
  9 10  1  0
 11 14  2  0
 11 18  1  0
 13 16  1  0
 16 19  1  0
 18 19  2  0
 19 20  1  0
 20 21  1  0
 20 22  1  0
M  CHG  1   1  -1
M  END
>  <PUBCHEM_COMPOUND_CID>  (1) 
25099

>  <PUBCHEM_CONFORMER_RMSD>  (1) 
0.6

>  <PUBCHEM_CONFORMER_DIVERSEORDER>  (1) 
1
3
2
4

>  <PUBCHEM_MMFF94_PARTIAL_CHARGES>  (1) 
14
1 -0.9
11 -0.14
14 -0.29
16 0.14
17 0.91
18 -0.15
19 -0.28
2 -0.9
20 0.14
38 0.15
44 0.15
5 0.14
6 -0.11
8 0.14

>  <PUBCHEM_EFFECTIVE_ROTOR_COUNT>  (1) 
3.4

>  <PUBCHEM_PHARMACOPHORE_FEATURES>  (1) 
7
1 1 acceptor
1 2 acceptor
3 1 2 17 anion
3 20 21 22 hydrophobe
6 3 4 5 8 11 14 rings
6 3 4 6 7 9 10 rings
6 5 11 13 16 18 19 rings

>  <PUBCHEM_HEAVY_ATOM_COUNT>  (1) 
22

>  <PUBCHEM_ATOM_DEF_STEREO_COUNT>  (1) 
4

>  <PUBCHEM_ATOM_UDEF_STEREO_COUNT>  (1) 
0

>  <PUBCHEM_BOND_DEF_STEREO_COUNT>  (1) 
0

>  <PUBCHEM_BOND_UDEF_STEREO_COUNT>  (1) 
0

>  <PUBCHEM_ISOTOPIC_ATOM_COUNT>  (1) 
0

>  <PUBCHEM_COMPONENT_COUNT>  (1) 
1

>  <PUBCHEM_CACTVS_TAUTO_COUNT>  (1) 
1

>  <PUBCHEM_CONFORMER_ID>  (1) 
0000620B00000001

>  <PUBCHEM_MMFF94_ENERGY>  (1) 
68.057

>  <PUBCHEM_FEATURE_SELFOVERLAP>  (1) 
35.608

>  <PUBCHEM_SHAPE_FINGERPRINT>  (1) 
10090160 65 18409443674434852759
10498660 4 18341901830766142668
10967382 1 18343865502398192802
11287383 113 17748831834507568465
11471102 20 18343017778875012271
12236239 1 18187079585642693480
12553582 1 18201717362479222345
12730499 353 18411709806433053083
12788726 201 17131565929333127969
128620 24 18408042888363135473
13009979 54 17485653645853027474
13140716 1 18127964415699662993
13224815 77 18409737265434950387
13760787 5 18271526408209615559
14787075 74 18261680380330394683
14863182 85 18202282477154170246
15196674 1 18270965639925578737
15536298 74 18202000984491057978
15788980 27 17095521773437032371
1601671 61 18342455962898556121
16945 1 18272656787387572434
17959699 21 18261110738548985261
17980427 23 18192692657296595724
18186145 218 17967532376399491942
19784866 9 18186793673521680771
19862831 5 18411134727871568387
200 152 17489866038497560643
20645477 70 18341054021143623999
20691752 17 17970084252730131200
20715895 44 18115014191886530421
21033648 29 14563074992184476780
21267235 1 18200041641885719206
21637258 2 14404913457718291932
22149856 69 18269856293355685995
231179 274 17894344462880379533
23227448 37 18114747139446455231
23402539 116 18261105322579212164
23402655 69 18343863312228395127
23557571 272 17560238007963633506
23558518 356 17910122312878587089
23559900 14 18411984628990991622
25147074 1 17986685770070654768
2748010 2 17478608374837175850
2838139 119 17386853988018946036
2871803 45 18341895151727948532
296302 2 18113336427251941239
3004659 81 18338517443607513526
3060560 45 17203607090615087030
312423 11 17986686873845763411
34934 24 18201431501860711511
350125 39 18270123383901112174
3545911 37 18410579491373429790
4047638 21 18186804681812958282
4072396 5 18340751681431840066
4340502 62 17312827061333820307
474 4 18113905982817675580
5104073 3 18200032820449869659
537710 114 18343586230676434017
54040823 5 17989490714311515982
59755656 215 18342179930268012494
633830 44 18113617889117260519
7164475 11 18199191676716885136
9999458 23 17022899043423562610

>  <PUBCHEM_SHAPE_MULTIPOLES>  (1) 
441.01
10.61
2.09
1.26
10.46
0.52
0.07
-2.22
-2.3
-1.63
-0.17
-0.17
-0.08
-0.1

>  <PUBCHEM_SHAPE_SELFOVERLAP>  (1) 
931.718

>  <PUBCHEM_SHAPE_VOLUME>  (1) 
243.9

>  <PUBCHEM_COORDINATE_TYPE>  (1) 
2
5
10

$$$$
