25098
     RDKit          3D

 10 10  0  0  1  0  0  0  0  0999 V2000
    3.5357   -0.5210   -0.0857 O   0  0  0  0  0  0  0  0  0  0  0  0
   -3.3021   -0.4660   -0.8845 O   0  0  0  0  0  0  0  0  0  0  0  0
   -2.6313    0.8255    0.8656 O   0  0  0  0  0  0  0  0  0  0  0  0
    1.2694   -0.9107    0.3599 N   0  0  0  0  0  0  0  0  0  0  0  0
    0.0610   -0.1294    0.4327 C   0  0  0  0  0  0  0  0  0  0  0  0
    0.3832    1.0707   -0.4475 C   0  0  0  0  0  0  0  0  0  0  0  0
    1.8865    1.2550   -0.2647 C   0  0  0  0  0  0  0  0  0  0  0  0
   -1.1613   -0.9005   -0.0295 C   0  0  0  0  0  0  0  0  0  0  0  0
    2.3741   -0.1513   -0.0120 C   0  0  0  0  0  0  0  0  0  0  0  0
   -2.4153   -0.0723    0.0655 C   0  0  0  0  0  0  0  0  0  0  0  0
  1  9  2  0
  2 10  1  0
  3 10  2  0
  4  5  1  0
  4  9  1  0
  5  6  1  0
  5  8  1  0
  6  7  1  0
  7  9  1  0
  8 10  1  0
M  END
>  <PUBCHEM_COMPOUND_CID>  (1) 
25098

>  <PUBCHEM_CONFORMER_RMSD>  (1) 
0.6

>  <PUBCHEM_CONFORMER_DIVERSEORDER>  (1) 
1
8
5
7
4
3
6
2

>  <PUBCHEM_MMFF94_PARTIAL_CHARGES>  (1) 
11
1 -0.57
10 0.66
18 0.37
19 0.5
2 -0.65
3 -0.57
4 -0.73
5 0.3
7 0.06
8 0.06
9 0.57

>  <PUBCHEM_EFFECTIVE_ROTOR_COUNT>  (1) 
2.8

>  <PUBCHEM_PHARMACOPHORE_FEATURES>  (1) 
6
1 1 acceptor
1 2 acceptor
1 3 acceptor
1 4 donor
3 2 3 10 anion
5 4 5 6 7 9 rings

>  <PUBCHEM_HEAVY_ATOM_COUNT>  (1) 
10

>  <PUBCHEM_ATOM_DEF_STEREO_COUNT>  (1) 
0

>  <PUBCHEM_ATOM_UDEF_STEREO_COUNT>  (1) 
1

>  <PUBCHEM_BOND_DEF_STEREO_COUNT>  (1) 
0

>  <PUBCHEM_BOND_UDEF_STEREO_COUNT>  (1) 
0

>  <PUBCHEM_ISOTOPIC_ATOM_COUNT>  (1) 
0

>  <PUBCHEM_COMPONENT_COUNT>  (1) 
1

>  <PUBCHEM_CACTVS_TAUTO_COUNT>  (1) 
3

>  <PUBCHEM_CONFORMER_ID>  (1) 
0000620A00000001

>  <PUBCHEM_MMFF94_ENERGY>  (1) 
13.3126

>  <PUBCHEM_FEATURE_SELFOVERLAP>  (1) 
30.503

>  <PUBCHEM_SHAPE_FINGERPRINT>  (1) 
10219947 1 18335421261924067582
10857977 72 14996288058522983101
11062470 55 17275105024538891010
12932764 1 16877939468607900731
14325111 11 18409731797978486137
14993402 34 18411980269245362246
16945 1 18186802469709498664
21040471 1 17973168606258071712
23402539 116 16558463090057594441
23402655 69 18336254691985881117
23552423 10 18115870870051992970
29004967 10 17313107444792666808
3248919 1 18412828014069136747
5084963 1 18410287038692418977

>  <PUBCHEM_SHAPE_MULTIPOLES>  (1) 
183.21
5.01
1.14
0.76
0.68
0.2
0
-0.42
0.44
-0.31
0.02
0.37
0.05
-0.32

>  <PUBCHEM_SHAPE_SELFOVERLAP>  (1) 
368.374

>  <PUBCHEM_SHAPE_VOLUME>  (1) 
108.6

>  <PUBCHEM_COORDINATE_TYPE>  (1) 
2
5
10

$$$$
