25105
     RDKit          3D

 27 30  0  0  1  0  0  0  0  0999 V2000
   -2.3663    4.4975   -0.2436 Cl  0  0  0  0  0  0  0  0  0  0  0  0
    2.0323   -1.9236    1.7582 O   0  0  0  0  0  0  0  0  0  0  0  0
   -1.1322   -1.2719    1.5191 N   0  0  0  0  0  0  0  0  0  0  0  0
    1.6199    0.2037    0.8888 N   0  0  0  0  0  0  0  0  0  0  0  0
    5.5372   -0.7027   -0.7590 N   0  0  0  0  0  0  0  0  0  0  0  0
   -1.1093   -0.5940    0.2020 C   0  0  0  0  0  0  0  0  0  0  0  0
   -2.4106   -1.0599    2.2109 C   0  0  0  0  0  0  0  0  0  0  0  0
   -2.3553   -0.8802   -0.6348 C   0  0  0  0  0  0  0  0  0  0  0  0
   -0.6966    0.8816    0.2883 C   0  0  0  0  0  0  0  0  0  0  0  0
   -3.5534   -1.7080    1.4303 C   0  0  0  0  0  0  0  0  0  0  0  0
   -0.0207   -0.8910    2.3929 C   0  0  0  0  0  0  0  0  0  0  0  0
   -3.5274   -1.3729   -0.0359 C   0  0  0  0  0  0  0  0  0  0  0  0
    0.6588    1.2163    0.5434 C   0  0  0  0  0  0  0  0  0  0  0  0
    1.2949   -0.9427    1.6347 C   0  0  0  0  0  0  0  0  0  0  0  0
    3.0015    0.3908    0.4533 C   0  0  0  0  0  0  0  0  0  0  0  0
   -2.3401   -0.6472   -2.0211 C   0  0  0  0  0  0  0  0  0  0  0  0
   -1.6239    1.9185    0.0772 C   0  0  0  0  0  0  0  0  0  0  0  0
   -4.6590   -1.6225   -0.8248 C   0  0  0  0  0  0  0  0  0  0  0  0
    3.1601   -0.0496   -1.0032 C   0  0  0  0  0  0  0  0  0  0  0  0
    1.0584    2.5613    0.4573 C   0  0  0  0  0  0  0  0  0  0  0  0
   -3.4744   -0.8899   -2.7950 C   0  0  0  0  0  0  0  0  0  0  0  0
   -4.6337   -1.3755   -2.1967 C   0  0  0  0  0  0  0  0  0  0  0  0
   -1.2139    3.2502    0.0369 C   0  0  0  0  0  0  0  0  0  0  0  0
    4.5919    0.1043   -1.5208 C   0  0  0  0  0  0  0  0  0  0  0  0
    0.1272    3.5692    0.2081 C   0  0  0  0  0  0  0  0  0  0  0  0
    6.8924   -0.5495   -1.2916 C   0  0  0  0  0  0  0  0  0  0  0  0
    5.1423   -2.1123   -0.7749 C   0  0  0  0  0  0  0  0  0  0  0  0
  1 23  1  0
  2 14  2  0
  3  6  1  0
  3  7  1  0
  3 11  1  0
  4 13  1  0
  4 14  1  0
  4 15  1  0
  5 24  1  0
  5 26  1  0
  5 27  1  0
  6  8  1  0
  6  9  1  0
  7 10  1  0
  8 12  2  0
  8 16  1  0
  9 13  2  0
  9 17  1  0
 10 12  1  0
 11 14  1  0
 12 18  1  0
 13 20  1  0
 15 19  1  0
 16 21  2  0
 17 23  2  0
 18 22  2  0
 19 24  1  0
 20 25  2  0
 21 22  1  0
 23 25  1  0
M  END
>  <PUBCHEM_COMPOUND_CID>  (1) 
25105

>  <PUBCHEM_CONFORMER_RMSD>  (1) 
0.8

>  <PUBCHEM_CONFORMER_DIVERSEORDER>  (1) 
3
30
21
25
16
4
23
5
27
28
10
24
18
29
9
14
6
31
8
19
15
22
11
7
17
13
1
20
26
12
2

>  <PUBCHEM_MMFF94_PARTIAL_CHARGES>  (1) 
33
1 -0.18
10 0.14
11 0.33
12 -0.14
13 0.12
14 0.57
15 0.3
16 -0.15
17 -0.15
18 -0.15
2 -0.57
20 -0.15
21 -0.15
22 -0.15
23 0.18
24 0.27
25 -0.15
26 0.27
27 0.27
3 -0.81
37 0.15
38 0.15
39 0.15
4 -0.48
42 0.15
43 0.15
44 0.15
47 0.15
5 -0.81
6 0.56
7 0.27
8 -0.14
9 -0.14

>  <PUBCHEM_EFFECTIVE_ROTOR_COUNT>  (1) 
4.8

>  <PUBCHEM_PHARMACOPHORE_FEATURES>  (1) 
7
1 2 acceptor
1 3 cation
1 5 cation
6 3 6 7 8 10 12 rings
6 8 12 16 18 21 22 rings
6 9 13 17 20 23 25 rings
7 3 4 6 9 11 13 14 rings

>  <PUBCHEM_HEAVY_ATOM_COUNT>  (1) 
27

>  <PUBCHEM_ATOM_DEF_STEREO_COUNT>  (1) 
0

>  <PUBCHEM_ATOM_UDEF_STEREO_COUNT>  (1) 
1

>  <PUBCHEM_BOND_DEF_STEREO_COUNT>  (1) 
0

>  <PUBCHEM_BOND_UDEF_STEREO_COUNT>  (1) 
0

>  <PUBCHEM_ISOTOPIC_ATOM_COUNT>  (1) 
0

>  <PUBCHEM_COMPONENT_COUNT>  (1) 
1

>  <PUBCHEM_CACTVS_TAUTO_COUNT>  (1) 
1

>  <PUBCHEM_CONFORMER_ID>  (1) 
0000621100000003

>  <PUBCHEM_MMFF94_ENERGY>  (1) 
91.9827

>  <PUBCHEM_FEATURE_SELFOVERLAP>  (1) 
35.566

>  <PUBCHEM_SHAPE_FINGERPRINT>  (1) 
10165383 225 17168145642144655275
10254770 206 16607449360838172334
10906281 52 17975122455290276321
12553582 1 18409443708873654291
12633257 1 13901361437290626679
12788726 201 18265326223328047761
13540713 5 17898562086616440218
13911987 19 18044107962848092878
14114206 34 18260536802080049925
14556957 393 18190766235599783684
14790565 3 17471864602036900272
15324884 4 16377770749287289363
15444296 8 18341342171031860583
17357779 13 18337673113114064056
1813 80 18130776910561433375
19784866 140 18408038519980839126
20775438 99 17549518044007469150
20775530 9 16986573502371219862
22620623 9 18201713999076711200
23175994 123 18263085564521955881
23536364 44 18187359917846925821
23559900 14 18043262421611968756
238 59 17109837664144494581
25147074 1 17897154724591298056
2838139 119 14634864275879742470
3027735 51 18271530779980524958
3610482 184 17899726508544000628
44062 13 18056486037226161422
469060 322 17989215841111068246
5104073 3 13973121098306600583
5171179 24 18201715197805701656
57527295 17 18187910786500799127
5969126 39 18342738516497809164
621550 5 17026306571633737865
6786 2 16981549511979832321
70251023 43 18271800276261291637

>  <PUBCHEM_SHAPE_MULTIPOLES>  (1) 
536.7
10.4
3.73
2.32
16.37
6.12
-0.06
-8.1
-7.44
-2.58
-0.04
-1.56
-1.65
-0.09

>  <PUBCHEM_SHAPE_SELFOVERLAP>  (1) 
1142.948

>  <PUBCHEM_SHAPE_VOLUME>  (1) 
297.6

>  <PUBCHEM_COORDINATE_TYPE>  (1) 
2
5
10

$$$$
