25109
     RDKit          3D

 27 28  0  0  0  0  0  0  0  0999 V2000
   -2.4419   -1.6007    0.0209 O   0  0  0  0  0  0  0  0  0  0  0  0
   -3.4609    1.9388    0.7274 O   0  0  0  0  0  0  0  0  0  0  0  0
    0.9107    2.8932   -0.2842 N   0  0  0  0  0  0  0  0  0  0  0  0
   -2.2824    1.1689   -1.1152 N   0  0  0  0  0  0  0  0  0  0  0  0
    0.5595    3.9914    0.6158 C   0  0  0  0  0  0  0  0  0  0  0  0
    2.2261    2.4392    0.1662 C   0  0  0  0  0  0  0  0  0  0  0  0
    1.8656    4.7623    0.7396 C   0  0  0  0  0  0  0  0  0  0  0  0
    2.9607    3.7430    0.4405 C   0  0  0  0  0  0  0  0  0  0  0  0
   -0.0794    1.8266   -0.2720 C   0  0  0  0  0  0  0  0  0  0  0  0
   -1.2816    2.2117   -1.1216 C   0  0  0  0  0  0  0  0  0  0  0  0
    2.8206   -2.0655    0.0696 C   0  0  0  0  0  0  0  0  0  0  0  0
    4.2306   -1.6694    0.5171 C   0  0  0  0  0  0  0  0  0  0  0  0
    1.7465   -1.7837    1.1225 C   0  0  0  0  0  0  0  0  0  0  0  0
    5.2940   -1.8820   -0.5626 C   0  0  0  0  0  0  0  0  0  0  0  0
    0.3642   -2.2262    0.6356 C   0  0  0  0  0  0  0  0  0  0  0  0
    6.6679   -1.4028   -0.0883 C   0  0  0  0  0  0  0  0  0  0  0  0
   -0.7165   -1.9176    1.6759 C   0  0  0  0  0  0  0  0  0  0  0  0
    7.7251   -1.5785   -1.1783 C   0  0  0  0  0  0  0  0  0  0  0  0
   -2.1069   -2.3196    1.1992 C   0  0  0  0  0  0  0  0  0  0  0  0
   -3.3194    1.1003   -0.1790 C   0  0  0  0  0  0  0  0  0  0  0  0
   -4.2349   -0.0268   -0.2904 C   0  0  0  0  0  0  0  0  0  0  0  0
    9.0843   -1.0725   -0.7224 C   0  0  0  0  0  0  0  0  0  0  0  0
   -3.7714   -1.3385   -0.1875 C   0  0  0  0  0  0  0  0  0  0  0  0
   -5.5913    0.2188   -0.5040 C   0  0  0  0  0  0  0  0  0  0  0  0
   -4.6644   -2.4043   -0.2981 C   0  0  0  0  0  0  0  0  0  0  0  0
   -6.4842   -0.8472   -0.6148 C   0  0  0  0  0  0  0  0  0  0  0  0
   -6.0208   -2.1587   -0.5119 C   0  0  0  0  0  0  0  0  0  0  0  0
  1 19  1  0
  1 23  1  0
  2 20  2  0
  3  5  1  0
  3  6  1  0
  3  9  1  0
  4 10  1  0
  4 20  1  0
  5  7  1  0
  6  8  1  0
  7  8  1  0
  9 10  1  0
 11 12  1  0
 11 13  1  0
 12 14  1  0
 13 15  1  0
 14 16  1  0
 15 17  1  0
 16 18  1  0
 17 19  1  0
 18 22  1  0
 20 21  1  0
 21 23  2  0
 21 24  1  0
 23 25  1  0
 24 26  2  0
 25 27  2  0
 26 27  1  0
M  END
>  <PUBCHEM_COMPOUND_CID>  (1) 
25109

>  <PUBCHEM_CONFORMER_RMSD>  (1) 
1.4

>  <PUBCHEM_CONFORMER_DIVERSEORDER>  (1) 
1
81
67
24
57
9
33
38
12
13
83
82
65
17
42
47
44
22
68
63
25
89
4
52
18
8
92
78
76
61
55
34
46
62
2
79
39
87
29
27
28
35
75
88
58
5
51
26
69
14
54
3
53
19
32
15
11
84
16
77
73
40
10
6
72
49
21
70
74
56
64
48
80
7
59
20
71
86
37
23
41
90
85
60
66
91
45
30
31
50
43
36

>  <PUBCHEM_MMFF94_PARTIAL_CHARGES>  (1) 
21
1 -0.36
10 0.3
19 0.28
2 -0.57
20 0.54
21 0.09
23 0.08
24 -0.15
25 -0.15
26 -0.15
27 -0.15
3 -0.81
4 -0.73
5 0.27
54 0.37
6 0.27
62 0.15
63 0.15
64 0.15
65 0.15
9 0.27

>  <PUBCHEM_EFFECTIVE_ROTOR_COUNT>  (1) 
16

>  <PUBCHEM_PHARMACOPHORE_FEATURES>  (1) 
7
1 1 acceptor
1 2 acceptor
1 22 hydrophobe
1 3 cation
1 4 donor
5 3 5 6 7 8 rings
6 21 23 24 25 26 27 rings

>  <PUBCHEM_HEAVY_ATOM_COUNT>  (1) 
27

>  <PUBCHEM_ATOM_DEF_STEREO_COUNT>  (1) 
0

>  <PUBCHEM_ATOM_UDEF_STEREO_COUNT>  (1) 
0

>  <PUBCHEM_BOND_DEF_STEREO_COUNT>  (1) 
0

>  <PUBCHEM_BOND_UDEF_STEREO_COUNT>  (1) 
0

>  <PUBCHEM_ISOTOPIC_ATOM_COUNT>  (1) 
0

>  <PUBCHEM_COMPONENT_COUNT>  (1) 
1

>  <PUBCHEM_CACTVS_TAUTO_COUNT>  (1) 
2

>  <PUBCHEM_CONFORMER_ID>  (1) 
0000621500000001

>  <PUBCHEM_MMFF94_ENERGY>  (1) 
40.2

>  <PUBCHEM_FEATURE_SELFOVERLAP>  (1) 
35.521

>  <PUBCHEM_SHAPE_FINGERPRINT>  (1) 
1100329 8 18267019454392817161
11513181 2 17979910837076742742
12107183 9 18270971124963527665
12788726 201 18190460455218060178
13402501 40 18335134306526954178
13533116 47 18268707376307828469
14394314 77 18265339404298232272
14647877 51 18337390573354547304
14931854 50 18041558040438020678
15264996 163 18266747883283962297
15927050 60 17836925968887370116
16067689 302 18048599506598196027
18336668 15 18040442061931401732
18681886 176 18341887515382390530
20642791 35 18261379049973114403
20721686 56 18262520406644387762
23559900 14 18339634650817144729
335352 9 18336257961067851679

>  <PUBCHEM_SHAPE_MULTIPOLES>  (1) 
533.95
18.32
5.47
1.12
26.99
7.76
0.15
-16.51
-7.75
3.51
1.36
0.22
-0.26
1.19

>  <PUBCHEM_SHAPE_SELFOVERLAP>  (1) 
1060.382

>  <PUBCHEM_SHAPE_VOLUME>  (1) 
318.4

>  <PUBCHEM_COORDINATE_TYPE>  (1) 
2
5
10

$$$$
