25110
     RDKit          3D

 23 24  0  0  0  0  0  0  0  0999 V2000
    5.4729    0.5813    0.2149 O   0  0  0  0  0  0  0  0  0  0  0  0
    3.5307    2.4524   -0.4158 O   0  0  0  0  0  0  0  0  0  0  0  0
    4.7400   -2.0448    0.7020 O   0  0  0  0  0  0  0  0  0  0  0  0
   -2.6019   -1.8073   -0.2267 O   0  0  0  0  0  0  0  0  0  0  0  0
   -3.2907    0.4197    0.0543 N   0  0  0  0  0  0  0  0  0  0  0  0
    1.4810   -0.5452    0.0008 C   0  0  0  0  0  0  0  0  0  0  0  0
    4.1624    0.2115    0.1447 C   0  0  0  0  0  0  0  0  0  0  0  0
    3.1870    1.1567   -0.1728 C   0  0  0  0  0  0  0  0  0  0  0  0
    3.7971   -1.1120    0.3905 C   0  0  0  0  0  0  0  0  0  0  0  0
    1.8464    0.7783   -0.2448 C   0  0  0  0  0  0  0  0  0  0  0  0
    2.4564   -1.4904    0.3186 C   0  0  0  0  0  0  0  0  0  0  0  0
    0.0831   -0.9397   -0.0741 C   0  0  0  0  0  0  0  0  0  0  0  0
   -0.9709   -0.0969    0.0105 C   0  0  0  0  0  0  0  0  0  0  0  0
   -4.7036    0.3208    0.0279 C   0  0  0  0  0  0  0  0  0  0  0  0
   -2.3714   -0.6141   -0.0696 C   0  0  0  0  0  0  0  0  0  0  0  0
   -5.4643    1.4689    0.1681 C   0  0  0  0  0  0  0  0  0  0  0  0
   -5.2916   -0.9216   -0.1369 C   0  0  0  0  0  0  0  0  0  0  0  0
    6.0570    1.1211   -0.9682 C   0  0  0  0  0  0  0  0  0  0  0  0
    3.5529    3.3375    0.7024 C   0  0  0  0  0  0  0  0  0  0  0  0
    5.3305   -2.7568   -0.3835 C   0  0  0  0  0  0  0  0  0  0  0  0
   -6.8554    1.3716    0.1425 C   0  0  0  0  0  0  0  0  0  0  0  0
   -6.6828   -1.0188   -0.1623 C   0  0  0  0  0  0  0  0  0  0  0  0
   -7.4649    0.1278   -0.0226 C   0  0  0  0  0  0  0  0  0  0  0  0
  1  7  1  0
  1 18  1  0
  2  8  1  0
  2 19  1  0
  3  9  1  0
  3 20  1  0
  4 15  2  0
  5 14  1  0
  5 15  1  0
  6 10  2  0
  6 11  1  0
  6 12  1  0
  7  8  2  0
  7  9  1  0
  8 10  1  0
  9 11  2  0
 12 13  2  0
 13 15  1  0
 14 16  2  0
 14 17  1  0
 16 21  1  0
 17 22  2  0
 21 23  2  0
 22 23  1  0
M  END
>  <PUBCHEM_COMPOUND_CID>  (1) 
25110

>  <PUBCHEM_CONFORMER_RMSD>  (1) 
0.8

>  <PUBCHEM_CONFORMER_DIVERSEORDER>  (1) 
1
7
8
6
2
5
4
9
3
10

>  <PUBCHEM_MMFF94_PARTIAL_CHARGES>  (1) 
33
1 -0.36
10 -0.15
11 -0.15
12 -0.18
13 -0.14
14 0.12
15 0.62
16 -0.15
17 -0.15
18 0.28
19 0.28
2 -0.36
20 0.28
21 -0.15
22 -0.15
23 -0.15
24 0.15
25 0.15
26 0.15
27 0.15
28 0.37
29 0.15
3 -0.36
30 0.15
4 -0.57
40 0.15
41 0.15
42 0.15
5 -0.55
6 0.03
7 0.08
8 0.08
9 0.08

>  <PUBCHEM_EFFECTIVE_ROTOR_COUNT>  (1) 
7

>  <PUBCHEM_PHARMACOPHORE_FEATURES>  (1) 
7
1 1 acceptor
1 2 acceptor
1 3 acceptor
1 4 acceptor
1 5 donor
6 14 16 17 21 22 23 rings
6 6 7 8 9 10 11 rings

>  <PUBCHEM_HEAVY_ATOM_COUNT>  (1) 
23

>  <PUBCHEM_ATOM_DEF_STEREO_COUNT>  (1) 
0

>  <PUBCHEM_ATOM_UDEF_STEREO_COUNT>  (1) 
0

>  <PUBCHEM_BOND_DEF_STEREO_COUNT>  (1) 
0

>  <PUBCHEM_BOND_UDEF_STEREO_COUNT>  (1) 
1

>  <PUBCHEM_ISOTOPIC_ATOM_COUNT>  (1) 
0

>  <PUBCHEM_COMPONENT_COUNT>  (1) 
1

>  <PUBCHEM_CACTVS_TAUTO_COUNT>  (1) 
2

>  <PUBCHEM_CONFORMER_ID>  (1) 
0000621600000001

>  <PUBCHEM_MMFF94_ENERGY>  (1) 
100.4367

>  <PUBCHEM_FEATURE_SELFOVERLAP>  (1) 
35.532

>  <PUBCHEM_SHAPE_FINGERPRINT>  (1) 
10411042 1 18121780535700931834
10595046 47 18341327915945928519
11315181 36 18408042915008587105
11719270 70 17846496989732002151
12107183 9 17617375083436974123
12166972 35 18202000988933667016
12236239 1 18413106143799197187
12616971 3 18201991136574082519
12788726 201 17561091276242127449
13167372 99 18341333293208202777
13533116 47 18409165493782330826
13785724 45 17836367051582328470
13878862 14 18263904631717863733
14170010 4 18409446990761249104
14251764 18 18335417975957594502
14341114 176 18334297539312345573
14464042 87 18059860536500033417
14528608 73 18341332275274365405
14933364 13 18408042905722385221
15183329 4 18201723946795877993
15475509 35 16443888489564419536
1577012 14 18341895182404616749
17844677 252 18411423873913129305
19427546 62 18335984280792566746
20157964 124 18411139138449618586
20281389 69 18335138675015193789
21267235 1 18338239262718004362
21315763 129 18339360769400635533
21315763 28 18411698769205800699
21315764 268 18408317787893310893
21344244 78 18270665482157577552
221357 26 18335984181971083932
23081809 10 18201997729581003015
23536379 177 18411136918579267651
23559900 14 18412259549493771683
255183 451 18126855898359573318
29717793 49 18202566146410821654
3004659 81 18411136905161739226
335352 9 18408889555962567534
34797466 226 17774733047298174973
350125 39 18409729543131627572
3545911 37 18335421296151878733
4073 2 17967820499759107314
4325135 7 18343020017502351277
5104073 3 18260261997002647987
54446538 1 18411980235513364657
9996256 80 18408601461950857487

>  <PUBCHEM_SHAPE_MULTIPOLES>  (1) 
444.87
20.23
2.59
0.72
25.04
0.87
0.02
1.59
0.88
-4.37
-0.22
-0.49
0.07
-0.45

>  <PUBCHEM_SHAPE_SELFOVERLAP>  (1) 
940.376

>  <PUBCHEM_SHAPE_VOLUME>  (1) 
249.6

>  <PUBCHEM_COORDINATE_TYPE>  (1) 
2
5
10

$$$$
