25126
     RDKit          3D

 16 17  0  0  0  0  0  0  0  0999 V2000
   -2.2328   -2.5324    0.9953 Br  0  0  0  0  0  0  0  0  0  0  0  0
   -0.1228   -1.3753   -1.1124 O   0  0  0  0  0  0  0  0  0  0  0  0
    0.6178    0.4325    0.1871 N   0  0  0  0  0  0  0  0  0  0  0  0
   -1.7366    0.0398   -0.2157 C   0  0  0  0  0  0  0  0  0  0  0  0
    2.0270    0.2937    0.1449 C   0  0  0  0  0  0  0  0  0  0  0  0
   -0.3535   -0.3743   -0.4181 C   0  0  0  0  0  0  0  0  0  0  0  0
   -2.6805   -0.7912    0.3880 C   0  0  0  0  0  0  0  0  0  0  0  0
   -2.1046    1.3136   -0.6490 C   0  0  0  0  0  0  0  0  0  0  0  0
    2.5820   -0.7542   -0.5695 C   0  0  0  0  0  0  0  0  0  0  0  0
    2.8173    1.2093    0.8186 C   0  0  0  0  0  0  0  0  0  0  0  0
   -3.9921   -0.3481    0.5583 C   0  0  0  0  0  0  0  0  0  0  0  0
   -3.4164    1.7564   -0.4787 C   0  0  0  0  0  0  0  0  0  0  0  0
    3.9695   -0.8908   -0.6116 C   0  0  0  0  0  0  0  0  0  0  0  0
    4.2049    1.0726    0.7764 C   0  0  0  0  0  0  0  0  0  0  0  0
   -4.3601    0.9256    0.1249 C   0  0  0  0  0  0  0  0  0  0  0  0
    4.7809    0.0225    0.0614 C   0  0  0  0  0  0  0  0  0  0  0  0
  1  7  1  0
  2  6  2  0
  3  5  1  0
  3  6  1  0
  4  6  1  0
  4  7  2  0
  4  8  1  0
  5  9  2  0
  5 10  1  0
  7 11  1  0
  8 12  2  0
  9 13  1  0
 10 14  2  0
 11 15  2  0
 12 15  1  0
 13 16  2  0
 14 16  1  0
M  END
>  <PUBCHEM_COMPOUND_CID>  (1) 
25126

>  <PUBCHEM_CONFORMER_RMSD>  (1) 
0.6

>  <PUBCHEM_CONFORMER_DIVERSEORDER>  (1) 
1
2
4
3

>  <PUBCHEM_MMFF94_PARTIAL_CHARGES>  (1) 
26
1 -0.11
10 -0.15
11 -0.15
12 -0.15
13 -0.15
14 -0.15
15 -0.15
16 -0.15
17 0.37
18 0.15
19 0.15
2 -0.57
20 0.15
21 0.15
22 0.15
23 0.15
24 0.15
25 0.15
26 0.15
3 -0.55
4 0.09
5 0.12
6 0.54
7 0.11
8 -0.15
9 -0.15

>  <PUBCHEM_EFFECTIVE_ROTOR_COUNT>  (1) 
3

>  <PUBCHEM_PHARMACOPHORE_FEATURES>  (1) 
5
1 1 hydrophobe
1 2 acceptor
1 3 donor
6 4 7 8 11 12 15 rings
6 5 9 10 13 14 16 rings

>  <PUBCHEM_HEAVY_ATOM_COUNT>  (1) 
16

>  <PUBCHEM_ATOM_DEF_STEREO_COUNT>  (1) 
0

>  <PUBCHEM_ATOM_UDEF_STEREO_COUNT>  (1) 
0

>  <PUBCHEM_BOND_DEF_STEREO_COUNT>  (1) 
0

>  <PUBCHEM_BOND_UDEF_STEREO_COUNT>  (1) 
0

>  <PUBCHEM_ISOTOPIC_ATOM_COUNT>  (1) 
0

>  <PUBCHEM_COMPONENT_COUNT>  (1) 
1

>  <PUBCHEM_CACTVS_TAUTO_COUNT>  (1) 
2

>  <PUBCHEM_CONFORMER_ID>  (1) 
0000622600000001

>  <PUBCHEM_MMFF94_ENERGY>  (1) 
52.329

>  <PUBCHEM_FEATURE_SELFOVERLAP>  (1) 
25.371

>  <PUBCHEM_SHAPE_FINGERPRINT>  (1) 
10608611 8 18413385453743158000
11132069 177 18333169475021703533
11405975 8 18409728461237245010
11471102 20 17846497020038742100
12119455 92 17917710193098672679
12251169 10 18186522124493952661
12500047 106 18333730199892096963
12507560 40 18413108389797866232
13675066 3 18342738550530103400
14289901 80 18041284360910776426
15042514 8 18115317807941949843
15219456 202 18342460317979492135
15242439 84 18341334409730543836
15309172 13 17703794733957854639
15375358 24 18342739606839038966
15653759 3 18408324397409486160
17804303 29 18335144214995452525
18186145 218 17561367283582914860
200 152 16845287228895694901
20279233 1 18413393137386805590
20510252 161 18411137996526667577
20645477 56 18334576832667430221
20645477 70 17632300030197512870
21065198 57 18410293622935260650
21065199 12 18339080492461240410
21065201 7 18259702294144605298
22224240 67 18336557032578497065
22854114 59 18272934929163692993
22943178 12 18341613741455471530
23402539 116 18335977658332564255
23402655 69 17561080302632437828
23557571 272 18410584988952804316
23559900 14 18409452449633235254
26918003 58 18343864416209102730
2838139 119 16342867508725484121
351380 180 18342452634404448645
3545911 37 18413390938564010080
42 15 18333449824743232882
4214541 1 18408886239134829064
5104073 3 18412822517038395986
5924683 9 18268987751498851595
602551 16 18041282161887839458
69090 78 18130782377996928559
77779 3 18409731768114227120
9709674 26 18412548725341932910

>  <PUBCHEM_SHAPE_MULTIPOLES>  (1) 
324.36
9.69
1.91
0.96
5.08
0.77
-0.01
-1.81
-1.17
-1.8
-0.26
0.24
0.13
1.28

>  <PUBCHEM_SHAPE_SELFOVERLAP>  (1) 
684.411

>  <PUBCHEM_SHAPE_VOLUME>  (1) 
186.5

>  <PUBCHEM_COORDINATE_TYPE>  (1) 
2
5
10

$$$$
