25131
     RDKit          3D

 16 16  0  0  1  0  0  0  0  0999 V2000
    2.7746   -1.3305    0.2249 O   0  0  0  0  0  0  0  0  0  0  0  0
   -2.2488   -0.3212   -0.3993 O   0  0  0  0  0  0  0  0  0  0  0  0
   -2.4042    0.6557    1.6803 O   0  0  0  0  0  0  0  0  0  0  0  0
   -0.4146    3.3885   -0.9690 N   0  0  0  0  0  0  0  0  0  0  0  0
    1.4788   -1.8764    0.5144 C   0  0  0  0  0  0  0  0  0  0  0  0
    2.7511   -0.1054   -0.5212 C   0  0  0  0  0  0  0  0  0  0  0  0
    0.6141   -0.8651    1.2777 C   0  0  0  0  0  0  0  0  0  0  0  0
    1.9724    0.9763    0.2348 C   0  0  0  0  0  0  0  0  0  0  0  0
    0.5997    0.4617    0.5695 C   0  0  0  0  0  0  0  0  0  0  0  0
    0.8045   -2.4257   -0.7422 C   0  0  0  0  0  0  0  0  0  0  0  0
    4.1976    0.3231   -0.7385 C   0  0  0  0  0  0  0  0  0  0  0  0
   -0.5275    1.1106    0.2487 C   0  0  0  0  0  0  0  0  0  0  0  0
   -1.8234    0.4763    0.6193 C   0  0  0  0  0  0  0  0  0  0  0  0
   -0.4646    2.3656   -0.4229 C   0  0  0  0  0  0  0  0  0  0  0  0
   -3.4912   -0.9977   -0.1795 C   0  0  0  0  0  0  0  0  0  0  0  0
   -3.8185   -1.8357   -1.3969 C   0  0  0  0  0  0  0  0  0  0  0  0
  1  5  1  0
  1  6  1  0
  2 13  1  0
  2 15  1  0
  3 13  2  0
  4 14  3  0
  5  7  1  0
  5 10  1  0
  6  8  1  0
  6 11  1  0
  7  9  1  0
  8  9  1  0
  9 12  2  3
 12 13  1  0
 12 14  1  0
 15 16  1  0
M  END
>  <PUBCHEM_COMPOUND_CID>  (1) 
25131

>  <PUBCHEM_CONFORMER_RMSD>  (1) 
0.6

>  <PUBCHEM_CONFORMER_DIVERSEORDER>  (1) 
8
60
49
16
56
3
47
51
62
68
11
27
42
20
76
29
54
55
46
32
71
53
63
38
14
74
58
67
35
41
78
69
19
44
5
10
23
65
4
1
70
48
15
6
79
64
36
57
2
39
72
12
37
80
13
7
31
61
50
75
77
24
45
21
40
73
34
25
43
28
9
52
22
17
26
66
59
30
33
18

>  <PUBCHEM_MMFF94_PARTIAL_CHARGES>  (1) 
13
1 -0.56
12 0.08
13 0.71
14 0.49
15 0.28
2 -0.43
3 -0.57
4 -0.56
5 0.28
6 0.28
7 0.14
8 0.14
9 -0.28

>  <PUBCHEM_EFFECTIVE_ROTOR_COUNT>  (1) 
4

>  <PUBCHEM_PHARMACOPHORE_FEATURES>  (1) 
4
1 1 acceptor
1 3 acceptor
1 4 acceptor
6 1 5 6 7 8 9 rings

>  <PUBCHEM_HEAVY_ATOM_COUNT>  (1) 
16

>  <PUBCHEM_ATOM_DEF_STEREO_COUNT>  (1) 
0

>  <PUBCHEM_ATOM_UDEF_STEREO_COUNT>  (1) 
2

>  <PUBCHEM_BOND_DEF_STEREO_COUNT>  (1) 
0

>  <PUBCHEM_BOND_UDEF_STEREO_COUNT>  (1) 
0

>  <PUBCHEM_ISOTOPIC_ATOM_COUNT>  (1) 
0

>  <PUBCHEM_COMPONENT_COUNT>  (1) 
1

>  <PUBCHEM_CACTVS_TAUTO_COUNT>  (1) 
1

>  <PUBCHEM_CONFORMER_ID>  (1) 
0000622B00000008

>  <PUBCHEM_MMFF94_ENERGY>  (1) 
32.1605

>  <PUBCHEM_FEATURE_SELFOVERLAP>  (1) 
20.297

>  <PUBCHEM_SHAPE_FINGERPRINT>  (1) 
10062212 137 17827642444422413746
11578080 2 17987211440041146489
11680986 33 17906455781034232600
11806522 49 18058164110301114817
12423570 1 11639126600789626306
12553582 1 18410005563937436371
15757776 16 18409721885125642027
15852999 172 16976138793352076035
16945 1 18187092741174844688
17492 54 18190468353388455100
20344682 6 18408609162536847910
20388580 30 18126841827629460255
20871999 31 18334003987452010365
21501502 16 18117560617829538208
21634736 98 17982163727817272647
23402539 116 18187368718635757164
23559900 14 17185029463555368066
23598291 2 18198632210467016917
2748010 2 17974869559468122800
2871803 45 18412258454266672079
3060560 45 18192976343648473879
3286 77 17632296813256406320
449060 23 18060424641957522799
568465 68 11167672052365429215
81228 2 18042964277123806225

>  <PUBCHEM_SHAPE_MULTIPOLES>  (1) 
306.68
5.74
2.82
1.2
1
1.21
-0.14
-2.52
1.88
0.43
0.99
0.51
-0.05
-0.83

>  <PUBCHEM_SHAPE_SELFOVERLAP>  (1) 
614.243

>  <PUBCHEM_SHAPE_VOLUME>  (1) 
179.8

>  <PUBCHEM_COORDINATE_TYPE>  (1) 
2
5
10

$$$$
