25139
     RDKit          3D

 11 10  0  0  0  0  0  0  0  0999 V2000
    3.2082    0.5830    1.3071 O   0  0  0  0  0  0  0  0  0  0  0  0
    1.7862   -0.6972   -0.1607 C   0  0  0  0  0  0  0  0  0  0  0  0
    0.5712    0.2266    0.0037 C   0  0  0  0  0  0  0  0  0  0  0  0
    3.1506    0.0060    0.0007 C   0  0  0  0  0  0  0  0  0  0  0  0
   -0.7687   -0.5138   -0.0814 C   0  0  0  0  0  0  0  0  0  0  0  0
   -1.9841    0.3972    0.1054 C   0  0  0  0  0  0  0  0  0  0  0  0
   -3.2908   -0.3812   -0.0655 C   0  0  0  0  0  0  0  0  0  0  0  0
    4.2765   -1.0282   -0.1070 C   0  0  0  0  0  0  0  0  0  0  0  0
    3.3643    1.1168   -1.0303 C   0  0  0  0  0  0  0  0  0  0  0  0
   -4.5066    0.5334    0.0821 C   0  0  0  0  0  0  0  0  0  0  0  0
   -5.8069   -0.2426   -0.0541 C   0  0  0  0  0  0  0  0  0  0  0  0
  1  4  1  0
  2  3  1  0
  2  4  1  0
  3  5  1  0
  4  8  1  0
  4  9  1  0
  5  6  1  0
  6  7  1  0
  7 10  1  0
 10 11  1  0
M  END
>  <PUBCHEM_COMPOUND_CID>  (1) 
25139

>  <PUBCHEM_CONFORMER_RMSD>  (1) 
0.6

>  <PUBCHEM_CONFORMER_DIVERSEORDER>  (1) 
3
23
95
16
91
48
59
93
1
86
24
30
81
13
74
94
85
33
22
11
20
90
87
2
62
58
18
63
36
76
19
84
60
73
80
12
45
25
88
46
42
89
21
41
4
92
52
55
7
27
77
50
75
54
67
83
39
17
82
61
10
6
43
79
9
26
68
53
70
5
49
38
47
44
78
40
15
37
8
64
56
28
51
32
31
14
57
69
34
29
71
65
35
66
72

>  <PUBCHEM_MMFF94_PARTIAL_CHARGES>  (1) 
3
1 -0.68
30 0.4
4 0.28

>  <PUBCHEM_EFFECTIVE_ROTOR_COUNT>  (1) 
6

>  <PUBCHEM_PHARMACOPHORE_FEATURES>  (1) 
6
1 1 acceptor
1 1 donor
1 11 hydrophobe
3 2 3 5 hydrophobe
3 4 8 9 hydrophobe
3 6 7 10 hydrophobe

>  <PUBCHEM_HEAVY_ATOM_COUNT>  (1) 
11

>  <PUBCHEM_ATOM_DEF_STEREO_COUNT>  (1) 
0

>  <PUBCHEM_ATOM_UDEF_STEREO_COUNT>  (1) 
0

>  <PUBCHEM_BOND_DEF_STEREO_COUNT>  (1) 
0

>  <PUBCHEM_BOND_UDEF_STEREO_COUNT>  (1) 
0

>  <PUBCHEM_ISOTOPIC_ATOM_COUNT>  (1) 
0

>  <PUBCHEM_COMPONENT_COUNT>  (1) 
1

>  <PUBCHEM_CACTVS_TAUTO_COUNT>  (1) 
1

>  <PUBCHEM_CONFORMER_ID>  (1) 
0000623300000003

>  <PUBCHEM_MMFF94_ENERGY>  (1) 
8.7523

>  <PUBCHEM_FEATURE_SELFOVERLAP>  (1) 
30.461

>  <PUBCHEM_SHAPE_FINGERPRINT>  (1) 
11062470 55 18113338613416649167
14123238 8 18334858329488008679
17834072 33 18335985363255765543
17834076 25 18334577940784660967
18186145 218 17095519621363076358
20279233 1 12247676093322808468
20645477 70 18337675217680012422
20719005 15 18413389826246510759
212847 35 18343585139981542160
22485316 2 17775280577954987047
23402539 116 18131063823736867789
42788 4 18260550018052524119
522135 26 17894351068782823150
5374978 207 17989483017803806146

>  <PUBCHEM_SHAPE_MULTIPOLES>  (1) 
220.51
11.78
0.98
0.82
11.6
0.07
-0.12
-0.25
0.28
-0.78
0.13
-0.63
0.13
-0.18

>  <PUBCHEM_SHAPE_SELFOVERLAP>  (1) 
395.193

>  <PUBCHEM_SHAPE_VOLUME>  (1) 
144.1

>  <PUBCHEM_COORDINATE_TYPE>  (1) 
2
5
10

$$$$
