25143
     RDKit          3D

 14 15  0  0  0  0  0  0  0  0999 V2000
    2.9344    1.0888    0.0790 O   0  0  0  0  0  0  0  0  0  0  0  0
    2.7345   -1.2971   -0.1952 O   0  0  0  0  0  0  0  0  0  0  0  0
   -1.8354    1.6511    0.3762 O   0  0  0  0  0  0  0  0  0  0  0  0
   -2.1933   -2.3832   -0.0857 O   0  0  0  0  0  0  0  0  0  0  0  0
   -3.1425   -0.4234    0.1928 O   0  0  0  0  0  0  0  0  0  0  0  0
   -2.1228   -1.1400    0.0583 N   0  0  0  0  0  0  0  0  0  0  0  0
    1.6385    0.6735    0.0930 C   0  0  0  0  0  0  0  0  0  0  0  0
    1.5243   -0.6890   -0.0637 C   0  0  0  0  0  0  0  0  0  0  0  0
   -0.8418   -0.5212    0.0699 C   0  0  0  0  0  0  0  0  0  0  0  0
   -0.7251    0.8707    0.2299 C   0  0  0  0  0  0  0  0  0  0  0  0
    0.2961   -1.3177   -0.0794 C   0  0  0  0  0  0  0  0  0  0  0  0
    0.5308    1.4824    0.2425 C   0  0  0  0  0  0  0  0  0  0  0  0
    3.6234   -0.1652   -0.1030 C   0  0  0  0  0  0  0  0  0  0  0  0
   -2.4211    2.1701   -0.8147 C   0  0  0  0  0  0  0  0  0  0  0  0
  1  7  1  0
  1 13  1  0
  2  8  1  0
  2 13  1  0
  3 10  1  0
  3 14  1  0
  4  6  1  0
  5  6  2  0
  6  9  1  0
  7  8  2  0
  7 12  1  0
  8 11  1  0
  9 10  1  0
  9 11  2  0
 10 12  2  0
M  CHG  2   4  -1   6   1
M  END
>  <PUBCHEM_COMPOUND_CID>  (1) 
25143

>  <PUBCHEM_CONFORMER_RMSD>  (1) 
0.6

>  <PUBCHEM_CONFORMER_DIVERSEORDER>  (1) 
1

>  <PUBCHEM_MMFF94_PARTIAL_CHARGES>  (1) 
16
1 -0.36
10 0.08
11 -0.15
12 -0.15
13 0.56
14 0.28
15 0.15
16 0.15
2 -0.36
3 -0.36
4 -0.52
5 -0.52
6 0.91
7 0.08
8 0.08
9 0.13

>  <PUBCHEM_EFFECTIVE_ROTOR_COUNT>  (1) 
2.6

>  <PUBCHEM_PHARMACOPHORE_FEATURES>  (1) 
8
1 1 acceptor
1 2 acceptor
1 3 acceptor
1 4 acceptor
1 4 anion
1 5 acceptor
5 1 2 7 8 13 rings
6 7 8 9 10 11 12 rings

>  <PUBCHEM_HEAVY_ATOM_COUNT>  (1) 
14

>  <PUBCHEM_ATOM_DEF_STEREO_COUNT>  (1) 
0

>  <PUBCHEM_ATOM_UDEF_STEREO_COUNT>  (1) 
0

>  <PUBCHEM_BOND_DEF_STEREO_COUNT>  (1) 
0

>  <PUBCHEM_BOND_UDEF_STEREO_COUNT>  (1) 
0

>  <PUBCHEM_ISOTOPIC_ATOM_COUNT>  (1) 
0

>  <PUBCHEM_COMPONENT_COUNT>  (1) 
1

>  <PUBCHEM_CACTVS_TAUTO_COUNT>  (1) 
1

>  <PUBCHEM_CONFORMER_ID>  (1) 
0000623700000001

>  <PUBCHEM_MMFF94_ENERGY>  (1) 
53.5918

>  <PUBCHEM_FEATURE_SELFOVERLAP>  (1) 
40.859

>  <PUBCHEM_SHAPE_FINGERPRINT>  (1) 
10608611 8 18411695487318192536
10967382 1 18411700975979999963
11132069 177 18342457088137692418
11206711 2 18410576209971027540
12138202 97 18263075531283297373
12730499 353 17467628196947120141
13380535 21 18340218375194813892
13380535 76 18197210356499427567
14325111 11 18410856529933980992
14614273 12 18334572413056249701
14911166 2 18124034520818949588
15775835 57 18042971969188095932
161256 15 18198056095694982768
16945 1 18338514247998702066
17844478 74 18260840327349746867
193761 8 18195247702484846354
20201158 50 18412825810740520255
20871998 184 18202286926344578567
21501502 16 18410576180122520920
2334 1 18411700984854758192
23402655 69 18125424333929973997
23463225 33 18409450258946511706
23552423 10 18333735723483549858
23559900 14 18199752441407457870
25 1 17759797049086305589
2748010 2 18341614793711734196
528886 8 18267579118025876232
6333449 129 18338796719508279525
69090 78 18339357462138602529
81228 2 18334855069397068521
8809292 202 18335144236212099194

>  <PUBCHEM_SHAPE_MULTIPOLES>  (1) 
253.79
4.91
2.17
0.65
1.67
0.13
0.04
-0.02
0.36
-1.57
0.18
-0.11
-0.13
0.33

>  <PUBCHEM_SHAPE_SELFOVERLAP>  (1) 
553.992

>  <PUBCHEM_SHAPE_VOLUME>  (1) 
138.9

>  <PUBCHEM_COORDINATE_TYPE>  (1) 
2
5
10

$$$$
