25141
     RDKit          3D

 12 13  0  0  0  0  0  0  0  0999 V2000
    1.1182   -0.6153   -0.4752 S   0  0  0  0  0  0  0  0  0  0  0  0
    1.2747   -2.0595   -0.3743 O   0  0  0  0  0  0  0  0  0  0  0  0
    1.5537    0.0769   -1.6803 O   0  0  0  0  0  0  0  0  0  0  0  0
    1.8644    0.1158    0.8768 N   0  0  0  0  0  0  0  0  0  0  0  0
    2.2751    1.5085    0.6627 C   0  0  0  0  0  0  0  0  0  0  0  0
    3.2917    0.4080    0.6980 C   0  0  0  0  0  0  0  0  0  0  0  0
   -0.5576   -0.2210   -0.1841 C   0  0  0  0  0  0  0  0  0  0  0  0
   -1.0949    0.9608   -0.6946 C   0  0  0  0  0  0  0  0  0  0  0  0
   -1.3591   -1.0876    0.5591 C   0  0  0  0  0  0  0  0  0  0  0  0
   -2.4335    1.2760   -0.4616 C   0  0  0  0  0  0  0  0  0  0  0  0
   -2.6978   -0.7723    0.7920 C   0  0  0  0  0  0  0  0  0  0  0  0
   -3.2349    0.4095    0.2816 C   0  0  0  0  0  0  0  0  0  0  0  0
  1  2  2  0
  1  3  2  0
  1  4  1  0
  1  7  1  0
  4  5  1  0
  4  6  1  0
  5  6  1  0
  7  8  2  0
  7  9  1  0
  8 10  1  0
  9 11  2  0
 10 12  2  0
 11 12  1  0
M  END
>  <PUBCHEM_COMPOUND_CID>  (1) 
25141

>  <PUBCHEM_CONFORMER_RMSD>  (1) 
0.6

>  <PUBCHEM_CONFORMER_DIVERSEORDER>  (1) 
1
2
4
3

>  <PUBCHEM_MMFF94_PARTIAL_CHARGES>  (1) 
21
1 1.45
10 -0.15
11 -0.15
12 -0.15
13 0.1
14 0.1
15 0.1
16 0.1
17 0.15
18 0.15
19 0.15
2 -0.65
20 0.15
21 0.15
3 -0.65
4 -0.6
5 0.03
6 0.03
7 -0.01
8 -0.15
9 -0.15

>  <PUBCHEM_EFFECTIVE_ROTOR_COUNT>  (1) 
2.6

>  <PUBCHEM_PHARMACOPHORE_FEATURES>  (1) 
3
1 2 acceptor
1 3 acceptor
6 7 8 9 10 11 12 rings

>  <PUBCHEM_HEAVY_ATOM_COUNT>  (1) 
12

>  <PUBCHEM_ATOM_DEF_STEREO_COUNT>  (1) 
0

>  <PUBCHEM_ATOM_UDEF_STEREO_COUNT>  (1) 
0

>  <PUBCHEM_BOND_DEF_STEREO_COUNT>  (1) 
0

>  <PUBCHEM_BOND_UDEF_STEREO_COUNT>  (1) 
0

>  <PUBCHEM_ISOTOPIC_ATOM_COUNT>  (1) 
0

>  <PUBCHEM_COMPONENT_COUNT>  (1) 
1

>  <PUBCHEM_CACTVS_TAUTO_COUNT>  (1) 
1

>  <PUBCHEM_CONFORMER_ID>  (1) 
0000623500000001

>  <PUBCHEM_MMFF94_ENERGY>  (1) 
22.6072

>  <PUBCHEM_FEATURE_SELFOVERLAP>  (1) 
15.241

>  <PUBCHEM_SHAPE_FINGERPRINT>  (1) 
10857977 72 18187373155236630161
11031198 65 16845581945177516344
12251169 10 18113611322222898424
12326174 3 17489031444368079734
12696612 119 18261674882197580380
12932764 1 18272663311553853183
13581323 91 18040149630203026633
13839132 238 18263637377287821973
15219456 202 18411981321417358530
15775835 57 17274530022939152056
16945 1 18335150816581505239
170605 34 17418093243208273960
19973954 147 18270400473410576977
20201158 50 18413103944396016729
20361792 2 13984652646886534330
20645464 45 18412826880477189585
20871998 184 18264773336345876915
21028194 46 17559951189905201240
230 275 18131631166766657976
23402539 116 18261938752715053663
23552423 10 17604725373641929027
2748010 2 18115878395298932463
3248919 1 17894356574893999455
369184 2 18260257560433078481
5084963 1 17970641692219282783
528886 8 15410896279522352006
7364860 26 18268991977482803354

>  <PUBCHEM_SHAPE_MULTIPOLES>  (1) 
234.08
4.99
1.52
1.1
0.01
0.23
0.21
-1.12
-1.32
0.09
0.04
0.38
-0.04
0.71

>  <PUBCHEM_SHAPE_SELFOVERLAP>  (1) 
475.217

>  <PUBCHEM_SHAPE_VOLUME>  (1) 
136.8

>  <PUBCHEM_COORDINATE_TYPE>  (1) 
2
5
10

$$$$
