25140
     RDKit          3D

 12 12  0  0  0  0  0  0  0  0999 V2000
    2.2147   -2.1029   -0.0020 Cl  0  0  0  0  0  0  0  0  0  0  0  0
   -2.7817    0.9956   -0.0002 O   0  0  0  0  0  0  0  0  0  0  0  0
    1.9925    2.2067   -0.0014 O   0  0  0  0  0  0  0  0  0  0  0  0
    3.1020    0.3125    0.0006 O   0  0  0  0  0  0  0  0  0  0  0  0
    2.0256    0.9541    0.0000 N   0  0  0  0  0  0  0  0  0  0  0  0
   -1.6182    0.2889    0.0004 C   0  0  0  0  0  0  0  0  0  0  0  0
    0.7973    0.2347    0.0013 C   0  0  0  0  0  0  0  0  0  0  0  0
   -0.3948    0.9591    0.0010 C   0  0  0  0  0  0  0  0  0  0  0  0
   -1.6496   -1.1055    0.0001 C   0  0  0  0  0  0  0  0  0  0  0  0
    0.7659   -1.1599    0.0010 C   0  0  0  0  0  0  0  0  0  0  0  0
   -0.4576   -1.8299    0.0004 C   0  0  0  0  0  0  0  0  0  0  0  0
   -3.9960    0.2467   -0.0011 C   0  0  0  0  0  0  0  0  0  0  0  0
  1 10  1  0
  2  6  1  0
  2 12  1  0
  3  5  1  0
  4  5  2  0
  5  7  1  0
  6  8  2  0
  6  9  1  0
  7  8  1  0
  7 10  2  0
  9 11  2  0
 10 11  1  0
M  CHG  2   3  -1   5   1
M  END
>  <PUBCHEM_COMPOUND_CID>  (1) 
25140

>  <PUBCHEM_CONFORMER_RMSD>  (1) 
0.6

>  <PUBCHEM_CONFORMER_DIVERSEORDER>  (1) 
1
2

>  <PUBCHEM_MMFF94_PARTIAL_CHARGES>  (1) 
15
1 -0.18
10 0.18
11 -0.15
12 0.28
13 0.15
14 0.15
15 0.15
2 -0.36
3 -0.52
4 -0.52
5 0.91
6 0.08
7 0.13
8 -0.15
9 -0.15

>  <PUBCHEM_EFFECTIVE_ROTOR_COUNT>  (1) 
2

>  <PUBCHEM_PHARMACOPHORE_FEATURES>  (1) 
5
1 2 acceptor
1 3 acceptor
1 3 anion
1 4 acceptor
6 6 7 8 9 10 11 rings

>  <PUBCHEM_HEAVY_ATOM_COUNT>  (1) 
12

>  <PUBCHEM_ATOM_DEF_STEREO_COUNT>  (1) 
0

>  <PUBCHEM_ATOM_UDEF_STEREO_COUNT>  (1) 
0

>  <PUBCHEM_BOND_DEF_STEREO_COUNT>  (1) 
0

>  <PUBCHEM_BOND_UDEF_STEREO_COUNT>  (1) 
0

>  <PUBCHEM_ISOTOPIC_ATOM_COUNT>  (1) 
0

>  <PUBCHEM_COMPONENT_COUNT>  (1) 
1

>  <PUBCHEM_CACTVS_TAUTO_COUNT>  (1) 
1

>  <PUBCHEM_CONFORMER_ID>  (1) 
0000623400000001

>  <PUBCHEM_MMFF94_ENERGY>  (1) 
49.5806

>  <PUBCHEM_FEATURE_SELFOVERLAP>  (1) 
25.453

>  <PUBCHEM_SHAPE_FINGERPRINT>  (1) 
11471102 20 18338230454130022325
12032990 46 18123474869084439367
13380535 21 18336840765631948803
13380535 76 18410290336995525051
13897977 150 18410290341474731925
14251717 144 18411411774800398007
14325111 11 18410573968478062081
14897335 6 18412819213828853255
15775835 57 18409171034121259548
161256 15 18262518065923874740
16945 1 18410575089016133446
18186145 218 18271249318146789173
193761 8 18338797939147454055
20645477 70 18339918200558523607
20871998 22 17910396087095434910
21040471 1 18338799021452299714
21501502 16 18411132575840154815
23235685 24 18410567405340837353
23402655 69 18341884157434772813
23463225 33 18408319964961149130
23552423 10 18336547213223013142
23559900 14 18271817873824173628
241688 4 17259910619730401899
2748010 2 18122348140390748796
5084963 1 18057880251828649011
528862 383 18335133155206758587
528886 8 18411132554248806194
53812653 166 18342735251699938112
63268167 104 18339646641874984435
7364860 26 18343018870139700730

>  <PUBCHEM_SHAPE_MULTIPOLES>  (1) 
226.24
4.83
2.09
0.59
2.96
0.14
0
-0.74
0
-1.46
0
0.02
0.05
0

>  <PUBCHEM_SHAPE_SELFOVERLAP>  (1) 
465.121

>  <PUBCHEM_SHAPE_VOLUME>  (1) 
132.1

>  <PUBCHEM_COORDINATE_TYPE>  (1) 
2
5
10

$$$$
