2515
     RDKit          3D

 20 20  0  0  1  0  0  0  0  0999 V2000
   -4.8041    0.2500   -1.8504 O   0  0  0  0  0  0  0  0  0  0  0  0
    4.9742    0.3404    0.0628 O   0  0  0  0  0  0  0  0  0  0  0  0
    3.8067   -1.1153   -1.2766 O   0  0  0  0  0  0  0  0  0  0  0  0
   -2.9430    0.7010    0.2269 N   0  0  0  0  0  0  0  0  0  0  0  0
   -1.5389   -1.1586    0.7336 N   0  0  0  0  0  0  0  0  0  0  0  0
   -0.2991   -1.6981    0.8807 N   0  0  0  0  0  0  0  0  0  0  0  0
    2.0746   -1.4833    0.8216 N   0  0  0  0  0  0  0  0  0  0  0  0
    3.1465   -0.6544    0.8971 N   0  0  0  0  0  0  0  0  0  0  0  0
   -4.1368   -0.0884    0.4293 C   0  0  0  0  0  0  0  0  0  0  0  0
   -4.5416   -0.7616   -0.8797 C   0  0  0  0  0  0  0  0  0  0  0  0
   -3.0911    2.1053   -0.1557 C   0  0  0  0  0  0  0  0  0  0  0  0
   -1.6663    0.1441    0.3772 C   0  0  0  0  0  0  0  0  0  0  0  0
   -5.7986   -1.6023   -0.7006 C   0  0  0  0  0  0  0  0  0  0  0  0
   -2.9183    2.9983    1.0578 C   0  0  0  0  0  0  0  0  0  0  0  0
   -0.5635    0.9550    0.1548 C   0  0  0  0  0  0  0  0  0  0  0  0
    0.6978    0.4061    0.3046 C   0  0  0  0  0  0  0  0  0  0  0  0
    0.7852   -0.9227    0.6681 C   0  0  0  0  0  0  0  0  0  0  0  0
    3.9591   -0.5339   -0.2066 C   0  0  0  0  0  0  0  0  0  0  0  0
    5.9028    0.5662   -1.0037 C   0  0  0  0  0  0  0  0  0  0  0  0
    6.9545    1.5521   -0.5413 C   0  0  0  0  0  0  0  0  0  0  0  0
  1 10  1  0
  2 18  1  0
  2 19  1  0
  3 18  2  0
  4  9  1  0
  4 11  1  0
  4 12  1  0
  5  6  2  0
  5 12  1  0
  6 17  1  0
  7  8  1  0
  7 17  1  0
  8 18  1  0
  9 10  1  0
 10 13  1  0
 11 14  1  0
 12 15  2  0
 15 16  1  0
 16 17  2  0
 19 20  1  0
M  END
>  <PUBCHEM_COMPOUND_CID>  (1) 
2515

>  <PUBCHEM_CONFORMER_RMSD>  (1) 
0.8

>  <PUBCHEM_CONFORMER_DIVERSEORDER>  (1) 
2
72
196
134
97
180
210
220
46
135
197
127
54
256
265
102
215
200
61
62
73
20
246
164
251
190
187
140
89
159
211
120
115
144
103
153
132
131
99
227
130
176
15
179
169
203
194
223
257
233
238
167
209
82
264
36
229
165
150
70
156
244
157
112
83
114
189
261
225
116
45
23
160
241
178
141
250
107
166
239
138
98
154
247
192
67
185
146
204
181
53
236
232
171
28
8
18
248
81
163
16
218
243
74
174
71
255
123
237
48
122
266
57
193
186
39
230
216
13
172
117
58
253
47
224
111
108
17
151
145
94
231
38
30
44
148
212
52
65
93
155
92
40
240
1
142
84
139
183
126
109
188
88
214
143
182
110
101
175
161
149
207
234
228
90
242
113
78
104
235
29
32
33
118
168
63
43
259
262
162
19
201
42
68
24
249
87
55
213
267
106
41
137
158
50
147
184
80
56
10
263
226
22
119
100
217
105
177
64
258
133
254
7
69
9
49
35
219
95
198
245
202
170
195
21
124
12
3
208
5
75
60
152
121
6
37
14
77
85
222
206
128
205
86
31
11
96
91
260
125
129
59
66
173
191
27
76
26
136
252
199
79
4
51
25
34
221

>  <PUBCHEM_MMFF94_PARTIAL_CHARGES>  (1) 
22
1 -0.68
10 0.28
11 0.37
12 0.41
15 -0.15
16 -0.15
17 0.41
18 0.78
19 0.28
2 -0.43
3 -0.57
32 0.15
33 0.4
34 0.15
35 0.4
36 0.37
4 -0.84
5 -0.31
6 -0.31
7 -0.52
8 -0.41
9 0.37

>  <PUBCHEM_EFFECTIVE_ROTOR_COUNT>  (1) 
9

>  <PUBCHEM_PHARMACOPHORE_FEATURES>  (1) 
8
1 1 acceptor
1 1 donor
1 3 acceptor
1 7 donor
1 8 donor
3 4 5 12 cation
3 6 7 17 cation
6 5 6 12 15 16 17 rings

>  <PUBCHEM_HEAVY_ATOM_COUNT>  (1) 
20

>  <PUBCHEM_ATOM_DEF_STEREO_COUNT>  (1) 
0

>  <PUBCHEM_ATOM_UDEF_STEREO_COUNT>  (1) 
1

>  <PUBCHEM_BOND_DEF_STEREO_COUNT>  (1) 
0

>  <PUBCHEM_BOND_UDEF_STEREO_COUNT>  (1) 
0

>  <PUBCHEM_ISOTOPIC_ATOM_COUNT>  (1) 
0

>  <PUBCHEM_COMPONENT_COUNT>  (1) 
1

>  <PUBCHEM_CACTVS_TAUTO_COUNT>  (1) 
5

>  <PUBCHEM_CONFORMER_ID>  (1) 
000009D300000002

>  <PUBCHEM_MMFF94_ENERGY>  (1) 
56.185

>  <PUBCHEM_FEATURE_SELFOVERLAP>  (1) 
42.203

>  <PUBCHEM_SHAPE_FINGERPRINT>  (1) 
10595046 47 18412545384221009574
10912923 1 18334854966143552992
11089746 13 12540691552589726215
12507557 5 16588313799442356885
13288520 33 17418094343342471919
13583140 156 14996293525742414849
14123256 10 18410011065489693358
14251718 22 18343865532652673078
14251732 14 17917991702229419294
14251758 9 8142090891893758264
14528608 73 18335420162581205932
14767858 380 18336542819360563439
15348495 7 11747228986768939228
15537594 2 12391519654967021644
17780758 139 8070026657804618934
1813 80 13686302400283520840
18769570 83 14056991698853296775
19427546 20 18410292489539180925
20300324 65 18413107234583649457
20871999 31 18273495658608563779
21150785 3 18335136548378738967
21267235 1 18270399512271735047
21315763 76 17603868935820152612
21403212 168 9367078757210219551
2297311 6 17703792531050951841
23402539 116 18413105044234685477
23503953 91 8934991586119701435
23557571 272 17775286011347254697
23559900 14 18268143339242540840
26918003 58 12179846113093680844
2767999 5 17676487268024371068
2838139 119 15285631119173364703
34797466 226 17560528399667347756
351380 3 12823297888400529196
4325135 7 18341613741460564788
465052 167 12895072955168320076
5104073 3 17968104062638050200
5207 217 18114180877688425218
633830 44 18192435164699743770

>  <PUBCHEM_SHAPE_MULTIPOLES>  (1) 
369.08
14.87
2.14
1.16
16.63
1.4
-0.27
1.57
-6.68
-1.88
0.44
-0.4
-0.11
-1.17

>  <PUBCHEM_SHAPE_SELFOVERLAP>  (1) 
734.558

>  <PUBCHEM_SHAPE_VOLUME>  (1) 
218.4

>  <PUBCHEM_COORDINATE_TYPE>  (1) 
2
5
10

$$$$
