25159
     RDKit          3D

 22 24  0  0  0  0  0  0  0  0999 V2000
   -4.9393   -1.0132   -0.5341 O   0  0  0  0  0  0  0  0  0  0  0  0
    4.8909   -1.1287    0.5040 O   0  0  0  0  0  0  0  0  0  0  0  0
   -6.7051    1.0253   -0.0178 N   0  0  0  0  0  0  0  0  0  0  0  0
    6.6536    0.9767    0.4813 N   0  0  0  0  0  0  0  0  0  0  0  0
   -3.5276   -0.1934    1.1162 N   0  0  0  0  0  0  0  0  0  0  0  0
    3.4790    0.0525   -0.9100 N   0  0  0  0  0  0  0  0  0  0  0  0
   -1.4826   -1.2410    0.2480 C   0  0  0  0  0  0  0  0  0  0  0  0
    1.4352   -1.1722   -0.3135 C   0  0  0  0  0  0  0  0  0  0  0  0
   -0.6315   -0.0076    0.5763 C   0  0  0  0  0  0  0  0  0  0  0  0
   -0.6295   -2.5154    0.2789 C   0  0  0  0  0  0  0  0  0  0  0  0
    0.5823    0.1024   -0.3449 C   0  0  0  0  0  0  0  0  0  0  0  0
    0.5841   -2.4051   -0.6424 C   0  0  0  0  0  0  0  0  0  0  0  0
   -2.6598   -1.3568    1.2142 C   0  0  0  0  0  0  0  0  0  0  0  0
    2.6133   -1.0568   -1.2788 C   0  0  0  0  0  0  0  0  0  0  0  0
   -7.4268    2.2883    0.0537 C   0  0  0  0  0  0  0  0  0  0  0  0
   -7.0176    1.7053   -1.2674 C   0  0  0  0  0  0  0  0  0  0  0  0
    7.3731    2.2224    0.7084 C   0  0  0  0  0  0  0  0  0  0  0  0
    7.5088    1.4763   -0.5867 C   0  0  0  0  0  0  0  0  0  0  0  0
   -5.3043    1.2119    0.3326 C   0  0  0  0  0  0  0  0  0  0  0  0
    5.2528    1.2380    0.1828 C   0  0  0  0  0  0  0  0  0  0  0  0
   -4.5978   -0.1252    0.2440 C   0  0  0  0  0  0  0  0  0  0  0  0
    4.5485   -0.0838   -0.0449 C   0  0  0  0  0  0  0  0  0  0  0  0
  1 21  2  0
  2 22  2  0
  3 15  1  0
  3 16  1  0
  3 19  1  0
  4 17  1  0
  4 18  1  0
  4 20  1  0
  5 13  1  0
  5 21  1  0
  6 14  1  0
  6 22  1  0
  7  9  1  0
  7 10  1  0
  7 13  1  0
  8 11  1  0
  8 12  1  0
  8 14  1  0
  9 11  1  0
 10 12  1  0
 15 16  1  0
 17 18  1  0
 19 21  1  0
 20 22  1  0
M  END
>  <PUBCHEM_COMPOUND_CID>  (1) 
25159

>  <PUBCHEM_CONFORMER_RMSD>  (1) 
1

>  <PUBCHEM_CONFORMER_DIVERSEORDER>  (1) 
1
56
81
57
42
10
35
77
43
2
73
48
80
67
15
70
25
34
14
82
83
71
28
63
13
55
32
46
20
37
9
22
18
27
75
52
50
68
16
86
12
87
85
62
17
88
74
4
58
89
79
47
51
33
84
65
69
30
11
61
19
59
72
53
44
7
29
64
41
31
45
54
39
6
76
78
8
40
60
49
23
90
26
3
21
5
38
24
66
36

>  <PUBCHEM_MMFF94_PARTIAL_CHARGES>  (1) 
26
1 -0.57
13 0.3
14 0.3
15 -0.04
16 -0.04
17 -0.04
18 -0.04
19 0.33
2 -0.57
20 0.33
21 0.57
22 0.57
3 -0.59
37 0.1
38 0.1
39 0.1
4 -0.59
40 0.1
41 0.1
42 0.1
43 0.1
44 0.1
45 0.37
46 0.37
5 -0.73
6 -0.73

>  <PUBCHEM_EFFECTIVE_ROTOR_COUNT>  (1) 
12.4

>  <PUBCHEM_PHARMACOPHORE_FEATURES>  (1) 
7
1 1 acceptor
1 2 acceptor
1 3 cation
1 4 cation
1 5 donor
1 6 donor
6 7 8 9 10 11 12 rings

>  <PUBCHEM_HEAVY_ATOM_COUNT>  (1) 
22

>  <PUBCHEM_ATOM_DEF_STEREO_COUNT>  (1) 
0

>  <PUBCHEM_ATOM_UDEF_STEREO_COUNT>  (1) 
0

>  <PUBCHEM_BOND_DEF_STEREO_COUNT>  (1) 
0

>  <PUBCHEM_BOND_UDEF_STEREO_COUNT>  (1) 
0

>  <PUBCHEM_ISOTOPIC_ATOM_COUNT>  (1) 
0

>  <PUBCHEM_COMPONENT_COUNT>  (1) 
1

>  <PUBCHEM_CACTVS_TAUTO_COUNT>  (1) 
3

>  <PUBCHEM_CONFORMER_ID>  (1) 
0000624700000001

>  <PUBCHEM_MMFF94_ENERGY>  (1) 
38.6254

>  <PUBCHEM_FEATURE_SELFOVERLAP>  (1) 
35.52

>  <PUBCHEM_SHAPE_FINGERPRINT>  (1) 
10006869 2 18338790123002723050
10835480 77 18412826876250891449
117890 112 18407762542831065306
12403259 118 17895768416237929727
125118 31 18261114110515485644
12838862 33 17845925313122252312
13668630 136 10592044652376628640
13673619 4 9367345929234080675
13685833 64 7925911474208398436
14123256 34 10447923980102179125
14251757 52 18408318887314943232
14251764 18 17458628951105737979
14341114 176 8430016665276661831
14347424 109 18187076218852707026
14420673 8 8934995976172461305
14428016 167 8574421003325679265
14556957 393 15985116231634911353
14729087 3 18334293167363036541
14931854 50 17560808718875778576
15238133 3 17895485825233886484
17134984 74 11167951256180828724
1768 4 18341060653512080929
18335252 114 17704073993633643832
18643901 69 11815900059508369265
195137 95 18261667099827752684
20157964 124 18272937085659756158
20554085 129 18130774660357682898
20567600 254 18202285823044183986
20621476 21 9943800101869211381
20715895 44 18409733958399965468
21033648 29 18113629975366409935
21130971 5 11959436960461755469
21130990 3 10087633832502167085
21150785 3 15913608371714279669
21298829 104 18341900658325071033
21365058 113 12247669483601002651
22288116 15 17417801890471506127
22765269 38 18412546500654037167
2297311 6 10807939254049101595
23035841 295 10087644801214689637
246663 6 9007059075730630776
312425 54 16950000348686415322
465052 167 10881403132085761002
5104073 3 15647633278991905832
5283384 27 18411697690335624652
54039377 194 8214150668534884088
543368 44 18343022147975305113
5470011 282 13110962041675848536
59682541 52 17060071307166348646
6327066 14 18342738537508279014
636775 8 8862670127257142280
9995097 26 11023821808174713616

>  <PUBCHEM_SHAPE_MULTIPOLES>  (1) 
421.09
22.74
2.52
1.03
2.38
0.16
0.08
-23.47
0.71
-0.45
0.05
-0.26
0.04
1.39

>  <PUBCHEM_SHAPE_SELFOVERLAP>  (1) 
840.996

>  <PUBCHEM_SHAPE_VOLUME>  (1) 
248.4

>  <PUBCHEM_COORDINATE_TYPE>  (1) 
2
5
10

$$$$
