25151
     RDKit          3D

 22 24  0  0  0  0  0  0  0  0999 V2000
   -5.4000    2.7657    0.2304 O   0  0  0  0  0  0  0  0  0  0  0  0
    5.7837    0.5568   -0.1553 N   0  0  0  0  0  0  0  0  0  0  0  0
   -4.5026    1.8712    0.0981 N   0  0  0  0  0  0  0  0  0  0  0  0
   -0.1938   -0.7842   -0.5193 N   0  0  0  0  0  0  0  0  0  0  0  0
    0.3781   -0.6958    0.5907 N   0  0  0  0  0  0  0  0  0  0  0  0
   -2.5234   -0.0980   -0.1898 C   0  0  0  0  0  0  0  0  0  0  0  0
   -3.8712   -0.4707   -0.0036 C   0  0  0  0  0  0  0  0  0  0  0  0
   -1.5485   -1.0990   -0.3317 C   0  0  0  0  0  0  0  0  0  0  0  0
    4.4218    0.2416    0.0325 C   0  0  0  0  0  0  0  0  0  0  0  0
   -2.1910    1.2611   -0.2285 C   0  0  0  0  0  0  0  0  0  0  0  0
   -4.2140   -1.8311    0.0365 C   0  0  0  0  0  0  0  0  0  0  0  0
   -4.8382    0.5310    0.1372 C   0  0  0  0  0  0  0  0  0  0  0  0
   -1.9032   -2.4480   -0.2898 C   0  0  0  0  0  0  0  0  0  0  0  0
   -3.2338   -2.8134   -0.1060 C   0  0  0  0  0  0  0  0  0  0  0  0
    3.4816    1.2629    0.1691 C   0  0  0  0  0  0  0  0  0  0  0  0
    4.0150   -1.0919    0.0816 C   0  0  0  0  0  0  0  0  0  0  0  0
    1.7349   -0.3807    0.4032 C   0  0  0  0  0  0  0  0  0  0  0  0
   -3.1828    2.2264   -0.0844 C   0  0  0  0  0  0  0  0  0  0  0  0
    2.1348    0.9511    0.3551 C   0  0  0  0  0  0  0  0  0  0  0  0
    2.6681   -1.4037    0.2675 C   0  0  0  0  0  0  0  0  0  0  0  0
    6.1673    1.7793   -0.8327 C   0  0  0  0  0  0  0  0  0  0  0  0
    6.8173   -0.3308    0.3391 C   0  0  0  0  0  0  0  0  0  0  0  0
  1  3  1  0
  2  9  1  0
  2 21  1  0
  2 22  1  0
  3 12  2  0
  3 18  1  0
  4  5  2  0
  4  8  1  0
  5 17  1  0
  6  7  2  0
  6  8  1  0
  6 10  1  0
  7 11  1  0
  7 12  1  0
  8 13  2  0
  9 15  2  0
  9 16  1  0
 10 18  2  0
 11 14  2  0
 13 14  1  0
 15 19  1  0
 16 20  2  0
 17 19  2  0
 17 20  1  0
M  CHG  2   1  -1   3   1
M  END
>  <PUBCHEM_COMPOUND_CID>  (1) 
25151

>  <PUBCHEM_CONFORMER_RMSD>  (1) 
0.6

>  <PUBCHEM_CONFORMER_DIVERSEORDER>  (1) 
1
2
3
6
5
4

>  <PUBCHEM_MMFF94_PARTIAL_CHARGES>  (1) 
30
1 -0.75
10 -0.15
11 -0.15
12 -0.06
13 -0.15
14 -0.15
15 -0.15
16 -0.15
17 0.18
18 -0.06
19 -0.15
2 -0.84
20 -0.15
21 0.37
22 0.37
23 0.15
24 0.15
25 0.15
26 0.15
27 0.15
28 0.15
29 0.15
3 0.57
30 0.15
31 0.15
32 0.15
4 -0.18
5 -0.18
8 0.18
9 0.1

>  <PUBCHEM_EFFECTIVE_ROTOR_COUNT>  (1) 
3

>  <PUBCHEM_PHARMACOPHORE_FEATURES>  (1) 
5
1 1 anion
1 2 cation
6 3 6 7 10 12 18 rings
6 6 7 8 11 13 14 rings
6 9 15 16 17 19 20 rings

>  <PUBCHEM_HEAVY_ATOM_COUNT>  (1) 
22

>  <PUBCHEM_ATOM_DEF_STEREO_COUNT>  (1) 
0

>  <PUBCHEM_ATOM_UDEF_STEREO_COUNT>  (1) 
0

>  <PUBCHEM_BOND_DEF_STEREO_COUNT>  (1) 
0

>  <PUBCHEM_BOND_UDEF_STEREO_COUNT>  (1) 
0

>  <PUBCHEM_ISOTOPIC_ATOM_COUNT>  (1) 
0

>  <PUBCHEM_COMPONENT_COUNT>  (1) 
1

>  <PUBCHEM_CACTVS_TAUTO_COUNT>  (1) 
1

>  <PUBCHEM_CONFORMER_ID>  (1) 
0000623F00000001

>  <PUBCHEM_MMFF94_ENERGY>  (1) 
79.9949

>  <PUBCHEM_FEATURE_SELFOVERLAP>  (1) 
25.399

>  <PUBCHEM_SHAPE_FINGERPRINT>  (1) 
10411042 1 17979071914844157831
10595046 47 18335137656976166798
10616163 171 18411981398885512623
10730089 173 18411420609490207400
10912923 1 17967523606419100226
11315181 36 18113898303247442686
12107183 9 17975687299603194114
12236239 1 18187082875698262510
12390115 104 18200606804432814513
12403259 415 17988920128354570864
12616971 3 16805610278308141668
13073987 5 18335416915870948914
13167372 99 18407759236270775776
14341114 176 18409736135884840638
15183329 4 18410576180644753910
15196674 1 18410855443016870928
15250474 111 18335404790830937762
15778101 99 18411421691531711705
17844677 252 18339366378464289880
20281389 69 18410291424002000800
20645477 56 18411699872526813299
21033648 29 17631997733134721402
21065198 48 18333724710955710298
21236236 1 18413669123922780703
21267235 1 18337113492077022491
21421861 104 17823969044909516362
2297311 6 18269844257944789759
23081809 10 18040433326537730622
23402539 116 18409162246945330062
23402655 69 18410291415459285434
23522609 53 17895213090542601436
23536379 177 18408602578837403378
23557571 272 18272094932408192422
23559900 14 18270954738882084224
245318 6 16736940447427002524
3004659 81 18410577254761403638
34797466 226 17774172330791142036
350125 39 18411420652360473305
3545911 37 18413107260015700162
4073 2 18113904896750522066
4214541 1 18411698794279057898
445580 37 18338528512176118044
474 4 17603870056700829020
5104073 3 18334850615442149610
531348 171 18201718457348158734
542803 24 17967812773639942154
559249 180 18412540994854422242
6327066 14 18263638464737857837
77779 3 18410572903067943698
7808743 9 18410008802121348473

>  <PUBCHEM_SHAPE_MULTIPOLES>  (1) 
426.96
15.19
2.7
0.7
16.93
0.16
-0.02
5.36
-0.33
-3.99
-0.12
0.26
0.02
-0.77

>  <PUBCHEM_SHAPE_SELFOVERLAP>  (1) 
932.549

>  <PUBCHEM_SHAPE_VOLUME>  (1) 
233.3

>  <PUBCHEM_COORDINATE_TYPE>  (1) 
2
5
10

$$$$
