25163
     RDKit          3D

 12 11  0  0  0  0  0  0  0  0999 V2000
   -1.4165   -0.0247    0.3126 O   0  0  0  0  0  0  0  0  0  0  0  0
   -2.9752   -0.0150   -1.3925 O   0  0  0  0  0  0  0  0  0  0  0  0
    1.0255    0.0130    0.0635 C   0  0  0  0  0  0  0  0  0  0  0  0
    1.0885    1.2810    0.9756 C   0  0  0  0  0  0  0  0  0  0  0  0
    2.1477    0.0179   -1.0175 C   0  0  0  0  0  0  0  0  0  0  0  0
    1.1879   -1.2516    0.9686 C   0  0  0  0  0  0  0  0  0  0  0  0
   -0.3594    0.0069   -0.6395 C   0  0  0  0  0  0  0  0  0  0  0  0
    0.9365    2.6234    0.2684 C   0  0  0  0  0  0  0  0  0  0  0  0
    3.5802    0.0465   -0.4943 C   0  0  0  0  0  0  0  0  0  0  0  0
    1.1523   -2.5981    0.2525 C   0  0  0  0  0  0  0  0  0  0  0  0
   -2.6817   -0.0326   -0.2048 C   0  0  0  0  0  0  0  0  0  0  0  0
   -3.6858   -0.0669    0.9073 C   0  0  0  0  0  0  0  0  0  0  0  0
  1  7  1  0
  1 11  1  0
  2 11  2  0
  3  4  1  0
  3  5  1  0
  3  6  1  0
  3  7  1  0
  4  8  1  0
  5  9  1  0
  6 10  1  0
 11 12  1  0
M  END
>  <PUBCHEM_COMPOUND_CID>  (1) 
25163

>  <PUBCHEM_CONFORMER_RMSD>  (1) 
0.6

>  <PUBCHEM_CONFORMER_DIVERSEORDER>  (1) 
1
22
25
21
7
8
30
28
36
33
4
27
20
2
16
35
12
13
26
32
9
18
31
19
17
23
24
14
6
29
5
3
10
34
15
11

>  <PUBCHEM_MMFF94_PARTIAL_CHARGES>  (1) 
5
1 -0.43
11 0.66
12 0.06
2 -0.57
7 0.28

>  <PUBCHEM_EFFECTIVE_ROTOR_COUNT>  (1) 
6

>  <PUBCHEM_PHARMACOPHORE_FEATURES>  (1) 
5
1 10 hydrophobe
1 2 acceptor
1 8 hydrophobe
1 9 hydrophobe
4 3 4 5 6 hydrophobe

>  <PUBCHEM_HEAVY_ATOM_COUNT>  (1) 
12

>  <PUBCHEM_ATOM_DEF_STEREO_COUNT>  (1) 
0

>  <PUBCHEM_ATOM_UDEF_STEREO_COUNT>  (1) 
0

>  <PUBCHEM_BOND_DEF_STEREO_COUNT>  (1) 
0

>  <PUBCHEM_BOND_UDEF_STEREO_COUNT>  (1) 
0

>  <PUBCHEM_ISOTOPIC_ATOM_COUNT>  (1) 
0

>  <PUBCHEM_COMPONENT_COUNT>  (1) 
1

>  <PUBCHEM_CACTVS_TAUTO_COUNT>  (1) 
1

>  <PUBCHEM_CONFORMER_ID>  (1) 
0000624B00000001

>  <PUBCHEM_MMFF94_ENERGY>  (1) 
21.4064

>  <PUBCHEM_FEATURE_SELFOVERLAP>  (1) 
25.434

>  <PUBCHEM_SHAPE_FINGERPRINT>  (1) 
107287 299 18113341916157056443
12326174 3 18201145616121191532
12423570 1 12630318238817276056
12932764 1 18410847772711669671
13380536 305 18338803432616042216
16945 1 18410848867353362464
18186145 218 18336837476003381604
187816 3 18338813264355040476
20645477 70 18115580440649251695
21524375 3 17623269981263478896
23380061 451 18336837398530355275
23402539 116 18273216374771906694
23419403 2 16383601085391032408
23552423 10 18200304532992152941
23598291 2 17988641943391581941
2748010 2 18047753985722494025
3248919 1 17458612394544719877
3250762 1 17691134051322578920
4369600 1 18341895186435859482
5084963 1 16487254382977324119
5337951 7 18270411623372296672
68250623 7 17835533626225926026
8030462 33 18337944611187441349
81228 2 16894249310456625179

>  <PUBCHEM_SHAPE_MULTIPOLES>  (1) 
235.22
5.14
2.08
1.13
3.8
0.06
0.1
-0.18
0.65
-1.42
-0.59
0.23
0
-0.02

>  <PUBCHEM_SHAPE_SELFOVERLAP>  (1) 
434.96

>  <PUBCHEM_SHAPE_VOLUME>  (1) 
148.9

>  <PUBCHEM_COORDINATE_TYPE>  (1) 
2
5
10

$$$$
