25166
     RDKit          3D

 27 30  0  0  1  0  0  0  0  0999 V2000
    2.1098   -3.6243   -1.1829 O   0  0  0  0  0  0  0  0  0  0  0  0
   -5.2948    0.2800    0.4428 N   0  0  0  0  0  0  0  0  0  0  0  0
   -1.6144   -0.2916    0.1900 N   0  0  0  0  0  0  0  0  0  0  0  0
    2.1656   -2.3431   -0.5333 C   0  0  0  0  0  0  0  0  0  0  0  0
    0.8535   -0.1902   -0.1108 C   0  0  0  0  0  0  0  0  0  0  0  0
    0.8769   -1.5835   -0.7819 C   0  0  0  0  0  0  0  0  0  0  0  0
    2.4293   -2.6246    0.9357 C   0  0  0  0  0  0  0  0  0  0  0  0
   -0.5070    0.5177   -0.2978 C   0  0  0  0  0  0  0  0  0  0  0  0
    3.3002   -3.8532    0.8544 C   0  0  0  0  0  0  0  0  0  0  0  0
    1.9740    0.7132   -0.6081 C   0  0  0  0  0  0  0  0  0  0  0  0
    2.6723   -4.6059   -0.2994 C   0  0  0  0  0  0  0  0  0  0  0  0
   -5.7390    0.3129   -0.9578 C   0  0  0  0  0  0  0  0  0  0  0  0
   -6.3155   -0.3253    1.3097 C   0  0  0  0  0  0  0  0  0  0  0  0
   -4.0289   -0.4431    0.5610 C   0  0  0  0  0  0  0  0  0  0  0  0
   -7.0370    1.1080   -1.1062 C   0  0  0  0  0  0  0  0  0  0  0  0
   -7.6325    0.4491    1.2354 C   0  0  0  0  0  0  0  0  0  0  0  0
   -8.1323    0.5562   -0.2008 C   0  0  0  0  0  0  0  0  0  0  0  0
   -2.8790    0.4230    0.0555 C   0  0  0  0  0  0  0  0  0  0  0  0
    2.9698    1.2059    0.2510 C   0  0  0  0  0  0  0  0  0  0  0  0
    1.9783    1.0399   -1.9645 C   0  0  0  0  0  0  0  0  0  0  0  0
    3.9845    2.0416   -0.2735 C   0  0  0  0  0  0  0  0  0  0  0  0
    2.9763    1.8614   -2.4802 C   0  0  0  0  0  0  0  0  0  0  0  0
    2.9812    0.8876    1.6188 C   0  0  0  0  0  0  0  0  0  0  0  0
    3.9736    2.3597   -1.6414 C   0  0  0  0  0  0  0  0  0  0  0  0
    4.9806    2.5343    0.5853 C   0  0  0  0  0  0  0  0  0  0  0  0
    3.9784    1.3862    2.4574 C   0  0  0  0  0  0  0  0  0  0  0  0
    4.9761    2.2081    1.9417 C   0  0  0  0  0  0  0  0  0  0  0  0
  1  4  1  0
  1 11  1  0
  2 12  1  0
  2 13  1  0
  2 14  1  0
  3  8  1  0
  3 18  1  0
  4  6  1  0
  4  7  1  0
  5  6  1  0
  5  8  1  0
  5 10  1  0
  7  9  1  0
  9 11  1  0
 10 19  1  0
 10 20  2  0
 12 15  1  0
 13 16  1  0
 14 18  1  0
 15 17  1  0
 16 17  1  0
 19 21  2  0
 19 23  1  0
 20 22  1  0
 21 24  1  0
 21 25  1  0
 22 24  2  0
 23 26  2  0
 25 27  2  0
 26 27  1  0
M  END
>  <PUBCHEM_COMPOUND_CID>  (1) 
25166

>  <PUBCHEM_CONFORMER_RMSD>  (1) 
1

>  <PUBCHEM_CONFORMER_DIVERSEORDER>  (1) 
1
109
139
35
55
121
65
60
26
80
20
79
100
113
198
127
54
44
92
61
106
43
178
85
111
81
19
181
74
190
128
66
147
192
16
183
99
47
191
57
28
155
161
39
180
156
51
112
130
86
45
171
104
204
172
75
68
195
166
170
84
129
10
182
211
95
159
33
164
132
157
117
126
7
146
173
189
6
160
3
31
41
162
98
149
30
208
11
203
163
199
8
40
144
69
153
72
209
56
12
119
59
175
62
78
52
77
5
2
21
120
168
135
71
140
138
142
148
137
200
97
50
22
165
9
206
91
145
176
125
23
205
179
177
96
24
88
133
89
63
167
32
37
46
122
169
131
36
187
154
115
152
143
67
14
48
42
107
15
114
34
38
158
76
27
94
194
123
25
90
150
136
210
64
188
116
58
93
141
13
134
196
87
184
151
108
83
186
212
202
49
110
174
207
101
103
185
105
82
201
17
118
70
4
73
18
29
124
102
193
53
197
213

>  <PUBCHEM_MMFF94_PARTIAL_CHARGES>  (1) 
27
1 -0.56
10 -0.14
11 0.28
12 0.27
13 0.27
14 0.27
18 0.27
2 -0.81
20 -0.15
22 -0.15
23 -0.15
24 -0.15
25 -0.15
26 -0.15
27 -0.15
3 -0.9
4 0.28
5 0.14
54 0.36
55 0.15
56 0.15
57 0.15
58 0.15
59 0.15
60 0.15
61 0.15
8 0.27

>  <PUBCHEM_EFFECTIVE_ROTOR_COUNT>  (1) 
10.2

>  <PUBCHEM_PHARMACOPHORE_FEATURES>  (1) 
8
1 1 acceptor
1 2 cation
1 3 cation
1 3 donor
5 1 4 7 9 11 rings
6 10 19 20 21 22 24 rings
6 19 21 23 25 26 27 rings
6 2 12 13 15 16 17 rings

>  <PUBCHEM_HEAVY_ATOM_COUNT>  (1) 
27

>  <PUBCHEM_ATOM_DEF_STEREO_COUNT>  (1) 
0

>  <PUBCHEM_ATOM_UDEF_STEREO_COUNT>  (1) 
2

>  <PUBCHEM_BOND_DEF_STEREO_COUNT>  (1) 
0

>  <PUBCHEM_BOND_UDEF_STEREO_COUNT>  (1) 
0

>  <PUBCHEM_ISOTOPIC_ATOM_COUNT>  (1) 
0

>  <PUBCHEM_COMPONENT_COUNT>  (1) 
1

>  <PUBCHEM_CACTVS_TAUTO_COUNT>  (1) 
1

>  <PUBCHEM_CONFORMER_ID>  (1) 
0000624E00000001

>  <PUBCHEM_MMFF94_ENERGY>  (1) 
54.6908

>  <PUBCHEM_FEATURE_SELFOVERLAP>  (1) 
40.623

>  <PUBCHEM_SHAPE_FINGERPRINT>  (1) 
10554248 39 18058724681929533077
11297750 10 17899125028101466766
11719270 70 18335139821074915219
12717326 69 17313668260279738075
13073987 5 18411990131524300729
131258 43 17485102804024675254
13533116 47 18341897342778675507
13540713 4 17971178249583197293
13955234 65 18412545379567671258
14118638 360 18343309141900848577
14461889 52 18261681484332448243
14565420 104 18129934693329018160
14863182 85 18408323306904491948
15064986 96 18191562209103263674
15183329 4 14333140684579250065
16993427 108 17413612566439263326
1979834 28 18260830414365125109
20554085 129 18271526498288202624
20771845 65 17915462684153157530
21033648 29 18126274475424731664
21049683 118 17630301242775720266
21049683 271 18263369080241843222
21703447 108 18264482889108203427
21859007 373 17241872208912960013
22149856 69 18265353806214184651
23559900 14 18114472158397479387
239999 70 17894915109373309211
244849 19 17606096421665810863
249999 5 18411981343240718474
27425 322 17844519127369749892
3178227 256 18410848842565143826
32027 91 18116712911940771811
3411729 13 18408318895598896722
5104073 3 18268718221400808593
5385378 56 18412261735790263818
57527585 103 16755478832252317050
9962374 69 18341885243877629303

>  <PUBCHEM_SHAPE_MULTIPOLES>  (1) 
539.82
18.12
4.16
1.96
53.7
6.66
0.07
-9.38
4.29
-9.7
-0.48
-2.24
-1.19
0.82

>  <PUBCHEM_SHAPE_SELFOVERLAP>  (1) 
1135.296

>  <PUBCHEM_SHAPE_VOLUME>  (1) 
305.5

>  <PUBCHEM_COORDINATE_TYPE>  (1) 
2
5
10

$$$$
