25176
     RDKit          3D

 24 26  0  0  1  0  0  0  0  0999 V2000
   -4.4549    0.0540    0.4935 N   0  0  0  0  0  0  0  0  0  0  0  0
   -0.7856   -0.6092    0.6758 N   0  0  0  0  0  0  0  0  0  0  0  0
   -5.2709    1.2486    0.7519 C   0  0  0  0  0  0  0  0  0  0  0  0
   -4.7014   -0.4763   -0.8548 C   0  0  0  0  0  0  0  0  0  0  0  0
   -6.7622    0.9379    0.6165 C   0  0  0  0  0  0  0  0  0  0  0  0
   -6.1742   -0.8435   -1.0427 C   0  0  0  0  0  0  0  0  0  0  0  0
   -7.0834    0.3447   -0.7507 C   0  0  0  0  0  0  0  0  0  0  0  0
   -3.0350    0.3557    0.6730 C   0  0  0  0  0  0  0  0  0  0  0  0
   -2.2032   -0.9136    0.5144 C   0  0  0  0  0  0  0  0  0  0  0  0
    1.5291   -1.5156    0.7048 C   0  0  0  0  0  0  0  0  0  0  0  0
    0.0238   -1.8088    0.5169 C   0  0  0  0  0  0  0  0  0  0  0  0
    2.0458   -0.5000   -0.3067 C   0  0  0  0  0  0  0  0  0  0  0  0
    2.3214   -2.8439    0.6474 C   0  0  0  0  0  0  0  0  0  0  0  0
    2.5726    0.7198    0.1048 C   0  0  0  0  0  0  0  0  0  0  0  0
    1.9592   -0.8619   -1.6392 C   0  0  0  0  0  0  0  0  0  0  0  0
    3.0360    1.6197   -0.8842 C   0  0  0  0  0  0  0  0  0  0  0  0
    3.7891   -2.6607    0.9179 C   0  0  0  0  0  0  0  0  0  0  0  0
    2.6585    1.0833    1.4586 C   0  0  0  0  0  0  0  0  0  0  0  0
    2.4153    0.0230   -2.6117 C   0  0  0  0  0  0  0  0  0  0  0  0
    2.9504    1.2562   -2.2381 C   0  0  0  0  0  0  0  0  0  0  0  0
    3.5716    2.8568   -0.4903 C   0  0  0  0  0  0  0  0  0  0  0  0
    3.1934    2.3166    1.8318 C   0  0  0  0  0  0  0  0  0  0  0  0
    3.6490    3.2017    0.8592 C   0  0  0  0  0  0  0  0  0  0  0  0
    4.7556   -2.9845    0.0517 C   0  0  0  0  0  0  0  0  0  0  0  0
  1  3  1  0
  1  4  1  0
  1  8  1  0
  2  9  1  0
  2 11  1  0
  3  5  1  0
  4  6  1  0
  5  7  1  0
  6  7  1  0
  8  9  1  0
 10 11  1  0
 10 12  1  0
 10 13  1  0
 12 14  1  0
 12 15  2  0
 13 17  1  0
 14 16  2  0
 14 18  1  0
 15 19  1  0
 16 20  1  0
 16 21  1  0
 17 24  2  0
 18 22  2  0
 19 20  2  0
 21 23  2  0
 22 23  1  0
M  END
>  <PUBCHEM_COMPOUND_CID>  (1) 
25176

>  <PUBCHEM_CONFORMER_RMSD>  (1) 
1

>  <PUBCHEM_CONFORMER_DIVERSEORDER>  (1) 
1
97
64
26
11
107
18
54
20
31
28
68
8
49
102
77
72
30
87
40
10
79
85
76
84
62
61
22
17
73
100
50
23
71
2
7
19
25
5
45
46
110
92
105
34
108
39
51
58
89
101
104
41
94
99
21
63
14
56
3
59
91
67
6
75
12
52
24
98
95
74
9
35
42
70
37
44
60
48
103
109
86
96
13
4
83
80
36
81
106
16
53
82
29
90
93
88
65
15
55
33
57
38
47
27
78
32
69
43
66

>  <PUBCHEM_MMFF94_PARTIAL_CHARGES>  (1) 
30
1 -0.81
10 0.14
11 0.27
12 -0.14
13 0.14
15 -0.15
17 -0.29
18 -0.15
19 -0.15
2 -0.9
20 -0.15
21 -0.15
22 -0.15
23 -0.15
24 -0.3
3 0.27
4 0.27
42 0.36
45 0.15
46 0.15
47 0.15
48 0.15
49 0.15
50 0.15
51 0.15
52 0.15
53 0.15
54 0.15
8 0.27
9 0.27

>  <PUBCHEM_EFFECTIVE_ROTOR_COUNT>  (1) 
9.2

>  <PUBCHEM_PHARMACOPHORE_FEATURES>  (1) 
7
1 1 cation
1 2 cation
1 2 donor
1 24 hydrophobe
6 1 3 4 5 6 7 rings
6 12 14 15 16 19 20 rings
6 14 16 18 21 22 23 rings

>  <PUBCHEM_HEAVY_ATOM_COUNT>  (1) 
24

>  <PUBCHEM_ATOM_DEF_STEREO_COUNT>  (1) 
0

>  <PUBCHEM_ATOM_UDEF_STEREO_COUNT>  (1) 
1

>  <PUBCHEM_BOND_DEF_STEREO_COUNT>  (1) 
0

>  <PUBCHEM_BOND_UDEF_STEREO_COUNT>  (1) 
0

>  <PUBCHEM_ISOTOPIC_ATOM_COUNT>  (1) 
0

>  <PUBCHEM_COMPONENT_COUNT>  (1) 
1

>  <PUBCHEM_CACTVS_TAUTO_COUNT>  (1) 
1

>  <PUBCHEM_CONFORMER_ID>  (1) 
0000625800000001

>  <PUBCHEM_MMFF94_ENERGY>  (1) 
47.6041

>  <PUBCHEM_FEATURE_SELFOVERLAP>  (1) 
35.548

>  <PUBCHEM_SHAPE_FINGERPRINT>  (1) 
10498660 4 18265908015070738673
11421498 54 11097860661941997854
11582403 64 16985731307340841160
12166972 35 18269834220474350723
12616971 3 18343022147674527507
12633257 1 15430588597036994416
13294875 104 18339937016905036654
13533116 47 18408041788809296695
13878862 14 18188752990911357333
13965767 371 17459464649137215124
14068700 675 18127687137222732682
14170010 4 18334574616722956946
14211702 104 9078816491259605809
14251758 9 8862400712574725419
14528608 73 18272370897675195557
15183329 4 17561085800755131369
15664445 248 13973675174245185290
15849732 13 17988637442308534446
20771845 140 11458716040640049158
21304303 282 17625242488555717766
21403212 168 18272077345530127952
23419403 2 18117253906199892326
23559900 14 17676214545922432707
238 59 16700633383613212404
3004659 81 17703793596055109207
34797466 226 17561368409518643029
44317340 157 18408325476290400323
495365 180 18260269659034646242
513532 50 17917994988401646508
5219985 9 18117838790457180418
5895379 119 17129881430079555968
67856867 119 18341607105857716899
6823239 73 16443359645113143679
960060 61 15339125649825159749

>  <PUBCHEM_SHAPE_MULTIPOLES>  (1) 
483.95
15.06
3.38
1.82
37.67
0.07
-0.99
-2.57
-0.89
-7.16
1.13
-1.71
-0.57
-0.72

>  <PUBCHEM_SHAPE_SELFOVERLAP>  (1) 
1009.388

>  <PUBCHEM_SHAPE_VOLUME>  (1) 
273

>  <PUBCHEM_COORDINATE_TYPE>  (1) 
2
5
10

$$$$
