25170
     RDKit          3D

 28 31  0  0  1  0  0  0  0  0999 V2000
   -0.0147    4.4584   -0.8739 O   0  0  0  0  0  0  0  0  0  0  0  0
   -7.7586   -1.1345    0.3561 O   0  0  0  0  0  0  0  0  0  0  0  0
   -1.4200    0.0220   -0.4751 N   0  0  0  0  0  0  0  0  0  0  0  0
   -4.9438   -1.1282   -0.0666 N   0  0  0  0  0  0  0  0  0  0  0  0
    0.9477    0.8245   -0.2109 C   0  0  0  0  0  0  0  0  0  0  0  0
    0.2084    3.2803   -0.0808 C   0  0  0  0  0  0  0  0  0  0  0  0
    0.7406    2.1631   -0.9569 C   0  0  0  0  0  0  0  0  0  0  0  0
    1.1644    3.6903    1.0260 C   0  0  0  0  0  0  0  0  0  0  0  0
   -0.3398    0.3001    0.4650 C   0  0  0  0  0  0  0  0  0  0  0  0
    1.5740   -0.2002   -1.1900 C   0  0  0  0  0  0  0  0  0  0  0  0
    0.7432    5.1170    1.2736 C   0  0  0  0  0  0  0  0  0  0  0  0
    0.4338    5.5996   -0.1276 C   0  0  0  0  0  0  0  0  0  0  0  0
    2.3461   -1.3087   -0.5164 C   0  0  0  0  0  0  0  0  0  0  0  0
   -2.6244   -0.3967    0.2275 C   0  0  0  0  0  0  0  0  0  0  0  0
   -3.7402   -0.6908   -0.7707 C   0  0  0  0  0  0  0  0  0  0  0  0
    3.7183   -1.1980   -0.2383 C   0  0  0  0  0  0  0  0  0  0  0  0
   -5.8564   -1.8304   -0.9797 C   0  0  0  0  0  0  0  0  0  0  0  0
   -5.6309    0.0142    0.5517 C   0  0  0  0  0  0  0  0  0  0  0  0
    1.6412   -2.4632   -0.1744 C   0  0  0  0  0  0  0  0  0  0  0  0
   -7.1099   -2.2658   -0.2261 C   0  0  0  0  0  0  0  0  0  0  0  0
   -6.8890   -0.4654    1.2700 C   0  0  0  0  0  0  0  0  0  0  0  0
    4.3848   -2.2734    0.3958 C   0  0  0  0  0  0  0  0  0  0  0  0
    2.2967   -3.5206    0.4495 C   0  0  0  0  0  0  0  0  0  0  0  0
    4.4437   -0.0435   -0.5755 C   0  0  0  0  0  0  0  0  0  0  0  0
    3.6595   -3.4278    0.7334 C   0  0  0  0  0  0  0  0  0  0  0  0
    5.7568   -2.1628    0.6741 C   0  0  0  0  0  0  0  0  0  0  0  0
    5.8065    0.0491   -0.2917 C   0  0  0  0  0  0  0  0  0  0  0  0
    6.4619   -1.0086    0.3318 C   0  0  0  0  0  0  0  0  0  0  0  0
  1  6  1  0
  1 12  1  0
  2 20  1  0
  2 21  1  0
  3  9  1  0
  3 14  1  0
  4 15  1  0
  4 17  1  0
  4 18  1  0
  5  7  1  0
  5  9  1  0
  5 10  1  0
  6  7  1  0
  6  8  1  0
  8 11  1  0
 10 13  1  0
 11 12  1  0
 13 16  1  0
 13 19  2  0
 14 15  1  0
 16 22  2  0
 16 24  1  0
 17 20  1  0
 18 21  1  0
 19 23  1  0
 22 25  1  0
 22 26  1  0
 23 25  2  0
 24 27  2  0
 26 28  2  0
 27 28  1  0
M  END
>  <PUBCHEM_COMPOUND_CID>  (1) 
25170

>  <PUBCHEM_CONFORMER_RMSD>  (1) 
1

>  <PUBCHEM_CONFORMER_DIVERSEORDER>  (1) 
1
252
92
186
76
107
271
21
267
105
7
281
294
64
231
191
156
263
29
11
178
146
177
205
222
35
88
269
89
136
264
275
20
128
96
165
286
25
145
98
241
16
113
133
196
65
255
174
40
148
295
155
83
46
280
34
201
206
130
10
209
39
237
190
251
135
221
292
47
77
101
26
299
262
185
87
183
48
15
151
67
59
182
51
232
305
97
143
31
233
270
121
93
9
272
284
18
166
126
285
147
176
49
184
276
94
162
110
118
274
24
91
199
168
229
202
28
100
290
4
243
293
298
167
14
129
116
150
247
69
159
45
296
217
171
212
55
53
102
235
193
85
17
43
257
134
68
203
179
86
198
72
225
3
114
303
224
111
200
170
132
215
33
90
245
70
188
152
288
268
211
41
253
32
108
157
289
238
119
161
106
304
138
197
79
19
144
12
228
99
302
6
42
124
266
57
195
103
139
74
84
230
62
189
180
153
8
254
282
181
104
27
158
283
95
36
131
58
244
137
5
249
278
81
63
301
248
219
246
112
30
2
220
273
56
80
60
300
142
236
71
123
297
227
258
259
117
109
54
38
52
73
82
66
50
172
13
75
154
140
242
175
164
194
265
149
223
22
122
210
279
240
120
256
37
23
234
287
239
173
125
213
141
277
291
127
169
187
160
208
115
260
216
61
207
214
218
192
226
261
78
204
250
163
44

>  <PUBCHEM_MMFF94_PARTIAL_CHARGES>  (1) 
30
1 -0.56
10 0.14
12 0.28
13 -0.14
14 0.27
15 0.27
17 0.27
18 0.27
19 -0.15
2 -0.56
20 0.28
21 0.28
23 -0.15
24 -0.15
25 -0.15
26 -0.15
27 -0.15
28 -0.15
3 -0.9
4 -0.81
43 0.36
52 0.15
57 0.15
58 0.15
59 0.15
6 0.28
60 0.15
61 0.15
62 0.15
9 0.27

>  <PUBCHEM_EFFECTIVE_ROTOR_COUNT>  (1) 
11.2

>  <PUBCHEM_PHARMACOPHORE_FEATURES>  (1) 
9
1 1 acceptor
1 2 acceptor
1 3 cation
1 3 donor
1 4 cation
5 1 6 8 11 12 rings
6 13 16 19 22 23 25 rings
6 16 22 24 26 27 28 rings
6 2 4 17 18 20 21 rings

>  <PUBCHEM_HEAVY_ATOM_COUNT>  (1) 
28

>  <PUBCHEM_ATOM_DEF_STEREO_COUNT>  (1) 
0

>  <PUBCHEM_ATOM_UDEF_STEREO_COUNT>  (1) 
2

>  <PUBCHEM_BOND_DEF_STEREO_COUNT>  (1) 
0

>  <PUBCHEM_BOND_UDEF_STEREO_COUNT>  (1) 
0

>  <PUBCHEM_ISOTOPIC_ATOM_COUNT>  (1) 
0

>  <PUBCHEM_COMPONENT_COUNT>  (1) 
1

>  <PUBCHEM_CACTVS_TAUTO_COUNT>  (1) 
1

>  <PUBCHEM_CONFORMER_ID>  (1) 
0000625200000001

>  <PUBCHEM_MMFF94_ENERGY>  (1) 
61.1487

>  <PUBCHEM_FEATURE_SELFOVERLAP>  (1) 
45.698

>  <PUBCHEM_SHAPE_FINGERPRINT>  (1) 
10462674 369 18334013869866180861
11646440 116 18334019371476745178
12107183 9 18270692974612945633
12516196 113 18410855447264781199
12788726 201 18190170183863276394
13165053 371 18271804674482851249
13540713 5 17754187375717138774
13590594 115 18410016511978379369
13835254 42 18267868289778939264
13955234 65 18267022954574346425
14068700 675 18202284714715963769
14394314 77 18339082584236940137
14849402 71 18267589185645664653
15021287 119 18343022212220388727
15183329 4 8430315753239624143
15347590 135 18262221263021502658
15439362 3 18050846920538122177
15927050 60 17693375951226266636
17492 89 18048593725493113882
17980427 26 17910385418291300845
19301679 30 18268150846713700167
20238998 120 18413106139125032489
21049683 271 18334298711939203236
21792965 184 18197796422531267106
23558518 356 17901675860823533442
23559900 14 18264203785396733571
24771293 8 18058434573709679024
283562 15 18262519165963068674
3552219 110 17917436419483809352
4058900 60 17763194926658421209
46194498 28 17240765116056418815
463206 1 18334859449879263910
5219985 9 18410013230142862356
6004065 56 18336547217328141698
6058803 2 17755591439064582710
67856867 119 18200314459088789877
9962374 69 18340480193009005439

>  <PUBCHEM_SHAPE_MULTIPOLES>  (1) 
554.53
17.01
6.43
1.05
28.17
12.59
-0.04
-19.39
-2.41
-3.38
-1.25
0.29
0.31
-0.98

>  <PUBCHEM_SHAPE_SELFOVERLAP>  (1) 
1161.966

>  <PUBCHEM_SHAPE_VOLUME>  (1) 
313.3

>  <PUBCHEM_COORDINATE_TYPE>  (1) 
2
5
10

$$$$
