25182
     RDKit          3D

 25 27  0  0  1  0  0  0  0  0999 V2000
    4.6809    0.1113   -0.2170 N   0  0  0  0  0  0  0  0  0  0  0  0
    1.0326   -0.5184    0.2343 N   0  0  0  0  0  0  0  0  0  0  0  0
    5.1919   -1.0015    0.5959 C   0  0  0  0  0  0  0  0  0  0  0  0
    5.5176    1.3097   -0.0627 C   0  0  0  0  0  0  0  0  0  0  0  0
    6.6272   -1.3570    0.2047 C   0  0  0  0  0  0  0  0  0  0  0  0
    6.9635    1.0298   -0.4750 C   0  0  0  0  0  0  0  0  0  0  0  0
    7.5453   -0.1442    0.3043 C   0  0  0  0  0  0  0  0  0  0  0  0
    3.2928    0.4076    0.1362 C   0  0  0  0  0  0  0  0  0  0  0  0
    2.4104   -0.8074   -0.1337 C   0  0  0  0  0  0  0  0  0  0  0  0
   -1.2996   -1.3847    0.3402 C   0  0  0  0  0  0  0  0  0  0  0  0
    0.1743   -1.6724   -0.0227 C   0  0  0  0  0  0  0  0  0  0  0  0
   -1.8689   -0.2195   -0.4598 C   0  0  0  0  0  0  0  0  0  0  0  0
   -2.1421   -2.6705    0.1609 C   0  0  0  0  0  0  0  0  0  0  0  0
   -2.3184    0.9347    0.1727 C   0  0  0  0  0  0  0  0  0  0  0  0
   -1.9099   -0.3798   -1.8333 C   0  0  0  0  0  0  0  0  0  0  0  0
   -2.8361    1.9813   -0.6270 C   0  0  0  0  0  0  0  0  0  0  0  0
   -3.5371   -2.5334    0.7075 C   0  0  0  0  0  0  0  0  0  0  0  0
   -2.2750    1.0932    1.5675 C   0  0  0  0  0  0  0  0  0  0  0  0
   -2.4188    0.6496   -2.6197 C   0  0  0  0  0  0  0  0  0  0  0  0
   -2.8793    1.8231   -2.0219 C   0  0  0  0  0  0  0  0  0  0  0  0
   -3.2953    3.1556   -0.0084 C   0  0  0  0  0  0  0  0  0  0  0  0
   -2.7358    2.2667    2.1651 C   0  0  0  0  0  0  0  0  0  0  0  0
   -4.6455   -2.7529   -0.0140 C   0  0  0  0  0  0  0  0  0  0  0  0
   -3.2451    3.2959    1.3787 C   0  0  0  0  0  0  0  0  0  0  0  0
   -6.0298   -2.6166    0.5272 C   0  0  0  0  0  0  0  0  0  0  0  0
  1  3  1  0
  1  4  1  0
  1  8  1  0
  2  9  1  0
  2 11  1  0
  3  5  1  0
  4  6  1  0
  5  7  1  0
  6  7  1  0
  8  9  1  0
 10 11  1  0
 10 12  1  0
 10 13  1  0
 12 14  1  0
 12 15  2  0
 13 17  1  0
 14 16  2  0
 14 18  1  0
 15 19  1  0
 16 20  1  0
 16 21  1  0
 17 23  2  0
 18 22  2  0
 19 20  2  0
 21 24  2  0
 22 24  1  0
 23 25  1  0
M  END
>  <PUBCHEM_COMPOUND_CID>  (1) 
25182

>  <PUBCHEM_CONFORMER_RMSD>  (1) 
1

>  <PUBCHEM_CONFORMER_DIVERSEORDER>  (1) 
1
68
87
95
71
44
42
99
24
90
98
23
76
17
32
56
15
25
83
28
52
57
43
96
100
14
16
31
58
92
53
70
65
50
3
62
93
75
91
84
73
85
20
69
46
55
64
2
39
48
61
77
40
67
60
9
47
37
26
94
72
51
13
54
38
97
79
34
8
19
78
10
4
11
81
29
66
36
89
12
74
5
63
33
35
88
21
30
80
82
7
41
22
86
59
45
6
27
18
49

>  <PUBCHEM_MMFF94_PARTIAL_CHARGES>  (1) 
30
1 -0.81
10 0.14
11 0.27
12 -0.14
13 0.14
15 -0.15
17 -0.29
18 -0.15
19 -0.15
2 -0.9
20 -0.15
21 -0.15
22 -0.15
23 -0.29
24 -0.15
25 0.14
3 0.27
4 0.27
43 0.36
46 0.15
47 0.15
48 0.15
49 0.15
50 0.15
51 0.15
52 0.15
53 0.15
54 0.15
8 0.27
9 0.27

>  <PUBCHEM_EFFECTIVE_ROTOR_COUNT>  (1) 
9.2

>  <PUBCHEM_PHARMACOPHORE_FEATURES>  (1) 
7
1 1 cation
1 2 cation
1 2 donor
1 25 hydrophobe
6 1 3 4 5 6 7 rings
6 12 14 15 16 19 20 rings
6 14 16 18 21 22 24 rings

>  <PUBCHEM_HEAVY_ATOM_COUNT>  (1) 
25

>  <PUBCHEM_ATOM_DEF_STEREO_COUNT>  (1) 
0

>  <PUBCHEM_ATOM_UDEF_STEREO_COUNT>  (1) 
0

>  <PUBCHEM_BOND_DEF_STEREO_COUNT>  (1) 
0

>  <PUBCHEM_BOND_UDEF_STEREO_COUNT>  (1) 
1

>  <PUBCHEM_ISOTOPIC_ATOM_COUNT>  (1) 
0

>  <PUBCHEM_COMPONENT_COUNT>  (1) 
1

>  <PUBCHEM_CACTVS_TAUTO_COUNT>  (1) 
1

>  <PUBCHEM_CONFORMER_ID>  (1) 
0000625E00000001

>  <PUBCHEM_MMFF94_ENERGY>  (1) 
46.4294

>  <PUBCHEM_FEATURE_SELFOVERLAP>  (1) 
35.548

>  <PUBCHEM_SHAPE_FINGERPRINT>  (1) 
10764073 3 17845670234945678761
11101153 10 18263649644147228484
11578080 2 14184016121780357587
12082328 90 18271813424163610830
12107183 9 18047748196982825130
12107698 1 18341049730755793994
13073987 5 18411416220619180570
13994607 96 18059576841404843545
14068700 675 18263925612780518111
14118638 360 18334011723026148946
14142880 1 18335140860942343253
14347332 77 18339076094499436854
14674994 50 14563106891412928403
14713325 29 18412829070800111123
15183329 4 18335698300996094534
15338160 23 18341059553383021041
17844677 252 18410298051605640432
21236236 1 18408886243493320706
21756936 100 18130507422875421417
283562 15 18407759253171694131
350125 39 18337111262508434762
3552219 110 18188504587224874081
4197921 191 18260269698633051660
469060 322 17531250577850722111
497634 4 18333167284456449094
5104073 3 18336255787645672906
5219985 9 18266179620751186379
59755656 520 18336547097163736379
6677587 24 15727498256892669215
7288768 16 18263937531214434073
9981440 41 17631446774445381159

>  <PUBCHEM_SHAPE_MULTIPOLES>  (1) 
504.53
16.36
3.68
1.66
40.54
0.5
-0.63
-3.14
1.53
-7.54
1.13
-2.4
1.16
-0.34

>  <PUBCHEM_SHAPE_SELFOVERLAP>  (1) 
1047.764

>  <PUBCHEM_SHAPE_VOLUME>  (1) 
286.1

>  <PUBCHEM_COORDINATE_TYPE>  (1) 
2
5
10

$$$$
