25188
     RDKit          3D

  5  4  0  0  0  0  0  0  0  0999 V2000
   -1.5554    0.7652    0.0002 O   0  0  0  0  0  0  0  0  0  0  0  0
   -0.5919   -1.3046    0.0002 O   0  0  0  0  0  0  0  0  0  0  0  0
    0.7946    0.6412    0.0001 C   0  0  0  0  0  0  0  0  0  0  0  0
   -0.5796   -0.0419   -0.0004 C   0  0  0  0  0  0  0  0  0  0  0  0
    1.9323   -0.0599    0.0000 C   0  0  0  0  0  0  0  0  0  0  0  0
  1  4  1  0
  2  4  2  0
  3  4  1  0
  3  5  2  0
M  CHG  1   1  -1
M  END
>  <PUBCHEM_COMPOUND_CID>  (1) 
25188

>  <PUBCHEM_CONFORMER_RMSD>  (1) 
0.4

>  <PUBCHEM_CONFORMER_DIVERSEORDER>  (1) 
1
2

>  <PUBCHEM_MMFF94_PARTIAL_CHARGES>  (1) 
8
1 -0.9
2 -0.9
3 -0.4
4 1.05
5 -0.3
6 0.15
7 0.15
8 0.15

>  <PUBCHEM_EFFECTIVE_ROTOR_COUNT>  (1) 
1

>  <PUBCHEM_PHARMACOPHORE_FEATURES>  (1) 
4
1 1 acceptor
1 2 acceptor
1 5 hydrophobe
3 1 2 4 anion

>  <PUBCHEM_HEAVY_ATOM_COUNT>  (1) 
5

>  <PUBCHEM_ATOM_DEF_STEREO_COUNT>  (1) 
0

>  <PUBCHEM_ATOM_UDEF_STEREO_COUNT>  (1) 
0

>  <PUBCHEM_BOND_DEF_STEREO_COUNT>  (1) 
0

>  <PUBCHEM_BOND_UDEF_STEREO_COUNT>  (1) 
0

>  <PUBCHEM_ISOTOPIC_ATOM_COUNT>  (1) 
0

>  <PUBCHEM_COMPONENT_COUNT>  (1) 
1

>  <PUBCHEM_CACTVS_TAUTO_COUNT>  (1) 
1

>  <PUBCHEM_CONFORMER_ID>  (1) 
0000626400000001

>  <PUBCHEM_MMFF94_ENERGY>  (1) 
4.8583

>  <PUBCHEM_FEATURE_SELFOVERLAP>  (1) 
20.352

>  <PUBCHEM_SHAPE_FINGERPRINT>  (1) 
139733 1 9221862957219655682
16714656 1 18261962851359657724
20096714 4 18408323272070194704
21015797 1 9653094703230552373
21040471 1 18338517443449218912
5460574 1 9223229650283757536
5943 1 9417843453218423043

>  <PUBCHEM_SHAPE_MULTIPOLES>  (1) 
91.16
2.07
1.04
0.58
0.6
0.22
0
-0.19
0
-0.27
0
0.05
-0.01
0

>  <PUBCHEM_SHAPE_SELFOVERLAP>  (1) 
164.49

>  <PUBCHEM_SHAPE_VOLUME>  (1) 
58.6

>  <PUBCHEM_COORDINATE_TYPE>  (1) 
2
5
10

$$$$
