25183
     RDKit          3D

 20 22  0  0  1  0  0  0  0  0999 V2000
    0.6703    0.2415   -0.3158 N   0  0  0  0  0  0  0  0  0  0  0  0
    7.4059   -0.3368    0.4606 N   0  0  0  0  0  0  0  0  0  0  0  0
   -0.0358   -0.5960   -1.2881 C   0  0  0  0  0  0  0  0  0  0  0  0
   -1.3811   -1.0287   -0.7019 C   0  0  0  0  0  0  0  0  0  0  0  0
   -0.0189    1.4629    0.1150 C   0  0  0  0  0  0  0  0  0  0  0  0
   -2.1503    0.1344   -0.1255 C   0  0  0  0  0  0  0  0  0  0  0  0
   -1.5060    1.2610    0.2328 C   0  0  0  0  0  0  0  0  0  0  0  0
    2.0514    0.1229   -0.1567 C   0  0  0  0  0  0  0  0  0  0  0  0
   -3.6149   -0.0133    0.0475 C   0  0  0  0  0  0  0  0  0  0  0  0
    2.8874    1.2571   -0.1971 C   0  0  0  0  0  0  0  0  0  0  0  0
    2.6535   -1.1349    0.0496 C   0  0  0  0  0  0  0  0  0  0  0  0
   -4.4451    1.1076   -0.0215 C   0  0  0  0  0  0  0  0  0  0  0  0
   -4.1695   -1.2737    0.2798 C   0  0  0  0  0  0  0  0  0  0  0  0
    4.2681    1.1385   -0.0381 C   0  0  0  0  0  0  0  0  0  0  0  0
    4.0342   -1.2533    0.2088 C   0  0  0  0  0  0  0  0  0  0  0  0
    4.8415   -0.1166    0.1649 C   0  0  0  0  0  0  0  0  0  0  0  0
   -5.8235    0.9688    0.1415 C   0  0  0  0  0  0  0  0  0  0  0  0
   -5.5480   -1.4124    0.4427 C   0  0  0  0  0  0  0  0  0  0  0  0
   -6.3748   -0.2911    0.3734 C   0  0  0  0  0  0  0  0  0  0  0  0
    6.2557   -0.2380    0.3280 C   0  0  0  0  0  0  0  0  0  0  0  0
  1  3  1  0
  1  5  1  0
  1  8  1  0
  2 20  3  0
  3  4  1  0
  4  6  1  0
  5  7  1  0
  6  7  2  0
  6  9  1  0
  8 10  2  0
  8 11  1  0
  9 12  2  0
  9 13  1  0
 10 14  1  0
 11 15  2  0
 12 17  1  0
 13 18  2  0
 14 16  2  0
 15 16  1  0
 16 20  1  0
 17 19  2  0
 18 19  1  0
M  END
>  <PUBCHEM_COMPOUND_CID>  (1) 
25183

>  <PUBCHEM_CONFORMER_RMSD>  (1) 
0.6

>  <PUBCHEM_CONFORMER_DIVERSEORDER>  (1) 
1
8
2
7
6
4
3
5

>  <PUBCHEM_MMFF94_PARTIAL_CHARGES>  (1) 
30
1 -0.84
10 -0.15
11 -0.15
12 -0.15
13 -0.15
14 -0.15
15 -0.15
16 0.07
17 -0.15
18 -0.15
19 -0.15
2 -0.56
20 0.48
27 0.15
28 0.15
29 0.15
3 0.37
30 0.15
31 0.15
32 0.15
33 0.15
34 0.15
35 0.15
36 0.15
4 0.14
5 0.51
6 -0.17
7 -0.29
8 0.1
9 0.03

>  <PUBCHEM_EFFECTIVE_ROTOR_COUNT>  (1) 
2.8

>  <PUBCHEM_PHARMACOPHORE_FEATURES>  (1) 
5
1 1 cation
1 2 acceptor
6 1 3 4 5 6 7 rings
6 8 10 11 14 15 16 rings
6 9 12 13 17 18 19 rings

>  <PUBCHEM_HEAVY_ATOM_COUNT>  (1) 
20

>  <PUBCHEM_ATOM_DEF_STEREO_COUNT>  (1) 
0

>  <PUBCHEM_ATOM_UDEF_STEREO_COUNT>  (1) 
0

>  <PUBCHEM_BOND_DEF_STEREO_COUNT>  (1) 
0

>  <PUBCHEM_BOND_UDEF_STEREO_COUNT>  (1) 
0

>  <PUBCHEM_ISOTOPIC_ATOM_COUNT>  (1) 
0

>  <PUBCHEM_COMPONENT_COUNT>  (1) 
1

>  <PUBCHEM_CACTVS_TAUTO_COUNT>  (1) 
1

>  <PUBCHEM_CONFORMER_ID>  (1) 
0000625F00000001

>  <PUBCHEM_MMFF94_ENERGY>  (1) 
64.2171

>  <PUBCHEM_FEATURE_SELFOVERLAP>  (1) 
25.373

>  <PUBCHEM_SHAPE_FINGERPRINT>  (1) 
10 15 18271234007142234928
10299344 5 17967535671056054838
10354089 29 18413107260712084302
106641 1 17846495976040137323
11045977 3 18409449227827261419
11089746 13 17132108061084082224
11315181 36 18411140247242349049
11524674 6 17561363997907132055
12091667 2 17775563135448001109
12107183 9 17687743835819554777
12166972 35 17749112205567402036
12236239 1 18408042922733605372
12516196 113 18272651250927067865
12616971 3 18059569239080601828
13167823 11 18334575750520333483
13288520 33 18040716978941417669
13533116 47 17023173891423783808
13668630 136 13623533437158060800
13862211 1 18272087236259347223
14251764 18 18411138056091336732
14251764 46 18410291410668393965
14341114 176 18410860944801411806
15048467 5 11095888159386928249
15196674 1 18411139147456154567
15716309 27 18186519912464495314
15788980 27 17894354384650608453
17093844 174 18261107466142653713
17844677 252 18334301971914397565
1813 80 16877664547709248711
19489759 90 17894912923735952713
21267235 1 18412268316233945214
22224240 67 17131827677097799142
23035841 295 18113337513567489450
23402539 116 18272646866261019077
23522609 53 17751105568487854164
23536379 177 18259985963833792825
23559900 14 18335417993132345097
239999 70 18341901770874295950
26918003 58 18334014999152097035
3004659 81 18113899368758119208
350125 39 18412824694713947356
3545911 37 18343300358201611030
4073 2 17822580506934735266
4214541 1 18408041801937181485
4463277 17 18412544318974207084
465052 167 18413113878560452838
5104073 3 18199462169825704338
559249 180 18334011696939561235
59682541 35 18200872984550949514
59755656 215 18130795521187808774
59755656 520 17458060490741548722
67856867 119 18261679280223129181
7495541 125 18272652402189332345

>  <PUBCHEM_SHAPE_MULTIPOLES>  (1) 
401.63
17.14
1.48
0.77
5.36
0.06
-0.11
-2.26
3.82
-0.57
0.05
-0.04
-0.1
-0.02

>  <PUBCHEM_SHAPE_SELFOVERLAP>  (1) 
868.215

>  <PUBCHEM_SHAPE_VOLUME>  (1) 
216

>  <PUBCHEM_COORDINATE_TYPE>  (1) 
2
5
10

$$$$
