25184
     RDKit          3D

  8  7  0  0  0  0  0  0  0  0999 V2000
    2.8551   -0.8063    0.1609 O   0  0  0  0  0  0  0  0  0  0  0  0
    1.9859    1.2569   -0.2261 O   0  0  0  0  0  0  0  0  0  0  0  0
   -2.6734    0.8670    0.2570 O   0  0  0  0  0  0  0  0  0  0  0  0
   -2.0747   -1.2015   -0.2509 O   0  0  0  0  0  0  0  0  0  0  0  0
   -0.5492    0.4170   -0.0774 N   0  0  0  0  0  0  0  0  0  0  0  0
   -1.8488   -0.0107   -0.0123 N   0  0  0  0  0  0  0  0  0  0  0  0
    0.4787   -0.5893    0.1344 C   0  0  0  0  0  0  0  0  0  0  0  0
    1.8264    0.0670    0.0146 C   0  0  0  0  0  0  0  0  0  0  0  0
  1  8  1  0
  2  8  2  0
  3  6  1  0
  4  6  2  0
  5  6  1  0
  5  7  1  0
  7  8  1  0
M  CHG  2   3  -1   6   1
M  END
>  <PUBCHEM_COMPOUND_CID>  (1) 
25184

>  <PUBCHEM_CONFORMER_RMSD>  (1) 
0.6

>  <PUBCHEM_CONFORMER_DIVERSEORDER>  (1) 
1
11
8
12
2
7
3
5
9
10
4
6

>  <PUBCHEM_MMFF94_PARTIAL_CHARGES>  (1) 
10
1 -0.65
11 0.36
12 0.5
2 -0.57
3 -0.52
4 -0.52
5 -0.62
6 1.03
7 0.33
8 0.66

>  <PUBCHEM_EFFECTIVE_ROTOR_COUNT>  (1) 
3

>  <PUBCHEM_PHARMACOPHORE_FEATURES>  (1) 
6
1 1 acceptor
1 2 acceptor
1 3 acceptor
1 4 acceptor
1 5 donor
3 1 2 8 anion

>  <PUBCHEM_HEAVY_ATOM_COUNT>  (1) 
8

>  <PUBCHEM_ATOM_DEF_STEREO_COUNT>  (1) 
0

>  <PUBCHEM_ATOM_UDEF_STEREO_COUNT>  (1) 
0

>  <PUBCHEM_BOND_DEF_STEREO_COUNT>  (1) 
0

>  <PUBCHEM_BOND_UDEF_STEREO_COUNT>  (1) 
0

>  <PUBCHEM_ISOTOPIC_ATOM_COUNT>  (1) 
0

>  <PUBCHEM_COMPONENT_COUNT>  (1) 
1

>  <PUBCHEM_CACTVS_TAUTO_COUNT>  (1) 
1

>  <PUBCHEM_CONFORMER_ID>  (1) 
0000626000000001

>  <PUBCHEM_MMFF94_ENERGY>  (1) 
10.3649

>  <PUBCHEM_FEATURE_SELFOVERLAP>  (1) 
30.581

>  <PUBCHEM_SHAPE_FINGERPRINT>  (1) 
12932764 1 17385716989319977874
14325111 11 18410575106159020906
14390081 3 18271242819444668857
20096714 4 18408886265083935336
21040471 1 18337954622645360434
23552423 10 18334294288048716518
29004967 10 14836127675661710922
5460574 1 9295290542687633850

>  <PUBCHEM_SHAPE_MULTIPOLES>  (1) 
131.2
4.17
1.11
0.56
0.3
0.03
-0.01
0.02
-0.12
0
0.04
-0.02
-0.01
-0.24

>  <PUBCHEM_SHAPE_SELFOVERLAP>  (1) 
246.457

>  <PUBCHEM_SHAPE_VOLUME>  (1) 
81.8

>  <PUBCHEM_COORDINATE_TYPE>  (1) 
2
5
10

$$$$
