25187
     RDKit          3D

 12 12  0  0  0  0  0  0  0  0999 V2000
    3.5493   -0.0581   -0.4495 N   0  0  0  0  0  0  0  0  0  0  0  0
    1.1344   -0.1508   -0.0401 C   0  0  0  0  0  0  0  0  0  0  0  0
    2.5272   -0.4393    0.5179 C   0  0  0  0  0  0  0  0  0  0  0  0
    0.0460   -0.5647    0.9538 C   0  0  0  0  0  0  0  0  0  0  0  0
   -1.3332   -0.2518    0.4325 C   0  0  0  0  0  0  0  0  0  0  0  0
    4.8854   -0.3628    0.0654 C   0  0  0  0  0  0  0  0  0  0  0  0
    3.4439    1.3648   -0.7772 C   0  0  0  0  0  0  0  0  0  0  0  0
   -1.9034    0.9818    0.7107 C   0  0  0  0  0  0  0  0  0  0  0  0
   -2.0109   -1.2022   -0.3167 C   0  0  0  0  0  0  0  0  0  0  0  0
   -3.1797    1.2714    0.2285 C   0  0  0  0  0  0  0  0  0  0  0  0
   -3.2873   -0.9125   -0.7989 C   0  0  0  0  0  0  0  0  0  0  0  0
   -3.8718    0.3243   -0.5263 C   0  0  0  0  0  0  0  0  0  0  0  0
  1  3  1  0
  1  6  1  0
  1  7  1  0
  2  3  1  0
  2  4  1  0
  4  5  1  0
  5  8  2  0
  5  9  1  0
  8 10  1  0
  9 11  2  0
 10 12  2  0
 11 12  1  0
M  END
>  <PUBCHEM_COMPOUND_CID>  (1) 
25187

>  <PUBCHEM_CONFORMER_RMSD>  (1) 
0.6

>  <PUBCHEM_CONFORMER_DIVERSEORDER>  (1) 
1
6
11
2
12
10
7
3
5
4
9
8

>  <PUBCHEM_MMFF94_PARTIAL_CHARGES>  (1) 
16
1 -0.81
10 -0.15
11 -0.15
12 -0.15
25 0.15
26 0.15
27 0.15
28 0.15
29 0.15
3 0.27
4 0.14
5 -0.14
6 0.27
7 0.27
8 -0.15
9 -0.15

>  <PUBCHEM_EFFECTIVE_ROTOR_COUNT>  (1) 
4

>  <PUBCHEM_PHARMACOPHORE_FEATURES>  (1) 
2
1 1 cation
6 5 8 9 10 11 12 rings

>  <PUBCHEM_HEAVY_ATOM_COUNT>  (1) 
12

>  <PUBCHEM_ATOM_DEF_STEREO_COUNT>  (1) 
0

>  <PUBCHEM_ATOM_UDEF_STEREO_COUNT>  (1) 
0

>  <PUBCHEM_BOND_DEF_STEREO_COUNT>  (1) 
0

>  <PUBCHEM_BOND_UDEF_STEREO_COUNT>  (1) 
0

>  <PUBCHEM_ISOTOPIC_ATOM_COUNT>  (1) 
0

>  <PUBCHEM_COMPONENT_COUNT>  (1) 
1

>  <PUBCHEM_CACTVS_TAUTO_COUNT>  (1) 
1

>  <PUBCHEM_CONFORMER_ID>  (1) 
0000626300000001

>  <PUBCHEM_MMFF94_ENERGY>  (1) 
26.5479

>  <PUBCHEM_FEATURE_SELFOVERLAP>  (1) 
10.148

>  <PUBCHEM_SHAPE_FINGERPRINT>  (1) 
11127187 94 17346875663559403367
11543360 7 18200876283133058222
12162725 195 18409452496540128876
124424 183 13045940218043116383
14123260 362 17968956269627019684
14252887 29 12823302303795642998
14445660 50 8718831998208533518
15775835 57 18187645778053706637
17802600 8 18333445439619014756
18186145 218 17603585235912868186
19107657 47 16805317786677168640
1986462 14 17846779606958275719
20279233 1 16343704331072461942
20300324 65 18272087218773568113
20432913 95 12679464192175291620
20645464 45 14129060292444698923
20645476 183 18409441492781688775
20645477 56 18130792209498887449
20671657 53 16487257672927554522
20871999 31 18272076215679201423
21061003 4 15410612622992639555
21119208 17 18412543206377048542
22485316 2 11600009833953935570
23402539 116 18271518728164687588
23402655 69 18408604734431113444
23557571 272 17346321457991033576
23559900 14 17775279448731996754
4175511 318 18060134332380686493
42 15 9079122163242441020
528716 315 18272652367966483811
573450 72 18270670979193833698
93112 12 18341896315933091526
9971528 1 18334011675844448452

>  <PUBCHEM_SHAPE_MULTIPOLES>  (1) 
241.97
8.97
1.25
0.92
7.34
0.23
0.02
0.84
-1.87
-0.44
-0.1
-0.11
0.01
-0.76

>  <PUBCHEM_SHAPE_SELFOVERLAP>  (1) 
480.159

>  <PUBCHEM_SHAPE_VOLUME>  (1) 
144.7

>  <PUBCHEM_COORDINATE_TYPE>  (1) 
2
5
10

$$$$
