25192
     RDKit          3D

 12 13  0  0  0  0  0  0  0  0999 V2000
    2.6273    1.0606    0.0004 O   0  0  0  0  0  0  0  0  0  0  0  0
    1.5163   -0.8843   -0.0002 N   0  0  0  0  0  0  0  0  0  0  0  0
    1.2659    1.3897   -0.0001 N   0  0  0  0  0  0  0  0  0  0  0  0
   -2.9416    1.0519   -0.0002 N   0  0  0  0  0  0  0  0  0  0  0  0
   -0.7499    0.0314    0.0000 C   0  0  0  0  0  0  0  0  0  0  0  0
    0.6745    0.1905    0.0000 C   0  0  0  0  0  0  0  0  0  0  0  0
    2.6862   -0.2970   -0.0001 C   0  0  0  0  0  0  0  0  0  0  0  0
   -1.3302   -1.2322    0.0002 C   0  0  0  0  0  0  0  0  0  0  0  0
   -1.5920    1.1318   -0.0001 C   0  0  0  0  0  0  0  0  0  0  0  0
    4.0282   -0.8945   -0.0001 C   0  0  0  0  0  0  0  0  0  0  0  0
   -2.7152   -1.3551    0.0001 C   0  0  0  0  0  0  0  0  0  0  0  0
   -3.4694   -0.1927    0.0000 C   0  0  0  0  0  0  0  0  0  0  0  0
  1  3  1  0
  1  7  1  0
  2  6  1  0
  2  7  2  0
  3  6  2  0
  4  9  2  0
  4 12  1  0
  5  6  1  0
  5  8  2  0
  5  9  1  0
  7 10  1  0
  8 11  1  0
 11 12  2  0
M  END
>  <PUBCHEM_COMPOUND_CID>  (1) 
25192

>  <PUBCHEM_CONFORMER_RMSD>  (1) 
0.4

>  <PUBCHEM_CONFORMER_DIVERSEORDER>  (1) 
1
2

>  <PUBCHEM_MMFF94_PARTIAL_CHARGES>  (1) 
16
1 -0.02
10 0.18
11 -0.15
12 0.16
13 0.15
14 0.15
18 0.15
19 0.15
2 -0.57
3 -0.41
4 -0.62
5 0.05
6 0.46
7 0.3
8 -0.15
9 0.16

>  <PUBCHEM_EFFECTIVE_ROTOR_COUNT>  (1) 
1

>  <PUBCHEM_PHARMACOPHORE_FEATURES>  (1) 
4
1 4 acceptor
3 2 3 6 cation
5 1 2 3 6 7 rings
6 4 5 8 9 11 12 rings

>  <PUBCHEM_HEAVY_ATOM_COUNT>  (1) 
12

>  <PUBCHEM_ATOM_DEF_STEREO_COUNT>  (1) 
0

>  <PUBCHEM_ATOM_UDEF_STEREO_COUNT>  (1) 
0

>  <PUBCHEM_BOND_DEF_STEREO_COUNT>  (1) 
0

>  <PUBCHEM_BOND_UDEF_STEREO_COUNT>  (1) 
0

>  <PUBCHEM_ISOTOPIC_ATOM_COUNT>  (1) 
0

>  <PUBCHEM_COMPONENT_COUNT>  (1) 
1

>  <PUBCHEM_CACTVS_TAUTO_COUNT>  (1) 
1

>  <PUBCHEM_CONFORMER_ID>  (1) 
0000626800000001

>  <PUBCHEM_MMFF94_ENERGY>  (1) 
19.7368

>  <PUBCHEM_FEATURE_SELFOVERLAP>  (1) 
20.297

>  <PUBCHEM_SHAPE_FINGERPRINT>  (1) 
10130415 120 18341611499408599304
10608611 8 18411695508502937137
11062470 55 13254793529675621587
11769659 78 18411695521371780918
12032990 46 18410580590843008786
12932764 1 17313373526559037740
13380535 76 18412825750890754463
14144814 61 18409729547352332666
14325111 11 18410855481613645217
15775835 57 18114182978080108475
16945 1 18410575046208826821
18186145 218 17676200294835399966
19973954 147 18338518641829685417
200 152 17917418839992508959
20201158 50 18342739593848785015
20871998 184 18129667538084794215
21501502 16 18339082695499868677
21501925 9 18410563012053393994
23402539 116 18059565868153571597
23463225 33 18336827498615121518
23552423 10 18188490293141189575
23559900 14 18270957952287579330
2748010 2 18338795731618237829
3248919 1 17458909348156303712
369184 2 18413108389966606331
57812782 119 18272647948033660142
69090 78 18271801328887163879
7364860 26 18269837686961532736
8809292 202 18261679254410984395

>  <PUBCHEM_SHAPE_MULTIPOLES>  (1) 
226.14
6.28
1.43
0.59
2.35
0.05
0
-1.11
0
-0.28
0
-0.02
-0.02
0

>  <PUBCHEM_SHAPE_SELFOVERLAP>  (1) 
488.215

>  <PUBCHEM_SHAPE_VOLUME>  (1) 
125.5

>  <PUBCHEM_COORDINATE_TYPE>  (1) 
2
5
10

$$$$
