25197
     RDKit          3D

 17 18  0  0  1  0  0  0  0  0999 V2000
   -2.4999   -2.4176    0.3246 F   0  0  0  0  0  0  0  0  0  0  0  0
    1.6219   -0.1848   -0.9912 O   0  0  0  0  0  0  0  0  0  0  0  0
    3.7709    1.6940    0.1152 O   0  0  0  0  0  0  0  0  0  0  0  0
    2.4363   -2.8348   -0.5813 O   0  0  0  0  0  0  0  0  0  0  0  0
   -1.1616    2.7145   -0.3965 O   0  0  0  0  0  0  0  0  0  0  0  0
   -0.4553    0.5267   -0.1825 N   0  0  0  0  0  0  0  0  0  0  0  0
   -2.7884    1.1601   -0.0869 N   0  0  0  0  0  0  0  0  0  0  0  0
   -4.4480   -0.4436    0.2307 N   0  0  0  0  0  0  0  0  0  0  0  0
    3.0286    0.6424    0.7287 C   0  0  0  0  0  0  0  0  0  0  0  0
    1.6187    1.1096    1.0071 C   0  0  0  0  0  0  0  0  0  0  0  0
    0.9267    0.8798   -0.3266 C   0  0  0  0  0  0  0  0  0  0  0  0
    2.8255   -0.4950   -0.2626 C   0  0  0  0  0  0  0  0  0  0  0  0
    2.6276   -1.8442    0.4159 C   0  0  0  0  0  0  0  0  0  0  0  0
   -0.8224   -0.7962    0.0048 C   0  0  0  0  0  0  0  0  0  0  0  0
   -1.4589    1.5299   -0.2305 C   0  0  0  0  0  0  0  0  0  0  0  0
   -2.0950   -1.1497    0.1413 C   0  0  0  0  0  0  0  0  0  0  0  0
   -3.1267   -0.0912    0.0898 C   0  0  0  0  0  0  0  0  0  0  0  0
  1 16  1  0
  2 11  1  0
  2 12  1  0
  3  9  1  0
  4 13  1  0
  5 15  2  0
  6 11  1  0
  6 14  1  0
  6 15  1  0
  7 15  1  0
  7 17  2  0
  8 17  1  0
  9 10  1  0
  9 12  1  0
 10 11  1  0
 12 13  1  0
 14 16  2  0
 16 17  1  0
M  END
>  <PUBCHEM_COMPOUND_CID>  (1) 
25197

>  <PUBCHEM_CONFORMER_RMSD>  (1) 
0.6

>  <PUBCHEM_CONFORMER_DIVERSEORDER>  (1) 
1
14
15
4
11
10
16
7
5
12
9
6
3
13
2
8

>  <PUBCHEM_MMFF94_PARTIAL_CHARGES>  (1) 
21
1 -0.15
11 0.58
12 0.28
13 0.28
14 -0.04
15 0.84
16 0.16
17 0.49
2 -0.56
25 0.4
26 0.15
27 0.4
28 0.4
29 0.4
3 -0.68
4 -0.68
5 -0.57
6 -0.47
7 -0.66
8 -0.85
9 0.28

>  <PUBCHEM_EFFECTIVE_ROTOR_COUNT>  (1) 
3

>  <PUBCHEM_PHARMACOPHORE_FEATURES>  (1) 
10
1 2 acceptor
1 3 acceptor
1 3 donor
1 4 acceptor
1 4 donor
1 5 acceptor
1 7 donor
1 8 donor
5 2 9 10 11 12 rings
6 6 7 14 15 16 17 rings

>  <PUBCHEM_HEAVY_ATOM_COUNT>  (1) 
17

>  <PUBCHEM_ATOM_DEF_STEREO_COUNT>  (1) 
2

>  <PUBCHEM_ATOM_UDEF_STEREO_COUNT>  (1) 
1

>  <PUBCHEM_BOND_DEF_STEREO_COUNT>  (1) 
0

>  <PUBCHEM_BOND_UDEF_STEREO_COUNT>  (1) 
0

>  <PUBCHEM_ISOTOPIC_ATOM_COUNT>  (1) 
0

>  <PUBCHEM_COMPONENT_COUNT>  (1) 
1

>  <PUBCHEM_CACTVS_TAUTO_COUNT>  (1) 
3

>  <PUBCHEM_CONFORMER_ID>  (1) 
0000626D00000001

>  <PUBCHEM_MMFF94_ENERGY>  (1) 
46.1859

>  <PUBCHEM_FEATURE_SELFOVERLAP>  (1) 
50.797

>  <PUBCHEM_SHAPE_FINGERPRINT>  (1) 
10366900 7 18201711916022763257
10608611 8 18411412878332939660
10616163 171 18337954618160924346
10618630 7 18334013899793495375
10922523 26 18260829250412864639
10967382 1 18410292540265911311
12382932 28 18337670926843685755
12500047 106 18263075514135213044
12553582 1 17975147748679404899
12932764 1 17632002118006393980
13380535 21 18411986845014320016
14144814 61 18410011009517961945
14252887 29 18335428997128467611
15219456 202 18341608196499731020
15375358 24 18335133245506345921
15375462 6 18411417315128952668
15442244 35 18195528091071837802
15775835 57 18130507534528746470
16945 1 18409168813591635941
17804303 29 18267028245504738518
17834074 16 18411419484050318938
19049666 15 18198054790177866584
19784866 170 18339078319144679864
20201158 50 18413106181957861874
20510252 161 18340767057536455737
20645477 70 18342734092106494407
21501502 16 18341612568755326392
23463225 33 18408606959118469767
23559900 14 18410851032528796948
2748010 2 18191862332015895157
34934 24 18337947995484552951
5104073 3 18409730621357960017
58051976 378 18410855495036799444
69090 78 18343577460875468007
7364860 26 18341613694495596406
81228 2 18259990349069638265
8809292 202 18267307534337677634
9709674 26 18411138000346952422

>  <PUBCHEM_SHAPE_MULTIPOLES>  (1) 
304.16
6.44
2.51
0.78
1.74
0.64
0.04
0.91
0.63
-0.54
-0.16
-0.33
-0.03
0.6

>  <PUBCHEM_SHAPE_SELFOVERLAP>  (1) 
642.075

>  <PUBCHEM_SHAPE_VOLUME>  (1) 
171.4

>  <PUBCHEM_COORDINATE_TYPE>  (1) 
2
5
10

$$$$
