25202
     RDKit          3D

 16 16  0  0  0  0  0  0  0  0999 V2000
    4.0769   -2.0636    0.0602 O   0  0  0  0  0  0  0  0  0  0  0  0
   -5.2265   -0.0177   -0.1216 N   0  0  0  0  0  0  0  0  0  0  0  0
    3.5686    0.2167    0.3499 N   0  0  0  0  0  0  0  0  0  0  0  0
   -3.9273    0.1348   -0.8164 C   0  0  0  0  0  0  0  0  0  0  0  0
   -2.7712    0.0123    0.1690 C   0  0  0  0  0  0  0  0  0  0  0  0
   -1.3660    0.1552   -0.4264 C   0  0  0  0  0  0  0  0  0  0  0  0
   -0.2513    0.0896    0.6201 C   0  0  0  0  0  0  0  0  0  0  0  0
    1.1304    0.1456   -0.0403 C   0  0  0  0  0  0  0  0  0  0  0  0
    2.2668    0.1422    0.9768 C   0  0  0  0  0  0  0  0  0  0  0  0
    4.1503    1.4798   -0.0376 C   0  0  0  0  0  0  0  0  0  0  0  0
   -5.3596   -1.4204    0.4901 C   0  0  0  0  0  0  0  0  0  0  0  0
   -5.3656    1.0096    1.0117 C   0  0  0  0  0  0  0  0  0  0  0  0
   -6.3965    0.1882   -1.0953 C   0  0  0  0  0  0  0  0  0  0  0  0
    5.6001    1.1246   -0.3005 C   0  0  0  0  0  0  0  0  0  0  0  0
    5.5421   -0.3223   -0.7754 C   0  0  0  0  0  0  0  0  0  0  0  0
    4.3289   -0.8746   -0.0643 C   0  0  0  0  0  0  0  0  0  0  0  0
  1 16  2  0
  2  4  1  0
  2 11  1  0
  2 12  1  0
  2 13  1  0
  3  9  1  0
  3 10  1  0
  3 16  1  0
  4  5  1  0
  5  6  1  0
  6  7  1  0
  7  8  1  0
  8  9  1  0
 10 14  1  0
 14 15  1  0
 15 16  1  0
M  CHG  1   2   1
M  END
>  <PUBCHEM_COMPOUND_CID>  (1) 
25202

>  <PUBCHEM_CONFORMER_RMSD>  (1) 
0.8

>  <PUBCHEM_CONFORMER_DIVERSEORDER>  (1) 
1
13
11
98
95
21
57
105
69
52
84
70
104
9
14
30
55
97
10
18
106
5
15
44
94
113
72
12
32
87
49
40
25
42
3
38
82
65
92
77
6
90
43
112
83
53
66
46
107
27
47
2
41
34
79
22
56
31
102
75
76
8
103
74
48
59
54
39
26
7
81
58
89
36
23
67
68
19
17
64
71
35
109
73
88
61
24
101
45
51
4
60
96
85
78
16
63
37
100
110
20
80
93
99
62
86
91
108
111
29
28
50
33

>  <PUBCHEM_MMFF94_PARTIAL_CHARGES>  (1) 
11
1 -0.57
10 0.3
11 0.5
12 0.5
13 0.5
15 0.06
16 0.57
2 -1.01
3 -0.66
4 0.5
9 0.3

>  <PUBCHEM_EFFECTIVE_ROTOR_COUNT>  (1) 
7.8

>  <PUBCHEM_PHARMACOPHORE_FEATURES>  (1) 
4
1 1 acceptor
1 2 cation
4 5 6 7 8 hydrophobe
5 3 10 14 15 16 rings

>  <PUBCHEM_HEAVY_ATOM_COUNT>  (1) 
16

>  <PUBCHEM_ATOM_DEF_STEREO_COUNT>  (1) 
0

>  <PUBCHEM_ATOM_UDEF_STEREO_COUNT>  (1) 
0

>  <PUBCHEM_BOND_DEF_STEREO_COUNT>  (1) 
0

>  <PUBCHEM_BOND_UDEF_STEREO_COUNT>  (1) 
0

>  <PUBCHEM_ISOTOPIC_ATOM_COUNT>  (1) 
0

>  <PUBCHEM_COMPONENT_COUNT>  (1) 
1

>  <PUBCHEM_CACTVS_TAUTO_COUNT>  (1) 
2

>  <PUBCHEM_CONFORMER_ID>  (1) 
0000627200000001

>  <PUBCHEM_MMFF94_ENERGY>  (1) 
30.2738

>  <PUBCHEM_FEATURE_SELFOVERLAP>  (1) 
20.297

>  <PUBCHEM_SHAPE_FINGERPRINT>  (1) 
11287383 113 18259985997929644074
11315181 36 18411983590204524193
12091667 2 16877661275524293681
12236239 1 17917996070269253000
12730499 353 18186526510077678746
12916748 109 16805323275460808612
13533116 47 18130788919606841834
13836976 161 18272373075329207630
14123238 8 15719108063363868017
1420 363 16950286200071126633
14251718 22 18040435516195591627
14251731 8 16487255465404132121
14251732 16 18336267958812758323
14933364 13 18408325484300280941
15183329 4 18341895169081865113
15348495 7 11311761904408139599
17834072 33 18412262852223310746
17834076 25 17917712409201557501
17844677 252 18335143063891775117
19489759 90 12823300096187967787
20281389 69 17917712379759636457
20645477 70 18338517444108985166
21150785 3 18131064982855908733
220451 1 17917714612720376839
23081809 10 17989205932558049697
23402539 116 15841831136420423593
23536379 177 18343303652045959729
23559900 14 18261668281439391073
2767999 5 13767923533327009007
29717793 49 17632304458567147100
300161 21 18334007319856164226
3004659 81 18131352986530990742
3014965 18 18337103458553280294
351380 180 9367348132546859926
351380 3 17203888561085684038
42788 4 18272933829847373977
465052 167 17704357671495703750
522135 26 18341892987750116602
5374978 207 9583518716069924406
542803 24 18413388730977148329
57483677 66 18342455954424809015
6025842 7 18410575077086377646
7062679 117 17386007321184151435

>  <PUBCHEM_SHAPE_MULTIPOLES>  (1) 
313.44
18.34
1.29
0.96
8.42
0.34
-0.01
-0.2
-2.71
-1.06
0.11
0.74
-0.08
0

>  <PUBCHEM_SHAPE_SELFOVERLAP>  (1) 
596.477

>  <PUBCHEM_SHAPE_VOLUME>  (1) 
196.9

>  <PUBCHEM_COORDINATE_TYPE>  (1) 
2
5
10

$$$$
