25208
     RDKit          3D

 12 13  0  0  1  0  0  0  0  0999 V2000
    1.8061    1.6926   -0.1649 O   0  0  0  0  0  0  0  0  0  0  0  0
    2.4530   -1.0776   -0.3887 O   0  0  0  0  0  0  0  0  0  0  0  0
   -0.9819   -0.3973   -0.5575 C   0  0  0  0  0  0  0  0  0  0  0  0
   -0.4860    0.8258    0.2813 C   0  0  0  0  0  0  0  0  0  0  0  0
    0.0397   -1.3888    0.0769 C   0  0  0  0  0  0  0  0  0  0  0  0
   -0.5526    0.2917    1.7368 C   0  0  0  0  0  0  0  0  0  0  0  0
   -0.1961   -1.2159    1.5919 C   0  0  0  0  0  0  0  0  0  0  0  0
    1.0006    0.7988   -0.0525 C   0  0  0  0  0  0  0  0  0  0  0  0
    1.3400   -0.6551   -0.1826 C   0  0  0  0  0  0  0  0  0  0  0  0
   -0.8210   -0.2424   -2.0853 C   0  0  0  0  0  0  0  0  0  0  0  0
   -2.4508   -0.7924   -0.3084 C   0  0  0  0  0  0  0  0  0  0  0  0
   -1.1510    2.1606    0.0530 C   0  0  0  0  0  0  0  0  0  0  0  0
  1  8  2  0
  2  9  2  0
  3  4  1  0
  3  5  1  0
  3 10  1  0
  3 11  1  0
  4  6  1  0
  4  8  1  0
  4 12  1  0
  5  7  1  0
  5  9  1  0
  6  7  1  0
  8  9  1  0
M  END
>  <PUBCHEM_COMPOUND_CID>  (1) 
25208

>  <PUBCHEM_CONFORMER_RMSD>  (1) 
0.4

>  <PUBCHEM_CONFORMER_DIVERSEORDER>  (1) 
2
1

>  <PUBCHEM_MMFF94_PARTIAL_CHARGES>  (1) 
6
1 -0.57
2 -0.57
4 0.06
5 0.06
8 0.51
9 0.51

>  <PUBCHEM_EFFECTIVE_ROTOR_COUNT>  (1) 
0.6

>  <PUBCHEM_PHARMACOPHORE_FEATURES>  (1) 
4
1 1 acceptor
1 2 acceptor
3 3 10 11 hydrophobe
7 3 4 5 6 7 8 9 rings

>  <PUBCHEM_HEAVY_ATOM_COUNT>  (1) 
12

>  <PUBCHEM_ATOM_DEF_STEREO_COUNT>  (1) 
0

>  <PUBCHEM_ATOM_UDEF_STEREO_COUNT>  (1) 
2

>  <PUBCHEM_BOND_DEF_STEREO_COUNT>  (1) 
0

>  <PUBCHEM_BOND_UDEF_STEREO_COUNT>  (1) 
0

>  <PUBCHEM_ISOTOPIC_ATOM_COUNT>  (1) 
0

>  <PUBCHEM_COMPONENT_COUNT>  (1) 
1

>  <PUBCHEM_CACTVS_TAUTO_COUNT>  (1) 
1

>  <PUBCHEM_CONFORMER_ID>  (1) 
0000627800000002

>  <PUBCHEM_MMFF94_ENERGY>  (1) 
50.913

>  <PUBCHEM_FEATURE_SELFOVERLAP>  (1) 
20.3

>  <PUBCHEM_SHAPE_FINGERPRINT>  (1) 
10702982 57 17905886976950598845
12423570 1 17844826784139445115
13024252 1 17678764253188832046
137420 1 10904442916913953539
15557651 10 17318419335996003925
16945 1 18268996384208322215
241688 4 18338233760922777776
2748010 2 17401772315949569932
369184 2 18267587901471470778
5084963 1 18059303062661049314
528886 8 17982438592770274893
68250623 7 18342752796810082081

>  <PUBCHEM_SHAPE_MULTIPOLES>  (1) 
235.22
2.25
1.79
1.52
0.39
0.77
0.02
-0.26
-0.55
0
0.16
-0.41
-0.3
-0.09

>  <PUBCHEM_SHAPE_SELFOVERLAP>  (1) 
508.069

>  <PUBCHEM_SHAPE_VOLUME>  (1) 
134.6

>  <PUBCHEM_COORDINATE_TYPE>  (1) 
2
5
10

$$$$
