25211
     RDKit          3D

 14 14  0  0  0  0  0  0  0  0999 V2000
   -1.3932   -0.0676    0.0001 C   0  0  0  0  0  0  0  0  0  0  0  0
    1.3932    0.0676   -0.0002 C   0  0  0  0  0  0  0  0  0  0  0  0
   -2.8857   -0.1152    0.0000 C   0  0  0  0  0  0  0  0  0  0  0  0
    2.8860    0.1153    0.0000 C   0  0  0  0  0  0  0  0  0  0  0  0
   -0.6381   -1.2405    0.0001 C   0  0  0  0  0  0  0  0  0  0  0  0
    0.6378    1.2404   -0.0002 C   0  0  0  0  0  0  0  0  0  0  0  0
   -0.7553    1.1727    0.0000 C   0  0  0  0  0  0  0  0  0  0  0  0
    0.7552   -1.1729    0.0000 C   0  0  0  0  0  0  0  0  0  0  0  0
   -3.4934    0.5272   -1.2605 C   0  0  0  0  0  0  0  0  0  0  0  0
   -3.4938    0.5271    1.2603 C   0  0  0  0  0  0  0  0  0  0  0  0
    3.4937   -0.5272   -1.2603 C   0  0  0  0  0  0  0  0  0  0  0  0
    3.4936   -0.5266    1.2606 C   0  0  0  0  0  0  0  0  0  0  0  0
   -1.2988   -2.5796    0.0001 C   0  0  0  0  0  0  0  0  0  0  0  0
    1.2987    2.5794    0.0000 C   0  0  0  0  0  0  0  0  0  0  0  0
  1  3  1  0
  1  5  2  0
  1  7  1  0
  2  4  1  0
  2  6  1  0
  2  8  2  0
  3  9  1  0
  3 10  1  0
  4 11  1  0
  4 12  1  0
  5  8  1  0
  5 13  1  0
  6  7  2  0
  6 14  1  0
M  END
>  <PUBCHEM_COMPOUND_CID>  (1) 
25211

>  <PUBCHEM_CONFORMER_RMSD>  (1) 
0.6

>  <PUBCHEM_CONFORMER_DIVERSEORDER>  (1) 
1

>  <PUBCHEM_MMFF94_PARTIAL_CHARGES>  (1) 
12
1 -0.14
13 0.14
14 0.14
17 0.15
18 0.15
2 -0.14
3 0.14
4 0.14
5 -0.14
6 -0.14
7 -0.15
8 -0.15

>  <PUBCHEM_EFFECTIVE_ROTOR_COUNT>  (1) 
2

>  <PUBCHEM_PHARMACOPHORE_FEATURES>  (1) 
3
3 3 9 10 hydrophobe
3 4 11 12 hydrophobe
6 1 2 5 6 7 8 rings

>  <PUBCHEM_HEAVY_ATOM_COUNT>  (1) 
14

>  <PUBCHEM_ATOM_DEF_STEREO_COUNT>  (1) 
0

>  <PUBCHEM_ATOM_UDEF_STEREO_COUNT>  (1) 
0

>  <PUBCHEM_BOND_DEF_STEREO_COUNT>  (1) 
0

>  <PUBCHEM_BOND_UDEF_STEREO_COUNT>  (1) 
0

>  <PUBCHEM_ISOTOPIC_ATOM_COUNT>  (1) 
0

>  <PUBCHEM_COMPONENT_COUNT>  (1) 
1

>  <PUBCHEM_CACTVS_TAUTO_COUNT>  (1) 
1

>  <PUBCHEM_CONFORMER_ID>  (1) 
0000627B00000001

>  <PUBCHEM_MMFF94_ENERGY>  (1) 
39.178

>  <PUBCHEM_FEATURE_SELFOVERLAP>  (1) 
15.223

>  <PUBCHEM_SHAPE_FINGERPRINT>  (1) 
10130415 120 18334010588558320192
10219947 1 18410853231045422944
11132069 177 18341041956611800082
11206711 2 18336543802945315885
12032990 46 18411145705539081582
124424 183 17821998779637268953
12932764 1 17968095369006940160
13140716 1 18338797947694612953
13172582 1 18410855455833194738
13380535 21 18120950660922253244
13538477 17 18186519925676600738
13675066 3 17703518722569694353
13760787 19 16877667841912234499
14144814 61 18410855455833194728
14648413 74 18196095658125846624
14911166 2 18410575080368112028
14993402 34 18410573972271824159
15279308 100 18334852852819455917
15309172 13 18409732833366395467
15375462 189 18040995150708574034
15848700 24 18272363149137455980
16752209 62 18263636260780895860
16945 1 18410573976561516550
18186145 218 18341895190530470605
18522853 295 18408889508005952354
193761 8 17978511158620979207
20233049 118 18187078430154228700
20511035 2 18127404781497884476
20645476 183 17531541952658978526
21501502 16 18122626316632070551
2334 1 18050003599387262980
23402539 116 18200584800961695366
23402655 69 18194381314062790605
23419403 2 15969258065304753255
23463225 33 18261950743941912746
23493267 7 17313667044893266793
23552423 10 17972599071950922180
23559900 14 18341902905246341374
25 1 18189607242821666253
2748010 2 18194402431398314079
3248919 1 17988362666852323676
4072396 5 18118101603283070305
7364860 26 18055921137062415416
74978 22 18338797934809710612
81228 2 18198913513333955320

>  <PUBCHEM_SHAPE_MULTIPOLES>  (1) 
288.11
5.95
2.07
1.07
0
0
0
0
0
0
0
0
0
0

>  <PUBCHEM_SHAPE_SELFOVERLAP>  (1) 
583.58

>  <PUBCHEM_SHAPE_VOLUME>  (1) 
166.4

>  <PUBCHEM_COORDINATE_TYPE>  (1) 
2
5
10

$$$$
