25215
     RDKit          3D

 20 22  0  0  0  0  0  0  0  0999 V2000
   -0.0648   -4.4295    0.8257 Cl  0  0  0  0  0  0  0  0  0  0  0  0
   -2.5878    3.2077   -0.1663 O   0  0  0  0  0  0  0  0  0  0  0  0
   -2.3819    0.9183   -0.5495 N   0  0  0  0  0  0  0  0  0  0  0  0
    0.0445    1.8408    1.0278 N   0  0  0  0  0  0  0  0  0  0  0  0
    3.4736   -0.1250   -1.6684 C   0  0  0  0  0  0  0  0  0  0  0  0
    2.0754   -0.3431   -1.0824 C   0  0  0  0  0  0  0  0  0  0  0  0
    4.5210    0.0003   -0.5649 C   0  0  0  0  0  0  0  0  0  0  0  0
    1.7947    0.5526    0.0863 C   0  0  0  0  0  0  0  0  0  0  0  0
    4.1957    1.1559    0.3855 C   0  0  0  0  0  0  0  0  0  0  0  0
    2.7397    1.2414    0.7427 C   0  0  0  0  0  0  0  0  0  0  0  0
    0.4070    0.7071    0.5294 C   0  0  0  0  0  0  0  0  0  0  0  0
   -0.4852   -0.4669    0.3296 C   0  0  0  0  0  0  0  0  0  0  0  0
   -1.7746   -0.3469   -0.2320 C   0  0  0  0  0  0  0  0  0  0  0  0
   -1.3414    1.9736    1.4270 C   0  0  0  0  0  0  0  0  0  0  0  0
    0.0271   -1.7332    0.6672 C   0  0  0  0  0  0  0  0  0  0  0  0
   -2.1454    2.1025    0.1586 C   0  0  0  0  0  0  0  0  0  0  0  0
   -2.4810   -1.5362   -0.5043 C   0  0  0  0  0  0  0  0  0  0  0  0
   -3.3533    0.9587   -1.6431 C   0  0  0  0  0  0  0  0  0  0  0  0
   -0.7073   -2.8880    0.4137 C   0  0  0  0  0  0  0  0  0  0  0  0
   -1.9561   -2.7901   -0.1827 C   0  0  0  0  0  0  0  0  0  0  0  0
  1 19  1  0
  2 16  2  0
  3 13  1  0
  3 16  1  0
  3 18  1  0
  4 11  2  0
  4 14  1  0
  5  6  1  0
  5  7  1  0
  6  8  1  0
  7  9  1  0
  8 10  2  0
  8 11  1  0
  9 10  1  0
 11 12  1  0
 12 13  2  0
 12 15  1  0
 13 17  1  0
 14 16  1  0
 15 19  2  0
 17 20  2  0
 19 20  1  0
M  END
>  <PUBCHEM_COMPOUND_CID>  (1) 
25215

>  <PUBCHEM_CONFORMER_RMSD>  (1) 
0.6

>  <PUBCHEM_CONFORMER_DIVERSEORDER>  (1) 
2
1

>  <PUBCHEM_MMFF94_PARTIAL_CHARGES>  (1) 
22
1 -0.18
10 -0.29
11 0.35
12 0.09
13 0.12
14 0.31
15 -0.15
16 0.57
17 -0.15
18 0.3
19 0.18
2 -0.57
20 -0.15
29 0.15
3 -0.48
32 0.15
33 0.15
37 0.15
4 -0.7
6 0.14
8 -0.12
9 0.14

>  <PUBCHEM_EFFECTIVE_ROTOR_COUNT>  (1) 
2.2

>  <PUBCHEM_PHARMACOPHORE_FEATURES>  (1) 
5
1 2 acceptor
1 4 acceptor
6 12 13 15 17 19 20 rings
6 5 6 7 8 9 10 rings
7 3 4 11 12 13 14 16 rings

>  <PUBCHEM_HEAVY_ATOM_COUNT>  (1) 
20

>  <PUBCHEM_ATOM_DEF_STEREO_COUNT>  (1) 
0

>  <PUBCHEM_ATOM_UDEF_STEREO_COUNT>  (1) 
0

>  <PUBCHEM_BOND_DEF_STEREO_COUNT>  (1) 
0

>  <PUBCHEM_BOND_UDEF_STEREO_COUNT>  (1) 
0

>  <PUBCHEM_ISOTOPIC_ATOM_COUNT>  (1) 
0

>  <PUBCHEM_COMPONENT_COUNT>  (1) 
1

>  <PUBCHEM_CACTVS_TAUTO_COUNT>  (1) 
1

>  <PUBCHEM_CONFORMER_ID>  (1) 
0000627F00000002

>  <PUBCHEM_MMFF94_ENERGY>  (1) 
68.3879

>  <PUBCHEM_FEATURE_SELFOVERLAP>  (1) 
25.383

>  <PUBCHEM_SHAPE_FINGERPRINT>  (1) 
10764073 3 17191006597061557243
11578080 2 15082615260205302716
11582403 64 16621450880843652464
11640471 11 17603298271983978908
12054548 360 17618230949716805572
121448 382 18413102849121385888
12173636 292 18408887300065857917
12714826 92 18044382852996769674
12730499 353 17977678515530841945
13140716 1 17906459079511295186
133893 2 17609203559915894355
13583140 156 17240766198493886192
14181834 199 17682943410754560587
14790565 3 18411144649637127065
15415430 2 18340768251141374059
15463212 79 18113615707674540920
16752209 62 18262224629400395962
167882 2 17758114795883838236
16945 1 18336826493318207833
17357779 13 18054213604025556775
18186145 218 18340489971857909900
19049666 15 18272377477275020742
19591789 44 18340217271567872499
200 152 16200432451383167924
20510252 161 18340205296840114723
20645476 183 18040712575829948903
21330990 113 18191612863678858555
21452121 199 17252865460600231166
21665056 4 18336554841179954274
22907989 373 18191603032028940484
23402539 116 18268698562417310702
23419403 2 17271150248881075155
23526113 38 17846489344647451808
23557571 272 18195528323184993380
23558518 356 18201167615229090368
23559900 14 18342735235416854560
2748010 2 17695050498386622257
46194498 28 16252176885847219327
7364860 26 17689716355062933713
81228 2 18196669585767575186
8809292 202 18342461495000874282
9709674 26 18131638880981537484

>  <PUBCHEM_SHAPE_MULTIPOLES>  (1) 
397.63
6.1
4.04
1.27
6.94
3.41
0.27
-2.02
2.26
-3.77
-1.32
0.11
-0.24
0.62

>  <PUBCHEM_SHAPE_SELFOVERLAP>  (1) 
848.093

>  <PUBCHEM_SHAPE_VOLUME>  (1) 
221.3

>  <PUBCHEM_COORDINATE_TYPE>  (1) 
2
5
10

$$$$
