2521
     RDKit          3D

 45 48  0  0  0  0  0  0  0  0999 V2000
    0.1426    3.2807   -0.3063 O   0  0  0  0  0  0  0  0  0  0  0  0
   -4.5039    3.9464   -0.8713 O   0  0  0  0  0  0  0  0  0  0  0  0
    4.7871    2.8011    0.1852 O   0  0  0  0  0  0  0  0  0  0  0  0
    0.8706   -2.3748   -1.5230 O   0  0  0  0  0  0  0  0  0  0  0  0
   -7.1691   -1.1906    2.4028 O   0  0  0  0  0  0  0  0  0  0  0  0
   -5.5943   -1.7073   -3.5328 O   0  0  0  0  0  0  0  0  0  0  0  0
   -0.9711   -1.0709   -1.7948 O   0  0  0  0  0  0  0  0  0  0  0  0
    4.6474   -3.7170   -1.5666 O   0  0  0  0  0  0  0  0  0  0  0  0
    8.6551    0.4233    0.5857 O   0  0  0  0  0  0  0  0  0  0  0  0
   -4.9713   -1.4940    1.9131 O   0  0  0  0  0  0  0  0  0  0  0  0
   -4.2176   -2.1552   -1.7817 O   0  0  0  0  0  0  0  0  0  0  0  0
    4.9573   -1.6389   -2.4311 O   0  0  0  0  0  0  0  0  0  0  0  0
    7.1236    1.1274   -0.9378 O   0  0  0  0  0  0  0  0  0  0  0  0
   -5.2672   -0.0279   -0.3931 N   0  0  0  0  0  0  0  0  0  0  0  0
    5.2642   -0.6120    0.1016 N   0  0  0  0  0  0  0  0  0  0  0  0
   -0.1967    0.6254    0.7121 C   0  0  0  0  0  0  0  0  0  0  0  0
   -1.3470    1.4729    0.3046 C   0  0  0  0  0  0  0  0  0  0  0  0
    1.0519    1.1530    0.5868 C   0  0  0  0  0  0  0  0  0  0  0  0
   -1.1166    2.7586   -0.1843 C   0  0  0  0  0  0  0  0  0  0  0  0
    1.2375    2.5144    0.0655 C   0  0  0  0  0  0  0  0  0  0  0  0
   -3.7362    1.8515   -0.0002 C   0  0  0  0  0  0  0  0  0  0  0  0
   -2.6767    1.0284    0.3919 C   0  0  0  0  0  0  0  0  0  0  0  0
    3.4992    0.9102    0.8418 C   0  0  0  0  0  0  0  0  0  0  0  0
    2.2609    0.4039    0.9591 C   0  0  0  0  0  0  0  0  0  0  0  0
   -0.3624   -0.7358    1.2348 C   0  0  0  0  0  0  0  0  0  0  0  0
   -5.1351    1.3400    0.1091 C   0  0  0  0  0  0  0  0  0  0  0  0
    4.7344    0.1535    1.2191 C   0  0  0  0  0  0  0  0  0  0  0  0
   -3.4841    3.1307   -0.4853 C   0  0  0  0  0  0  0  0  0  0  0  0
   -2.1727    3.5864   -0.5779 C   0  0  0  0  0  0  0  0  0  0  0  0
    2.4594    3.0484   -0.0642 C   0  0  0  0  0  0  0  0  0  0  0  0
    3.6778    2.2924    0.3119 C   0  0  0  0  0  0  0  0  0  0  0  0
   -0.3730   -1.8448    0.3886 C   0  0  0  0  0  0  0  0  0  0  0  0
   -0.5121   -0.9071    2.6109 C   0  0  0  0  0  0  0  0  0  0  0  0
   -6.4427   -0.6740    0.1891 C   0  0  0  0  0  0  0  0  0  0  0  0
   -5.3524   -0.0298   -1.8528 C   0  0  0  0  0  0  0  0  0  0  0  0
    4.5187   -1.8615   -0.0715 C   0  0  0  0  0  0  0  0  0  0  0  0
    6.6882   -0.8969    0.2963 C   0  0  0  0  0  0  0  0  0  0  0  0
   -0.5330   -3.1251    0.9189 C   0  0  0  0  0  0  0  0  0  0  0  0
   -0.6723   -2.1874    3.1411 C   0  0  0  0  0  0  0  0  0  0  0  0
   -0.6829   -3.2962    2.2951 C   0  0  0  0  0  0  0  0  0  0  0  0
   -0.2188   -1.7092   -1.0552 C   0  0  0  0  0  0  0  0  0  0  0  0
   -6.0954   -1.1474    1.5734 C   0  0  0  0  0  0  0  0  0  0  0  0
   -4.9952   -1.4019   -2.3538 C   0  0  0  0  0  0  0  0  0  0  0  0
    4.7444   -2.3667   -1.4697 C   0  0  0  0  0  0  0  0  0  0  0  0
    7.4795    0.3236   -0.0854 C   0  0  0  0  0  0  0  0  0  0  0  0
  1 19  1  0
  1 20  1  0
  2 28  1  0
  3 31  2  0
  4 41  1  0
  5 42  1  0
  6 43  1  0
  7 41  2  0
  8 44  1  0
  9 45  1  0
 10 42  2  0
 11 43  2  0
 12 44  2  0
 13 45  2  0
 14 26  1  0
 14 34  1  0
 14 35  1  0
 15 27  1  0
 15 36  1  0
 15 37  1  0
 16 17  1  0
 16 18  2  0
 16 25  1  0
 17 19  2  0
 17 22  1  0
 18 20  1  0
 18 24  1  0
 19 29  1  0
 20 30  2  0
 21 22  2  0
 21 26  1  0
 21 28  1  0
 23 24  2  0
 23 27  1  0
 23 31  1  0
 25 32  2  0
 25 33  1  0
 28 29  2  0
 30 31  1  0
 32 38  1  0
 32 41  1  0
 33 39  2  0
 34 42  1  0
 35 43  1  0
 36 44  1  0
 37 45  1  0
 38 40  2  0
 39 40  1  0
M  END
>  <PUBCHEM_COMPOUND_CID>  (1) 
2521

>  <PUBCHEM_CONFORMER_RMSD>  (1) 
1.4

>  <PUBCHEM_CONFORMER_DIVERSEORDER>  (1) 
1
8
5
12
7
2
4
9
11
6
10
3

>  <PUBCHEM_MMFF94_PARTIAL_CHARGES>  (1) 
58
1 -0.16
10 -0.57
11 -0.57
12 -0.57
13 -0.57
14 -0.81
15 -0.81
16 -0.06
17 0.03
19 0.08
2 -0.53
20 0.08
21 -0.14
22 -0.15
23 -0.12
24 -0.15
25 0.03
26 0.41
27 0.41
28 0.08
29 -0.15
3 -0.57
30 -0.14
31 0.54
32 0.09
33 -0.15
34 0.33
35 0.33
36 0.33
37 0.33
38 -0.15
39 -0.15
4 -0.65
40 -0.15
41 0.63
42 0.66
43 0.66
44 0.66
45 0.66
46 0.15
47 0.15
5 -0.65
52 0.15
53 0.15
54 0.15
6 -0.65
63 0.15
64 0.15
65 0.15
66 0.45
67 0.5
68 0.5
69 0.5
7 -0.57
70 0.5
71 0.5
8 -0.65
9 -0.65

>  <PUBCHEM_EFFECTIVE_ROTOR_COUNT>  (1) 
14

>  <PUBCHEM_PHARMACOPHORE_FEATURES>  (1) 
24
1 1 acceptor
1 10 acceptor
1 11 acceptor
1 12 acceptor
1 13 acceptor
1 14 cation
1 15 cation
1 2 donor
1 3 acceptor
1 4 acceptor
1 5 acceptor
1 6 acceptor
1 7 acceptor
1 8 acceptor
1 9 acceptor
3 4 7 41 anion
3 5 10 42 anion
3 6 11 43 anion
3 8 12 44 anion
3 9 13 45 anion
6 1 16 17 18 19 20 rings
6 17 19 21 22 28 29 rings
6 18 20 23 24 30 31 rings
6 25 32 33 38 39 40 rings

>  <PUBCHEM_HEAVY_ATOM_COUNT>  (1) 
45

>  <PUBCHEM_ATOM_DEF_STEREO_COUNT>  (1) 
0

>  <PUBCHEM_ATOM_UDEF_STEREO_COUNT>  (1) 
0

>  <PUBCHEM_BOND_DEF_STEREO_COUNT>  (1) 
0

>  <PUBCHEM_BOND_UDEF_STEREO_COUNT>  (1) 
0

>  <PUBCHEM_ISOTOPIC_ATOM_COUNT>  (1) 
0

>  <PUBCHEM_COMPONENT_COUNT>  (1) 
1

>  <PUBCHEM_CACTVS_TAUTO_COUNT>  (1) 
3

>  <PUBCHEM_CONFORMER_ID>  (1) 
000009D900000001

>  <PUBCHEM_MMFF94_ENERGY>  (1) 
133.9557

>  <PUBCHEM_FEATURE_SELFOVERLAP>  (1) 
122.164

>  <PUBCHEM_SHAPE_FINGERPRINT>  (1) 
11007060 377 18334294284033857504
11488393 25 18129390302145923771
12106331 60 18261383456303904169
12422481 6 17989210339315749991
1361 2 18272650121867867614
13811026 1 18410013212746455401
15064986 96 17916602943000268563
15183329 4 18271517676040137982
16090146 7 15936704725989044688
17980427 23 11819267807705568395
18608769 82 18408045125909299866
3383291 50 18334292102179460586
9896288 288 18269841930669244833

>  <PUBCHEM_SHAPE_MULTIPOLES>  (1) 
839.82
17.58
4.5
2.38
12.88
1.61
-0.5
-2.5
-3.63
-0.87
-0.28
-2.82
-2.75
1.81

>  <PUBCHEM_SHAPE_SELFOVERLAP>  (1) 
1827.902

>  <PUBCHEM_SHAPE_VOLUME>  (1) 
453.1

>  <PUBCHEM_COORDINATE_TYPE>  (1) 
2
5
10

$$$$
