25217
     RDKit          3D

 27 29  0  0  0  0  0  0  0  0999 V2000
    5.8782    0.2174   -0.8716 Cl  0  0  0  0  0  0  0  0  0  0  0  0
   -6.0881   -0.1056   -2.7239 Cl  0  0  0  0  0  0  0  0  0  0  0  0
    0.3766    3.1946   -0.1921 S   0  0  0  0  0  0  0  0  0  0  0  0
   -2.5559   -0.2583    2.4813 S   0  0  0  0  0  0  0  0  0  0  0  0
    2.7495   -3.5469    0.2184 O   0  0  0  0  0  0  0  0  0  0  0  0
   -0.5685    0.8614    0.9141 N   0  0  0  0  0  0  0  0  0  0  0  0
    0.2735   -0.2561    0.7377 C   0  0  0  0  0  0  0  0  0  0  0  0
   -0.8195    1.8063   -0.1783 C   0  0  0  0  0  0  0  0  0  0  0  0
   -1.3165    1.0512    2.1600 C   0  0  0  0  0  0  0  0  0  0  0  0
    0.9936   -0.7646    1.8187 C   0  0  0  0  0  0  0  0  0  0  0  0
    0.3859   -0.8535   -0.5177 C   0  0  0  0  0  0  0  0  0  0  0  0
    1.8258   -1.8704    1.6445 C   0  0  0  0  0  0  0  0  0  0  0  0
    1.2181   -1.9592   -0.6921 C   0  0  0  0  0  0  0  0  0  0  0  0
    1.9379   -2.4677    0.3890 C   0  0  0  0  0  0  0  0  0  0  0  0
    1.9415    2.3484   -0.3857 C   0  0  0  0  0  0  0  0  0  0  0  0
   -3.5592   -0.2154    1.0036 C   0  0  0  0  0  0  0  0  0  0  0  0
    2.1654    1.5599   -1.5097 C   0  0  0  0  0  0  0  0  0  0  0  0
   -3.2218   -1.0134   -0.0867 C   0  0  0  0  0  0  0  0  0  0  0  0
    2.9247    2.4847    0.5890 C   0  0  0  0  0  0  0  0  0  0  0  0
   -4.6751    0.6158    0.9477 C   0  0  0  0  0  0  0  0  0  0  0  0
    3.3853    0.9006   -1.6605 C   0  0  0  0  0  0  0  0  0  0  0  0
   -4.0053   -0.9801   -1.2401 C   0  0  0  0  0  0  0  0  0  0  0  0
    4.1447    1.8254    0.4382 C   0  0  0  0  0  0  0  0  0  0  0  0
   -5.4587    0.6492   -0.2058 C   0  0  0  0  0  0  0  0  0  0  0  0
    4.3750    1.0333   -0.6865 C   0  0  0  0  0  0  0  0  0  0  0  0
   -5.1238   -0.1487   -1.2998 C   0  0  0  0  0  0  0  0  0  0  0  0
    2.8167   -4.1082   -1.0917 C   0  0  0  0  0  0  0  0  0  0  0  0
  1 25  1  0
  2 26  1  0
  3  8  1  0
  3 15  1  0
  4  9  1  0
  4 16  1  0
  5 14  1  0
  5 27  1  0
  6  7  1  0
  6  8  1  0
  6  9  1  0
  7 10  2  0
  7 11  1  0
 10 12  1  0
 11 13  2  0
 12 14  2  0
 13 14  1  0
 15 17  2  0
 15 19  1  0
 16 18  2  0
 16 20  1  0
 17 21  1  0
 18 22  1  0
 19 23  2  0
 20 24  2  0
 21 25  2  0
 22 26  2  0
 23 25  1  0
 24 26  1  0
M  END
>  <PUBCHEM_COMPOUND_CID>  (1) 
25217

>  <PUBCHEM_CONFORMER_RMSD>  (1) 
1

>  <PUBCHEM_CONFORMER_DIVERSEORDER>  (1) 
2
15
27
40
1
41
31
36
29
16
13
38
4
28
47
24
32
34
21
49
25
22
43
39
37
3
20
42
11
7
14
45
50
33
35
5
48
8
12
44
19
10
26
6
46
9
23
18
30
17

>  <PUBCHEM_MMFF94_PARTIAL_CHARGES>  (1) 
39
1 -0.18
10 -0.15
11 -0.15
12 -0.15
13 -0.15
14 0.08
15 0.1
16 0.1
17 -0.15
18 -0.15
19 -0.15
2 -0.18
20 -0.15
21 -0.15
22 -0.15
23 -0.15
24 -0.15
25 0.18
26 0.18
27 0.28
3 -0.33
32 0.15
33 0.15
34 0.15
35 0.15
36 0.15
37 0.15
38 0.15
39 0.15
4 -0.33
40 0.15
41 0.15
42 0.15
43 0.15
5 -0.36
6 -0.84
7 0.1
8 0.6
9 0.6

>  <PUBCHEM_EFFECTIVE_ROTOR_COUNT>  (1) 
8

>  <PUBCHEM_PHARMACOPHORE_FEATURES>  (1) 
5
1 5 acceptor
1 6 cation
6 15 17 19 21 23 25 rings
6 16 18 20 22 24 26 rings
6 7 10 11 12 13 14 rings

>  <PUBCHEM_HEAVY_ATOM_COUNT>  (1) 
27

>  <PUBCHEM_ATOM_DEF_STEREO_COUNT>  (1) 
0

>  <PUBCHEM_ATOM_UDEF_STEREO_COUNT>  (1) 
0

>  <PUBCHEM_BOND_DEF_STEREO_COUNT>  (1) 
0

>  <PUBCHEM_BOND_UDEF_STEREO_COUNT>  (1) 
0

>  <PUBCHEM_ISOTOPIC_ATOM_COUNT>  (1) 
0

>  <PUBCHEM_COMPONENT_COUNT>  (1) 
1

>  <PUBCHEM_CACTVS_TAUTO_COUNT>  (1) 
1

>  <PUBCHEM_CONFORMER_ID>  (1) 
0000628100000002

>  <PUBCHEM_MMFF94_ENERGY>  (1) 
94.5822

>  <PUBCHEM_FEATURE_SELFOVERLAP>  (1) 
25.373

>  <PUBCHEM_SHAPE_FINGERPRINT>  (1) 
10764073 3 15720485734469861106
11578080 2 16806721768378257740
12035759 4 18202286926365476001
12422481 6 17971440028013942216
13257819 101 17023467563590805916
13911987 19 18118421745629515708
14251751 93 18049442840268479091
15163728 17 16154290397423773836
16112460 7 18122914119009387929
1813 80 18195524783794779571
20197701 30 18267018551900402778
20511986 3 17703784838633097677
20905425 154 18120955914384538148
21033648 144 17532661345706536573
22182313 1 17604451651165311683
22393880 68 18268984453190146285
23559900 14 17385723569536930202
23566358 2 18114739313583720061
404807 78 17686884422056031079
4098825 35 18334855001284045181
57527358 35 15768676204261567480
59682541 52 18337090312554673469
59755656 215 18334018263833644398
6669772 16 17200216347084448640
70251023 43 18120378657378394819
7471813 234 18192997015273354146

>  <PUBCHEM_SHAPE_MULTIPOLES>  (1) 
556.24
11.48
3.58
2.16
9.78
2.37
0.2
-1.08
-6.44
-5.21
-0.48
2.24
0.2
-0.43

>  <PUBCHEM_SHAPE_SELFOVERLAP>  (1) 
1137.296

>  <PUBCHEM_SHAPE_VOLUME>  (1) 
324.4

>  <PUBCHEM_COORDINATE_TYPE>  (1) 
2
5
10

$$$$
