25221
     RDKit          3D

 15 15  0  0  0  0  0  0  0  0999 V2000
    1.9461    0.0005   -0.9519 O   0  0  0  0  0  0  0  0  0  0  0  0
    2.3535    0.0001    1.3371 O   0  0  0  0  0  0  0  0  0  0  0  0
   -3.5116    0.0005    0.1357 N   0  0  0  0  0  0  0  0  0  0  0  0
    4.1071    0.0001   -0.1817 N   0  0  0  0  0  0  0  0  0  0  0  0
   -2.1249    0.0004   -0.1409 C   0  0  0  0  0  0  0  0  0  0  0  0
   -1.4406    1.2082   -0.2770 C   0  0  0  0  0  0  0  0  0  0  0  0
   -1.4412   -1.2077   -0.2777 C   0  0  0  0  0  0  0  0  0  0  0  0
   -0.0727    1.2080   -0.5501 C   0  0  0  0  0  0  0  0  0  0  0  0
   -0.0732   -1.2079   -0.5508 C   0  0  0  0  0  0  0  0  0  0  0  0
    0.6109   -0.0001   -0.6872 C   0  0  0  0  0  0  0  0  0  0  0  0
   -2.1458    2.5180   -0.1354 C   0  0  0  0  0  0  0  0  0  0  0  0
   -2.1469   -2.5172   -0.1361 C   0  0  0  0  0  0  0  0  0  0  0  0
   -4.0349   -0.0014    1.4646 C   0  0  0  0  0  0  0  0  0  0  0  0
    2.7771   -0.0007    0.1851 C   0  0  0  0  0  0  0  0  0  0  0  0
    5.1968   -0.0008    0.7663 C   0  0  0  0  0  0  0  0  0  0  0  0
  1 10  1  0
  1 14  1  0
  2 14  2  0
  3  5  1  0
  3 13  1  0
  4 14  1  0
  4 15  1  0
  5  6  2  0
  5  7  1  0
  6  8  1  0
  6 11  1  0
  7  9  2  0
  7 12  1  0
  8 10  2  0
  9 10  1  0
M  END
>  <PUBCHEM_COMPOUND_CID>  (1) 
25221

>  <PUBCHEM_CONFORMER_RMSD>  (1) 
0.6

>  <PUBCHEM_CONFORMER_DIVERSEORDER>  (1) 
1
21
22
19
13
4
16
17
5
18
9
6
14
12
7
10
11
2
15
8
3
20

>  <PUBCHEM_MMFF94_PARTIAL_CHARGES>  (1) 
19
1 -0.23
10 0.08
11 0.14
12 0.14
13 0.37
14 0.78
15 0.3
16 0.15
17 0.15
18 0.4
2 -0.57
28 0.37
3 -0.87
4 -0.73
5 0.1
6 -0.14
7 -0.14
8 -0.15
9 -0.15

>  <PUBCHEM_EFFECTIVE_ROTOR_COUNT>  (1) 
4

>  <PUBCHEM_PHARMACOPHORE_FEATURES>  (1) 
5
1 2 acceptor
1 3 cation
1 3 donor
1 4 donor
6 5 6 7 8 9 10 rings

>  <PUBCHEM_HEAVY_ATOM_COUNT>  (1) 
15

>  <PUBCHEM_ATOM_DEF_STEREO_COUNT>  (1) 
0

>  <PUBCHEM_ATOM_UDEF_STEREO_COUNT>  (1) 
0

>  <PUBCHEM_BOND_DEF_STEREO_COUNT>  (1) 
0

>  <PUBCHEM_BOND_UDEF_STEREO_COUNT>  (1) 
0

>  <PUBCHEM_ISOTOPIC_ATOM_COUNT>  (1) 
0

>  <PUBCHEM_COMPONENT_COUNT>  (1) 
1

>  <PUBCHEM_CACTVS_TAUTO_COUNT>  (1) 
2

>  <PUBCHEM_CONFORMER_ID>  (1) 
0000628500000001

>  <PUBCHEM_MMFF94_ENERGY>  (1) 
58.1228

>  <PUBCHEM_FEATURE_SELFOVERLAP>  (1) 
25.371

>  <PUBCHEM_SHAPE_FINGERPRINT>  (1) 
11132069 177 18272097093093207911
12119455 92 17132112420496876493
12251169 10 18410012143537079556
12390115 104 18057341503800253977
13024252 1 14129055885639500293
13140716 1 18267030642338816425
13581323 91 18334577932083904628
13897977 58 18336551598658961556
14420673 8 17613709324692956218
15042514 8 18337396044985191807
15209294 21 17845948316386483449
15219456 202 18058452006581000478
15375462 189 17894344510220010930
16945 1 18410581686476167159
17804303 29 18342178903237747132
200 152 14996283621690001456
20510252 161 18271527481387437465
20645464 45 17917993875451086183
20645477 56 18343299254310782276
20645477 70 14273725232514249104
20871998 184 18335985276966126989
21501502 16 18125163985358854101
21637258 2 16009031756489991867
21650355 55 18338512061965986327
22112679 90 18194411206422779407
22182313 1 18121231891655144503
22445834 79 17895467042888402114
2334 1 17907023120676176599
23402539 116 18341885303932337703
23419403 2 17269438288155153853
23559900 14 18200033924878975974
23598294 1 18261946336973365760
2748010 2 18049454647291396575
2838139 119 15122954967760454849
77492 1 17676211277620547294
90316 7 18335417984880124293

>  <PUBCHEM_SHAPE_MULTIPOLES>  (1) 
286.99
7.61
1.92
1.02
8.79
0
0.29
0
3.23
-2.17
-0.29
-0.08
0
0

>  <PUBCHEM_SHAPE_SELFOVERLAP>  (1) 
587.094

>  <PUBCHEM_SHAPE_VOLUME>  (1) 
166.5

>  <PUBCHEM_COORDINATE_TYPE>  (1) 
2
5
10

$$$$
