25222
     RDKit          3D

 15 16  0  0  0  0  0  0  0  0999 V2000
   -4.5678    0.0730   -0.1792 O   0  0  0  0  0  0  0  0  0  0  0  0
    4.4816   -1.0507    0.3070 O   0  0  0  0  0  0  0  0  0  0  0  0
    4.4710    1.0503   -0.3288 O   0  0  0  0  0  0  0  0  0  0  0  0
   -1.7683   -0.0123    0.0545 N   0  0  0  0  0  0  0  0  0  0  0  0
    3.8683   -0.0013   -0.0044 N   0  0  0  0  0  0  0  0  0  0  0  0
   -2.4694   -0.9582   -0.8245 C   0  0  0  0  0  0  0  0  0  0  0  0
   -2.4991    1.2249    0.3499 C   0  0  0  0  0  0  0  0  0  0  0  0
   -3.8904   -1.1759   -0.3175 C   0  0  0  0  0  0  0  0  0  0  0  0
   -3.9190    0.8909    0.7938 C   0  0  0  0  0  0  0  0  0  0  0  0
   -0.3697   -0.0096    0.0397 C   0  0  0  0  0  0  0  0  0  0  0  0
    0.3620   -1.1645    0.3815 C   0  0  0  0  0  0  0  0  0  0  0  0
    0.3502    1.1482   -0.3173 C   0  0  0  0  0  0  0  0  0  0  0  0
    1.7568   -1.1617    0.3671 C   0  0  0  0  0  0  0  0  0  0  0  0
    1.7451    1.1510   -0.3320 C   0  0  0  0  0  0  0  0  0  0  0  0
    2.4484   -0.0041    0.0103 C   0  0  0  0  0  0  0  0  0  0  0  0
  1  8  1  0
  1  9  1  0
  2  5  1  0
  3  5  2  0
  4  6  1  0
  4  7  1  0
  4 10  1  0
  5 15  1  0
  6  8  1  0
  7  9  1  0
 10 11  2  0
 10 12  1  0
 11 13  1  0
 12 14  2  0
 13 15  2  0
 14 15  1  0
M  CHG  2   2  -1   5   1
M  END
>  <PUBCHEM_COMPOUND_CID>  (1) 
25222

>  <PUBCHEM_CONFORMER_RMSD>  (1) 
0.6

>  <PUBCHEM_CONFORMER_DIVERSEORDER>  (1) 
1
2

>  <PUBCHEM_MMFF94_PARTIAL_CHARGES>  (1) 
19
1 -0.56
10 0.1
11 -0.15
12 -0.15
13 -0.15
14 -0.15
15 0.13
2 -0.52
24 0.15
25 0.15
26 0.15
27 0.15
3 -0.52
4 -0.84
5 0.91
6 0.37
7 0.37
8 0.28
9 0.28

>  <PUBCHEM_EFFECTIVE_ROTOR_COUNT>  (1) 
3.2

>  <PUBCHEM_PHARMACOPHORE_FEATURES>  (1) 
7
1 1 acceptor
1 2 acceptor
1 2 anion
1 3 acceptor
1 4 cation
6 1 4 6 7 8 9 rings
6 10 11 12 13 14 15 rings

>  <PUBCHEM_HEAVY_ATOM_COUNT>  (1) 
15

>  <PUBCHEM_ATOM_DEF_STEREO_COUNT>  (1) 
0

>  <PUBCHEM_ATOM_UDEF_STEREO_COUNT>  (1) 
0

>  <PUBCHEM_BOND_DEF_STEREO_COUNT>  (1) 
0

>  <PUBCHEM_BOND_UDEF_STEREO_COUNT>  (1) 
0

>  <PUBCHEM_ISOTOPIC_ATOM_COUNT>  (1) 
0

>  <PUBCHEM_COMPONENT_COUNT>  (1) 
1

>  <PUBCHEM_CACTVS_TAUTO_COUNT>  (1) 
1

>  <PUBCHEM_CONFORMER_ID>  (1) 
0000628600000001

>  <PUBCHEM_MMFF94_ENERGY>  (1) 
54.6597

>  <PUBCHEM_FEATURE_SELFOVERLAP>  (1) 
35.602

>  <PUBCHEM_SHAPE_FINGERPRINT>  (1) 
10465860 250 17132111329569915067
11401426 45 18408880750224601476
11471102 20 18259983777748063140
11806522 49 18337106868804467727
12236239 1 18412545410143592749
12500047 106 17060333007507122407
13690532 89 18334292063450738570
13760787 5 17967534566990841174
14144814 61 18411981343329901987
15196674 1 18409730668328156290
15375462 189 18335417937308066530
15536298 74 18271804678729637048
15775835 57 18413111649720319929
17834072 33 18341894129499416876
17862501 102 18411695478627648058
18186145 218 17967531272719399982
18522853 276 18413388743719716321
19026448 4 16702302356206152592
19422 9 18412546517628087230
200 152 18412257363898639335
20279233 1 15936129655822574915
20645477 70 18261949652725190582
21267235 1 18411427223887523295
23402539 116 18201712959657364796
23402655 69 18408600332163429669
23557571 272 16773811276456464057
23559900 14 17775283872621950122
42 15 18413109450385730496
474 4 18043813297763760436
4990 188 18131360687206801742
5104073 3 18411418422966524938
77779 3 18343022185474521678
9981440 41 17329985210362516832

>  <PUBCHEM_SHAPE_MULTIPOLES>  (1) 
281.12
8.81
1.43
0.75
1.25
0
0
0.09
-0.11
-0.1
-0.01
-0.27
0.01
-0.81

>  <PUBCHEM_SHAPE_SELFOVERLAP>  (1) 
589.833

>  <PUBCHEM_SHAPE_VOLUME>  (1) 
158.9

>  <PUBCHEM_COORDINATE_TYPE>  (1) 
2
5
10

$$$$
