25236
     RDKit          3D

 27 28  0  0  1  0  0  0  0  0999 V2000
   -1.3308    1.0690   -1.3889 O   0  0  0  0  0  0  0  0  0  0  0  0
   -2.7658   -2.0025   -1.5705 O   0  0  0  0  0  0  0  0  0  0  0  0
    1.4646    0.7605   -0.8544 N   0  0  0  0  0  0  0  0  0  0  0  0
    0.9417    1.8044   -1.7375 C   0  0  0  0  0  0  0  0  0  0  0  0
    2.8174    0.3796   -1.2641 C   0  0  0  0  0  0  0  0  0  0  0  0
    1.4555    1.2098    0.5328 C   0  0  0  0  0  0  0  0  0  0  0  0
    3.3382   -0.7559   -0.3846 C   0  0  0  0  0  0  0  0  0  0  0  0
    2.3716    2.4202    0.7046 C   0  0  0  0  0  0  0  0  0  0  0  0
   -0.4658    2.1931   -1.2836 C   0  0  0  0  0  0  0  0  0  0  0  0
    0.9567    1.3209   -3.1879 C   0  0  0  0  0  0  0  0  0  0  0  0
    4.7432   -1.1842   -0.8098 C   0  0  0  0  0  0  0  0  0  0  0  0
    2.3603    2.9211    2.1493 C   0  0  0  0  0  0  0  0  0  0  0  0
    5.2829   -2.2901    0.0831 C   0  0  0  0  0  0  0  0  0  0  0  0
    3.2971    4.1040    2.3365 C   0  0  0  0  0  0  0  0  0  0  0  0
   -2.3949    1.0262   -0.5268 C   0  0  0  0  0  0  0  0  0  0  0  0
   -2.9097   -0.1925   -0.0961 C   0  0  0  0  0  0  0  0  0  0  0  0
   -2.9521    2.2232   -0.0876 C   0  0  0  0  0  0  0  0  0  0  0  0
   -3.9925   -0.2145    0.7828 C   0  0  0  0  0  0  0  0  0  0  0  0
   -2.3364   -1.4533   -0.5462 C   0  0  0  0  0  0  0  0  0  0  0  0
   -4.0349    2.2010    0.7915 C   0  0  0  0  0  0  0  0  0  0  0  0
   -4.5551    0.9823    1.2266 C   0  0  0  0  0  0  0  0  0  0  0  0
   -1.2272   -2.1332    0.1863 C   0  0  0  0  0  0  0  0  0  0  0  0
   -0.7330   -1.5438    1.3272 C   0  0  0  0  0  0  0  0  0  0  0  0
   -0.7431   -3.3225   -0.3079 C   0  0  0  0  0  0  0  0  0  0  0  0
    0.3031   -2.1791    2.0117 C   0  0  0  0  0  0  0  0  0  0  0  0
    0.2930   -3.9577    0.3768 C   0  0  0  0  0  0  0  0  0  0  0  0
    0.8160   -3.3859    1.5367 C   0  0  0  0  0  0  0  0  0  0  0  0
  1  9  1  0
  1 15  1  0
  2 19  2  0
  3  4  1  0
  3  5  1  0
  3  6  1  0
  4  9  1  0
  4 10  1  0
  5  7  1  0
  6  8  1  0
  7 11  1  0
  8 12  1  0
 11 13  1  0
 12 14  1  0
 15 16  2  0
 15 17  1  0
 16 18  1  0
 16 19  1  0
 17 20  2  0
 18 21  2  0
 19 22  1  0
 20 21  1  0
 22 23  2  0
 22 24  1  0
 23 25  1  0
 24 26  2  0
 25 27  2  0
 26 27  1  0
M  END
>  <PUBCHEM_COMPOUND_CID>  (1) 
25236

>  <PUBCHEM_CONFORMER_RMSD>  (1) 
1

>  <PUBCHEM_CONFORMER_DIVERSEORDER>  (1) 
10
79
228
193
173
175
98
123
232
258
49
35
190
140
164
266
211
122
157
126
233
38
216
205
184
237
230
185
94
1
78
212
236
114
116
56
178
172
170
253
147
141
55
80
245
60
12
127
139
155
81
95
194
162
72
206
244
252
71
197
134
104
189
153
90
242
226
241
22
251
96
44
111
67
15
107
131
256
196
265
93
89
148
183
269
272
74
238
198
229
195
156
263
210
171
186
165
168
138
270
204
200
76
169
132
268
2
177
115
88
52
234
145
176
133
102
144
7
150
192
180
53
202
191
201
14
130
101
47
119
166
121
199
113
73
23
149
220
152
214
151
100
262
224
271
24
66
110
267
163
32
225
240
143
77
42
213
128
51
125
36
45
158
21
124
167
59
54
84
239
68
5
250
142
58
18
260
181
37
50
146
61
33
46
106
6
219
218
261
87
249
8
83
28
235
117
255
75
82
25
9
4
161
3
135
65
154
17
19
31
243
112
11
30
159
120
209
103
27
43
63
29
99
48
40
215
26
188
39
97
247
85
64
109
217
160
227
13
41
259
221
69
179
105
108
34
62
264
223
92
16
208
118
137
86
57
257
254
20
129
136
231
187
203
91
246
182
207
174
248
70
222

>  <PUBCHEM_MMFF94_PARTIAL_CHARGES>  (1) 
29
1 -0.36
15 0.08
16 0.09
17 -0.15
18 -0.15
19 0.4
2 -0.57
20 -0.15
21 -0.15
22 0.09
23 -0.15
24 -0.15
25 -0.15
26 -0.15
27 -0.15
3 -0.81
4 0.27
5 0.27
52 0.15
53 0.15
54 0.15
55 0.15
56 0.15
57 0.15
58 0.15
59 0.15
6 0.27
60 0.15
9 0.28

>  <PUBCHEM_EFFECTIVE_ROTOR_COUNT>  (1) 
12

>  <PUBCHEM_PHARMACOPHORE_FEATURES>  (1) 
7
1 1 acceptor
1 13 hydrophobe
1 14 hydrophobe
1 2 acceptor
1 3 cation
6 15 16 17 18 20 21 rings
6 22 23 24 25 26 27 rings

>  <PUBCHEM_HEAVY_ATOM_COUNT>  (1) 
27

>  <PUBCHEM_ATOM_DEF_STEREO_COUNT>  (1) 
0

>  <PUBCHEM_ATOM_UDEF_STEREO_COUNT>  (1) 
1

>  <PUBCHEM_BOND_DEF_STEREO_COUNT>  (1) 
0

>  <PUBCHEM_BOND_UDEF_STEREO_COUNT>  (1) 
0

>  <PUBCHEM_ISOTOPIC_ATOM_COUNT>  (1) 
0

>  <PUBCHEM_COMPONENT_COUNT>  (1) 
1

>  <PUBCHEM_CACTVS_TAUTO_COUNT>  (1) 
1

>  <PUBCHEM_CONFORMER_ID>  (1) 
000062940000000A

>  <PUBCHEM_MMFF94_ENERGY>  (1) 
77.4797

>  <PUBCHEM_FEATURE_SELFOVERLAP>  (1) 
35.52

>  <PUBCHEM_SHAPE_FINGERPRINT>  (1) 
11578080 2 17910136898936177520
12156800 1 15612087343935432950
12422481 6 17753880619982409282
12633257 1 17988933248973543445
12788726 201 17324376584759102347
12930653 34 17839739610395145720
13140716 1 18261690232753171981
14081887 123 17907855463468140104
14178342 30 17904764727834627048
14955137 171 18196376922501896003
15209289 33 18336550434427113382
15295992 7 18341629143102583499
17974551 9 18340774848532699454
20905425 154 17756718437839488375
23557571 272 17617382122297573522
23559900 14 18193838369692571684
35225 105 17693988250269412769
5265222 85 18189639206047300972
57527585 103 17026557298449700210
81228 2 17901948865744798435
9981440 41 17624683944900690672

>  <PUBCHEM_SHAPE_MULTIPOLES>  (1) 
538.93
7.82
5.11
2.27
1.67
1.07
0.4
-1.25
-1.25
2.81
-2.73
1.23
-1.6
1

>  <PUBCHEM_SHAPE_SELFOVERLAP>  (1) 
1110.032

>  <PUBCHEM_SHAPE_VOLUME>  (1) 
311.6

>  <PUBCHEM_COORDINATE_TYPE>  (1) 
2
5
10

$$$$
