25238
     RDKit          3D

 21 22  0  0  0  0  0  0  0  0999 V2000
   -0.1703   -1.1367    1.1014 O   0  0  0  0  0  0  0  0  0  0  0  0
    1.2225   -1.9642   -1.1568 O   0  0  0  0  0  0  0  0  0  0  0  0
   -0.9484    0.7084   -0.1067 O   0  0  0  0  0  0  0  0  0  0  0  0
    3.6909    0.2260    0.4158 C   0  0  0  0  0  0  0  0  0  0  0  0
    1.1291   -0.6829    0.8631 C   0  0  0  0  0  0  0  0  0  0  0  0
    1.7963   -1.1103   -0.2638 C   0  0  0  0  0  0  0  0  0  0  0  0
    5.0776    0.7180    0.1729 C   0  0  0  0  0  0  0  0  0  0  0  0
    3.0934   -0.6501   -0.4904 C   0  0  0  0  0  0  0  0  0  0  0  0
   -2.5085   -0.8962    0.8556 C   0  0  0  0  0  0  0  0  0  0  0  0
    2.9915    0.6419    1.5486 C   0  0  0  0  0  0  0  0  0  0  0  0
   -3.6364   -0.1279    0.2538 C   0  0  0  0  0  0  0  0  0  0  0  0
    1.6943    0.1818    1.7752 C   0  0  0  0  0  0  0  0  0  0  0  0
   -1.1442   -0.3136    0.5374 C   0  0  0  0  0  0  0  0  0  0  0  0
   -4.2256    0.9175    0.9648 C   0  0  0  0  0  0  0  0  0  0  0  0
   -4.1021   -0.4547   -1.0196 C   0  0  0  0  0  0  0  0  0  0  0  0
    5.1194    1.9913   -0.6317 C   0  0  0  0  0  0  0  0  0  0  0  0
   -5.2805    1.6362    0.4023 C   0  0  0  0  0  0  0  0  0  0  0  0
   -5.1570    0.2640   -1.5822 C   0  0  0  0  0  0  0  0  0  0  0  0
   -5.7462    1.3095   -0.8713 C   0  0  0  0  0  0  0  0  0  0  0  0
    1.4119   -3.3599   -0.9326 C   0  0  0  0  0  0  0  0  0  0  0  0
    5.6925    2.1017   -1.8355 C   0  0  0  0  0  0  0  0  0  0  0  0
  1  5  1  0
  1 13  1  0
  2  6  1  0
  2 20  1  0
  3 13  2  0
  4  7  1  0
  4  8  2  0
  4 10  1  0
  5  6  2  0
  5 12  1  0
  6  8  1  0
  7 16  1  0
  9 11  1  0
  9 13  1  0
 10 12  2  0
 11 14  2  0
 11 15  1  0
 14 17  1  0
 15 18  2  0
 16 21  2  0
 17 19  2  0
 18 19  1  0
M  END
>  <PUBCHEM_COMPOUND_CID>  (1) 
25238

>  <PUBCHEM_CONFORMER_RMSD>  (1) 
0.8

>  <PUBCHEM_CONFORMER_DIVERSEORDER>  (1) 
1
247
152
95
222
251
185
106
262
118
91
155
130
171
75
181
53
242
252
63
125
7
233
85
217
64
184
166
108
21
202
199
112
77
226
142
126
122
161
46
224
246
178
71
144
205
67
259
173
98
216
180
203
196
146
121
177
148
56
109
115
195
140
39
147
239
198
254
34
105
128
60
129
141
170
104
223
119
187
22
26
227
219
51
211
107
153
225
258
208
159
157
100
235
37
236
44
110
174
194
237
209
230
218
189
138
80
73
186
18
240
165
175
151
13
200
215
231
139
117
103
59
204
23
96
220
74
52
93
134
212
214
260
43
201
33
36
94
30
113
245
83
243
25
169
78
57
158
16
41
179
89
47
131
232
62
28
65
97
120
137
88
249
3
234
40
61
149
79
102
163
127
172
76
188
101
244
17
81
192
48
206
45
12
70
248
92
99
72
168
207
38
156
68
54
84
135
210
154
11
213
164
29
2
229
136
197
145
238
256
32
176
82
27
193
183
69
10
162
191
160
167
123
133
4
143
253
35
24
111
55
124
14
241
132
86
221
8
58
228
66
19
49
50
87
90
250
150
20
9
114
182
6
190
261
42
257
31
116
15
5
255

>  <PUBCHEM_MMFF94_PARTIAL_CHARGES>  (1) 
32
1 -0.23
10 -0.15
11 -0.14
12 -0.15
13 0.66
14 -0.15
15 -0.15
16 -0.29
17 -0.15
18 -0.15
19 -0.15
2 -0.36
20 0.28
21 -0.3
24 0.15
27 0.15
28 0.15
29 0.15
3 -0.57
30 0.15
31 0.15
32 0.15
33 0.15
34 0.15
38 0.15
39 0.15
4 -0.14
5 0.08
6 0.08
7 0.28
8 -0.15
9 0.2

>  <PUBCHEM_EFFECTIVE_ROTOR_COUNT>  (1) 
7

>  <PUBCHEM_PHARMACOPHORE_FEATURES>  (1) 
5
1 2 acceptor
1 21 hydrophobe
1 3 acceptor
6 11 14 15 17 18 19 rings
6 4 5 6 8 10 12 rings

>  <PUBCHEM_HEAVY_ATOM_COUNT>  (1) 
21

>  <PUBCHEM_ATOM_DEF_STEREO_COUNT>  (1) 
0

>  <PUBCHEM_ATOM_UDEF_STEREO_COUNT>  (1) 
0

>  <PUBCHEM_BOND_DEF_STEREO_COUNT>  (1) 
0

>  <PUBCHEM_BOND_UDEF_STEREO_COUNT>  (1) 
0

>  <PUBCHEM_ISOTOPIC_ATOM_COUNT>  (1) 
0

>  <PUBCHEM_COMPONENT_COUNT>  (1) 
1

>  <PUBCHEM_CACTVS_TAUTO_COUNT>  (1) 
1

>  <PUBCHEM_CONFORMER_ID>  (1) 
0000629600000001

>  <PUBCHEM_MMFF94_ENERGY>  (1) 
64.2979

>  <PUBCHEM_FEATURE_SELFOVERLAP>  (1) 
25.372

>  <PUBCHEM_SHAPE_FINGERPRINT>  (1) 
10366900 7 17989201547359511169
10693767 8 16702029617573030078
10906281 52 18334307456450315497
11796584 16 11455074384734830424
12507557 5 12540692609589524439
12596602 18 16805323305620941473
12730499 353 18272093785916123387
12892183 10 14779813949935404048
12895836 83 18267592497461114836
13103583 49 10881393206363495015
13668630 136 14836397060864873893
13675066 3 15285635465537485523
13955234 65 17023454240818525730
14251751 18 11311788254090769172
14251764 30 11672067440882157452
14341114 176 12901832658166736235
14528608 73 18060131059373104345
15188451 53 11530773621877984913
15375358 24 18408040689324322227
15475509 35 10519989232093553460
15475509 84 16083024349386056588
15961568 22 18113338608784897549
1601671 61 18408040736558659608
17870717 6 15913326897428470733
17980427 23 17531250629047913199
18335252 98 18413671314978860147
20567600 247 13183027306546589764
20645477 70 17489022652628209415
21637258 2 12823022989129726188
22393880 68 17060046073616370319
23402655 69 17846498106327825707
23503953 91 13551479137919133345
23559900 14 18334860468166139570
2838139 119 18187926231197966524
2916195 48 17603587451979063785
29717793 49 14692572125919180977
3060560 45 17775277275225285218
316301 35 10303511914875396277
33382 64 12175633884121732172
3472631 163 17894629274962322133
34797466 226 16343413016294300737
4280585 95 15765584239529158022
4990 188 16128656370760073200
5104073 3 16081082692738306736
5718773 13 14116700648547759020
5924683 9 14707220928896614529
7495541 125 9223224152720402618
7970288 3 12607393425821450341
8863177 126 10231456541346129533
960060 61 17775568619767810140

>  <PUBCHEM_SHAPE_MULTIPOLES>  (1) 
414.56
14.04
2.25
1.58
5.43
1.17
-0.07
-10.91
-5
-2.01
-1.12
-0.47
-0.19
-0.7

>  <PUBCHEM_SHAPE_SELFOVERLAP>  (1) 
875.3

>  <PUBCHEM_SHAPE_VOLUME>  (1) 
229.7

>  <PUBCHEM_COORDINATE_TYPE>  (1) 
2
5
10

$$$$
