25239
     RDKit          3D

 13 13  0  0  1  0  0  0  0  0999 V2000
    1.7617   -0.0884    0.4545 O   0  0  0  0  0  0  0  0  0  0  0  0
    3.7027   -0.1203   -0.7980 O   0  0  0  0  0  0  0  0  0  0  0  0
   -0.0471    1.5154    0.3293 C   0  0  0  0  0  0  0  0  0  0  0  0
   -1.1057    0.4852    0.1232 C   0  0  0  0  0  0  0  0  0  0  0  0
    1.3304    1.0854   -0.2252 C   0  0  0  0  0  0  0  0  0  0  0  0
   -0.4413    2.8797   -0.2716 C   0  0  0  0  0  0  0  0  0  0  0  0
   -2.1112    0.3183    1.0754 C   0  0  0  0  0  0  0  0  0  0  0  0
   -1.0906   -0.3111   -1.0221 C   0  0  0  0  0  0  0  0  0  0  0  0
   -3.1014   -0.6451    0.8826 C   0  0  0  0  0  0  0  0  0  0  0  0
   -2.0809   -1.2744   -1.2148 C   0  0  0  0  0  0  0  0  0  0  0  0
   -3.0863   -1.4413   -0.2624 C   0  0  0  0  0  0  0  0  0  0  0  0
    2.9735   -0.5878    0.0663 C   0  0  0  0  0  0  0  0  0  0  0  0
    3.2961   -1.8156    0.8627 C   0  0  0  0  0  0  0  0  0  0  0  0
  1  5  1  0
  1 12  1  0
  2 12  2  0
  3  4  1  0
  3  5  1  0
  3  6  1  0
  4  7  2  0
  4  8  1  0
  7  9  1  0
  8 10  2  0
  9 11  2  0
 10 11  1  0
 12 13  1  0
M  END
>  <PUBCHEM_COMPOUND_CID>  (1) 
25239

>  <PUBCHEM_CONFORMER_RMSD>  (1) 
0.6

>  <PUBCHEM_CONFORMER_DIVERSEORDER>  (1) 
1
7
9
35
14
29
43
8
5
13
18
26
21
24
12
32
20
27
17
34
11
16
28
40
42
15
37
39
10
22
38
31
36
6
30
3
25
41
23
19
33
2
4

>  <PUBCHEM_MMFF94_PARTIAL_CHARGES>  (1) 
17
1 -0.43
10 -0.15
11 -0.15
12 0.66
13 0.06
2 -0.57
20 0.15
21 0.15
22 0.15
23 0.15
24 0.15
3 0.14
4 -0.14
5 0.28
7 -0.15
8 -0.15
9 -0.15

>  <PUBCHEM_EFFECTIVE_ROTOR_COUNT>  (1) 
4

>  <PUBCHEM_PHARMACOPHORE_FEATURES>  (1) 
3
1 2 acceptor
1 6 hydrophobe
6 4 7 8 9 10 11 rings

>  <PUBCHEM_HEAVY_ATOM_COUNT>  (1) 
13

>  <PUBCHEM_ATOM_DEF_STEREO_COUNT>  (1) 
0

>  <PUBCHEM_ATOM_UDEF_STEREO_COUNT>  (1) 
1

>  <PUBCHEM_BOND_DEF_STEREO_COUNT>  (1) 
0

>  <PUBCHEM_BOND_UDEF_STEREO_COUNT>  (1) 
0

>  <PUBCHEM_ISOTOPIC_ATOM_COUNT>  (1) 
0

>  <PUBCHEM_COMPONENT_COUNT>  (1) 
1

>  <PUBCHEM_CACTVS_TAUTO_COUNT>  (1) 
1

>  <PUBCHEM_CONFORMER_ID>  (1) 
0000629700000001

>  <PUBCHEM_MMFF94_ENERGY>  (1) 
28.0557

>  <PUBCHEM_FEATURE_SELFOVERLAP>  (1) 
15.223

>  <PUBCHEM_SHAPE_FINGERPRINT>  (1) 
11357001 24 18192711146302506792
12119455 92 12391240348726904809
12202030 40 17314514935941056803
12553582 1 18410573994021311418
12932764 1 18271522010057687448
14123260 362 10087339176091015778
15375462 189 18411425033237710370
16945 1 17489318481395847649
18186145 218 8646503928494331456
19107657 47 12535355558251379030
19107657 9 8790888518489086042
20281407 28 18412542102607376832
20361792 2 18411412951215144829
20645464 45 14404916803276152047
20645477 70 17903905996827855367
20653085 51 8502378870562608184
20711985 344 18044073701398658825
20871998 184 18270685238221447044
21524375 3 17471000385427813804
21731516 1 18411132528753412834
22445834 79 18056481879280762185
23463225 33 18342462555573076815
23500284 5 18335700486121650610
23552423 10 17766558328405673989
23598291 2 18199764702710821789
23728640 28 17688852156193373498
449060 23 18202570591870615742
603831 33 18260552195532533790
7364860 26 17841995782053034520
81228 2 18191006941924032305

>  <PUBCHEM_SHAPE_MULTIPOLES>  (1) 
255.8
5.74
2.21
1.09
3.73
1.37
-0.04
-3.88
0.49
0.04
-0.08
-0.39
-0.26
-0.67

>  <PUBCHEM_SHAPE_SELFOVERLAP>  (1) 
517.84

>  <PUBCHEM_SHAPE_VOLUME>  (1) 
149.2

>  <PUBCHEM_COORDINATE_TYPE>  (1) 
2
5
10

$$$$
