25246
     RDKit          3D

  8  7  0  0  1  0  0  0  0  0999 V2000
   -0.4454    1.9239    0.0603 Cl  0  0  0  0  0  0  0  0  0  0  0  0
   -2.8351   -0.3907   -0.4529 Cl  0  0  0  0  0  0  0  0  0  0  0  0
    1.6421   -1.4227    0.0074 O   0  0  0  0  0  0  0  0  0  0  0  0
    2.0603    0.7265   -0.5591 O   0  0  0  0  0  0  0  0  0  0  0  0
   -0.1831    0.1509    0.2069 C   0  0  0  0  0  0  0  0  0  0  0  0
   -1.0944   -0.6198   -0.7619 C   0  0  0  0  0  0  0  0  0  0  0  0
   -0.4162   -0.2404    1.6707 C   0  0  0  0  0  0  0  0  0  0  0  0
    1.2718   -0.1277   -0.1715 C   0  0  0  0  0  0  0  0  0  0  0  0
  1  5  1  0
  2  6  1  0
  3  8  1  0
  4  8  2  0
  5  6  1  0
  5  7  1  0
  5  8  1  0
M  END
>  <PUBCHEM_COMPOUND_CID>  (1) 
25246

>  <PUBCHEM_CONFORMER_RMSD>  (1) 
0.4

>  <PUBCHEM_CONFORMER_DIVERSEORDER>  (1) 
1
9
12
8
3
5
7
6
4
2
13
10
11

>  <PUBCHEM_MMFF94_PARTIAL_CHARGES>  (1) 
8
1 -0.29
14 0.5
2 -0.29
3 -0.65
4 -0.57
5 0.35
6 0.29
8 0.66

>  <PUBCHEM_EFFECTIVE_ROTOR_COUNT>  (1) 
2

>  <PUBCHEM_PHARMACOPHORE_FEATURES>  (1) 
3
1 3 acceptor
1 4 acceptor
3 3 4 8 anion

>  <PUBCHEM_HEAVY_ATOM_COUNT>  (1) 
8

>  <PUBCHEM_ATOM_DEF_STEREO_COUNT>  (1) 
0

>  <PUBCHEM_ATOM_UDEF_STEREO_COUNT>  (1) 
1

>  <PUBCHEM_BOND_DEF_STEREO_COUNT>  (1) 
0

>  <PUBCHEM_BOND_UDEF_STEREO_COUNT>  (1) 
0

>  <PUBCHEM_ISOTOPIC_ATOM_COUNT>  (1) 
0

>  <PUBCHEM_COMPONENT_COUNT>  (1) 
1

>  <PUBCHEM_CACTVS_TAUTO_COUNT>  (1) 
1

>  <PUBCHEM_CONFORMER_ID>  (1) 
0000629E00000001

>  <PUBCHEM_MMFF94_ENERGY>  (1) 
14.0833

>  <PUBCHEM_FEATURE_SELFOVERLAP>  (1) 
15.284

>  <PUBCHEM_SHAPE_FINGERPRINT>  (1) 
137420 1 10536703912820798312
14128692 85 17559113404962808557
18185500 45 18200874083830383926
20653091 64 17201346619357499603
23552333 60 18202283601992385946
23552423 10 18264208010916695399
23552449 11 16342555401514184635
24536 1 17677353644231646212
29004967 10 18338236067362218739
5943 1 12256360194898868689
68250623 7 18120663430857787691

>  <PUBCHEM_SHAPE_MULTIPOLES>  (1) 
156.64
2.8
1.46
1.11
1.12
0.66
-0.55
-0.67
0.82
-0.19
0.08
0.14
-0.08
-0.17

>  <PUBCHEM_SHAPE_SELFOVERLAP>  (1) 
277.792

>  <PUBCHEM_SHAPE_VOLUME>  (1) 
103.1

>  <PUBCHEM_COORDINATE_TYPE>  (1) 
2
5
10

$$$$
