25241
     RDKit          3D

 23 24  0  0  1  0  0  0  0  0999 V2000
   -5.2083    1.0077    0.1357 N   0  0  0  0  0  0  0  0  0  0  0  0
    0.1381   -3.5206   -1.5071 N   0  0  0  0  0  0  0  0  0  0  0  0
    0.6684   -1.4886    0.1134 C   0  0  0  0  0  0  0  0  0  0  0  0
    1.6334   -2.0105    1.2613 C   0  0  0  0  0  0  0  0  0  0  0  0
   -0.7012   -1.0331    0.7318 C   0  0  0  0  0  0  0  0  0  0  0  0
    1.3379   -0.2914   -0.6023 C   0  0  0  0  0  0  0  0  0  0  0  0
   -1.7305   -0.4910   -0.2784 C   0  0  0  0  0  0  0  0  0  0  0  0
   -2.9897    0.0105    0.4361 C   0  0  0  0  0  0  0  0  0  0  0  0
    3.0009   -2.5079    0.7609 C   0  0  0  0  0  0  0  0  0  0  0  0
    1.0022   -3.1162    2.1289 C   0  0  0  0  0  0  0  0  0  0  0  0
    1.6773    0.8411    0.1072 C   0  0  0  0  0  0  0  0  0  0  0  0
    0.3719   -2.6257   -0.8052 C   0  0  0  0  0  0  0  0  0  0  0  0
    1.5538   -0.4536   -1.9487 C   0  0  0  0  0  0  0  0  0  0  0  0
   -4.0274    0.5166   -0.5644 C   0  0  0  0  0  0  0  0  0  0  0  0
    2.2876    1.9010   -0.6048 C   0  0  0  0  0  0  0  0  0  0  0  0
    2.1543    0.5884   -2.6489 C   0  0  0  0  0  0  0  0  0  0  0  0
    1.4459    0.9829    1.4852 C   0  0  0  0  0  0  0  0  0  0  0  0
    2.5193    1.7587   -1.9826 C   0  0  0  0  0  0  0  0  0  0  0  0
    2.6482    3.0716    0.0821 C   0  0  0  0  0  0  0  0  0  0  0  0
    1.8104    2.1533    2.1514 C   0  0  0  0  0  0  0  0  0  0  0  0
    2.4103    3.1957    1.4512 C   0  0  0  0  0  0  0  0  0  0  0  0
   -5.8343   -0.0675    0.9075 C   0  0  0  0  0  0  0  0  0  0  0  0
   -6.1686    1.5785   -0.8104 C   0  0  0  0  0  0  0  0  0  0  0  0
  1 14  1  0
  1 22  1  0
  1 23  1  0
  2 12  3  0
  3  4  1  0
  3  5  1  0
  3  6  1  0
  3 12  1  0
  4  9  1  0
  4 10  1  0
  5  7  1  0
  6 11  2  0
  6 13  1  0
  7  8  1  0
  8 14  1  0
 11 15  1  0
 11 17  1  0
 13 16  2  0
 15 18  2  0
 15 19  1  0
 16 18  1  0
 17 20  2  0
 19 21  2  0
 20 21  1  0
M  END
>  <PUBCHEM_COMPOUND_CID>  (1) 
25241

>  <PUBCHEM_CONFORMER_RMSD>  (1) 
0.8

>  <PUBCHEM_CONFORMER_DIVERSEORDER>  (1) 
2
27
60
48
35
30
23
25
51
44
32
36
56
3
16
34
22
18
39
9
55
6
47
38
58
63
41
1
33
61
28
54
17
19
8
50
40
4
31
64
53
15
49
10
42
52
13
37
46
7
65
45
5
59
29
20
21
57
43
26
12
62
24
11
14

>  <PUBCHEM_MMFF94_PARTIAL_CHARGES>  (1) 
22
1 -0.81
12 0.36
13 -0.15
14 0.27
16 -0.15
17 -0.15
18 -0.15
19 -0.15
2 -0.56
20 -0.15
21 -0.15
22 0.27
23 0.27
3 0.34
37 0.15
40 0.15
41 0.15
42 0.15
43 0.15
44 0.15
45 0.15
6 -0.14

>  <PUBCHEM_EFFECTIVE_ROTOR_COUNT>  (1) 
7

>  <PUBCHEM_PHARMACOPHORE_FEATURES>  (1) 
6
1 1 cation
1 2 acceptor
3 4 9 10 hydrophobe
5 3 4 5 7 8 hydrophobe
6 11 15 17 19 20 21 rings
6 6 11 13 15 16 18 rings

>  <PUBCHEM_HEAVY_ATOM_COUNT>  (1) 
23

>  <PUBCHEM_ATOM_DEF_STEREO_COUNT>  (1) 
0

>  <PUBCHEM_ATOM_UDEF_STEREO_COUNT>  (1) 
1

>  <PUBCHEM_BOND_DEF_STEREO_COUNT>  (1) 
0

>  <PUBCHEM_BOND_UDEF_STEREO_COUNT>  (1) 
0

>  <PUBCHEM_ISOTOPIC_ATOM_COUNT>  (1) 
0

>  <PUBCHEM_COMPONENT_COUNT>  (1) 
1

>  <PUBCHEM_CACTVS_TAUTO_COUNT>  (1) 
1

>  <PUBCHEM_CONFORMER_ID>  (1) 
0000629900000002

>  <PUBCHEM_MMFF94_ENERGY>  (1) 
85.9079

>  <PUBCHEM_FEATURE_SELFOVERLAP>  (1) 
30.473

>  <PUBCHEM_SHAPE_FINGERPRINT>  (1) 
10498660 4 18340774840254533569
11582403 64 16913098663962746296
12633257 1 15502924354890642025
12730499 353 18270133412961036931
13134695 92 18192133915582852019
13294875 104 18340770437775391940
13878862 14 18116693146780500133
13965767 371 17386559301137250589
14004458 79 12029861671513655978
14787075 74 16465813623090045820
14955137 171 18268991999105547270
16945 1 16478871814176108908
17868525 174 17681544845434545913
17980427 23 17129262507896048226
20600515 1 17324349714931846135
21120745 212 17473555646614662386
21756936 100 14927352111388588708
23419403 2 17755264952281782444
23558518 356 17977091685205436906
23559900 14 17604430692052032171
238 59 18270419255407856297
3060560 45 18131635556191670791
3380486 145 17474620063621583686
376196 1 17485918941508820080
427121 178 18337111288289073877
495365 180 18341607114616241957
5895379 119 17130435579671653849
6442390 28 18118135890112885651
7808743 9 17902240240458336909
81228 2 17259076610259564314
9999458 23 18334847342740249640

>  <PUBCHEM_SHAPE_MULTIPOLES>  (1) 
463.37
8.42
4.02
2.21
23.86
1.39
-0.43
-5.86
-0.1
-3.94
1.1
-2.03
-0.15
0.22

>  <PUBCHEM_SHAPE_SELFOVERLAP>  (1) 
965.344

>  <PUBCHEM_SHAPE_VOLUME>  (1) 
263

>  <PUBCHEM_COORDINATE_TYPE>  (1) 
2
5
10

$$$$
