25250
     RDKit          3D

 11 10  0  0  0  0  0  0  0  0999 V2000
    3.1123   -2.3240   -0.9411 Cl  0  0  0  0  0  0  0  0  0  0  0  0
   -0.2107   -0.0497    0.7395 P   0  0  0  0  0  0  0  0  0  0  0  0
    0.4479    1.4225    0.6021 O   0  0  0  0  0  0  0  0  0  0  0  0
   -1.6351    0.0926   -0.0163 O   0  0  0  0  0  0  0  0  0  0  0  0
   -0.3057   -0.5329    2.1584 O   0  0  0  0  0  0  0  0  0  0  0  0
    0.7682   -1.1030   -0.3142 C   0  0  0  0  0  0  0  0  0  0  0  0
    2.2049   -1.2508    0.1487 C   0  0  0  0  0  0  0  0  0  0  0  0
    0.5161    2.0747   -0.6533 C   0  0  0  0  0  0  0  0  0  0  0  0
   -2.3987   -1.0733   -0.2705 C   0  0  0  0  0  0  0  0  0  0  0  0
    1.1773    3.4245   -0.4725 C   0  0  0  0  0  0  0  0  0  0  0  0
   -3.6765   -0.6806   -0.9809 C   0  0  0  0  0  0  0  0  0  0  0  0
  1  7  1  0
  2  3  1  0
  2  4  1  0
  2  5  2  0
  2  6  1  0
  3  8  1  0
  4  9  1  0
  6  7  1  0
  8 10  1  0
  9 11  1  0
M  END
>  <PUBCHEM_COMPOUND_CID>  (1) 
25250

>  <PUBCHEM_CONFORMER_RMSD>  (1) 
0.6

>  <PUBCHEM_CONFORMER_DIVERSEORDER>  (1) 
1
75
55
76
71
45
70
30
26
66
53
67
22
69
10
78
11
25
41
16
42
20
51
31
19
37
62
56
65
35
47
32
77
2
59
49
63
23
50
5
57
3
34
40
9
54
60
43
68
73
58
38
74
33
8
27
39
72
52
7
46
24
12
36
61
29
15
28
21
13
64
18
14
48
44
4
6
17

>  <PUBCHEM_MMFF94_PARTIAL_CHARGES>  (1) 
8
1 -0.29
2 1.24
3 -0.55
4 -0.55
5 -0.7
7 0.29
8 0.28
9 0.28

>  <PUBCHEM_EFFECTIVE_ROTOR_COUNT>  (1) 
6

>  <PUBCHEM_PHARMACOPHORE_FEATURES>  (1) 
1
1 5 acceptor

>  <PUBCHEM_HEAVY_ATOM_COUNT>  (1) 
11

>  <PUBCHEM_ATOM_DEF_STEREO_COUNT>  (1) 
0

>  <PUBCHEM_ATOM_UDEF_STEREO_COUNT>  (1) 
0

>  <PUBCHEM_BOND_DEF_STEREO_COUNT>  (1) 
0

>  <PUBCHEM_BOND_UDEF_STEREO_COUNT>  (1) 
0

>  <PUBCHEM_ISOTOPIC_ATOM_COUNT>  (1) 
0

>  <PUBCHEM_COMPONENT_COUNT>  (1) 
1

>  <PUBCHEM_CACTVS_TAUTO_COUNT>  (1) 
1

>  <PUBCHEM_CONFORMER_ID>  (1) 
000062A200000001

>  <PUBCHEM_MMFF94_ENERGY>  (1) 
1.8518

>  <PUBCHEM_FEATURE_SELFOVERLAP>  (1) 
5.074

>  <PUBCHEM_SHAPE_FINGERPRINT>  (1) 
1 1 18050003595182213604
100427 49 18120688831669111012
12423570 1 18051101942863120985
14128692 85 18060700606449111327
14817 1 15579782584077364672
17041 50 18263906788276112797
170605 34 17753874310859820253
20524608 308 17402057695325748990
20653085 51 13624113949349254138
20671657 53 18341895160376302047
20711985 344 17977097964078066394
21524375 3 17322371053864387597
23211744 41 17390213068855278081
23418878 81 18051131689822404580
3250762 1 17899148383717098891
58734985 102 18412262865123978694
58734987 140 18410299107371153388
58734987 41 17975132359557719561
68419 9 16985787257067468211
76951 1 17385990763404444610
81228 2 18122908620642971178

>  <PUBCHEM_SHAPE_MULTIPOLES>  (1) 
214.49
4.36
3.28
1.27
1.73
4.01
-0.61
-4.35
2.12
-2.34
1.14
0.14
-0.24
0.07

>  <PUBCHEM_SHAPE_SELFOVERLAP>  (1) 
364.589

>  <PUBCHEM_SHAPE_VOLUME>  (1) 
145.3

>  <PUBCHEM_COORDINATE_TYPE>  (1) 
2
5
10

$$$$
