25258
     RDKit          3D

 10  9  0  0  0  0  0  0  0  0999 V2000
   -1.9190    0.0000    0.0000 N   0  0  0  0  0  0  0  0  0  0  0  0
    1.8903   -0.0114    0.0014 N   0  0  0  0  0  0  0  0  0  0  0  0
   -0.5055    0.5642   -0.0032 C   0  0  0  0  0  0  0  0  0  0  0  0
    0.5126   -0.5573    0.0658 C   0  0  0  0  0  0  0  0  0  0  0  0
   -2.9196    1.1374   -0.1462 C   0  0  0  0  0  0  0  0  0  0  0  0
   -2.0804   -0.9700   -1.1615 C   0  0  0  0  0  0  0  0  0  0  0  0
   -2.1705   -0.7314    1.3106 C   0  0  0  0  0  0  0  0  0  0  0  0
    2.1506    0.9528    1.1673 C   0  0  0  0  0  0  0  0  0  0  0  0
    2.9285   -1.1399    0.0753 C   0  0  0  0  0  0  0  0  0  0  0  0
    2.1130    0.7556   -1.3097 C   0  0  0  0  0  0  0  0  0  0  0  0
  1  3  1  0
  1  5  1  0
  1  6  1  0
  1  7  1  0
  2  4  1  0
  2  8  1  0
  2  9  1  0
  2 10  1  0
  3  4  1  0
M  CHG  2   1   1   2   1
M  END
>  <PUBCHEM_COMPOUND_CID>  (1) 
25258

>  <PUBCHEM_CONFORMER_RMSD>  (1) 
0.6

>  <PUBCHEM_CONFORMER_DIVERSEORDER>  (1) 
1

>  <PUBCHEM_MMFF94_PARTIAL_CHARGES>  (1) 
10
1 -1.01
10 0.5
2 -1.01
3 0.5
4 0.5
5 0.5
6 0.5
7 0.5
8 0.5
9 0.5

>  <PUBCHEM_EFFECTIVE_ROTOR_COUNT>  (1) 
3

>  <PUBCHEM_PHARMACOPHORE_FEATURES>  (1) 
2
1 1 cation
1 2 cation

>  <PUBCHEM_HEAVY_ATOM_COUNT>  (1) 
10

>  <PUBCHEM_ATOM_DEF_STEREO_COUNT>  (1) 
0

>  <PUBCHEM_ATOM_UDEF_STEREO_COUNT>  (1) 
0

>  <PUBCHEM_BOND_DEF_STEREO_COUNT>  (1) 
0

>  <PUBCHEM_BOND_UDEF_STEREO_COUNT>  (1) 
0

>  <PUBCHEM_ISOTOPIC_ATOM_COUNT>  (1) 
0

>  <PUBCHEM_COMPONENT_COUNT>  (1) 
1

>  <PUBCHEM_CACTVS_TAUTO_COUNT>  (1) 
1

>  <PUBCHEM_CONFORMER_ID>  (1) 
000062AA00000001

>  <PUBCHEM_MMFF94_ENERGY>  (1) 
42.3952

>  <PUBCHEM_FEATURE_SELFOVERLAP>  (1) 
10.149

>  <PUBCHEM_SHAPE_FINGERPRINT>  (1) 
10857977 72 18115310102073762177
12897270 3 15625937702688865968
12932741 1 17418376921424229205
12932764 1 18202007658843634820
14325111 11 18201711868804243122
14390081 3 18343576343883310161
15310529 11 18262531376001157647
15775835 57 18201718461547381014
19973954 147 17749398086737017565
20201158 50 16415477129791552742
20653085 51 17274548624806521049
21524375 3 17979356361642422473
23235685 24 17748827371572200787
23235687 12 17275386525190485800
23552423 10 17894915122110446402
24536 1 17967248719289036621
29004967 10 18334297590873123680
3248919 1 17967528008132668359
369184 2 18131627902681086299
5084963 1 18333450924017509802
8030462 33 18409448111024981495

>  <PUBCHEM_SHAPE_MULTIPOLES>  (1) 
195.83
4.93
1.25
1.25
0.01
0.01
0
0
-0.01
0.01
0.01
-0.01
-0.01
0.03

>  <PUBCHEM_SHAPE_SELFOVERLAP>  (1) 
347.95

>  <PUBCHEM_SHAPE_VOLUME>  (1) 
131.5

>  <PUBCHEM_COORDINATE_TYPE>  (1) 
2
5
10

$$$$
