25260
     RDKit          3D

 28 29  0  0  1  0  0  0  0  0999 V2000
   -0.5943   -0.9550   -1.4186 O   0  0  0  0  0  0  0  0  0  0  0  0
   -1.7368   -0.5238    2.5412 O   0  0  0  0  0  0  0  0  0  0  0  0
    3.4338    0.3385   -0.7497 N   0  0  0  0  0  0  0  0  0  0  0  0
    3.9463    0.4762    0.6766 C   0  0  0  0  0  0  0  0  0  0  0  0
    3.1129    1.7171   -1.3088 C   0  0  0  0  0  0  0  0  0  0  0  0
    2.1750   -0.5169   -0.7562 C   0  0  0  0  0  0  0  0  0  0  0  0
    4.5008   -0.3223   -1.6105 C   0  0  0  0  0  0  0  0  0  0  0  0
    4.7432   -0.7672    1.0423 C   0  0  0  0  0  0  0  0  0  0  0  0
    2.0697    2.3834   -0.4242 C   0  0  0  0  0  0  0  0  0  0  0  0
    1.6522   -0.6223   -2.1786 C   0  0  0  0  0  0  0  0  0  0  0  0
    5.2409   -0.6950    2.4853 C   0  0  0  0  0  0  0  0  0  0  0  0
    1.6806    3.7555   -0.9731 C   0  0  0  0  0  0  0  0  0  0  0  0
    0.4162   -1.5071   -2.2511 C   0  0  0  0  0  0  0  0  0  0  0  0
    6.0082   -1.9487    2.8738 C   0  0  0  0  0  0  0  0  0  0  0  0
    0.6119    4.4160   -0.1169 C   0  0  0  0  0  0  0  0  0  0  0  0
   -1.4882   -1.8342   -0.8647 C   0  0  0  0  0  0  0  0  0  0  0  0
   -2.0806   -1.5668    0.3696 C   0  0  0  0  0  0  0  0  0  0  0  0
   -1.7551   -0.3161    1.1173 C   0  0  0  0  0  0  0  0  0  0  0  0
   -1.8035   -3.0077   -1.5499 C   0  0  0  0  0  0  0  0  0  0  0  0
   -2.9884   -2.4727    0.9183 C   0  0  0  0  0  0  0  0  0  0  0  0
   -2.7114   -3.9134   -1.0013 C   0  0  0  0  0  0  0  0  0  0  0  0
   -2.6773    0.8521    0.7905 C   0  0  0  0  0  0  0  0  0  0  0  0
   -3.3038   -3.6460    0.2329 C   0  0  0  0  0  0  0  0  0  0  0  0
   -2.4263    1.6471   -0.3279 C   0  0  0  0  0  0  0  0  0  0  0  0
   -3.7728    1.1264    1.6095 C   0  0  0  0  0  0  0  0  0  0  0  0
   -3.2706    2.7164   -0.6272 C   0  0  0  0  0  0  0  0  0  0  0  0
   -4.6170    2.1957    1.3099 C   0  0  0  0  0  0  0  0  0  0  0  0
   -4.3658    2.9906    0.1915 C   0  0  0  0  0  0  0  0  0  0  0  0
  1 13  1  0
  1 16  1  0
  2 18  1  0
  3  4  1  0
  3  5  1  0
  3  6  1  0
  3  7  1  0
  4  8  1  0
  5  9  1  0
  6 10  1  0
  8 11  1  0
  9 12  1  0
 10 13  1  0
 11 14  1  0
 12 15  1  0
 16 17  2  0
 16 19  1  0
 17 18  1  0
 17 20  1  0
 18 22  1  0
 19 21  2  0
 20 23  2  0
 21 23  1  0
 22 24  2  0
 22 25  1  0
 24 26  1  0
 25 27  2  0
 26 28  2  0
 27 28  1  0
M  CHG  1   3   1
M  END
>  <PUBCHEM_COMPOUND_CID>  (1) 
25260

>  <PUBCHEM_CONFORMER_RMSD>  (1) 
1.2

>  <PUBCHEM_CONFORMER_DIVERSEORDER>  (1) 
5
105
91
44
92
102
27
66
20
59
111
72
14
53
65
45
109
101
58
29
88
117
96
40
116
30
90
79
17
31
54
76
80
43
63
15
71
55
22
4
50
64
97
77
73
35
112
33
89
99
60
6
85
74
38
42
28
62
47
51
106
93
26
37
113
114
108
78
110
16
115
81
107
32
36
104
34
41
23
13
2
69
103
100
86
8
52
48
39
24
83
61
84
75
82
49
94
98
95
11
7
18
19
67
68
25
57
10
12
9
87
21
46
70
56
1
3

>  <PUBCHEM_MMFF94_PARTIAL_CHARGES>  (1) 
31
1 -0.36
13 0.28
16 0.08
17 -0.14
18 0.57
19 -0.15
2 -0.68
20 -0.15
21 -0.15
22 -0.14
23 -0.15
24 -0.15
25 -0.15
26 -0.15
27 -0.15
28 -0.15
3 -1.01
4 0.5
5 0.5
57 0.15
58 0.15
59 0.15
6 0.5
60 0.15
61 0.4
62 0.15
63 0.15
64 0.15
65 0.15
66 0.15
7 0.5

>  <PUBCHEM_EFFECTIVE_ROTOR_COUNT>  (1) 
13

>  <PUBCHEM_PHARMACOPHORE_FEATURES>  (1) 
8
1 1 acceptor
1 14 hydrophobe
1 15 hydrophobe
1 2 acceptor
1 2 donor
1 3 cation
6 16 17 19 20 21 23 rings
6 22 24 25 26 27 28 rings

>  <PUBCHEM_HEAVY_ATOM_COUNT>  (1) 
28

>  <PUBCHEM_ATOM_DEF_STEREO_COUNT>  (1) 
0

>  <PUBCHEM_ATOM_UDEF_STEREO_COUNT>  (1) 
1

>  <PUBCHEM_BOND_DEF_STEREO_COUNT>  (1) 
0

>  <PUBCHEM_BOND_UDEF_STEREO_COUNT>  (1) 
0

>  <PUBCHEM_ISOTOPIC_ATOM_COUNT>  (1) 
0

>  <PUBCHEM_COMPONENT_COUNT>  (1) 
1

>  <PUBCHEM_CACTVS_TAUTO_COUNT>  (1) 
1

>  <PUBCHEM_CONFORMER_ID>  (1) 
000062AC00000005

>  <PUBCHEM_MMFF94_ENERGY>  (1) 
85.5761

>  <PUBCHEM_FEATURE_SELFOVERLAP>  (1) 
40.595

>  <PUBCHEM_SHAPE_FINGERPRINT>  (1) 
10871710 139 17548444925496623629
11582403 64 17749665170227618877
12633257 1 18334863796475299220
12788726 201 18123758805140558247
13004483 165 18125725844897237807
13103583 49 18334846204932839618
15003188 8 18270957934558992902
15219462 58 17606414399353006048
15320294 125 17751637650600281136
15403338 16 17241326837728366481
16728300 4 17389090153649987537
17974551 9 17531263754467852688
19078846 21 18335142012151840708
19315092 285 17758093166909330558
19930381 70 17980221698842002869
21033648 29 17561362885826703426
21304303 282 18197475386875005271
21795232 338 18193254327887859938
229767 44 18048866412776014872
23227448 37 18269573739920066917
23559900 14 17487087606310057678
238918 7 17982445997521078196
3886686 26 18197212547208243882
4371632 12 16200143270866213762
4938544 92 18342160173460369538
508706 21 18271540740119928511
9981440 41 17417233369123263687

>  <PUBCHEM_SHAPE_MULTIPOLES>  (1) 
559.51
10.78
5.27
2.45
11.23
1.53
0.84
-0.68
7.31
-5.2
-1.21
2.76
-1.29
-2.94

>  <PUBCHEM_SHAPE_SELFOVERLAP>  (1) 
1135.416

>  <PUBCHEM_SHAPE_VOLUME>  (1) 
327.6

>  <PUBCHEM_COORDINATE_TYPE>  (1) 
2
5
10

$$$$
