25266
     RDKit          3D

 25 26  0  0  0  0  0  0  0  0999 V2000
    0.9714   -1.6936   -0.8500 O   0  0  0  0  0  0  0  0  0  0  0  0
    2.9257    0.7301   -2.2103 O   0  0  0  0  0  0  0  0  0  0  0  0
   -3.6338   -0.4313   -0.0384 N   0  0  0  0  0  0  0  0  0  0  0  0
   -2.5152   -1.2216    0.4609 C   0  0  0  0  0  0  0  0  0  0  0  0
   -4.9039   -0.9642    0.4577 C   0  0  0  0  0  0  0  0  0  0  0  0
   -3.4869    0.9729    0.3490 C   0  0  0  0  0  0  0  0  0  0  0  0
   -1.3001   -1.0507   -0.4451 C   0  0  0  0  0  0  0  0  0  0  0  0
   -5.2964   -2.2141   -0.3259 C   0  0  0  0  0  0  0  0  0  0  0  0
   -4.2877    1.8688   -0.5925 C   0  0  0  0  0  0  0  0  0  0  0  0
   -0.1204   -1.8826    0.0395 C   0  0  0  0  0  0  0  0  0  0  0  0
   -6.6249   -2.7759    0.1564 C   0  0  0  0  0  0  0  0  0  0  0  0
   -4.1345    3.3365   -0.2241 C   0  0  0  0  0  0  0  0  0  0  0  0
    2.2295   -1.7821   -0.3128 C   0  0  0  0  0  0  0  0  0  0  0  0
    3.1100   -0.7017   -0.3700 C   0  0  0  0  0  0  0  0  0  0  0  0
    2.6245   -2.9723    0.2983 C   0  0  0  0  0  0  0  0  0  0  0  0
    4.3855   -0.8116    0.1841 C   0  0  0  0  0  0  0  0  0  0  0  0
    2.7174    0.5500   -1.0022 C   0  0  0  0  0  0  0  0  0  0  0  0
    3.8999   -3.0820    0.8523 C   0  0  0  0  0  0  0  0  0  0  0  0
    4.7804   -2.0018    0.7952 C   0  0  0  0  0  0  0  0  0  0  0  0
    2.0585    1.6552   -0.2448 C   0  0  0  0  0  0  0  0  0  0  0  0
    1.7994    1.5090    1.1180 C   0  0  0  0  0  0  0  0  0  0  0  0
    1.7024    2.8343   -0.8998 C   0  0  0  0  0  0  0  0  0  0  0  0
    1.1840    2.5416    1.8257 C   0  0  0  0  0  0  0  0  0  0  0  0
    1.0872    3.8667   -0.1919 C   0  0  0  0  0  0  0  0  0  0  0  0
    0.8280    3.7203    1.1708 C   0  0  0  0  0  0  0  0  0  0  0  0
  1 10  1  0
  1 13  1  0
  2 17  2  0
  3  4  1  0
  3  5  1  0
  3  6  1  0
  4  7  1  0
  5  8  1  0
  6  9  1  0
  7 10  1  0
  8 11  1  0
  9 12  1  0
 13 14  2  0
 13 15  1  0
 14 16  1  0
 14 17  1  0
 15 18  2  0
 16 19  2  0
 17 20  1  0
 18 19  1  0
 20 21  2  0
 20 22  1  0
 21 23  1  0
 22 24  2  0
 23 25  2  0
 24 25  1  0
M  END
>  <PUBCHEM_COMPOUND_CID>  (1) 
25266

>  <PUBCHEM_CONFORMER_RMSD>  (1) 
1

>  <PUBCHEM_CONFORMER_DIVERSEORDER>  (1) 
1
63
102
65
132
70
52
19
83
114
60
81
72
64
61
69
2
109
66
131
55
127
33
93
47
100
110
101
108
111
16
43
125
67
42
126
120
37
25
107
87
95
122
82
46
117
32
51
54
75
89
124
74
41
92
29
84
106
79
118
80
99
116
123
30
113
24
21
103
12
96
11
119
36
53
28
18
3
23
38
112
62
115
59
45
8
71
97
10
9
128
121
22
91
58
73
4
90
5
20
17
85
105
94
14
88
77
34
26
104
57
86
35
13
56
40
49
31
15
130
39
27
50
6
44
78
76
129
98
68
48
7

>  <PUBCHEM_MMFF94_PARTIAL_CHARGES>  (1) 
29
1 -0.36
10 0.28
13 0.08
14 0.09
15 -0.15
16 -0.15
17 0.4
18 -0.15
19 -0.15
2 -0.57
20 0.09
21 -0.15
22 -0.15
23 -0.15
24 -0.15
25 -0.15
3 -0.81
4 0.27
46 0.15
47 0.15
48 0.15
49 0.15
5 0.27
50 0.15
51 0.15
52 0.15
53 0.15
54 0.15
6 0.27

>  <PUBCHEM_EFFECTIVE_ROTOR_COUNT>  (1) 
11

>  <PUBCHEM_PHARMACOPHORE_FEATURES>  (1) 
7
1 1 acceptor
1 11 hydrophobe
1 12 hydrophobe
1 2 acceptor
1 3 cation
6 13 14 15 16 18 19 rings
6 20 21 22 23 24 25 rings

>  <PUBCHEM_HEAVY_ATOM_COUNT>  (1) 
25

>  <PUBCHEM_ATOM_DEF_STEREO_COUNT>  (1) 
0

>  <PUBCHEM_ATOM_UDEF_STEREO_COUNT>  (1) 
0

>  <PUBCHEM_BOND_DEF_STEREO_COUNT>  (1) 
0

>  <PUBCHEM_BOND_UDEF_STEREO_COUNT>  (1) 
0

>  <PUBCHEM_ISOTOPIC_ATOM_COUNT>  (1) 
0

>  <PUBCHEM_COMPONENT_COUNT>  (1) 
1

>  <PUBCHEM_CACTVS_TAUTO_COUNT>  (1) 
1

>  <PUBCHEM_CONFORMER_ID>  (1) 
000062B200000001

>  <PUBCHEM_MMFF94_ENERGY>  (1) 
64.8084

>  <PUBCHEM_FEATURE_SELFOVERLAP>  (1) 
35.52

>  <PUBCHEM_SHAPE_FINGERPRINT>  (1) 
10366900 7 18189913070020390715
12035759 4 18046092418443976310
12166972 35 18343867735865816978
12403259 226 18408599262832591453
13402501 40 18048591526321905757
13533116 47 18263926699797789727
1361 2 17619065471064366953
14790565 3 18119534482284703972
17980427 23 17130687556997409534
20715895 44 17831579769459522197
21344244 78 18340474617397514474
23559900 14 18042404793493634403
345986 75 17824805760104560634
350125 39 18411703205743266311
463206 1 18195812860342017761
508706 21 18116416069544338741
57124632 79 18055339486378328224
7495541 125 18411701019336498139
8509985 295 18336825290711514702

>  <PUBCHEM_SHAPE_MULTIPOLES>  (1) 
497.77
11.7
5.28
1.22
17.36
3.31
0.05
-9.49
-0.32
-0.04
-0.91
-1
0.67
-0.25

>  <PUBCHEM_SHAPE_SELFOVERLAP>  (1) 
1022.221

>  <PUBCHEM_SHAPE_VOLUME>  (1) 
288.1

>  <PUBCHEM_COORDINATE_TYPE>  (1) 
2
5
10

$$$$
