25274
     RDKit          3D

  8  8  0  0  0  0  0  0  0  0999 V2000
   -0.1976    1.4660    0.0652 O   0  0  0  0  0  0  0  0  0  0  0  0
   -1.3609   -0.5524   -0.0910 N   0  0  0  0  0  0  0  0  0  0  0  0
   -2.5744   -0.0930   -0.6996 C   0  0  0  0  0  0  0  0  0  0  0  0
   -2.4997   -0.3434    0.7538 C   0  0  0  0  0  0  0  0  0  0  0  0
   -0.2264    0.2401   -0.0128 C   0  0  0  0  0  0  0  0  0  0  0  0
    1.0349   -0.5804   -0.0363 C   0  0  0  0  0  0  0  0  0  0  0  0
    2.2577    0.3184    0.0509 C   0  0  0  0  0  0  0  0  0  0  0  0
    3.5662   -0.4554   -0.0303 C   0  0  0  0  0  0  0  0  0  0  0  0
  1  5  2  0
  2  3  1  0
  2  4  1  0
  2  5  1  0
  3  4  1  0
  5  6  1  0
  6  7  1  0
  7  8  1  0
M  END
>  <PUBCHEM_COMPOUND_CID>  (1) 
25274

>  <PUBCHEM_CONFORMER_RMSD>  (1) 
0.6

>  <PUBCHEM_CONFORMER_DIVERSEORDER>  (1) 
1
19
4
14
12
11
17
18
6
3
16
2
15
7
13
5
9
8
10

>  <PUBCHEM_MMFF94_PARTIAL_CHARGES>  (1) 
10
1 -0.57
10 0.1
11 0.1
12 0.1
2 -0.36
3 -0.05
4 -0.05
5 0.57
6 0.06
9 0.1

>  <PUBCHEM_EFFECTIVE_ROTOR_COUNT>  (1) 
3.6

>  <PUBCHEM_PHARMACOPHORE_FEATURES>  (1) 
2
1 1 acceptor
1 8 hydrophobe

>  <PUBCHEM_HEAVY_ATOM_COUNT>  (1) 
8

>  <PUBCHEM_ATOM_DEF_STEREO_COUNT>  (1) 
0

>  <PUBCHEM_ATOM_UDEF_STEREO_COUNT>  (1) 
0

>  <PUBCHEM_BOND_DEF_STEREO_COUNT>  (1) 
0

>  <PUBCHEM_BOND_UDEF_STEREO_COUNT>  (1) 
0

>  <PUBCHEM_ISOTOPIC_ATOM_COUNT>  (1) 
0

>  <PUBCHEM_COMPONENT_COUNT>  (1) 
1

>  <PUBCHEM_CACTVS_TAUTO_COUNT>  (1) 
1

>  <PUBCHEM_CONFORMER_ID>  (1) 
000062BA00000001

>  <PUBCHEM_MMFF94_ENERGY>  (1) 
17.362

>  <PUBCHEM_FEATURE_SELFOVERLAP>  (1) 
10.148

>  <PUBCHEM_SHAPE_FINGERPRINT>  (1) 
10857977 72 18411410748018189400
11062470 55 17385722491331294254
12897270 3 18260828185450846638
12932764 1 15574708118856034596
14325111 11 18333168379815533974
14390081 3 10881399846235319318
15310529 11 16008740308013767347
23552423 10 18116436929741325026
29004967 10 18335707156195220667
3248919 1 16271930428003294796
5460574 1 9295291642278467350

>  <PUBCHEM_SHAPE_MULTIPOLES>  (1) 
153.79
5.04
0.94
0.74
2.5
0.25
0.01
-0.94
-0.05
0.04
0.03
-0.34
-0.04
0.08

>  <PUBCHEM_SHAPE_SELFOVERLAP>  (1) 
290.777

>  <PUBCHEM_SHAPE_VOLUME>  (1) 
96.8

>  <PUBCHEM_COORDINATE_TYPE>  (1) 
2
5
10

$$$$
