25278
     RDKit          3D

 16 17  0  0  1  0  0  0  0  0999 V2000
   -3.1711    1.0988    0.5103 O   0  0  0  0  0  0  0  0  0  0  0  0
   -3.6123   -0.9594    1.4153 O   0  0  0  0  0  0  0  0  0  0  0  0
    2.2541    1.0648   -0.2813 N   0  0  0  0  0  0  0  0  0  0  0  0
    3.0516   -0.8048    0.4428 N   0  0  0  0  0  0  0  0  0  0  0  0
   -1.0534    0.6762   -0.4035 C   0  0  0  0  0  0  0  0  0  0  0  0
   -1.7075   -0.6584   -0.0626 C   0  0  0  0  0  0  0  0  0  0  0  0
   -0.0510    1.0941    0.6760 C   0  0  0  0  0  0  0  0  0  0  0  0
   -2.2370    1.6226   -0.4399 C   0  0  0  0  0  0  0  0  0  0  0  0
   -2.1371   -1.4428   -1.2945 C   0  0  0  0  0  0  0  0  0  0  0  0
   -2.9239   -0.2297    0.7180 C   0  0  0  0  0  0  0  0  0  0  0  0
    1.3001    0.4607    0.4646 C   0  0  0  0  0  0  0  0  0  0  0  0
   -0.9411   -1.9257   -2.0981 C   0  0  0  0  0  0  0  0  0  0  0  0
    1.7700   -0.7067    0.9285 C   0  0  0  0  0  0  0  0  0  0  0  0
    3.3342    0.2769   -0.2906 C   0  0  0  0  0  0  0  0  0  0  0  0
    2.1623    2.3380   -0.9675 C   0  0  0  0  0  0  0  0  0  0  0  0
    3.9619   -1.9046    0.6825 C   0  0  0  0  0  0  0  0  0  0  0  0
  1  8  1  0
  1 10  1  0
  2 10  2  0
  3 11  1  0
  3 14  1  0
  3 15  1  0
  4 13  1  0
  4 14  2  0
  4 16  1  0
  5  6  1  0
  5  7  1  0
  5  8  1  0
  6  9  1  0
  6 10  1  0
  7 11  1  0
  9 12  1  0
 11 13  2  0
M  CHG  1   4   1
M  END
>  <PUBCHEM_COMPOUND_CID>  (1) 
25278

>  <PUBCHEM_CONFORMER_RMSD>  (1) 
0.6

>  <PUBCHEM_CONFORMER_DIVERSEORDER>  (1) 
3
52
2
63
25
66
57
62
27
71
50
12
39
42
34
9
54
36
19
60
69
31
45
65
38
43
59
20
72
64
73
5
44
21
55
61
29
17
35
67
41
14
47
26
32
8
18
33
13
7
46
48
22
40
51
11
28
30
16
10
24
53
68
1
37
56
70
49
6
23
4
15
58
74

>  <PUBCHEM_MMFF94_PARTIAL_CHARGES>  (1) 
15
1 -0.43
10 0.66
11 0.18
13 0.2
14 0.65
15 0.51
16 0.51
2 -0.57
28 0.15
29 0.15
3 -0.76
4 -0.76
6 0.06
7 0.17
8 0.28

>  <PUBCHEM_EFFECTIVE_ROTOR_COUNT>  (1) 
3.8

>  <PUBCHEM_PHARMACOPHORE_FEATURES>  (1) 
5
1 12 hydrophobe
1 2 acceptor
3 3 4 14 cation
5 1 5 6 8 10 rings
5 3 4 11 13 14 rings

>  <PUBCHEM_HEAVY_ATOM_COUNT>  (1) 
16

>  <PUBCHEM_ATOM_DEF_STEREO_COUNT>  (1) 
0

>  <PUBCHEM_ATOM_UDEF_STEREO_COUNT>  (1) 
2

>  <PUBCHEM_BOND_DEF_STEREO_COUNT>  (1) 
0

>  <PUBCHEM_BOND_UDEF_STEREO_COUNT>  (1) 
0

>  <PUBCHEM_ISOTOPIC_ATOM_COUNT>  (1) 
0

>  <PUBCHEM_COMPONENT_COUNT>  (1) 
1

>  <PUBCHEM_CACTVS_TAUTO_COUNT>  (1) 
2

>  <PUBCHEM_CONFORMER_ID>  (1) 
000062BE00000003

>  <PUBCHEM_MMFF94_ENERGY>  (1) 
21.9146

>  <PUBCHEM_FEATURE_SELFOVERLAP>  (1) 
25.371

>  <PUBCHEM_SHAPE_FINGERPRINT>  (1) 
10922523 26 18339358565697089444
11578080 2 18054475180087183496
12932764 1 18200874083925517728
13296908 3 18334011674984715968
14115302 16 18059853952404449120
14577589 140 18270110215225427551
15279308 51 18411689985375091044
15309172 13 17918001568196520523
15375462 189 18270403913615869848
15775835 57 18272655696186297616
15852999 172 17203037487435434573
16945 1 18190456262823557064
18186145 218 16950279594300610184
18522851 12 18270406121176455222
19422 9 18335710454840938889
20645476 183 18339370750413975958
221490 88 17968391108034291042
232386 152 17917701431555208326
23402539 116 17968651611202776682
23463225 33 18411702071212471710
23566358 27 18115884064455251158
23598291 2 18409165502456648572
2748010 2 17624985936561452150
3286 77 17531250560507524130
45790113 50 18114190752013086189
465052 167 18339654455233418347
6049 1 16950273018584256958
6992083 37 18342450392405081596
7364860 26 18336266833885163984
74978 22 17774994734669566729
81228 2 17344046736000238607
90525 40 18343303656319724191

>  <PUBCHEM_SHAPE_MULTIPOLES>  (1) 
307.57
6.4
2.15
1.38
1.93
0.08
-0.4
-1.52
1.59
0.57
-0.81
-0.64
-0.61
-1.08

>  <PUBCHEM_SHAPE_SELFOVERLAP>  (1) 
640.09

>  <PUBCHEM_SHAPE_VOLUME>  (1) 
180.2

>  <PUBCHEM_COORDINATE_TYPE>  (1) 
2
5
10

$$$$
