25275
     RDKit          3D

 14 14  0  0  0  0  0  0  0  0999 V2000
   -4.0597   -0.0670    0.1884 N   0  0  0  0  0  0  0  0  0  0  0  0
   -0.7347   -2.9183   -0.4703 N   0  0  0  0  0  0  0  0  0  0  0  0
   -0.6225    0.5109    0.2128 C   0  0  0  0  0  0  0  0  0  0  0  0
   -0.9964    1.9418    0.5588 C   0  0  0  0  0  0  0  0  0  0  0  0
    0.8382    0.2736    0.1264 C   0  0  0  0  0  0  0  0  0  0  0  0
    1.4660    0.4011   -1.0974 C   0  0  0  0  0  0  0  0  0  0  0  0
    1.5302   -0.0683    1.2718 C   0  0  0  0  0  0  0  0  0  0  0  0
   -1.2198    2.7967   -0.6821 C   0  0  0  0  0  0  0  0  0  0  0  0
   -1.5101   -0.4977    0.0369 C   0  0  0  0  0  0  0  0  0  0  0  0
    2.8404    0.1776   -1.1789 C   0  0  0  0  0  0  0  0  0  0  0  0
    2.9046   -0.2916    1.1902 C   0  0  0  0  0  0  0  0  0  0  0  0
    3.5597   -0.1687   -0.0353 C   0  0  0  0  0  0  0  0  0  0  0  0
   -2.9165   -0.2562    0.1223 C   0  0  0  0  0  0  0  0  0  0  0  0
   -1.0796   -1.8336   -0.2435 C   0  0  0  0  0  0  0  0  0  0  0  0
  1 13  3  0
  2 14  3  0
  3  4  1  0
  3  5  1  0
  3  9  2  3
  4  8  1  0
  5  6  2  0
  5  7  1  0
  6 10  1  0
  7 11  2  0
  9 13  1  0
  9 14  1  0
 10 12  2  0
 11 12  1  0
M  END
>  <PUBCHEM_COMPOUND_CID>  (1) 
25275

>  <PUBCHEM_CONFORMER_RMSD>  (1) 
0.6

>  <PUBCHEM_CONFORMER_DIVERSEORDER>  (1) 
1
2

>  <PUBCHEM_MMFF94_PARTIAL_CHARGES>  (1) 
18
1 -0.56
10 -0.15
11 -0.15
12 -0.15
13 0.49
14 0.49
17 0.15
18 0.15
2 -0.56
22 0.15
23 0.15
24 0.15
3 -0.17
4 0.14
5 0.03
6 -0.15
7 -0.15
9 0.13

>  <PUBCHEM_EFFECTIVE_ROTOR_COUNT>  (1) 
2

>  <PUBCHEM_PHARMACOPHORE_FEATURES>  (1) 
4
1 1 acceptor
1 2 acceptor
1 8 hydrophobe
6 5 6 7 10 11 12 rings

>  <PUBCHEM_HEAVY_ATOM_COUNT>  (1) 
14

>  <PUBCHEM_ATOM_DEF_STEREO_COUNT>  (1) 
0

>  <PUBCHEM_ATOM_UDEF_STEREO_COUNT>  (1) 
0

>  <PUBCHEM_BOND_DEF_STEREO_COUNT>  (1) 
0

>  <PUBCHEM_BOND_UDEF_STEREO_COUNT>  (1) 
0

>  <PUBCHEM_ISOTOPIC_ATOM_COUNT>  (1) 
0

>  <PUBCHEM_COMPONENT_COUNT>  (1) 
1

>  <PUBCHEM_CACTVS_TAUTO_COUNT>  (1) 
1

>  <PUBCHEM_CONFORMER_ID>  (1) 
000062BB00000001

>  <PUBCHEM_MMFF94_ENERGY>  (1) 
31.8817

>  <PUBCHEM_FEATURE_SELFOVERLAP>  (1) 
20.297

>  <PUBCHEM_SHAPE_FINGERPRINT>  (1) 
11578080 2 17535147289793657572
13380537 58 18340480050594082924
13538477 17 18260547874315554978
13581323 91 18411132515921141594
14614273 12 18192994820777343453
14993402 34 18409730698888832127
15207287 21 17704070694212479158
15375462 175 18340776961250491883
15490181 8 17543896924170201485
16752209 62 18336537223176419021
16945 1 18411125944505147122
193761 8 17763185743948919499
19765921 60 17318190663279081068
20201158 50 17275112729816000966
20510252 161 18272652298946775392
20645476 183 17895484733595352847
20871998 184 18337387132642754765
228727 97 17968674781828905284
23402539 116 18343011194737607653
23419403 2 16333786869434096333
23552423 10 17472135549916028959
23557571 272 18055360390579710568
23559900 14 18201442510869180494
23598294 1 18336825286580526344
2748010 2 18051979121208642399
3250762 1 17690003336709950767
34934 24 18192155008351937212
43471831 8 18266178340307405475
465052 167 18043830881861037187
53812653 8 18334579018504999576
53812654 25 18335132137309876961
7364860 26 17550952924140400217
77492 1 17894633638670297680
81228 2 18341895216189407393
90525 40 18261675852944169526

>  <PUBCHEM_SHAPE_MULTIPOLES>  (1) 
278.15
5.19
2.26
1.1
0.13
0.05
0.04
-0.42
0.23
-1.72
-0.54
0.8
0.1
-0.2

>  <PUBCHEM_SHAPE_SELFOVERLAP>  (1) 
578.293

>  <PUBCHEM_SHAPE_VOLUME>  (1) 
154.3

>  <PUBCHEM_COORDINATE_TYPE>  (1) 
2
5
10

$$$$
