25276
     RDKit          3D

 13 13  0  0  0  0  0  0  0  0999 V2000
    3.5397    0.0252    0.1512 Si  0  0  0  0  0  4  0  0  0  0  0  0
    2.0410   -0.2480   -0.6441 N   0  0  0  0  0  0  0  0  0  0  0  0
    0.7277   -0.1261   -0.0257 C   0  0  0  0  0  0  0  0  0  0  0  0
    4.8997    0.1073   -1.1325 C   0  0  0  0  0  0  0  0  0  0  0  0
    3.8796   -1.3819    1.3356 C   0  0  0  0  0  0  0  0  0  0  0  0
    3.4693    1.6410    1.0905 C   0  0  0  0  0  0  0  0  0  0  0  0
   -0.3764   -0.1306   -1.0819 C   0  0  0  0  0  0  0  0  0  0  0  0
   -1.7625   -0.0524   -0.4900 C   0  0  0  0  0  0  0  0  0  0  0  0
   -2.4323   -1.2233   -0.1710 C   0  0  0  0  0  0  0  0  0  0  0  0
   -2.3414    1.1887   -0.2761 C   0  0  0  0  0  0  0  0  0  0  0  0
   -3.7134   -1.1512    0.3761 C   0  0  0  0  0  0  0  0  0  0  0  0
   -3.6225    1.2606    0.2709 C   0  0  0  0  0  0  0  0  0  0  0  0
   -4.3086    0.0908    0.5971 C   0  0  0  0  0  0  0  0  0  0  0  0
  1  2  1  0
  1  4  1  0
  1  5  1  0
  1  6  1  0
  2  3  1  0
  3  7  1  0
  7  8  1  0
  8  9  2  0
  8 10  1  0
  9 11  1  0
 10 12  2  0
 11 13  2  0
 12 13  1  0
M  END
>  <PUBCHEM_COMPOUND_CID>  (1) 
25276

>  <PUBCHEM_CONFORMER_RMSD>  (1) 
0.6

>  <PUBCHEM_CONFORMER_DIVERSEORDER>  (1) 
1
11
9
6
8
7
5
10
2
4
3

>  <PUBCHEM_MMFF94_PARTIAL_CHARGES>  (1) 
19
1 0.59
10 -0.15
11 -0.15
12 -0.15
13 -0.15
14 0.36
2 -0.98
28 0.15
29 0.15
3 0.27
30 0.15
31 0.15
32 0.15
4 -0.08
5 -0.08
6 -0.08
7 0.14
8 -0.14
9 -0.15

>  <PUBCHEM_EFFECTIVE_ROTOR_COUNT>  (1) 
4

>  <PUBCHEM_PHARMACOPHORE_FEATURES>  (1) 
1
6 8 9 10 11 12 13 rings

>  <PUBCHEM_HEAVY_ATOM_COUNT>  (1) 
13

>  <PUBCHEM_ATOM_DEF_STEREO_COUNT>  (1) 
0

>  <PUBCHEM_ATOM_UDEF_STEREO_COUNT>  (1) 
0

>  <PUBCHEM_BOND_DEF_STEREO_COUNT>  (1) 
0

>  <PUBCHEM_BOND_UDEF_STEREO_COUNT>  (1) 
0

>  <PUBCHEM_ISOTOPIC_ATOM_COUNT>  (1) 
0

>  <PUBCHEM_COMPONENT_COUNT>  (1) 
1

>  <PUBCHEM_CACTVS_TAUTO_COUNT>  (1) 
1

>  <PUBCHEM_CONFORMER_ID>  (1) 
000062BC00000001

>  <PUBCHEM_MMFF94_ENERGY>  (1) 
16.1483

>  <PUBCHEM_FEATURE_SELFOVERLAP>  (1) 
5.074

>  <PUBCHEM_SHAPE_FINGERPRINT>  (1) 
10366900 7 18411138056149586523
10680689 15 18060421330537672663
11615757 297 17561368404363605472
12251169 10 18334579057397010885
12932764 1 18337659880683503790
13081056 2 17988926686363631328
13167823 11 18113337488125019098
13533116 47 18261104141458425019
13897977 58 18335710450461744461
14252887 29 15936411126725799214
14289901 80 17749389256558543868
17834072 33 17749115508454579446
18186145 218 18343577456506452660
19050596 39 18335414656243351930
200 152 14634867578572039629
20281475 54 17822007631559799070
20432913 95 16660646245485413282
20645477 56 18342746170103013709
20645477 70 16200161945694565510
20671657 53 13190339062907538182
21065199 12 18410852165972674560
21503847 285 18131072653978807128
21652331 79 18272930556993046120
22485316 2 17458061555887506727
2297311 6 18270698513923050836
23402539 116 18343295977756995135
23403322 49 12107780809378719969
23559900 14 18270410386442944990
2838139 119 14332299446651742939
300161 21 17603581941451399772
42 15 18187080624845437546
573450 72 18261386724420198579
633830 44 17988920085278206236
77779 3 18410858763248123844
90127 26 18202288025998494672
9882013 296 17313101960377769190

>  <PUBCHEM_SHAPE_MULTIPOLES>  (1) 
280.77
10.77
1.43
1.15
1.66
0.13
0.04
0.12
1.48
-0.06
0.41
1.1
-0.04
-0.09

>  <PUBCHEM_SHAPE_SELFOVERLAP>  (1) 
535.955

>  <PUBCHEM_SHAPE_VOLUME>  (1) 
173.3

>  <PUBCHEM_COORDINATE_TYPE>  (1) 
2
5
10

$$$$
