2527
     RDKit          3D

 16 15  0  0  1  0  0  0  0  0999 V2000
   -1.7433    1.2240   -1.7020 O   0  0  0  0  0  0  0  0  0  0  0  0
   -4.9323   -0.8697    0.1741 O   0  0  0  0  0  0  0  0  0  0  0  0
   -0.6392   -1.2211   -1.3687 O   0  0  0  0  0  0  0  0  0  0  0  0
    5.1464    1.5846    0.4794 O   0  0  0  0  0  0  0  0  0  0  0  0
    5.1725   -0.2473   -0.8611 O   0  0  0  0  0  0  0  0  0  0  0  0
    0.2988   -0.4705    0.6163 N   0  0  0  0  0  0  0  0  0  0  0  0
   -2.8990    0.4920    0.3202 C   0  0  0  0  0  0  0  0  0  0  0  0
   -1.5305    0.7894   -0.3615 C   0  0  0  0  0  0  0  0  0  0  0  0
   -3.6818   -0.5993   -0.4504 C   0  0  0  0  0  0  0  0  0  0  0  0
   -3.7372    1.7929    0.3305 C   0  0  0  0  0  0  0  0  0  0  0  0
   -2.7036    0.0559    1.7859 C   0  0  0  0  0  0  0  0  0  0  0  0
   -0.5953   -0.4153   -0.4408 C   0  0  0  0  0  0  0  0  0  0  0  0
    1.2998   -1.5041    0.7472 C   0  0  0  0  0  0  0  0  0  0  0  0
    2.6211   -1.1389    0.0722 C   0  0  0  0  0  0  0  0  0  0  0  0
    3.2982    0.1040    0.6557 C   0  0  0  0  0  0  0  0  0  0  0  0
    4.6252    0.4234    0.0030 C   0  0  0  0  0  0  0  0  0  0  0  0
  1  8  1  0
  2  9  1  0
  3 12  2  0
  4 16  1  0
  5 16  2  0
  6 12  1  0
  6 13  1  0
  7  8  1  0
  7  9  1  0
  7 10  1  0
  7 11  1  0
  8 12  1  0
 13 14  1  0
 14 15  1  0
 15 16  1  0
M  END
>  <PUBCHEM_COMPOUND_CID>  (1) 
2527

>  <PUBCHEM_CONFORMER_RMSD>  (1) 
0.8

>  <PUBCHEM_CONFORMER_DIVERSEORDER>  (1) 
4
372
54
389
62
206
105
330
324
309
357
7
141
253
180
215
345
148
5
282
261
269
175
94
342
74
391
374
368
377
59
122
294
201
257
187
283
90
291
289
101
388
245
373
381
301
115
3
218
314
375
346
351
58
126
222
302
100
32
163
321
329
383
235
233
73
243
284
203
99
159
362
262
332
47
390
323
26
300
98
178
288
296
15
251
273
29
307
369
116
28
348
109
110
230
211
149
285
308
10
190
78
183
198
31
336
112
382
379
107
210
376
263
327
239
194
39
22
231
42
280
171
120
356
223
67
337
226
299
244
137
13
162
44
271
340
70
378
193
48
316
354
361
254
30
328
386
102
371
202
128
129
349
266
49
259
343
241
8
305
272
217
84
197
125
56
170
319
297
24
135
249
334
341
17
53
325
191
227
232
277
65
344
350
338
83
71
117
72
268
177
14
209
124
322
81
213
275
298
130
111
25
114
252
140
168
380
45
52
224
12
286
303
265
335
93
41
76
240
207
353
246
19
248
96
136
6
11
43
66
339
281
108
393
75
311
355
242
87
384
133
35
188
247
186
306
64
326
38
152
173
267
46
36
216
160
1
385
220
151
274
121
315
97
290
134
205
51
147
189
221
214
82
260
174
208
68
182
2
154
50
40
79
92
387
123
250
144
27
199
195
236
185
228
142
118
158
287
200
184
196
138
86
312
16
89
113
18
169
219
33
363
181
238
61
176
192
166
320
23
77
179
278
360
104
212
55
264
20
167
276
155
91
313
143
60
229
95
150
366
237
292
34
63
204
37
225
304
127
146
295
145
359
161
172
132
310
270
352
293
256
9
367
234
365
103
157
119
255
57
258
164
131
88
156
153
21
85
106
279
69
80
165
358
331
347
317
333
392
364
370
139
318

>  <PUBCHEM_MMFF94_PARTIAL_CHARGES>  (1) 
16
1 -0.68
12 0.57
13 0.3
15 0.06
16 0.66
2 -0.68
26 0.37
29 0.4
3 -0.57
32 0.4
35 0.5
4 -0.65
5 -0.57
6 -0.73
8 0.34
9 0.28

>  <PUBCHEM_EFFECTIVE_ROTOR_COUNT>  (1) 
8

>  <PUBCHEM_PHARMACOPHORE_FEATURES>  (1) 
10
1 1 acceptor
1 1 donor
1 2 acceptor
1 2 donor
1 3 acceptor
1 4 acceptor
1 5 acceptor
1 6 donor
3 4 5 16 anion
3 7 10 11 hydrophobe

>  <PUBCHEM_HEAVY_ATOM_COUNT>  (1) 
16

>  <PUBCHEM_ATOM_DEF_STEREO_COUNT>  (1) 
0

>  <PUBCHEM_ATOM_UDEF_STEREO_COUNT>  (1) 
1

>  <PUBCHEM_BOND_DEF_STEREO_COUNT>  (1) 
0

>  <PUBCHEM_BOND_UDEF_STEREO_COUNT>  (1) 
0

>  <PUBCHEM_ISOTOPIC_ATOM_COUNT>  (1) 
0

>  <PUBCHEM_COMPONENT_COUNT>  (1) 
1

>  <PUBCHEM_CACTVS_TAUTO_COUNT>  (1) 
2

>  <PUBCHEM_CONFORMER_ID>  (1) 
000009DF00000004

>  <PUBCHEM_MMFF94_ENERGY>  (1) 
24.2767

>  <PUBCHEM_FEATURE_SELFOVERLAP>  (1) 
50.813

>  <PUBCHEM_SHAPE_FINGERPRINT>  (1) 
10062212 137 10953461838435932897
10366900 7 17749109997726935952
10465860 250 12829209970686117079
10751810 167 15841551860155556706
11132069 177 16226052175700147666
11401426 45 12685092596424395667
11615757 297 18272933825499640088
12186901 62 15985106284463746393
124424 183 11891335352860818187
12815109 37 12396298171002794118
13081056 2 18408039615846053788
13214271 11 17967814946450269319
17834072 14 12396299253202664386
17834072 33 18272087197119565454
17834072 8 10592050141645487595
18186145 218 18342451544041677890
200 152 11314029080141317144
20279233 1 15936412217157193995
20325693 3 15697997452985103269
20645477 70 17203621363445669374
20671657 53 9727628423641092058
20871999 31 17059482084434000542
21069387 34 9871453335961636856
21652331 79 18335135401954812636
22854114 59 17967813834180262314
23402539 116 8214147335292206499
23557571 272 18341901770235661076
23559900 14 17681250188570363962
26918003 58 11169911693158243690
2916195 48 18271798069307803336
4990 188 17917716781937259246
5104073 3 18187364268490385744
58051976 100 14117511082130263292
9882013 296 18187644691221304394

>  <PUBCHEM_SHAPE_MULTIPOLES>  (1) 
294.94
10.68
1.49
1.23
9.52
0.24
-0.01
2.66
0.48
-0.12
-0.01
-0.61
0.02
0.09

>  <PUBCHEM_SHAPE_SELFOVERLAP>  (1) 
565.866

>  <PUBCHEM_SHAPE_VOLUME>  (1) 
179.9

>  <PUBCHEM_COORDINATE_TYPE>  (1) 
2
5
10

$$$$
