25281
     RDKit          3D

  7  6  0  0  0  0  0  0  0  0999 V2000
    2.4674   -0.5991    0.7689 Cl  0  0  0  0  0  0  0  0  0  0  0  0
    0.2620    2.1405   -0.0546 Cl  0  0  0  0  0  0  0  0  0  0  0  0
   -2.4220    0.5164    0.4262 Cl  0  0  0  0  0  0  0  0  0  0  0  0
   -1.0535   -2.0039   -0.1645 Cl  0  0  0  0  0  0  0  0  0  0  0  0
    1.5076   -0.1864   -0.6709 C   0  0  0  0  0  0  0  0  0  0  0  0
    0.1881    0.4078   -0.2655 C   0  0  0  0  0  0  0  0  0  0  0  0
   -0.9495   -0.2753   -0.0396 C   0  0  0  0  0  0  0  0  0  0  0  0
  1  5  1  0
  2  6  1  0
  3  7  1  0
  4  7  1  0
  5  6  1  0
  6  7  2  3
M  END
>  <PUBCHEM_COMPOUND_CID>  (1) 
25281

>  <PUBCHEM_CONFORMER_RMSD>  (1) 
0.4

>  <PUBCHEM_CONFORMER_DIVERSEORDER>  (1) 
2
3
5
1
4
6

>  <PUBCHEM_MMFF94_PARTIAL_CHARGES>  (1) 
6
1 -0.29
2 -0.14
3 -0.14
4 -0.14
5 0.43
7 0.28

>  <PUBCHEM_EFFECTIVE_ROTOR_COUNT>  (1) 
1

>  <PUBCHEM_PHARMACOPHORE_FEATURES>  (1) 
0

>  <PUBCHEM_HEAVY_ATOM_COUNT>  (1) 
7

>  <PUBCHEM_ATOM_DEF_STEREO_COUNT>  (1) 
0

>  <PUBCHEM_ATOM_UDEF_STEREO_COUNT>  (1) 
0

>  <PUBCHEM_BOND_DEF_STEREO_COUNT>  (1) 
0

>  <PUBCHEM_BOND_UDEF_STEREO_COUNT>  (1) 
0

>  <PUBCHEM_ISOTOPIC_ATOM_COUNT>  (1) 
0

>  <PUBCHEM_COMPONENT_COUNT>  (1) 
1

>  <PUBCHEM_CACTVS_TAUTO_COUNT>  (1) 
1

>  <PUBCHEM_CONFORMER_ID>  (1) 
000062C100000002

>  <PUBCHEM_MMFF94_ENERGY>  (1) 
6.4078

>  <PUBCHEM_FEATURE_SELFOVERLAP>  (1) 
0

>  <PUBCHEM_SHAPE_FINGERPRINT>  (1) 
15310529 11 16805613559357226382
16714656 1 18338805502610658022
18185500 45 18334293201538087178
20653091 64 18119811558333103776
21040471 1 18341343192727777959
23211744 25 17468227842467193116
23552333 60 17766009676134838435
23552423 10 17902515126996601285
24536 1 17487923273938255743
29004967 10 16081376249689628508

>  <PUBCHEM_SHAPE_MULTIPOLES>  (1) 
151.54
3.02
2.04
0.83
0.37
0.25
0.04
-0.49
0.8
-0.4
-0.1
0.23
-0.05
-0.28

>  <PUBCHEM_SHAPE_SELFOVERLAP>  (1) 
246.827

>  <PUBCHEM_SHAPE_VOLUME>  (1) 
104.3

>  <PUBCHEM_COORDINATE_TYPE>  (1) 
2
5
10

$$$$
