25288
     RDKit          3D

 31 34  0  0  1  0  0  0  0  0999 V2000
   -0.6277    0.0629    2.1304 Si  0  0  0  0  0  4  0  0  0  0  0  0
   -0.9755   -2.3426    0.1135 Si  0  0  0  0  0  4  0  0  0  0  0  0
    2.4434    0.1614    1.4151 Si  0  0  0  0  0  4  0  0  0  0  0  0
    2.1683   -2.6057   -0.0988 Si  0  0  0  0  0  4  0  0  0  0  0  0
   -0.9967   -1.4551    1.5315 O   0  0  0  0  0  0  0  0  0  0  0  0
    0.8303    0.5842    1.5073 O   0  0  0  0  0  0  0  0  0  0  0  0
    0.5655   -2.3794   -0.5292 O   0  0  0  0  0  0  0  0  0  0  0  0
    2.6055   -1.4591    1.0429 O   0  0  0  0  0  0  0  0  0  0  0  0
   -1.9643    1.2152    1.4590 C   0  0  0  0  0  0  0  0  0  0  0  0
   -2.0466   -1.3801   -1.1085 C   0  0  0  0  0  0  0  0  0  0  0  0
    3.1640    1.1094   -0.0487 C   0  0  0  0  0  0  0  0  0  0  0  0
   -0.6423    0.0957    3.9943 C   0  0  0  0  0  0  0  0  0  0  0  0
   -1.6487   -4.0631    0.3672 C   0  0  0  0  0  0  0  0  0  0  0  0
    3.3436    0.5956    2.9913 C   0  0  0  0  0  0  0  0  0  0  0  0
    2.4202   -4.3310    0.6064 C   0  0  0  0  0  0  0  0  0  0  0  0
    3.2591   -2.4522   -1.6241 C   0  0  0  0  0  0  0  0  0  0  0  0
   -3.3328    1.0209    1.7688 C   0  0  0  0  0  0  0  0  0  0  0  0
   -1.6432    2.3128    0.6230 C   0  0  0  0  0  0  0  0  0  0  0  0
   -3.4346   -1.6329   -1.2341 C   0  0  0  0  0  0  0  0  0  0  0  0
    4.5277    1.4904   -0.0842 C   0  0  0  0  0  0  0  0  0  0  0  0
   -1.4974   -0.3736   -1.9399 C   0  0  0  0  0  0  0  0  0  0  0  0
    2.3650    1.4715   -1.1608 C   0  0  0  0  0  0  0  0  0  0  0  0
   -4.3201    1.8724    1.2729 C   0  0  0  0  0  0  0  0  0  0  0  0
   -2.6305    3.1642    0.1271 C   0  0  0  0  0  0  0  0  0  0  0  0
   -4.2256   -0.9218   -2.1365 C   0  0  0  0  0  0  0  0  0  0  0  0
    5.0603    2.1911   -1.1664 C   0  0  0  0  0  0  0  0  0  0  0  0
   -2.2885    0.3375   -2.8423 C   0  0  0  0  0  0  0  0  0  0  0  0
    2.8976    2.1722   -2.2430 C   0  0  0  0  0  0  0  0  0  0  0  0
   -3.9689    2.9441    0.4521 C   0  0  0  0  0  0  0  0  0  0  0  0
   -3.6526    0.0634   -2.9405 C   0  0  0  0  0  0  0  0  0  0  0  0
    4.2453    2.5319   -2.2459 C   0  0  0  0  0  0  0  0  0  0  0  0
  1  5  1  0
  1  6  1  0
  1  9  1  0
  1 12  1  0
  2  5  1  0
  2  7  1  0
  2 10  1  0
  2 13  1  0
  3  6  1  0
  3  8  1  0
  3 11  1  0
  3 14  1  0
  4  7  1  0
  4  8  1  0
  4 15  1  0
  4 16  1  0
  9 17  2  0
  9 18  1  0
 10 19  2  0
 10 21  1  0
 11 20  2  0
 11 22  1  0
 17 23  1  0
 18 24  2  0
 19 25  1  0
 20 26  1  0
 21 27  2  0
 22 28  2  0
 23 29  2  0
 24 29  1  0
 25 30  2  0
 26 31  2  0
 27 30  1  0
 28 31  1  0
M  END
>  <PUBCHEM_COMPOUND_CID>  (1) 
25288

>  <PUBCHEM_CONFORMER_RMSD>  (1) 
0.8

>  <PUBCHEM_CONFORMER_DIVERSEORDER>  (1) 
12
116
136
47
85
113
93
129
67
69
22
114
139
71
141
86
70
25
96
134
92
15
17
82
131
140
111
79
46
14
19
53
55
128
133
21
73
52
33
91
28
130
84
60
68
2
65
24
13
48
124
59
61
88
29
132
75
11
83
40
109
100
10
76
3
54
89
110
45
37
72
81
107
137
80
38
4
8
18
108
31
1
44
126
78
57
123
102
112
121
87
90
105
6
122
66
39
127
7
106
94
64
104
42
119
56
101
26
103
58
125
30
5
74
20
138
63
49
135
36
9
32
95
77
50
62
27
23
41
99
35
34
16
97
51
98
43
120
117
118
115

>  <PUBCHEM_MMFF94_PARTIAL_CHARGES>  (1) 
46
1 0.9
10 -0.22
11 -0.22
12 -0.08
13 -0.08
14 -0.08
15 -0.08
16 -0.08
17 -0.15
18 -0.15
19 -0.15
2 0.9
20 -0.15
21 -0.15
22 -0.15
23 -0.15
24 -0.15
25 -0.15
26 -0.15
27 -0.15
28 -0.15
29 -0.15
3 0.9
30 -0.15
31 -0.15
4 0.76
47 0.15
48 0.15
49 0.15
5 -0.59
50 0.15
51 0.15
52 0.15
53 0.15
54 0.15
55 0.15
56 0.15
57 0.15
58 0.15
59 0.15
6 -0.59
60 0.15
61 0.15
7 -0.59
8 -0.59
9 -0.22

>  <PUBCHEM_EFFECTIVE_ROTOR_COUNT>  (1) 
4.6

>  <PUBCHEM_PHARMACOPHORE_FEATURES>  (1) 
3
6 10 19 21 25 27 30 rings
6 11 20 22 26 28 31 rings
6 9 17 18 23 24 29 rings

>  <PUBCHEM_HEAVY_ATOM_COUNT>  (1) 
31

>  <PUBCHEM_ATOM_DEF_STEREO_COUNT>  (1) 
0

>  <PUBCHEM_ATOM_UDEF_STEREO_COUNT>  (1) 
2

>  <PUBCHEM_BOND_DEF_STEREO_COUNT>  (1) 
0

>  <PUBCHEM_BOND_UDEF_STEREO_COUNT>  (1) 
0

>  <PUBCHEM_ISOTOPIC_ATOM_COUNT>  (1) 
0

>  <PUBCHEM_COMPONENT_COUNT>  (1) 
1

>  <PUBCHEM_CACTVS_TAUTO_COUNT>  (1) 
1

>  <PUBCHEM_CONFORMER_ID>  (1) 
000062C80000000C

>  <PUBCHEM_MMFF94_ENERGY>  (1) 
41.1317

>  <PUBCHEM_FEATURE_SELFOVERLAP>  (1) 
15.224

>  <PUBCHEM_SHAPE_FINGERPRINT>  (1) 
11421498 54 18199746015118453687
11578080 2 18189356665222920063
12156800 1 17472190401096308079
12539773 59 16814369185113273221
12788726 201 18343016739904487253
133893 2 18337671919487929366
144659 39 16055443142587972506
17980427 23 18128229239668701642
19309040 13 18120402928244398165
20764821 26 18335433335245851070
21033648 144 16951979560006247572
21033648 29 14923934670256743648
22907989 373 18265615570478320649
23419403 2 17314242055135850463
3027735 51 18130798909283716375
35225 105 17775016669294400653
469060 322 17906763609761687747
5081480 168 18043822991710358086

>  <PUBCHEM_SHAPE_MULTIPOLES>  (1) 
687.34
8.51
4.55
3.45
1.82
2.77
-0.52
-5.45
3.82
0.98
0.53
-0.7
-1.08
-2.62

>  <PUBCHEM_SHAPE_SELFOVERLAP>  (1) 
1387.278

>  <PUBCHEM_SHAPE_VOLUME>  (1) 
399.9

>  <PUBCHEM_COORDINATE_TYPE>  (1) 
2
5
10

$$$$
