25280
     RDKit          3D

 15 14  0  0  0  0  0  0  0  0999 V2000
   -0.0069    2.8258   -0.0071 S   0  0  0  0  0  0  0  0  0  0  0  0
    2.7726   -0.2390   -0.2102 N   0  0  0  0  0  0  0  0  0  0  0  0
   -2.7470   -0.2116    0.1949 N   0  0  0  0  0  0  0  0  0  0  0  0
    1.7692    0.7316    0.3956 C   0  0  0  0  0  0  0  0  0  0  0  0
   -1.7711    0.7330   -0.4013 C   0  0  0  0  0  0  0  0  0  0  0  0
    3.3989   -1.0771    0.8950 C   0  0  0  0  0  0  0  0  0  0  0  0
   -3.3970   -1.0823   -0.8897 C   0  0  0  0  0  0  0  0  0  0  0  0
    1.1909    1.6352   -0.6810 C   0  0  0  0  0  0  0  0  0  0  0  0
   -1.1948    1.6443    0.6697 C   0  0  0  0  0  0  0  0  0  0  0  0
    2.0617   -1.1525   -1.1984 C   0  0  0  0  0  0  0  0  0  0  0  0
    3.8605    0.5419   -0.9332 C   0  0  0  0  0  0  0  0  0  0  0  0
   -2.0598   -1.1422    1.2042 C   0  0  0  0  0  0  0  0  0  0  0  0
   -3.8621    0.5468    0.9286 C   0  0  0  0  0  0  0  0  0  0  0  0
    2.3128   -1.8507    1.6099 C   0  0  0  0  0  0  0  0  0  0  0  0
   -2.3277   -1.9032   -1.5769 C   0  0  0  0  0  0  0  0  0  0  0  0
  1  8  1  0
  1  9  1  0
  2  4  1  0
  2  6  1  0
  2 10  1  0
  2 11  1  0
  3  5  1  0
  3  7  1  0
  3 12  1  0
  3 13  1  0
  4  8  1  0
  5  9  1  0
  6 14  1  0
  7 15  1  0
M  CHG  2   2   1   3   1
M  END
>  <PUBCHEM_COMPOUND_CID>  (1) 
25280

>  <PUBCHEM_CONFORMER_RMSD>  (1) 
0.8

>  <PUBCHEM_CONFORMER_DIVERSEORDER>  (1) 
44
57
53
8
24
23
36
56
51
63
13
39
28
49
22
2
52
50
1
38
15
45
34
40
35
32
20
30
46
41
25
47
9
60
27
31
16
48
54
59
5
7
17
43
19
42
33
64
26
29
62
18
11
21
37
12
6
61
58
55
3
14
10
4

>  <PUBCHEM_MMFF94_PARTIAL_CHARGES>  (1) 
13
1 -0.46
10 0.5
11 0.5
12 0.5
13 0.5
2 -1.01
3 -1.01
4 0.5
5 0.5
6 0.5
7 0.5
8 0.23
9 0.23

>  <PUBCHEM_EFFECTIVE_ROTOR_COUNT>  (1) 
8

>  <PUBCHEM_PHARMACOPHORE_FEATURES>  (1) 
2
1 2 cation
1 3 cation

>  <PUBCHEM_HEAVY_ATOM_COUNT>  (1) 
15

>  <PUBCHEM_ATOM_DEF_STEREO_COUNT>  (1) 
0

>  <PUBCHEM_ATOM_UDEF_STEREO_COUNT>  (1) 
0

>  <PUBCHEM_BOND_DEF_STEREO_COUNT>  (1) 
0

>  <PUBCHEM_BOND_UDEF_STEREO_COUNT>  (1) 
0

>  <PUBCHEM_ISOTOPIC_ATOM_COUNT>  (1) 
0

>  <PUBCHEM_COMPONENT_COUNT>  (1) 
1

>  <PUBCHEM_CACTVS_TAUTO_COUNT>  (1) 
1

>  <PUBCHEM_CONFORMER_ID>  (1) 
000062C00000002C

>  <PUBCHEM_MMFF94_ENERGY>  (1) 
57.1445

>  <PUBCHEM_FEATURE_SELFOVERLAP>  (1) 
10.149

>  <PUBCHEM_SHAPE_FINGERPRINT>  (1) 
11321824 6 18123173628757292709
12553582 1 18410575084668509573
12633257 1 17560795485770153874
12670545 2 18337099073871420359
14251711 518 18410570686616964074
14787075 74 18197216069571497696
15375462 189 18335423473526341440
15757776 16 18334575763436864412
18186145 218 14634867505146431212
20201158 50 18259988205516428064
20291156 8 18410855460133482021
20442098 301 18272091565232998964
20645477 70 18125151895463519159
212916 134 17202492108974079321
21731516 1 18410287016916902113
232386 152 18262236595574570522
23402539 116 18408606976741340190
23598291 2 18269566098994230557
23598294 1 18198632025124280656
34934 24 18410858758663493348
449060 23 18343309158225785660
603831 33 18334296453092022476
6338986 31 18337376189002696624
81228 2 18194408796566948240
85463 6 18193251049804179282

>  <PUBCHEM_SHAPE_MULTIPOLES>  (1) 
302.58
6.93
2.56
1.47
0.02
1.02
0.02
-2.44
-0.01
-0.04
-0.02
0.02
-0.82
-1.36

>  <PUBCHEM_SHAPE_SELFOVERLAP>  (1) 
538.542

>  <PUBCHEM_SHAPE_VOLUME>  (1) 
203.1

>  <PUBCHEM_COORDINATE_TYPE>  (1) 
2
5
10

$$$$
