25291
     RDKit          3D

 26 30  0  0  0  0  0  0  0  0999 V2000
   -1.0175   -1.6838   -0.2269 N   0  0  0  0  0  0  0  0  0  0  0  0
    0.3855    0.5902    0.3820 C   0  0  0  0  0  0  0  0  0  0  0  0
    1.1113   -0.5912    0.1298 C   0  0  0  0  0  0  0  0  0  0  0  0
    1.0358    1.8983    0.7274 C   0  0  0  0  0  0  0  0  0  0  0  0
   -1.0148    0.6313    0.3303 C   0  0  0  0  0  0  0  0  0  0  0  0
   -1.7041   -0.5478    0.0162 C   0  0  0  0  0  0  0  0  0  0  0  0
    1.3445    2.7311   -0.5216 C   0  0  0  0  0  0  0  0  0  0  0  0
    0.3274   -1.7171   -0.1756 C   0  0  0  0  0  0  0  0  0  0  0  0
    2.5484   -0.6933    0.1687 C   0  0  0  0  0  0  0  0  0  0  0  0
   -3.1155   -0.5123   -0.0372 C   0  0  0  0  0  0  0  0  0  0  0  0
    3.1524   -1.9440   -0.1057 C   0  0  0  0  0  0  0  0  0  0  0  0
   -1.7104    1.8203    0.5860 C   0  0  0  0  0  0  0  0  0  0  0  0
    2.0403    4.0433   -0.1608 C   0  0  0  0  0  0  0  0  0  0  0  0
   -3.8152    0.6943    0.2224 C   0  0  0  0  0  0  0  0  0  0  0  0
    0.9603   -2.9209   -0.4374 C   0  0  0  0  0  0  0  0  0  0  0  0
   -3.0987    1.8516    0.5322 C   0  0  0  0  0  0  0  0  0  0  0  0
    2.3474   -3.0432   -0.4058 C   0  0  0  0  0  0  0  0  0  0  0  0
    3.4195    0.3846    0.4663 C   0  0  0  0  0  0  0  0  0  0  0  0
   -3.8783   -1.6588   -0.3465 C   0  0  0  0  0  0  0  0  0  0  0  0
    4.5505   -2.0865   -0.0785 C   0  0  0  0  0  0  0  0  0  0  0  0
    2.3836    4.8520   -1.4018 C   0  0  0  0  0  0  0  0  0  0  0  0
   -5.2187    0.7210    0.1672 C   0  0  0  0  0  0  0  0  0  0  0  0
    4.8084    0.2316    0.4905 C   0  0  0  0  0  0  0  0  0  0  0  0
    5.3740   -1.0047    0.2179 C   0  0  0  0  0  0  0  0  0  0  0  0
   -5.2732   -1.6175   -0.3978 C   0  0  0  0  0  0  0  0  0  0  0  0
   -5.9428   -0.4283   -0.1413 C   0  0  0  0  0  0  0  0  0  0  0  0
  1  6  2  0
  1  8  1  0
  2  3  1  0
  2  4  1  0
  2  5  2  0
  3  8  2  0
  3  9  1  0
  4  7  1  0
  5  6  1  0
  5 12  1  0
  6 10  1  0
  7 13  1  0
  8 15  1  0
  9 11  2  0
  9 18  1  0
 10 14  2  0
 10 19  1  0
 11 17  1  0
 11 20  1  0
 12 16  2  0
 13 21  1  0
 14 16  1  0
 14 22  1  0
 15 17  2  0
 18 23  2  0
 19 25  2  0
 20 24  2  0
 22 26  2  0
 23 24  1  0
 25 26  1  0
M  END
>  <PUBCHEM_COMPOUND_CID>  (1) 
25291

>  <PUBCHEM_CONFORMER_RMSD>  (1) 
0.6

>  <PUBCHEM_CONFORMER_DIVERSEORDER>  (1) 
1
2

>  <PUBCHEM_MMFF94_PARTIAL_CHARGES>  (1) 
29
1 -0.62
12 -0.15
15 -0.15
16 -0.15
17 -0.15
18 -0.15
19 -0.15
2 -0.14
20 -0.15
22 -0.15
23 -0.15
24 -0.15
25 -0.15
26 -0.15
31 0.15
34 0.15
35 0.15
36 0.15
37 0.15
38 0.15
39 0.15
4 0.14
43 0.15
44 0.15
45 0.15
46 0.15
47 0.15
6 0.31
8 0.31

>  <PUBCHEM_EFFECTIVE_ROTOR_COUNT>  (1) 
3

>  <PUBCHEM_PHARMACOPHORE_FEATURES>  (1) 
7
1 1 acceptor
1 21 hydrophobe
6 1 2 3 5 6 8 rings
6 10 14 19 22 25 26 rings
6 3 8 9 11 15 17 rings
6 5 6 10 12 14 16 rings
6 9 11 18 20 23 24 rings

>  <PUBCHEM_HEAVY_ATOM_COUNT>  (1) 
26

>  <PUBCHEM_ATOM_DEF_STEREO_COUNT>  (1) 
0

>  <PUBCHEM_ATOM_UDEF_STEREO_COUNT>  (1) 
0

>  <PUBCHEM_BOND_DEF_STEREO_COUNT>  (1) 
0

>  <PUBCHEM_BOND_UDEF_STEREO_COUNT>  (1) 
0

>  <PUBCHEM_ISOTOPIC_ATOM_COUNT>  (1) 
0

>  <PUBCHEM_COMPONENT_COUNT>  (1) 
1

>  <PUBCHEM_CACTVS_TAUTO_COUNT>  (1) 
1

>  <PUBCHEM_CONFORMER_ID>  (1) 
000062CB00000001

>  <PUBCHEM_MMFF94_ENERGY>  (1) 
113.0413

>  <PUBCHEM_FEATURE_SELFOVERLAP>  (1) 
35.63

>  <PUBCHEM_SHAPE_FINGERPRINT>  (1) 
10411042 1 18266740169490802542
10906281 52 18337973228106278210
10967382 1 18341331110995499202
1100329 8 18268144434532833178
11045515 52 18190181191685640180
11135609 12 18115882939754426115
11578080 2 17316185940254566543
11963148 33 17617090752202743731
12107183 9 17405995050538535371
12166972 35 18342740719193474944
12403259 226 18053379904045519906
13140716 1 18124591135405822683
1361 2 18409167753457471888
138480 1 18410857659173075037
140371 6 18340215111067167907
14341114 176 18343024367840394475
14790565 3 17762340618496389900
14955137 171 18412267229106254280
15081414 286 18340212890310645382
15196674 1 18342737364771359891
15439362 3 18263082291552109692
15664445 248 18341631295440361756
15927050 60 17837772597109441876
1601671 61 18412823560399053906
167882 2 18263367065079157508
1813 80 17895480228290314396
18681886 176 18341044203095974066
18785283 64 18262522622757899949
19591789 44 18342173315570191210
20028762 73 18131625716417094151
20642791 178 18338525225888138177
20739085 24 17982197542057442153
21267235 1 18271250425816217990
21709351 56 18410002248338481949
221490 88 18410016580586722451
22149856 69 18198633327586003195
23366157 5 18260828245385417889
23558518 356 17977089490545915554
23559900 14 18341321258804707129
24771293 8 18272081721727457360
25147074 1 18202294627927874009
335352 9 18341611482988430781
3380486 145 18046641005146726601
338550 245 18341327906786099804
350125 39 18412262873930684625
4409770 3 17325482207634886021
46194498 28 18187077390930593685
5104073 3 18199748050990987635
5312544 6 18266178524811371821
67856867 119 18339641256350381677
9709674 26 18410015451010473003
9777508 108 17546159702321410512
9981440 41 17688026835489167064

>  <PUBCHEM_SHAPE_MULTIPOLES>  (1) 
530.09
11.03
4.44
0.81
7.83
5.01
0.08
-3.87
-0.11
-4.73
1.7
-0.2
0.43
-0.98

>  <PUBCHEM_SHAPE_SELFOVERLAP>  (1) 
1206.183

>  <PUBCHEM_SHAPE_VOLUME>  (1) 
274.6

>  <PUBCHEM_COORDINATE_TYPE>  (1) 
2
5
10

$$$$
