25290
     RDKit          3D

 22 23  0  0  0  0  0  0  0  0999 V2000
   -2.8998    4.2137    0.0231 Cl  0  0  0  0  0  0  0  0  0  0  0  0
    5.0364   -0.2898   -0.2611 O   0  0  0  0  0  0  0  0  0  0  0  0
   -0.4133   -1.3194    1.2687 O   0  0  0  0  0  0  0  0  0  0  0  0
    3.3303   -1.7684    0.2134 O   0  0  0  0  0  0  0  0  0  0  0  0
    1.4992    0.2477    0.1226 N   0  0  0  0  0  0  0  0  0  0  0  0
    0.4585    1.1641    0.1028 C   0  0  0  0  0  0  0  0  0  0  0  0
   -0.8746    0.7785    0.3431 C   0  0  0  0  0  0  0  0  0  0  0  0
   -1.2005   -0.6143    0.6232 C   0  0  0  0  0  0  0  0  0  0  0  0
    0.7199    2.5215   -0.1628 C   0  0  0  0  0  0  0  0  0  0  0  0
   -1.9072    1.7159    0.3185 C   0  0  0  0  0  0  0  0  0  0  0  0
    2.8778    0.5951   -0.1174 C   0  0  0  0  0  0  0  0  0  0  0  0
   -2.4700   -1.2456    0.1574 C   0  0  0  0  0  0  0  0  0  0  0  0
   -0.3127    3.4590   -0.1873 C   0  0  0  0  0  0  0  0  0  0  0  0
   -1.6262    3.0562    0.0534 C   0  0  0  0  0  0  0  0  0  0  0  0
   -3.3611   -0.4836   -0.5633 C   0  0  0  0  0  0  0  0  0  0  0  0
   -2.6999   -2.5671    0.4656 C   0  0  0  0  0  0  0  0  0  0  0  0
    3.7361   -0.6396   -0.0282 C   0  0  0  0  0  0  0  0  0  0  0  0
   -4.5464   -1.0752   -0.9996 C   0  0  0  0  0  0  0  0  0  0  0  0
   -3.8854   -3.1587    0.0293 C   0  0  0  0  0  0  0  0  0  0  0  0
   -4.8087   -2.4128   -0.7033 C   0  0  0  0  0  0  0  0  0  0  0  0
    5.9821   -1.3628   -0.2106 C   0  0  0  0  0  0  0  0  0  0  0  0
    7.3656   -0.8143   -0.4876 C   0  0  0  0  0  0  0  0  0  0  0  0
  1 14  1  0
  2 17  1  0
  2 21  1  0
  3  8  2  0
  4 17  2  0
  5  6  1  0
  5 11  1  0
  6  7  2  0
  6  9  1  0
  7  8  1  0
  7 10  1  0
  8 12  1  0
  9 13  2  0
 10 14  2  0
 11 17  1  0
 12 15  2  0
 12 16  1  0
 13 14  1  0
 15 18  1  0
 16 19  2  0
 18 20  2  0
 19 20  1  0
 21 22  1  0
M  END
>  <PUBCHEM_COMPOUND_CID>  (1) 
25290

>  <PUBCHEM_CONFORMER_RMSD>  (1) 
0.8

>  <PUBCHEM_CONFORMER_DIVERSEORDER>  (1) 
1
36
25
5
10
37
24
12
34
6
31
4
8
15
32
2
3
9
11
21
22
33
7
18
14
19
20
35
17
23
16
13
30
27
28
29
26

>  <PUBCHEM_MMFF94_PARTIAL_CHARGES>  (1) 
30
1 -0.18
10 -0.15
11 0.43
12 0.09
13 -0.15
14 0.18
15 -0.15
16 -0.15
17 0.66
18 -0.15
19 -0.15
2 -0.43
20 -0.15
21 0.28
23 0.4
24 0.15
25 0.15
28 0.15
29 0.15
3 -0.57
30 0.15
31 0.15
32 0.15
33 0.15
4 -0.57
5 -0.87
6 0.1
7 0.09
8 0.4
9 -0.15

>  <PUBCHEM_EFFECTIVE_ROTOR_COUNT>  (1) 
7

>  <PUBCHEM_PHARMACOPHORE_FEATURES>  (1) 
6
1 3 acceptor
1 4 acceptor
1 5 cation
1 5 donor
6 12 15 16 18 19 20 rings
6 6 7 9 10 13 14 rings

>  <PUBCHEM_HEAVY_ATOM_COUNT>  (1) 
22

>  <PUBCHEM_ATOM_DEF_STEREO_COUNT>  (1) 
0

>  <PUBCHEM_ATOM_UDEF_STEREO_COUNT>  (1) 
0

>  <PUBCHEM_BOND_DEF_STEREO_COUNT>  (1) 
0

>  <PUBCHEM_BOND_UDEF_STEREO_COUNT>  (1) 
0

>  <PUBCHEM_ISOTOPIC_ATOM_COUNT>  (1) 
0

>  <PUBCHEM_COMPONENT_COUNT>  (1) 
1

>  <PUBCHEM_CACTVS_TAUTO_COUNT>  (1) 
3

>  <PUBCHEM_CONFORMER_ID>  (1) 
000062CA00000001

>  <PUBCHEM_MMFF94_ENERGY>  (1) 
80.2136

>  <PUBCHEM_FEATURE_SELFOVERLAP>  (1) 
30.446

>  <PUBCHEM_SHAPE_FINGERPRINT>  (1) 
10254770 206 16750152788868924082
10411042 1 18338800138444756419
1100329 8 18411419493252930465
11101153 10 18337398253157505988
11265709 11 18410577322420252467
116883 192 18411980282415256461
11809386 21 18334573500063167130
12107183 9 18269571571457890267
12553582 1 18265352752871380890
12760667 363 18413672430536168519
12788726 201 18335413535046099395
13583140 156 14692575368619443794
13631057 29 18412262827207952498
13757389 114 18121513357926928420
138480 1 15672665401008452689
13911987 19 17251200778558586900
13955234 65 17405151111445518755
14251757 5 18334288756547311039
14508225 48 18408880767310038749
14790565 3 17691406304768024809
14866123 147 18339925905555525897
15042514 8 18339085891145772345
15250474 111 18116425952443655722
15352361 1 18411418453232112486
15927050 60 17979919315558189887
16087824 20 18337954464581766989
17492 89 17907577287549071831
17539 30 18412257316369500341
19427546 20 18335987480469278076
20645477 70 17903346353909412179
21236236 1 18340207393253646808
21426921 1 18411702041459183856
21478907 32 18410575115239910273
21703447 108 18339631344014210512
221357 26 18191011491206541375
221490 88 17830736813550487355
23402539 116 18412543206224236679
23536364 44 18263906818435933589
23557571 272 18200596900053554988
23559900 14 18266169715728004584
23622692 118 18410577301499570476
255183 313 18124332522862224129
3004659 81 18113893905470099846
335352 9 18410289212610483453
3421961 26 18124875908927615257
4280585 95 18336258033354418362
463206 1 18192712460557867494
5309563 4 18339923834849208135
5924683 9 18411419467218518466
5969126 39 18341888606683014894
59755656 520 18121779426528556108
6669772 16 17838338476088232133
77188 2 18267585900001276277
7970288 3 18340767164679049182
9709674 26 18269280054372562582

>  <PUBCHEM_SHAPE_MULTIPOLES>  (1) 
432.03
12.12
4.62
0.81
25.07
4.2
0.01
-11.34
-3.26
-6.26
-0.02
-0.36
-0.21
-0.25

>  <PUBCHEM_SHAPE_SELFOVERLAP>  (1) 
909.381

>  <PUBCHEM_SHAPE_VOLUME>  (1) 
243.3

>  <PUBCHEM_COORDINATE_TYPE>  (1) 
2
5
10

$$$$
