25300
     RDKit          3D

 21 22  0  0  0  0  0  0  0  0999 V2000
    0.5652   -1.1800    0.3537 O   0  0  0  0  0  0  0  0  0  0  0  0
    2.3913   -0.2501   -0.6832 O   0  0  0  0  0  0  0  0  0  0  0  0
    2.6058   -1.9564    0.8740 N   0  0  0  0  0  0  0  0  0  0  0  0
   -0.2927   -0.2980   -0.3792 C   0  0  0  0  0  0  0  0  0  0  0  0
    0.0615    1.1508   -0.0099 C   0  0  0  0  0  0  0  0  0  0  0  0
   -1.7531   -0.5960   -0.0133 C   0  0  0  0  0  0  0  0  0  0  0  0
   -0.0477    2.1167   -0.9794 C   0  0  0  0  0  0  0  0  0  0  0  0
   -2.7461    0.0690   -0.6909 C   0  0  0  0  0  0  0  0  0  0  0  0
    0.4718    1.4154    1.2734 C   0  0  0  0  0  0  0  0  0  0  0  0
   -2.0054   -1.5148    0.9765 C   0  0  0  0  0  0  0  0  0  0  0  0
   -0.0341   -0.6191   -1.8064 C   0  0  0  0  0  0  0  0  0  0  0  0
    0.2740    3.4320   -0.6441 C   0  0  0  0  0  0  0  0  0  0  0  0
   -4.0734   -0.2018   -0.3581 C   0  0  0  0  0  0  0  0  0  0  0  0
    0.7933    2.7307    1.6088 C   0  0  0  0  0  0  0  0  0  0  0  0
   -3.3326   -1.7857    1.3091 C   0  0  0  0  0  0  0  0  0  0  0  0
    1.9029   -1.0522    0.1060 C   0  0  0  0  0  0  0  0  0  0  0  0
    0.6944    3.7390    0.6501 C   0  0  0  0  0  0  0  0  0  0  0  0
   -4.3667   -1.1292    0.6417 C   0  0  0  0  0  0  0  0  0  0  0  0
    4.0451   -2.0810    0.8500 C   0  0  0  0  0  0  0  0  0  0  0  0
    4.6655   -1.0933   -0.1235 C   0  0  0  0  0  0  0  0  0  0  0  0
    0.1809   -0.8960   -2.9554 C   0  0  0  0  0  0  0  0  0  0  0  0
  1  4  1  0
  1 16  1  0
  2 16  2  0
  3 16  1  0
  3 19  1  0
  4  5  1  0
  4  6  1  0
  4 11  1  0
  5  7  2  0
  5  9  1  0
  6  8  2  0
  6 10  1  0
  7 12  1  0
  8 13  1  0
  9 14  2  0
 10 15  2  0
 11 21  3  0
 12 17  2  0
 13 18  2  0
 14 17  1  0
 15 18  1  0
 19 20  1  0
M  END
>  <PUBCHEM_COMPOUND_CID>  (1) 
25300

>  <PUBCHEM_CONFORMER_RMSD>  (1) 
0.8

>  <PUBCHEM_CONFORMER_DIVERSEORDER>  (1) 
1
4
7
6
2
3
5

>  <PUBCHEM_MMFF94_PARTIAL_CHARGES>  (1) 
32
1 -0.43
10 -0.15
11 -0.2
12 -0.15
13 -0.15
14 -0.15
15 -0.15
16 0.78
17 -0.15
18 -0.15
19 0.3
2 -0.57
21 -0.18
22 0.15
23 0.15
24 0.15
25 0.15
26 0.15
27 0.15
28 0.15
29 0.15
3 -0.73
30 0.15
31 0.15
32 0.37
38 0.18
4 0.77
5 -0.14
6 -0.14
7 -0.15
8 -0.15
9 -0.15

>  <PUBCHEM_EFFECTIVE_ROTOR_COUNT>  (1) 
6

>  <PUBCHEM_PHARMACOPHORE_FEATURES>  (1) 
5
1 2 acceptor
1 21 hydrophobe
1 3 donor
6 5 7 9 12 14 17 rings
6 6 8 10 13 15 18 rings

>  <PUBCHEM_HEAVY_ATOM_COUNT>  (1) 
21

>  <PUBCHEM_ATOM_DEF_STEREO_COUNT>  (1) 
0

>  <PUBCHEM_ATOM_UDEF_STEREO_COUNT>  (1) 
0

>  <PUBCHEM_BOND_DEF_STEREO_COUNT>  (1) 
0

>  <PUBCHEM_BOND_UDEF_STEREO_COUNT>  (1) 
0

>  <PUBCHEM_ISOTOPIC_ATOM_COUNT>  (1) 
0

>  <PUBCHEM_COMPONENT_COUNT>  (1) 
1

>  <PUBCHEM_CACTVS_TAUTO_COUNT>  (1) 
2

>  <PUBCHEM_CONFORMER_ID>  (1) 
000062D400000001

>  <PUBCHEM_MMFF94_ENERGY>  (1) 
67.6146

>  <PUBCHEM_FEATURE_SELFOVERLAP>  (1) 
25.371

>  <PUBCHEM_SHAPE_FINGERPRINT>  (1) 
10756046 70 17774150344156961957
10906281 52 17985552148029631997
11578080 2 17604131705823853901
12082328 90 18123193408433268622
12788726 201 18047740503894187170
13132413 78 18338525144584251417
13134695 92 18342733044324371517
13140716 1 18341050692533472280
13294875 104 17414997151508892345
133893 2 17836895126426699532
13681431 1 18270982213845788381
14181834 199 17987510584190857373
14713325 29 17483977986364518806
14787075 74 18188215428472926138
14817 1 11805561131753405213
14863182 85 16671355776545887547
14943834 7 17340948359124222398
14955137 171 17773618180650573710
15163728 17 10879439489843794674
15238133 3 18193017949492548689
16945 1 18269270342987198001
17980427 23 17775010063924850209
1813 80 18130520664212135206
18186145 218 12107799518003385207
18785283 64 17901104436504355808
20097449 115 18411418397265415649
20510252 161 18120648042090472450
20600515 1 18269011841737858087
20723712 36 17275114945728813115
21029758 27 18412825776533457352
21041028 32 18342463638248051785
21524375 3 17337039651443832361
23175994 123 18409450263067594027
23419403 2 18042942407017797356
23557571 272 18055083064230184990
23558518 356 17475226899487070766
23559900 14 17823697650115430199
394222 165 17698460041078994753
458136 41 17686640329946195553
497634 4 17824546262908149670
5845 1 12185246720767223800
5895379 119 16627472842089730257
68419 9 17394214998864157166
6992083 37 17489010647830496838
7364860 26 18265900352875306921
81228 2 17838641966861560153
9999458 23 17902804289928141077

>  <PUBCHEM_SHAPE_MULTIPOLES>  (1) 
415.45
6.26
3.57
1.77
0.55
4.3
1.09
-6.06
-1.84
-2.27
-1.03
0.01
-0.24
0.42

>  <PUBCHEM_SHAPE_SELFOVERLAP>  (1) 
894.118

>  <PUBCHEM_SHAPE_VOLUME>  (1) 
226.4

>  <PUBCHEM_COORDINATE_TYPE>  (1) 
2
5
10

$$$$
