25306
     RDKit          3D

 17 17  0  0  0  0  0  0  0  0999 V2000
    3.9929    3.3867   -0.2529 Cl  0  0  0  0  0  0  0  0  0  0  0  0
    4.2206   -3.2675   -0.2861 Cl  0  0  0  0  0  0  0  0  0  0  0  0
   -5.7443    0.0238   -0.1941 O   0  0  0  0  0  0  0  0  0  0  0  0
   -4.1204   -0.0885    1.3885 O   0  0  0  0  0  0  0  0  0  0  0  0
    1.9886   -0.0171    0.5876 N   0  0  0  0  0  0  0  0  0  0  0  0
    0.6314   -0.0144    0.2037 C   0  0  0  0  0  0  0  0  0  0  0  0
    2.6915    1.2311    0.8074 C   0  0  0  0  0  0  0  0  0  0  0  0
    2.6941   -1.2684    0.7806 C   0  0  0  0  0  0  0  0  0  0  0  0
   -0.0433    1.1944    0.0333 C   0  0  0  0  0  0  0  0  0  0  0  0
   -0.0362   -1.2211   -0.0055 C   0  0  0  0  0  0  0  0  0  0  0  0
   -2.0530   -0.0101   -0.5560 C   0  0  0  0  0  0  0  0  0  0  0  0
    3.1365    1.8460   -0.5102 C   0  0  0  0  0  0  0  0  0  0  0  0
    3.3414   -1.7350   -0.5138 C   0  0  0  0  0  0  0  0  0  0  0  0
   -1.3854    1.1966   -0.3466 C   0  0  0  0  0  0  0  0  0  0  0  0
   -1.3784   -1.2190   -0.3854 C   0  0  0  0  0  0  0  0  0  0  0  0
   -3.4879   -0.0079   -0.9619 C   0  0  0  0  0  0  0  0  0  0  0  0
   -4.4481   -0.0294    0.2113 C   0  0  0  0  0  0  0  0  0  0  0  0
  1 12  1  0
  2 13  1  0
  3 17  1  0
  4 17  2  0
  5  6  1  0
  5  7  1  0
  5  8  1  0
  6  9  2  0
  6 10  1  0
  7 12  1  0
  8 13  1  0
  9 14  1  0
 10 15  2  0
 11 14  2  0
 11 15  1  0
 11 16  1  0
 16 17  1  0
M  END
>  <PUBCHEM_COMPOUND_CID>  (1) 
25306

>  <PUBCHEM_CONFORMER_RMSD>  (1) 
0.8

>  <PUBCHEM_CONFORMER_DIVERSEORDER>  (1) 
2
11
19
35
31
54
59
14
37
26
57
53
40
50
60
28
13
29
47
51
10
58
36
16
33
32
61
3
23
7
39
34
56
42
52
17
43
12
46
38
48
8
41
45
25
49
6
9
21
18
55
20
27
24
4
44
22
5
30
1
15

>  <PUBCHEM_MMFF94_PARTIAL_CHARGES>  (1) 
22
1 -0.29
10 -0.15
11 -0.14
12 0.29
13 0.29
14 -0.15
15 -0.15
16 0.2
17 0.66
2 -0.29
22 0.15
23 0.15
28 0.15
29 0.15
3 -0.65
32 0.5
4 -0.57
5 -0.84
6 0.1
7 0.37
8 0.37
9 -0.15

>  <PUBCHEM_EFFECTIVE_ROTOR_COUNT>  (1) 
7

>  <PUBCHEM_PHARMACOPHORE_FEATURES>  (1) 
5
1 3 acceptor
1 4 acceptor
1 5 cation
3 3 4 17 anion
6 6 9 10 11 14 15 rings

>  <PUBCHEM_HEAVY_ATOM_COUNT>  (1) 
17

>  <PUBCHEM_ATOM_DEF_STEREO_COUNT>  (1) 
0

>  <PUBCHEM_ATOM_UDEF_STEREO_COUNT>  (1) 
0

>  <PUBCHEM_BOND_DEF_STEREO_COUNT>  (1) 
0

>  <PUBCHEM_BOND_UDEF_STEREO_COUNT>  (1) 
0

>  <PUBCHEM_ISOTOPIC_ATOM_COUNT>  (1) 
0

>  <PUBCHEM_COMPONENT_COUNT>  (1) 
1

>  <PUBCHEM_CACTVS_TAUTO_COUNT>  (1) 
1

>  <PUBCHEM_CONFORMER_ID>  (1) 
000062DA00000002

>  <PUBCHEM_MMFF94_ENERGY>  (1) 
46.5884

>  <PUBCHEM_FEATURE_SELFOVERLAP>  (1) 
25.43

>  <PUBCHEM_SHAPE_FINGERPRINT>  (1) 
12032990 46 18337952286062104975
12644460 14 18334857233997230368
13380535 21 18338797947842519962
13533116 47 18272367590471341035
13760787 5 18413099568246270485
13955234 65 18411419535959101064
15806764 133 18115863005924813116
1813 80 17985839137928675022
18186145 218 17822004277200617679
18785283 64 18335420192862163814
18915476 22 18264225741095425690
19422 9 18131345319697953791
19784866 34 18124873714511128528
20281475 54 18201992248828297535
20388580 30 18270685260360856910
20645477 70 18336536162240518599
22182313 1 17895740842442375580
2255824 54 18410852144994086762
23402539 116 14907602469166926809
23557571 272 16009296648012533533
23559900 14 18410007728632829338
23566358 27 18411418440574025254
2748010 2 18191846973265774076
312423 11 18340778039319211177
449060 50 18188768465272543789
449060 62 18340203102333671100
45790113 50 18342455906916236493
458136 41 18338802333341797816
59755656 215 18409452501357615260
633830 44 18261382326669066999
7364860 26 18411978075186960740
90127 26 18113899334582997009
9841814 1 18187915133134011474
9999458 23 18334293136971464990

>  <PUBCHEM_SHAPE_MULTIPOLES>  (1) 
336.87
9.82
3.02
0.92
8.98
0.31
-0.1
-0.49
0.06
-7.19
0.49
0.23
-0.01
0.05

>  <PUBCHEM_SHAPE_SELFOVERLAP>  (1) 
661.912

>  <PUBCHEM_SHAPE_VOLUME>  (1) 
204.5

>  <PUBCHEM_COORDINATE_TYPE>  (1) 
2
5
10

$$$$
