25301
     RDKit          3D

 20 21  0  0  1  0  0  0  0  0999 V2000
    5.5273    0.6889    0.4445 Cl  0  0  0  0  0  0  0  0  0  0  0  0
   -0.6342   -1.5976    0.6463 O   0  0  0  0  0  0  0  0  0  0  0  0
   -2.7522   -1.6924   -0.2511 O   0  0  0  0  0  0  0  0  0  0  0  0
   -2.0881   -3.0803    1.4578 N   0  0  0  0  0  0  0  0  0  0  0  0
   -0.3061   -0.5264   -0.2785 C   0  0  0  0  0  0  0  0  0  0  0  0
    1.2010   -0.2115   -0.0911 C   0  0  0  0  0  0  0  0  0  0  0  0
   -1.1577    0.6699   -0.0176 C   0  0  0  0  0  0  0  0  0  0  0  0
    1.7917    0.6360   -0.9849 C   0  0  0  0  0  0  0  0  0  0  0  0
    1.8505   -0.8009    0.9564 C   0  0  0  0  0  0  0  0  0  0  0  0
   -1.5553    1.4871   -1.0758 C   0  0  0  0  0  0  0  0  0  0  0  0
   -1.5570    0.9714    1.2845 C   0  0  0  0  0  0  0  0  0  0  0  0
   -0.5053   -1.1610   -1.6272 C   0  0  0  0  0  0  0  0  0  0  0  0
    3.1473    0.9183   -0.8171 C   0  0  0  0  0  0  0  0  0  0  0  0
    3.2062   -0.5187    1.1244 C   0  0  0  0  0  0  0  0  0  0  0  0
   -2.3520    2.6059   -0.8321 C   0  0  0  0  0  0  0  0  0  0  0  0
   -2.3539    2.0901    1.5282 C   0  0  0  0  0  0  0  0  0  0  0  0
    3.8547    0.3410    0.2377 C   0  0  0  0  0  0  0  0  0  0  0  0
   -2.7513    2.9073    0.4699 C   0  0  0  0  0  0  0  0  0  0  0  0
   -1.8968   -2.0784    0.5386 C   0  0  0  0  0  0  0  0  0  0  0  0
   -0.6687   -1.6487   -2.7129 C   0  0  0  0  0  0  0  0  0  0  0  0
  1 17  1  0
  2  5  1  0
  2 19  1  0
  3 19  2  0
  4 19  1  0
  5  6  1  0
  5  7  1  0
  5 12  1  0
  6  8  2  0
  6  9  1  0
  7 10  2  0
  7 11  1  0
  8 13  1  0
  9 14  2  0
 10 15  1  0
 11 16  2  0
 12 20  3  0
 13 17  2  0
 14 17  1  0
 15 18  2  0
 16 18  1  0
M  END
>  <PUBCHEM_COMPOUND_CID>  (1) 
25301

>  <PUBCHEM_CONFORMER_RMSD>  (1) 
0.6

>  <PUBCHEM_CONFORMER_DIVERSEORDER>  (1) 
1
11
10
7
8
12
4
9
15
13
6
14
3
2
5

>  <PUBCHEM_MMFF94_PARTIAL_CHARGES>  (1) 
32
1 -0.18
10 -0.15
11 -0.15
12 -0.2
13 -0.15
14 -0.15
15 -0.15
16 -0.15
17 0.18
18 -0.15
19 0.78
2 -0.43
20 -0.18
21 0.15
22 0.15
23 0.15
24 0.15
25 0.15
26 0.15
27 0.15
28 0.15
29 0.15
3 -0.57
30 0.18
31 0.37
32 0.37
4 -0.8
5 0.77
6 -0.14
7 -0.14
8 -0.15
9 -0.15

>  <PUBCHEM_EFFECTIVE_ROTOR_COUNT>  (1) 
4

>  <PUBCHEM_PHARMACOPHORE_FEATURES>  (1) 
5
1 20 hydrophobe
1 3 acceptor
1 4 donor
6 6 8 9 13 14 17 rings
6 7 10 11 15 16 18 rings

>  <PUBCHEM_HEAVY_ATOM_COUNT>  (1) 
20

>  <PUBCHEM_ATOM_DEF_STEREO_COUNT>  (1) 
0

>  <PUBCHEM_ATOM_UDEF_STEREO_COUNT>  (1) 
1

>  <PUBCHEM_BOND_DEF_STEREO_COUNT>  (1) 
0

>  <PUBCHEM_BOND_UDEF_STEREO_COUNT>  (1) 
0

>  <PUBCHEM_ISOTOPIC_ATOM_COUNT>  (1) 
0

>  <PUBCHEM_COMPONENT_COUNT>  (1) 
1

>  <PUBCHEM_CACTVS_TAUTO_COUNT>  (1) 
2

>  <PUBCHEM_CONFORMER_ID>  (1) 
000062D500000001

>  <PUBCHEM_MMFF94_ENERGY>  (1) 
61.7949

>  <PUBCHEM_FEATURE_SELFOVERLAP>  (1) 
25.371

>  <PUBCHEM_SHAPE_FINGERPRINT>  (1) 
11578080 2 16407664009060479257
11640471 11 18125419939629498240
12173636 292 18334569153408394690
12326174 3 17262155827190949551
12403814 3 17845094158875711990
12788726 201 18338219544829038763
13134695 92 17765718306117908607
13149001 5 17408839551697030063
13764800 53 17988933249004990752
14142880 1 18413101753862969189
14178342 30 18187072967383050834
14787075 74 18202280261230886841
14817 1 7830885352828233231
15309172 13 18045503019196202905
15534591 1 18340480084816430872
15852999 172 18127693725364687733
15906896 17 18411974750323247615
16945 1 18338530710798277667
18981168 100 17845110501094417684
19765921 60 17912916180889617009
200 152 17823687754168018742
20510252 161 18411417344966747226
20600515 1 17980508928795399963
21330990 113 17489873765096539463
21524375 3 18055341453589127405
21731228 192 18191310377173535217
2306618 200 17313929926967011742
23402539 116 18340203089912980039
23419403 2 14543898478946978791
23557571 272 18343588456044519216
23558518 356 18335705992338782715
23598288 3 18341618173840511932
25222932 49 14501257150495878785
2748010 2 17773901734359677502
298252 57 17558809720562497581
427121 178 17910985481462782265
4340502 62 18125169226021276473
474 4 17770781212806960089
497634 4 17895193363757336470
5104073 3 18335690655986041536
5845 1 14963595875504193881
68419 9 17244466085127737519
6992083 37 17749391447039298964
70251023 43 17841975965511637934
7097593 13 18040997289781537866
81228 2 18337403724396682083
9981440 41 17631437995790625706
9999458 23 17684936803971677775

>  <PUBCHEM_SHAPE_MULTIPOLES>  (1) 
396.74
6.55
2.97
1.77
10.11
0.35
0.67
-3.39
-1.58
-4.02
-0.39
-0.68
0.75
-0.07

>  <PUBCHEM_SHAPE_SELFOVERLAP>  (1) 
853.215

>  <PUBCHEM_SHAPE_VOLUME>  (1) 
218.1

>  <PUBCHEM_COORDINATE_TYPE>  (1) 
2
5
10

$$$$
