25312
     RDKit          3D

 24 23  0  0  0  0  0  0  0  0999 V2000
    2.7125    2.3882    0.8157 F   0  0  0  0  0  0  0  0  0  0  0  0
    3.6737    1.5533   -0.9545 F   0  0  0  0  0  0  0  0  0  0  0  0
    4.3973    1.0212    1.0291 F   0  0  0  0  0  0  0  0  0  0  0  0
    3.4425   -1.0718   -1.4215 F   0  0  0  0  0  0  0  0  0  0  0  0
    4.1052   -1.4602    0.6160 F   0  0  0  0  0  0  0  0  0  0  0  0
    2.2003   -2.2521   -0.0869 F   0  0  0  0  0  0  0  0  0  0  0  0
   -3.2354    0.7188    1.9203 F   0  0  0  0  0  0  0  0  0  0  0  0
   -3.5269   -1.4345    1.7717 F   0  0  0  0  0  0  0  0  0  0  0  0
   -4.7856   -0.0827    0.6134 F   0  0  0  0  0  0  0  0  0  0  0  0
   -1.7687    0.8774   -1.9915 F   0  0  0  0  0  0  0  0  0  0  0  0
   -2.2955    2.0341   -0.2292 F   0  0  0  0  0  0  0  0  0  0  0  0
   -3.8620    1.1062   -1.4273 F   0  0  0  0  0  0  0  0  0  0  0  0
    1.9250   -0.0971    1.7059 O   0  0  0  0  0  0  0  0  0  0  0  0
   -2.8728   -1.4561   -0.9086 O   0  0  0  0  0  0  0  0  0  0  0  0
   -0.0018   -1.5489   -1.4053 O   0  0  0  0  0  0  0  0  0  0  0  0
    2.3157    0.0845    0.3445 C   0  0  0  0  0  0  0  0  0  0  0  0
   -2.5236   -0.3376   -0.0913 C   0  0  0  0  0  0  0  0  0  0  0  0
    1.0681    0.4282   -0.4918 C   0  0  0  0  0  0  0  0  0  0  0  0
   -1.1137   -0.5682    0.4780 C   0  0  0  0  0  0  0  0  0  0  0  0
   -0.0168   -0.6413   -0.5754 C   0  0  0  0  0  0  0  0  0  0  0  0
    3.2812    1.2722    0.3081 C   0  0  0  0  0  0  0  0  0  0  0  0
    3.0227   -1.1795   -0.1436 C   0  0  0  0  0  0  0  0  0  0  0  0
   -3.5267   -0.2843    1.0618 C   0  0  0  0  0  0  0  0  0  0  0  0
   -2.6148    0.9299   -0.9376 C   0  0  0  0  0  0  0  0  0  0  0  0
  1 21  1  0
  2 21  1  0
  3 21  1  0
  4 22  1  0
  5 22  1  0
  6 22  1  0
  7 23  1  0
  8 23  1  0
  9 23  1  0
 10 24  1  0
 11 24  1  0
 12 24  1  0
 13 16  1  0
 14 17  1  0
 15 20  2  0
 16 18  1  0
 16 21  1  0
 16 22  1  0
 17 19  1  0
 17 23  1  0
 17 24  1  0
 18 20  1  0
 19 20  1  0
M  END
>  <PUBCHEM_COMPOUND_CID>  (1) 
25312

>  <PUBCHEM_CONFORMER_RMSD>  (1) 
0.8

>  <PUBCHEM_CONFORMER_DIVERSEORDER>  (1) 
1
47
44
38
46
22
14
34
6
37
45
29
7
41
42
4
23
25
21
39
28
43
5
36
48
49
17
8
40
10
16
35
2
31
24
26
30
27
20
11
33
19
15
9
13
12
18
3
32

>  <PUBCHEM_MMFF94_PARTIAL_CHARGES>  (1) 
26
1 -0.34
10 -0.34
11 -0.34
12 -0.34
13 -0.68
14 -0.68
15 -0.57
16 0.28
17 0.28
18 0.06
19 0.06
2 -0.34
20 0.45
21 1.02
22 1.02
23 1.02
24 1.02
29 0.4
3 -0.34
30 0.4
4 -0.34
5 -0.34
6 -0.34
7 -0.34
8 -0.34
9 -0.34

>  <PUBCHEM_EFFECTIVE_ROTOR_COUNT>  (1) 
8

>  <PUBCHEM_PHARMACOPHORE_FEATURES>  (1) 
5
1 13 acceptor
1 13 donor
1 14 acceptor
1 14 donor
1 15 acceptor

>  <PUBCHEM_HEAVY_ATOM_COUNT>  (1) 
24

>  <PUBCHEM_ATOM_DEF_STEREO_COUNT>  (1) 
0

>  <PUBCHEM_ATOM_UDEF_STEREO_COUNT>  (1) 
0

>  <PUBCHEM_BOND_DEF_STEREO_COUNT>  (1) 
0

>  <PUBCHEM_BOND_UDEF_STEREO_COUNT>  (1) 
0

>  <PUBCHEM_ISOTOPIC_ATOM_COUNT>  (1) 
0

>  <PUBCHEM_COMPONENT_COUNT>  (1) 
1

>  <PUBCHEM_CACTVS_TAUTO_COUNT>  (1) 
2

>  <PUBCHEM_CONFORMER_ID>  (1) 
000062E000000001

>  <PUBCHEM_MMFF94_ENERGY>  (1) 
41.0549

>  <PUBCHEM_FEATURE_SELFOVERLAP>  (1) 
25.375

>  <PUBCHEM_SHAPE_FINGERPRINT>  (1) 
10366900 7 18188775092369879064
10646746 165 17894906291784156420
10980938 120 18341610447479137246
1100329 8 16459935586086871674
11405975 8 18114739335042608728
11552529 35 18199477743224788107
11578080 2 14274283895141244007
12173636 292 17417816157988911143
12507557 5 18341603794237179226
12507560 40 18260544515540210436
12633257 1 18337964384906012995
12670545 47 18334295340442220455
12916754 54 18272366490595911359
12932764 1 18409450275715203774
13224815 77 18341890805236914695
13296908 3 18040715857200702844
13533116 47 17241596235657850331
13583140 156 18260540100224406075
14004511 7 17632855300316657782
14178342 30 16443058370632285947
14223421 5 18114180873340450584
14289901 80 17676211302878777698
15219456 202 18335698325652776326
15238133 3 16916801625434673779
15309172 13 18343582975228250279
15342168 16 18059018396814073857
15653759 3 18040437667984684917
16945 1 18200030629842630534
18186145 218 18060704987463219142
19049666 15 18115584820861291562
19862831 5 15267070245772010508
19868273 293 14117519831194773541
20645477 70 18270953562108589510
20681677 76 18335132107466671533
21864079 5 17418383501277411801
22646028 28 15285356227895760170
22854114 111 18272370884273283594
22854114 59 18410014355445230507
23557571 272 17822009826340834849
23559900 14 17604148125647343110
2838139 119 17272854204727641865
49207404 50 18333452070805419850
6049 1 18260269620484980828
633830 44 16917077671720349860
9882013 296 17967818300703806337

>  <PUBCHEM_SHAPE_MULTIPOLES>  (1) 
389.02
8.7
1.87
1.54
0.19
0.18
-0.08
0.83
-1.67
-1.08
0.13
0.91
0.04
0.84

>  <PUBCHEM_SHAPE_SELFOVERLAP>  (1) 
816.314

>  <PUBCHEM_SHAPE_VOLUME>  (1) 
217.9

>  <PUBCHEM_COORDINATE_TYPE>  (1) 
2
5
10

$$$$
