25316
     RDKit          3D

 28 31  0  0  0  0  0  0  0  0999 V2000
    2.5507   -2.3777   -0.0552 O   0  0  0  0  0  0  0  0  0  0  0  0
   -3.7467   -3.3341   -0.5269 O   0  0  0  0  0  0  0  0  0  0  0  0
   -3.8165    0.0704   -0.6056 N   0  0  0  0  0  0  0  0  0  0  0  0
    3.6560    0.8585   -0.1811 N   0  0  0  0  0  0  0  0  0  0  0  0
   -4.9578    0.9090   -0.2444 C   0  0  0  0  0  0  0  0  0  0  0  0
    5.0242    1.3159    0.0541 C   0  0  0  0  0  0  0  0  0  0  0  0
   -5.4123    1.7225   -1.4612 C   0  0  0  0  0  0  0  0  0  0  0  0
   -4.5810    1.8262    0.9244 C   0  0  0  0  0  0  0  0  0  0  0  0
    5.5368    2.0784   -1.1725 C   0  0  0  0  0  0  0  0  0  0  0  0
    5.9252    0.1187    0.3771 C   0  0  0  0  0  0  0  0  0  0  0  0
   -6.5567    2.6687   -1.1018 C   0  0  0  0  0  0  0  0  0  0  0  0
   -5.7260    2.7727    1.2806 C   0  0  0  0  0  0  0  0  0  0  0  0
    6.9922    2.5068   -0.9930 C   0  0  0  0  0  0  0  0  0  0  0  0
    7.3804    0.5491    0.5541 C   0  0  0  0  0  0  0  0  0  0  0  0
   -6.1899    3.5762    0.0690 C   0  0  0  0  0  0  0  0  0  0  0  0
    7.8913    1.3194   -0.6602 C   0  0  0  0  0  0  0  0  0  0  0  0
   -3.4019   -0.7563    0.5251 C   0  0  0  0  0  0  0  0  0  0  0  0
    3.1319    0.1750    0.9912 C   0  0  0  0  0  0  0  0  0  0  0  0
   -2.2245   -1.6222    0.1890 C   0  0  0  0  0  0  0  0  0  0  0  0
    1.7231   -0.3100    0.7747 C   0  0  0  0  0  0  0  0  0  0  0  0
   -0.9088   -1.1734    0.3890 C   0  0  0  0  0  0  0  0  0  0  0  0
    0.1711   -2.0257    0.0569 C   0  0  0  0  0  0  0  0  0  0  0  0
    1.4867   -1.5769    0.2565 C   0  0  0  0  0  0  0  0  0  0  0  0
    0.6722    0.5319    1.1031 C   0  0  0  0  0  0  0  0  0  0  0  0
   -0.6412    0.1025    0.9112 C   0  0  0  0  0  0  0  0  0  0  0  0
   -2.4720   -2.8929   -0.3309 C   0  0  0  0  0  0  0  0  0  0  0  0
   -0.0965   -3.3017   -0.4655 C   0  0  0  0  0  0  0  0  0  0  0  0
   -1.4100   -3.7310   -0.6576 C   0  0  0  0  0  0  0  0  0  0  0  0
  1 23  1  0
  2 26  1  0
  3  5  1  0
  3 17  1  0
  4  6  1  0
  4 18  1  0
  5  7  1  0
  5  8  1  0
  6  9  1  0
  6 10  1  0
  7 11  1  0
  8 12  1  0
  9 13  1  0
 10 14  1  0
 11 15  1  0
 12 15  1  0
 13 16  1  0
 14 16  1  0
 17 19  1  0
 18 20  1  0
 19 21  1  0
 19 26  2  0
 20 23  2  0
 20 24  1  0
 21 22  2  0
 21 25  1  0
 22 23  1  0
 22 27  1  0
 24 25  2  0
 26 28  1  0
 27 28  2  0
M  END
>  <PUBCHEM_COMPOUND_CID>  (1) 
25316

>  <PUBCHEM_CONFORMER_RMSD>  (1) 
1

>  <PUBCHEM_CONFORMER_DIVERSEORDER>  (1) 
1
52
16
18
44
47
24
49
17
55
30
45
42
51
54
29
37
35
53
13
39
22
33
56
41
48
12
23
14
6
26
32
36
4
57
28
31
15
3
10
46
43
27
50
58
20
21
11
7
9
25
40
38
34
2
5
8
19

>  <PUBCHEM_MMFF94_PARTIAL_CHARGES>  (1) 
24
1 -0.53
17 0.41
18 0.41
19 -0.14
2 -0.53
20 -0.14
23 0.08
24 -0.15
25 -0.15
26 0.08
27 -0.15
28 -0.15
3 -0.9
4 -0.9
5 0.27
51 0.36
52 0.36
57 0.15
58 0.15
59 0.15
6 0.27
60 0.15
61 0.45
62 0.45

>  <PUBCHEM_EFFECTIVE_ROTOR_COUNT>  (1) 
8.4

>  <PUBCHEM_PHARMACOPHORE_FEATURES>  (1) 
10
1 1 donor
1 2 donor
1 3 cation
1 3 donor
1 4 cation
1 4 donor
6 19 21 22 26 27 28 rings
6 20 21 22 23 24 25 rings
6 5 7 8 11 12 15 rings
6 6 9 10 13 14 16 rings

>  <PUBCHEM_HEAVY_ATOM_COUNT>  (1) 
28

>  <PUBCHEM_ATOM_DEF_STEREO_COUNT>  (1) 
0

>  <PUBCHEM_ATOM_UDEF_STEREO_COUNT>  (1) 
0

>  <PUBCHEM_BOND_DEF_STEREO_COUNT>  (1) 
0

>  <PUBCHEM_BOND_UDEF_STEREO_COUNT>  (1) 
0

>  <PUBCHEM_ISOTOPIC_ATOM_COUNT>  (1) 
0

>  <PUBCHEM_COMPONENT_COUNT>  (1) 
1

>  <PUBCHEM_CACTVS_TAUTO_COUNT>  (1) 
19

>  <PUBCHEM_CONFORMER_ID>  (1) 
000062E400000001

>  <PUBCHEM_MMFF94_ENERGY>  (1) 
53.5278

>  <PUBCHEM_FEATURE_SELFOVERLAP>  (1) 
50.775

>  <PUBCHEM_SHAPE_FINGERPRINT>  (1) 
10050765 1 18410292497306786714
10165383 225 18272096007125917443
10411042 1 17763743591777742095
105312 117 18412547621703837791
10675989 125 18195813959800631282
10906281 52 18130230346050885811
11200772 48 17775562056983896989
11475781 23 18272940419044878212
11578080 2 18408606941976037662
11578821 258 18194118750176159028
1200032 147 18336551508290413233
12218070 45 13985246434953822033
12236239 1 18188769582887012074
12293681 160 17775284937130353147
12422481 6 17385443215356994228
13248334 5 17977664204446876651
13540713 5 18263343876355983146
13690498 29 17914331531269125647
13911987 19 18341609279480771657
14251764 75 18410015395048966233
14790565 3 18341334375376554593
15183329 4 18115300202886340302
15198563 99 17984685974060171983
15297060 5 18272093785826446225
15419008 42 17917162641151751470
15439362 3 18196656194487015183
15510800 12 11959430315503198597
15604295 49 18265331906272257868
1577012 14 18113898304233951248
15803439 3 16917061149070879599
16087824 20 18269551802135467647
16992828 155 18040987441269340781
18608769 82 18341614871739103123
19053607 189 18122611761606265881
19427546 20 18338797935248047743
20715895 44 18411702059018653398
21033648 144 18188202097273825719
21279426 13 18201728336331881174
2260408 40 14707486919672015632
23516275 100 17751913615430722133
23522609 53 17750245845579993780
23559900 14 17702103776196933760
23569914 152 16912584878658049276
2748736 6 18410005516202465068
2838139 119 18412539946433742780
393628 194 18336829702287688613
4015057 19 15266777849084246858
4058900 60 18337956692693471315
504843 32 18408041827644110803
5372103 7 17532915140399571757
563151 74 16732985284367223048
6327066 14 18335978684576572973
6328613 192 18410009914480760048
6898599 12 18340207509075215878
7808743 9 18409163312181427057
9980921 52 14044077849424299252

>  <PUBCHEM_SHAPE_MULTIPOLES>  (1) 
554.53
20.01
4.55
1.14
20.86
2.1
0.04
-25.56
4.12
-6.22
1.19
-0.46
-0.56
-1.45

>  <PUBCHEM_SHAPE_SELFOVERLAP>  (1) 
1177.956

>  <PUBCHEM_SHAPE_VOLUME>  (1) 
306.6

>  <PUBCHEM_COORDINATE_TYPE>  (1) 
2
5
10

$$$$
