25328
     RDKit          3D

 26 27  0  0  1  0  0  0  0  0999 V2000
    0.8122   -0.1292   -0.3891 O   0  0  0  0  0  0  0  0  0  0  0  0
   -0.2542   -1.0024    1.4547 O   0  0  0  0  0  0  0  0  0  0  0  0
    4.4458   -0.8230   -0.1633 N   0  0  0  0  0  0  0  0  0  0  0  0
    2.0687   -0.2658    0.2760 C   0  0  0  0  0  0  0  0  0  0  0  0
    3.1496   -0.5562   -0.7706 C   0  0  0  0  0  0  0  0  0  0  0  0
    2.3048    0.9901    1.1287 C   0  0  0  0  0  0  0  0  0  0  0  0
    2.4526    2.2823    0.3189 C   0  0  0  0  0  0  0  0  0  0  0  0
    4.4654   -2.1523    0.4514 C   0  0  0  0  0  0  0  0  0  0  0  0
    5.5159   -0.7094   -1.1569 C   0  0  0  0  0  0  0  0  0  0  0  0
   -1.5523   -0.2800   -0.4867 C   0  0  0  0  0  0  0  0  0  0  0  0
   -0.2846   -0.5402    0.3211 C   0  0  0  0  0  0  0  0  0  0  0  0
    2.6911    3.4795    1.2273 C   0  0  0  0  0  0  0  0  0  0  0  0
    5.7899   -2.4158    1.1475 C   0  0  0  0  0  0  0  0  0  0  0  0
    5.5159    0.6627   -1.8093 C   0  0  0  0  0  0  0  0  0  0  0  0
   -2.0526    1.1536   -0.3634 C   0  0  0  0  0  0  0  0  0  0  0  0
   -2.6608   -1.2940   -0.2368 C   0  0  0  0  0  0  0  0  0  0  0  0
   -2.7446    1.7442   -1.4208 C   0  0  0  0  0  0  0  0  0  0  0  0
   -2.7393   -2.4478   -1.0167 C   0  0  0  0  0  0  0  0  0  0  0  0
   -1.8191    1.8758    0.8070 C   0  0  0  0  0  0  0  0  0  0  0  0
   -3.5973   -1.0692    0.7724 C   0  0  0  0  0  0  0  0  0  0  0  0
   -3.2028    3.0568   -1.3080 C   0  0  0  0  0  0  0  0  0  0  0  0
   -3.7545   -3.3767   -0.7879 C   0  0  0  0  0  0  0  0  0  0  0  0
   -2.2775    3.1883    0.9198 C   0  0  0  0  0  0  0  0  0  0  0  0
   -4.6122   -1.9983    1.0014 C   0  0  0  0  0  0  0  0  0  0  0  0
   -2.9694    3.7788   -0.1378 C   0  0  0  0  0  0  0  0  0  0  0  0
   -4.6908   -3.1519    0.2212 C   0  0  0  0  0  0  0  0  0  0  0  0
  1  4  1  0
  1 11  1  0
  2 11  2  0
  3  5  1  0
  3  8  1  0
  3  9  1  0
  4  5  1  0
  4  6  1  0
  6  7  1  0
  7 12  1  0
  8 13  1  0
  9 14  1  0
 10 11  1  0
 10 15  1  0
 10 16  1  0
 15 17  2  0
 15 19  1  0
 16 18  2  0
 16 20  1  0
 17 21  1  0
 18 22  1  0
 19 23  2  0
 20 24  2  0
 21 25  2  0
 22 26  2  0
 23 25  1  0
 24 26  1  0
M  END
>  <PUBCHEM_COMPOUND_CID>  (1) 
25328

>  <PUBCHEM_CONFORMER_RMSD>  (1) 
1.2

>  <PUBCHEM_CONFORMER_DIVERSEORDER>  (1) 
6
15
56
55
25
43
53
12
47
1
20
42
50
37
48
57
4
40
32
46
39
38
33
11
51
52
36
31
3
23
28
21
30
8
45
7
34
27
18
13
16
10
24
5
41
35
54
26
19
2
9
17
29
14
49
44
22

>  <PUBCHEM_MMFF94_PARTIAL_CHARGES>  (1) 
31
1 -0.43
10 0.35
11 0.66
15 -0.14
16 -0.14
17 -0.15
18 -0.15
19 -0.15
2 -0.57
20 -0.15
21 -0.15
22 -0.15
23 -0.15
24 -0.15
25 -0.15
26 -0.15
3 -0.81
4 0.28
48 0.15
49 0.15
5 0.27
50 0.15
51 0.15
52 0.15
53 0.15
54 0.15
55 0.15
56 0.15
57 0.15
8 0.27
9 0.27

>  <PUBCHEM_EFFECTIVE_ROTOR_COUNT>  (1) 
11

>  <PUBCHEM_PHARMACOPHORE_FEATURES>  (1) 
5
1 12 hydrophobe
1 2 acceptor
1 3 cation
6 15 17 19 21 23 25 rings
6 16 18 20 22 24 26 rings

>  <PUBCHEM_HEAVY_ATOM_COUNT>  (1) 
26

>  <PUBCHEM_ATOM_DEF_STEREO_COUNT>  (1) 
0

>  <PUBCHEM_ATOM_UDEF_STEREO_COUNT>  (1) 
1

>  <PUBCHEM_BOND_DEF_STEREO_COUNT>  (1) 
0

>  <PUBCHEM_BOND_UDEF_STEREO_COUNT>  (1) 
0

>  <PUBCHEM_ISOTOPIC_ATOM_COUNT>  (1) 
0

>  <PUBCHEM_COMPONENT_COUNT>  (1) 
1

>  <PUBCHEM_CACTVS_TAUTO_COUNT>  (1) 
1

>  <PUBCHEM_CONFORMER_ID>  (1) 
000062F000000006

>  <PUBCHEM_MMFF94_ENERGY>  (1) 
57.1103

>  <PUBCHEM_FEATURE_SELFOVERLAP>  (1) 
25.371

>  <PUBCHEM_SHAPE_FINGERPRINT>  (1) 
10595046 47 18259710012696825414
11056379 131 18411430491856722950
11763715 3 18190759702421015789
12107183 9 17756141194667610826
12293681 4 18127408956317353256
12403259 226 18411414046532233496
12633046 712 18337097965917486566
12633257 1 17845953899728072915
12788726 201 18334575767368367755
13004483 165 18270398412369697607
13583140 156 17916850345252541698
13690498 29 18341623637265928454
14251757 5 18196375819096344044
14347332 77 18409165536747886318
14713325 29 18341342084795066079
17492 89 18338788009499317290
1813 80 18046906254395453301
18393751 57 17118864679888554640
20600515 1 17388528591308729233
21703447 108 18267005323411784810
22182313 1 18058997471807261056
23558518 356 18334577953353389681
23559900 14 18339909489562850905
283562 15 18259988188811845403
350125 39 18410582781381948241
3737641 26 18126287673278586905
44062 13 18338516327074519086
4409770 3 18337384947385174519
46194498 28 18058181673219246580
497634 4 17774181083375140032
5104073 3 18338230475947737754
59554788 170 18269838786061424734
59755656 520 18190734225155336613
621550 34 17981876755224459264
70251023 43 18336828709627178915
7164475 11 18336824289973877588
7237137 82 18408612469382279796
7399639 24 18055059119893381256
9709674 26 18270663342541917221

>  <PUBCHEM_SHAPE_MULTIPOLES>  (1) 
518.35
12.09
4.87
1.42
14.31
2.29
-0.18
-8.15
-1.44
-5.1
0.46
0.66
0.29
0.27

>  <PUBCHEM_SHAPE_SELFOVERLAP>  (1) 
1062.943

>  <PUBCHEM_SHAPE_VOLUME>  (1) 
299.3

>  <PUBCHEM_COORDINATE_TYPE>  (1) 
2
5
10

$$$$
