25336
     RDKit          3D

 13 12  0  0  0  0  0  0  0  0999 V2000
    3.8838   -0.7210    1.1437 O   0  0  0  0  0  0  0  0  0  0  0  0
   -3.2791   -1.6035    0.7961 O   0  0  0  0  0  0  0  0  0  0  0  0
   -1.5201    1.3689    1.2549 O   0  0  0  0  0  0  0  0  0  0  0  0
   -0.3969    2.5224   -0.2469 O   0  0  0  0  0  0  0  0  0  0  0  0
    3.6494   -0.3483   -1.0893 O   0  0  0  0  0  0  0  0  0  0  0  0
   -3.0752   -0.4689   -1.1618 O   0  0  0  0  0  0  0  0  0  0  0  0
   -0.5269    0.2878   -0.4562 N   0  0  0  0  0  0  0  0  0  0  0  0
   -0.8236    1.4674    0.2376 N   0  0  0  0  0  0  0  0  0  0  0  0
    0.8673    0.1006   -0.8377 C   0  0  0  0  0  0  0  0  0  0  0  0
    1.7095   -0.2497    0.3854 C   0  0  0  0  0  0  0  0  0  0  0  0
   -1.0887   -0.9409    0.1192 C   0  0  0  0  0  0  0  0  0  0  0  0
    3.1636   -0.4360    0.0283 C   0  0  0  0  0  0  0  0  0  0  0  0
   -2.5632   -0.9787   -0.1731 C   0  0  0  0  0  0  0  0  0  0  0  0
  1 12  1  0
  2 13  1  0
  3  8  1  0
  4  8  2  0
  5 12  2  0
  6 13  2  0
  7  8  1  0
  7  9  1  0
  7 11  1  0
  9 10  1  0
 10 12  1  0
 11 13  1  0
M  CHG  2   3  -1   8   1
M  END
>  <PUBCHEM_COMPOUND_CID>  (1) 
25336

>  <PUBCHEM_CONFORMER_RMSD>  (1) 
0.6

>  <PUBCHEM_CONFORMER_DIVERSEORDER>  (1) 
1
68
275
154
88
320
19
27
169
26
304
280
35
160
359
122
295
300
143
16
273
119
156
261
53
289
184
57
165
115
158
103
196
6
283
126
8
231
298
9
172
378
170
148
193
195
48
102
30
356
256
147
177
268
125
260
142
138
110
136
282
50
202
191
316
118
5
130
208
288
294
255
140
223
134
141
145
72
307
230
163
306
217
28
232
66
326
116
192
104
342
45
63
310
302
2
251
139
228
314
204
105
144
264
270
49
97
236
287
109
371
127
32
351
71
60
90
69
245
225
249
41
336
243
254
205
168
61
380
207
162
4
189
42
375
13
129
317
133
137
173
43
94
203
297
360
340
167
92
358
337
15
215
267
83
281
132
23
24
339
357
372
176
199
262
11
175
328
188
38
55
305
112
265
44
373
85
338
124
3
315
150
157
220
58
369
257
212
291
123
367
276
377
87
36
106
309
299
272
318
216
379
332
161
334
33
178
21
22
200
271
327
190
14
76
187
18
91
82
253
86
120
54
269
37
333
242
64
180
382
246
241
284
59
77
355
240
181
149
31
366
290
218
95
198
46
219
20
17
221
363
186
52
376
234
324
93
152
214
292
321
277
210
47
224
279
341
62
78
100
323
34
370
99
159
285
151
361
266
293
233
343
89
74
111
182
65
274
308
113
121
235
345
352
29
286
263
362
250
51
206
354
209
146
248
237
7
107
39
114
101
10
222
155
296
131
80
174
117
303
98
166
73
381
201
197
252
313
183
312
213
247
374
171
329
301
128
325
227
194
12
331
350
96
185
244
239
278
84
75
335
258
353
330
322
226
153
70
25
311
348
40
347
56
259
211
238
349
67
81
79
164
179
135
344
364
108
346
319
229
368
365

>  <PUBCHEM_MMFF94_PARTIAL_CHARGES>  (1) 
15
1 -0.65
10 0.06
11 0.33
12 0.66
13 0.66
2 -0.65
20 0.5
21 0.5
3 -0.52
4 -0.52
5 -0.57
6 -0.57
7 -0.53
8 1.03
9 0.27

>  <PUBCHEM_EFFECTIVE_ROTOR_COUNT>  (1) 
6

>  <PUBCHEM_PHARMACOPHORE_FEATURES>  (1) 
8
1 1 acceptor
1 2 acceptor
1 3 acceptor
1 4 acceptor
1 5 acceptor
1 6 acceptor
3 1 5 12 anion
3 2 6 13 anion

>  <PUBCHEM_HEAVY_ATOM_COUNT>  (1) 
13

>  <PUBCHEM_ATOM_DEF_STEREO_COUNT>  (1) 
0

>  <PUBCHEM_ATOM_UDEF_STEREO_COUNT>  (1) 
0

>  <PUBCHEM_BOND_DEF_STEREO_COUNT>  (1) 
0

>  <PUBCHEM_BOND_UDEF_STEREO_COUNT>  (1) 
0

>  <PUBCHEM_ISOTOPIC_ATOM_COUNT>  (1) 
0

>  <PUBCHEM_COMPONENT_COUNT>  (1) 
1

>  <PUBCHEM_CACTVS_TAUTO_COUNT>  (1) 
1

>  <PUBCHEM_CONFORMER_ID>  (1) 
000062F800000001

>  <PUBCHEM_MMFF94_ENERGY>  (1) 
24.688

>  <PUBCHEM_FEATURE_SELFOVERLAP>  (1) 
40.795

>  <PUBCHEM_SHAPE_FINGERPRINT>  (1) 
10130415 120 18335987557699197467
17844478 74 17561365071737989506
20281407 28 18131632296322152734
20653085 51 15430034348882383415
20671657 53 18113054960759735436
20711985 327 17774726475554859829
20711985 344 18267288868531323681
20871998 184 18202006490670572431
21061003 4 18341899640375097611
23598294 1 18340491058357697754
3248919 1 18335422323018529062
5902787 121 18192151709711610611
81228 2 18340775818910861305

>  <PUBCHEM_SHAPE_MULTIPOLES>  (1) 
222.36
5.98
1.67
1.06
3.48
1.14
0.02
-3.08
0.23
-1.13
0.25
0.1
-0.03
-0.18

>  <PUBCHEM_SHAPE_SELFOVERLAP>  (1) 
431.967

>  <PUBCHEM_SHAPE_VOLUME>  (1) 
133.6

>  <PUBCHEM_COORDINATE_TYPE>  (1) 
2
5
10

$$$$
