25332
     RDKit          3D

 11 13  0  0  0  0  0  0  0  0999 V2000
   -2.6803    0.0001    0.0013 N   0  0  0  0  0  0  0  0  0  0  0  0
   -0.5487   -1.2645   -0.3561 C   0  0  0  0  0  0  0  0  0  0  0  0
   -0.5559    1.2577   -0.3637 C   0  0  0  0  0  0  0  0  0  0  0  0
    0.5879    0.0054    1.5089 C   0  0  0  0  0  0  0  0  0  0  0  0
    1.5912    0.0014   -0.8029 C   0  0  0  0  0  0  0  0  0  0  0  0
   -1.3883   -0.0068   -0.6867 C   0  0  0  0  0  0  0  0  0  0  0  0
   -0.2218   -1.2533    1.1508 C   0  0  0  0  0  0  0  0  0  0  0  0
    0.7767   -1.2582   -1.1459 C   0  0  0  0  0  0  0  0  0  0  0  0
   -0.2291    1.2573    1.1433 C   0  0  0  0  0  0  0  0  0  0  0  0
    0.7694    1.2541   -1.1535 C   0  0  0  0  0  0  0  0  0  0  0  0
    1.8989    0.0069    0.7045 C   0  0  0  0  0  0  0  0  0  0  0  0
  1  6  1  0
  2  6  1  0
  2  7  1  0
  2  8  1  0
  3  6  1  0
  3  9  1  0
  3 10  1  0
  4  7  1  0
  4  9  1  0
  4 11  1  0
  5  8  1  0
  5 10  1  0
  5 11  1  0
M  END
>  <PUBCHEM_COMPOUND_CID>  (1) 
25332

>  <PUBCHEM_CONFORMER_RMSD>  (1) 
0.4

>  <PUBCHEM_CONFORMER_DIVERSEORDER>  (1) 
1

>  <PUBCHEM_MMFF94_PARTIAL_CHARGES>  (1) 
4
1 -0.99
27 0.36
28 0.36
6 0.27

>  <PUBCHEM_EFFECTIVE_ROTOR_COUNT>  (1) 
1.2

>  <PUBCHEM_PHARMACOPHORE_FEATURES>  (1) 
6
1 1 cation
1 1 donor
6 2 3 4 6 7 9 rings
6 2 3 5 6 8 10 rings
6 2 4 5 7 8 11 rings
6 3 4 5 9 10 11 rings

>  <PUBCHEM_HEAVY_ATOM_COUNT>  (1) 
11

>  <PUBCHEM_ATOM_DEF_STEREO_COUNT>  (1) 
0

>  <PUBCHEM_ATOM_UDEF_STEREO_COUNT>  (1) 
0

>  <PUBCHEM_BOND_DEF_STEREO_COUNT>  (1) 
0

>  <PUBCHEM_BOND_UDEF_STEREO_COUNT>  (1) 
0

>  <PUBCHEM_ISOTOPIC_ATOM_COUNT>  (1) 
0

>  <PUBCHEM_COMPONENT_COUNT>  (1) 
1

>  <PUBCHEM_CACTVS_TAUTO_COUNT>  (1) 
1

>  <PUBCHEM_CONFORMER_ID>  (1) 
000062F400000001

>  <PUBCHEM_MMFF94_ENERGY>  (1) 
18.104

>  <PUBCHEM_FEATURE_SELFOVERLAP>  (1) 
42.938

>  <PUBCHEM_SHAPE_FINGERPRINT>  (1) 
12423570 1 17114133477021544092
13024252 1 15143241176378282444
137420 1 12440141871216955034
14817 1 8718826470479966200
15557651 10 18054192592718353832
16945 1 18338496604394356372
241688 4 17832723278473146404
29004967 10 17060334136730008594
369184 2 17603862360240818652
5084963 1 18263928735115954678
68250623 7 17608380360402915746

>  <PUBCHEM_SHAPE_MULTIPOLES>  (1) 
221.39
2.07
1.49
1.49
0.73
0
0.26
0
-0.16
0.04
-0.11
-0.34
0
0

>  <PUBCHEM_SHAPE_SELFOVERLAP>  (1) 
478.737

>  <PUBCHEM_SHAPE_VOLUME>  (1) 
114.6

>  <PUBCHEM_COORDINATE_TYPE>  (1) 
2
5
10

$$$$
