25335
     RDKit          3D

 14 14  0  0  0  0  0  0  0  0999 V2000
    0.1046   -0.1500   -0.1807 O   0  0  0  0  0  0  0  0  0  0  0  0
    1.3588    1.7368    0.2551 O   0  0  0  0  0  0  0  0  0  0  0  0
    4.8806   -0.5448   -0.4766 N   0  0  0  0  0  0  0  0  0  0  0  0
    5.3534   -1.1400    0.7668 C   0  0  0  0  0  0  0  0  0  0  0  0
    6.1188   -0.0355    0.0986 C   0  0  0  0  0  0  0  0  0  0  0  0
    3.7765    0.3723   -0.2231 C   0  0  0  0  0  0  0  0  0  0  0  0
    2.4426   -0.3610   -0.3299 C   0  0  0  0  0  0  0  0  0  0  0  0
   -3.6051    0.3814    0.0883 C   0  0  0  0  0  0  0  0  0  0  0  0
   -2.2821   -0.3491   -0.1365 C   0  0  0  0  0  0  0  0  0  0  0  0
   -4.8325   -0.5218   -0.0618 C   0  0  0  0  0  0  0  0  0  0  0  0
    1.2728    0.5543   -0.0460 C   0  0  0  0  0  0  0  0  0  0  0  0
   -1.0911    0.5805    0.0554 C   0  0  0  0  0  0  0  0  0  0  0  0
   -6.1574    0.2149    0.1389 C   0  0  0  0  0  0  0  0  0  0  0  0
   -7.3401   -0.7382    0.0517 C   0  0  0  0  0  0  0  0  0  0  0  0
  1 11  1  0
  1 12  1  0
  2 11  2  0
  3  4  1  0
  3  5  1  0
  3  6  1  0
  4  5  1  0
  6  7  1  0
  7 11  1  0
  8  9  1  0
  8 10  1  0
  9 12  1  0
 10 13  1  0
 13 14  1  0
M  END
>  <PUBCHEM_COMPOUND_CID>  (1) 
25335

>  <PUBCHEM_CONFORMER_RMSD>  (1) 
0.8

>  <PUBCHEM_CONFORMER_DIVERSEORDER>  (1) 
1
442
23
402
112
95
413
180
74
35
6
418
254
262
279
392
114
321
417
96
354
331
10
75
424
34
276
326
183
152
29
411
221
431
408
338
280
63
87
3
105
298
157
214
144
437
347
84
367
436
261
162
375
117
359
314
432
283
192
89
2
26
127
452
235
77
165
124
30
125
18
415
306
83
154
7
409
88
323
15
233
13
56
25
109
356
78
178
263
412
272
315
86
271
330
39
300
32
297
269
51
146
406
228
362
169
335
12
104
208
179
398
106
119
342
61
163
395
377
204
440
222
292
8
441
141
16
421
145
14
433
215
161
62
230
212
305
59
270
156
219
448
122
202
98
31
150
103
73
187
388
383
47
200
22
332
336
444
368
107
446
450
80
351
19
257
384
245
363
443
265
373
11
60
44
193
206
322
404
247
49
355
108
277
149
24
129
128
308
64
100
102
310
282
38
223
266
209
400
72
403
389
133
85
386
236
177
9
143
216
374
41
419
268
126
37
139
244
324
255
438
50
350
447
20
90
238
118
188
304
353
45
287
281
240
4
273
357
312
21
199
67
453
111
186
138
132
376
317
301
286
420
65
131
348
189
428
48
239
220
358
327
394
211
405
57
207
136
349
201
116
196
290
291
5
185
422
410
92
288
71
81
231
267
226
242
278
260
397
364
68
289
313
256
259
346
17
381
285
320
184
140
319
52
316
311
182
435
197
176
258
28
337
333
401
371
379
42
113
309
339
135
227
294
158
55
329
249
295
213
123
40
344
234
429
369
243
325
307
194
205
94
340
237
224
360
58
217
366
171
33
110
391
302
54
153
343
390
382
53
423
27
175
250
407
148
427
225
155
167
195
296
151
36
172
252
399
345
416
393
426
275
284
160
66
425
430
341
229
97
99
451
251
43
445
168
303
121
449
76
352
137
159
253
414
396
318
203
232
69
190
173
198
170
385
248
134
210
361
82
380
246
46
191
147
101
218
181
115
328
241
264
166
299
434
174
164
93
372
79
130
142
274
378
387
120
334
70
370
293
91
439
365

>  <PUBCHEM_MMFF94_PARTIAL_CHARGES>  (1) 
13
1 -0.43
11 0.66
12 0.28
15 0.1
16 0.1
17 0.1
18 0.1
2 -0.57
3 -0.59
4 -0.04
5 -0.04
6 0.27
7 0.06

>  <PUBCHEM_EFFECTIVE_ROTOR_COUNT>  (1) 
9.6

>  <PUBCHEM_PHARMACOPHORE_FEATURES>  (1) 
4
1 14 hydrophobe
1 2 acceptor
1 3 cation
4 8 9 10 13 hydrophobe

>  <PUBCHEM_HEAVY_ATOM_COUNT>  (1) 
14

>  <PUBCHEM_ATOM_DEF_STEREO_COUNT>  (1) 
0

>  <PUBCHEM_ATOM_UDEF_STEREO_COUNT>  (1) 
0

>  <PUBCHEM_BOND_DEF_STEREO_COUNT>  (1) 
0

>  <PUBCHEM_BOND_UDEF_STEREO_COUNT>  (1) 
0

>  <PUBCHEM_ISOTOPIC_ATOM_COUNT>  (1) 
0

>  <PUBCHEM_COMPONENT_COUNT>  (1) 
1

>  <PUBCHEM_CACTVS_TAUTO_COUNT>  (1) 
1

>  <PUBCHEM_CONFORMER_ID>  (1) 
000062F700000001

>  <PUBCHEM_MMFF94_ENERGY>  (1) 
10.0688

>  <PUBCHEM_FEATURE_SELFOVERLAP>  (1) 
20.297

>  <PUBCHEM_SHAPE_FINGERPRINT>  (1) 
10354089 29 13110962024680348394
12091667 2 17167863059271967565
12714333 28 8574712399122000479
13533116 47 18334853875649653906
14123256 10 11386364846452855103
1420 363 18201722851215038631
14251752 14 17749100059510099701
14251764 18 18342178881631275641
14251764 46 16660362584787106107
14729087 3 14261360120622280395
15048467 5 9727635003488544459
17834072 8 13840269182489981866
17834076 25 8574712399274968271
20621476 8 16153703186028181207
20645477 70 12252167551484380456
20735858 18 17275102821141819878
20767249 213 11527945660231864455
21130983 4 11455890273854794411
22224240 67 16702295759131403982
23035841 295 16877943845743986851
23218964 4 18334857212648818645
23402539 116 17775280569676288925
23521765 1 18413952789079513759
23536379 177 17530964661550903181
42788 4 18409450289090423573
4463277 17 18411418410166375428
8209 1 18334858320233461846

>  <PUBCHEM_SHAPE_MULTIPOLES>  (1) 
271.39
18.92
1.03
0.68
13.08
0.15
-0.02
-5.49
-1.14
-0.44
-0.11
-0.27
-0.05
-0.26

>  <PUBCHEM_SHAPE_SELFOVERLAP>  (1) 
507.592

>  <PUBCHEM_SHAPE_VOLUME>  (1) 
171.2

>  <PUBCHEM_COORDINATE_TYPE>  (1) 
2
5
10

$$$$
