25348
     RDKit          3D

 28 31  0  0  1  0  0  0  0  0999 V2000
   -1.7200    3.5382    1.0911 O   0  0  0  0  0  0  0  0  0  0  0  0
    5.0535   -0.2604   -0.0567 N   0  0  0  0  0  0  0  0  0  0  0  0
    1.4331    0.5545   -0.4622 N   0  0  0  0  0  0  0  0  0  0  0  0
   -1.0279    0.9862   -0.2072 C   0  0  0  0  0  0  0  0  0  0  0  0
   -0.8027    3.5371   -0.0157 C   0  0  0  0  0  0  0  0  0  0  0  0
   -1.0907    2.3560   -0.9219 C   0  0  0  0  0  0  0  0  0  0  0  0
   -0.9666    4.8820   -0.7024 C   0  0  0  0  0  0  0  0  0  0  0  0
    0.3308    0.7095    0.4761 C   0  0  0  0  0  0  0  0  0  0  0  0
   -1.4265   -0.1206   -1.2157 C   0  0  0  0  0  0  0  0  0  0  0  0
   -1.2735    5.7816    0.4684 C   0  0  0  0  0  0  0  0  0  0  0  0
   -2.1421    4.8893    1.3293 C   0  0  0  0  0  0  0  0  0  0  0  0
    3.8104    0.0542   -0.7602 C   0  0  0  0  0  0  0  0  0  0  0  0
    6.2139    0.0128   -0.9161 C   0  0  0  0  0  0  0  0  0  0  0  0
    5.0470   -1.6578    0.3985 C   0  0  0  0  0  0  0  0  0  0  0  0
    2.6691    0.2232    0.2383 C   0  0  0  0  0  0  0  0  0  0  0  0
    7.5248   -0.2643   -0.1783 C   0  0  0  0  0  0  0  0  0  0  0  0
    6.3195   -1.9897    1.1792 C   0  0  0  0  0  0  0  0  0  0  0  0
    7.5683   -1.6908    0.3575 C   0  0  0  0  0  0  0  0  0  0  0  0
   -1.9637   -1.3777   -0.5754 C   0  0  0  0  0  0  0  0  0  0  0  0
   -3.3320   -1.5527   -0.3115 C   0  0  0  0  0  0  0  0  0  0  0  0
   -1.0426   -2.3739   -0.2497 C   0  0  0  0  0  0  0  0  0  0  0  0
   -3.7721   -2.7553    0.2910 C   0  0  0  0  0  0  0  0  0  0  0  0
   -1.4755   -3.5565    0.3425 C   0  0  0  0  0  0  0  0  0  0  0  0
   -4.2731   -0.5608   -0.6323 C   0  0  0  0  0  0  0  0  0  0  0  0
   -2.8312   -3.7474    0.6117 C   0  0  0  0  0  0  0  0  0  0  0  0
   -5.1403   -2.9305    0.5549 C   0  0  0  0  0  0  0  0  0  0  0  0
   -5.6285   -0.7518   -0.3629 C   0  0  0  0  0  0  0  0  0  0  0  0
   -6.0614   -1.9344    0.2297 C   0  0  0  0  0  0  0  0  0  0  0  0
  1  5  1  0
  1 11  1  0
  2 12  1  0
  2 13  1  0
  2 14  1  0
  3  8  1  0
  3 15  1  0
  4  6  1  0
  4  8  1  0
  4  9  1  0
  5  6  1  0
  5  7  1  0
  7 10  1  0
  9 19  1  0
 10 11  1  0
 12 15  1  0
 13 16  1  0
 14 17  1  0
 16 18  1  0
 17 18  1  0
 19 20  1  0
 19 21  2  0
 20 22  2  0
 20 24  1  0
 21 23  1  0
 22 25  1  0
 22 26  1  0
 23 25  2  0
 24 27  2  0
 26 28  2  0
 27 28  1  0
M  END
>  <PUBCHEM_COMPOUND_CID>  (1) 
25348

>  <PUBCHEM_CONFORMER_RMSD>  (1) 
1.2

>  <PUBCHEM_CONFORMER_DIVERSEORDER>  (1) 
1
98
45
88
128
84
39
123
113
36
80
14
48
133
19
135
8
18
136
63
81
59
50
94
65
137
7
62
118
49
38
4
20
56
57
31
138
43
16
87
58
144
29
103
122
105
112
132
13
21
95
76
73
11
119
83
46
40
69
54
60
23
106
32
109
2
110
22
3
74
91
72
126
30
100
102
141
96
129
124
93
6
10
92
107
86
44
47
15
120
5
79
127
146
101
70
140
27
115
17
104
85
61
51
134
77
42
99
125
26
131
37
41
145
108
67
121
114
130
82
97
68
71
12
25
75
33
143
64
142
117
52
111
53
9
139
28
24
55
35
89
116
66
90
78
34

>  <PUBCHEM_MMFF94_PARTIAL_CHARGES>  (1) 
27
1 -0.56
11 0.28
12 0.27
13 0.27
14 0.27
15 0.27
19 -0.14
2 -0.81
21 -0.15
23 -0.15
24 -0.15
25 -0.15
26 -0.15
27 -0.15
28 -0.15
3 -0.9
49 0.36
5 0.28
58 0.15
59 0.15
60 0.15
61 0.15
62 0.15
63 0.15
64 0.15
8 0.27
9 0.14

>  <PUBCHEM_EFFECTIVE_ROTOR_COUNT>  (1) 
11.2

>  <PUBCHEM_PHARMACOPHORE_FEATURES>  (1) 
8
1 1 acceptor
1 2 cation
1 3 cation
1 3 donor
5 1 5 7 10 11 rings
6 19 20 21 22 23 25 rings
6 2 13 14 16 17 18 rings
6 20 22 24 26 27 28 rings

>  <PUBCHEM_HEAVY_ATOM_COUNT>  (1) 
28

>  <PUBCHEM_ATOM_DEF_STEREO_COUNT>  (1) 
0

>  <PUBCHEM_ATOM_UDEF_STEREO_COUNT>  (1) 
2

>  <PUBCHEM_BOND_DEF_STEREO_COUNT>  (1) 
0

>  <PUBCHEM_BOND_UDEF_STEREO_COUNT>  (1) 
0

>  <PUBCHEM_ISOTOPIC_ATOM_COUNT>  (1) 
0

>  <PUBCHEM_COMPONENT_COUNT>  (1) 
1

>  <PUBCHEM_CACTVS_TAUTO_COUNT>  (1) 
1

>  <PUBCHEM_CONFORMER_ID>  (1) 
0000630400000001

>  <PUBCHEM_MMFF94_ENERGY>  (1) 
52.7399

>  <PUBCHEM_FEATURE_SELFOVERLAP>  (1) 
40.623

>  <PUBCHEM_SHAPE_FINGERPRINT>  (1) 
11456790 92 18337124457872120667
12633046 712 18047186633850127383
12760667 363 18410569604290655991
12788726 201 18335693910416087219
13004483 165 18341048618174693556
14068700 675 18333732446566090660
14394314 77 18409731802331683843
14420673 8 18261394498485922059
14866123 147 18339925896680936569
14955137 171 18265616661991091499
15042514 8 18410292493232637989
15064986 266 18343023247223039612
15927050 60 17765152770161379247
16087824 20 18338235960990934269
16992752 21 18338248149912461396
19301679 30 18339651052923370822
21120745 212 18338813281061045868
21304303 172 18343308063505406473
23559900 14 18051407667905881067
255183 313 18126024675594452481
283562 15 18338232648837218053
3004659 81 17967809496680518454
335352 9 18335418011198801647
3418910 222 18335984268630942636
437815 12 18337387257608334791
4409770 3 18261665970831460181
497634 4 18114458977532654140
563151 97 17617366286981319189
6058803 2 17410217635383776327
6697151 62 18123449821494415999
7226269 152 18411416189958167671
79837 15 18051415067491187704
9961470 85 17692239739324959914
9981440 41 17761501283155843064
999808 66 17458635557372751043

>  <PUBCHEM_SHAPE_MULTIPOLES>  (1) 
560.4
16.34
7.11
1.02
34.25
12.95
0.04
-17.02
1.02
-9.07
2.31
0.09
0.41
-0.88

>  <PUBCHEM_SHAPE_SELFOVERLAP>  (1) 
1171.499

>  <PUBCHEM_SHAPE_VOLUME>  (1) 
317.9

>  <PUBCHEM_COORDINATE_TYPE>  (1) 
2
5
10

$$$$
