25346
     RDKit          3D

 27 30  0  0  1  0  0  0  0  0999 V2000
    1.2962   -3.5692    1.0561 O   0  0  0  0  0  0  0  0  0  0  0  0
   -5.3015    0.5543    0.0588 N   0  0  0  0  0  0  0  0  0  0  0  0
   -1.7381   -0.4194   -0.4105 N   0  0  0  0  0  0  0  0  0  0  0  0
    0.7057   -0.9703   -0.1987 C   0  0  0  0  0  0  0  0  0  0  0  0
    0.3629   -3.5101   -0.0357 C   0  0  0  0  0  0  0  0  0  0  0  0
    0.6924   -2.3320   -0.9316 C   0  0  0  0  0  0  0  0  0  0  0  0
    0.4522   -4.8519   -0.7419 C   0  0  0  0  0  0  0  0  0  0  0  0
   -0.6278   -0.6389    0.5098 C   0  0  0  0  0  0  0  0  0  0  0  0
    1.1406    0.1298   -1.1996 C   0  0  0  0  0  0  0  0  0  0  0  0
    0.7343   -5.7805    0.4125 C   0  0  0  0  0  0  0  0  0  0  0  0
    1.6574   -4.9417    1.2705 C   0  0  0  0  0  0  0  0  0  0  0  0
   -6.5067    0.3989   -0.7550 C   0  0  0  0  0  0  0  0  0  0  0  0
   -5.3039    1.9559    0.4772 C   0  0  0  0  0  0  0  0  0  0  0  0
   -4.0918    0.1926   -0.6649 C   0  0  0  0  0  0  0  0  0  0  0  0
   -7.5514    1.1759    0.0322 C   0  0  0  0  0  0  0  0  0  0  0  0
   -6.7613    2.2015    0.8392 C   0  0  0  0  0  0  0  0  0  0  0  0
   -2.9436   -0.0402    0.3125 C   0  0  0  0  0  0  0  0  0  0  0  0
    1.7465    1.3515   -0.5523 C   0  0  0  0  0  0  0  0  0  0  0  0
    3.1255    1.4582   -0.3083 C   0  0  0  0  0  0  0  0  0  0  0  0
    0.8788    2.3855   -0.1992 C   0  0  0  0  0  0  0  0  0  0  0  0
    3.6314    2.6306    0.3021 C   0  0  0  0  0  0  0  0  0  0  0  0
    1.3764    3.5385    0.4007 C   0  0  0  0  0  0  0  0  0  0  0  0
    4.0134    0.4275   -0.6568 C   0  0  0  0  0  0  0  0  0  0  0  0
    2.7437    3.6617    0.6503 C   0  0  0  0  0  0  0  0  0  0  0  0
    5.0103    2.7376    0.5460 C   0  0  0  0  0  0  0  0  0  0  0  0
    5.3804    0.5507   -0.4068 C   0  0  0  0  0  0  0  0  0  0  0  0
    5.8779    1.7036    0.1935 C   0  0  0  0  0  0  0  0  0  0  0  0
  1  5  1  0
  1 11  1  0
  2 12  1  0
  2 13  1  0
  2 14  1  0
  3  8  1  0
  3 17  1  0
  4  6  1  0
  4  8  1  0
  4  9  1  0
  5  6  1  0
  5  7  1  0
  7 10  1  0
  9 18  1  0
 10 11  1  0
 12 15  1  0
 13 16  1  0
 14 17  1  0
 15 16  1  0
 18 19  1  0
 18 20  2  0
 19 21  2  0
 19 23  1  0
 20 22  1  0
 21 24  1  0
 21 25  1  0
 22 24  2  0
 23 26  2  0
 25 27  2  0
 26 27  1  0
M  END
>  <PUBCHEM_COMPOUND_CID>  (1) 
25346

>  <PUBCHEM_CONFORMER_RMSD>  (1) 
1

>  <PUBCHEM_CONFORMER_DIVERSEORDER>  (1) 
1
186
180
165
108
52
71
178
28
142
127
105
177
233
82
98
87
262
190
36
231
230
38
232
51
229
104
206
133
79
253
171
97
42
88
75
109
249
122
219
166
89
17
90
112
218
173
34
35
209
103
8
239
31
14
26
203
22
33
238
193
47
138
107
235
99
19
61
212
139
6
24
237
223
143
196
62
135
228
149
7
43
125
266
157
110
176
197
204
126
27
72
77
244
240
225
11
187
93
147
198
55
174
192
124
130
13
65
260
67
73
227
20
261
129
221
161
220
18
44
210
264
37
148
53
194
113
80
3
175
241
116
256
201
59
131
202
57
255
158
254
183
40
25
74
30
69
119
60
141
137
152
78
70
5
128
154
224
101
189
259
86
164
56
144
226
32
217
21
39
156
46
188
151
50
195
123
54
159
121
150
214
185
136
258
117
12
250
243
252
41
207
245
92
81
23
263
205
247
160
106
168
222
45
76
169
58
234
114
4
140
84
48
216
248
10
102
15
145
132
120
94
155
172
236
163
265
49
91
242
83
257
29
9
66
179
251
200
68
184
2
191
85
95
16
208
162
111
100
64
215
181
170
146
63
199
96
153
134
182
211
213
118
115
167
246

>  <PUBCHEM_MMFF94_PARTIAL_CHARGES>  (1) 
27
1 -0.56
11 0.28
12 0.27
13 0.27
14 0.27
17 0.27
18 -0.14
2 -0.81
20 -0.15
22 -0.15
23 -0.15
24 -0.15
25 -0.15
26 -0.15
27 -0.15
3 -0.9
5 0.28
54 0.36
55 0.15
56 0.15
57 0.15
58 0.15
59 0.15
60 0.15
61 0.15
8 0.27
9 0.14

>  <PUBCHEM_EFFECTIVE_ROTOR_COUNT>  (1) 
11

>  <PUBCHEM_PHARMACOPHORE_FEATURES>  (1) 
8
1 1 acceptor
1 2 cation
1 3 cation
1 3 donor
5 1 5 7 10 11 rings
5 2 12 13 15 16 rings
6 18 19 20 21 22 24 rings
6 19 21 23 25 26 27 rings

>  <PUBCHEM_HEAVY_ATOM_COUNT>  (1) 
27

>  <PUBCHEM_ATOM_DEF_STEREO_COUNT>  (1) 
0

>  <PUBCHEM_ATOM_UDEF_STEREO_COUNT>  (1) 
2

>  <PUBCHEM_BOND_DEF_STEREO_COUNT>  (1) 
0

>  <PUBCHEM_BOND_UDEF_STEREO_COUNT>  (1) 
0

>  <PUBCHEM_ISOTOPIC_ATOM_COUNT>  (1) 
0

>  <PUBCHEM_COMPONENT_COUNT>  (1) 
1

>  <PUBCHEM_CACTVS_TAUTO_COUNT>  (1) 
1

>  <PUBCHEM_CONFORMER_ID>  (1) 
0000630200000001

>  <PUBCHEM_MMFF94_ENERGY>  (1) 
56.8887

>  <PUBCHEM_FEATURE_SELFOVERLAP>  (1) 
40.623

>  <PUBCHEM_SHAPE_FINGERPRINT>  (1) 
10411042 1 17689998934010789551
11488393 25 18045206164062567389
12107183 9 18336815498982944672
12788726 201 17546146958678722154
13692114 37 18190181377018165083
13955234 65 18337113350559327867
14150023 79 18409731751119240575
14725015 67 18268711607341115294
15420108 30 18337943579984411711
15664445 248 17984713211735544974
15878777 1 9355151056734114287
15927050 60 18339922713942105814
16728300 4 17534876630224586818
16992752 21 17474680446778405830
20028762 73 18202284675887353468
21033648 29 18268423714718264408
21049683 118 18196911461341294850
21344244 78 18052805962970160323
21641784 216 9366522477151183266
23845131 108 18335137631048555827
335352 9 18341897420262530692
376196 1 17917145134131842068
38695281 34 18410574015337950995
4058900 60 18338248127620050801
5385378 56 18336830797223630577
59755656 215 18335704910339411725
6371380 46 18340490054000163780
77188 2 17761773961975967543
79837 15 18193275432270448755
9981440 41 18336549434216945467

>  <PUBCHEM_SHAPE_MULTIPOLES>  (1) 
539.82
14.73
7.22
0.99
28.69
13.85
0.01
-17.73
0.69
-6.12
2.23
-0.04
0.42
-0.48

>  <PUBCHEM_SHAPE_SELFOVERLAP>  (1) 
1134.109

>  <PUBCHEM_SHAPE_VOLUME>  (1) 
306.5

>  <PUBCHEM_COORDINATE_TYPE>  (1) 
2
5
10

$$$$
