25340
     RDKit          3D

 13 15  0  0  0  0  0  0  0  0999 V2000
   -2.1626   -0.0012   -0.2234 N   0  0  0  0  0  0  0  0  0  0  0  0
   -0.0531   -1.2646    0.2507 C   0  0  0  0  0  0  0  0  0  0  0  0
   -0.0613    1.2577    0.2543 C   0  0  0  0  0  0  0  0  0  0  0  0
    2.0125    0.0023    0.9659 C   0  0  0  0  0  0  0  0  0  0  0  0
    1.3122    0.0034   -1.4550 C   0  0  0  0  0  0  0  0  0  0  0  0
   -0.9097   -0.0067    0.5335 C   0  0  0  0  0  0  0  0  0  0  0  0
    1.1592   -1.2562    1.2037 C   0  0  0  0  0  0  0  0  0  0  0  0
    0.4648   -1.2559   -1.2025 C   0  0  0  0  0  0  0  0  0  0  0  0
    1.1510    1.2545    1.2073 C   0  0  0  0  0  0  0  0  0  0  0  0
    0.4565    1.2563   -1.1990 C   0  0  0  0  0  0  0  0  0  0  0  0
    2.5100    0.0060   -0.4895 C   0  0  0  0  0  0  0  0  0  0  0  0
   -2.9344    1.2036    0.0769 C   0  0  0  0  0  0  0  0  0  0  0  0
   -2.9450   -1.1991    0.0773 C   0  0  0  0  0  0  0  0  0  0  0  0
  1  6  1  0
  1 12  1  0
  1 13  1  0
  2  6  1  0
  2  7  1  0
  2  8  1  0
  3  6  1  0
  3  9  1  0
  3 10  1  0
  4  7  1  0
  4  9  1  0
  4 11  1  0
  5  8  1  0
  5 10  1  0
  5 11  1  0
M  END
>  <PUBCHEM_COMPOUND_CID>  (1) 
25340

>  <PUBCHEM_CONFORMER_RMSD>  (1) 
0.6

>  <PUBCHEM_CONFORMER_DIVERSEORDER>  (1) 
1

>  <PUBCHEM_MMFF94_PARTIAL_CHARGES>  (1) 
4
1 -0.81
12 0.27
13 0.27
6 0.27

>  <PUBCHEM_EFFECTIVE_ROTOR_COUNT>  (1) 
2.2

>  <PUBCHEM_PHARMACOPHORE_FEATURES>  (1) 
5
1 1 cation
6 2 3 4 6 7 9 rings
6 2 3 5 6 8 10 rings
6 2 4 5 7 8 11 rings
6 3 4 5 9 10 11 rings

>  <PUBCHEM_HEAVY_ATOM_COUNT>  (1) 
13

>  <PUBCHEM_ATOM_DEF_STEREO_COUNT>  (1) 
0

>  <PUBCHEM_ATOM_UDEF_STEREO_COUNT>  (1) 
0

>  <PUBCHEM_BOND_DEF_STEREO_COUNT>  (1) 
0

>  <PUBCHEM_BOND_UDEF_STEREO_COUNT>  (1) 
0

>  <PUBCHEM_ISOTOPIC_ATOM_COUNT>  (1) 
0

>  <PUBCHEM_COMPONENT_COUNT>  (1) 
1

>  <PUBCHEM_CACTVS_TAUTO_COUNT>  (1) 
1

>  <PUBCHEM_CONFORMER_ID>  (1) 
000062FC00000001

>  <PUBCHEM_MMFF94_ENERGY>  (1) 
33.0802

>  <PUBCHEM_FEATURE_SELFOVERLAP>  (1) 
37.864

>  <PUBCHEM_SHAPE_FINGERPRINT>  (1) 
10702982 57 17097791319981718670
11680611 10 17699533087097472638
12326174 3 15913056369553076150
12423570 1 15464125080463427862
13024252 1 16534494621076858618
13380536 243 17023455464504649110
14817 1 14797383054857382308
14993402 34 17748827453371914270
15557651 10 18340753897640193692
15775835 57 18335141977349068409
16945 1 18269260408748798642
23559900 14 18201167551411002030
2748010 2 18201150057202096529
5084963 1 18337399356198560115
528886 8 17676496037793662212
68250623 7 17698427064594200544

>  <PUBCHEM_SHAPE_MULTIPOLES>  (1) 
262.55
3.5
1.58
1.36
2.65
0
-0.16
0
0.13
0.31
0.08
-0.73
0
0

>  <PUBCHEM_SHAPE_SELFOVERLAP>  (1) 
558.827

>  <PUBCHEM_SHAPE_VOLUME>  (1) 
141.1

>  <PUBCHEM_COORDINATE_TYPE>  (1) 
2
5
10

$$$$
