25355
     RDKit          3D

 16 15  0  0  1  0  0  0  0  0999 V2000
    2.4447    0.1109   -1.1631 S   0  0  0  0  0  0  0  0  0  0  0  0
   -0.5246    0.1931   -1.6051 S   0  0  0  0  0  0  0  0  0  0  0  0
   -4.0290   -0.0695   -1.4732 S   0  0  0  0  0  0  0  0  0  0  0  0
   -2.3274   -0.0287   -0.4972 P   0  0  0  0  0  0  0  0  0  0  0  0
    2.6286    1.5538   -1.5310 O   0  0  0  0  0  0  0  0  0  0  0  0
   -2.3111    1.1119    0.6746 O   0  0  0  0  0  0  0  0  0  0  0  0
   -2.1323   -1.3384    0.4623 O   0  0  0  0  0  0  0  0  0  0  0  0
    3.3777   -0.1801    0.3601 C   0  0  0  0  0  0  0  0  0  0  0  0
    3.0187   -1.5733    0.8857 C   0  0  0  0  0  0  0  0  0  0  0  0
    3.0077    0.8896    1.3920 C   0  0  0  0  0  0  0  0  0  0  0  0
    4.8719   -0.1079    0.0309 C   0  0  0  0  0  0  0  0  0  0  0  0
    0.8032   -0.0611   -0.4039 C   0  0  0  0  0  0  0  0  0  0  0  0
   -2.4529    2.4834    0.3439 C   0  0  0  0  0  0  0  0  0  0  0  0
   -2.0791   -2.6385   -0.1008 C   0  0  0  0  0  0  0  0  0  0  0  0
   -2.4017    3.3047    1.6146 C   0  0  0  0  0  0  0  0  0  0  0  0
   -1.8942   -3.6500    1.0103 C   0  0  0  0  0  0  0  0  0  0  0  0
  1  5  2  0
  1  8  1  0
  1 12  1  0
  2  4  1  0
  2 12  1  0
  3  4  2  0
  4  6  1  0
  4  7  1  0
  6 13  1  0
  7 14  1  0
  8  9  1  0
  8 10  1  0
  8 11  1  0
 13 15  1  0
 14 16  1  0
M  END
>  <PUBCHEM_COMPOUND_CID>  (1) 
25355

>  <PUBCHEM_CONFORMER_RMSD>  (1) 
0.8

>  <PUBCHEM_CONFORMER_DIVERSEORDER>  (1) 
1
30
8
21
26
29
15
13
4
10
31
3
11
20
18
5
17
27
7
25
32
28
6
23
19
2
22
16
12
9
24
14

>  <PUBCHEM_MMFF94_PARTIAL_CHARGES>  (1) 
11
1 0.11
12 0.42
13 0.28
14 0.28
2 -0.48
3 -0.68
4 1.47
5 -0.5
6 -0.55
7 -0.55
8 0.19

>  <PUBCHEM_EFFECTIVE_ROTOR_COUNT>  (1) 
8

>  <PUBCHEM_PHARMACOPHORE_FEATURES>  (1) 
2
1 5 acceptor
4 8 9 10 11 hydrophobe

>  <PUBCHEM_HEAVY_ATOM_COUNT>  (1) 
16

>  <PUBCHEM_ATOM_DEF_STEREO_COUNT>  (1) 
0

>  <PUBCHEM_ATOM_UDEF_STEREO_COUNT>  (1) 
1

>  <PUBCHEM_BOND_DEF_STEREO_COUNT>  (1) 
0

>  <PUBCHEM_BOND_UDEF_STEREO_COUNT>  (1) 
0

>  <PUBCHEM_ISOTOPIC_ATOM_COUNT>  (1) 
0

>  <PUBCHEM_COMPONENT_COUNT>  (1) 
1

>  <PUBCHEM_CACTVS_TAUTO_COUNT>  (1) 
1

>  <PUBCHEM_CONFORMER_ID>  (1) 
0000630B00000001

>  <PUBCHEM_MMFF94_ENERGY>  (1) 
15.8311

>  <PUBCHEM_FEATURE_SELFOVERLAP>  (1) 
10.148

>  <PUBCHEM_SHAPE_FINGERPRINT>  (1) 
10366900 7 18202274827548156582
11036077 51 18339082566782881291
12500047 106 18339358561549821816
12596599 1 18114183051390029566
12788726 201 18342470265598685205
13032168 30 17896601884922644338
13275264 69 18122084232125834043
13294875 104 17333949555496865197
13533116 47 18269824350803287735
14115302 16 18261102010980027077
14178342 30 18334851715117443562
14787075 74 17111865210256182900
187816 3 18340473531213295911
192875 21 18412536622261191221
20645477 70 16660360372752381030
21524375 3 17840878378134835189
23402539 116 18271515447432062029
23503958 8 18409728478438537890
23557571 272 18267016339908161050
23558518 356 18269845207549254831
23559900 14 18265041599823642140
23598288 3 18266745877343967143
539174 4 17617928141637620307
6992083 37 18040722441364508013
81228 2 18272379667740165541
90127 26 17775004596737190080

>  <PUBCHEM_SHAPE_MULTIPOLES>  (1) 
327.06
8.1
3.43
1.65
5.83
0.95
0.21
-0.67
0.07
-4.39
-2.41
-0.28
-0.52
-0.87

>  <PUBCHEM_SHAPE_SELFOVERLAP>  (1) 
554.484

>  <PUBCHEM_SHAPE_VOLUME>  (1) 
223

>  <PUBCHEM_COORDINATE_TYPE>  (1) 
2
5
10

$$$$
