25351
     RDKit          3D

 27 31  0  0  1  0  0  0  0  0999 V2000
    0.7391   -0.7193    0.2175 O   0  0  0  0  0  0  0  0  0  0  0  0
   -1.9065    0.4380    2.3005 O   0  0  0  0  0  0  0  0  0  0  0  0
    0.5658   -0.3913    2.4977 O   0  0  0  0  0  0  0  0  0  0  0  0
    4.1691    0.0759    0.2559 N   0  0  0  0  0  0  0  0  0  0  0  0
    2.6596   -1.6469   -0.9714 C   0  0  0  0  0  0  0  0  0  0  0  0
    2.0564   -1.2519    0.3888 C   0  0  0  0  0  0  0  0  0  0  0  0
    4.0535   -2.2318   -0.7023 C   0  0  0  0  0  0  0  0  0  0  0  0
    2.8474   -0.3742   -1.8157 C   0  0  0  0  0  0  0  0  0  0  0  0
    2.9523   -0.1932    1.0567 C   0  0  0  0  0  0  0  0  0  0  0  0
    4.9016   -1.1934    0.0510 C   0  0  0  0  0  0  0  0  0  0  0  0
    3.7584    0.6077   -1.0617 C   0  0  0  0  0  0  0  0  0  0  0  0
   -1.2669    0.2123    1.0278 C   0  0  0  0  0  0  0  0  0  0  0  0
    0.1118   -0.3282    1.3631 C   0  0  0  0  0  0  0  0  0  0  0  0
   -2.0872   -0.8930    0.3414 C   0  0  0  0  0  0  0  0  0  0  0  0
   -1.0309    1.6096    0.4380 C   0  0  0  0  0  0  0  0  0  0  0  0
   -2.8454   -0.7750   -0.8377 C   0  0  0  0  0  0  0  0  0  0  0  0
   -1.0589    1.9399   -0.9274 C   0  0  0  0  0  0  0  0  0  0  0  0
   -2.8783    0.4597   -1.6940 C   0  0  0  0  0  0  0  0  0  0  0  0
   -1.4744    0.9625   -1.9866 C   0  0  0  0  0  0  0  0  0  0  0  0
   -2.1193   -2.1590    0.9917 C   0  0  0  0  0  0  0  0  0  0  0  0
   -0.6355    2.6386    1.3350 C   0  0  0  0  0  0  0  0  0  0  0  0
   -3.6221   -1.8684   -1.2903 C   0  0  0  0  0  0  0  0  0  0  0  0
   -0.7175    3.2445   -1.3498 C   0  0  0  0  0  0  0  0  0  0  0  0
   -2.8749   -3.2351    0.5239 C   0  0  0  0  0  0  0  0  0  0  0  0
   -0.3097    3.9272    0.9078 C   0  0  0  0  0  0  0  0  0  0  0  0
   -3.6372   -3.0861   -0.6189 C   0  0  0  0  0  0  0  0  0  0  0  0
   -0.3501    4.2310   -0.4411 C   0  0  0  0  0  0  0  0  0  0  0  0
  1  6  1  0
  1 13  1  0
  2 12  1  0
  3 13  2  0
  4  9  1  0
  4 10  1  0
  4 11  1  0
  5  6  1  0
  5  7  1  0
  5  8  1  0
  6  9  1  0
  7 10  1  0
  8 11  1  0
 12 13  1  0
 12 14  1  0
 12 15  1  0
 14 16  1  0
 14 20  2  0
 15 17  2  0
 15 21  1  0
 16 18  1  0
 16 22  2  0
 17 19  1  0
 17 23  1  0
 18 19  1  0
 20 24  1  0
 21 25  2  0
 22 26  1  0
 23 27  2  0
 24 26  2  0
 25 27  1  0
M  END
>  <PUBCHEM_COMPOUND_CID>  (1) 
25351

>  <PUBCHEM_CONFORMER_RMSD>  (1) 
0.8

>  <PUBCHEM_CONFORMER_DIVERSEORDER>  (1) 
2
57
29
50
43
11
20
25
47
56
38
8
19
28
52
26
53
22
16
51
5
49
18
27
30
31
39
32
45
14
17
24
37
23
7
9
13
12
21
34
3
48
6
46
41
1
40
42
15
35
33
36
4
55
44
10
54

>  <PUBCHEM_MMFF94_PARTIAL_CHARGES>  (1) 
33
1 -0.43
10 0.27
11 0.27
12 0.63
13 0.66
14 -0.14
15 -0.14
16 -0.14
17 -0.14
18 0.14
19 0.14
2 -0.68
20 -0.15
21 -0.15
22 -0.15
23 -0.15
24 -0.15
25 -0.15
26 -0.15
27 -0.15
3 -0.57
4 -0.81
44 0.15
45 0.15
46 0.4
47 0.15
48 0.15
49 0.15
50 0.15
51 0.15
52 0.15
6 0.28
9 0.27

>  <PUBCHEM_EFFECTIVE_ROTOR_COUNT>  (1) 
4.8

>  <PUBCHEM_PHARMACOPHORE_FEATURES>  (1) 
8
1 2 acceptor
1 2 donor
1 3 acceptor
1 4 cation
6 14 16 20 22 24 26 rings
6 15 17 21 23 25 27 rings
7 12 14 15 16 17 18 19 rings
8 4 5 6 7 8 9 10 11 rings

>  <PUBCHEM_HEAVY_ATOM_COUNT>  (1) 
27

>  <PUBCHEM_ATOM_DEF_STEREO_COUNT>  (1) 
0

>  <PUBCHEM_ATOM_UDEF_STEREO_COUNT>  (1) 
1

>  <PUBCHEM_BOND_DEF_STEREO_COUNT>  (1) 
0

>  <PUBCHEM_BOND_UDEF_STEREO_COUNT>  (1) 
0

>  <PUBCHEM_ISOTOPIC_ATOM_COUNT>  (1) 
0

>  <PUBCHEM_COMPONENT_COUNT>  (1) 
1

>  <PUBCHEM_CACTVS_TAUTO_COUNT>  (1) 
1

>  <PUBCHEM_CONFORMER_ID>  (1) 
0000630700000002

>  <PUBCHEM_MMFF94_ENERGY>  (1) 
91.4777

>  <PUBCHEM_FEATURE_SELFOVERLAP>  (1) 
40.618

>  <PUBCHEM_SHAPE_FINGERPRINT>  (1) 
11045515 52 18335701680170011989
11115154 58 17631145621030962989
11477941 20 18265639679058526436
11488393 25 17469890346898278643
11578080 2 17059190610399119304
11640471 11 17025424496677611480
12156800 1 15508222880081810436
12173636 292 17978800008062169176
12788726 201 18264757762693857977
13004483 165 18413389826072820815
13149001 5 18190715683665241341
13224815 77 15482093987259936142
133893 2 17757570907311989377
13681431 1 18195805404225368569
13911987 19 17830475112808890916
14251757 17 15720241767073326511
14790565 3 18121491363620996869
14856354 85 13901905665861075262
14863182 85 17122531542634891427
14955137 171 18264229001207718507
15463212 79 17903912262778399674
15475509 8 18341040849312085015
15849732 13 18341065034251719425
17349148 13 17095516280279641842
17492 54 17828774172245968646
1813 80 18200327648342993015
18981168 100 15504648178674638138
19930381 70 18195529426933825912
20600515 1 18048840148808757249
20905425 154 17465343776539615057
21304303 282 17687146865251054132
22182313 1 17246659761708577539
22907989 373 18339081488819761278
23352939 185 18265054811475288915
23419403 2 17984681557931379513
23557571 272 18339349808401256194
26353 1 18335698398825716405
35225 105 17831895384951856028
46194498 28 17832402561003440039
513532 50 17539653179171152215
5895379 119 13269636928430708431
6669772 16 17261037044161766604
6786 2 17192385255830406097
81228 2 18340488872240488585
84936 31 17695614548094251297

>  <PUBCHEM_SHAPE_MULTIPOLES>  (1) 
533.06
7.01
4.46
1.95
7.05
3.88
0.24
-6.87
-2.18
-2.98
-0.14
-0.5
0.37
0.25

>  <PUBCHEM_SHAPE_SELFOVERLAP>  (1) 
1180.264

>  <PUBCHEM_SHAPE_VOLUME>  (1) 
278.4

>  <PUBCHEM_COORDINATE_TYPE>  (1) 
2
5
10

$$$$
