25375
     RDKit          3D

  8  8  0  0  0  0  0  0  0  0999 V2000
    0.6913    1.4087    0.0007 O   0  0  0  0  0  0  0  0  0  0  0  0
   -0.6974    1.4567    0.0001 N   0  0  0  0  0  0  0  0  0  0  0  0
    0.0004   -0.7112   -0.0006 C   0  0  0  0  0  0  0  0  0  0  0  0
    1.0949    0.1124    0.0002 C   0  0  0  0  0  0  0  0  0  0  0  0
   -1.0875    0.1788   -0.0006 C   0  0  0  0  0  0  0  0  0  0  0  0
   -0.0237   -2.1831    0.0007 C   0  0  0  0  0  0  0  0  0  0  0  0
    2.5456   -0.1184   -0.0005 C   0  0  0  0  0  0  0  0  0  0  0  0
   -2.5238   -0.1439    0.0000 C   0  0  0  0  0  0  0  0  0  0  0  0
  1  2  1  0
  1  4  1  0
  2  5  2  0
  3  4  2  0
  3  5  1  0
  3  6  1  0
  4  7  1  0
  5  8  1  0
M  END
>  <PUBCHEM_COMPOUND_CID>  (1) 
25375

>  <PUBCHEM_CONFORMER_RMSD>  (1) 
0.4

>  <PUBCHEM_CONFORMER_DIVERSEORDER>  (1) 
1

>  <PUBCHEM_MMFF94_PARTIAL_CHARGES>  (1) 
8
1 -0.02
2 -0.41
3 -0.18
4 -0.04
5 0.11
6 0.18
7 0.18
8 0.18

>  <PUBCHEM_EFFECTIVE_ROTOR_COUNT>  (1) 
0

>  <PUBCHEM_PHARMACOPHORE_FEATURES>  (1) 
2
1 2 acceptor
5 1 2 3 4 5 rings

>  <PUBCHEM_HEAVY_ATOM_COUNT>  (1) 
8

>  <PUBCHEM_ATOM_DEF_STEREO_COUNT>  (1) 
0

>  <PUBCHEM_ATOM_UDEF_STEREO_COUNT>  (1) 
0

>  <PUBCHEM_BOND_DEF_STEREO_COUNT>  (1) 
0

>  <PUBCHEM_BOND_UDEF_STEREO_COUNT>  (1) 
0

>  <PUBCHEM_ISOTOPIC_ATOM_COUNT>  (1) 
0

>  <PUBCHEM_COMPONENT_COUNT>  (1) 
1

>  <PUBCHEM_CACTVS_TAUTO_COUNT>  (1) 
1

>  <PUBCHEM_CONFORMER_ID>  (1) 
0000631F00000001

>  <PUBCHEM_MMFF94_ENERGY>  (1) 
4.0475

>  <PUBCHEM_FEATURE_SELFOVERLAP>  (1) 
10.148

>  <PUBCHEM_SHAPE_FINGERPRINT>  (1) 
16714656 1 18410295817521143518
21040471 1 18266458904544866113
23552423 10 17974016050381700126
29004967 10 18335990787382638025
5084963 1 18202565076889793488

>  <PUBCHEM_SHAPE_MULTIPOLES>  (1) 
153.79
2.73
1.7
0.59
0.08
0.63
0
-0.14
0
-0.03
0
0
0.03
0

>  <PUBCHEM_SHAPE_SELFOVERLAP>  (1) 
310.104

>  <PUBCHEM_SHAPE_VOLUME>  (1) 
93.9

>  <PUBCHEM_COORDINATE_TYPE>  (1) 
2
5
10

$$$$
