2537
     RDKit          3D

 11 12  0  0  1  0  0  0  0  0999 V2000
   -2.5236    0.3669    0.2597 O   0  0  0  0  0  0  0  0  0  0  0  0
    0.9678    0.2884    0.4111 C   0  0  0  0  0  0  0  0  0  0  0  0
   -0.2144    0.5208   -0.5698 C   0  0  0  0  0  0  0  0  0  0  0  0
    0.6028   -1.2103    0.6019 C   0  0  0  0  0  0  0  0  0  0  0  0
   -0.0159   -0.5640   -1.6533 C   0  0  0  0  0  0  0  0  0  0  0  0
    0.5689   -1.7483   -0.8515 C   0  0  0  0  0  0  0  0  0  0  0  0
   -0.8584   -1.1836    1.1146 C   0  0  0  0  0  0  0  0  0  0  0  0
   -1.3694   -0.0317    0.2721 C   0  0  0  0  0  0  0  0  0  0  0  0
    2.3676    0.5153   -0.1924 C   0  0  0  0  0  0  0  0  0  0  0  0
    0.9057    1.1276    1.7038 C   0  0  0  0  0  0  0  0  0  0  0  0
   -0.4310    1.9190   -1.0963 C   0  0  0  0  0  0  0  0  0  0  0  0
  1  8  2  0
  2  3  1  0
  2  4  1  0
  2  9  1  0
  2 10  1  0
  3  5  1  0
  3  8  1  0
  3 11  1  0
  4  6  1  0
  4  7  1  0
  5  6  1  0
  7  8  1  0
M  END
>  <PUBCHEM_COMPOUND_CID>  (1) 
2537

>  <PUBCHEM_CONFORMER_RMSD>  (1) 
0.4

>  <PUBCHEM_CONFORMER_DIVERSEORDER>  (1) 
2
1

>  <PUBCHEM_MMFF94_PARTIAL_CHARGES>  (1) 
4
1 -0.57
3 0.06
7 0.06
8 0.45

>  <PUBCHEM_EFFECTIVE_ROTOR_COUNT>  (1) 
0.8

>  <PUBCHEM_PHARMACOPHORE_FEATURES>  (1) 
3
1 1 acceptor
3 2 9 10 hydrophobe
7 2 3 4 5 6 7 8 rings

>  <PUBCHEM_HEAVY_ATOM_COUNT>  (1) 
11

>  <PUBCHEM_ATOM_DEF_STEREO_COUNT>  (1) 
0

>  <PUBCHEM_ATOM_UDEF_STEREO_COUNT>  (1) 
2

>  <PUBCHEM_BOND_DEF_STEREO_COUNT>  (1) 
0

>  <PUBCHEM_BOND_UDEF_STEREO_COUNT>  (1) 
0

>  <PUBCHEM_ISOTOPIC_ATOM_COUNT>  (1) 
0

>  <PUBCHEM_COMPONENT_COUNT>  (1) 
1

>  <PUBCHEM_CACTVS_TAUTO_COUNT>  (1) 
2

>  <PUBCHEM_CONFORMER_ID>  (1) 
000009E900000002

>  <PUBCHEM_MMFF94_ENERGY>  (1) 
45.5559

>  <PUBCHEM_FEATURE_SELFOVERLAP>  (1) 
15.223

>  <PUBCHEM_SHAPE_FINGERPRINT>  (1) 
10702982 57 17059765714998756366
12423570 1 14860341893585486455
13024252 1 15800102487933614696
137420 1 12616704927318302423
15557651 10 18343009008662726072
16945 1 18270977781365510386
369184 2 15648437035393806496
5084963 1 18337934723750752232
68250623 7 16696424186418110912

>  <PUBCHEM_SHAPE_MULTIPOLES>  (1) 
220.51
2.05
1.72
1.52
0.05
0.02
-0.01
0.43
-0.35
0.01
0.3
-0.11
0.07
0.31

>  <PUBCHEM_SHAPE_SELFOVERLAP>  (1) 
469.959

>  <PUBCHEM_SHAPE_VOLUME>  (1) 
131.3

>  <PUBCHEM_COORDINATE_TYPE>  (1) 
2
5
10

$$$$
