25376
     RDKit          3D

 13 13  0  0  1  0  0  0  0  0999 V2000
    1.6577    0.0482   -0.6282 O   0  0  0  0  0  0  0  0  0  0  0  0
    1.4079   -1.9957    0.4297 O   0  0  0  0  0  0  0  0  0  0  0  0
   -2.2825    1.0032    0.3978 N   0  0  0  0  0  0  0  0  0  0  0  0
   -3.1518    0.1354   -0.4076 C   0  0  0  0  0  0  0  0  0  0  0  0
   -0.8680    0.8221    0.0194 C   0  0  0  0  0  0  0  0  0  0  0  0
   -2.8244   -1.3437   -0.1514 C   0  0  0  0  0  0  0  0  0  0  0  0
   -0.4607   -0.6216   -0.0575 C   0  0  0  0  0  0  0  0  0  0  0  0
   -1.3496   -1.6223   -0.1200 C   0  0  0  0  0  0  0  0  0  0  0  0
   -2.6753    2.4050    0.2674 C   0  0  0  0  0  0  0  0  0  0  0  0
    0.9631   -0.9607   -0.0429 C   0  0  0  0  0  0  0  0  0  0  0  0
    2.9910    0.2379   -0.1437 C   0  0  0  0  0  0  0  0  0  0  0  0
    3.6466    1.3742   -0.9137 C   0  0  0  0  0  0  0  0  0  0  0  0
    2.9459    0.5179    1.3507 C   0  0  0  0  0  0  0  0  0  0  0  0
  1 10  1  0
  1 11  1  0
  2 10  2  0
  3  4  1  0
  3  5  1  0
  3  9  1  0
  4  6  1  0
  5  7  1  0
  6  8  1  0
  7  8  2  0
  7 10  1  0
 11 12  1  0
 11 13  1  0
M  END
>  <PUBCHEM_COMPOUND_CID>  (1) 
25376

>  <PUBCHEM_CONFORMER_RMSD>  (1) 
0.6

>  <PUBCHEM_CONFORMER_DIVERSEORDER>  (1) 
1
11
35
37
31
47
36
15
57
53
32
55
27
28
34
16
22
40
13
10
51
56
38
23
33
30
8
24
26
20
3
12
52
44
43
14
48
54
42
29
5
9
17
2
50
4
45
39
6
7
41
46
19
49
25
21
18

>  <PUBCHEM_MMFF94_PARTIAL_CHARGES>  (1) 
12
1 -0.43
10 0.71
11 0.28
2 -0.57
20 0.15
3 -0.81
4 0.27
5 0.41
6 0.14
7 -0.12
8 -0.29
9 0.27

>  <PUBCHEM_EFFECTIVE_ROTOR_COUNT>  (1) 
3.8

>  <PUBCHEM_PHARMACOPHORE_FEATURES>  (1) 
4
1 2 acceptor
1 3 cation
3 11 12 13 hydrophobe
6 3 4 5 6 7 8 rings

>  <PUBCHEM_HEAVY_ATOM_COUNT>  (1) 
13

>  <PUBCHEM_ATOM_DEF_STEREO_COUNT>  (1) 
0

>  <PUBCHEM_ATOM_UDEF_STEREO_COUNT>  (1) 
0

>  <PUBCHEM_BOND_DEF_STEREO_COUNT>  (1) 
0

>  <PUBCHEM_BOND_UDEF_STEREO_COUNT>  (1) 
0

>  <PUBCHEM_ISOTOPIC_ATOM_COUNT>  (1) 
0

>  <PUBCHEM_COMPONENT_COUNT>  (1) 
1

>  <PUBCHEM_CACTVS_TAUTO_COUNT>  (1) 
1

>  <PUBCHEM_CONFORMER_ID>  (1) 
0000632000000001

>  <PUBCHEM_MMFF94_ENERGY>  (1) 
22.893

>  <PUBCHEM_FEATURE_SELFOVERLAP>  (1) 
20.297

>  <PUBCHEM_SHAPE_FINGERPRINT>  (1) 
10608611 8 18272086089176200288
12162725 195 18335136505518392256
12346645 44 18335422391537363726
12491281 212 18335709325053549840
12932764 1 17632294605300363670
13380535 21 18341906142570520347
13764800 53 18411427210738656841
14325111 11 18410576184433169638
14648413 74 18124604080437350047
14897335 6 18338229371539820287
15669948 3 18340482391066533262
15775835 57 18339086990435633121
16945 1 18340484568709696283
1741750 31 18200595783140590065
18186145 218 18125724491549808469
20510252 161 18268718370785361336
20525323 117 18409164428693679807
20653085 51 18197229048518957035
20671657 1 18264492789145132766
21501502 16 18339638936751433299
21524375 3 18126000473426643805
22485316 2 10015591584165148300
23048698 100 17313375764521835616
23402539 116 18270107041123621255
23552423 10 18263641775471827371
23557571 272 18058462056852192759
2748010 2 18267309737866903799
305870 269 18261952938448758898
3248919 1 18187641405571459386
369184 2 16298380279731747051
57177213 63 18407760335096646882
6333449 129 18272087214584037415
7364860 26 18127970815370232262
8030462 33 18341886381542062119

>  <PUBCHEM_SHAPE_MULTIPOLES>  (1) 
250.81
6.1
2.07
0.88
2.38
0.38
0.11
2.25
-0.4
-1.25
0.13
0.68
0.16
-0.52

>  <PUBCHEM_SHAPE_SELFOVERLAP>  (1) 
496.535

>  <PUBCHEM_SHAPE_VOLUME>  (1) 
150.8

>  <PUBCHEM_COORDINATE_TYPE>  (1) 
2
5
10

$$$$
