25371
     RDKit          3D

  7  7  0  0  0  0  0  0  0  0999 V2000
    2.3754   -0.3899    0.0561 O   0  0  0  0  0  0  0  0  0  0  0  0
    0.4024    0.2331    0.2604 N   0  0  0  0  0  0  0  0  0  0  0  0
    1.5805    0.5126   -0.2240 N   0  0  0  0  0  0  0  0  0  0  0  0
   -0.6592    1.2207    0.0075 C   0  0  0  0  0  0  0  0  0  0  0  0
   -0.1519   -1.0997   -0.0330 C   0  0  0  0  0  0  0  0  0  0  0  0
   -1.9161    0.4137   -0.0224 C   0  0  0  0  0  0  0  0  0  0  0  0
   -1.6310   -0.8905   -0.0447 C   0  0  0  0  0  0  0  0  0  0  0  0
  1  3  2  0
  2  3  1  0
  2  4  1  0
  2  5  1  0
  4  6  1  0
  5  7  1  0
  6  7  2  0
M  END
>  <PUBCHEM_COMPOUND_CID>  (1) 
25371

>  <PUBCHEM_CONFORMER_RMSD>  (1) 
0.4

>  <PUBCHEM_CONFORMER_DIVERSEORDER>  (1) 
1
2

>  <PUBCHEM_MMFF94_PARTIAL_CHARGES>  (1) 
9
1 -0.16
12 0.15
13 0.15
2 -0.36
3 -0.01
4 0.41
5 0.41
6 -0.29
7 -0.29

>  <PUBCHEM_EFFECTIVE_ROTOR_COUNT>  (1) 
1.6

>  <PUBCHEM_PHARMACOPHORE_FEATURES>  (1) 
1
5 2 4 5 6 7 rings

>  <PUBCHEM_HEAVY_ATOM_COUNT>  (1) 
7

>  <PUBCHEM_ATOM_DEF_STEREO_COUNT>  (1) 
0

>  <PUBCHEM_ATOM_UDEF_STEREO_COUNT>  (1) 
0

>  <PUBCHEM_BOND_DEF_STEREO_COUNT>  (1) 
0

>  <PUBCHEM_BOND_UDEF_STEREO_COUNT>  (1) 
0

>  <PUBCHEM_ISOTOPIC_ATOM_COUNT>  (1) 
0

>  <PUBCHEM_COMPONENT_COUNT>  (1) 
1

>  <PUBCHEM_CACTVS_TAUTO_COUNT>  (1) 
1

>  <PUBCHEM_CONFORMER_ID>  (1) 
0000631B00000001

>  <PUBCHEM_MMFF94_ENERGY>  (1) 
13.9914

>  <PUBCHEM_FEATURE_SELFOVERLAP>  (1) 
5.074

>  <PUBCHEM_SHAPE_FINGERPRINT>  (1) 
16714656 1 18410577283807679829
20096714 4 18408886209128008729
21040471 1 18267583503176877345
23552423 10 18260833691572825686
29004967 10 18339367486143774779
5460574 1 9223236242905433194

>  <PUBCHEM_SHAPE_MULTIPOLES>  (1) 
128.23
2.6
1.22
0.59
1.09
0
0
0.13
0.05
-0.3
0.01
-0.05
0
-0.03

>  <PUBCHEM_SHAPE_SELFOVERLAP>  (1) 
255.485

>  <PUBCHEM_SHAPE_VOLUME>  (1) 
78.1

>  <PUBCHEM_COORDINATE_TYPE>  (1) 
2
5
10

$$$$
