25377
     RDKit          3D

 15 16  0  0  1  0  0  0  0  0999 V2000
    0.9926    0.9587   -0.1483 S   0  0  0  0  0  0  0  0  0  0  0  0
   -2.4665   -2.1425    0.2815 O   0  0  0  0  0  0  0  0  0  0  0  0
    4.5625   -0.5345    0.0241 O   0  0  0  0  0  0  0  0  0  0  0  0
    3.8489    1.5351   -0.1889 O   0  0  0  0  0  0  0  0  0  0  0  0
   -1.4369   -0.0207   -0.0634 N   0  0  0  0  0  0  0  0  0  0  0  0
   -3.6977   -0.2188   -0.2577 N   0  0  0  0  0  0  0  0  0  0  0  0
    0.4186   -1.5493    0.1026 N   0  0  0  0  0  0  0  0  0  0  0  0
    3.6160    0.2987   -0.0650 N   0  0  0  0  0  0  0  0  0  0  0  0
   -1.9685    1.3386   -0.2038 C   0  0  0  0  0  0  0  0  0  0  0  0
   -3.4034    1.1217   -0.6745 C   0  0  0  0  0  0  0  0  0  0  0  0
   -1.9182    2.0983    1.1202 C   0  0  0  0  0  0  0  0  0  0  0  0
   -2.5233   -0.9469    0.0232 C   0  0  0  0  0  0  0  0  0  0  0  0
   -0.1114   -0.3507   -0.0217 C   0  0  0  0  0  0  0  0  0  0  0  0
    2.2922   -0.1538   -0.0271 C   0  0  0  0  0  0  0  0  0  0  0  0
    1.7950   -1.4339    0.0989 C   0  0  0  0  0  0  0  0  0  0  0  0
  1 13  1  0
  1 14  1  0
  2 12  2  0
  3  8  1  0
  4  8  2  0
  5  9  1  0
  5 12  1  0
  5 13  1  0
  6 10  1  0
  6 12  1  0
  7 13  2  0
  7 15  1  0
  8 14  1  0
  9 10  1  0
  9 11  1  0
 14 15  2  0
M  CHG  2   3  -1   8   1
M  END
>  <PUBCHEM_COMPOUND_CID>  (1) 
25377

>  <PUBCHEM_CONFORMER_RMSD>  (1) 
0.6

>  <PUBCHEM_CONFORMER_DIVERSEORDER>  (1) 
2
5
3
6
8
4
1
7

>  <PUBCHEM_MMFF94_PARTIAL_CHARGES>  (1) 
16
1 -0.08
10 0.3
12 0.69
13 0.44
14 0.12
15 0.08
19 0.37
2 -0.57
23 0.15
3 -0.52
4 -0.52
5 -0.42
6 -0.73
7 -0.57
8 0.96
9 0.3

>  <PUBCHEM_EFFECTIVE_ROTOR_COUNT>  (1) 
2.8

>  <PUBCHEM_PHARMACOPHORE_FEATURES>  (1) 
7
1 2 acceptor
1 3 acceptor
1 3 anion
1 4 acceptor
1 6 donor
5 1 7 13 14 15 rings
5 5 6 9 10 12 rings

>  <PUBCHEM_HEAVY_ATOM_COUNT>  (1) 
15

>  <PUBCHEM_ATOM_DEF_STEREO_COUNT>  (1) 
0

>  <PUBCHEM_ATOM_UDEF_STEREO_COUNT>  (1) 
1

>  <PUBCHEM_BOND_DEF_STEREO_COUNT>  (1) 
0

>  <PUBCHEM_BOND_UDEF_STEREO_COUNT>  (1) 
0

>  <PUBCHEM_ISOTOPIC_ATOM_COUNT>  (1) 
0

>  <PUBCHEM_COMPONENT_COUNT>  (1) 
1

>  <PUBCHEM_CACTVS_TAUTO_COUNT>  (1) 
2

>  <PUBCHEM_CONFORMER_ID>  (1) 
0000632100000002

>  <PUBCHEM_MMFF94_ENERGY>  (1) 
35.2162

>  <PUBCHEM_FEATURE_SELFOVERLAP>  (1) 
35.602

>  <PUBCHEM_SHAPE_FINGERPRINT>  (1) 
10608611 8 18409444778251912860
11132069 177 18335133198478210728
12491281 212 18338808805556774304
12932764 1 17604714339622791902
13024252 1 13767930109502155429
13380535 76 18410009901411469047
14144814 61 18335983060551895041
14325111 11 18408885152866701844
14614273 12 18261107431376538725
14897335 6 18335979774944196071
15196674 1 18409166640374925516
15442244 35 18122906421894262362
15775835 57 18113616746650405629
16945 1 18411987935956982257
18186145 218 18341058441065579812
18522853 276 18413668015420447648
200 152 18272360984537131885
20300324 65 18059851766387388741
20449540 30 18410577305488679829
20510252 161 18339646749207150859
20645477 56 18114743729332398221
21267235 1 18409456877085231751
21501502 16 18269272352905207635
23402539 116 18272078401020996087
23402655 69 18268978814024940813
23463225 33 18334009463392965454
23557571 272 18271817859889271175
23559900 14 18269269080725989226
2748010 2 18052808432502332969
3312278 4 18410575102196486523
5104073 3 18408603668941393800
58051976 378 18272086076375792126
6333449 129 18410573976899191663
7364860 26 18194962942201344430
8809292 202 18261958547723546299
9709674 26 18341335504599687966

>  <PUBCHEM_SHAPE_MULTIPOLES>  (1) 
275.01
7.08
1.97
0.72
4.78
0.06
-0.07
-0.92
0.62
-0.83
-0.34
-0.33
-0.23
-0.16

>  <PUBCHEM_SHAPE_SELFOVERLAP>  (1) 
569.643

>  <PUBCHEM_SHAPE_VOLUME>  (1) 
159.8

>  <PUBCHEM_COORDINATE_TYPE>  (1) 
2
5
10

$$$$
