25380
     RDKit          3D

 21 23  0  0  0  0  0  0  0  0999 V2000
   -4.5688    1.0697   -0.3326 N   0  0  0  0  0  0  0  0  0  0  0  0
    0.2741    0.3436    0.5261 C   0  0  0  0  0  0  0  0  0  0  0  0
   -0.7730    1.0684   -0.3339 C   0  0  0  0  0  0  0  0  0  0  0  0
    0.1285   -1.1670    0.4540 C   0  0  0  0  0  0  0  0  0  0  0  0
    1.6674    0.9351    0.3327 C   0  0  0  0  0  0  0  0  0  0  0  0
    0.5284   -1.9233   -0.6589 C   0  0  0  0  0  0  0  0  0  0  0  0
    2.6683    0.4661   -0.5410 C   0  0  0  0  0  0  0  0  0  0  0  0
    1.2230   -1.2824   -1.8262 C   0  0  0  0  0  0  0  0  0  0  0  0
    2.5942   -0.7570   -1.4277 C   0  0  0  0  0  0  0  0  0  0  0  0
   -2.1852    0.6969    0.0996 C   0  0  0  0  0  0  0  0  0  0  0  0
   -3.2198    1.4454   -0.7390 C   0  0  0  0  0  0  0  0  0  0  0  0
   -0.4854   -1.8344    1.5334 C   0  0  0  0  0  0  0  0  0  0  0  0
    1.9429    2.0965    1.0984 C   0  0  0  0  0  0  0  0  0  0  0  0
    0.3122   -3.3132   -0.6711 C   0  0  0  0  0  0  0  0  0  0  0  0
    3.9080    1.1496   -0.5815 C   0  0  0  0  0  0  0  0  0  0  0  0
   -0.6924   -3.2136    1.5118 C   0  0  0  0  0  0  0  0  0  0  0  0
    3.1659    2.7611    1.0304 C   0  0  0  0  0  0  0  0  0  0  0  0
   -0.2943   -3.9540    0.4069 C   0  0  0  0  0  0  0  0  0  0  0  0
    4.1548    2.2829    0.1894 C   0  0  0  0  0  0  0  0  0  0  0  0
   -5.5653    1.7585   -1.1547 C   0  0  0  0  0  0  0  0  0  0  0  0
   -4.7833    1.3712    1.0839 C   0  0  0  0  0  0  0  0  0  0  0  0
  1 11  1  0
  1 20  1  0
  1 21  1  0
  2  3  1  0
  2  4  1  0
  2  5  1  0
  3 10  1  0
  4  6  2  0
  4 12  1  0
  5  7  2  0
  5 13  1  0
  6  8  1  0
  6 14  1  0
  7  9  1  0
  7 15  1  0
  8  9  1  0
 10 11  1  0
 12 16  2  0
 13 17  2  0
 14 18  2  0
 15 19  2  0
 16 18  1  0
 17 19  1  0
M  END
>  <PUBCHEM_COMPOUND_CID>  (1) 
25380

>  <PUBCHEM_CONFORMER_RMSD>  (1) 
0.8

>  <PUBCHEM_CONFORMER_DIVERSEORDER>  (1) 
1
5
3
6
4
2
7

>  <PUBCHEM_MMFF94_PARTIAL_CHARGES>  (1) 
27
1 -0.81
11 0.27
12 -0.15
13 -0.15
14 -0.15
15 -0.15
16 -0.15
17 -0.15
18 -0.15
19 -0.15
2 0.29
20 0.27
21 0.27
33 0.15
34 0.15
35 0.15
36 0.15
37 0.15
38 0.15
39 0.15
4 -0.14
40 0.15
5 -0.14
6 -0.14
7 -0.14
8 0.14
9 0.14

>  <PUBCHEM_EFFECTIVE_ROTOR_COUNT>  (1) 
4.6

>  <PUBCHEM_PHARMACOPHORE_FEATURES>  (1) 
4
1 1 cation
6 4 6 12 14 16 18 rings
6 5 7 13 15 17 19 rings
7 2 4 5 6 7 8 9 rings

>  <PUBCHEM_HEAVY_ATOM_COUNT>  (1) 
21

>  <PUBCHEM_ATOM_DEF_STEREO_COUNT>  (1) 
0

>  <PUBCHEM_ATOM_UDEF_STEREO_COUNT>  (1) 
0

>  <PUBCHEM_BOND_DEF_STEREO_COUNT>  (1) 
0

>  <PUBCHEM_BOND_UDEF_STEREO_COUNT>  (1) 
0

>  <PUBCHEM_ISOTOPIC_ATOM_COUNT>  (1) 
0

>  <PUBCHEM_COMPONENT_COUNT>  (1) 
1

>  <PUBCHEM_CACTVS_TAUTO_COUNT>  (1) 
1

>  <PUBCHEM_CONFORMER_ID>  (1) 
0000632400000001

>  <PUBCHEM_MMFF94_ENERGY>  (1) 
65.8289

>  <PUBCHEM_FEATURE_SELFOVERLAP>  (1) 
20.312

>  <PUBCHEM_SHAPE_FINGERPRINT>  (1) 
10764073 3 15725819297556258808
10906281 52 18059029332270450832
10930396 42 18193257613511818034
1100329 8 18338229358861367946
11578080 2 18120116080806140308
12532896 13 18337383941397508415
12730499 353 18337398149924796713
12788726 201 17761191611660200979
13540713 4 17914062155985303700
13955234 65 18192712246520782595
14251739 40 11458722637462285969
14955137 171 18047740512648236794
20567600 347 18261107444345901323
20645477 70 18193547866973588661
21049683 118 18122030312885023569
21421861 104 17978516325751947721
21452121 199 17544747937574936435
21524375 3 18409724049926127368
22182313 1 18196394686449429094
2255824 54 18199464355779486455
22907989 373 17835251416440939428
23419403 2 17626432013416766070
23558518 356 18051397763125799173
23559900 14 17387702596336251253
238 59 18271814479728611153
25 1 18272936020249338780
2748010 2 17843137045790864652
3060560 45 18337105679061753085
427121 178 18187086139398790225
474 4 18343300375012825697
633830 44 18201440259737235325
6442390 28 18408889568151221307
6669772 16 18410569570479348582
7364860 26 18121212083023595995
81228 2 17756696795309106609
90316 7 17545327839817003114
9981440 41 16337472487944966136

>  <PUBCHEM_SHAPE_MULTIPOLES>  (1) 
427.19
7.89
4.32
1.47
9.53
4.26
-0.05
-10.36
-1.42
-0.31
1.08
0.05
0.44
1.69

>  <PUBCHEM_SHAPE_SELFOVERLAP>  (1) 
904.889

>  <PUBCHEM_SHAPE_VOLUME>  (1) 
236.1

>  <PUBCHEM_COORDINATE_TYPE>  (1) 
2
5
10

$$$$
