25387
     RDKit          3D

 21 23  0  0  1  0  0  0  0  0999 V2000
    0.0719    0.4719    1.6670 O   0  0  0  0  0  0  0  0  0  0  0  0
    4.7510    1.3271   -0.0260 N   0  0  0  0  0  0  0  0  0  0  0  0
   -0.0902    0.1890    0.2550 C   0  0  0  0  0  0  0  0  0  0  0  0
    0.9926    1.0158   -0.4739 C   0  0  0  0  0  0  0  0  0  0  0  0
   -1.4700    0.5841   -0.2936 C   0  0  0  0  0  0  0  0  0  0  0  0
   -2.4079    1.2304    0.5322 C   0  0  0  0  0  0  0  0  0  0  0  0
    0.1130   -1.3311    0.1611 C   0  0  0  0  0  0  0  0  0  0  0  0
   -2.0695    1.5191    1.9670 C   0  0  0  0  0  0  0  0  0  0  0  0
    2.3706    0.7631    0.1266 C   0  0  0  0  0  0  0  0  0  0  0  0
   -0.5666    1.6594    2.1254 C   0  0  0  0  0  0  0  0  0  0  0  0
   -1.8204    0.3085   -1.6274 C   0  0  0  0  0  0  0  0  0  0  0  0
    3.4398    1.5590   -0.6201 C   0  0  0  0  0  0  0  0  0  0  0  0
   -3.6746    1.5610    0.0314 C   0  0  0  0  0  0  0  0  0  0  0  0
    0.6803   -1.8811   -0.9835 C   0  0  0  0  0  0  0  0  0  0  0  0
   -0.2714   -2.1448    1.2215 C   0  0  0  0  0  0  0  0  0  0  0  0
   -3.0786    0.6539   -2.1214 C   0  0  0  0  0  0  0  0  0  0  0  0
   -4.0058    1.2771   -1.2918 C   0  0  0  0  0  0  0  0  0  0  0  0
    0.8651   -3.2610   -1.0688 C   0  0  0  0  0  0  0  0  0  0  0  0
   -0.0864   -3.5247    1.1361 C   0  0  0  0  0  0  0  0  0  0  0  0
    0.4819   -4.0828   -0.0090 C   0  0  0  0  0  0  0  0  0  0  0  0
    5.7751    2.1059   -0.7079 C   0  0  0  0  0  0  0  0  0  0  0  0
  1  3  1  0
  1 10  1  0
  2 12  1  0
  2 21  1  0
  3  4  1  0
  3  5  1  0
  3  7  1  0
  4  9  1  0
  5  6  2  0
  5 11  1  0
  6  8  1  0
  6 13  1  0
  7 14  2  0
  7 15  1  0
  8 10  1  0
  9 12  1  0
 11 16  2  0
 13 17  2  0
 14 18  1  0
 15 19  2  0
 16 17  1  0
 18 20  2  0
 19 20  1  0
M  END
>  <PUBCHEM_COMPOUND_CID>  (1) 
25387

>  <PUBCHEM_CONFORMER_RMSD>  (1) 
0.8

>  <PUBCHEM_CONFORMER_DIVERSEORDER>  (1) 
2
6
13
8
4
11
10
3
12
1
7
5
9

>  <PUBCHEM_MMFF94_PARTIAL_CHARGES>  (1) 
29
1 -0.56
10 0.28
11 -0.15
12 0.27
13 -0.15
14 -0.15
15 -0.15
16 -0.15
17 -0.15
18 -0.15
19 -0.15
2 -0.9
20 -0.15
21 0.27
3 0.57
30 0.15
33 0.15
34 0.15
35 0.15
36 0.15
37 0.15
38 0.15
39 0.15
40 0.36
41 0.15
5 -0.14
6 -0.14
7 -0.14
8 0.14

>  <PUBCHEM_EFFECTIVE_ROTOR_COUNT>  (1) 
5.8

>  <PUBCHEM_PHARMACOPHORE_FEATURES>  (1) 
6
1 1 acceptor
1 2 cation
1 2 donor
6 1 3 5 6 8 10 rings
6 5 6 11 13 16 17 rings
6 7 14 15 18 19 20 rings

>  <PUBCHEM_HEAVY_ATOM_COUNT>  (1) 
21

>  <PUBCHEM_ATOM_DEF_STEREO_COUNT>  (1) 
0

>  <PUBCHEM_ATOM_UDEF_STEREO_COUNT>  (1) 
1

>  <PUBCHEM_BOND_DEF_STEREO_COUNT>  (1) 
0

>  <PUBCHEM_BOND_UDEF_STEREO_COUNT>  (1) 
0

>  <PUBCHEM_ISOTOPIC_ATOM_COUNT>  (1) 
0

>  <PUBCHEM_COMPONENT_COUNT>  (1) 
1

>  <PUBCHEM_CACTVS_TAUTO_COUNT>  (1) 
1

>  <PUBCHEM_CONFORMER_ID>  (1) 
0000632B00000002

>  <PUBCHEM_MMFF94_ENERGY>  (1) 
57.4733

>  <PUBCHEM_FEATURE_SELFOVERLAP>  (1) 
30.469

>  <PUBCHEM_SHAPE_FINGERPRINT>  (1) 
105312 117 18261401074264787020
11578080 2 17246432931162690341
11582403 64 16951661693275389301
121448 382 18271236231017402309
12293681 160 17989202650966263400
12553582 1 17329717513988810387
12592029 89 18115012005531418010
12788726 201 17974836578362113498
13149001 5 17984689284519892960
133893 2 18121777218851438866
13681431 1 17832971759442666738
14251740 79 18268705202621691654
14817 1 16690829072444778337
15163728 17 18041286447985905620
15502722 9 18263639563658024653
167882 2 18262797359658826014
16945 1 18120369857063933075
17980427 26 17909581391775555440
1813 80 17478603512902879623
18915476 22 18189901911747888861
19765921 60 18342171142216174865
20361792 2 17474098805332046231
20645476 183 18335974384997642436
22112679 90 17272842101034397833
2255824 54 18124025728973798607
22907989 373 17977118073426196244
23419403 2 15328506544463570410
266924 1 17844246220652139873
298252 57 17968641809222503468
3759504 43 18337109072418128740
394222 165 18265884766254529387
4340502 62 18265353762932442385
4409770 3 18123470737552669638
474 4 18340487742785376138
559249 180 18334006234131336482
59755656 520 18339936990655230460
81228 2 17614826848726891939

>  <PUBCHEM_SHAPE_MULTIPOLES>  (1) 
421.32
6.73
4.08
1.86
7.79
6.09
-0.32
-8.87
3.05
2.47
-0.42
-1.48
-0.43
-0.32

>  <PUBCHEM_SHAPE_SELFOVERLAP>  (1) 
898.727

>  <PUBCHEM_SHAPE_VOLUME>  (1) 
232.8

>  <PUBCHEM_COORDINATE_TYPE>  (1) 
2
5
10

$$$$
