25385
     RDKit          3D

 22 24  0  0  1  0  0  0  0  0999 V2000
    0.0516   -0.4732   -1.6078 O   0  0  0  0  0  0  0  0  0  0  0  0
   -4.6087   -0.8343    0.3735 N   0  0  0  0  0  0  0  0  0  0  0  0
    0.2920   -0.1627   -0.2129 C   0  0  0  0  0  0  0  0  0  0  0  0
   -0.8170   -0.8863    0.5831 C   0  0  0  0  0  0  0  0  0  0  0  0
    1.6613   -0.6417    0.2938 C   0  0  0  0  0  0  0  0  0  0  0  0
   -2.1998   -0.4904    0.0785 C   0  0  0  0  0  0  0  0  0  0  0  0
    2.5162   -1.3770   -0.5476 C   0  0  0  0  0  0  0  0  0  0  0  0
    0.2035    1.3704   -0.1587 C   0  0  0  0  0  0  0  0  0  0  0  0
    2.0993   -1.6806   -1.9586 C   0  0  0  0  0  0  0  0  0  0  0  0
    0.5849   -1.7159   -2.0540 C   0  0  0  0  0  0  0  0  0  0  0  0
   -3.2895   -1.2343    0.8488 C   0  0  0  0  0  0  0  0  0  0  0  0
    2.0852   -0.3547    1.6037 C   0  0  0  0  0  0  0  0  0  0  0  0
    3.7757   -1.7840   -0.0866 C   0  0  0  0  0  0  0  0  0  0  0  0
    0.6024    2.1231   -1.2581 C   0  0  0  0  0  0  0  0  0  0  0  0
   -0.2752    1.9932    0.9891 C   0  0  0  0  0  0  0  0  0  0  0  0
    3.3350   -0.7759    2.0588 C   0  0  0  0  0  0  0  0  0  0  0  0
    4.1808   -1.4872    1.2133 C   0  0  0  0  0  0  0  0  0  0  0  0
    0.5220    3.5148   -1.2092 C   0  0  0  0  0  0  0  0  0  0  0  0
   -0.3557    3.3849    1.0380 C   0  0  0  0  0  0  0  0  0  0  0  0
    0.0430    4.1457   -0.0612 C   0  0  0  0  0  0  0  0  0  0  0  0
   -5.6585   -1.5187    1.1303 C   0  0  0  0  0  0  0  0  0  0  0  0
   -4.7484   -1.1152   -1.0564 C   0  0  0  0  0  0  0  0  0  0  0  0
  1  3  1  0
  1 10  1  0
  2 11  1  0
  2 21  1  0
  2 22  1  0
  3  4  1  0
  3  5  1  0
  3  8  1  0
  4  6  1  0
  5  7  2  0
  5 12  1  0
  6 11  1  0
  7  9  1  0
  7 13  1  0
  8 14  2  0
  8 15  1  0
  9 10  1  0
 12 16  2  0
 13 17  2  0
 14 18  1  0
 15 19  2  0
 16 17  1  0
 18 20  2  0
 19 20  1  0
M  END
>  <PUBCHEM_COMPOUND_CID>  (1) 
25385

>  <PUBCHEM_CONFORMER_RMSD>  (1) 
0.8

>  <PUBCHEM_CONFORMER_DIVERSEORDER>  (1) 
1
12
9
5
15
13
6
8
2
3
10
11
14
7
4

>  <PUBCHEM_MMFF94_PARTIAL_CHARGES>  (1) 
29
1 -0.56
10 0.28
11 0.27
12 -0.15
13 -0.15
14 -0.15
15 -0.15
16 -0.15
17 -0.15
18 -0.15
19 -0.15
2 -0.81
20 -0.15
21 0.27
22 0.27
3 0.57
33 0.15
34 0.15
35 0.15
36 0.15
37 0.15
38 0.15
39 0.15
40 0.15
41 0.15
5 -0.14
7 -0.14
8 -0.14
9 0.14

>  <PUBCHEM_EFFECTIVE_ROTOR_COUNT>  (1) 
5.8

>  <PUBCHEM_PHARMACOPHORE_FEATURES>  (1) 
5
1 1 acceptor
1 2 cation
6 1 3 5 7 9 10 rings
6 5 7 12 13 16 17 rings
6 8 14 15 18 19 20 rings

>  <PUBCHEM_HEAVY_ATOM_COUNT>  (1) 
22

>  <PUBCHEM_ATOM_DEF_STEREO_COUNT>  (1) 
0

>  <PUBCHEM_ATOM_UDEF_STEREO_COUNT>  (1) 
1

>  <PUBCHEM_BOND_DEF_STEREO_COUNT>  (1) 
0

>  <PUBCHEM_BOND_UDEF_STEREO_COUNT>  (1) 
0

>  <PUBCHEM_ISOTOPIC_ATOM_COUNT>  (1) 
0

>  <PUBCHEM_COMPONENT_COUNT>  (1) 
1

>  <PUBCHEM_CACTVS_TAUTO_COUNT>  (1) 
1

>  <PUBCHEM_CONFORMER_ID>  (1) 
0000632900000001

>  <PUBCHEM_MMFF94_ENERGY>  (1) 
67.9761

>  <PUBCHEM_FEATURE_SELFOVERLAP>  (1) 
25.394

>  <PUBCHEM_SHAPE_FINGERPRINT>  (1) 
11265709 11 18408610240283508523
11578080 2 17023444422354540236
12363563 72 18408046199714700059
12730499 353 17834417974586020059
12788726 201 18188493471702130810
13004483 165 18335690594785977546
13134695 92 18339069497424194277
13294875 104 17769094892798692561
133893 2 17758084361761403502
13583140 156 17835763484787230562
13681431 1 18338812207186742145
14863182 85 17060070288647637327
14955137 171 18126289881245062048
15238133 3 18042416729534407793
15420108 30 17771054192301344993
16945 1 17846774092500083038
17357779 13 18199733770319355021
17980427 23 18131632301012798129
1813 80 18340778073958413827
18222031 100 18342455950056157743
20369508 70 18113901610784003259
20600515 1 18408889529185403059
20739085 24 18129370648180002438
21033648 29 17774707689716450715
21304303 282 17251987594923013773
21344244 78 18272936063778826121
21524375 3 17402904817331831909
22112679 90 17899445024307487008
22182313 1 17343772696018066470
23419403 2 18193526009057461005
23557571 272 18195808470610420063
2748010 2 17414701082923840566
3052486 1 18118417145998635449
3380486 145 17983821653881051444
394222 165 17908152323181164265
5845 1 11103705871517591457
5895379 119 17629512768458763481
59554788 62 17702927176455452414
6442390 28 17188142193029945553
6786 2 7946860327323588196
7364860 26 18194973061022545745
7495541 125 17822582710981159467
81228 2 18122640357064914073
9841814 1 18262810665150913763
9971528 1 18202003231286500563

>  <PUBCHEM_SHAPE_MULTIPOLES>  (1) 
441.9
7.55
3.98
1.88
10.25
6.55
0.31
-8.69
-2.95
-0.21
0.58
-0.99
-0.55
0.1

>  <PUBCHEM_SHAPE_SELFOVERLAP>  (1) 
940.395

>  <PUBCHEM_SHAPE_VOLUME>  (1) 
245.7

>  <PUBCHEM_COORDINATE_TYPE>  (1) 
2
5
10

$$$$
