25391
     RDKit          3D

 22 24  0  0  1  0  0  0  0  0999 V2000
    0.2113    0.1976   -1.7302 N   0  0  0  0  0  0  0  0  0  0  0  0
   -4.4188    1.2936   -0.0716 N   0  0  0  0  0  0  0  0  0  0  0  0
    0.4631    0.3297   -0.2594 C   0  0  0  0  0  0  0  0  0  0  0  0
   -0.6379    1.2805    0.2644 C   0  0  0  0  0  0  0  0  0  0  0  0
    0.1533   -1.0690    0.2601 C   0  0  0  0  0  0  0  0  0  0  0  0
    0.2649   -1.2272   -2.1007 C   0  0  0  0  0  0  0  0  0  0  0  0
    0.0303   -1.9543   -0.8165 C   0  0  0  0  0  0  0  0  0  0  0  0
    1.8972    0.7559    0.1121 C   0  0  0  0  0  0  0  0  0  0  0  0
   -2.0181    0.8107   -0.1766 C   0  0  0  0  0  0  0  0  0  0  0  0
    0.9240    1.0767   -2.6366 C   0  0  0  0  0  0  0  0  0  0  0  0
    0.0105   -1.5144    1.5658 C   0  0  0  0  0  0  0  0  0  0  0  0
   -3.1022    1.7372    0.3712 C   0  0  0  0  0  0  0  0  0  0  0  0
   -0.2298   -3.2987   -0.6175 C   0  0  0  0  0  0  0  0  0  0  0  0
    2.9774    0.0058   -0.3397 C   0  0  0  0  0  0  0  0  0  0  0  0
    2.0986    1.8871    0.8955 C   0  0  0  0  0  0  0  0  0  0  0  0
   -0.2610   -2.8679    1.7774 C   0  0  0  0  0  0  0  0  0  0  0  0
   -0.3796   -3.7533    0.6940 C   0  0  0  0  0  0  0  0  0  0  0  0
    4.2751    0.3914   -0.0039 C   0  0  0  0  0  0  0  0  0  0  0  0
    3.3964    2.2727    1.2312 C   0  0  0  0  0  0  0  0  0  0  0  0
    4.4847    1.5248    0.7814 C   0  0  0  0  0  0  0  0  0  0  0  0
   -5.4600    2.1964    0.4224 C   0  0  0  0  0  0  0  0  0  0  0  0
   -4.6794   -0.0753    0.3770 C   0  0  0  0  0  0  0  0  0  0  0  0
  1  3  1  0
  1  6  1  0
  1 10  1  0
  2 12  1  0
  2 21  1  0
  2 22  1  0
  3  4  1  0
  3  5  1  0
  3  8  1  0
  4  9  1  0
  5  7  2  0
  5 11  1  0
  6  7  1  0
  7 13  1  0
  8 14  2  0
  8 15  1  0
  9 12  1  0
 11 16  2  0
 13 17  2  0
 14 18  1  0
 15 19  2  0
 16 17  1  0
 18 20  2  0
 19 20  1  0
M  END
>  <PUBCHEM_COMPOUND_CID>  (1) 
25391

>  <PUBCHEM_CONFORMER_RMSD>  (1) 
0.8

>  <PUBCHEM_CONFORMER_DIVERSEORDER>  (1) 
1
8
13
15
2
11
4
14
9
7
6
12
3
10
5

>  <PUBCHEM_MMFF94_PARTIAL_CHARGES>  (1) 
29
1 -0.81
10 0.27
11 -0.15
12 0.27
13 -0.15
14 -0.15
15 -0.15
16 -0.15
17 -0.15
18 -0.15
19 -0.15
2 -0.81
20 -0.15
21 0.27
22 0.27
3 0.56
32 0.15
35 0.15
36 0.15
37 0.15
38 0.15
39 0.15
40 0.15
41 0.15
42 0.15
5 -0.14
6 0.41
7 -0.14
8 -0.14

>  <PUBCHEM_EFFECTIVE_ROTOR_COUNT>  (1) 
5.6

>  <PUBCHEM_PHARMACOPHORE_FEATURES>  (1) 
5
1 1 cation
1 2 cation
5 1 3 5 6 7 rings
6 5 7 11 13 16 17 rings
6 8 14 15 18 19 20 rings

>  <PUBCHEM_HEAVY_ATOM_COUNT>  (1) 
22

>  <PUBCHEM_ATOM_DEF_STEREO_COUNT>  (1) 
0

>  <PUBCHEM_ATOM_UDEF_STEREO_COUNT>  (1) 
1

>  <PUBCHEM_BOND_DEF_STEREO_COUNT>  (1) 
0

>  <PUBCHEM_BOND_UDEF_STEREO_COUNT>  (1) 
0

>  <PUBCHEM_ISOTOPIC_ATOM_COUNT>  (1) 
0

>  <PUBCHEM_COMPONENT_COUNT>  (1) 
1

>  <PUBCHEM_CACTVS_TAUTO_COUNT>  (1) 
1

>  <PUBCHEM_CONFORMER_ID>  (1) 
0000632F00000001

>  <PUBCHEM_MMFF94_ENERGY>  (1) 
77.3391

>  <PUBCHEM_FEATURE_SELFOVERLAP>  (1) 
25.451

>  <PUBCHEM_SHAPE_FINGERPRINT>  (1) 
10764073 3 17461703009544570154
10922049 32 18343864424276972912
10948715 1 18272649069035929167
1100329 8 18267296543585601850
11421498 54 15698010600333482371
11578080 2 17266710382115537300
12532896 13 18340198678469545714
12592029 89 17489875912358355652
12788726 201 17611760289158976203
13544653 18 11242249619448337617
14178342 30 18260842483988033097
14251764 3 18341909510019890713
14787075 74 18201432649070751153
14863182 85 18042421161613440727
14955137 171 17978774732744362658
16945 1 18265610073226305862
17980427 23 17386295388824885109
1813 80 9655571915855174537
20197701 30 18410004446945044827
20567600 347 18335988588644427059
20602899 9 15267070293312453308
20723712 36 17894635846130936300
21049683 118 18126252411792143089
21421861 104 17907306455405888521
21524375 3 18343581824055987888
22956985 138 17461432534185424379
23419403 2 17412793597199707134
23558518 356 18051397767325950672
298252 57 17131825478137814508
427121 178 18336272262348903057
59755656 520 18335975433096159188
6138700 20 18126289641080522654
633830 44 18273206487214424525
7364860 26 18123190100262990387
81228 2 17901368314878241520
9981440 41 16624858413691998312
9999458 23 18340205185361044476

>  <PUBCHEM_SHAPE_MULTIPOLES>  (1) 
442.79
7.53
3.7
1.75
6
3.63
-0.94
-8.48
2.26
1.15
1.19
-0.64
0.38
0.53

>  <PUBCHEM_SHAPE_SELFOVERLAP>  (1) 
943.841

>  <PUBCHEM_SHAPE_VOLUME>  (1) 
248.1

>  <PUBCHEM_COORDINATE_TYPE>  (1) 
2
5
10

$$$$
