25416
     RDKit          3D

 19 20  0  0  0  0  0  0  0  0999 V2000
    2.1782    0.4039   -0.6015 O   0  0  0  0  0  0  0  0  0  0  0  0
    0.7404    0.4241    1.2021 O   0  0  0  0  0  0  0  0  0  0  0  0
    5.7140   -0.1007    0.3180 N   0  0  0  0  0  0  0  0  0  0  0  0
   -1.4789    0.8988   -0.4971 C   0  0  0  0  0  0  0  0  0  0  0  0
   -2.3396   -0.1917   -0.2902 C   0  0  0  0  0  0  0  0  0  0  0  0
   -0.1018    0.7275   -1.0604 C   0  0  0  0  0  0  0  0  0  0  0  0
   -3.6294    0.0370    0.2456 C   0  0  0  0  0  0  0  0  0  0  0  0
    4.5581    0.1018   -0.5426 C   0  0  0  0  0  0  0  0  0  0  0  0
    3.2836    0.1880    0.2818 C   0  0  0  0  0  0  0  0  0  0  0  0
   -1.8841    2.1957   -0.1805 C   0  0  0  0  0  0  0  0  0  0  0  0
   -1.9487   -1.5037   -0.6033 C   0  0  0  0  0  0  0  0  0  0  0  0
   -4.0205    1.3490    0.5590 C   0  0  0  0  0  0  0  0  0  0  0  0
    0.9551    0.5034    0.0001 C   0  0  0  0  0  0  0  0  0  0  0  0
   -3.1523    2.4204    0.3469 C   0  0  0  0  0  0  0  0  0  0  0  0
   -4.4902   -1.0532    0.4528 C   0  0  0  0  0  0  0  0  0  0  0  0
   -2.8170   -2.5749   -0.3912 C   0  0  0  0  0  0  0  0  0  0  0  0
   -4.0855   -2.3501    0.1358 C   0  0  0  0  0  0  0  0  0  0  0  0
    6.9473   -0.1420   -0.4718 C   0  0  0  0  0  0  0  0  0  0  0  0
    5.5712   -1.3333    1.0965 C   0  0  0  0  0  0  0  0  0  0  0  0
  1  9  1  0
  1 13  1  0
  2 13  2  0
  3  8  1  0
  3 18  1  0
  3 19  1  0
  4  5  2  0
  4  6  1  0
  4 10  1  0
  5  7  1  0
  5 11  1  0
  6 13  1  0
  7 12  2  0
  7 15  1  0
  8  9  1  0
 10 14  2  0
 11 16  2  0
 12 14  1  0
 15 17  2  0
 16 17  1  0
M  END
>  <PUBCHEM_COMPOUND_CID>  (1) 
25416

>  <PUBCHEM_CONFORMER_RMSD>  (1) 
0.8

>  <PUBCHEM_CONFORMER_DIVERSEORDER>  (1) 
2
61
19
55
118
68
108
82
41
22
114
90
33
59
56
67
72
48
69
64
63
30
119
3
8
10
124
27
51
88
31
91
126
26
13
39
1
35
37
96
23
24
28
66
125
29
21
73
15
58
83
79
85
11
115
46
32
94
106
89
6
103
25
109
99
113
7
45
47
16
92
9
100
110
53
128
36
78
107
4
14
127
74
117
116
44
12
20
50
87
120
40
5
95
122
75
43
102
93
70
123
17
112
77
86
121
101
81
62
54
18
49
38
84
129
34
111
97
65
52
130
42
71
105
98
60
76
80
104
131
57

>  <PUBCHEM_MMFF94_PARTIAL_CHARGES>  (1) 
24
1 -0.43
10 -0.15
11 -0.15
12 -0.15
13 0.66
14 -0.15
15 -0.15
16 -0.15
17 -0.15
18 0.27
19 0.27
2 -0.57
26 0.15
27 0.15
28 0.15
29 0.15
3 -0.81
30 0.15
31 0.15
32 0.15
4 -0.14
6 0.2
8 0.27
9 0.28

>  <PUBCHEM_EFFECTIVE_ROTOR_COUNT>  (1) 
6

>  <PUBCHEM_PHARMACOPHORE_FEATURES>  (1) 
4
1 2 acceptor
1 3 cation
6 4 5 7 10 12 14 rings
6 5 7 11 15 16 17 rings

>  <PUBCHEM_HEAVY_ATOM_COUNT>  (1) 
19

>  <PUBCHEM_ATOM_DEF_STEREO_COUNT>  (1) 
0

>  <PUBCHEM_ATOM_UDEF_STEREO_COUNT>  (1) 
0

>  <PUBCHEM_BOND_DEF_STEREO_COUNT>  (1) 
0

>  <PUBCHEM_BOND_UDEF_STEREO_COUNT>  (1) 
0

>  <PUBCHEM_ISOTOPIC_ATOM_COUNT>  (1) 
0

>  <PUBCHEM_COMPONENT_COUNT>  (1) 
1

>  <PUBCHEM_CACTVS_TAUTO_COUNT>  (1) 
1

>  <PUBCHEM_CONFORMER_ID>  (1) 
0000634800000002

>  <PUBCHEM_MMFF94_ENERGY>  (1) 
49.1909

>  <PUBCHEM_FEATURE_SELFOVERLAP>  (1) 
20.324

>  <PUBCHEM_SHAPE_FINGERPRINT>  (1) 
10319926 262 18272077293536742320
10411042 1 18123752213246804935
10595046 47 18333734650264179852
10616163 171 18411139142776637167
10912923 1 18113054922780353632
11046707 91 18334855052074540453
11089746 13 11455886958709695614
11315181 36 18334013904262795980
11405975 8 18342734126851361128
11524674 6 17203326706433846198
12107183 9 17831293896673008592
12236239 1 17894353284590465093
12616971 3 17458354030771451908
12633257 1 17559972059325470123
13167823 11 18334010575979496794
13288520 33 18409450310143215007
13675066 3 17632574955380563284
14251732 16 18338516452156058720
14341114 176 18343021125203571488
14420673 8 18195811769763183206
14844126 61 18410856603159766291
15042514 8 18410580626036145011
15209289 33 18187082870902298082
15250474 111 18261662719488807202
15348495 7 17988351651126366778
17780758 139 18410849949980656680
17804303 29 18271529788090531485
17834072 33 18259706714204094396
17844677 252 18342181089840811816
17857418 61 18260261954385244642
1813 80 17241056413823606918
18927931 339 18341617039942953975
19377110 9 18114453548852571984
200 152 16370722630011833116
20645477 70 14490738028463462120
21033648 29 16702008748010193424
21267235 1 18334863869975124283
21650355 55 18413110584969720861
220451 1 18260553286622889120
22061861 79 14056994989320283226
22950370 63 18333449829412805012
2297311 6 18343310275012247644
2303208 19 17561374972165153934
23175994 123 16917073264978662689
23402539 116 17458344126466038772
23466295 7 15576427841210372291
23522609 53 17897755127214260028
23559900 14 18340195405705011985
23596394 208 13190609504682932216
2748010 2 18050876350797798213
2838139 119 13899973669275262811
335352 9 18410572903785187005
351380 3 17894908529931707058
4214541 1 18411982451257676796
5104073 3 18343577461007434912
5364581 5 17914877963295116312
559249 180 18260825973574396167
573450 72 18335697222268180848
5924683 9 18059284461321571815
67856867 119 18262242243673486180
7062679 117 18334860536969427390
7970288 3 18048034361621308539

>  <PUBCHEM_SHAPE_MULTIPOLES>  (1) 
374.29
13.75
2.35
0.93
28.5
0.43
-0.05
4
-1.73
-4.01
-0.04
0.38
0.03
-0.76

>  <PUBCHEM_SHAPE_SELFOVERLAP>  (1) 
786.995

>  <PUBCHEM_SHAPE_VOLUME>  (1) 
212.5

>  <PUBCHEM_COORDINATE_TYPE>  (1) 
2
5
10

$$$$
