25418
     RDKit          3D

  6  5  0  0  0  0  0  0  0  0999 V2000
    1.5955    1.1693    0.2279 O   0  0  0  0  0  0  0  0  0  0  0  0
    0.1500   -0.3637    0.2061 N   0  0  0  0  0  0  0  0  0  0  0  0
    0.7344    0.6091   -0.4608 N   0  0  0  0  0  0  0  0  0  0  0  0
   -1.2769   -0.5300   -0.1041 C   0  0  0  0  0  0  0  0  0  0  0  0
   -2.0438    0.7596    0.1037 C   0  0  0  0  0  0  0  0  0  0  0  0
    0.8408   -1.6443    0.0273 C   0  0  0  0  0  0  0  0  0  0  0  0
  1  3  2  0
  2  3  1  0
  2  4  1  0
  2  6  1  0
  4  5  1  0
M  END
>  <PUBCHEM_COMPOUND_CID>  (1) 
25418

>  <PUBCHEM_CONFORMER_RMSD>  (1) 
0.4

>  <PUBCHEM_CONFORMER_DIVERSEORDER>  (1) 
2
25
17
8
21
16
23
7
22
18
10
19
24
20
9
6
1
13
5
14
15
3
4
12
11

>  <PUBCHEM_MMFF94_PARTIAL_CHARGES>  (1) 
5
1 -0.16
2 -0.36
3 -0.01
4 0.27
6 0.27

>  <PUBCHEM_EFFECTIVE_ROTOR_COUNT>  (1) 
2

>  <PUBCHEM_PHARMACOPHORE_FEATURES>  (1) 
0

>  <PUBCHEM_HEAVY_ATOM_COUNT>  (1) 
6

>  <PUBCHEM_ATOM_DEF_STEREO_COUNT>  (1) 
0

>  <PUBCHEM_ATOM_UDEF_STEREO_COUNT>  (1) 
0

>  <PUBCHEM_BOND_DEF_STEREO_COUNT>  (1) 
0

>  <PUBCHEM_BOND_UDEF_STEREO_COUNT>  (1) 
0

>  <PUBCHEM_ISOTOPIC_ATOM_COUNT>  (1) 
0

>  <PUBCHEM_COMPONENT_COUNT>  (1) 
1

>  <PUBCHEM_CACTVS_TAUTO_COUNT>  (1) 
1

>  <PUBCHEM_CONFORMER_ID>  (1) 
0000634A00000002

>  <PUBCHEM_MMFF94_ENERGY>  (1) 
8.9114

>  <PUBCHEM_FEATURE_SELFOVERLAP>  (1) 
0

>  <PUBCHEM_SHAPE_FINGERPRINT>  (1) 
139733 1 9653562004346921647
16714656 1 17761222406570061430
20096714 4 18412267233274594953
21040471 1 18337675346412382476
23552449 1 17260464198191549720
24536 1 18337378366904413643
29004967 10 18047196241359470131
5943 1 10928384765371040706

>  <PUBCHEM_SHAPE_MULTIPOLES>  (1) 
107.65
2.25
1.48
0.62
1.09
0.08
-0.01
-0.34
0.1
-0.77
0.04
0.01
0
-0.01

>  <PUBCHEM_SHAPE_SELFOVERLAP>  (1) 
188.34

>  <PUBCHEM_SHAPE_VOLUME>  (1) 
73

>  <PUBCHEM_COORDINATE_TYPE>  (1) 
2
5
10

$$$$
