25417
     RDKit          3D

 10 10  0  0  0  0  0  0  0  0999 V2000
   -3.4106   -0.2002   -0.6406 O   0  0  0  0  0  0  0  0  0  0  0  0
    2.7301    0.3755   -0.3029 N   0  0  0  0  0  0  0  0  0  0  0  0
   -2.7684   -0.1741    0.4198 N   0  0  0  0  0  0  0  0  0  0  0  0
    1.3386    0.2363   -0.1201 C   0  0  0  0  0  0  0  0  0  0  0  0
    0.5355    1.3694    0.0102 C   0  0  0  0  0  0  0  0  0  0  0  0
    0.7654   -1.0344   -0.0694 C   0  0  0  0  0  0  0  0  0  0  0  0
   -0.8407    1.2319    0.1911 C   0  0  0  0  0  0  0  0  0  0  0  0
   -0.6109   -1.1718    0.1114 C   0  0  0  0  0  0  0  0  0  0  0  0
   -1.4139   -0.0387    0.2417 C   0  0  0  0  0  0  0  0  0  0  0  0
    3.6750   -0.5939    0.1587 C   0  0  0  0  0  0  0  0  0  0  0  0
  1  3  2  0
  2  4  1  0
  2 10  1  0
  3  9  1  0
  4  5  2  0
  4  6  1  0
  5  7  1  0
  6  8  2  0
  7  9  2  0
  8  9  1  0
M  END
>  <PUBCHEM_COMPOUND_CID>  (1) 
25417

>  <PUBCHEM_CONFORMER_RMSD>  (1) 
0.4

>  <PUBCHEM_CONFORMER_DIVERSEORDER>  (1) 
2
6
3
4
7
1
5

>  <PUBCHEM_MMFF94_PARTIAL_CHARGES>  (1) 
15
1 -0.16
10 0.37
11 0.15
12 0.15
13 0.4
14 0.15
15 0.15
2 -0.87
3 -0.14
4 0.1
5 -0.15
6 -0.15
7 -0.15
8 -0.15
9 0.3

>  <PUBCHEM_EFFECTIVE_ROTOR_COUNT>  (1) 
2

>  <PUBCHEM_PHARMACOPHORE_FEATURES>  (1) 
3
1 2 cation
1 2 donor
6 4 5 6 7 8 9 rings

>  <PUBCHEM_HEAVY_ATOM_COUNT>  (1) 
10

>  <PUBCHEM_ATOM_DEF_STEREO_COUNT>  (1) 
0

>  <PUBCHEM_ATOM_UDEF_STEREO_COUNT>  (1) 
0

>  <PUBCHEM_BOND_DEF_STEREO_COUNT>  (1) 
0

>  <PUBCHEM_BOND_UDEF_STEREO_COUNT>  (1) 
0

>  <PUBCHEM_ISOTOPIC_ATOM_COUNT>  (1) 
0

>  <PUBCHEM_COMPONENT_COUNT>  (1) 
1

>  <PUBCHEM_CACTVS_TAUTO_COUNT>  (1) 
3

>  <PUBCHEM_CONFORMER_ID>  (1) 
0000634900000002

>  <PUBCHEM_MMFF94_ENERGY>  (1) 
36.0859

>  <PUBCHEM_FEATURE_SELFOVERLAP>  (1) 
15.223

>  <PUBCHEM_SHAPE_FINGERPRINT>  (1) 
10219947 1 18412266142178756998
11062470 55 15574715794010065366
11401426 45 18341602716100225949
12032990 46 18410020939435143786
14325111 11 18410858746052592760
14993402 34 18341612637427226646
16945 1 18339935869241290402
193761 8 17689718554075659147
20201158 50 18409450275694020079
21040471 1 18122628511550392793
21293036 1 18408602586620138525
23235685 24 18410008844769990147
23402539 116 18201428160418165116
23402655 69 18194947571162148237
23552423 10 18117569418149079210
29004967 10 18335431170250050353
369184 2 15339120109106169442
5084963 1 18343866610515508056

>  <PUBCHEM_SHAPE_MULTIPOLES>  (1) 
189.96
4.81
1.28
0.66
0.97
0.17
0
-0.84
-0.27
0.06
0.03
-0.1
-0.01
-0.1

>  <PUBCHEM_SHAPE_SELFOVERLAP>  (1) 
391.386

>  <PUBCHEM_SHAPE_VOLUME>  (1) 
110.1

>  <PUBCHEM_COORDINATE_TYPE>  (1) 
2
5
10

$$$$
