25420
     RDKit          3D

 21 22  0  0  0  0  0  0  0  0999 V2000
    1.6710   -2.2504   -0.0262 O   0  0  0  0  0  0  0  0  0  0  0  0
   -0.7644    1.9753    0.6753 N   0  0  0  0  0  0  0  0  0  0  0  0
    1.5669    2.0546    0.0703 N   0  0  0  0  0  0  0  0  0  0  0  0
    2.5443    0.3809   -1.2083 N   0  0  0  0  0  0  0  0  0  0  0  0
    0.5994    3.7568    1.3636 N   0  0  0  0  0  0  0  0  0  0  0  0
    3.5990    0.7026   -0.6194 N   0  0  0  0  0  0  0  0  0  0  0  0
    4.5660    0.9925   -0.0870 N   0  0  0  0  0  0  0  0  0  0  0  0
    0.0603   -1.0753   -1.3872 C   0  0  0  0  0  0  0  0  0  0  0  0
    0.1965    0.2125   -0.6521 C   0  0  0  0  0  0  0  0  0  0  0  0
   -0.8602    0.8103    0.0024 C   0  0  0  0  0  0  0  0  0  0  0  0
    0.3341   -2.3002   -0.5078 C   0  0  0  0  0  0  0  0  0  0  0  0
   -2.1828    0.2242    0.0206 C   0  0  0  0  0  0  0  0  0  0  0  0
    1.3986    0.8868   -0.5839 C   0  0  0  0  0  0  0  0  0  0  0  0
   -2.5392   -0.6629    1.0363 C   0  0  0  0  0  0  0  0  0  0  0  0
   -3.1011    0.5449   -0.9792 C   0  0  0  0  0  0  0  0  0  0  0  0
    0.4605    2.5352    0.6688 C   0  0  0  0  0  0  0  0  0  0  0  0
    1.9708   -3.3696    0.7963 C   0  0  0  0  0  0  0  0  0  0  0  0
   -3.8138   -1.2292    1.0521 C   0  0  0  0  0  0  0  0  0  0  0  0
   -4.3758   -0.0211   -0.9633 C   0  0  0  0  0  0  0  0  0  0  0  0
   -4.7322   -0.9081    0.0525 C   0  0  0  0  0  0  0  0  0  0  0  0
    3.4022   -3.2596    1.2761 C   0  0  0  0  0  0  0  0  0  0  0  0
  1 11  1  0
  1 17  1  0
  2 10  2  0
  2 16  1  0
  3 13  1  0
  3 16  2  0
  4  6  2  0
  4 13  1  0
  5 16  1  0
  6  7  2  0
  8  9  1  0
  8 11  1  0
  9 10  1  0
  9 13  2  0
 10 12  1  0
 12 14  2  0
 12 15  1  0
 14 18  1  0
 15 19  2  0
 17 21  1  0
 18 20  2  0
 19 20  1  0
M  CHG  2   6   1   7  -1
M  END
>  <PUBCHEM_COMPOUND_CID>  (1) 
25420

>  <PUBCHEM_CONFORMER_RMSD>  (1) 
0.8

>  <PUBCHEM_CONFORMER_DIVERSEORDER>  (1) 
1
5
16
15
12
11
2
8
17
6
10
4
14
9
7
3
13

>  <PUBCHEM_MMFF94_PARTIAL_CHARGES>  (1) 
26
1 -0.56
10 0.31
11 0.28
13 0.49
14 -0.15
15 -0.15
16 0.72
17 0.28
18 -0.15
19 -0.15
2 -0.62
20 -0.15
26 0.15
27 0.15
3 -0.62
30 0.15
31 0.15
32 0.15
36 0.4
37 0.4
4 -0.5
5 -0.9
6 0.69
7 -0.37
8 0.14
9 -0.14

>  <PUBCHEM_EFFECTIVE_ROTOR_COUNT>  (1) 
6

>  <PUBCHEM_PHARMACOPHORE_FEATURES>  (1) 
5
1 1 acceptor
1 5 donor
4 2 3 5 16 cation
6 12 14 15 18 19 20 rings
6 2 3 9 10 13 16 rings

>  <PUBCHEM_HEAVY_ATOM_COUNT>  (1) 
21

>  <PUBCHEM_ATOM_DEF_STEREO_COUNT>  (1) 
0

>  <PUBCHEM_ATOM_UDEF_STEREO_COUNT>  (1) 
0

>  <PUBCHEM_BOND_DEF_STEREO_COUNT>  (1) 
0

>  <PUBCHEM_BOND_UDEF_STEREO_COUNT>  (1) 
0

>  <PUBCHEM_ISOTOPIC_ATOM_COUNT>  (1) 
0

>  <PUBCHEM_COMPONENT_COUNT>  (1) 
1

>  <PUBCHEM_CACTVS_TAUTO_COUNT>  (1) 
3

>  <PUBCHEM_CONFORMER_ID>  (1) 
0000634C00000001

>  <PUBCHEM_MMFF94_ENERGY>  (1) 
59.4605

>  <PUBCHEM_FEATURE_SELFOVERLAP>  (1) 
25.371

>  <PUBCHEM_SHAPE_FINGERPRINT>  (1) 
10366900 7 18262802986007760087
1100329 8 18197214965489849096
11265709 11 18122062009843874451
11578080 2 17387129758861907998
12236239 1 16702034105797853837
12553582 1 18124331401965189687
12592029 89 18335985354054076642
13004483 165 17689414015673942259
13083527 12 18265886961088520422
13140716 1 18052543467279506091
14787075 74 18267313212400422942
16945 1 18341331184226143053
19591789 44 18050007988949815271
20028762 73 17628930215890014191
20600515 1 17032429437976550912
20905425 154 18339366249240614422
21421861 104 18122084030051225369
21452121 71 17899707760447679262
23419403 2 17831258793404430628
23559900 14 18113894905907355486
56638632 33 18042105627245932546
81228 2 17403460667720072247
9999458 23 18267024045142754837

>  <PUBCHEM_SHAPE_MULTIPOLES>  (1) 
396.41
7.34
3.75
1.25
2.91
0.36
0.03
2.9
0
-4.13
1.99
0.06
0.03
-0.5

>  <PUBCHEM_SHAPE_SELFOVERLAP>  (1) 
839.357

>  <PUBCHEM_SHAPE_VOLUME>  (1) 
218.6

>  <PUBCHEM_COORDINATE_TYPE>  (1) 
2
5
10

$$$$
