25425
     RDKit          3D

 11 10  0  0  0  0  0  0  0  0999 V2000
    0.8821   -1.4855   -0.0007 O   0  0  0  0  0  0  0  0  0  0  0  0
    3.6590   -1.0225    0.0403 O   0  0  0  0  0  0  0  0  0  0  0  0
    1.9606    0.5818   -0.0244 N   0  0  0  0  0  0  0  0  0  0  0  0
   -2.9904    0.5004    0.0290 C   0  0  0  0  0  0  0  0  0  0  0  0
   -1.7059   -0.3312   -0.0378 C   0  0  0  0  0  0  0  0  0  0  0  0
   -4.2306   -0.3930   -0.0041 C   0  0  0  0  0  0  0  0  0  0  0  0
   -0.4494    0.5381   -0.0346 C   0  0  0  0  0  0  0  0  0  0  0  0
   -5.5099    0.4278    0.0339 C   0  0  0  0  0  0  0  0  0  0  0  0
    0.8454   -0.2585   -0.0270 C   0  0  0  0  0  0  0  0  0  0  0  0
    3.2839    0.1463    0.0089 C   0  0  0  0  0  0  0  0  0  0  0  0
    4.2552    1.2963    0.0165 C   0  0  0  0  0  0  0  0  0  0  0  0
  1  9  2  0
  2 10  2  0
  3  9  1  0
  3 10  1  0
  4  5  1  0
  4  6  1  0
  5  7  1  0
  6  8  1  0
  7  9  1  0
 10 11  1  0
M  END
>  <PUBCHEM_COMPOUND_CID>  (1) 
25425

>  <PUBCHEM_CONFORMER_RMSD>  (1) 
0.6

>  <PUBCHEM_CONFORMER_DIVERSEORDER>  (1) 
1
43
95
58
87
84
91
42
13
94
102
8
103
89
40
5
3
86
55
61
77
88
23
100
48
93
4
49
39
7
45
85
98
68
56
30
92
80
54
44
36
38
90
10
47
99
82
34
75
65
52
29
46
97
57
31
70
69
22
15
64
24
96
66
101
41
27
67
79
37
60
18
53
14
50
51
16
26
74
6
28
35
21
78
72
12
2
17
76
73
25
11
62
20
59
71
33
9
32
81
83
19
63

>  <PUBCHEM_MMFF94_PARTIAL_CHARGES>  (1) 
8
1 -0.57
10 0.57
11 0.06
2 -0.57
23 0.37
3 -0.49
7 0.06
9 0.57

>  <PUBCHEM_EFFECTIVE_ROTOR_COUNT>  (1) 
6

>  <PUBCHEM_PHARMACOPHORE_FEATURES>  (1) 
5
1 1 acceptor
1 2 acceptor
1 3 donor
1 8 hydrophobe
4 4 5 6 7 hydrophobe

>  <PUBCHEM_HEAVY_ATOM_COUNT>  (1) 
11

>  <PUBCHEM_ATOM_DEF_STEREO_COUNT>  (1) 
0

>  <PUBCHEM_ATOM_UDEF_STEREO_COUNT>  (1) 
0

>  <PUBCHEM_BOND_DEF_STEREO_COUNT>  (1) 
0

>  <PUBCHEM_BOND_UDEF_STEREO_COUNT>  (1) 
0

>  <PUBCHEM_ISOTOPIC_ATOM_COUNT>  (1) 
0

>  <PUBCHEM_COMPONENT_COUNT>  (1) 
1

>  <PUBCHEM_CACTVS_TAUTO_COUNT>  (1) 
3

>  <PUBCHEM_CONFORMER_ID>  (1) 
0000635100000001

>  <PUBCHEM_MMFF94_ENERGY>  (1) 
8.6565

>  <PUBCHEM_FEATURE_SELFOVERLAP>  (1) 
25.375

>  <PUBCHEM_SHAPE_FINGERPRINT>  (1) 
10219947 1 18259988175636344700
11062470 55 17894630357494527609
14123238 8 17989487437615401109
14325111 11 18410573998426691182
17834072 33 17917987317626816901
17834076 25 18343865515889574201
20279233 1 17749117677624255427
20645477 70 18342177722338512518
20719005 15 18410575076500405735
212847 35 18273213101622036576
22485316 2 18408038520349909355
23402539 116 16588015845113961775
23402655 69 18272649035156329781
23557571 272 17095805400171344367
42788 4 18410856564414889221
449060 50 18408324389136030341
522135 26 18341896281815998318

>  <PUBCHEM_SHAPE_MULTIPOLES>  (1) 
209.66
10.67
1.11
0.59
6.67
0.12
0
-2.11
0.17
-0.86
0.01
0.06
-0.02
-0.02

>  <PUBCHEM_SHAPE_SELFOVERLAP>  (1) 
386.456

>  <PUBCHEM_SHAPE_VOLUME>  (1) 
132.3

>  <PUBCHEM_COORDINATE_TYPE>  (1) 
2
5
10

$$$$
