2542
     RDKit          3D

 23 24  0  0  1  0  0  0  0  0999 V2000
    0.5189    0.1422    2.6988 O   0  0  0  0  0  0  0  0  0  0  0  0
    0.8020    0.7667   -2.0467 O   0  0  0  0  0  0  0  0  0  0  0  0
    2.1806    0.1517    0.3770 C   0  0  0  0  0  0  0  0  0  0  0  0
    2.6084   -1.0865   -0.4510 C   0  0  0  0  0  0  0  0  0  0  0  0
    2.9821    1.4001   -0.0597 C   0  0  0  0  0  0  0  0  0  0  0  0
    4.1184   -1.3431   -0.2907 C   0  0  0  0  0  0  0  0  0  0  0  0
    0.6885    0.4491    0.3270 C   0  0  0  0  0  0  0  0  0  0  0  0
    4.4538    1.1434   -0.2622 C   0  0  0  0  0  0  0  0  0  0  0  0
    4.9539   -0.0997   -0.3521 C   0  0  0  0  0  0  0  0  0  0  0  0
    1.8563   -2.3286   -0.0677 C   0  0  0  0  0  0  0  0  0  0  0  0
   -0.0623    0.4269    1.4999 C   0  0  0  0  0  0  0  0  0  0  0  0
    0.0805    0.7425   -0.8911 C   0  0  0  0  0  0  0  0  0  0  0  0
    5.3285    2.3582   -0.3638 C   0  0  0  0  0  0  0  0  0  0  0  0
    1.0405   -2.9689   -1.1514 C   0  0  0  0  0  0  0  0  0  0  0  0
   -2.0417    0.9938    0.2361 C   0  0  0  0  0  0  0  0  0  0  0  0
   -1.4296    0.6996    1.4543 C   0  0  0  0  0  0  0  0  0  0  0  0
   -1.2868    1.0152   -0.9367 C   0  0  0  0  0  0  0  0  0  0  0  0
   -3.5034    1.2867    0.1875 C   0  0  0  0  0  0  0  0  0  0  0  0
    1.9114   -2.8365    1.1725 C   0  0  0  0  0  0  0  0  0  0  0  0
   -4.3931    0.0490   -0.0295 C   0  0  0  0  0  0  0  0  0  0  0  0
   -5.8804    0.3984   -0.1400 C   0  0  0  0  0  0  0  0  0  0  0  0
   -6.7265   -0.8524   -0.3805 C   0  0  0  0  0  0  0  0  0  0  0  0
   -8.1998   -0.5079   -0.5297 C   0  0  0  0  0  0  0  0  0  0  0  0
  1 11  1  0
  2 12  1  0
  3  4  1  0
  3  5  1  0
  3  7  1  0
  4  6  1  0
  4 10  1  0
  5  8  1  0
  6  9  1  0
  7 11  2  0
  7 12  1  0
  8  9  2  0
  8 13  1  0
 10 14  1  0
 10 19  2  0
 11 16  1  0
 12 17  2  0
 15 16  2  0
 15 17  1  0
 15 18  1  0
 18 20  1  0
 20 21  1  0
 21 22  1  0
 22 23  1  0
M  END
>  <PUBCHEM_COMPOUND_CID>  (1) 
2542

>  <PUBCHEM_CONFORMER_RMSD>  (1) 
0.8

>  <PUBCHEM_CONFORMER_DIVERSEORDER>  (1) 
1
45
65
28
63
74
55
26
53
56
40
22
12
18
71
35
2
60
64
73
57
29
50
47
44
67
41
72
10
42
66
9
32
7
14
34
70
19
61
36
54
48
39
75
68
62
30
52
49
6
69
58
38
24
46
4
25
20
59
11
5
51
8
15
31
27
37
17
13
16
23
3
33
43
21

>  <PUBCHEM_MMFF94_PARTIAL_CHARGES>  (1) 
26
1 -0.53
10 -0.28
11 0.08
12 0.08
13 0.14
14 0.14
15 -0.14
16 -0.15
17 -0.15
18 0.14
19 -0.3
2 -0.53
3 0.14
30 0.15
37 0.15
38 0.15
4 0.14
41 0.15
42 0.15
47 0.45
48 0.45
5 0.14
6 0.14
7 -0.14
8 -0.28
9 -0.29

>  <PUBCHEM_EFFECTIVE_ROTOR_COUNT>  (1) 
6.8

>  <PUBCHEM_PHARMACOPHORE_FEATURES>  (1) 
6
1 1 donor
1 2 donor
1 23 hydrophobe
4 18 20 21 22 hydrophobe
6 3 4 5 6 8 9 rings
6 7 11 12 15 16 17 rings

>  <PUBCHEM_HEAVY_ATOM_COUNT>  (1) 
23

>  <PUBCHEM_ATOM_DEF_STEREO_COUNT>  (1) 
0

>  <PUBCHEM_ATOM_UDEF_STEREO_COUNT>  (1) 
2

>  <PUBCHEM_BOND_DEF_STEREO_COUNT>  (1) 
0

>  <PUBCHEM_BOND_UDEF_STEREO_COUNT>  (1) 
0

>  <PUBCHEM_ISOTOPIC_ATOM_COUNT>  (1) 
0

>  <PUBCHEM_COMPONENT_COUNT>  (1) 
1

>  <PUBCHEM_CACTVS_TAUTO_COUNT>  (1) 
10

>  <PUBCHEM_CONFORMER_ID>  (1) 
000009EE00000001

>  <PUBCHEM_MMFF94_ENERGY>  (1) 
47.0621

>  <PUBCHEM_FEATURE_SELFOVERLAP>  (1) 
30.446

>  <PUBCHEM_SHAPE_FINGERPRINT>  (1) 
10165383 225 18337391656145897940
10366900 7 17823435803160107870
10595046 47 18412829054021324481
10906281 52 17314252040708460772
11089746 13 9943804474704743593
11135609 149 16807547514686270067
11421498 54 17632301116539077266
11796584 16 18201720597032487103
12107183 9 17405435403683743185
12236239 1 17560525006532284112
12553582 1 16343409632076348881
12592029 89 18335981974547752482
12730499 353 18334861623132014416
12788726 201 17060347284305280435
13009979 54 16842201845198524166
13533116 47 18342174449694355763
1361 2 18334296521511143772
13899415 154 16200154313453452841
14617045 38 18202283619905686215
14787075 74 17989207057512563559
15183329 4 18201435836759190329
15537594 2 17703783730937412391
17134984 74 18261387876105086299
17492 89 17984706614897438191
17980427 23 16154563141212168934
20645477 70 18339644434256733814
21049683 118 18122603206215210496
21267235 1 16343992386123926684
21344244 181 17346613971165759422
21344244 246 18057618581753925126
21521721 280 18201162168904292137
22079108 93 18201994465274086632
22182313 1 17314537883893278083
22224240 67 18335416915575640400
23516275 137 17702409319981532391
23522609 53 17702409358604252065
23557571 272 16443628973964253988
23559900 14 18339355392418241713
33382 64 18343303635456979699
335352 9 18410301316213452060
4072396 5 14490464300901117968
4325135 7 18413389851657631636
4340502 62 18272643567451854938
465052 167 17203609294144221669
59755656 215 18040998436363764861
6327066 14 18045509874834965588
7495541 125 17775562061637871897
8272917 22 18127138476514546228

>  <PUBCHEM_SHAPE_MULTIPOLES>  (1) 
461.59
14.25
2.43
1.43
30.51
1.88
0.58
-0.71
-3.54
-3.1
-0.22
-0.21
0.02
-0.57

>  <PUBCHEM_SHAPE_SELFOVERLAP>  (1) 
950.245

>  <PUBCHEM_SHAPE_VOLUME>  (1) 
265.2

>  <PUBCHEM_COORDINATE_TYPE>  (1) 
2
5
10

$$$$
