25430
     RDKit          3D

 15 14  0  0  0  0  0  0  0  0999 V2000
    2.1016   -0.1921    0.4114 O   0  0  0  0  0  0  0  0  0  0  0  0
   -1.0030    1.2260   -0.3898 O   0  0  0  0  0  0  0  0  0  0  0  0
    3.3594   -0.6165   -1.3611 O   0  0  0  0  0  0  0  0  0  0  0  0
   -1.5530    2.7631    1.1066 O   0  0  0  0  0  0  0  0  0  0  0  0
    4.2680    0.4943    0.3454 O   0  0  0  0  0  0  0  0  0  0  0  0
   -1.7197    3.2780   -1.0565 O   0  0  0  0  0  0  0  0  0  0  0  0
    3.3579   -0.0888   -0.2482 N   0  0  0  0  0  0  0  0  0  0  0  0
   -1.4664    2.5400   -0.1015 N   0  0  0  0  0  0  0  0  0  0  0  0
   -0.2373   -0.9692    0.4074 C   0  0  0  0  0  0  0  0  0  0  0  0
   -1.2583   -1.7290   -0.4908 C   0  0  0  0  0  0  0  0  0  0  0  0
    1.1160   -0.8790   -0.3475 C   0  0  0  0  0  0  0  0  0  0  0  0
   -0.7381    0.4495    0.7702 C   0  0  0  0  0  0  0  0  0  0  0  0
    0.0164   -1.7419    1.7171 C   0  0  0  0  0  0  0  0  0  0  0  0
   -2.6573   -1.9153    0.1085 C   0  0  0  0  0  0  0  0  0  0  0  0
   -3.5862   -2.6190   -0.8712 C   0  0  0  0  0  0  0  0  0  0  0  0
  1  7  1  0
  1 11  1  0
  2  8  1  0
  2 12  1  0
  3  7  1  0
  4  8  1  0
  5  7  2  0
  6  8  2  0
  9 10  1  0
  9 11  1  0
  9 12  1  0
  9 13  1  0
 10 14  1  0
 14 15  1  0
M  CHG  4   3  -1   4  -1   7   1   8   1
M  END
>  <PUBCHEM_COMPOUND_CID>  (1) 
25430

>  <PUBCHEM_CONFORMER_RMSD>  (1) 
0.8

>  <PUBCHEM_CONFORMER_DIVERSEORDER>  (1) 
1
7
9
16
15
14
12
5
10
4
13
3
11
8
6
2

>  <PUBCHEM_MMFF94_PARTIAL_CHARGES>  (1) 
10
1 -0.27
11 0.28
12 0.28
2 -0.27
3 -0.52
4 -0.52
5 -0.52
6 -0.52
7 1.03
8 1.03

>  <PUBCHEM_EFFECTIVE_ROTOR_COUNT>  (1) 
8

>  <PUBCHEM_PHARMACOPHORE_FEATURES>  (1) 
6
1 13 hydrophobe
1 15 hydrophobe
1 3 acceptor
1 4 acceptor
1 5 acceptor
1 6 acceptor

>  <PUBCHEM_HEAVY_ATOM_COUNT>  (1) 
15

>  <PUBCHEM_ATOM_DEF_STEREO_COUNT>  (1) 
0

>  <PUBCHEM_ATOM_UDEF_STEREO_COUNT>  (1) 
0

>  <PUBCHEM_BOND_DEF_STEREO_COUNT>  (1) 
0

>  <PUBCHEM_BOND_UDEF_STEREO_COUNT>  (1) 
0

>  <PUBCHEM_ISOTOPIC_ATOM_COUNT>  (1) 
0

>  <PUBCHEM_COMPONENT_COUNT>  (1) 
1

>  <PUBCHEM_CACTVS_TAUTO_COUNT>  (1) 
1

>  <PUBCHEM_CONFORMER_ID>  (1) 
0000635600000001

>  <PUBCHEM_MMFF94_ENERGY>  (1) 
39.0736

>  <PUBCHEM_FEATURE_SELFOVERLAP>  (1) 
30.588

>  <PUBCHEM_SHAPE_FINGERPRINT>  (1) 
14943834 7 17972018263471419099
15490181 7 18048046172437656059
17041 50 18123169450382452679
187816 3 18042399299819064642
20671657 1 17831298303072382386
20711985 344 18411417306428378395
21041028 32 18193855953493981267
21524375 3 17901678063571979296
22620623 9 18060424599245123063
228727 97 18113893892205532859
23402539 116 18339635754323325734
23419403 2 17905293545609490909
23526113 38 17610052743474858571
23557571 272 18342742957082309198
23558518 356 18187649038003086522
3060560 45 17185025069169730399
3250762 1 18056210067696378439
68419 9 17971733515618540779
68521 5 18410008870771967663
7164475 11 18336253557729892782
7364860 26 17478325796148860907
81228 2 18336840765589445752

>  <PUBCHEM_SHAPE_MULTIPOLES>  (1) 
263.52
5.45
3.45
1.2
4.15
4.7
0.22
-3.62
-1.75
-3.2
-0.33
-0.02
-0.18
-0.12

>  <PUBCHEM_SHAPE_SELFOVERLAP>  (1) 
498.608

>  <PUBCHEM_SHAPE_VOLUME>  (1) 
163.1

>  <PUBCHEM_COORDINATE_TYPE>  (1) 
2
5
10

$$$$
