25436
     RDKit          3D

 44 49  0  0  1  0  0  0  0  0999 V2000
   -2.4594   -0.4650    1.6983 O   0  0  0  0  0  0  0  0  0  0  0  0
    2.7430    0.0362   -0.3379 O   0  0  0  0  0  0  0  0  0  0  0  0
   -5.3713    1.6785    0.0173 O   0  0  0  0  0  0  0  0  0  0  0  0
    3.1817    2.2779   -1.6599 O   0  0  0  0  0  0  0  0  0  0  0  0
    5.0794   -0.1703   -0.3944 O   0  0  0  0  0  0  0  0  0  0  0  0
   -5.9529   -1.8879    1.6051 O   0  0  0  0  0  0  0  0  0  0  0  0
    3.5612   -1.9435   -2.0764 O   0  0  0  0  0  0  0  0  0  0  0  0
   -5.9300    2.3860   -2.1099 O   0  0  0  0  0  0  0  0  0  0  0  0
    4.8628   -3.5102    0.9487 O   0  0  0  0  0  0  0  0  0  0  0  0
    7.3164   -3.0834   -0.2785 O   0  0  0  0  0  0  0  0  0  0  0  0
   -7.0724   -3.8564    1.4067 O   0  0  0  0  0  0  0  0  0  0  0  0
    7.4210    1.1269    0.2313 O   0  0  0  0  0  0  0  0  0  0  0  0
   -2.0293    0.4349    0.6659 C   0  0  0  0  0  0  0  0  0  0  0  0
   -2.2763   -0.2190   -0.7303 C   0  0  0  0  0  0  0  0  0  0  0  0
   -0.5665    0.8757    0.9714 C   0  0  0  0  0  0  0  0  0  0  0  0
    0.0896    1.6403   -0.2080 C   0  0  0  0  0  0  0  0  0  0  0  0
    1.5513    2.1118    0.1239 C   0  0  0  0  0  0  0  0  0  0  0  0
   -3.8178   -0.0104   -0.9385 C   0  0  0  0  0  0  0  0  0  0  0  0
   -1.5004    0.5345   -1.8450 C   0  0  0  0  0  0  0  0  0  0  0  0
   -0.0356    0.8058   -1.5025 C   0  0  0  0  0  0  0  0  0  0  0  0
   -3.0157    1.6359    0.7140 C   0  0  0  0  0  0  0  0  0  0  0  0
    2.4457    0.9717    0.7050 C   0  0  0  0  0  0  0  0  0  0  0  0
    0.3371   -0.2801    1.4467 C   0  0  0  0  0  0  0  0  0  0  0  0
   -4.0434    1.4165   -0.4040 C   0  0  0  0  0  0  0  0  0  0  0  0
    1.7310    0.2064    1.8370 C   0  0  0  0  0  0  0  0  0  0  0  0
   -1.9062   -1.7152   -0.8121 C   0  0  0  0  0  0  0  0  0  0  0  0
    1.5158    3.2953    1.1342 C   0  0  0  0  0  0  0  0  0  0  0  0
   -4.6980   -1.0327   -0.2742 C   0  0  0  0  0  0  0  0  0  0  0  0
    2.1470    2.6920   -1.1478 C   0  0  0  0  0  0  0  0  0  0  0  0
    3.7569    1.4888    1.2584 C   0  0  0  0  0  0  0  0  0  0  0  0
    2.9142    3.8328    1.4761 C   0  0  0  0  0  0  0  0  0  0  0  0
    3.9608    2.7690    1.5980 C   0  0  0  0  0  0  0  0  0  0  0  0
    3.8552   -0.7850    0.0102 C   0  0  0  0  0  0  0  0  0  0  0  0
   -5.1022   -2.1885   -1.0318 C   0  0  0  0  0  0  0  0  0  0  0  0
   -5.1318   -0.9344    0.9865 C   0  0  0  0  0  0  0  0  0  0  0  0
   -6.2193    2.1642   -0.9419 C   0  0  0  0  0  0  0  0  0  0  0  0
    3.6863   -2.1505   -0.6682 C   0  0  0  0  0  0  0  0  0  0  0  0
   -5.8842   -3.1263   -0.4883 C   0  0  0  0  0  0  0  0  0  0  0  0
    4.8930   -3.0534   -0.4027 C   0  0  0  0  0  0  0  0  0  0  0  0
    6.2317   -0.9307   -0.0146 C   0  0  0  0  0  0  0  0  0  0  0  0
    6.2016   -2.3052   -0.6959 C   0  0  0  0  0  0  0  0  0  0  0  0
   -6.3537   -2.9969    0.9071 C   0  0  0  0  0  0  0  0  0  0  0  0
   -7.5799    2.3923   -0.3565 C   0  0  0  0  0  0  0  0  0  0  0  0
    7.4635   -0.1282   -0.4228 C   0  0  0  0  0  0  0  0  0  0  0  0
  1 13  1  0
  2 22  1  0
  2 33  1  0
  3 24  1  0
  3 36  1  0
  4 29  2  0
  5 33  1  0
  5 40  1  0
  6 35  1  0
  6 42  1  0
  7 37  1  0
  8 36  2  0
  9 39  1  0
 10 41  1  0
 11 42  2  0
 12 44  1  0
 13 14  1  0
 13 15  1  0
 13 21  1  0
 14 18  1  0
 14 19  1  0
 14 26  1  0
 15 16  1  0
 15 23  1  0
 16 17  1  0
 16 20  1  0
 17 22  1  0
 17 27  1  0
 17 29  1  0
 18 24  1  0
 18 28  1  0
 19 20  1  0
 21 24  1  0
 22 25  1  0
 22 30  1  0
 23 25  1  0
 27 31  1  0
 28 34  1  0
 28 35  2  0
 30 32  2  0
 31 32  1  0
 33 37  1  0
 34 38  2  0
 36 43  1  0
 37 39  1  0
 38 42  1  0
 39 41  1  0
 40 41  1  0
 40 44  1  0
M  END
>  <PUBCHEM_COMPOUND_CID>  (1) 
25436

>  <PUBCHEM_CONFORMER_RMSD>  (1) 
1.2

>  <PUBCHEM_CONFORMER_DIVERSEORDER>  (1) 
1
32
45
18
50
2
48
15
21
47
52
14
30
12
38
22
23
31
37
41
25
20
49
5
39
6
33
24
42
11
8
29
9
10
51
44
40
35
4
16
19
27
28
26
34
36
13
46
43
3
7
17

>  <PUBCHEM_MMFF94_PARTIAL_CHARGES>  (1) 
45
1 -0.68
10 -0.68
11 -0.57
12 -0.68
13 0.28
17 0.06
18 0.14
2 -0.56
22 0.42
24 0.28
28 -0.14
29 0.45
3 -0.43
30 -0.29
31 0.14
32 -0.29
33 0.56
34 -0.15
35 -0.07
36 0.66
37 0.28
38 -0.14
39 0.28
4 -0.57
40 0.28
41 0.28
42 0.71
43 0.06
44 0.28
5 -0.56
6 -0.23
64 0.4
65 0.06
66 0.15
69 0.15
7 -0.68
71 0.15
72 0.15
74 0.15
8 -0.57
81 0.4
84 0.4
85 0.4
86 0.4
9 -0.68

>  <PUBCHEM_EFFECTIVE_ROTOR_COUNT>  (1) 
10

>  <PUBCHEM_PHARMACOPHORE_FEATURES>  (1) 
21
1 1 acceptor
1 1 donor
1 10 acceptor
1 10 donor
1 11 acceptor
1 12 acceptor
1 12 donor
1 2 acceptor
1 4 acceptor
1 5 acceptor
1 7 acceptor
1 7 donor
1 8 acceptor
1 9 acceptor
1 9 donor
5 13 14 18 21 24 rings
6 13 14 15 16 19 20 rings
6 15 16 17 22 23 25 rings
6 17 22 27 30 31 32 rings
6 5 33 37 39 40 41 rings
6 6 28 34 35 38 42 rings

>  <PUBCHEM_HEAVY_ATOM_COUNT>  (1) 
44

>  <PUBCHEM_ATOM_DEF_STEREO_COUNT>  (1) 
8

>  <PUBCHEM_ATOM_UDEF_STEREO_COUNT>  (1) 
5

>  <PUBCHEM_BOND_DEF_STEREO_COUNT>  (1) 
0

>  <PUBCHEM_BOND_UDEF_STEREO_COUNT>  (1) 
0

>  <PUBCHEM_ISOTOPIC_ATOM_COUNT>  (1) 
0

>  <PUBCHEM_COMPONENT_COUNT>  (1) 
1

>  <PUBCHEM_CACTVS_TAUTO_COUNT>  (1) 
1

>  <PUBCHEM_CONFORMER_ID>  (1) 
0000635C00000001

>  <PUBCHEM_MMFF94_ENERGY>  (1) 
175.0682

>  <PUBCHEM_FEATURE_SELFOVERLAP>  (1) 
106.927

>  <PUBCHEM_SHAPE_FINGERPRINT>  (1) 
10169797 241 18129677429278373958
11135609 187 18199743825729988328
117089 54 18335991955804621043
13782708 43 18333448759243651874
13811026 1 18412257333163896663
14068700 675 17488169414435846336
15064986 96 17703796903079616621
15183329 4 18131065983251050553
15361156 5 18113907056501789445
15510800 12 17969510479602147115
15911013 46 18340484439966042880
17492 89 18341891935193134689
21814621 53 18342450465741500513
22393880 68 18260258647286625361
23559900 14 18271796917713222793
23569914 152 17906699576927962279
23576562 1 17894633669215533293
24771750 20 18048043153930780636
249057 3 18339358557624243117
25269216 80 17967823781488446419
32027 91 18270956847647755250
4073 2 18409164428503710985
4098825 35 18407760352213316485
4144715 1 18409728495913929665
439807 62 18410860975431243919
4461854 278 17561090249972622390
46194498 28 17968373554693025444
50009960 94 18117812517604180482
5104073 3 18131077056267349913
513202 73 18335427907019644619
6009941 240 18336827494393676197
613672 6 17916871192464433102
6691757 9 15626218031167791679
6697151 62 18058426760473714040
6698420 124 18269272375646887921
86090 222 17968095390614367571
9962374 69 18198895001824683415

>  <PUBCHEM_SHAPE_MULTIPOLES>  (1) 
835.07
20.03
4.52
1.69
3.37
1.07
-0.03
11.45
-0.87
-0.06
0.66
0.7
-0.29
3.52

>  <PUBCHEM_SHAPE_SELFOVERLAP>  (1) 
1810.666

>  <PUBCHEM_SHAPE_VOLUME>  (1) 
445.7

>  <PUBCHEM_COORDINATE_TYPE>  (1) 
2
5
10

$$$$
