25454
     RDKit          3D

 18 17  0  0  1  0  0  0  0  0999 V2000
    4.8436   -1.2548    0.1357 S   0  0  0  0  0  0  0  0  0  0  0  0
    6.4626   -1.1669    0.2964 O   0  0  0  0  0  0  0  0  0  0  0  0
    4.5249   -2.1339   -0.9685 O   0  0  0  0  0  0  0  0  0  0  0  0
    4.2470   -1.4143    1.4444 O   0  0  0  0  0  0  0  0  0  0  0  0
    4.5875    0.4250   -0.3925 C   0  0  0  0  0  0  0  0  0  0  0  0
    3.1951    0.5970   -1.0221 C   0  0  0  0  0  0  0  0  0  0  0  0
    2.0176    0.3396   -0.0742 C   0  0  0  0  0  0  0  0  0  0  0  0
    0.6501    0.4734   -0.7569 C   0  0  0  0  0  0  0  0  0  0  0  0
   -0.5670    0.1430    0.1129 C   0  0  0  0  0  0  0  0  0  0  0  0
   -1.8961    0.2355   -0.6399 C   0  0  0  0  0  0  0  0  0  0  0  0
   -3.0807   -0.0164    0.2957 C   0  0  0  0  0  0  0  0  0  0  0  0
    4.9169    1.3855    0.7569 C   0  0  0  0  0  0  0  0  0  0  0  0
   -4.4416    0.0883   -0.4000 C   0  0  0  0  0  0  0  0  0  0  0  0
   -5.6699   -0.0750    0.5013 C   0  0  0  0  0  0  0  0  0  0  0  0
   -6.9979   -0.0174   -0.2561 C   0  0  0  0  0  0  0  0  0  0  0  0
    4.8926    2.8501    0.3464 C   0  0  0  0  0  0  0  0  0  0  0  0
   -8.1796   -0.2738    0.6800 C   0  0  0  0  0  0  0  0  0  0  0  0
   -9.5051   -0.1849   -0.0594 C   0  0  0  0  0  0  0  0  0  0  0  0
  1  2  1  0
  1  3  2  0
  1  4  2  0
  1  5  1  0
  5  6  1  0
  5 12  1  0
  6  7  1  0
  7  8  1  0
  8  9  1  0
  9 10  1  0
 10 11  1  0
 11 13  1  0
 12 16  1  0
 13 14  1  0
 14 15  1  0
 15 17  1  0
 17 18  1  0
M  END
>  <PUBCHEM_COMPOUND_CID>  (1) 
25454

>  <PUBCHEM_CONFORMER_RMSD>  (1) 
1.2

>  <PUBCHEM_CONFORMER_DIVERSEORDER>  (1) 
2
98
17
20
116
23
36
66
130
11
119
92
127
72
5
31
109
25
45
21
40
85
77
3
38
78
75
124
121
37
115
125
6
48
96
114
81
95
53
42
83
82
39
51
58
4
16
88
105
90
10
65
59
60
49
27
131
18
106
24
1
71
99
7
35
87
73
8
89
120
34
122
50
32
22
44
104
68
107
61
126
13
123
69
108
19
62
101
52
55
103
76
28
110
128
79
102
15
67
129
47
93
84
117
30
70
111
43
63
29
33
86
94
113
91
56
64
14
118
112
100
80
46
74
12
54
9
57
26
41
97

>  <PUBCHEM_MMFF94_PARTIAL_CHARGES>  (1) 
6
1 1.38
2 -0.68
3 -0.65
4 -0.65
45 0.5
5 0.11

>  <PUBCHEM_EFFECTIVE_ROTOR_COUNT>  (1) 
12

>  <PUBCHEM_PHARMACOPHORE_FEATURES>  (1) 
6
1 16 hydrophobe
1 18 hydrophobe
1 2 acceptor
1 3 acceptor
1 4 acceptor
4 1 2 3 4 anion

>  <PUBCHEM_HEAVY_ATOM_COUNT>  (1) 
18

>  <PUBCHEM_ATOM_DEF_STEREO_COUNT>  (1) 
0

>  <PUBCHEM_ATOM_UDEF_STEREO_COUNT>  (1) 
1

>  <PUBCHEM_BOND_DEF_STEREO_COUNT>  (1) 
0

>  <PUBCHEM_BOND_UDEF_STEREO_COUNT>  (1) 
0

>  <PUBCHEM_ISOTOPIC_ATOM_COUNT>  (1) 
0

>  <PUBCHEM_COMPONENT_COUNT>  (1) 
1

>  <PUBCHEM_CACTVS_TAUTO_COUNT>  (1) 
1

>  <PUBCHEM_CONFORMER_ID>  (1) 
0000636E00000002

>  <PUBCHEM_MMFF94_ENERGY>  (1) 
4.87

>  <PUBCHEM_FEATURE_SELFOVERLAP>  (1) 
30.5

>  <PUBCHEM_SHAPE_FINGERPRINT>  (1) 
11315181 36 9727632814162882791
125118 31 17988929955446083105
13533116 47 18412545388473824370
14170010 4 18040716987136012349
14251764 18 17203610398462435053
14251764 46 18411136939405140482
15716309 27 18272651260418738159
17844677 252 18408325453956194972
20157964 124 18342459257317768236
20165401 70 18200873972515721535
20281389 69 18411139134962058557
20397935 70 18411984637522663830
20645477 70 18410292493896971078
21150785 3 13767932316656630615
22224240 67 18335138726755248403
23035841 295 14634867570552025121
23081809 10 17704068521507478061
28498 318 17967249776684610335
33532 11 17894910716144193307
59755656 215 16515401850937189707
8209 1 16588025719233056853

>  <PUBCHEM_SHAPE_MULTIPOLES>  (1) 
356.67
25.99
1.67
0.96
56.31
0.44
-0.04
-2.67
-3.66
-5.21
-0.19
-0.62
-0.1
0.32

>  <PUBCHEM_SHAPE_SELFOVERLAP>  (1) 
642.818

>  <PUBCHEM_SHAPE_VOLUME>  (1) 
229.1

>  <PUBCHEM_COORDINATE_TYPE>  (1) 
2
5
10

$$$$
