25465
     RDKit          3D

 50 53  0  0  1  0  0  0  0  0999 V2000
   -0.1540   -1.2867    0.3265 O   0  0  0  0  0  0  0  0  0  0  0  0
    4.9852   -0.4747   -0.9780 O   0  0  0  0  0  0  0  0  0  0  0  0
   -2.2303   -0.5516   -0.4311 O   0  0  0  0  0  0  0  0  0  0  0  0
   -0.8335   -0.6750   -2.3383 O   0  0  0  0  0  0  0  0  0  0  0  0
   -0.0683   -3.6251    1.9478 O   0  0  0  0  0  0  0  0  0  0  0  0
    2.1977   -0.2932   -0.8469 O   0  0  0  0  0  0  0  0  0  0  0  0
   -1.8001   -2.6330    3.8749 O   0  0  0  0  0  0  0  0  0  0  0  0
    5.9011   -3.1748   -0.0506 O   0  0  0  0  0  0  0  0  0  0  0  0
    7.1516   -1.4910    1.6927 O   0  0  0  0  0  0  0  0  0  0  0  0
   -4.3697    0.6573   -4.0002 O   0  0  0  0  0  0  0  0  0  0  0  0
   -3.5475   -2.0744   -4.3993 O   0  0  0  0  0  0  0  0  0  0  0  0
    0.3424   -3.0701   -2.9172 O   0  0  0  0  0  0  0  0  0  0  0  0
   -4.7800   -1.5831    0.7125 O   0  0  0  0  0  0  0  0  0  0  0  0
    8.6397    1.0366    0.1399 O   0  0  0  0  0  0  0  0  0  0  0  0
   -2.0981    3.6799   -1.6441 O   0  0  0  0  0  0  0  0  0  0  0  0
    6.6214    5.1319    0.7726 O   0  0  0  0  0  0  0  0  0  0  0  0
   -3.2708   -0.7133    2.2507 N   0  0  0  0  0  0  0  0  0  0  0  0
    6.3063    1.1390    0.0780 N   0  0  0  0  0  0  0  0  0  0  0  0
   -3.4569    1.7955   -1.4928 N   0  0  0  0  0  0  0  0  0  0  0  0
    7.6326    3.0749    0.4554 N   0  0  0  0  0  0  0  0  0  0  0  0
    0.7696   -1.4292    1.4113 C   0  0  0  0  0  0  0  0  0  0  0  0
    4.1970   -1.5429   -0.4083 C   0  0  0  0  0  0  0  0  0  0  0  0
    0.1598   -2.3241    2.4935 C   0  0  0  0  0  0  0  0  0  0  0  0
    2.0589   -2.0070    0.8392 C   0  0  0  0  0  0  0  0  0  0  0  0
    2.9354   -0.9346    0.1896 C   0  0  0  0  0  0  0  0  0  0  0  0
   -2.1032   -1.4394    1.7952 C   0  0  0  0  0  0  0  0  0  0  0  0
   -1.1660   -1.7293    2.9731 C   0  0  0  0  0  0  0  0  0  0  0  0
   -1.3711   -0.6432    0.7049 C   0  0  0  0  0  0  0  0  0  0  0  0
    5.0899   -2.2148    0.6259 C   0  0  0  0  0  0  0  0  0  0  0  0
    5.9386   -1.0589    1.1112 C   0  0  0  0  0  0  0  0  0  0  0  0
    6.1530   -0.2668   -0.1671 C   0  0  0  0  0  0  0  0  0  0  0  0
   -1.6117    0.1744   -1.4916 C   0  0  0  0  0  0  0  0  0  0  0  0
   -2.6663    0.9139   -2.3206 C   0  0  0  0  0  0  0  0  0  0  0  0
   -3.5515   -0.0741   -3.0848 C   0  0  0  0  0  0  0  0  0  0  0  0
   -2.6899   -1.0625   -3.8770 C   0  0  0  0  0  0  0  0  0  0  0  0
   -1.6048   -1.6882   -2.9928 C   0  0  0  0  0  0  0  0  0  0  0  0
   -0.6291   -2.5401   -3.8002 C   0  0  0  0  0  0  0  0  0  0  0  0
   -4.5160   -0.8526    1.6619 C   0  0  0  0  0  0  0  0  0  0  0  0
    7.5999    1.6944    0.2178 C   0  0  0  0  0  0  0  0  0  0  0  0
    5.1835    1.9523    0.1776 C   0  0  0  0  0  0  0  0  0  0  0  0
   -3.1011    3.1074   -1.2262 C   0  0  0  0  0  0  0  0  0  0  0  0
    5.2308    3.2668    0.4044 C   0  0  0  0  0  0  0  0  0  0  0  0
   -5.5393    0.0025    2.3232 C   0  0  0  0  0  0  0  0  0  0  0  0
    6.5431    3.9251    0.5630 C   0  0  0  0  0  0  0  0  0  0  0  0
   -4.1123    3.8082   -0.3590 C   0  0  0  0  0  0  0  0  0  0  0  0
   -6.8068   -0.0003    1.8880 C   0  0  0  0  0  0  0  0  0  0  0  0
   -7.8947    0.8334    2.5066 C   0  0  0  0  0  0  0  0  0  0  0  0
   -8.5211    1.8357    1.5189 C   0  0  0  0  0  0  0  0  0  0  0  0
   -7.4888    2.8222    0.9663 C   0  0  0  0  0  0  0  0  0  0  0  0
   -9.6546    2.6029    2.2036 C   0  0  0  0  0  0  0  0  0  0  0  0
  1 21  1  0
  1 28  1  0
  2 22  1  0
  2 31  1  0
  3 28  1  0
  3 32  1  0
  4 32  1  0
  4 36  1  0
  5 23  1  0
  6 25  1  0
  7 27  1  0
  8 29  1  0
  9 30  1  0
 10 34  1  0
 11 35  1  0
 12 37  1  0
 13 38  2  0
 14 39  2  0
 15 41  2  0
 16 44  2  0
 17 26  1  0
 17 38  1  0
 18 31  1  0
 18 39  1  0
 18 40  1  0
 19 33  1  0
 19 41  1  0
 20 39  1  0
 20 44  1  0
 21 23  1  0
 21 24  1  0
 22 25  1  0
 22 29  1  0
 23 27  1  0
 24 25  1  0
 26 27  1  0
 26 28  1  0
 29 30  1  0
 30 31  1  0
 32 33  1  0
 33 34  1  0
 34 35  1  0
 35 36  1  0
 36 37  1  0
 38 43  1  0
 40 42  2  0
 41 45  1  0
 42 44  1  0
 43 46  2  0
 46 47  1  0
 47 48  1  0
 48 49  1  0
 48 50  1  0
M  END
>  <PUBCHEM_COMPOUND_CID>  (1) 
25465

>  <PUBCHEM_CONFORMER_RMSD>  (1) 
1.4

>  <PUBCHEM_CONFORMER_DIVERSEORDER>  (1) 
1
44
74
17
72
40
47
59
60
13
19
78
81
14
71
36
50
37
16
80
18
69
61
28
33
57
66
20
58
10
32
42
67
30
41
24
65
46
56
76
77
54
75
73
27
43
35
7
64
34
3
70
21
23
68
38
29
51
53
4
49
79
39
25
62
12
45
5
8
48
63
31
11
22
6
52
2
26
55
15
9

>  <PUBCHEM_MMFF94_PARTIAL_CHARGES>  (1) 
61
1 -0.56
10 -0.68
11 -0.68
12 -0.68
13 -0.57
14 -0.57
15 -0.57
16 -0.57
17 -0.73
18 -0.47
19 -0.73
2 -0.56
20 -0.49
21 0.28
22 0.28
23 0.28
25 0.28
26 0.3
27 0.28
28 0.56
29 0.28
3 -0.56
30 0.28
31 0.58
32 0.56
33 0.3
34 0.28
35 0.28
36 0.28
37 0.28
38 0.62
39 0.69
4 -0.56
40 -0.04
41 0.57
42 -0.14
43 -0.14
44 0.62
45 0.06
46 -0.29
47 0.14
5 -0.68
6 -0.68
68 0.37
69 0.4
7 -0.68
70 0.4
71 0.4
72 0.4
73 0.37
74 0.4
77 0.4
78 0.15
79 0.4
8 -0.68
80 0.37
81 0.15
82 0.15
83 0.4
87 0.15
9 -0.68

>  <PUBCHEM_EFFECTIVE_ROTOR_COUNT>  (1) 
17.4

>  <PUBCHEM_PHARMACOPHORE_FEATURES>  (1) 
32
1 1 acceptor
1 10 acceptor
1 10 donor
1 11 acceptor
1 11 donor
1 12 acceptor
1 12 donor
1 13 acceptor
1 14 acceptor
1 15 acceptor
1 16 acceptor
1 17 donor
1 19 donor
1 2 acceptor
1 20 donor
1 3 acceptor
1 4 acceptor
1 5 acceptor
1 5 donor
1 6 acceptor
1 6 donor
1 7 acceptor
1 7 donor
1 8 acceptor
1 8 donor
1 9 acceptor
1 9 donor
3 48 49 50 hydrophobe
5 2 22 29 30 31 rings
6 1 21 23 26 27 28 rings
6 18 20 39 40 42 44 rings
6 4 32 33 34 35 36 rings

>  <PUBCHEM_HEAVY_ATOM_COUNT>  (1) 
50

>  <PUBCHEM_ATOM_DEF_STEREO_COUNT>  (1) 
14

>  <PUBCHEM_ATOM_UDEF_STEREO_COUNT>  (1) 
1

>  <PUBCHEM_BOND_DEF_STEREO_COUNT>  (1) 
0

>  <PUBCHEM_BOND_UDEF_STEREO_COUNT>  (1) 
1

>  <PUBCHEM_ISOTOPIC_ATOM_COUNT>  (1) 
0

>  <PUBCHEM_COMPONENT_COUNT>  (1) 
1

>  <PUBCHEM_CACTVS_TAUTO_COUNT>  (1) 
12

>  <PUBCHEM_CONFORMER_ID>  (1) 
0000637900000001

>  <PUBCHEM_MMFF94_ENERGY>  (1) 
121.9319

>  <PUBCHEM_FEATURE_SELFOVERLAP>  (1) 
162.587

>  <PUBCHEM_SHAPE_FINGERPRINT>  (1) 
10930396 42 16662323138251658232
13165054 27 18337959012071184956
15131766 46 18058730359285746888
15351334 14 17773582996062675344
22122407 14 18410844478915099332
23576562 1 16128078036634796769
24771293 8 17749401373289241987
25269216 80 15768929237880058204
4258327 124 17346329240091751424

>  <PUBCHEM_SHAPE_MULTIPOLES>  (1) 
915.14
23.97
4.88
4.34
6.44
4.82
-3.49
25.53
13.78
4.79
-0.47
-8.51
-3.98
-1.61

>  <PUBCHEM_SHAPE_SELFOVERLAP>  (1) 
1902.094

>  <PUBCHEM_SHAPE_VOLUME>  (1) 
513.6

>  <PUBCHEM_COORDINATE_TYPE>  (1) 
2
5
10

$$$$
