2546
     RDKit          3D

 16 16  0  0  1  0  0  0  0  0999 V2000
    3.1289    0.2662    0.8053 S   0  0  0  0  0  0  0  0  0  0  0  0
    0.4813    1.0546   -0.8882 O   0  0  0  0  0  0  0  0  0  0  0  0
   -3.1528    2.2780   -0.5564 O   0  0  0  0  0  0  0  0  0  0  0  0
   -2.9771    0.1906   -1.4553 O   0  0  0  0  0  0  0  0  0  0  0  0
    5.3709    1.2141    0.9109 O   0  0  0  0  0  0  0  0  0  0  0  0
   -0.9475   -0.3342    0.2893 N   0  0  0  0  0  0  0  0  0  0  0  0
    4.6783    0.5454    0.1371 N   0  0  0  0  0  0  0  0  0  0  0  0
   -1.9132    0.6932    0.6566 C   0  0  0  0  0  0  0  0  0  0  0  0
   -2.7551    0.0574    1.7569 C   0  0  0  0  0  0  0  0  0  0  0  0
   -2.7054   -1.4322    1.4259 C   0  0  0  0  0  0  0  0  0  0  0  0
   -1.2977   -1.6225    0.8818 C   0  0  0  0  0  0  0  0  0  0  0  0
    0.2196   -0.0465   -0.4012 C   0  0  0  0  0  0  0  0  0  0  0  0
    1.1885   -1.1930   -0.5454 C   0  0  0  0  0  0  0  0  0  0  0  0
   -2.7278    0.9909   -0.5661 C   0  0  0  0  0  0  0  0  0  0  0  0
    2.6223   -0.6813   -0.6644 C   0  0  0  0  0  0  0  0  0  0  0  0
    0.7868   -1.9806   -1.7868 C   0  0  0  0  0  0  0  0  0  0  0  0
  1  7  1  0
  1 15  1  0
  2 12  2  0
  3 14  1  0
  4 14  2  0
  5  7  2  0
  6  8  1  0
  6 11  1  0
  6 12  1  0
  8  9  1  0
  8 14  1  0
  9 10  1  0
 10 11  1  0
 12 13  1  0
 13 15  1  0
 13 16  1  0
M  END
>  <PUBCHEM_COMPOUND_CID>  (1) 
2546

>  <PUBCHEM_CONFORMER_RMSD>  (1) 
0.8

>  <PUBCHEM_CONFORMER_DIVERSEORDER>  (1) 
1
81
42
88
93
12
105
24
36
58
60
63
96
54
109
57
106
104
33
37
23
97
83
84
101
111
108
95
82
5
47
32
56
45
72
78
30
94
79
41
86
35
25
91
67
48
85
71
75
49
44
107
59
62
98
103
43
61
46
2
20
69
22
19
6
34
100
92
52
39
28
15
16
9
66
87
102
51
50
73
74
113
70
55
21
7
64
76
38
4
40
89
18
11
13
31
68
77
53
26
80
27
17
65
29
8
3
14
10
110
99
90
112

>  <PUBCHEM_MMFF94_PARTIAL_CHARGES>  (1) 
14
1 -0.04
11 0.3
12 0.57
13 0.06
14 0.66
15 0.23
2 -0.57
3 -0.65
30 0.5
4 -0.57
5 -0.16
6 -0.66
7 -0.03
8 0.36

>  <PUBCHEM_EFFECTIVE_ROTOR_COUNT>  (1) 
7

>  <PUBCHEM_PHARMACOPHORE_FEATURES>  (1) 
6
1 16 hydrophobe
1 2 acceptor
1 3 acceptor
1 4 acceptor
3 3 4 14 anion
5 6 8 9 10 11 rings

>  <PUBCHEM_HEAVY_ATOM_COUNT>  (1) 
16

>  <PUBCHEM_ATOM_DEF_STEREO_COUNT>  (1) 
0

>  <PUBCHEM_ATOM_UDEF_STEREO_COUNT>  (1) 
2

>  <PUBCHEM_BOND_DEF_STEREO_COUNT>  (1) 
0

>  <PUBCHEM_BOND_UDEF_STEREO_COUNT>  (1) 
0

>  <PUBCHEM_ISOTOPIC_ATOM_COUNT>  (1) 
0

>  <PUBCHEM_COMPONENT_COUNT>  (1) 
1

>  <PUBCHEM_CACTVS_TAUTO_COUNT>  (1) 
1

>  <PUBCHEM_CONFORMER_ID>  (1) 
000009F200000001

>  <PUBCHEM_MMFF94_ENERGY>  (1) 
31.4558

>  <PUBCHEM_FEATURE_SELFOVERLAP>  (1) 
30.503

>  <PUBCHEM_SHAPE_FINGERPRINT>  (1) 
12119455 92 18272360950341021094
12507560 40 18335141977649911226
13083527 12 17899143994360456431
13214271 11 18260541260440147276
13296908 3 18041574550244599478
13296909 8 17458341965744080334
13583140 156 18334565889401860394
14178342 30 17677061152437098299
15061688 2 18189606160157591621
15099037 37 18261962958465100635
15219456 202 18339088098853706534
15279308 16 18410576154167990404
15309172 13 18060139855840530046
15775835 57 16271935891259743834
16945 1 17751954408986627051
1813 80 14129343940786053346
18186145 218 17417822733789478934
19784866 240 14273741797412007523
20281475 54 13912324594985210434
204376 136 17989489649618595086
20645464 45 18335147466243374259
20715346 28 18339096890340564167
21499 59 17704071785434670558
23236772 104 16056883520227237187
23402539 116 18114453540035589175
23419403 2 17412447414699583787
23557571 272 18116739372574093887
23559900 14 17969233231215984222
27216 239 18341614853651437512
2748010 2 18045806514744624695
633830 44 16845029939296449092
7615 1 15936991724072449902
90316 7 16950562151662093724

>  <PUBCHEM_SHAPE_MULTIPOLES>  (1) 
299.68
7.44
1.82
1.57
9.21
0.27
-0.09
-3.88
-1.88
-0.28
0.44
-1.08
0.29
1.51

>  <PUBCHEM_SHAPE_SELFOVERLAP>  (1) 
589.851

>  <PUBCHEM_SHAPE_VOLUME>  (1) 
181.4

>  <PUBCHEM_COORDINATE_TYPE>  (1) 
2
5
10

$$$$
