25478
     RDKit          3D

 12 13  0  0  1  0  0  0  0  0999 V2000
    2.1452    1.3274   -0.3609 O   0  0  0  0  0  0  0  0  0  0  0  0
    1.7151   -1.8311    0.0280 O   0  0  0  0  0  0  0  0  0  0  0  0
   -1.2745   -0.0271   -0.0704 C   0  0  0  0  0  0  0  0  0  0  0  0
    0.1504   -0.0734   -0.6926 C   0  0  0  0  0  0  0  0  0  0  0  0
   -0.7179    0.3418    1.3360 C   0  0  0  0  0  0  0  0  0  0  0  0
    0.7275    1.3220   -0.3490 C   0  0  0  0  0  0  0  0  0  0  0  0
    0.1572    1.5965    1.0609 C   0  0  0  0  0  0  0  0  0  0  0  0
    0.2492   -0.8167    1.6770 C   0  0  0  0  0  0  0  0  0  0  0  0
    0.8313   -1.0318    0.2954 C   0  0  0  0  0  0  0  0  0  0  0  0
   -2.0512   -1.3579   -0.0986 C   0  0  0  0  0  0  0  0  0  0  0  0
   -2.2091    1.0355   -0.6852 C   0  0  0  0  0  0  0  0  0  0  0  0
    0.2769   -0.4852   -2.1407 C   0  0  0  0  0  0  0  0  0  0  0  0
  1  6  1  0
  2  9  2  0
  3  4  1  0
  3  5  1  0
  3 10  1  0
  3 11  1  0
  4  6  1  0
  4  9  1  0
  4 12  1  0
  5  7  1  0
  5  8  1  0
  6  7  1  0
  8  9  1  0
M  END
>  <PUBCHEM_COMPOUND_CID>  (1) 
25478

>  <PUBCHEM_CONFORMER_RMSD>  (1) 
0.4

>  <PUBCHEM_CONFORMER_DIVERSEORDER>  (1) 
1
2

>  <PUBCHEM_MMFF94_PARTIAL_CHARGES>  (1) 
7
1 -0.68
2 -0.57
28 0.4
4 0.06
6 0.28
8 0.06
9 0.45

>  <PUBCHEM_EFFECTIVE_ROTOR_COUNT>  (1) 
0.8

>  <PUBCHEM_PHARMACOPHORE_FEATURES>  (1) 
5
1 1 acceptor
1 1 donor
1 2 acceptor
3 3 10 11 hydrophobe
7 3 4 5 6 7 8 9 rings

>  <PUBCHEM_HEAVY_ATOM_COUNT>  (1) 
12

>  <PUBCHEM_ATOM_DEF_STEREO_COUNT>  (1) 
0

>  <PUBCHEM_ATOM_UDEF_STEREO_COUNT>  (1) 
3

>  <PUBCHEM_BOND_DEF_STEREO_COUNT>  (1) 
0

>  <PUBCHEM_BOND_UDEF_STEREO_COUNT>  (1) 
0

>  <PUBCHEM_ISOTOPIC_ATOM_COUNT>  (1) 
0

>  <PUBCHEM_COMPONENT_COUNT>  (1) 
1

>  <PUBCHEM_CACTVS_TAUTO_COUNT>  (1) 
2

>  <PUBCHEM_CONFORMER_ID>  (1) 
0000638600000001

>  <PUBCHEM_MMFF94_ENERGY>  (1) 
51.8006

>  <PUBCHEM_FEATURE_SELFOVERLAP>  (1) 
25.372

>  <PUBCHEM_SHAPE_FINGERPRINT>  (1) 
12423570 1 16552263231076011225
13024252 1 16027135193417886966
137420 1 17766042386463053984
15557651 10 17555167317886818057
16945 1 18195804291702166737
241688 4 16476307370222535511
369184 2 17912935168871343616
5084963 1 17982460595861637885
68250623 7 18410573989578306735

>  <PUBCHEM_SHAPE_MULTIPOLES>  (1) 
235.22
2.17
1.74
1.61
0.57
0.03
0.17
-0.03
0.36
-0.37
-0.11
-0.11
-0.19
-0.04

>  <PUBCHEM_SHAPE_SELFOVERLAP>  (1) 
502.814

>  <PUBCHEM_SHAPE_VOLUME>  (1) 
138.1

>  <PUBCHEM_COORDINATE_TYPE>  (1) 
2
5
10

$$$$
