25493
     RDKit          3D

 10 10  0  0  0  0  0  0  0  0999 V2000
    2.2200   -0.7122    1.4612 Cl  0  0  0  0  0  0  0  0  0  0  0  0
    2.2189   -0.7122   -1.4616 Cl  0  0  0  0  0  0  0  0  0  0  0  0
    2.0604    1.4196    0.0002 O   0  0  0  0  0  0  0  0  0  0  0  0
    0.0535    0.0338   -0.0002 C   0  0  0  0  0  0  0  0  0  0  0  0
    1.5443    0.0842    0.0000 C   0  0  0  0  0  0  0  0  0  0  0  0
   -0.6843    1.2175   -0.0002 C   0  0  0  0  0  0  0  0  0  0  0  0
   -0.6027   -1.1969    0.0001 C   0  0  0  0  0  0  0  0  0  0  0  0
   -2.0784    1.1705    0.0001 C   0  0  0  0  0  0  0  0  0  0  0  0
   -1.9968   -1.2441    0.0002 C   0  0  0  0  0  0  0  0  0  0  0  0
   -2.7346   -0.0603    0.0002 C   0  0  0  0  0  0  0  0  0  0  0  0
  1  5  1  0
  2  5  1  0
  3  5  1  0
  4  5  1  0
  4  6  2  0
  4  7  1  0
  6  8  1  0
  7  9  2  0
  8 10  2  0
  9 10  1  0
M  END
>  <PUBCHEM_COMPOUND_CID>  (1) 
25493

>  <PUBCHEM_CONFORMER_RMSD>  (1) 
0.4

>  <PUBCHEM_CONFORMER_DIVERSEORDER>  (1) 
1
2
3

>  <PUBCHEM_MMFF94_PARTIAL_CHARGES>  (1) 
16
1 -0.29
10 -0.15
11 0.15
12 0.15
13 0.15
14 0.15
15 0.15
16 0.4
2 -0.29
3 -0.68
4 -0.14
5 1
6 -0.15
7 -0.15
8 -0.15
9 -0.15

>  <PUBCHEM_EFFECTIVE_ROTOR_COUNT>  (1) 
1

>  <PUBCHEM_PHARMACOPHORE_FEATURES>  (1) 
3
1 3 acceptor
1 3 donor
6 4 6 7 8 9 10 rings

>  <PUBCHEM_HEAVY_ATOM_COUNT>  (1) 
10

>  <PUBCHEM_ATOM_DEF_STEREO_COUNT>  (1) 
0

>  <PUBCHEM_ATOM_UDEF_STEREO_COUNT>  (1) 
0

>  <PUBCHEM_BOND_DEF_STEREO_COUNT>  (1) 
0

>  <PUBCHEM_BOND_UDEF_STEREO_COUNT>  (1) 
0

>  <PUBCHEM_ISOTOPIC_ATOM_COUNT>  (1) 
0

>  <PUBCHEM_COMPONENT_COUNT>  (1) 
1

>  <PUBCHEM_CACTVS_TAUTO_COUNT>  (1) 
1

>  <PUBCHEM_CONFORMER_ID>  (1) 
0000639500000001

>  <PUBCHEM_MMFF94_ENERGY>  (1) 
20.8323

>  <PUBCHEM_FEATURE_SELFOVERLAP>  (1) 
15.223

>  <PUBCHEM_SHAPE_FINGERPRINT>  (1) 
10857977 72 18272643593216390507
12423570 1 17478631447185159930
12524768 44 18341898544878719437
12897270 3 18340778116628297820
12932764 1 18040157301162433621
15310529 11 16805612438502624261
15775835 57 18040720225230058588
16945 1 18338516331305792903
19973954 147 18343872116574079477
20201158 50 17916877819778383638
20645464 45 17988912345414965770
20645476 183 17603879913498175791
21040471 1 18194683670405108901
23552423 10 18114747151914579863
2748010 2 18411702123058099469
29004967 10 16845572019455269866
3248919 1 18060415811494114977
369184 2 18113890576759357353
5084963 1 17988932119460077635
8030462 33 17894352185062915415

>  <PUBCHEM_SHAPE_MULTIPOLES>  (1) 
203.67
3.93
1.46
1.09
0.21
0.15
0
-0.17
0
0.26
0
-1.07
-0.28
0

>  <PUBCHEM_SHAPE_SELFOVERLAP>  (1) 
401.984

>  <PUBCHEM_SHAPE_VOLUME>  (1) 
123.4

>  <PUBCHEM_COORDINATE_TYPE>  (1) 
2
5
10

$$$$
