25492
     RDKit          3D

 17 18  0  0  0  0  0  0  0  0999 V2000
    5.9576    1.3859    0.0056 O   0  0  0  0  0  0  0  0  0  0  0  0
    5.8185   -0.8912    0.0050 O   0  0  0  0  0  0  0  0  0  0  0  0
   -1.2686   -0.1235   -0.0002 C   0  0  0  0  0  0  0  0  0  0  0  0
   -2.7085    0.0171    0.0003 C   0  0  0  0  0  0  0  0  0  0  0  0
   -0.4643    0.9363   -0.4196 C   0  0  0  0  0  0  0  0  0  0  0  0
   -0.6844   -1.3190    0.4184 C   0  0  0  0  0  0  0  0  0  0  0  0
    1.5081   -0.3950   -0.0020 C   0  0  0  0  0  0  0  0  0  0  0  0
    0.9239    0.8005   -0.4206 C   0  0  0  0  0  0  0  0  0  0  0  0
    0.7039   -1.4546    0.4176 C   0  0  0  0  0  0  0  0  0  0  0  0
   -3.3621    0.5000    1.1340 C   0  0  0  0  0  0  0  0  0  0  0  0
   -3.4434   -0.3322   -1.1327 C   0  0  0  0  0  0  0  0  0  0  0  0
   -4.7506    0.6334    1.1346 C   0  0  0  0  0  0  0  0  0  0  0  0
   -4.8318   -0.1985   -1.1321 C   0  0  0  0  0  0  0  0  0  0  0  0
    2.9556   -0.5366   -0.0027 C   0  0  0  0  0  0  0  0  0  0  0  0
   -5.4855    0.2844    0.0015 C   0  0  0  0  0  0  0  0  0  0  0  0
    3.8405    0.4851   -0.0087 C   0  0  0  0  0  0  0  0  0  0  0  0
    5.2909    0.2080    0.0017 C   0  0  0  0  0  0  0  0  0  0  0  0
  1 17  1  0
  2 17  2  0
  3  4  1  0
  3  5  2  0
  3  6  1  0
  4 10  2  0
  4 11  1  0
  5  8  1  0
  6  9  2  0
  7  8  2  0
  7  9  1  0
  7 14  1  0
 10 12  1  0
 11 13  2  0
 12 15  2  0
 13 15  1  0
 14 16  2  0
 16 17  1  0
M  END
>  <PUBCHEM_COMPOUND_CID>  (1) 
25492

>  <PUBCHEM_CONFORMER_RMSD>  (1) 
0.6

>  <PUBCHEM_CONFORMER_DIVERSEORDER>  (1) 
1
2

>  <PUBCHEM_MMFF94_PARTIAL_CHARGES>  (1) 
27
1 -0.65
10 -0.15
11 -0.15
12 -0.15
13 -0.15
14 -0.18
15 -0.15
16 -0.14
17 0.71
18 0.15
19 0.15
2 -0.57
20 0.15
21 0.15
22 0.15
23 0.15
24 0.15
25 0.15
26 0.15
27 0.15
28 0.15
29 0.5
5 -0.15
6 -0.15
7 0.03
8 -0.15
9 -0.15

>  <PUBCHEM_EFFECTIVE_ROTOR_COUNT>  (1) 
3

>  <PUBCHEM_PHARMACOPHORE_FEATURES>  (1) 
5
1 1 acceptor
1 2 acceptor
3 1 2 17 anion
6 3 5 6 7 8 9 rings
6 4 10 11 12 13 15 rings

>  <PUBCHEM_HEAVY_ATOM_COUNT>  (1) 
17

>  <PUBCHEM_ATOM_DEF_STEREO_COUNT>  (1) 
0

>  <PUBCHEM_ATOM_UDEF_STEREO_COUNT>  (1) 
0

>  <PUBCHEM_BOND_DEF_STEREO_COUNT>  (1) 
0

>  <PUBCHEM_BOND_UDEF_STEREO_COUNT>  (1) 
1

>  <PUBCHEM_ISOTOPIC_ATOM_COUNT>  (1) 
0

>  <PUBCHEM_COMPONENT_COUNT>  (1) 
1

>  <PUBCHEM_CACTVS_TAUTO_COUNT>  (1) 
1

>  <PUBCHEM_CONFORMER_ID>  (1) 
0000639400000001

>  <PUBCHEM_MMFF94_ENERGY>  (1) 
52.8435

>  <PUBCHEM_FEATURE_SELFOVERLAP>  (1) 
25.427

>  <PUBCHEM_SHAPE_FINGERPRINT>  (1) 
10 15 17022902402388908484
10912923 1 18060416893720586610
11287383 113 15574720209342005812
11315181 36 17775002414355746601
11401426 45 18334011700664751407
12107183 9 16838840598922538890
12236239 1 18202563969125750231
12507557 5 17458068179191482805
13288520 33 16630804431151688957
13533116 47 18342175519568863770
13675066 3 17022623087347893226
13760787 19 16486972873530293991
13862211 1 18261387836954008002
1420 363 17676210152080652448
14251718 22 16917348147111638045
14528608 73 17775282802927400756
14573314 32 15410623561905155020
15048467 5 17847064371753536248
15788980 27 16805042925644145134
17834072 33 17489584584499989604
17834076 25 18202563977367570599
19489759 90 16415481545118198555
200 152 17989203754751102719
20279233 1 17022908926290951643
204376 136 18186804690234419323
20645477 70 17968367932027453306
21033648 29 17822837758317391500
22224240 67 18040721376977600699
23402539 116 17704351065466808437
23536379 177 17132117918350518046
23557571 272 15769783437728585681
23559900 14 15482661399130457690
26918003 58 16515407369495450033
300161 21 17846213332731841895
3004659 81 16558761062156527606
34797466 226 15913052074939591008
42788 4 18411138030332088940
4340502 62 15791730793577902712
5104073 3 18189332532544827000
542803 24 17989488524041601912
7495541 125 15647349566506104285

>  <PUBCHEM_SHAPE_MULTIPOLES>  (1) 
338.11
13.56
1.15
0.96
10.21
0.13
0
-2.58
0.07
0.7
-0.09
-1.27
-0.03
-0.48

>  <PUBCHEM_SHAPE_SELFOVERLAP>  (1) 
729.805

>  <PUBCHEM_SHAPE_VOLUME>  (1) 
186.4

>  <PUBCHEM_COORDINATE_TYPE>  (1) 
2
5
10

$$$$
