2550
     RDKit          3D

 14 14  0  0  1  0  0  0  0  0999 V2000
   -3.5177    0.2704    1.7951 S   0  0  0  0  0  0  0  0  0  0  0  0
   -0.9973    1.5569    0.2605 O   0  0  0  0  0  0  0  0  0  0  0  0
    2.8470    1.9536    0.3477 O   0  0  0  0  0  0  0  0  0  0  0  0
    2.1001    0.8050   -1.4555 O   0  0  0  0  0  0  0  0  0  0  0  0
    0.2163   -0.4094    0.1305 N   0  0  0  0  0  0  0  0  0  0  0  0
    1.4232    0.0971    0.7707 C   0  0  0  0  0  0  0  0  0  0  0  0
    2.2276   -1.1493    1.1216 C   0  0  0  0  0  0  0  0  0  0  0  0
    1.8084   -2.1549    0.0521 C   0  0  0  0  0  0  0  0  0  0  0  0
    0.3390   -1.8328   -0.1739 C   0  0  0  0  0  0  0  0  0  0  0  0
   -0.9313    0.3560   -0.0067 C   0  0  0  0  0  0  0  0  0  0  0  0
   -2.1414   -0.3756   -0.5302 C   0  0  0  0  0  0  0  0  0  0  0  0
    2.1320    0.9520   -0.2361 C   0  0  0  0  0  0  0  0  0  0  0  0
   -3.4287    0.2704   -0.0233 C   0  0  0  0  0  0  0  0  0  0  0  0
   -2.0774   -0.3395   -2.0526 C   0  0  0  0  0  0  0  0  0  0  0  0
  1 13  1  0
  2 10  2  0
  3 12  1  0
  4 12  2  0
  5  6  1  0
  5  9  1  0
  5 10  1  0
  6  7  1  0
  6 12  1  0
  7  8  1  0
  8  9  1  0
 10 11  1  0
 11 13  1  0
 11 14  1  0
M  END
>  <PUBCHEM_COMPOUND_CID>  (1) 
2550

>  <PUBCHEM_CONFORMER_RMSD>  (1) 
0.6

>  <PUBCHEM_CONFORMER_DIVERSEORDER>  (1) 
5
23
95
99
18
73
7
67
57
6
51
84
105
76
33
38
74
106
94
45
52
14
85
15
61
77
86
27
26
17
10
58
54
32
102
12
13
90
70
96
19
79
41
103
22
49
82
59
29
92
75
66
104
8
2
46
63
89
88
80
62
93
21
40
48
69
81
34
60
4
87
56
42
55
39
30
25
100
72
91
64
9
11
53
50
101
78
71
44
36
65
28
68
16
98
24
43
97
1
3
31
83
35
47
20
37

>  <PUBCHEM_MMFF94_PARTIAL_CHARGES>  (1) 
13
1 -0.41
10 0.57
11 0.06
12 0.66
13 0.23
2 -0.57
28 0.5
29 0.18
3 -0.65
4 -0.57
5 -0.66
6 0.36
9 0.3

>  <PUBCHEM_EFFECTIVE_ROTOR_COUNT>  (1) 
5

>  <PUBCHEM_PHARMACOPHORE_FEATURES>  (1) 
6
1 14 hydrophobe
1 2 acceptor
1 3 acceptor
1 4 acceptor
3 3 4 12 anion
5 5 6 7 8 9 rings

>  <PUBCHEM_HEAVY_ATOM_COUNT>  (1) 
14

>  <PUBCHEM_ATOM_DEF_STEREO_COUNT>  (1) 
0

>  <PUBCHEM_ATOM_UDEF_STEREO_COUNT>  (1) 
2

>  <PUBCHEM_BOND_DEF_STEREO_COUNT>  (1) 
0

>  <PUBCHEM_BOND_UDEF_STEREO_COUNT>  (1) 
0

>  <PUBCHEM_ISOTOPIC_ATOM_COUNT>  (1) 
0

>  <PUBCHEM_COMPONENT_COUNT>  (1) 
1

>  <PUBCHEM_CACTVS_TAUTO_COUNT>  (1) 
1

>  <PUBCHEM_CONFORMER_ID>  (1) 
000009F600000005

>  <PUBCHEM_MMFF94_ENERGY>  (1) 
30.1209

>  <PUBCHEM_FEATURE_SELFOVERLAP>  (1) 
30.507

>  <PUBCHEM_SHAPE_FINGERPRINT>  (1) 
107287 299 18114196249323350883
12326174 3 17895744102665236258
12696612 119 18267583503002810594
12932764 1 18131346401976977785
13296908 3 17313393305421441379
14817 1 10946181718482190878
15219456 202 17748826306589070995
15775835 57 18202279221067604865
16945 1 18338219471672195786
17357990 137 17632304427890322883
18186145 218 18342744065104977476
18380122 1 17385445453198192631
19422 9 17989490718949452727
20511035 2 17480863022135004977
20559304 39 18270400486179174576
20645477 70 18262228933532554879
20653091 64 17896324614744984786
20715346 28 17385714781870370095
21041028 32 18123759655781044280
21061003 4 17972319516798699923
21524375 3 17825103968220588476
21730867 7 17749396961508177387
23402539 116 18059006306723917068
23526113 38 13470144985278086621
23552423 10 18339911611419301807
23557571 272 16370724833772875525
2748010 2 17968648320292457469
276578 36 18340499935960061890
53748568 43 18131630114547013479
6049 1 17458909228139923183
7364860 26 18342174436698664530
77492 1 17917704695725104379
81228 2 17251745058378069650
88987 49 16343410752830340783

>  <PUBCHEM_SHAPE_MULTIPOLES>  (1) 
269.37
5.23
1.79
1.51
2.93
0.2
-0.26
-0.93
1.24
-1.69
0.06
1.04
0.06
-0.65

>  <PUBCHEM_SHAPE_SELFOVERLAP>  (1) 
531.033

>  <PUBCHEM_SHAPE_VOLUME>  (1) 
163.9

>  <PUBCHEM_COORDINATE_TYPE>  (1) 
2
5
10

$$$$
