25529
     RDKit          3D

 21 23  0  0  0  0  0  0  0  0999 V2000
    5.0798    0.9685   -0.0001 Cl  0  0  0  0  0  0  0  0  0  0  0  0
   -0.5210   -2.7068   -0.0009 O   0  0  0  0  0  0  0  0  0  0  0  0
    0.0123    2.6096   -0.0008 O   0  0  0  0  0  0  0  0  0  0  0  0
    2.5340    2.4571    0.0023 O   0  0  0  0  0  0  0  0  0  0  0  0
   -3.0675   -2.5481    0.0019 O   0  0  0  0  0  0  0  0  0  0  0  0
    2.0373   -3.0904   -0.0003 N   0  0  0  0  0  0  0  0  0  0  0  0
   -2.5430    2.9928   -0.0008 N   0  0  0  0  0  0  0  0  0  0  0  0
    0.9479   -0.8658   -0.0006 C   0  0  0  0  0  0  0  0  0  0  0  0
   -1.4525    0.7682   -0.0005 C   0  0  0  0  0  0  0  0  0  0  0  0
    1.0819    0.5242   -0.0003 C   0  0  0  0  0  0  0  0  0  0  0  0
   -1.5864   -0.6217   -0.0002 C   0  0  0  0  0  0  0  0  0  0  0  0
   -0.3910   -1.4896   -0.0009 C   0  0  0  0  0  0  0  0  0  0  0  0
   -0.1135    1.3920   -0.0009 C   0  0  0  0  0  0  0  0  0  0  0  0
    2.0890   -1.6771   -0.0003 C   0  0  0  0  0  0  0  0  0  0  0  0
   -2.5935    1.5797   -0.0003 C   0  0  0  0  0  0  0  0  0  0  0  0
    2.3566    1.1029    0.0004 C   0  0  0  0  0  0  0  0  0  0  0  0
   -2.8613   -1.2004    0.0003 C   0  0  0  0  0  0  0  0  0  0  0  0
    3.3575   -1.0963    0.0002 C   0  0  0  0  0  0  0  0  0  0  0  0
    3.4910    0.2907    0.0007 C   0  0  0  0  0  0  0  0  0  0  0  0
   -3.8621    0.9989    0.0004 C   0  0  0  0  0  0  0  0  0  0  0  0
   -3.9957   -0.3881    0.0008 C   0  0  0  0  0  0  0  0  0  0  0  0
  1 19  1  0
  2 12  2  0
  3 13  2  0
  4 16  1  0
  5 17  1  0
  6 14  1  0
  7 15  1  0
  8 10  2  0
  8 12  1  0
  8 14  1  0
  9 11  2  0
  9 13  1  0
  9 15  1  0
 10 13  1  0
 10 16  1  0
 11 12  1  0
 11 17  1  0
 14 18  2  0
 15 20  2  0
 16 19  2  0
 17 21  2  0
 18 19  1  0
 20 21  1  0
M  END
>  <PUBCHEM_COMPOUND_CID>  (1) 
25529

>  <PUBCHEM_CONFORMER_RMSD>  (1) 
0.6

>  <PUBCHEM_CONFORMER_DIVERSEORDER>  (1) 
1

>  <PUBCHEM_MMFF94_PARTIAL_CHARGES>  (1) 
30
1 -0.18
10 0.09
11 0.09
12 0.4
13 0.4
14 0.1
15 0.1
16 0.08
17 0.08
18 -0.15
19 0.18
2 -0.57
20 -0.15
21 -0.15
22 0.15
23 0.15
24 0.15
25 0.4
26 0.4
27 0.4
28 0.4
29 0.45
3 -0.57
30 0.45
4 -0.53
5 -0.53
6 -0.9
7 -0.9
8 0.09
9 0.09

>  <PUBCHEM_EFFECTIVE_ROTOR_COUNT>  (1) 
0

>  <PUBCHEM_PHARMACOPHORE_FEATURES>  (1) 
11
1 2 acceptor
1 3 acceptor
1 4 donor
1 5 donor
1 6 cation
1 6 donor
1 7 cation
1 7 donor
6 8 10 14 16 18 19 rings
6 8 9 10 11 12 13 rings
6 9 11 15 17 20 21 rings

>  <PUBCHEM_HEAVY_ATOM_COUNT>  (1) 
21

>  <PUBCHEM_ATOM_DEF_STEREO_COUNT>  (1) 
0

>  <PUBCHEM_ATOM_UDEF_STEREO_COUNT>  (1) 
0

>  <PUBCHEM_BOND_DEF_STEREO_COUNT>  (1) 
0

>  <PUBCHEM_BOND_UDEF_STEREO_COUNT>  (1) 
0

>  <PUBCHEM_ISOTOPIC_ATOM_COUNT>  (1) 
0

>  <PUBCHEM_COMPONENT_COUNT>  (1) 
1

>  <PUBCHEM_CACTVS_TAUTO_COUNT>  (1) 
169

>  <PUBCHEM_CONFORMER_ID>  (1) 
000063B900000001

>  <PUBCHEM_MMFF94_ENERGY>  (1) 
93.8099

>  <PUBCHEM_FEATURE_SELFOVERLAP>  (1) 
55.863

>  <PUBCHEM_SHAPE_FINGERPRINT>  (1) 
10411042 1 17473826607590793954
10608611 8 18410854330631033645
10616163 171 18411420643533402239
10863032 1 18340205193739709378
10967382 1 18338517426211210535
11132069 177 18410570690922143225
11578080 2 17024858269817112022
12553582 1 18339075020683500035
12839892 36 18337934737290074666
13140716 1 17978234081843884259
138480 1 17906453225708558886
14178342 30 18338503171636852664
14223421 5 18410576188617451519
14790565 3 18265340680367716900
15196674 1 18410856525295894950
15442244 35 18194399983383298738
15536298 74 18342458102013796094
16945 1 18338234989193500071
17492 89 18410010996866143051
19591789 44 18050569839296253994
200 152 18131626811922904029
20510252 161 18343585126848818153
20905425 154 18341615880043158606
21267235 1 18338525238793996015
21421861 104 17969779666597756890
21501502 16 18338515231477680034
221490 88 18409739447595166026
2334 1 18410855456002045027
23366157 5 18041847186606064786
23402539 116 18342169020380907726
23463225 33 18409448059474811245
23559900 14 18126562324269818702
238 59 16816259911743766973
2748010 2 18410856529680559159
335352 9 17834113044001381343
34934 24 18410568474919634335
350125 39 18410296917022657025
4409770 3 16166926733039538854
5104073 3 18410012091818040362
58051976 378 18412543214845709532
7364860 26 18341050705740029750
7832392 63 18339360738866171106
9709674 26 18412267207288890310

>  <PUBCHEM_SHAPE_MULTIPOLES>  (1) 
400.6
7.46
3.19
0.59
2.34
0.38
0
-1.26
0
-0.43
0
0.02
0
0

>  <PUBCHEM_SHAPE_SELFOVERLAP>  (1) 
902.798

>  <PUBCHEM_SHAPE_VOLUME>  (1) 
210.6

>  <PUBCHEM_COORDINATE_TYPE>  (1) 
2
5
10

$$$$
