25532
     RDKit          3D

 40 43  0  0  0  0  0  0  0  0999 V2000
   -6.4647   -0.7527   -0.2244 S   0  0  0  0  0  0  0  0  0  0  0  0
    6.0573    4.1549   -0.6786 S   0  0  0  0  0  0  0  0  0  0  0  0
   -5.1078    0.1477   -0.0541 O   0  0  0  0  0  0  0  0  0  0  0  0
   -6.4853   -1.7720    0.8152 O   0  0  0  0  0  0  0  0  0  0  0  0
   -6.5800   -1.1156   -1.6311 O   0  0  0  0  0  0  0  0  0  0  0  0
    5.0091    4.8772    0.3475 O   0  0  0  0  0  0  0  0  0  0  0  0
    7.3978    4.5014   -0.2292 O   0  0  0  0  0  0  0  0  0  0  0  0
    5.6321    4.4477   -2.0385 O   0  0  0  0  0  0  0  0  0  0  0  0
    8.0293    0.4021    2.3627 O   0  0  0  0  0  0  0  0  0  0  0  0
    7.0358   -1.4948    1.8792 O   0  0  0  0  0  0  0  0  0  0  0  0
    5.2700   -1.6849    0.1376 N   0  0  0  0  0  0  0  0  0  0  0  0
    7.1981   -0.2647    1.7031 N   0  0  0  0  0  0  0  0  0  0  0  0
    0.0111   -1.8449   -0.8553 N   0  0  0  0  0  0  0  0  0  0  0  0
    0.4616   -2.3064    0.2188 N   0  0  0  0  0  0  0  0  0  0  0  0
    5.4708   -0.3024   -0.0405 C   0  0  0  0  0  0  0  0  0  0  0  0
    6.4107    0.3982    0.7201 C   0  0  0  0  0  0  0  0  0  0  0  0
    5.8322    2.4411   -0.4327 C   0  0  0  0  0  0  0  0  0  0  0  0
   -7.7719    0.3462    0.1387 C   0  0  0  0  0  0  0  0  0  0  0  0
    4.1415   -2.5152   -0.0267 C   0  0  0  0  0  0  0  0  0  0  0  0
    6.5909    1.7675    0.5244 C   0  0  0  0  0  0  0  0  0  0  0  0
    4.7126    0.3760   -0.9983 C   0  0  0  0  0  0  0  0  0  0  0  0
    4.8929    1.7453   -1.1941 C   0  0  0  0  0  0  0  0  0  0  0  0
   -1.4592    0.0040   -0.2833 C   0  0  0  0  0  0  0  0  0  0  0  0
   -3.8392   -0.3409   -0.2516 C   0  0  0  0  0  0  0  0  0  0  0  0
   -1.2746   -1.3290   -0.6503 C   0  0  0  0  0  0  0  0  0  0  0  0
   -2.7473    0.5003   -0.0830 C   0  0  0  0  0  0  0  0  0  0  0  0
   -8.3554    1.0977   -0.8812 C   0  0  0  0  0  0  0  0  0  0  0  0
   -8.2330    0.4723    1.4491 C   0  0  0  0  0  0  0  0  0  0  0  0
    2.8611   -2.0006    0.1769 C   0  0  0  0  0  0  0  0  0  0  0  0
   -9.8610    2.1015    0.7195 C   0  0  0  0  0  0  0  0  0  0  0  0
   -3.6662   -1.6693   -0.6169 C   0  0  0  0  0  0  0  0  0  0  0  0
    1.7518   -2.8245    0.0135 C   0  0  0  0  0  0  0  0  0  0  0  0
    4.3062   -3.8511   -0.3926 C   0  0  0  0  0  0  0  0  0  0  0  0
   -2.3781   -2.1657   -0.8171 C   0  0  0  0  0  0  0  0  0  0  0  0
   -9.4000    1.9755   -0.5908 C   0  0  0  0  0  0  0  0  0  0  0  0
   -9.2776    1.3499    1.7395 C   0  0  0  0  0  0  0  0  0  0  0  0
   -0.2934    0.9199   -0.0991 C   0  0  0  0  0  0  0  0  0  0  0  0
    1.9102   -4.1579   -0.3515 C   0  0  0  0  0  0  0  0  0  0  0  0
    3.1905   -4.6725   -0.5550 C   0  0  0  0  0  0  0  0  0  0  0  0
  -10.9787    3.0388    1.0299 C   0  0  0  0  0  0  0  0  0  0  0  0
  1  3  1  0
  1  4  2  0
  1  5  2  0
  1 18  1  0
  2  6  1  0
  2  7  2  0
  2  8  2  0
  2 17  1  0
  3 24  1  0
  9 12  1  0
 10 12  2  0
 11 15  1  0
 11 19  1  0
 12 16  1  0
 13 14  2  0
 13 25  1  0
 14 32  1  0
 15 16  2  0
 15 21  1  0
 16 20  1  0
 17 20  2  0
 17 22  1  0
 18 27  2  0
 18 28  1  0
 19 29  2  0
 19 33  1  0
 21 22  2  0
 23 25  2  0
 23 26  1  0
 23 37  1  0
 24 26  2  0
 24 31  1  0
 25 34  1  0
 27 35  1  0
 28 36  2  0
 29 32  1  0
 30 35  2  0
 30 36  1  0
 30 40  1  0
 31 34  2  0
 32 38  2  0
 33 39  2  0
 38 39  1  0
M  CHG  2   9  -1  12   1
M  END
>  <PUBCHEM_COMPOUND_CID>  (1) 
25532

>  <PUBCHEM_CONFORMER_RMSD>  (1) 
1.2

>  <PUBCHEM_CONFORMER_DIVERSEORDER>  (1) 
1
162
59
525
381
152
100
251
432
312
487
196
485
206
39
265
125
56
270
217
189
65
69
458
191
313
133
5
50
271
318
502
171
104
269
373
41
155
511
396
194
123
68
243
84
256
180
111
351
459
97
14
523
82
147
10
11
167
127
236
105
114
435
403
132
305
213
78
280
26
121
316
199
175
51
24
71
384
376
138
245
492
58
44
49
290
372
257
122
315
413
140
234
176
70
83
237
29
143
205
156
13
165
207
503
118
519
169
438
21
60
244
8
186
120
278
282
91
79
48
27
6
284
154
233
131
66
18
159
31
12
222
19
141
62
17
247
486
223
40
106
126
137
460
112
75
139
35
472
440
16
311
291
43
30
235
33
15
338
47
28
67
259
55
34
20
3
57
4
23
46

>  <PUBCHEM_MMFF94_PARTIAL_CHARGES>  (1) 
56
1 1.49
10 -0.52
11 -0.6
12 0.91
13 -0.18
14 -0.18
15 0.1
16 0.13
17 -0.01
18 -0.01
19 0.1
2 1.49
20 -0.15
21 -0.15
22 -0.15
23 -0.14
24 0.08
25 0.18
26 -0.15
27 -0.15
28 -0.15
29 -0.15
3 -0.27
30 -0.14
31 -0.15
32 0.18
33 -0.15
34 -0.15
35 -0.15
36 -0.15
37 0.14
38 -0.15
39 -0.15
4 -0.65
40 0.14
41 0.4
42 0.15
43 0.15
44 0.15
45 0.15
46 0.15
47 0.15
48 0.15
49 0.15
5 -0.65
50 0.15
51 0.15
52 0.15
53 0.15
57 0.15
58 0.15
6 -0.68
62 0.5
7 -0.65
8 -0.65
9 -0.52

>  <PUBCHEM_EFFECTIVE_ROTOR_COUNT>  (1) 
9

>  <PUBCHEM_PHARMACOPHORE_FEATURES>  (1) 
15
1 10 acceptor
1 11 cation
1 11 donor
1 4 acceptor
1 5 acceptor
1 6 acceptor
1 7 acceptor
1 8 acceptor
1 9 acceptor
1 9 anion
4 2 6 7 8 anion
6 15 16 17 20 21 22 rings
6 18 27 28 30 35 36 rings
6 19 29 32 33 38 39 rings
6 23 24 25 26 31 34 rings

>  <PUBCHEM_HEAVY_ATOM_COUNT>  (1) 
40

>  <PUBCHEM_ATOM_DEF_STEREO_COUNT>  (1) 
0

>  <PUBCHEM_ATOM_UDEF_STEREO_COUNT>  (1) 
0

>  <PUBCHEM_BOND_DEF_STEREO_COUNT>  (1) 
0

>  <PUBCHEM_BOND_UDEF_STEREO_COUNT>  (1) 
0

>  <PUBCHEM_ISOTOPIC_ATOM_COUNT>  (1) 
0

>  <PUBCHEM_COMPONENT_COUNT>  (1) 
1

>  <PUBCHEM_CACTVS_TAUTO_COUNT>  (1) 
1

>  <PUBCHEM_CONFORMER_ID>  (1) 
000063BC00000001

>  <PUBCHEM_MMFF94_ENERGY>  (1) 
121.865

>  <PUBCHEM_FEATURE_SELFOVERLAP>  (1) 
76.28

>  <PUBCHEM_SHAPE_FINGERPRINT>  (1) 
10066227 49 9295285028867510597
10673678 19 18411423942516990254
11135609 187 18339363096898363752
11181472 205 18200604588287939257
11374522 174 18043827587447048324
11578821 258 18340770343835712105
11828042 163 18339651135941370628
11966995 178 18340497681128787542
12539765 74 18131075905269726583
13165053 371 18336831896873220893
13553643 46 18335135359317077797
13944108 23 18341615949680747244
14040221 304 11887666339295384568
14394314 77 18264771132663949893
14537116 161 17203611484445933864
14675020 138 16588308258903481803
15152005 1 9006244321010449976
15419008 91 17749384824953875717
15461852 350 16200135575587254959
15554971 5 18410569630808987349
15840311 113 18338522941508804111
16728433 110 18337112277682374605
1754908 1 16805329886201201259
19302320 297 18334290973119869616
19315958 150 18411141303831015283
2026 5 9007063457362345617
21792934 111 18335981948393157951
21895431 317 8574714589809282833
22002106 203 9367083116676710092
23522609 53 17846230929825056571
3711267 37 18131077000691530473
3918712 181 18270400611208655352
406291 66 8358268029257471533
444735 82 18410858729057418061
44575985 358 18261122880237175148
4625314 4 18412547591703143191
49967989 163 15840683298400766039
5109719 28 18334014986288345970
56611832 84 17894638040896700252

>  <PUBCHEM_SHAPE_MULTIPOLES>  (1) 
764
35.19
5.88
1.37
71.54
2.33
-0.39
34.32
-11.01
-14.22
1.49
-0.74
0.51
-3.19

>  <PUBCHEM_SHAPE_SELFOVERLAP>  (1) 
1640.458

>  <PUBCHEM_SHAPE_VOLUME>  (1) 
421.6

>  <PUBCHEM_COORDINATE_TYPE>  (1) 
2
5
10

$$$$
