2554
     RDKit          3D

 18 20  0  0  0  0  0  0  0  0999 V2000
    1.0649    2.9296   -0.7569 O   0  0  0  0  0  0  0  0  0  0  0  0
   -0.0003    0.8924   -0.2539 N   0  0  0  0  0  0  0  0  0  0  0  0
   -1.1919    2.8293   -0.9143 N   0  0  0  0  0  0  0  0  0  0  0  0
    1.2150    0.1984    0.0798 C   0  0  0  0  0  0  0  0  0  0  0  0
   -1.2113    0.1925    0.0767 C   0  0  0  0  0  0  0  0  0  0  0  0
    1.5118   -1.0876   -0.4121 C   0  0  0  0  0  0  0  0  0  0  0  0
   -1.5090   -1.0920   -0.4135 C   0  0  0  0  0  0  0  0  0  0  0  0
    0.6693   -1.8018   -1.3758 C   0  0  0  0  0  0  0  0  0  0  0  0
   -0.6674   -1.8031   -1.3783 C   0  0  0  0  0  0  0  0  0  0  0  0
    2.1492    0.8267    0.9279 C   0  0  0  0  0  0  0  0  0  0  0  0
   -2.1272    0.8106    0.9530 C   0  0  0  0  0  0  0  0  0  0  0  0
    2.7308   -1.6980   -0.0624 C   0  0  0  0  0  0  0  0  0  0  0  0
   -2.7213   -1.7062   -0.0493 C   0  0  0  0  0  0  0  0  0  0  0  0
    0.0361    2.2626   -0.6127 C   0  0  0  0  0  0  0  0  0  0  0  0
    3.3466    0.2018    1.2779 C   0  0  0  0  0  0  0  0  0  0  0  0
   -3.3173    0.1821    1.3183 C   0  0  0  0  0  0  0  0  0  0  0  0
    3.6384   -1.0609    0.7815 C   0  0  0  0  0  0  0  0  0  0  0  0
   -3.6162   -1.0763    0.8140 C   0  0  0  0  0  0  0  0  0  0  0  0
  1 14  2  0
  2  4  1  0
  2  5  1  0
  2 14  1  0
  3 14  1  0
  4  6  2  0
  4 10  1  0
  5  7  2  0
  5 11  1  0
  6  8  1  0
  6 12  1  0
  7  9  1  0
  7 13  1  0
  8  9  2  0
 10 15  2  0
 11 16  2  0
 12 17  2  0
 13 18  2  0
 15 17  1  0
 16 18  1  0
M  END
>  <PUBCHEM_COMPOUND_CID>  (1) 
2554

>  <PUBCHEM_CONFORMER_RMSD>  (1) 
0.6

>  <PUBCHEM_CONFORMER_DIVERSEORDER>  (1) 
1
2

>  <PUBCHEM_MMFF94_PARTIAL_CHARGES>  (1) 
30
1 -0.57
10 -0.15
11 -0.15
12 -0.15
13 -0.15
14 0.69
15 -0.15
16 -0.15
17 -0.15
18 -0.15
19 0.15
2 -0.29
20 0.15
21 0.15
22 0.15
23 0.15
24 0.15
25 0.15
26 0.15
27 0.15
28 0.15
29 0.37
3 -0.8
30 0.37
4 0.12
5 0.12
6 0.03
7 0.03
8 -0.18
9 -0.18

>  <PUBCHEM_EFFECTIVE_ROTOR_COUNT>  (1) 
1.2

>  <PUBCHEM_PHARMACOPHORE_FEATURES>  (1) 
5
1 1 acceptor
1 3 donor
6 4 6 10 12 15 17 rings
6 5 7 11 13 16 18 rings
7 2 4 5 6 7 8 9 rings

>  <PUBCHEM_HEAVY_ATOM_COUNT>  (1) 
18

>  <PUBCHEM_ATOM_DEF_STEREO_COUNT>  (1) 
0

>  <PUBCHEM_ATOM_UDEF_STEREO_COUNT>  (1) 
0

>  <PUBCHEM_BOND_DEF_STEREO_COUNT>  (1) 
0

>  <PUBCHEM_BOND_UDEF_STEREO_COUNT>  (1) 
0

>  <PUBCHEM_ISOTOPIC_ATOM_COUNT>  (1) 
0

>  <PUBCHEM_COMPONENT_COUNT>  (1) 
1

>  <PUBCHEM_CACTVS_TAUTO_COUNT>  (1) 
2

>  <PUBCHEM_CONFORMER_ID>  (1) 
000009FA00000001

>  <PUBCHEM_MMFF94_ENERGY>  (1) 
96.3002

>  <PUBCHEM_FEATURE_SELFOVERLAP>  (1) 
25.393

>  <PUBCHEM_SHAPE_FINGERPRINT>  (1) 
11086676 242 18409450288900428674
11132069 177 18201433658071574178
11578080 2 16443334399432483244
12035758 1 18191305979676033833
12251169 10 18201718457352998042
12382932 28 18131071515216335867
12403814 3 18340471327478334930
12553582 1 18334583455264440010
12644460 14 18046375142739282977
12696612 119 18340495555088398415
12716301 132 17976529516835310858
13140716 1 18198623237647293858
13172582 1 18341896298584527703
14178342 30 18271823289165783299
14817 1 12417244829310282045
15852999 172 17543054689599355876
15881359 60 18199447914386091167
16945 1 18337390547136408999
17804303 29 18059588935763723566
19930374 2 18268142063663107743
20361792 2 17968095339058304675
20559304 39 18196384816841091969
20871998 184 18339635629716227820
21421861 104 17687207669615332115
22149856 69 17199990785173847683
22959321 45 18341894125637063530
23184049 59 18272088296741956667
2334 1 18342737437790994294
23388829 49 17984127438341021871
23419403 2 15834168738216889839
23463225 33 18412547651536402555
2748010 2 18126287432691521974
5845 1 8640062714569841637
6786 2 15657726418252651894
6992083 37 18271236235328349871
81228 2 17973740085932445737
90316 7 18262237703248923545

>  <PUBCHEM_SHAPE_MULTIPOLES>  (1) 
354.6
5.41
2.71
1.3
0.13
1.58
0.01
-1.83
3.06
-0.03
-1.33
-0.05
0.03
0.06

>  <PUBCHEM_SHAPE_SELFOVERLAP>  (1) 
786.5

>  <PUBCHEM_SHAPE_VOLUME>  (1) 
186.8

>  <PUBCHEM_COORDINATE_TYPE>  (1) 
2
5
10

$$$$
