25552
     RDKit          3D

 17 19  0  0  1  0  0  0  0  0999 V2000
   -0.0321    2.8150    0.7279 Cl  0  0  0  0  0  0  0  0  0  0  0  0
   -2.0211   -1.8125   -1.5394 Cl  0  0  0  0  0  0  0  0  0  0  0  0
   -2.9676    1.0987    0.0787 Cl  0  0  0  0  0  0  0  0  0  0  0  0
   -1.3425    1.5337   -2.2583 Cl  0  0  0  0  0  0  0  0  0  0  0  0
   -0.0624    0.4440    3.0364 Cl  0  0  0  0  0  0  0  0  0  0  0  0
   -1.2830   -2.4289    1.6300 Cl  0  0  0  0  0  0  0  0  0  0  0  0
    3.4803    0.8809   -0.4746 O   0  0  0  0  0  0  0  0  0  0  0  0
    1.0775    0.6270   -0.5849 C   0  0  0  0  0  0  0  0  0  0  0  0
    0.5101   -0.7018   -1.2096 C   0  0  0  0  0  0  0  0  0  0  0  0
   -0.1382    1.1260    0.2749 C   0  0  0  0  0  0  0  0  0  0  0  0
   -0.9487   -0.7562   -0.6438 C   0  0  0  0  0  0  0  0  0  0  0  0
   -1.3506    0.7551   -0.6430 C   0  0  0  0  0  0  0  0  0  0  0  0
    2.3725    0.2445    0.1511 C   0  0  0  0  0  0  0  0  0  0  0  0
   -0.3842    0.1391    1.4020 C   0  0  0  0  0  0  0  0  0  0  0  0
   -0.8688   -0.9820    0.8544 C   0  0  0  0  0  0  0  0  0  0  0  0
    1.4790   -1.7478   -0.7624 C   0  0  0  0  0  0  0  0  0  0  0  0
    2.4796   -1.2349   -0.0393 C   0  0  0  0  0  0  0  0  0  0  0  0
  1 10  1  0
  2 11  1  0
  3 12  1  0
  4 12  1  0
  5 14  1  0
  6 15  1  0
  7 13  1  0
  8  9  1  0
  8 10  1  0
  8 13  1  0
  9 11  1  0
  9 16  1  0
 10 12  1  0
 10 14  1  0
 11 12  1  0
 11 15  1  0
 13 17  1  0
 14 15  2  0
 16 17  2  0
M  END
>  <PUBCHEM_COMPOUND_CID>  (1) 
25552

>  <PUBCHEM_CONFORMER_RMSD>  (1) 
0.4

>  <PUBCHEM_CONFORMER_DIVERSEORDER>  (1) 
2
8
12
4
11
3
5
6
10
1
7
14
13
9

>  <PUBCHEM_MMFF94_PARTIAL_CHARGES>  (1) 
17
1 -0.29
10 0.43
11 0.43
12 0.58
13 0.42
16 -0.29
17 -0.29
2 -0.29
21 0.15
22 0.15
23 0.4
3 -0.29
4 -0.29
5 -0.14
6 -0.14
7 -0.68
9 0.14

>  <PUBCHEM_EFFECTIVE_ROTOR_COUNT>  (1) 
0.4

>  <PUBCHEM_PHARMACOPHORE_FEATURES>  (1) 
4
1 7 acceptor
1 7 donor
5 8 9 13 16 17 rings
7 8 9 10 11 12 14 15 rings

>  <PUBCHEM_HEAVY_ATOM_COUNT>  (1) 
17

>  <PUBCHEM_ATOM_DEF_STEREO_COUNT>  (1) 
0

>  <PUBCHEM_ATOM_UDEF_STEREO_COUNT>  (1) 
5

>  <PUBCHEM_BOND_DEF_STEREO_COUNT>  (1) 
0

>  <PUBCHEM_BOND_UDEF_STEREO_COUNT>  (1) 
0

>  <PUBCHEM_ISOTOPIC_ATOM_COUNT>  (1) 
0

>  <PUBCHEM_COMPONENT_COUNT>  (1) 
1

>  <PUBCHEM_CACTVS_TAUTO_COUNT>  (1) 
1

>  <PUBCHEM_CONFORMER_ID>  (1) 
000063D000000002

>  <PUBCHEM_MMFF94_ENERGY>  (1) 
74.3777

>  <PUBCHEM_FEATURE_SELFOVERLAP>  (1) 
20.47

>  <PUBCHEM_SHAPE_FINGERPRINT>  (1) 
10863032 1 18411138021805535863
10948715 1 18335422322469909285
11129358 1 12512731237956546987
12423570 1 17484797113140562221
12491281 212 18201442437100648161
13024252 1 16443354173477509980
141345 1 11485946050906457059
14142880 1 18058746787504038056
144361 1 17979615055479014239
14817 1 10967145135915305202
15557651 10 18261660481478049277
16945 1 17984966116694452686
22344851 12 8709744723710107117
22344851 262 18335428988264323804
22344851 341 17972021562111121535
23419403 2 17199346560140090443
2748010 2 18127686235174098308
369184 2 17967817115551146182
5084963 1 17390529409986120789
528886 8 18130774629918020557
68419 9 17245786474049090327

>  <PUBCHEM_SHAPE_MULTIPOLES>  (1) 
355.2
3.26
2.49
2.24
1.5
0
1.18
0.15
-1.06
-0.67
0.23
-0.72
-0.01
0.28

>  <PUBCHEM_SHAPE_SELFOVERLAP>  (1) 
731.332

>  <PUBCHEM_SHAPE_VOLUME>  (1) 
207.6

>  <PUBCHEM_COORDINATE_TYPE>  (1) 
2
5
10

$$$$
