25551
     RDKit          3D

 13 14  0  0  0  0  0  0  0  0999 V2000
    3.2364   -1.4942   -0.0002 O   0  0  0  0  0  0  0  0  0  0  0  0
    3.7580    0.6382   -0.0003 O   0  0  0  0  0  0  0  0  0  0  0  0
   -0.1837    1.7573    0.0001 N   0  0  0  0  0  0  0  0  0  0  0  0
    2.9036   -0.2828    0.0001 N   0  0  0  0  0  0  0  0  0  0  0  0
   -0.8084   -0.5702    0.0001 C   0  0  0  0  0  0  0  0  0  0  0  0
   -1.1332    0.8025   -0.0001 C   0  0  0  0  0  0  0  0  0  0  0  0
    0.5466   -0.9276    0.0002 C   0  0  0  0  0  0  0  0  0  0  0  0
    1.5273    0.0539    0.0003 C   0  0  0  0  0  0  0  0  0  0  0  0
   -1.8253   -1.5400    0.0001 C   0  0  0  0  0  0  0  0  0  0  0  0
   -2.4794    1.1570   -0.0001 C   0  0  0  0  0  0  0  0  0  0  0  0
    1.1125    1.3702    0.0002 C   0  0  0  0  0  0  0  0  0  0  0  0
   -3.1636   -1.1573    0.0000 C   0  0  0  0  0  0  0  0  0  0  0  0
   -3.4906    0.1930   -0.0002 C   0  0  0  0  0  0  0  0  0  0  0  0
  1  4  1  0
  2  4  2  0
  3  6  2  0
  3 11  1  0
  4  8  1  0
  5  6  1  0
  5  7  2  0
  5  9  1  0
  6 10  1  0
  7  8  1  0
  8 11  2  0
  9 12  2  0
 10 13  2  0
 12 13  1  0
M  CHG  2   1  -1   4   1
M  END
>  <PUBCHEM_COMPOUND_CID>  (1) 
25551

>  <PUBCHEM_CONFORMER_RMSD>  (1) 
0.4

>  <PUBCHEM_CONFORMER_DIVERSEORDER>  (1) 
1

>  <PUBCHEM_MMFF94_PARTIAL_CHARGES>  (1) 
18
1 -0.52
10 -0.15
11 0.16
12 -0.15
13 -0.15
14 0.15
15 0.15
16 0.15
17 0.15
18 0.15
19 0.15
2 -0.52
3 -0.62
4 0.91
6 0.31
7 -0.15
8 0.13
9 -0.15

>  <PUBCHEM_EFFECTIVE_ROTOR_COUNT>  (1) 
1

>  <PUBCHEM_PHARMACOPHORE_FEATURES>  (1) 
6
1 1 acceptor
1 1 anion
1 2 acceptor
1 3 acceptor
6 3 5 6 7 8 11 rings
6 5 6 9 10 12 13 rings

>  <PUBCHEM_HEAVY_ATOM_COUNT>  (1) 
13

>  <PUBCHEM_ATOM_DEF_STEREO_COUNT>  (1) 
0

>  <PUBCHEM_ATOM_UDEF_STEREO_COUNT>  (1) 
0

>  <PUBCHEM_BOND_DEF_STEREO_COUNT>  (1) 
0

>  <PUBCHEM_BOND_UDEF_STEREO_COUNT>  (1) 
0

>  <PUBCHEM_ISOTOPIC_ATOM_COUNT>  (1) 
0

>  <PUBCHEM_COMPONENT_COUNT>  (1) 
1

>  <PUBCHEM_CACTVS_TAUTO_COUNT>  (1) 
1

>  <PUBCHEM_CONFORMER_ID>  (1) 
000063CF00000001

>  <PUBCHEM_MMFF94_ENERGY>  (1) 
41.2701

>  <PUBCHEM_FEATURE_SELFOVERLAP>  (1) 
30.559

>  <PUBCHEM_SHAPE_FINGERPRINT>  (1) 
10608611 8 18412258445603072616
11132069 177 18410568474766484776
11769659 78 18411975879746632903
12032990 46 18410580578016174635
12932764 1 17346308328170156942
13024252 1 16226048886250758971
14144814 61 18410856559645207395
14325111 11 18410855442995830336
14911166 2 18409439281221067549
15536298 74 18270964669226403752
16945 1 18410856560014374913
193761 8 17689999359095500359
200 152 17988914605353669183
20201158 50 18412826884714361959
20510252 161 18272652303294399329
20871998 184 18202003239638993623
21267235 1 18410302401542900186
21501502 16 18267027330845385981
21501925 9 18339352080085462995
23402539 116 18130780154010750405
23402655 69 18196353846571035981
23463225 33 18409449167745289182
23552423 10 18189335851984924725
23559900 14 18341327800277035026
2748010 2 18266454493798134493
3312278 4 18409732880231136603
528886 8 18411694387705954827
7364860 26 18124877012776960416
8809292 202 18188495782315551259

>  <PUBCHEM_SHAPE_MULTIPOLES>  (1) 
245.83
5.69
1.68
0.59
2.15
0.06
0
-0.94
0
-0.17
0
-0.08
0
0

>  <PUBCHEM_SHAPE_SELFOVERLAP>  (1) 
541.703

>  <PUBCHEM_SHAPE_VOLUME>  (1) 
132.4

>  <PUBCHEM_COORDINATE_TYPE>  (1) 
2
5
10

$$$$
