25550
     RDKit          3D

 14 14  0  0  0  0  0  0  0  0999 V2000
    1.2812    0.1091   -0.9320 O   0  0  0  0  0  0  0  0  0  0  0  0
    1.9180    0.2542    1.2994 O   0  0  0  0  0  0  0  0  0  0  0  0
    3.5079    0.1512   -0.3869 N   0  0  0  0  0  0  0  0  0  0  0  0
   -0.7009   -1.0550   -0.2481 C   0  0  0  0  0  0  0  0  0  0  0  0
   -2.0345   -1.0135    0.1592 C   0  0  0  0  0  0  0  0  0  0  0  0
   -0.0216    0.1296   -0.5328 C   0  0  0  0  0  0  0  0  0  0  0  0
   -2.0092    1.3969   -0.0028 C   0  0  0  0  0  0  0  0  0  0  0  0
   -2.6885    0.2124    0.2818 C   0  0  0  0  0  0  0  0  0  0  0  0
   -0.6758    1.3555   -0.4101 C   0  0  0  0  0  0  0  0  0  0  0  0
    0.0051   -2.3664   -0.3817 C   0  0  0  0  0  0  0  0  0  0  0  0
   -2.7840   -2.2676    0.4696 C   0  0  0  0  0  0  0  0  0  0  0  0
   -2.7084    2.7077    0.1284 C   0  0  0  0  0  0  0  0  0  0  0  0
    2.2221    0.1782    0.1126 C   0  0  0  0  0  0  0  0  0  0  0  0
    4.6885    0.2077    0.4434 C   0  0  0  0  0  0  0  0  0  0  0  0
  1  6  1  0
  1 13  1  0
  2 13  2  0
  3 13  1  0
  3 14  1  0
  4  5  2  0
  4  6  1  0
  4 10  1  0
  5  8  1  0
  5 11  1  0
  6  9  2  0
  7  8  2  0
  7  9  1  0
  7 12  1  0
M  END
>  <PUBCHEM_COMPOUND_CID>  (1) 
25550

>  <PUBCHEM_CONFORMER_RMSD>  (1) 
0.6

>  <PUBCHEM_CONFORMER_DIVERSEORDER>  (1) 
2
11
13
12
10
18
9
15
17
16
20
14
7
3
8
19
5
6
4
1

>  <PUBCHEM_MMFF94_PARTIAL_CHARGES>  (1) 
17
1 -0.23
10 0.14
11 0.14
12 0.14
13 0.78
14 0.3
15 0.15
16 0.15
2 -0.57
26 0.37
3 -0.73
4 -0.14
5 -0.14
6 0.08
7 -0.14
8 -0.15
9 -0.15

>  <PUBCHEM_EFFECTIVE_ROTOR_COUNT>  (1) 
3

>  <PUBCHEM_PHARMACOPHORE_FEATURES>  (1) 
3
1 2 acceptor
1 3 donor
6 4 5 6 7 8 9 rings

>  <PUBCHEM_HEAVY_ATOM_COUNT>  (1) 
14

>  <PUBCHEM_ATOM_DEF_STEREO_COUNT>  (1) 
0

>  <PUBCHEM_ATOM_UDEF_STEREO_COUNT>  (1) 
0

>  <PUBCHEM_BOND_DEF_STEREO_COUNT>  (1) 
0

>  <PUBCHEM_BOND_UDEF_STEREO_COUNT>  (1) 
0

>  <PUBCHEM_ISOTOPIC_ATOM_COUNT>  (1) 
0

>  <PUBCHEM_COMPONENT_COUNT>  (1) 
1

>  <PUBCHEM_CACTVS_TAUTO_COUNT>  (1) 
2

>  <PUBCHEM_CONFORMER_ID>  (1) 
000063CE00000002

>  <PUBCHEM_MMFF94_ENERGY>  (1) 
37.0525

>  <PUBCHEM_FEATURE_SELFOVERLAP>  (1) 
15.223

>  <PUBCHEM_SHAPE_FINGERPRINT>  (1) 
11357001 24 18333737944050239979
12251169 10 18261115153395628533
12423570 1 11316319444529767381
12500047 106 18338229362855180488
13024252 1 13984657040801537021
13140716 1 18266190615734939521
13380535 21 18267595610510401718
13380535 76 18266737991846704079
14420673 8 18048311151342424978
14614273 12 18334573495620207997
15076042 46 18335987578857548871
15219456 202 18130795503728111150
15775835 57 18335702685187221064
16945 1 18337685156602950853
19049666 15 17987528021947924638
19422 9 18040437711398639978
20510252 161 18343305893839559784
20645464 45 17988927781648577900
20871998 184 18342181110777357351
21501502 16 18267015055660282727
21524375 3 18054216636277813549
21650355 55 18265894842316319067
22445834 79 17822285760698736890
23175994 123 17203619181296269104
2334 1 17978521059206463773
23402539 116 18272081756034441751
23419403 2 15766081541234409063
23526113 38 17703508783952035028
23559900 14 18200318698369444918
23598291 2 17822020830368671300
2748010 2 17975151846378171237
305870 269 18193838141520701811
3071541 236 18260824874358096057
43471831 8 18334011675011758826
5706482 22 18337945693244821779
7364860 26 17839181801237866479
77492 1 17603594049201616620
84936 182 17550941495259410249

>  <PUBCHEM_SHAPE_MULTIPOLES>  (1) 
271.39
6
2.43
0.84
7.71
0.17
-0.07
-1.13
-1.22
-2.96
-0.03
0.25
0.01
0.23

>  <PUBCHEM_SHAPE_SELFOVERLAP>  (1) 
558.034

>  <PUBCHEM_SHAPE_VOLUME>  (1) 
157.6

>  <PUBCHEM_COORDINATE_TYPE>  (1) 
2
5
10

$$$$
