25560
     RDKit          3D

 13 12  0  0  1  0  0  0  0  0999 V2000
   -0.4501   -2.2881   -1.2477 O   0  0  0  0  0  0  0  0  0  0  0  0
   -0.5891   -2.6920    0.9952 O   0  0  0  0  0  0  0  0  0  0  0  0
    3.0069    1.6160   -0.9035 O   0  0  0  0  0  0  0  0  0  0  0  0
   -2.2935    1.7340    1.2004 O   0  0  0  0  0  0  0  0  0  0  0  0
   -1.8592    0.0791   -0.3780 N   0  0  0  0  0  0  0  0  0  0  0  0
    4.2294    0.3593    0.5838 N   0  0  0  0  0  0  0  0  0  0  0  0
   -0.6440   -0.4394    0.2088 C   0  0  0  0  0  0  0  0  0  0  0  0
    0.5788    0.3316   -0.3020 C   0  0  0  0  0  0  0  0  0  0  0  0
    1.8708   -0.0804    0.4074 C   0  0  0  0  0  0  0  0  0  0  0  0
   -0.5497   -1.9571   -0.0302 C   0  0  0  0  0  0  0  0  0  0  0  0
    3.0659    0.7307   -0.0553 C   0  0  0  0  0  0  0  0  0  0  0  0
   -2.5793    1.1249    0.1729 C   0  0  0  0  0  0  0  0  0  0  0  0
   -3.7870    1.4813   -0.6518 C   0  0  0  0  0  0  0  0  0  0  0  0
  1 10  1  0
  2 10  2  0
  3 11  2  0
  4 12  2  0
  5  7  1  0
  5 12  1  0
  6 11  1  0
  7  8  1  0
  7 10  1  0
  8  9  1  0
  9 11  1  0
 12 13  1  0
M  CHG  1   1  -1
M  END
>  <PUBCHEM_COMPOUND_CID>  (1) 
25560

>  <PUBCHEM_CONFORMER_RMSD>  (1) 
0.6

>  <PUBCHEM_CONFORMER_DIVERSEORDER>  (1) 
1
123
179
143
182
151
177
63
125
59
168
173
140
27
19
113
171
183
53
114
148
147
47
170
57
56
135
124
9
38
181
144
136
74
164
112
98
155
39
145
108
115
58
153
120
165
2
33
138
70
45
176
157
167
20
54
43
160
162
48
102
166
161
122
64
131
18
180
14
107
10
130
28
46
109
154
152
80
96
126
90
110
132
4
121
105
8
97
42
118
77
139
36
150
133
111
104
49
61
71
137
82
68
117
106
72
24
178
23
158
128
129
172
69
75
134
101
92
17
89
84
26
50
3
12
127
100
81
37
11
159
103
30
65
76
31
7
146
83
163
32
174
6
142
156
51
41
175
99
5
13
169
85
62
149
15
29
73
40
78
86
119
141
88
116
35
93
60
67
79
34
52
55
87
16
22
25
66
94
44
91
95
21

>  <PUBCHEM_MMFF94_PARTIAL_CHARGES>  (1) 
15
1 -0.9
10 0.91
11 0.57
12 0.57
13 0.06
19 0.37
2 -0.9
23 0.37
24 0.37
3 -0.57
4 -0.57
5 -0.73
6 -0.8
7 0.19
9 0.06

>  <PUBCHEM_EFFECTIVE_ROTOR_COUNT>  (1) 
6

>  <PUBCHEM_PHARMACOPHORE_FEATURES>  (1) 
7
1 1 acceptor
1 2 acceptor
1 3 acceptor
1 4 acceptor
1 5 donor
1 6 donor
3 1 2 10 anion

>  <PUBCHEM_HEAVY_ATOM_COUNT>  (1) 
13

>  <PUBCHEM_ATOM_DEF_STEREO_COUNT>  (1) 
0

>  <PUBCHEM_ATOM_UDEF_STEREO_COUNT>  (1) 
1

>  <PUBCHEM_BOND_DEF_STEREO_COUNT>  (1) 
0

>  <PUBCHEM_BOND_UDEF_STEREO_COUNT>  (1) 
0

>  <PUBCHEM_ISOTOPIC_ATOM_COUNT>  (1) 
0

>  <PUBCHEM_COMPONENT_COUNT>  (1) 
1

>  <PUBCHEM_CACTVS_TAUTO_COUNT>  (1) 
4

>  <PUBCHEM_CONFORMER_ID>  (1) 
000063D800000001

>  <PUBCHEM_MMFF94_ENERGY>  (1) 
18.3125

>  <PUBCHEM_FEATURE_SELFOVERLAP>  (1) 
35.578

>  <PUBCHEM_SHAPE_FINGERPRINT>  (1) 
100427 49 17115510095665558375
10922049 32 18410862031649937123
11357001 24 18116438235305953411
12119455 92 17895463744237630165
12138202 97 18202005468552875550
12500047 106 18271238413509485792
12932764 1 17842568619706362704
13380535 76 18413388722271260142
14897335 6 18412820279107265254
15775835 57 18335978692607364029
15906896 17 18337670944150597063
170605 34 18268711610997421605
1741750 31 18341896324597113208
18186145 218 18199198303634787932
20524608 308 18201999988317283798
20645476 183 18259979392280505514
20645477 56 18270402805857419528
20711985 327 11530777984952470369
20871998 184 18126014990052490871
21499 59 18410849924348126517
21524375 3 18411978031604194069
23402539 116 18130494310319239173
305870 269 18265615368672990545
366044 4 18412821369897037647
474229 33 18408887373787118379
5706482 22 18411979156896259803
7364860 26 17840306618923447311
81228 2 18050839219840296699
81539 233 18263640667659817941

>  <PUBCHEM_SHAPE_MULTIPOLES>  (1) 
234.09
6
2.43
0.97
2.52
1.85
0
-4.88
0.06
-0.93
0.01
-0.18
0.08
-0.33

>  <PUBCHEM_SHAPE_SELFOVERLAP>  (1) 
450.851

>  <PUBCHEM_SHAPE_VOLUME>  (1) 
141.4

>  <PUBCHEM_COORDINATE_TYPE>  (1) 
2
5
10

$$$$
