25578
     RDKit          3D

 19 21  0  0  1  0  0  0  0  0999 V2000
   -4.9593    0.8741   -1.3580 Br  0  0  0  0  0  0  0  0  0  0  0  0
   -1.1866    1.2650    0.3907 N   0  0  0  0  0  0  0  0  0  0  0  0
   -0.3751    0.5391   -0.5788 C   0  0  0  0  0  0  0  0  0  0  0  0
    1.0992    0.9075   -0.4867 C   0  0  0  0  0  0  0  0  0  0  0  0
   -0.3310   -0.9550   -0.2893 C   0  0  0  0  0  0  0  0  0  0  0  0
    1.8769   -0.2332   -0.1838 C   0  0  0  0  0  0  0  0  0  0  0  0
    0.9988   -1.3765   -0.0627 C   0  0  0  0  0  0  0  0  0  0  0  0
   -2.6028    0.9290    0.2322 C   0  0  0  0  0  0  0  0  0  0  0  0
   -0.7452    0.9715    1.7553 C   0  0  0  0  0  0  0  0  0  0  0  0
    1.6832    2.1549   -0.6413 C   0  0  0  0  0  0  0  0  0  0  0  0
   -1.3896   -1.8465   -0.2174 C   0  0  0  0  0  0  0  0  0  0  0  0
    3.2517   -0.1331   -0.0451 C   0  0  0  0  0  0  0  0  0  0  0  0
    1.2789   -2.7021    0.2269 C   0  0  0  0  0  0  0  0  0  0  0  0
   -3.0604    1.2677   -1.1742 C   0  0  0  0  0  0  0  0  0  0  0  0
   -1.5604    1.7485    2.7751 C   0  0  0  0  0  0  0  0  0  0  0  0
    3.0686    2.2551   -0.5018 C   0  0  0  0  0  0  0  0  0  0  0  0
   -1.1068   -3.1821    0.0740 C   0  0  0  0  0  0  0  0  0  0  0  0
    3.8453    1.1220   -0.2079 C   0  0  0  0  0  0  0  0  0  0  0  0
    0.2146   -3.6060    0.2928 C   0  0  0  0  0  0  0  0  0  0  0  0
  1 14  1  0
  2  3  1  0
  2  8  1  0
  2  9  1  0
  3  4  1  0
  3  5  1  0
  4  6  2  0
  4 10  1  0
  5  7  2  0
  5 11  1  0
  6  7  1  0
  6 12  1  0
  7 13  1  0
  8 14  1  0
  9 15  1  0
 10 16  2  0
 11 17  2  0
 12 18  2  0
 13 19  2  0
 16 18  1  0
 17 19  1  0
M  END
>  <PUBCHEM_COMPOUND_CID>  (1) 
25578

>  <PUBCHEM_CONFORMER_RMSD>  (1) 
0.6

>  <PUBCHEM_CONFORMER_DIVERSEORDER>  (1) 
1
5
9
2
12
7
3
11
8
10
6
4

>  <PUBCHEM_MMFF94_PARTIAL_CHARGES>  (1) 
24
1 -0.23
10 -0.15
11 -0.15
12 -0.15
13 -0.15
14 0.23
16 -0.15
17 -0.15
18 -0.15
19 -0.15
2 -0.81
25 0.15
26 0.15
27 0.15
28 0.15
3 0.56
34 0.15
35 0.15
36 0.15
37 0.15
4 -0.14
5 -0.14
8 0.27
9 0.27

>  <PUBCHEM_EFFECTIVE_ROTOR_COUNT>  (1) 
4.2

>  <PUBCHEM_PHARMACOPHORE_FEATURES>  (1) 
5
1 1 hydrophobe
1 2 cation
5 3 4 5 6 7 rings
6 4 6 10 12 16 18 rings
6 5 7 11 13 17 19 rings

>  <PUBCHEM_HEAVY_ATOM_COUNT>  (1) 
19

>  <PUBCHEM_ATOM_DEF_STEREO_COUNT>  (1) 
0

>  <PUBCHEM_ATOM_UDEF_STEREO_COUNT>  (1) 
0

>  <PUBCHEM_BOND_DEF_STEREO_COUNT>  (1) 
0

>  <PUBCHEM_BOND_UDEF_STEREO_COUNT>  (1) 
0

>  <PUBCHEM_ISOTOPIC_ATOM_COUNT>  (1) 
0

>  <PUBCHEM_COMPONENT_COUNT>  (1) 
1

>  <PUBCHEM_CACTVS_TAUTO_COUNT>  (1) 
1

>  <PUBCHEM_CONFORMER_ID>  (1) 
000063EA00000001

>  <PUBCHEM_MMFF94_ENERGY>  (1) 
67.619

>  <PUBCHEM_FEATURE_SELFOVERLAP>  (1) 
25.533

>  <PUBCHEM_SHAPE_FINGERPRINT>  (1) 
10411042 1 17400068683144754327
10693767 8 18056467353369929270
10871710 139 16815199359353155573
10967382 1 18336543803134959846
1100329 8 18263915566768071210
11370993 70 18335410288330125397
11578080 2 16769289200111648203
11582403 64 17169523338319214933
11640471 11 17485946137246805257
11725454 13 17096069321616897901
12293681 160 18060414746411226617
12553582 1 17257102471465386947
12592029 89 18261106331701308961
12716301 132 17908395280922436171
12730499 353 18261392205436901813
13009979 54 17412738415623463651
13027679 85 17116365511337983554
13132413 78 17043190817728409423
13140716 1 18408884057723888008
13583140 156 17458063785049646537
14787075 74 17773005705376618713
14817 1 14444656061001690201
15309172 13 18337127691064608984
15420108 30 16906384646310008696
15490181 8 18057628523842760204
16752209 62 18193832876138944278
16945 1 18265344919035506220
19765921 60 18271514347593470789
20510252 161 17981615071815205338
20600515 1 15695424544758511765
20645477 70 18116422645154566757
2334 1 18265619960346276038
23419403 2 17198821105609814361
23558518 356 17986416449714286850
23559900 14 18200597012292748116
23598291 2 17626110741526083517
266924 1 17843684366142206345
2748010 2 18336282179497253694
298252 57 18114170956509137297
3060560 45 18334850576502412164
352729 6 18340494451429483398
394222 165 18114731664378808931
427121 178 16476633100394987818
4340502 62 18411695496213777165
5845 1 11263256085486398490
81228 2 17762084389680005306
8272917 22 18266173921107493301
84936 182 18199176296201790433

>  <PUBCHEM_SHAPE_MULTIPOLES>  (1) 
391.97
5.89
3.64
1.47
3.67
3.79
1.29
-4.19
-2.72
-0.85
0.3
1.36
-1.13
-0.43

>  <PUBCHEM_SHAPE_SELFOVERLAP>  (1) 
836.802

>  <PUBCHEM_SHAPE_VOLUME>  (1) 
224.1

>  <PUBCHEM_COORDINATE_TYPE>  (1) 
2
5
10

$$$$
