25572
     RDKit          3D

 19 21  0  0  1  0  0  0  0  0999 V2000
   -1.1402    1.4394    1.5175 O   0  0  0  0  0  0  0  0  0  0  0  0
    4.6418   -0.6812    0.0879 O   0  0  0  0  0  0  0  0  0  0  0  0
   -2.5638   -2.4425    0.9312 N   0  0  0  0  0  0  0  0  0  0  0  0
   -3.4995   -1.4574   -1.0590 N   0  0  0  0  0  0  0  0  0  0  0  0
   -1.0737    1.8987   -0.7937 C   0  0  0  0  0  0  0  0  0  0  0  0
   -0.8089    3.2993   -0.4086 C   0  0  0  0  0  0  0  0  0  0  0  0
   -2.2171    2.8016   -0.5534 C   0  0  0  0  0  0  0  0  0  0  0  0
   -0.7968    0.8113    0.2523 C   0  0  0  0  0  0  0  0  0  0  0  0
    0.6406    0.4167    0.2088 C   0  0  0  0  0  0  0  0  0  0  0  0
   -1.7704   -0.3905    0.1152 C   0  0  0  0  0  0  0  0  0  0  0  0
    1.1531   -0.2285   -0.9167 C   0  0  0  0  0  0  0  0  0  0  0  0
    1.4727    0.6929    1.2936 C   0  0  0  0  0  0  0  0  0  0  0  0
   -1.7333   -1.3831    1.0205 C   0  0  0  0  0  0  0  0  0  0  0  0
   -2.6403   -0.4281   -0.9086 C   0  0  0  0  0  0  0  0  0  0  0  0
    2.4976   -0.5977   -0.9572 C   0  0  0  0  0  0  0  0  0  0  0  0
    2.8172    0.3236    1.2531 C   0  0  0  0  0  0  0  0  0  0  0  0
    3.3296   -0.3217    0.1278 C   0  0  0  0  0  0  0  0  0  0  0  0
   -3.4085   -2.4157   -0.1173 C   0  0  0  0  0  0  0  0  0  0  0  0
    5.0999   -1.3369   -1.0936 C   0  0  0  0  0  0  0  0  0  0  0  0
  1  8  1  0
  2 17  1  0
  2 19  1  0
  3 13  2  0
  3 18  1  0
  4 14  1  0
  4 18  2  0
  5  6  1  0
  5  7  1  0
  5  8  1  0
  6  7  1  0
  8  9  1  0
  8 10  1  0
  9 11  2  0
  9 12  1  0
 10 13  1  0
 10 14  2  0
 11 15  1  0
 12 16  2  0
 15 17  2  0
 16 17  1  0
M  END
>  <PUBCHEM_COMPOUND_CID>  (1) 
25572

>  <PUBCHEM_CONFORMER_RMSD>  (1) 
0.6

>  <PUBCHEM_CONFORMER_DIVERSEORDER>  (1) 
2
9
11
12
7
13
14
1
3
6
5
4
8
10

>  <PUBCHEM_MMFF94_PARTIAL_CHARGES>  (1) 
32
1 -0.68
10 -0.14
11 -0.15
12 -0.15
13 0.16
14 0.16
15 -0.15
16 -0.15
17 0.08
18 0.47
19 0.28
2 -0.36
20 0.1
21 0.1
22 0.1
23 0.1
24 0.1
25 0.4
26 0.15
27 0.15
28 0.15
29 0.15
3 -0.62
30 0.15
31 0.15
32 0.15
4 -0.62
5 -0.19
6 -0.2
7 -0.2
8 0.66
9 -0.14

>  <PUBCHEM_EFFECTIVE_ROTOR_COUNT>  (1) 
4.6

>  <PUBCHEM_PHARMACOPHORE_FEATURES>  (1) 
7
1 1 acceptor
1 1 donor
1 2 acceptor
1 3 acceptor
3 3 4 18 cation
6 3 4 10 13 14 18 rings
6 9 11 12 15 16 17 rings

>  <PUBCHEM_HEAVY_ATOM_COUNT>  (1) 
19

>  <PUBCHEM_ATOM_DEF_STEREO_COUNT>  (1) 
0

>  <PUBCHEM_ATOM_UDEF_STEREO_COUNT>  (1) 
1

>  <PUBCHEM_BOND_DEF_STEREO_COUNT>  (1) 
0

>  <PUBCHEM_BOND_UDEF_STEREO_COUNT>  (1) 
0

>  <PUBCHEM_ISOTOPIC_ATOM_COUNT>  (1) 
0

>  <PUBCHEM_COMPONENT_COUNT>  (1) 
1

>  <PUBCHEM_CACTVS_TAUTO_COUNT>  (1) 
1

>  <PUBCHEM_CONFORMER_ID>  (1) 
000063E400000002

>  <PUBCHEM_MMFF94_ENERGY>  (1) 
78.0902

>  <PUBCHEM_FEATURE_SELFOVERLAP>  (1) 
35.522

>  <PUBCHEM_SHAPE_FINGERPRINT>  (1) 
11543360 7 18261406537779438446
11582403 64 15896351446501372176
116883 192 18338789113511731565
12363563 72 18337111292721379639
12500047 106 18120089486131077508
12532896 13 18050004390051993021
12553582 1 18260546753308037731
12714826 92 18272660017313826582
12788726 201 18260821549752826257
13544653 18 18058729237861055371
13583140 156 18057017170214769802
13681431 1 18047188841421021325
14863182 85 15591901526052096339
15842332 3 17459179682541815008
16752209 62 18115571691336158915
16945 1 18261382334895095777
17357779 13 18272075136998818927
17539 30 18410565172327193485
1813 80 18196672867339003311
19862831 5 17095240341273065414
200 152 16271631322106829845
20361792 2 18266462186184794879
20711985 344 18336538344273672713
20871999 31 18336825295180873844
21296965 67 18265328585443613155
22094290 60 18408327670554386886
22112679 90 18191895454925228345
23175994 123 18335420235680344871
23402539 116 18335413539493754941
23419403 2 17702641376631239025
23493267 7 18196652891809983016
23557571 272 18339065060739126680
23559900 14 18409718570012068432
2748010 2 18193257814409331665
31174 14 17489015097817340968
3286 77 17203609345341210818
4921388 177 18337676300079810252
59755656 520 17911807872989587425
6049 1 18130498687344665928
6442390 28 17837505050643932009
7364860 26 17615124825326818729
81228 2 18409729547790461977
84936 31 17550658255061391441
9709674 26 18268993094511813374

>  <PUBCHEM_SHAPE_MULTIPOLES>  (1) 
369.31
7.17
2.94
1.29
8.47
1.51
0.19
-5
-1.73
-3.66
-0.29
0.25
-0.04
0.84

>  <PUBCHEM_SHAPE_SELFOVERLAP>  (1) 
803.63

>  <PUBCHEM_SHAPE_VOLUME>  (1) 
200.5

>  <PUBCHEM_COORDINATE_TYPE>  (1) 
2
5
10

$$$$
