25579
     RDKit          3D

 15 14  0  0  0  0  0  0  0  0999 V2000
    1.3507    2.3801   -0.0110 O   0  0  0  0  0  0  0  0  0  0  0  0
    1.4305   -0.1919   -2.2412 O   0  0  0  0  0  0  0  0  0  0  0  0
    0.4258   -0.3866    2.3086 O   0  0  0  0  0  0  0  0  0  0  0  0
    2.9746    0.9054    0.0289 O   0  0  0  0  0  0  0  0  0  0  0  0
    0.6594   -1.9640   -1.2039 O   0  0  0  0  0  0  0  0  0  0  0  0
    1.9019   -1.5968    1.2315 O   0  0  0  0  0  0  0  0  0  0  0  0
   -3.4012    1.4008   -0.0171 O   0  0  0  0  0  0  0  0  0  0  0  0
    1.7755    1.2149    0.0172 N   0  0  0  0  0  0  0  0  0  0  0  0
    0.9838   -0.7686   -1.2386 N   0  0  0  0  0  0  0  0  0  0  0  0
    1.0357   -0.7108    1.2803 N   0  0  0  0  0  0  0  0  0  0  0  0
   -4.1899   -0.7584   -0.0437 N   0  0  0  0  0  0  0  0  0  0  0  0
    0.7446    0.0815    0.0078 C   0  0  0  0  0  0  0  0  0  0  0  0
   -0.6947    0.6317   -0.0370 C   0  0  0  0  0  0  0  0  0  0  0  0
   -1.8058   -0.4291   -0.0494 C   0  0  0  0  0  0  0  0  0  0  0  0
   -3.1908    0.1916   -0.0326 C   0  0  0  0  0  0  0  0  0  0  0  0
  1  8  1  0
  2  9  1  0
  3 10  1  0
  4  8  2  0
  5  9  2  0
  6 10  2  0
  7 15  2  0
  8 12  1  0
  9 12  1  0
 10 12  1  0
 11 15  1  0
 12 13  1  0
 13 14  1  0
 14 15  1  0
M  CHG  6   1  -1   2  -1   3  -1   8   1   9   1  10   1
M  END
>  <PUBCHEM_COMPOUND_CID>  (1) 
25579

>  <PUBCHEM_CONFORMER_RMSD>  (1) 
0.8

>  <PUBCHEM_CONFORMER_DIVERSEORDER>  (1) 
1
7
2
3
8
5
9
10
6
4

>  <PUBCHEM_MMFF94_PARTIAL_CHARGES>  (1) 
16
1 -0.52
10 0.8
11 -0.8
12 0.72
14 0.06
15 0.57
2 -0.52
20 0.37
21 0.37
3 -0.52
4 -0.52
5 -0.52
6 -0.52
7 -0.57
8 0.8
9 0.8

>  <PUBCHEM_EFFECTIVE_ROTOR_COUNT>  (1) 
6

>  <PUBCHEM_PHARMACOPHORE_FEATURES>  (1) 
11
1 1 acceptor
1 1 anion
1 11 donor
1 2 acceptor
1 2 anion
1 3 acceptor
1 3 anion
1 4 acceptor
1 5 acceptor
1 6 acceptor
1 7 acceptor

>  <PUBCHEM_HEAVY_ATOM_COUNT>  (1) 
15

>  <PUBCHEM_ATOM_DEF_STEREO_COUNT>  (1) 
0

>  <PUBCHEM_ATOM_UDEF_STEREO_COUNT>  (1) 
0

>  <PUBCHEM_BOND_DEF_STEREO_COUNT>  (1) 
0

>  <PUBCHEM_BOND_UDEF_STEREO_COUNT>  (1) 
0

>  <PUBCHEM_ISOTOPIC_ATOM_COUNT>  (1) 
0

>  <PUBCHEM_COMPONENT_COUNT>  (1) 
1

>  <PUBCHEM_CACTVS_TAUTO_COUNT>  (1) 
2

>  <PUBCHEM_CONFORMER_ID>  (1) 
000063EB00000001

>  <PUBCHEM_MMFF94_ENERGY>  (1) 
38.1141

>  <PUBCHEM_FEATURE_SELFOVERLAP>  (1) 
56.081

>  <PUBCHEM_SHAPE_FINGERPRINT>  (1) 
12423570 1 12856537851205664046
12725867 57 17913769418670127438
12932764 1 18113907014079415909
14817 1 11411906922457075210
15775835 57 18040716952839538369
16945 1 18114444747804997768
170605 34 18338518654814807621
20671657 53 17629792005108127358
21524375 3 18122626325233321140
21730867 7 17531237370741923457
230 275 17240770583670689205
3248919 1 18059849524883926057
528886 8 18060420260974810188
68250623 7 17979350090731148806
8030462 33 17821453443756146149

>  <PUBCHEM_SHAPE_MULTIPOLES>  (1) 
247.68
4.85
1.68
1.53
5.95
0.34
-0.08
0.65
0.06
-0.76
0.09
-1.06
-0.65
-0.12

>  <PUBCHEM_SHAPE_SELFOVERLAP>  (1) 
487.399

>  <PUBCHEM_SHAPE_VOLUME>  (1) 
144.7

>  <PUBCHEM_COORDINATE_TYPE>  (1) 
2
5
10

$$$$
