25585
     RDKit          3D

 26 28  0  0  0  0  0  0  0  0999 V2000
    1.2279    0.3277    0.6313 O   0  0  0  0  0  0  0  0  0  0  0  0
    3.9105   -0.1075    0.7296 O   0  0  0  0  0  0  0  0  0  0  0  0
   -1.3652   -2.5776   -0.5444 O   0  0  0  0  0  0  0  0  0  0  0  0
   -6.5415    0.8107    0.0926 O   0  0  0  0  0  0  0  0  0  0  0  0
    3.9739    2.5873   -0.1799 N   0  0  0  0  0  0  0  0  0  0  0  0
    0.8600   -1.9398   -0.1368 C   0  0  0  0  0  0  0  0  0  0  0  0
    1.6956   -0.9072    0.2727 C   0  0  0  0  0  0  0  0  0  0  0  0
   -1.0576   -0.3425    0.2104 C   0  0  0  0  0  0  0  0  0  0  0  0
   -0.5884   -1.7004   -0.1886 C   0  0  0  0  0  0  0  0  0  0  0  0
    3.0755   -1.1074    0.3309 C   0  0  0  0  0  0  0  0  0  0  0  0
   -0.1387    0.5718    0.5888 C   0  0  0  0  0  0  0  0  0  0  0  0
   -2.4829   -0.0433    0.1803 C   0  0  0  0  0  0  0  0  0  0  0  0
    5.1795    1.7983    0.0247 C   0  0  0  0  0  0  0  0  0  0  0  0
    4.8998    0.3214   -0.2039 C   0  0  0  0  0  0  0  0  0  0  0  0
    1.3942   -3.1816   -0.4915 C   0  0  0  0  0  0  0  0  0  0  0  0
    3.6137   -2.3449   -0.0221 C   0  0  0  0  0  0  0  0  0  0  0  0
    2.7741   -3.3805   -0.4326 C   0  0  0  0  0  0  0  0  0  0  0  0
   -0.4567    1.9779    1.0167 C   0  0  0  0  0  0  0  0  0  0  0  0
   -3.2660   -0.2719    1.3102 C   0  0  0  0  0  0  0  0  0  0  0  0
   -3.0599    0.4715   -0.9793 C   0  0  0  0  0  0  0  0  0  0  0  0
    3.4487    2.3896   -1.5331 C   0  0  0  0  0  0  0  0  0  0  0  0
    4.2381    4.0086    0.0568 C   0  0  0  0  0  0  0  0  0  0  0  0
   -4.6307    0.0151    1.2804 C   0  0  0  0  0  0  0  0  0  0  0  0
   -4.4246    0.7587   -1.0091 C   0  0  0  0  0  0  0  0  0  0  0  0
   -5.2101    0.5305    0.1209 C   0  0  0  0  0  0  0  0  0  0  0  0
   -7.0692    1.3355   -1.1248 C   0  0  0  0  0  0  0  0  0  0  0  0
  1  7  1  0
  1 11  1  0
  2 10  1  0
  2 14  1  0
  3  9  2  0
  4 25  1  0
  4 26  1  0
  5 13  1  0
  5 21  1  0
  5 22  1  0
  6  7  2  0
  6  9  1  0
  6 15  1  0
  7 10  1  0
  8  9  1  0
  8 11  2  0
  8 12  1  0
 10 16  2  0
 11 18  1  0
 12 19  2  0
 12 20  1  0
 13 14  1  0
 15 17  2  0
 16 17  1  0
 19 23  1  0
 20 24  2  0
 23 25  2  0
 24 25  1  0
M  END
>  <PUBCHEM_COMPOUND_CID>  (1) 
25585

>  <PUBCHEM_CONFORMER_RMSD>  (1) 
0.8

>  <PUBCHEM_CONFORMER_DIVERSEORDER>  (1) 
3
15
16
2
8
18
9
10
6
5
17
1
4
11
13
7
12
14

>  <PUBCHEM_MMFF94_PARTIAL_CHARGES>  (1) 
33
1 -0.16
10 0.08
11 -0.06
12 0.03
13 0.27
14 0.28
15 -0.15
16 -0.15
17 -0.15
18 0.14
19 -0.15
2 -0.36
20 -0.15
21 0.27
22 0.27
23 -0.15
24 -0.15
25 0.08
26 0.28
3 -0.57
31 0.15
32 0.15
33 0.15
37 0.15
38 0.15
4 -0.36
45 0.15
46 0.15
5 -0.81
6 0.09
7 0.08
8 -0.01
9 0.47

>  <PUBCHEM_EFFECTIVE_ROTOR_COUNT>  (1) 
6

>  <PUBCHEM_PHARMACOPHORE_FEATURES>  (1) 
8
1 1 acceptor
1 2 acceptor
1 3 acceptor
1 4 acceptor
1 5 cation
6 1 6 7 8 9 11 rings
6 12 19 20 23 24 25 rings
6 6 7 10 15 16 17 rings

>  <PUBCHEM_HEAVY_ATOM_COUNT>  (1) 
26

>  <PUBCHEM_ATOM_DEF_STEREO_COUNT>  (1) 
0

>  <PUBCHEM_ATOM_UDEF_STEREO_COUNT>  (1) 
0

>  <PUBCHEM_BOND_DEF_STEREO_COUNT>  (1) 
0

>  <PUBCHEM_BOND_UDEF_STEREO_COUNT>  (1) 
0

>  <PUBCHEM_ISOTOPIC_ATOM_COUNT>  (1) 
0

>  <PUBCHEM_COMPONENT_COUNT>  (1) 
1

>  <PUBCHEM_CACTVS_TAUTO_COUNT>  (1) 
3

>  <PUBCHEM_CONFORMER_ID>  (1) 
000063F100000003

>  <PUBCHEM_MMFF94_ENERGY>  (1) 
94.3495

>  <PUBCHEM_FEATURE_SELFOVERLAP>  (1) 
40.631

>  <PUBCHEM_SHAPE_FINGERPRINT>  (1) 
10090160 65 18410852153335926258
10411042 1 17834675994451726774
10673678 19 18410857702365269797
10675989 125 18342177799627364256
10835480 77 18335417938110218197
11135609 187 18269547407228057961
11796584 16 13182734840700797029
12236239 1 17203318959035198579
12422481 6 17676481800072437884
12788726 201 17346326951164398393
12838862 33 18340755027771019872
13140716 1 18341887554379578546
13583140 156 17313646171299681626
14117953 113 18410855469636585820
14251764 75 18120098531369964340
14790565 3 18196377145960936088
16120349 18 18410007711933086253
17844677 252 18266744580368883445
18335252 114 18411133620033861028
19427546 62 18409448098151304531
19591789 44 17908429400174446218
19784866 34 18268993248956367448
20157964 124 18410292484858721375
20612939 158 18342456993912298639
20715895 44 18410570717251499368
21033650 10 15338855139842291443
22149856 69 18201730535629294419
23227448 37 18263363740789970054
23522609 53 17702963469704674249
23559900 14 18410295770461723946
255183 451 17770224856172112486
335352 9 18412546501429594974
397830 11 17968393324717398905
4073 2 18334860498958703107
474 4 18411140242720554322
6034566 193 18047202031249815116

>  <PUBCHEM_SHAPE_MULTIPOLES>  (1) 
506.61
13.53
3.79
1.09
15.85
0.17
0.05
9.1
2.02
-7.02
0.77
0.79
0.32
0.27

>  <PUBCHEM_SHAPE_SELFOVERLAP>  (1) 
1090.497

>  <PUBCHEM_SHAPE_VOLUME>  (1) 
281.9

>  <PUBCHEM_COORDINATE_TYPE>  (1) 
2
5
10

$$$$
