2558
     RDKit          3D

 19 20  0  0  1  0  0  0  0  0999 V2000
    3.3231   -0.9396   -0.5404 S   0  0  0  0  0  0  0  0  0  0  0  0
    3.8023   -2.2998    0.2195 O   0  0  0  0  0  0  0  0  0  0  0  0
    4.4886   -0.1322   -0.8392 O   0  0  0  0  0  0  0  0  0  0  0  0
    2.3515   -1.2875   -1.5577 O   0  0  0  0  0  0  0  0  0  0  0  0
   -2.4726    2.6298   -0.6807 O   0  0  0  0  0  0  0  0  0  0  0  0
   -4.3262   -1.5740    1.0178 O   0  0  0  0  0  0  0  0  0  0  0  0
    1.9334    1.1195    0.5382 N   0  0  0  0  0  0  0  0  0  0  0  0
   -3.4035    0.1201   -0.2868 N   0  0  0  0  0  0  0  0  0  0  0  0
   -3.7219   -1.9776   -1.1403 N   0  0  0  0  0  0  0  0  0  0  0  0
    2.4655   -0.2104    0.8297 C   0  0  0  0  0  0  0  0  0  0  0  0
    1.2117   -1.0299    1.1937 C   0  0  0  0  0  0  0  0  0  0  0  0
    0.0685   -0.2165    0.6480 C   0  0  0  0  0  0  0  0  0  0  0  0
    0.5696    1.1052    0.3225 C   0  0  0  0  0  0  0  0  0  0  0  0
    2.8320    2.2305    0.3167 C   0  0  0  0  0  0  0  0  0  0  0  0
   -1.1943   -0.6134    0.4770 C   0  0  0  0  0  0  0  0  0  0  0  0
   -0.2379    2.0759   -0.1209 C   0  0  0  0  0  0  0  0  0  0  0  0
   -2.1613    0.3763   -0.0461 C   0  0  0  0  0  0  0  0  0  0  0  0
   -1.6755    1.7807   -0.3113 C   0  0  0  0  0  0  0  0  0  0  0  0
   -3.8529   -1.1573   -0.0396 C   0  0  0  0  0  0  0  0  0  0  0  0
  1  2  1  0
  1  3  2  0
  1  4  2  0
  1 10  1  0
  5 18  2  0
  6 19  2  0
  7 10  1  0
  7 13  1  0
  7 14  1  0
  8 17  2  0
  8 19  1  0
  9 19  1  0
 10 11  1  0
 11 12  1  0
 12 13  1  0
 12 15  2  0
 13 16  2  0
 15 17  1  0
 16 18  1  0
 17 18  1  0
M  END
>  <PUBCHEM_COMPOUND_CID>  (1) 
2558

>  <PUBCHEM_CONFORMER_RMSD>  (1) 
0.6

>  <PUBCHEM_CONFORMER_DIVERSEORDER>  (1) 
3
1
2
4

>  <PUBCHEM_MMFF94_PARTIAL_CHARGES>  (1) 
24
1 1.38
10 0.47
11 0.14
12 -0.14
13 0.1
14 0.37
15 -0.14
16 -0.14
17 0.44
18 0.56
19 0.84
2 -0.68
26 0.15
27 0.15
28 0.5
29 0.37
3 -0.65
30 0.37
4 -0.65
5 -0.57
6 -0.57
7 -0.84
8 -0.66
9 -0.8

>  <PUBCHEM_EFFECTIVE_ROTOR_COUNT>  (1) 
2.6

>  <PUBCHEM_PHARMACOPHORE_FEATURES>  (1) 
12
1 2 acceptor
1 3 acceptor
1 4 acceptor
1 5 acceptor
1 6 acceptor
1 7 cation
1 8 acceptor
1 8 donor
1 9 donor
4 1 2 3 4 anion
5 7 10 11 12 13 rings
6 12 13 15 16 17 18 rings

>  <PUBCHEM_HEAVY_ATOM_COUNT>  (1) 
19

>  <PUBCHEM_ATOM_DEF_STEREO_COUNT>  (1) 
0

>  <PUBCHEM_ATOM_UDEF_STEREO_COUNT>  (1) 
1

>  <PUBCHEM_BOND_DEF_STEREO_COUNT>  (1) 
0

>  <PUBCHEM_BOND_UDEF_STEREO_COUNT>  (1) 
1

>  <PUBCHEM_ISOTOPIC_ATOM_COUNT>  (1) 
0

>  <PUBCHEM_COMPONENT_COUNT>  (1) 
1

>  <PUBCHEM_CACTVS_TAUTO_COUNT>  (1) 
2

>  <PUBCHEM_CONFORMER_ID>  (1) 
000009FE00000003

>  <PUBCHEM_MMFF94_ENERGY>  (1) 
45.6666

>  <PUBCHEM_FEATURE_SELFOVERLAP>  (1) 
61.144

>  <PUBCHEM_SHAPE_FINGERPRINT>  (1) 
10062212 137 17971184825093666234
11543360 7 14634866491961339691
12032990 46 18408324414810934131
12553582 1 18335693979705522811
13140716 1 18338228259080526769
13296908 3 18412536617986926209
13675066 3 11599729501602023509
14252887 29 18266463285717314193
15536298 74 18340483460381469201
16945 1 18049150082054089825
17357779 13 18261946444732241173
18186145 218 17821721754378480787
19141452 34 18131071550293602751
20645477 70 18268133422621477111
20871998 22 18337954592691606065
20871999 31 18336268950807805076
21618674 68 18337105795010279460
21634736 98 18335701671522074532
221490 88 18409449185041131584
23402539 116 18188208702691069926
23557571 272 18341618079504153348
23559900 14 18051686647717849274
2748010 2 18337092515150800257
2871803 45 18261383477514456971
5104073 3 18340200800389327088
7364860 26 18271524320634561392
9709674 26 18335980964560427465

>  <PUBCHEM_SHAPE_MULTIPOLES>  (1) 
350.57
7.7
2.54
1.05
1.58
0.87
0.09
-4.1
1.25
0.28
0.3
-0.22
-0.37
0.53

>  <PUBCHEM_SHAPE_SELFOVERLAP>  (1) 
738.762

>  <PUBCHEM_SHAPE_VOLUME>  (1) 
198.7

>  <PUBCHEM_COORDINATE_TYPE>  (1) 
2
5
10

$$$$
