25597
     RDKit          3D

 19 19  0  0  0  0  0  0  0  0999 V2000
   -2.8539   -1.5932    0.7496 O   0  0  0  0  0  0  0  0  0  0  0  0
    2.2873    1.9497   -0.5072 O   0  0  0  0  0  0  0  0  0  0  0  0
   -4.3196   -0.6455   -0.7799 N   0  0  0  0  0  0  0  0  0  0  0  0
    0.4512    0.0543   -1.3386 N   0  0  0  0  0  0  0  0  0  0  0  0
    1.7118   -0.2702   -0.8608 N   0  0  0  0  0  0  0  0  0  0  0  0
    6.4198   -0.4717    0.9175 N   0  0  0  0  0  0  0  0  0  0  0  0
   -6.0928   -0.1747    0.8703 C   0  0  0  0  0  0  0  0  0  0  0  0
   -5.5303   -1.1393   -0.1685 C   0  0  0  0  0  0  0  0  0  0  0  0
   -6.4648    1.1834    0.2711 C   0  0  0  0  0  0  0  0  0  0  0  0
   -1.9602   -0.2886   -1.0845 C   0  0  0  0  0  0  0  0  0  0  0  0
   -0.5739   -0.5833   -0.5216 C   0  0  0  0  0  0  0  0  0  0  0  0
   -3.0647   -0.9215   -0.2566 C   0  0  0  0  0  0  0  0  0  0  0  0
   -7.0778    2.1023    1.3163 C   0  0  0  0  0  0  0  0  0  0  0  0
    2.5584    0.7519   -0.4691 C   0  0  0  0  0  0  0  0  0  0  0  0
    3.8988    0.3271    0.0120 C   0  0  0  0  0  0  0  0  0  0  0  0
    4.9857    1.1870   -0.1006 C   0  0  0  0  0  0  0  0  0  0  0  0
    4.0709   -0.9317    0.5771 C   0  0  0  0  0  0  0  0  0  0  0  0
    6.2139    0.7439    0.3630 C   0  0  0  0  0  0  0  0  0  0  0  0
    5.3401   -1.2799    1.0104 C   0  0  0  0  0  0  0  0  0  0  0  0
  1 12  2  0
  2 14  2  0
  3  8  1  0
  3 12  1  0
  4  5  1  0
  4 11  1  0
  5 14  1  0
  6 18  2  0
  6 19  1  0
  7  8  1  0
  7  9  1  0
  9 13  1  0
 10 11  1  0
 10 12  1  0
 14 15  1  0
 15 16  2  0
 15 17  1  0
 16 18  1  0
 17 19  2  0
M  END
>  <PUBCHEM_COMPOUND_CID>  (1) 
25597

>  <PUBCHEM_CONFORMER_RMSD>  (1) 
1

>  <PUBCHEM_CONFORMER_DIVERSEORDER>  (1) 
1
77
57
21
16
60
93
17
83
46
58
71
31
64
5
91
88
80
33
61
56
44
50
63
7
19
67
90
18
51
68
75
55
22
76
29
32
9
10
27
34
92
69
26
40
15
35
48
39
38
52
4
8
20
87
82
73
28
47
72
62
14
65
78
37
42
84
53
13
95
54
36
43
30
94
41
89
24
2
11
6
3
81
12
59
96
86
25
45
49
85
66
79
70
23
74

>  <PUBCHEM_MMFF94_PARTIAL_CHARGES>  (1) 
23
1 -0.57
10 0.06
11 0.27
12 0.57
14 0.54
15 0.09
16 -0.15
17 -0.15
18 0.16
19 0.16
2 -0.57
28 0.37
3 -0.73
34 0.36
35 0.37
36 0.15
37 0.15
38 0.15
39 0.15
4 -0.64
5 -0.42
6 -0.62
8 0.3

>  <PUBCHEM_EFFECTIVE_ROTOR_COUNT>  (1) 
10

>  <PUBCHEM_PHARMACOPHORE_FEATURES>  (1) 
8
1 1 acceptor
1 13 hydrophobe
1 2 acceptor
1 3 donor
1 4 donor
1 5 donor
1 6 acceptor
6 6 15 16 17 18 19 rings

>  <PUBCHEM_HEAVY_ATOM_COUNT>  (1) 
19

>  <PUBCHEM_ATOM_DEF_STEREO_COUNT>  (1) 
0

>  <PUBCHEM_ATOM_UDEF_STEREO_COUNT>  (1) 
0

>  <PUBCHEM_BOND_DEF_STEREO_COUNT>  (1) 
0

>  <PUBCHEM_BOND_UDEF_STEREO_COUNT>  (1) 
0

>  <PUBCHEM_ISOTOPIC_ATOM_COUNT>  (1) 
0

>  <PUBCHEM_COMPONENT_COUNT>  (1) 
1

>  <PUBCHEM_CACTVS_TAUTO_COUNT>  (1) 
6

>  <PUBCHEM_CONFORMER_ID>  (1) 
000063FD00000001

>  <PUBCHEM_MMFF94_ENERGY>  (1) 
24.1592

>  <PUBCHEM_FEATURE_SELFOVERLAP>  (1) 
42.081

>  <PUBCHEM_SHAPE_FINGERPRINT>  (1) 
11089746 13 18060413638631053501
117890 112 18131354098668882165
12596602 18 18335422391526795355
13167372 99 18342459235727140609
13288520 33 11458424648821339471
13533116 47 18409443675067979130
13668630 136 12396293738701916650
13673619 4 13262403280528724559
13685833 64 16587740940941328686
14123256 10 10447927278510396853
14123256 34 14201402677184600469
1420 363 15502373430697488423
14251718 22 8862946078314572423
14251764 18 18409166636686574319
14341114 176 18040995159256329908
14347424 109 18413102841190633106
14528608 73 10519988175109351478
14729087 3 17131832062449104449
15003188 100 12175612993300792154
15183329 4 18261104171538422379
15348495 7 17749959976313460769
15537594 2 15430026686681898131
16079462 125 16272207479432735303
20281389 69 18343865533022178577
21054139 6 8646773287347662157
21150785 3 12247672769529986309
21196832 93 10303222752519532285
21521721 280 17313107488496811200
21591340 7 18410290290990328033
220451 1 18113900489618100030
2303208 19 14996001060302712981
23081809 10 18338234972193012039
23424782 7 10953755412129469845
23522609 53 17970090970059496149
2767999 5 16630526228597231283
2838139 119 17918269845240338785
300161 21 16200431368708369103
312425 54 18114179769613172211
33382 64 16950554459707605368
351380 3 12829488173293218025
3663271 9 18336264625960425939
4325135 7 9943807790044871945
465052 167 13840266987429501282
5104073 3 18041842946924256681
5283384 27 15051722097584898026
7062679 117 9439401333529478941
8863177 126 13407376113233286257
999808 66 14996005428421733281

>  <PUBCHEM_SHAPE_MULTIPOLES>  (1) 
359.35
21.25
1.66
1.13
12.12
0.59
-0.03
5.53
-8.5
1.57
-0.34
0.24
-0.02
-1.85

>  <PUBCHEM_SHAPE_SELFOVERLAP>  (1) 
714.903

>  <PUBCHEM_SHAPE_VOLUME>  (1) 
210.2

>  <PUBCHEM_COORDINATE_TYPE>  (1) 
2
5
10

$$$$
