25596
     RDKit          3D

 19 20  0  0  0  0  0  0  0  0999 V2000
    2.4662   -1.9581    0.1002 O   0  0  0  0  0  0  0  0  0  0  0  0
    0.4353   -0.2444    0.8700 N   0  0  0  0  0  0  0  0  0  0  0  0
    1.7343    0.1784    0.6331 N   0  0  0  0  0  0  0  0  0  0  0  0
    6.6065    0.7434   -0.3657 N   0  0  0  0  0  0  0  0  0  0  0  0
   -1.9294    0.0529    0.2974 C   0  0  0  0  0  0  0  0  0  0  0  0
   -2.9175    0.8010   -0.6013 C   0  0  0  0  0  0  0  0  0  0  0  0
   -0.4894    0.4622   -0.0085 C   0  0  0  0  0  0  0  0  0  0  0  0
   -4.3405    0.3802   -0.3367 C   0  0  0  0  0  0  0  0  0  0  0  0
   -4.8825   -0.6777   -1.0514 C   0  0  0  0  0  0  0  0  0  0  0  0
   -5.0858    1.0577    0.6170 C   0  0  0  0  0  0  0  0  0  0  0  0
   -6.1993   -1.0672   -0.8069 C   0  0  0  0  0  0  0  0  0  0  0  0
   -6.4027    0.6681    0.8616 C   0  0  0  0  0  0  0  0  0  0  0  0
   -6.9595   -0.3943    0.1497 C   0  0  0  0  0  0  0  0  0  0  0  0
    2.6794   -0.7576    0.2517 C   0  0  0  0  0  0  0  0  0  0  0  0
    4.0529   -0.2326    0.0360 C   0  0  0  0  0  0  0  0  0  0  0  0
    5.1234   -1.0770    0.2104 C   0  0  0  0  0  0  0  0  0  0  0  0
    4.2130    1.0820   -0.3322 C   0  0  0  0  0  0  0  0  0  0  0  0
    6.3826   -0.5397   -0.0030 C   0  0  0  0  0  0  0  0  0  0  0  0
    5.5129    1.5228   -0.5213 C   0  0  0  0  0  0  0  0  0  0  0  0
  1 14  2  0
  2  3  1  0
  2  7  1  0
  3 14  1  0
  4 18  2  0
  4 19  1  0
  5  6  1  0
  5  7  1  0
  6  8  1  0
  8  9  2  0
  8 10  1  0
  9 11  1  0
 10 12  2  0
 11 13  2  0
 12 13  1  0
 14 15  1  0
 15 16  2  0
 15 17  1  0
 16 18  1  0
 17 19  2  0
M  END
>  <PUBCHEM_COMPOUND_CID>  (1) 
25596

>  <PUBCHEM_CONFORMER_RMSD>  (1) 
0.8

>  <PUBCHEM_CONFORMER_DIVERSEORDER>  (1) 
1
17
46
28
42
4
45
21
2
48
40
3
34
44
23
49
11
47
10
8
24
26
27
39
22
50
41
36
7
43
32
30
20
29
18
16
31
13
12
38
19
35
15
33
37
25
5
14
6
9

>  <PUBCHEM_MMFF94_PARTIAL_CHARGES>  (1) 
29
1 -0.57
10 -0.15
11 -0.15
12 -0.15
13 -0.15
14 0.54
15 0.09
16 -0.15
17 -0.15
18 0.16
19 0.16
2 -0.64
26 0.36
27 0.15
28 0.15
29 0.37
3 -0.42
30 0.15
31 0.15
32 0.15
33 0.15
34 0.15
35 0.15
36 0.15
4 -0.62
6 0.14
7 0.27
8 -0.14
9 -0.15

>  <PUBCHEM_EFFECTIVE_ROTOR_COUNT>  (1) 
7

>  <PUBCHEM_PHARMACOPHORE_FEATURES>  (1) 
6
1 1 acceptor
1 2 donor
1 3 donor
1 4 acceptor
6 4 15 16 17 18 19 rings
6 8 9 10 11 12 13 rings

>  <PUBCHEM_HEAVY_ATOM_COUNT>  (1) 
19

>  <PUBCHEM_ATOM_DEF_STEREO_COUNT>  (1) 
0

>  <PUBCHEM_ATOM_UDEF_STEREO_COUNT>  (1) 
0

>  <PUBCHEM_BOND_DEF_STEREO_COUNT>  (1) 
0

>  <PUBCHEM_BOND_UDEF_STEREO_COUNT>  (1) 
0

>  <PUBCHEM_ISOTOPIC_ATOM_COUNT>  (1) 
0

>  <PUBCHEM_COMPONENT_COUNT>  (1) 
1

>  <PUBCHEM_CACTVS_TAUTO_COUNT>  (1) 
3

>  <PUBCHEM_CONFORMER_ID>  (1) 
000063FC00000001

>  <PUBCHEM_MMFF94_ENERGY>  (1) 
41.5161

>  <PUBCHEM_FEATURE_SELFOVERLAP>  (1) 
31.93

>  <PUBCHEM_SHAPE_FINGERPRINT>  (1) 
10299344 5 18272933825853100103
10595046 47 18411699855030602009
10638233 991 18342460373846397657
10968037 39 18261109686756549767
11315181 36 18343865529191272561
11524674 6 15338835387519345013
11646440 116 16950570973250775292
12091667 2 18186802466147936241
12166972 35 18261114071459976820
12236239 1 18272652337495660777
12516196 113 18272930531165077193
12730499 353 17967817128752858370
13288520 33 18273493486410049389
13533116 47 16515674495360816064
13914758 101 9727363424459459671
14123256 10 18187363237714103532
1420 363 17458348528712428585
14251718 22 18411699885374791905
14251732 16 18333734645494198931
14251764 18 17988924475294029591
14251764 46 18410292510180015249
14933364 13 18411983550764075305
15183329 4 18413668011120088595
15419008 47 15936404555046302277
15537594 2 16630520718017229551
15716309 27 18411138026696569627
17093844 174 15339113534038792571
17834072 33 18343018900030366073
19489759 90 12396298154250108597
20157964 124 18186802492059969896
21150785 3 18412544344458985913
220451 1 18060137626768477035
2297311 6 16702305655073618561
23035841 295 18130787858738993411
23081809 10 18413386518942254059
23198884 109 18411702088983126467
23522609 53 18129123206614511545
23536379 177 18272089379115744377
23559900 14 18265046011214121145
29717793 49 18060426798658599446
335352 9 18260834787907844190
3545911 37 17458346333878677898
4073 2 18040722505905503898
4325135 7 18408322189901745893
542803 24 18060418010612296613
999808 66 18261964041899601083

>  <PUBCHEM_SHAPE_MULTIPOLES>  (1) 
370.2
22.11
1.33
0.87
3.56
0.12
-0.03
-0.36
-1.42
-0.86
-0.09
0.75
-0.02
-1.29

>  <PUBCHEM_SHAPE_SELFOVERLAP>  (1) 
775.424

>  <PUBCHEM_SHAPE_VOLUME>  (1) 
207.2

>  <PUBCHEM_COORDINATE_TYPE>  (1) 
2
5
10

$$$$
