25599
     RDKit          3D

 23 24  0  0  0  0  0  0  0  0999 V2000
   -1.5824   -1.0950    1.4689 O   0  0  0  0  0  0  0  0  0  0  0  0
    3.5037    0.7339   -1.9002 O   0  0  0  0  0  0  0  0  0  0  0  0
   -2.8730   -1.9365   -0.2667 N   0  0  0  0  0  0  0  0  0  0  0  0
    1.8901   -1.3071   -0.9591 N   0  0  0  0  0  0  0  0  0  0  0  0
    3.0892   -0.9516   -0.3603 N   0  0  0  0  0  0  0  0  0  0  0  0
    7.4911    0.9692    1.0496 N   0  0  0  0  0  0  0  0  0  0  0  0
   -4.1296   -1.9144    0.4430 C   0  0  0  0  0  0  0  0  0  0  0  0
   -0.5141   -1.6411   -0.6348 C   0  0  0  0  0  0  0  0  0  0  0  0
   -4.8525   -0.6105    0.2651 C   0  0  0  0  0  0  0  0  0  0  0  0
    0.7965   -1.1834   -0.0034 C   0  0  0  0  0  0  0  0  0  0  0  0
   -1.6881   -1.5167    0.3203 C   0  0  0  0  0  0  0  0  0  0  0  0
   -4.6251    0.4288    1.1590 C   0  0  0  0  0  0  0  0  0  0  0  0
   -5.7419   -0.4566   -0.7916 C   0  0  0  0  0  0  0  0  0  0  0  0
   -6.1914    1.8029   -0.0642 C   0  0  0  0  0  0  0  0  0  0  0  0
   -5.2971    1.6401    0.9939 C   0  0  0  0  0  0  0  0  0  0  0  0
   -6.4138    0.7546   -0.9569 C   0  0  0  0  0  0  0  0  0  0  0  0
   -6.9090    3.0980   -0.2411 C   0  0  0  0  0  0  0  0  0  0  0  0
    3.8248    0.0848   -0.9077 C   0  0  0  0  0  0  0  0  0  0  0  0
    5.1072    0.3939   -0.2232 C   0  0  0  0  0  0  0  0  0  0  0  0
    6.1286    0.9610   -0.9475 C   0  0  0  0  0  0  0  0  0  0  0  0
    5.2344    0.1042    1.1144 C   0  0  0  0  0  0  0  0  0  0  0  0
    7.3032    1.2301   -0.2636 C   0  0  0  0  0  0  0  0  0  0  0  0
    6.4491    0.4116    1.7061 C   0  0  0  0  0  0  0  0  0  0  0  0
  1 11  2  0
  2 18  2  0
  3  7  1  0
  3 11  1  0
  4  5  1  0
  4 10  1  0
  5 18  1  0
  6 22  2  0
  6 23  1  0
  7  9  1  0
  8 10  1  0
  8 11  1  0
  9 12  2  0
  9 13  1  0
 12 15  1  0
 13 16  2  0
 14 15  2  0
 14 16  1  0
 14 17  1  0
 18 19  1  0
 19 20  2  0
 19 21  1  0
 20 22  1  0
 21 23  2  0
M  END
>  <PUBCHEM_COMPOUND_CID>  (1) 
25599

>  <PUBCHEM_CONFORMER_RMSD>  (1) 
1

>  <PUBCHEM_CONFORMER_DIVERSEORDER>  (1) 
1
68
54
12
111
52
75
133
22
6
116
60
15
70
81
61
76
64
126
31
8
10
72
57
48
11
119
42
93
74
132
39
45
5
28
97
2
104
66
34
121
63
17
46
107
113
135
98
37
20
89
129
40
99
131
103
16
33
30
29
7
102
79
71
92
38
91
35
80
3
112
27
88
117
41
78
23
108
109
69
123
128
13
55
130
84
56
134
94
95
9
59
18
100
106
77
50
122
14
4
49
127
87
24
105
62
51
118
115
73
120
25
26
86
36
82
125
124
67
114
58
44
101
43
110
96
32
53
65
83
47
85
21
90
19

>  <PUBCHEM_MMFF94_PARTIAL_CHARGES>  (1) 
34
1 -0.57
10 0.27
11 0.57
12 -0.15
13 -0.15
14 -0.14
15 -0.15
16 -0.15
17 0.14
18 0.54
19 0.09
2 -0.57
20 -0.15
21 -0.15
22 0.16
23 0.16
3 -0.73
30 0.37
31 0.15
32 0.15
33 0.15
34 0.15
35 0.36
36 0.37
4 -0.64
40 0.15
41 0.15
42 0.15
43 0.15
5 -0.42
6 -0.62
7 0.44
8 0.06
9 -0.14

>  <PUBCHEM_EFFECTIVE_ROTOR_COUNT>  (1) 
9

>  <PUBCHEM_PHARMACOPHORE_FEATURES>  (1) 
8
1 1 acceptor
1 2 acceptor
1 3 donor
1 4 donor
1 5 donor
1 6 acceptor
6 6 19 20 21 22 23 rings
6 9 12 13 14 15 16 rings

>  <PUBCHEM_HEAVY_ATOM_COUNT>  (1) 
23

>  <PUBCHEM_ATOM_DEF_STEREO_COUNT>  (1) 
0

>  <PUBCHEM_ATOM_UDEF_STEREO_COUNT>  (1) 
0

>  <PUBCHEM_BOND_DEF_STEREO_COUNT>  (1) 
0

>  <PUBCHEM_BOND_UDEF_STEREO_COUNT>  (1) 
0

>  <PUBCHEM_ISOTOPIC_ATOM_COUNT>  (1) 
0

>  <PUBCHEM_COMPONENT_COUNT>  (1) 
1

>  <PUBCHEM_CACTVS_TAUTO_COUNT>  (1) 
6

>  <PUBCHEM_CONFORMER_ID>  (1) 
000063FF00000001

>  <PUBCHEM_MMFF94_ENERGY>  (1) 
47.3775

>  <PUBCHEM_FEATURE_SELFOVERLAP>  (1) 
42.082

>  <PUBCHEM_SHAPE_FINGERPRINT>  (1) 
10087517 78 18408039607140373749
10533779 1 18190452754727846749
11475781 23 18271813388780655116
11761917 142 18269552741203497704
13167372 99 18187366549640252132
13668630 136 8862952684385763026
13685833 64 12251897105988615862
13782708 43 8934999252599291126
13878862 14 15913039959559237464
14123256 34 7925910387270436150
14251764 18 17749107837152832990
14251764 30 8502378823465855774
14344974 204 11531066083102049049
14347424 109 18114174238750050314
14556957 393 14979686528086530203
14598715 104 18201991149074044496
14729087 3 18342737433770034618
14767858 380 13398632757781884878
15003188 100 16056878074677906130
15183329 4 18410856576825278112
15348495 7 15141254272703898357
155225 5 18270122280095615393
16079462 125 17775284980243815314
16993427 108 16229739006667993027
17780758 139 12468353549439140439
20281389 69 18412266133699891195
20511986 3 18272083881410380110
20621476 21 10737290134285067801
21150785 3 15554445219131177831
21196832 93 12462985775804632461
21298829 104 18409732833266447901
21774942 28 18129946680788625040
23081809 10 16950850313908450950
23522609 53 17024050292237955990
249057 25 17459197437768350879
270888 7 18191870029657722493
2748736 6 18410573989541650013
2767999 5 18412262843601773111
2838139 119 18411134762384391717
3103668 31 15768065033940013262
312425 54 16008753532376223880
3663271 9 17240768440487445970
3862424 121 12462416242352193973
44249763 50 17632280311464456326
445580 167 12967122844087965706
465052 167 11314029071952673106
5283384 27 17418087754894262784
54039377 194 12607396742126494429
543368 44 18342459206500769233
5470011 282 14045738231502449305
57307002 103 12396883128548495654
636775 72 18411979169940177145
636775 8 7853579045777721784
8863177 126 7925618986634841158
9995097 26 11602817974852992546
999808 66 12251898196345696370

>  <PUBCHEM_SHAPE_MULTIPOLES>  (1) 
441.67
24.99
2.29
1.36
14.93
0.62
0.13
17.39
1.68
-4.59
-0.08
1.26
0.17
0.19

>  <PUBCHEM_SHAPE_SELFOVERLAP>  (1) 
923.108

>  <PUBCHEM_SHAPE_VOLUME>  (1) 
248.5

>  <PUBCHEM_COORDINATE_TYPE>  (1) 
2
5
10

$$$$
