25600
     RDKit          3D

 13 14  0  0  0  0  0  0  0  0999 V2000
    0.1580   -2.7597   -0.1557 S   0  0  0  0  0  0  0  0  0  0  0  0
    2.5973    2.5619    0.1148 O   0  0  0  0  0  0  0  0  0  0  0  0
   -4.1266    1.6894   -0.3005 N   0  0  0  0  0  0  0  0  0  0  0  0
   -1.1964   -0.6443    0.3374 C   0  0  0  0  0  0  0  0  0  0  0  0
    0.1564   -0.1948    0.1700 C   0  0  0  0  0  0  0  0  0  0  0  0
   -2.3387    0.2540    0.6413 C   0  0  0  0  0  0  0  0  0  0  0  0
    1.0139   -1.2636   -0.1082 C   0  0  0  0  0  0  0  0  0  0  0  0
   -3.0257    0.7887   -0.6251 C   0  0  0  0  0  0  0  0  0  0  0  0
   -1.3309   -2.0040    0.1873 C   0  0  0  0  0  0  0  0  0  0  0  0
    0.7103    1.1063    0.2434 C   0  0  0  0  0  0  0  0  0  0  0  0
    2.3939   -1.0668   -0.3124 C   0  0  0  0  0  0  0  0  0  0  0  0
    2.0787    1.3048    0.0413 C   0  0  0  0  0  0  0  0  0  0  0  0
    2.9097    0.2281   -0.2336 C   0  0  0  0  0  0  0  0  0  0  0  0
  1  7  1  0
  1  9  1  0
  2 12  1  0
  3  8  1  0
  4  5  1  0
  4  6  1  0
  4  9  2  0
  5  7  2  0
  5 10  1  0
  6  8  1  0
  7 11  1  0
 10 12  2  0
 11 13  2  0
 12 13  1  0
M  END
>  <PUBCHEM_COMPOUND_CID>  (1) 
25600

>  <PUBCHEM_CONFORMER_RMSD>  (1) 
0.6

>  <PUBCHEM_CONFORMER_DIVERSEORDER>  (1) 
1
3
4
5
2

>  <PUBCHEM_MMFF94_PARTIAL_CHARGES>  (1) 
19
1 -0.08
10 -0.15
11 -0.15
12 0.08
13 -0.15
18 0.15
19 0.15
2 -0.53
20 0.15
21 0.15
22 0.36
23 0.36
24 0.45
3 -0.99
4 -0.18
6 0.18
7 0.04
8 0.27
9 -0.11

>  <PUBCHEM_EFFECTIVE_ROTOR_COUNT>  (1) 
2

>  <PUBCHEM_PHARMACOPHORE_FEATURES>  (1) 
5
1 2 donor
1 3 cation
1 3 donor
5 1 4 5 7 9 rings
6 5 7 10 11 12 13 rings

>  <PUBCHEM_HEAVY_ATOM_COUNT>  (1) 
13

>  <PUBCHEM_ATOM_DEF_STEREO_COUNT>  (1) 
0

>  <PUBCHEM_ATOM_UDEF_STEREO_COUNT>  (1) 
0

>  <PUBCHEM_BOND_DEF_STEREO_COUNT>  (1) 
0

>  <PUBCHEM_BOND_UDEF_STEREO_COUNT>  (1) 
0

>  <PUBCHEM_ISOTOPIC_ATOM_COUNT>  (1) 
0

>  <PUBCHEM_COMPONENT_COUNT>  (1) 
1

>  <PUBCHEM_CACTVS_TAUTO_COUNT>  (1) 
3

>  <PUBCHEM_CONFORMER_ID>  (1) 
0000640000000001

>  <PUBCHEM_MMFF94_ENERGY>  (1) 
18.9703

>  <PUBCHEM_FEATURE_SELFOVERLAP>  (1) 
25.431

>  <PUBCHEM_SHAPE_FINGERPRINT>  (1) 
1 1 18337670819612032047
10149128 76 18410854395124114901
10608611 8 18337955700444989321
10967382 1 18266743480456277026
11206711 2 17910397521492750886
11471102 20 18266457611986511509
12654215 9 18191305979089847478
12730499 353 18262523577205795793
13380535 76 18410290302757099491
13380536 305 18339080393333945038
13897977 150 18409449159355717165
14614273 12 17909555291232852242
14648413 74 18409735088123921090
14911166 2 18340778031103660742
15279308 100 18409455803543536724
15490181 7 18337678627767942426
16945 1 18341343179843025474
17134986 127 18409726253302340237
18186145 218 18272662224715987633
20606313 2 18194117413321666479
21501502 16 18338513174394261934
21524375 3 18333726910242508331
21639500 275 18265602204956781693
2334 1 18268152143888106410
23402655 69 18270956831053494213
23559900 14 18199770132493353526
25 1 18336828572340868031
2748010 2 18340218495427738766
3060560 45 18269832017377641391
528886 8 18411980243491421570
63268167 104 18341620265225866795
81228 2 17762055840995784139
84936 182 18130780127629614921

>  <PUBCHEM_SHAPE_MULTIPOLES>  (1) 
260.53
5.01
2.71
0.71
3.24
0.63
0
-3.56
-0.7
-0.48
-0.08
0.17
0.01
0.42

>  <PUBCHEM_SHAPE_SELFOVERLAP>  (1) 
545.337

>  <PUBCHEM_SHAPE_VOLUME>  (1) 
149.5

>  <PUBCHEM_COORDINATE_TYPE>  (1) 
2
5
10

$$$$
