25609
     RDKit          3D

 13 13  0  0  0  0  0  0  0  0999 V2000
    2.1401   -2.0452   -0.7996 N   0  0  0  0  0  0  0  0  0  0  0  0
   -2.1451   -2.0396   -0.8001 N   0  0  0  0  0  0  0  0  0  0  0  0
    2.1457    2.0397   -0.7997 N   0  0  0  0  0  0  0  0  0  0  0  0
   -2.1400    2.0445   -0.8002 N   0  0  0  0  0  0  0  0  0  0  0  0
   -0.0003    0.0007    1.2100 C   0  0  0  0  0  0  0  0  0  0  0  0
   -0.0008   -0.7505   -0.0889 C   0  0  0  0  0  0  0  0  0  0  0  0
    0.0013    0.7501   -0.0902 C   0  0  0  0  0  0  0  0  0  0  0  0
    1.2398   -0.0019    2.0512 C   0  0  0  0  0  0  0  0  0  0  0  0
   -1.2414    0.0027    2.0498 C   0  0  0  0  0  0  0  0  0  0  0  0
    1.1851   -1.4677   -0.4826 C   0  0  0  0  0  0  0  0  0  0  0  0
   -1.1887   -1.4645   -0.4829 C   0  0  0  0  0  0  0  0  0  0  0  0
    1.1892    1.4645   -0.4833 C   0  0  0  0  0  0  0  0  0  0  0  0
   -1.1849    1.4673   -0.4835 C   0  0  0  0  0  0  0  0  0  0  0  0
  1 10  3  0
  2 11  3  0
  3 12  3  0
  4 13  3  0
  5  6  1  0
  5  7  1  0
  5  8  1  0
  5  9  1  0
  6  7  1  0
  6 10  1  0
  6 11  1  0
  7 12  1  0
  7 13  1  0
M  END
>  <PUBCHEM_COMPOUND_CID>  (1) 
25609

>  <PUBCHEM_CONFORMER_RMSD>  (1) 
0.4

>  <PUBCHEM_CONFORMER_DIVERSEORDER>  (1) 
1

>  <PUBCHEM_MMFF94_PARTIAL_CHARGES>  (1) 
13
1 -0.56
10 0.45
11 0.45
12 0.45
13 0.45
2 -0.56
3 -0.56
4 -0.56
5 -0.19
6 0.21
7 0.21
8 0.09
9 0.09

>  <PUBCHEM_EFFECTIVE_ROTOR_COUNT>  (1) 
0.6

>  <PUBCHEM_PHARMACOPHORE_FEATURES>  (1) 
5
1 1 acceptor
1 2 acceptor
1 3 acceptor
1 4 acceptor
3 5 8 9 hydrophobe

>  <PUBCHEM_HEAVY_ATOM_COUNT>  (1) 
13

>  <PUBCHEM_ATOM_DEF_STEREO_COUNT>  (1) 
0

>  <PUBCHEM_ATOM_UDEF_STEREO_COUNT>  (1) 
0

>  <PUBCHEM_BOND_DEF_STEREO_COUNT>  (1) 
0

>  <PUBCHEM_BOND_UDEF_STEREO_COUNT>  (1) 
0

>  <PUBCHEM_ISOTOPIC_ATOM_COUNT>  (1) 
0

>  <PUBCHEM_COMPONENT_COUNT>  (1) 
1

>  <PUBCHEM_CACTVS_TAUTO_COUNT>  (1) 
1

>  <PUBCHEM_CONFORMER_ID>  (1) 
0000640900000001

>  <PUBCHEM_MMFF94_ENERGY>  (1) 
25.079

>  <PUBCHEM_FEATURE_SELFOVERLAP>  (1) 
25.374

>  <PUBCHEM_SHAPE_FINGERPRINT>  (1) 
12423570 1 15744725971083761354
13024252 1 15796568576015774186
16945 1 16811550750380147406
23419403 2 17394783480825613464
528886 8 17835239321839121471
68250623 7 17970320754893152544

>  <PUBCHEM_SHAPE_MULTIPOLES>  (1) 
247.61
2.47
2.45
1.65
0
0
-1.28
0
0.73
0
1.29
0
0
0

>  <PUBCHEM_SHAPE_SELFOVERLAP>  (1) 
519.838

>  <PUBCHEM_SHAPE_VOLUME>  (1) 
133.8

>  <PUBCHEM_COORDINATE_TYPE>  (1) 
2
5
10

$$$$
