25605
     RDKit          3D

 16 15  0  0  0  0  0  0  0  0999 V2000
    1.7566    0.2509    2.2438 O   0  0  0  0  0  0  0  0  0  0  0  0
    0.7939    0.3496   -2.3245 O   0  0  0  0  0  0  0  0  0  0  0  0
    1.7859   -2.3563    0.0543 O   0  0  0  0  0  0  0  0  0  0  0  0
    0.9370    1.9799    1.1714 O   0  0  0  0  0  0  0  0  0  0  0  0
    2.1330    1.6800   -1.2109 O   0  0  0  0  0  0  0  0  0  0  0  0
    3.3576   -0.8286   -0.0420 O   0  0  0  0  0  0  0  0  0  0  0  0
   -2.9879   -1.5372    0.0087 O   0  0  0  0  0  0  0  0  0  0  0  0
    1.3004    0.7966    1.2282 N   0  0  0  0  0  0  0  0  0  0  0  0
    1.3781    0.7012   -1.2886 N   0  0  0  0  0  0  0  0  0  0  0  0
    2.1689   -1.1793    0.0113 N   0  0  0  0  0  0  0  0  0  0  0  0
   -3.8549    0.6179    0.0308 N   0  0  0  0  0  0  0  0  0  0  0  0
    1.1013   -0.0805   -0.0064 C   0  0  0  0  0  0  0  0  0  0  0  0
   -0.3194   -0.6776    0.0346 C   0  0  0  0  0  0  0  0  0  0  0  0
   -1.4650    0.3460    0.0431 C   0  0  0  0  0  0  0  0  0  0  0  0
   -2.8319   -0.3193    0.0228 C   0  0  0  0  0  0  0  0  0  0  0  0
   -5.2537    0.2565    0.0233 C   0  0  0  0  0  0  0  0  0  0  0  0
  1  8  1  0
  2  9  1  0
  3 10  1  0
  4  8  2  0
  5  9  2  0
  6 10  2  0
  7 15  2  0
  8 12  1  0
  9 12  1  0
 10 12  1  0
 11 15  1  0
 11 16  1  0
 12 13  1  0
 13 14  1  0
 14 15  1  0
M  CHG  6   1  -1   2  -1   3  -1   8   1   9   1  10   1
M  END
>  <PUBCHEM_COMPOUND_CID>  (1) 
25605

>  <PUBCHEM_CONFORMER_RMSD>  (1) 
0.8

>  <PUBCHEM_CONFORMER_DIVERSEORDER>  (1) 
1
8
9
4
3
5
7
2
10
6

>  <PUBCHEM_MMFF94_PARTIAL_CHARGES>  (1) 
16
1 -0.52
10 0.8
11 -0.73
12 0.72
14 0.06
15 0.57
16 0.3
2 -0.52
21 0.37
3 -0.52
4 -0.52
5 -0.52
6 -0.52
7 -0.57
8 0.8
9 0.8

>  <PUBCHEM_EFFECTIVE_ROTOR_COUNT>  (1) 
7

>  <PUBCHEM_PHARMACOPHORE_FEATURES>  (1) 
11
1 1 acceptor
1 1 anion
1 11 donor
1 2 acceptor
1 2 anion
1 3 acceptor
1 3 anion
1 4 acceptor
1 5 acceptor
1 6 acceptor
1 7 acceptor

>  <PUBCHEM_HEAVY_ATOM_COUNT>  (1) 
16

>  <PUBCHEM_ATOM_DEF_STEREO_COUNT>  (1) 
0

>  <PUBCHEM_ATOM_UDEF_STEREO_COUNT>  (1) 
0

>  <PUBCHEM_BOND_DEF_STEREO_COUNT>  (1) 
0

>  <PUBCHEM_BOND_UDEF_STEREO_COUNT>  (1) 
0

>  <PUBCHEM_ISOTOPIC_ATOM_COUNT>  (1) 
0

>  <PUBCHEM_COMPONENT_COUNT>  (1) 
1

>  <PUBCHEM_CACTVS_TAUTO_COUNT>  (1) 
2

>  <PUBCHEM_CONFORMER_ID>  (1) 
0000640500000001

>  <PUBCHEM_MMFF94_ENERGY>  (1) 
36.4849

>  <PUBCHEM_FEATURE_SELFOVERLAP>  (1) 
56.083

>  <PUBCHEM_SHAPE_FINGERPRINT>  (1) 
12725867 57 18271805696541921144
12932764 1 18059582455132704119
14115302 16 18411428297444666143
14344429 50 17918274242294624681
15775835 57 18341899618821062015
16945 1 18114479885138174654
18186145 218 17703794713295186993
20233049 118 18342176613951626145
20279233 1 16487259867956672311
20339313 130 17894638023984848797
20559304 39 18411421691784867361
212847 35 18341619175111496433
21524375 3 16592542697151149372
23380061 81 18113908147776487829
23419403 2 17977631283616322754
3060560 45 16877943828179450635
3248919 1 18114173198861860899
7364860 26 18260834825233156548

>  <PUBCHEM_SHAPE_MULTIPOLES>  (1) 
268.26
6.64
1.62
1.46
10.4
0.28
-0.09
0.39
0.09
-1.06
0.08
-1.31
-0.6
-0.11

>  <PUBCHEM_SHAPE_SELFOVERLAP>  (1) 
524.362

>  <PUBCHEM_SHAPE_VOLUME>  (1) 
158.3

>  <PUBCHEM_COORDINATE_TYPE>  (1) 
2
5
10

$$$$
