25601
     RDKit          3D

 19 18  0  0  1  0  0  0  0  0999 V2000
   -2.9387   -0.3050   -0.1543 O   0  0  0  0  0  0  0  0  0  0  0  0
   -1.9283    1.3559   -1.3962 O   0  0  0  0  0  0  0  0  0  0  0  0
    1.5107    1.1381    2.0146 O   0  0  0  0  0  0  0  0  0  0  0  0
    2.9196    1.7384   -1.3936 O   0  0  0  0  0  0  0  0  0  0  0  0
    2.7316   -1.6809   -1.5140 O   0  0  0  0  0  0  0  0  0  0  0  0
    2.7581   -0.6617    2.1043 O   0  0  0  0  0  0  0  0  0  0  0  0
    4.3142    0.4924   -0.2463 O   0  0  0  0  0  0  0  0  0  0  0  0
    1.7852   -2.2993    0.3657 O   0  0  0  0  0  0  0  0  0  0  0  0
    2.1109    0.1922    1.4830 N   0  0  0  0  0  0  0  0  0  0  0  0
    3.1729    0.8220   -0.5968 N   0  0  0  0  0  0  0  0  0  0  0  0
    2.1654   -1.4363   -0.4392 N   0  0  0  0  0  0  0  0  0  0  0  0
    0.6500    0.5395   -0.5851 C   0  0  0  0  0  0  0  0  0  0  0  0
    1.9932    0.0253   -0.0302 C   0  0  0  0  0  0  0  0  0  0  0  0
   -0.5976   -0.2112   -0.0928 C   0  0  0  0  0  0  0  0  0  0  0  0
   -4.1483    0.4435    0.0033 C   0  0  0  0  0  0  0  0  0  0  0  0
   -5.2439   -0.4812    0.5383 C   0  0  0  0  0  0  0  0  0  0  0  0
   -1.8713    0.3971   -0.6387 C   0  0  0  0  0  0  0  0  0  0  0  0
   -3.8896    1.6014    0.9578 C   0  0  0  0  0  0  0  0  0  0  0  0
   -5.4943   -1.6704   -0.3798 C   0  0  0  0  0  0  0  0  0  0  0  0
  1 15  1  0
  1 17  1  0
  2 17  2  0
  3  9  1  0
  4 10  1  0
  5 11  1  0
  6  9  2  0
  7 10  2  0
  8 11  2  0
  9 13  1  0
 10 13  1  0
 11 13  1  0
 12 13  1  0
 12 14  1  0
 14 17  1  0
 15 16  1  0
 15 18  1  0
 16 19  1  0
M  CHG  6   3  -1   4  -1   5  -1   9   1  10   1  11   1
M  END
>  <PUBCHEM_COMPOUND_CID>  (1) 
25601

>  <PUBCHEM_CONFORMER_RMSD>  (1) 
0.8

>  <PUBCHEM_CONFORMER_DIVERSEORDER>  (1) 
1
70
37
71
15
67
63
51
68
20
75
65
16
17
72
5
77
49
78
12
56
58
57
62
73
33
66
55
74
21
34
26
27
8
52
31
14
54
41
10
44
76
39
47
38
60
6
45
43
36
18
25
61
46
29
80
35
11
24
50
28
2
23
42
40
30
79
3
53
9
7
69
64
48
4
13
19
59
32
22

>  <PUBCHEM_MMFF94_PARTIAL_CHARGES>  (1) 
15
1 -0.43
10 0.8
11 0.8
13 0.72
14 0.06
15 0.28
17 0.66
2 -0.57
3 -0.52
4 -0.52
5 -0.52
6 -0.52
7 -0.52
8 -0.52
9 0.8

>  <PUBCHEM_EFFECTIVE_ROTOR_COUNT>  (1) 
9

>  <PUBCHEM_PHARMACOPHORE_FEATURES>  (1) 
11
1 19 hydrophobe
1 2 acceptor
1 3 acceptor
1 3 anion
1 4 acceptor
1 4 anion
1 5 acceptor
1 5 anion
1 6 acceptor
1 7 acceptor
1 8 acceptor

>  <PUBCHEM_HEAVY_ATOM_COUNT>  (1) 
19

>  <PUBCHEM_ATOM_DEF_STEREO_COUNT>  (1) 
0

>  <PUBCHEM_ATOM_UDEF_STEREO_COUNT>  (1) 
1

>  <PUBCHEM_BOND_DEF_STEREO_COUNT>  (1) 
0

>  <PUBCHEM_BOND_UDEF_STEREO_COUNT>  (1) 
0

>  <PUBCHEM_ISOTOPIC_ATOM_COUNT>  (1) 
0

>  <PUBCHEM_COMPONENT_COUNT>  (1) 
1

>  <PUBCHEM_CACTVS_TAUTO_COUNT>  (1) 
1

>  <PUBCHEM_CONFORMER_ID>  (1) 
0000640100000001

>  <PUBCHEM_MMFF94_ENERGY>  (1) 
44.1136

>  <PUBCHEM_FEATURE_SELFOVERLAP>  (1) 
56.089

>  <PUBCHEM_SHAPE_FINGERPRINT>  (1) 
10366900 7 18271245027685437891
11552529 35 16558183960302112271
12616999 72 18342182180229222270
12932764 1 17418082209516697925
13533116 47 17988642940209207319
13583140 156 17632287948654838829
14252887 29 17894920615473760277
14289901 80 18411706469892063649
15375358 24 13623526887860669017
17834072 33 18337397136080412917
18186145 218 18338801087727201703
200 152 16298381375375688517
20233049 118 17346322566034638280
20279233 1 15502377842008878545
20281475 54 18409446964870100079
20645477 70 16370711626622041291
23557571 272 14274002334539194703
23559900 14 18337671902159951655
312423 11 17095807603326094725
474 4 17169280436306769988
9882013 296 18333731329948264437

>  <PUBCHEM_SHAPE_MULTIPOLES>  (1) 
329.11
10.2
1.76
1.48
10.84
0.57
0.51
1.53
0.35
0.02
-0.12
-1.34
-0.33
-0.31

>  <PUBCHEM_SHAPE_SELFOVERLAP>  (1) 
642.996

>  <PUBCHEM_SHAPE_VOLUME>  (1) 
192.4

>  <PUBCHEM_COORDINATE_TYPE>  (1) 
2
5
10

$$$$
