25611
     RDKit          3D

  9  8  0  0  0  0  0  0  0  0999 V2000
    0.7624    1.3365   -0.6709 O   0  0  0  0  0  0  0  0  0  0  0  0
   -0.4634   -0.4582    0.3722 C   0  0  0  0  0  0  0  0  0  0  0  0
    2.1290   -0.3717    0.3541 C   0  0  0  0  0  0  0  0  0  0  0  0
   -1.7475    0.2234   -0.0991 C   0  0  0  0  0  0  0  0  0  0  0  0
    0.8035    0.2854   -0.0311 C   0  0  0  0  0  0  0  0  0  0  0  0
   -3.0032   -0.5402    0.3281 C   0  0  0  0  0  0  0  0  0  0  0  0
    3.1975    0.6780    0.6508 C   0  0  0  0  0  0  0  0  0  0  0  0
    2.5884   -1.3114   -0.7545 C   0  0  0  0  0  0  0  0  0  0  0  0
   -4.2667    0.1582   -0.1498 C   0  0  0  0  0  0  0  0  0  0  0  0
  1  5  2  0
  2  4  1  0
  2  5  1  0
  3  5  1  0
  3  7  1  0
  3  8  1  0
  4  6  1  0
  6  9  1  0
M  END
>  <PUBCHEM_COMPOUND_CID>  (1) 
25611

>  <PUBCHEM_CONFORMER_RMSD>  (1) 
0.6

>  <PUBCHEM_CONFORMER_DIVERSEORDER>  (1) 
1
57
58
38
47
45
35
23
59
22
46
43
6
39
50
31
60
5
42
34
36
12
32
40
56
18
33
41
55
13
26
16
53
54
29
10
2
37
15
11
25
52
7
48
8
28
51
4
3
17
20
14
9
27
24
21
49
44
30
19

>  <PUBCHEM_MMFF94_PARTIAL_CHARGES>  (1) 
4
1 -0.57
2 0.06
3 0.06
5 0.45

>  <PUBCHEM_EFFECTIVE_ROTOR_COUNT>  (1) 
4

>  <PUBCHEM_PHARMACOPHORE_FEATURES>  (1) 
3
1 1 acceptor
1 9 hydrophobe
3 3 7 8 hydrophobe

>  <PUBCHEM_HEAVY_ATOM_COUNT>  (1) 
9

>  <PUBCHEM_ATOM_DEF_STEREO_COUNT>  (1) 
0

>  <PUBCHEM_ATOM_UDEF_STEREO_COUNT>  (1) 
0

>  <PUBCHEM_BOND_DEF_STEREO_COUNT>  (1) 
0

>  <PUBCHEM_BOND_UDEF_STEREO_COUNT>  (1) 
0

>  <PUBCHEM_ISOTOPIC_ATOM_COUNT>  (1) 
0

>  <PUBCHEM_COMPONENT_COUNT>  (1) 
1

>  <PUBCHEM_CACTVS_TAUTO_COUNT>  (1) 
3

>  <PUBCHEM_CONFORMER_ID>  (1) 
0000640B00000001

>  <PUBCHEM_MMFF94_ENERGY>  (1) 
3.3235

>  <PUBCHEM_FEATURE_SELFOVERLAP>  (1) 
15.223

>  <PUBCHEM_SHAPE_FINGERPRINT>  (1) 
10219947 1 18273497870543056015
11062470 55 17917710218873666641
12932764 1 16415469446089850201
14252887 29 18408891732371718106
14325111 11 18272369776240325451
177051 138 17988646289719098223
190213 19 18410576189049961779
20279233 1 18333170574412168051
20645477 70 18131069281981346975
20871998 22 17843408384539521686
21293036 1 17821739324910503190
22485316 2 17847055593436384575
29004967 10 18408041814563263352
3248919 1 18409455812270601795
581208 293 18273490178420393070

>  <PUBCHEM_SHAPE_MULTIPOLES>  (1) 
179.35
6.69
1.1
0.8
5.26
0.08
-0.02
0.25
0.25
-0.79
-0.18
-0.23
-0.01
0.41

>  <PUBCHEM_SHAPE_SELFOVERLAP>  (1) 
322.7

>  <PUBCHEM_SHAPE_VOLUME>  (1) 
116.9

>  <PUBCHEM_COORDINATE_TYPE>  (1) 
2
5
10

$$$$
