25610
     RDKit          3D

 13 12  0  0  0  0  0  0  0  0999 V2000
   -2.9684   -1.6010    1.5157 O   0  0  0  0  0  0  0  0  0  0  0  0
    2.3382   -1.0938   -1.0310 C   0  0  0  0  0  0  0  0  0  0  0  0
    2.4529    0.0478   -0.0140 C   0  0  0  0  0  0  0  0  0  0  0  0
    0.9126   -1.3887   -1.5118 C   0  0  0  0  0  0  0  0  0  0  0  0
   -1.8806   -0.1187   -0.6928 C   0  0  0  0  0  0  0  0  0  0  0  0
   -1.5336    1.2097   -0.0116 C   0  0  0  0  0  0  0  0  0  0  0  0
    3.8767    0.3798    0.4418 C   0  0  0  0  0  0  0  0  0  0  0  0
   -1.1831   -1.2852   -0.0467 C   0  0  0  0  0  0  0  0  0  0  0  0
    0.0001   -1.8210   -0.3956 C   0  0  0  0  0  0  0  0  0  0  0  0
   -2.2277    2.3843   -0.7015 C   0  0  0  0  0  0  0  0  0  0  0  0
    3.9475    1.5419    1.4202 C   0  0  0  0  0  0  0  0  0  0  0  0
   -1.8537    3.7089   -0.0556 C   0  0  0  0  0  0  0  0  0  0  0  0
   -1.8809   -1.9641    1.0829 C   0  0  0  0  0  0  0  0  0  0  0  0
  1 13  2  0
  2  3  1  0
  2  4  1  0
  3  7  1  0
  4  9  1  0
  5  6  1  0
  5  8  1  0
  6 10  1  0
  7 11  1  0
  8  9  2  0
  8 13  1  0
 10 12  1  0
M  END
>  <PUBCHEM_COMPOUND_CID>  (1) 
25610

>  <PUBCHEM_CONFORMER_RMSD>  (1) 
0.8

>  <PUBCHEM_CONFORMER_DIVERSEORDER>  (1) 
1
267
228
239
200
68
118
60
256
225
212
193
61
64
224
201
164
266
233
115
44
165
16
190
234
98
213
28
226
268
6
154
121
171
260
46
252
208
148
241
23
203
133
58
199
175
177
3
20
105
93
183
247
186
70
41
220
257
221
197
168
57
104
130
39
232
83
202
162
238
87
144
67
111
243
198
117
255
19
65
230
146
166
211
194
124
265
5
25
191
37
11
75
231
254
26
248
152
184
229
56
30
62
189
217
251
120
143
242
214
34
59
237
50
134
99
82
161
169
2
157
153
7
192
102
258
74
244
14
235
140
107
269
84
12
123
259
137
181
141
227
114
156
261
66
223
38
85
27
54
136
48
172
112
262
147
155
119
205
135
249
97
204
160
31
15
53
263
43
170
73
145
176
101
182
92
240
163
179
89
63
49
129
108
81
187
236
139
219
42
33
206
10
13
215
178
88
77
78
4
109
150
246
250
86
95
245
21
218
110
71
142
55
36
159
103
35
91
17
90
113
125
29
195
209
207
18
173
94
47
116
76
264
132
180
40
196
128
158
79
69
51
32
253
24
126
210
167
151
45
185
100
96
8
222
52
149
174
122
80
72
9
106
127
131
216
138
188
22

>  <PUBCHEM_MMFF94_PARTIAL_CHARGES>  (1) 
8
1 -0.57
13 0.5
26 0.15
35 0.06
4 0.14
5 0.14
8 -0.12
9 -0.29

>  <PUBCHEM_EFFECTIVE_ROTOR_COUNT>  (1) 
8

>  <PUBCHEM_PHARMACOPHORE_FEATURES>  (1) 
5
1 1 acceptor
1 11 hydrophobe
1 12 hydrophobe
4 5 6 8 10 hydrophobe
5 2 3 4 7 9 hydrophobe

>  <PUBCHEM_HEAVY_ATOM_COUNT>  (1) 
13

>  <PUBCHEM_ATOM_DEF_STEREO_COUNT>  (1) 
0

>  <PUBCHEM_ATOM_UDEF_STEREO_COUNT>  (1) 
0

>  <PUBCHEM_BOND_DEF_STEREO_COUNT>  (1) 
0

>  <PUBCHEM_BOND_UDEF_STEREO_COUNT>  (1) 
1

>  <PUBCHEM_ISOTOPIC_ATOM_COUNT>  (1) 
0

>  <PUBCHEM_COMPONENT_COUNT>  (1) 
1

>  <PUBCHEM_CACTVS_TAUTO_COUNT>  (1) 
1

>  <PUBCHEM_CONFORMER_ID>  (1) 
0000640A00000001

>  <PUBCHEM_MMFF94_ENERGY>  (1) 
-0.2866

>  <PUBCHEM_FEATURE_SELFOVERLAP>  (1) 
25.374

>  <PUBCHEM_SHAPE_FINGERPRINT>  (1) 
11221954 11 18199461082851155884
13083527 12 17259634067182546355
13294875 104 17613998486964235178
13764800 53 18335426742043854983
15295992 7 18123762945441221227
15342168 16 17416700235011646010
20304884 271 18125157139006813517
20388701 513 18335714857203639423
20605781 55 18270109098565826068
21524375 3 17831301597364896735
21650355 55 18045501064922981346
22182937 141 18270686346339100289
22959321 28 18194398025384457964
23503958 25 18341056302340866292
23557571 272 18335151915734891727
25610 171 18334583468154590695
2748010 2 18271255919369020726
3187 122 18261666098984269753
526903 126 18269825420413707173
6049 1 18199488622318484814
621550 5 17264470543791215438
8050 44 18200870678142955052
81228 2 18043838449308068779
84936 182 17400361144288605293
90316 7 18265614479567469434

>  <PUBCHEM_SHAPE_MULTIPOLES>  (1) 
261.66
6
3.53
1.35
6.14
3.04
0.18
2.99
2.05
-3.15
0.24
0.12
-0.52
2.22

>  <PUBCHEM_SHAPE_SELFOVERLAP>  (1) 
477.785

>  <PUBCHEM_SHAPE_VOLUME>  (1) 
166.7

>  <PUBCHEM_COORDINATE_TYPE>  (1) 
2
5
10

$$$$
