25612
     RDKit          3D

 11 10  0  0  0  0  0  0  0  0999 V2000
   -6.2250   -0.2690    0.0078 O   0  0  0  0  0  0  0  0  0  0  0  0
    0.0305    0.3775    0.0020 C   0  0  0  0  0  0  0  0  0  0  0  0
   -1.2574   -0.4435   -0.0977 C   0  0  0  0  0  0  0  0  0  0  0  0
    1.2669   -0.5239   -0.0034 C   0  0  0  0  0  0  0  0  0  0  0  0
   -2.4933    0.4575   -0.0546 C   0  0  0  0  0  0  0  0  0  0  0  0
    2.5527    0.2979    0.1297 C   0  0  0  0  0  0  0  0  0  0  0  0
   -3.8134   -0.3217   -0.0693 C   0  0  0  0  0  0  0  0  0  0  0  0
    3.8174   -0.5663    0.1574 C   0  0  0  0  0  0  0  0  0  0  0  0
   -5.0621    0.5443    0.0529 C   0  0  0  0  0  0  0  0  0  0  0  0
    5.0709    0.2339    0.3570 C   0  0  0  0  0  0  0  0  0  0  0  0
    6.1128    0.2135   -0.4818 C   0  0  0  0  0  0  0  0  0  0  0  0
  1  9  1  0
  2  3  1  0
  2  4  1  0
  3  5  1  0
  4  6  1  0
  5  7  1  0
  6  8  1  0
  7  9  1  0
  8 10  1  0
 10 11  2  0
M  END
>  <PUBCHEM_COMPOUND_CID>  (1) 
25612

>  <PUBCHEM_CONFORMER_RMSD>  (1) 
0.8

>  <PUBCHEM_CONFORMER_DIVERSEORDER>  (1) 
1
82
43
173
124
177
47
167
80
53
172
28
4
95
20
41
19
118
14
148
151
87
31
111
39
63
44
81
30
171
66
105
16
166
165
5
179
24
2
131
37
142
58
112
22
140
146
104
51
54
25
156
3
164
71
162
115
98
169
117
26
17
152
6
150
160
49
11
90
181
45
103
147
135
93
10
128
18
8
153
137
52
141
13
170
29
94
145
55
176
130
119
35
70
50
65
38
125
89
48
76
163
85
158
127
107
161
42
36
67
154
78
32
46
15
139
77
126
69
149
88
96
60
110
23
33
21
184
178
56
61
106
99
175
79
120
57
101
83
133
168
174
12
40
59
74
155
7
9
86
123
108
157
27
62
132
75
129
138
143
122
180
159
102
73
34
64
91
92
109
97
134
114
182
100
84
113
136
72
144
121
68
183
116

>  <PUBCHEM_MMFF94_PARTIAL_CHARGES>  (1) 
9
1 -0.68
10 -0.29
11 -0.3
28 0.15
29 0.4
30 0.15
31 0.15
8 0.14
9 0.28

>  <PUBCHEM_EFFECTIVE_ROTOR_COUNT>  (1) 
8

>  <PUBCHEM_PHARMACOPHORE_FEATURES>  (1) 
3
1 1 acceptor
1 1 donor
1 11 hydrophobe

>  <PUBCHEM_HEAVY_ATOM_COUNT>  (1) 
11

>  <PUBCHEM_ATOM_DEF_STEREO_COUNT>  (1) 
0

>  <PUBCHEM_ATOM_UDEF_STEREO_COUNT>  (1) 
0

>  <PUBCHEM_BOND_DEF_STEREO_COUNT>  (1) 
0

>  <PUBCHEM_BOND_UDEF_STEREO_COUNT>  (1) 
0

>  <PUBCHEM_ISOTOPIC_ATOM_COUNT>  (1) 
0

>  <PUBCHEM_COMPONENT_COUNT>  (1) 
1

>  <PUBCHEM_CACTVS_TAUTO_COUNT>  (1) 
1

>  <PUBCHEM_CONFORMER_ID>  (1) 
0000640C00000001

>  <PUBCHEM_MMFF94_ENERGY>  (1) 
0.7301

>  <PUBCHEM_FEATURE_SELFOVERLAP>  (1) 
15.223

>  <PUBCHEM_SHAPE_FINGERPRINT>  (1) 
12091667 2 18412544310806018785
12815109 37 12829207771488593105
13533116 47 18336260142394767090
14123238 8 18409729555952732144
1420 363 17846502538575923239
14251718 22 17894349981807853249
14251764 46 17489587857291358542
15242439 84 15985100825349465646
17834072 33 18410574019732846164
17834076 25 18410855464444241090
187816 3 15554447401080214931
20621476 8 9799425429233550379
20645477 70 18129383709735134702
20719005 15 18410854356321573232
20767249 13 8718827591540296358
20767249 213 17894351089909435092
21130983 4 17458069274534672468
23218964 4 11600007643462566387
23402539 116 17775559845297369717
23521765 1 18341894095129024864
366044 4 18407759239948844155
42788 4 18410855455833207496
8209 1 18410573989446424949

>  <PUBCHEM_SHAPE_MULTIPOLES>  (1) 
220.51
15.65
0.77
0.65
1.92
0.01
-0.01
-0.91
-0.52
0.03
0
-0.25
-0.01
-0.06

>  <PUBCHEM_SHAPE_SELFOVERLAP>  (1) 
391.083

>  <PUBCHEM_SHAPE_VOLUME>  (1) 
143.6

>  <PUBCHEM_COORDINATE_TYPE>  (1) 
2
5
10

$$$$
