25621
     RDKit          3D

  7  6  0  0  0  0  0  0  0  0999 V2000
   -3.1627   -0.1097    0.1793 Cl  0  0  0  0  0  0  0  0  0  0  0  0
    0.9184   -0.0184    0.0319 N   0  0  0  0  0  0  0  0  0  0  0  0
    1.8523   -0.4551    1.0118 N   0  0  0  0  0  0  0  0  0  0  0  0
   -0.4660   -0.2981    0.5662 C   0  0  0  0  0  0  0  0  0  0  0  0
    1.1604    1.4584   -0.1677 C   0  0  0  0  0  0  0  0  0  0  0  0
    1.2101   -0.8049   -1.2234 C   0  0  0  0  0  0  0  0  0  0  0  0
   -1.5125    0.2277   -0.3982 C   0  0  0  0  0  0  0  0  0  0  0  0
  1  7  1  0
  2  3  1  0
  2  4  1  0
  2  5  1  0
  2  6  1  0
  4  7  1  0
M  CHG  1   2   1
M  END
>  <PUBCHEM_COMPOUND_CID>  (1) 
25621

>  <PUBCHEM_CONFORMER_RMSD>  (1) 
0.4

>  <PUBCHEM_CONFORMER_DIVERSEORDER>  (1) 
1
4
5
6
3
2

>  <PUBCHEM_MMFF94_PARTIAL_CHARGES>  (1) 
9
1 -0.29
18 0.36
19 0.36
2 -0.75
3 -0.48
4 0.5
5 0.5
6 0.5
7 0.29

>  <PUBCHEM_EFFECTIVE_ROTOR_COUNT>  (1) 
2

>  <PUBCHEM_PHARMACOPHORE_FEATURES>  (1) 
1
1 3 donor

>  <PUBCHEM_HEAVY_ATOM_COUNT>  (1) 
7

>  <PUBCHEM_ATOM_DEF_STEREO_COUNT>  (1) 
0

>  <PUBCHEM_ATOM_UDEF_STEREO_COUNT>  (1) 
0

>  <PUBCHEM_BOND_DEF_STEREO_COUNT>  (1) 
0

>  <PUBCHEM_BOND_UDEF_STEREO_COUNT>  (1) 
0

>  <PUBCHEM_ISOTOPIC_ATOM_COUNT>  (1) 
0

>  <PUBCHEM_COMPONENT_COUNT>  (1) 
1

>  <PUBCHEM_CACTVS_TAUTO_COUNT>  (1) 
1

>  <PUBCHEM_CONFORMER_ID>  (1) 
0000641500000001

>  <PUBCHEM_MMFF94_ENERGY>  (1) 
18.4096

>  <PUBCHEM_FEATURE_SELFOVERLAP>  (1) 
5.074

>  <PUBCHEM_SHAPE_FINGERPRINT>  (1) 
12932764 1 17967257507467344467
20096714 4 18263362653968045549
21040471 1 17203040901992528151
23235687 12 18341325673819811359
23552449 11 18335134302105288905
24536 1 18202009832297533763
29004967 10 18060701671637670691
3248919 1 18130788971388665739
5460574 1 11959732672657945515
5943 1 9003171331790530580

>  <PUBCHEM_SHAPE_MULTIPOLES>  (1) 
135.96
3.53
1.07
1.01
3.36
0.09
-0.09
-0.06
-0.24
-0.58
0.33
-0.4
-0.06
0.03

>  <PUBCHEM_SHAPE_SELFOVERLAP>  (1) 
229.868

>  <PUBCHEM_SHAPE_VOLUME>  (1) 
94.8

>  <PUBCHEM_COORDINATE_TYPE>  (1) 
2
5
10

$$$$
