2564
     RDKit          3D

 20 21  0  0  1  0  0  0  0  0999 V2000
   -5.8219    1.6299   -0.3909 Cl  0  0  0  0  0  0  0  0  0  0  0  0
    0.7631    1.0270    0.0388 O   0  0  0  0  0  0  0  0  0  0  0  0
    4.4195    1.4385   -0.1780 N   0  0  0  0  0  0  0  0  0  0  0  0
    0.0061   -1.5946   -1.1102 N   0  0  0  0  0  0  0  0  0  0  0  0
   -0.1144    0.0809    0.6342 C   0  0  0  0  0  0  0  0  0  0  0  0
    2.1254    0.6881    0.2629 C   0  0  0  0  0  0  0  0  0  0  0  0
    3.0049    1.7375   -0.3979 C   0  0  0  0  0  0  0  0  0  0  0  0
   -1.5544    0.4725    0.3761 C   0  0  0  0  0  0  0  0  0  0  0  0
    0.2005   -1.3350    0.1915 C   0  0  0  0  0  0  0  0  0  0  0  0
   -2.5230    0.1294    1.3022 C   0  0  0  0  0  0  0  0  0  0  0  0
   -1.8684    1.1637   -0.7807 C   0  0  0  0  0  0  0  0  0  0  0  0
    0.6512   -2.2300    1.1315 C   0  0  0  0  0  0  0  0  0  0  0  0
    4.7124    1.3780    1.2535 C   0  0  0  0  0  0  0  0  0  0  0  0
    5.2612    2.4408   -0.8301 C   0  0  0  0  0  0  0  0  0  0  0  0
   -3.8495    0.4891    1.0640 C   0  0  0  0  0  0  0  0  0  0  0  0
   -3.1948    1.5236   -1.0190 C   0  0  0  0  0  0  0  0  0  0  0  0
   -4.1855    1.1864   -0.0966 C   0  0  0  0  0  0  0  0  0  0  0  0
    0.9308   -3.5197    0.6933 C   0  0  0  0  0  0  0  0  0  0  0  0
    0.2883   -2.8583   -1.4991 C   0  0  0  0  0  0  0  0  0  0  0  0
    0.7486   -3.8479   -0.6456 C   0  0  0  0  0  0  0  0  0  0  0  0
  1 17  1  0
  2  5  1  0
  2  6  1  0
  3  7  1  0
  3 13  1  0
  3 14  1  0
  4  9  2  0
  4 19  1  0
  5  8  1  0
  5  9  1  0
  6  7  1  0
  8 10  2  0
  8 11  1  0
  9 12  1  0
 10 15  1  0
 11 16  2  0
 12 18  2  0
 15 17  2  0
 16 17  1  0
 18 20  1  0
 19 20  2  0
M  END
>  <PUBCHEM_COMPOUND_CID>  (1) 
2564

>  <PUBCHEM_CONFORMER_RMSD>  (1) 
0.8

>  <PUBCHEM_CONFORMER_DIVERSEORDER>  (1) 
1
27
40
16
32
13
38
39
18
34
29
17
8
22
12
36
15
7
23
35
26
20
5
30
2
25
14
10
28
33
11
6
19
4
37
41
31
3
9
42
21
24

>  <PUBCHEM_MMFF94_PARTIAL_CHARGES>  (1) 
28
1 -0.18
10 -0.15
11 -0.15
12 -0.15
13 0.27
14 0.27
15 -0.15
16 -0.15
17 0.18
18 -0.15
19 0.16
2 -0.56
20 -0.15
26 0.15
27 0.15
28 0.15
3 -0.81
35 0.15
36 0.15
37 0.15
38 0.15
39 0.15
4 -0.62
5 0.57
6 0.28
7 0.27
8 -0.14
9 0.17

>  <PUBCHEM_EFFECTIVE_ROTOR_COUNT>  (1) 
6

>  <PUBCHEM_PHARMACOPHORE_FEATURES>  (1) 
5
1 2 acceptor
1 3 cation
1 4 acceptor
6 4 9 12 18 19 20 rings
6 8 10 11 15 16 17 rings

>  <PUBCHEM_HEAVY_ATOM_COUNT>  (1) 
20

>  <PUBCHEM_ATOM_DEF_STEREO_COUNT>  (1) 
0

>  <PUBCHEM_ATOM_UDEF_STEREO_COUNT>  (1) 
1

>  <PUBCHEM_BOND_DEF_STEREO_COUNT>  (1) 
0

>  <PUBCHEM_BOND_UDEF_STEREO_COUNT>  (1) 
0

>  <PUBCHEM_ISOTOPIC_ATOM_COUNT>  (1) 
0

>  <PUBCHEM_COMPONENT_COUNT>  (1) 
1

>  <PUBCHEM_CACTVS_TAUTO_COUNT>  (1) 
1

>  <PUBCHEM_CONFORMER_ID>  (1) 
00000A0400000001

>  <PUBCHEM_MMFF94_ENERGY>  (1) 
55.8188

>  <PUBCHEM_FEATURE_SELFOVERLAP>  (1) 
25.373

>  <PUBCHEM_SHAPE_FINGERPRINT>  (1) 
10764073 3 16156770728452939794
107951 10 18115323283998884454
10906281 52 17967829223449790149
11578080 2 15939211431985549126
12592029 89 18335981978373091642
12707595 3 17832153723345924595
12730499 353 18337963303122561881
12788726 201 17906443686665263914
13004483 165 17332522879183575950
13149001 5 17701536444633533184
13257819 101 17458610212590798197
133893 2 18123486981081534130
13681431 1 17837772231583729330
15502722 9 18338798884298150461
16752209 62 18124863805926390802
167882 2 18337957792547821086
17539 30 17766836504636810302
17980427 23 17095811026673415125
1813 80 17269198254680293799
18785283 64 18262233301318992570
18915476 22 18339091376098201131
20197701 30 18413106190690273202
204376 136 18410857680700314824
20554085 129 18058430097715752544
20600515 1 7853576845995057344
20645477 70 18266735776128921383
21033648 29 18340198708635583440
21054139 6 18199453519872326879
21120745 212 17181955756696381540
21524375 3 18338517542254455496
22224240 67 18269004235930772921
23419403 2 17551848806889557094
23557571 272 16806455691286720461
23558518 356 17835786870182497248
23559900 14 17973158431459793155
23598288 3 17536331558569088220
23728640 28 18194402419162570770
298252 57 18336263530785983224
3004659 81 13254808927783010380
3411729 13 18263079929414412249
3729539 64 18124339141902264414
3759504 43 18335985388624571056
53917941 68 18198328749141183188
559249 180 18338797918679549546
6025842 7 18340480050899719975
6138700 20 18194691367715043062
633830 44 17988100897333649884
6669772 16 18343027675192241662
7364860 26 18267304222886269987
77188 2 17543063481476921706
81228 2 17619334850548048018
81539 233 18409167675472619271
9841814 1 17829047611339206371
9862522 239 18334849571532740512

>  <PUBCHEM_SHAPE_MULTIPOLES>  (1) 
397.63
9.52
4.03
1.28
1.12
5
0.01
-12.37
-0.22
-3.74
-0.99
-0.02
0.35
0.14

>  <PUBCHEM_SHAPE_SELFOVERLAP>  (1) 
822.55

>  <PUBCHEM_SHAPE_VOLUME>  (1) 
229.9

>  <PUBCHEM_COORDINATE_TYPE>  (1) 
2
5
10

$$$$
