25641
     RDKit          3D

 15 15  0  0  0  0  0  0  0  0999 V2000
   -0.9089   -0.9422    0.6387 O   0  0  0  0  0  0  0  0  0  0  0  0
   -5.9343    0.9004   -0.6768 O   0  0  0  0  0  0  0  0  0  0  0  0
    3.9247   -0.4302   -0.1097 C   0  0  0  0  0  0  0  0  0  0  0  0
    2.6257    0.2814    0.2745 C   0  0  0  0  0  0  0  0  0  0  0  0
    5.1434    0.4970   -0.1308 C   0  0  0  0  0  0  0  0  0  0  0  0
    1.4489   -0.6928    0.3028 C   0  0  0  0  0  0  0  0  0  0  0  0
    6.4534   -0.2278   -0.4425 C   0  0  0  0  0  0  0  0  0  0  0  0
    0.1436    0.0124    0.6432 C   0  0  0  0  0  0  0  0  0  0  0  0
    7.6403    0.7218   -0.3808 C   0  0  0  0  0  0  0  0  0  0  0  0
   -2.1584   -0.4835    0.3114 C   0  0  0  0  0  0  0  0  0  0  0  0
   -2.5090    0.8288    0.6065 C   0  0  0  0  0  0  0  0  0  0  0  0
   -3.0620   -1.3362   -0.3122 C   0  0  0  0  0  0  0  0  0  0  0  0
   -3.7807    1.2950    0.2734 C   0  0  0  0  0  0  0  0  0  0  0  0
   -4.3337   -0.8699   -0.6454 C   0  0  0  0  0  0  0  0  0  0  0  0
   -4.6931    0.4457   -0.3526 C   0  0  0  0  0  0  0  0  0  0  0  0
  1  8  1  0
  1 10  1  0
  2 15  1  0
  3  4  1  0
  3  5  1  0
  4  6  1  0
  5  7  1  0
  6  8  1  0
  7  9  1  0
 10 11  2  0
 10 12  1  0
 11 13  1  0
 12 14  2  0
 13 15  2  0
 14 15  1  0
M  END
>  <PUBCHEM_COMPOUND_CID>  (1) 
25641

>  <PUBCHEM_CONFORMER_RMSD>  (1) 
0.8

>  <PUBCHEM_CONFORMER_DIVERSEORDER>  (1) 
1
52
45
22
25
65
23
58
12
56
41
64
36
9
27
38
2
28
11
69
14
60
39
4
33
67
3
21
40
61
7
62
68
66
5
24
16
46
31
15
30
6
50
59
10
13
18
29
17
8
37
55
51
49
32
57
20
48
43
47
34
26
44
63
42
53
19
35
54

>  <PUBCHEM_MMFF94_PARTIAL_CHARGES>  (1) 
14
1 -0.36
10 0.08
11 -0.15
12 -0.15
13 -0.15
14 -0.15
15 0.08
2 -0.53
31 0.15
32 0.15
33 0.15
34 0.15
35 0.45
8 0.28

>  <PUBCHEM_EFFECTIVE_ROTOR_COUNT>  (1) 
7

>  <PUBCHEM_PHARMACOPHORE_FEATURES>  (1) 
5
1 1 acceptor
1 2 donor
1 9 hydrophobe
5 3 4 5 6 7 hydrophobe
6 10 11 12 13 14 15 rings

>  <PUBCHEM_HEAVY_ATOM_COUNT>  (1) 
15

>  <PUBCHEM_ATOM_DEF_STEREO_COUNT>  (1) 
0

>  <PUBCHEM_ATOM_UDEF_STEREO_COUNT>  (1) 
0

>  <PUBCHEM_BOND_DEF_STEREO_COUNT>  (1) 
0

>  <PUBCHEM_BOND_UDEF_STEREO_COUNT>  (1) 
0

>  <PUBCHEM_ISOTOPIC_ATOM_COUNT>  (1) 
0

>  <PUBCHEM_COMPONENT_COUNT>  (1) 
1

>  <PUBCHEM_CACTVS_TAUTO_COUNT>  (1) 
2

>  <PUBCHEM_CONFORMER_ID>  (1) 
0000642900000001

>  <PUBCHEM_MMFF94_ENERGY>  (1) 
26.8627

>  <PUBCHEM_FEATURE_SELFOVERLAP>  (1) 
25.371

>  <PUBCHEM_SHAPE_FINGERPRINT>  (1) 
10968037 39 18272369780471872309
11089746 13 18114180861262787084
11315181 36 17703793638735770104
12091667 2 18409452505124853802
12714333 28 18333732420912129618
13288520 33 12175620676986312587
13533116 47 17095511865596327704
13668630 136 14979956982203597220
1420 363 12535347900815086340
14251718 22 18131071545771548094
14729087 3 18040149626557217620
15048467 5 17894911828318728356
15183329 4 18411421679395798738
15242439 84 17989202659460660938
15348495 7 13118295810419545588
15716309 27 10231755587413297180
17834072 33 18272931644120353514
17834072 8 18273495676173561280
17834076 25 17821447967525137706
17870717 6 17775574143201306591
18335252 98 18260272958519128083
19489759 90 18272371970984314624
200 152 15698000721302130843
20281389 69 17385720292825230900
20645477 70 17845942810528904694
20767249 213 17676207969978926633
21150785 3 16702301270080833480
21267235 1 18270962453466234763
22224240 67 13262401076498565992
2297311 6 17775567546289711009
23035841 295 10807938163417448260
23402539 116 18410290324374003646
23402655 69 18411980230485050931
23466295 7 15337402801045986589
23559900 14 17988352767126929720
2767999 5 17894067412136851516
300161 21 18259701199255057306
351380 3 12391514170298714692
3545911 37 18411700984802134179
42788 4 18412265047610917042
59755656 520 17095240336704058546

>  <PUBCHEM_SHAPE_MULTIPOLES>  (1) 
296.95
18.06
1.17
0.79
27.07
0.01
0
-3.93
5.25
-1.15
0.02
-0.23
0
-0.18

>  <PUBCHEM_SHAPE_SELFOVERLAP>  (1) 
585.053

>  <PUBCHEM_SHAPE_VOLUME>  (1) 
178.8

>  <PUBCHEM_COORDINATE_TYPE>  (1) 
2
5
10

$$$$
