25653
     RDKit          3D

 14 15  0  0  0  0  0  0  0  0999 V2000
    2.9707   -0.3620    1.4831 O   0  0  0  0  0  0  0  0  0  0  0  0
    4.7483   -0.5035    0.0331 N   0  0  0  0  0  0  0  0  0  0  0  0
   -3.5642   -1.2619   -0.2136 C   0  0  0  0  0  0  0  0  0  0  0  0
   -3.8193   -0.0979    0.7352 C   0  0  0  0  0  0  0  0  0  0  0  0
   -2.0990   -1.6894   -0.1523 C   0  0  0  0  0  0  0  0  0  0  0  0
   -2.9932    1.1190    0.3226 C   0  0  0  0  0  0  0  0  0  0  0  0
   -1.1369   -0.5304   -0.2326 C   0  0  0  0  0  0  0  0  0  0  0  0
   -1.5507    0.7886    0.0304 C   0  0  0  0  0  0  0  0  0  0  0  0
    0.2129   -0.7844   -0.5201 C   0  0  0  0  0  0  0  0  0  0  0  0
   -0.6134    1.8306   -0.0356 C   0  0  0  0  0  0  0  0  0  0  0  0
    1.1365    0.2590   -0.5727 C   0  0  0  0  0  0  0  0  0  0  0  0
    0.7231    1.5661   -0.3332 C   0  0  0  0  0  0  0  0  0  0  0  0
    2.5667   -0.0258   -0.8856 C   0  0  0  0  0  0  0  0  0  0  0  0
    3.4185   -0.3080    0.3412 C   0  0  0  0  0  0  0  0  0  0  0  0
  1 14  2  0
  2 14  1  0
  3  4  1  0
  3  5  1  0
  4  6  1  0
  5  7  1  0
  6  8  1  0
  7  8  2  0
  7  9  1  0
  8 10  1  0
  9 11  2  0
 10 12  2  0
 11 12  1  0
 11 13  1  0
 13 14  1  0
M  END
>  <PUBCHEM_COMPOUND_CID>  (1) 
25653

>  <PUBCHEM_CONFORMER_RMSD>  (1) 
0.6

>  <PUBCHEM_CONFORMER_DIVERSEORDER>  (1) 
1
4
10
6
14
15
3
9
13
5
12
8
2
11
7

>  <PUBCHEM_MMFF94_PARTIAL_CHARGES>  (1) 
17
1 -0.57
10 -0.15
11 -0.14
12 -0.15
13 0.2
14 0.57
2 -0.8
23 0.15
24 0.15
25 0.15
28 0.37
29 0.37
5 0.14
6 0.14
7 -0.14
8 -0.14
9 -0.15

>  <PUBCHEM_EFFECTIVE_ROTOR_COUNT>  (1) 
2.8

>  <PUBCHEM_PHARMACOPHORE_FEATURES>  (1) 
4
1 1 acceptor
1 2 donor
6 3 4 5 6 7 8 rings
6 7 8 9 10 11 12 rings

>  <PUBCHEM_HEAVY_ATOM_COUNT>  (1) 
14

>  <PUBCHEM_ATOM_DEF_STEREO_COUNT>  (1) 
0

>  <PUBCHEM_ATOM_UDEF_STEREO_COUNT>  (1) 
0

>  <PUBCHEM_BOND_DEF_STEREO_COUNT>  (1) 
0

>  <PUBCHEM_BOND_UDEF_STEREO_COUNT>  (1) 
0

>  <PUBCHEM_ISOTOPIC_ATOM_COUNT>  (1) 
0

>  <PUBCHEM_COMPONENT_COUNT>  (1) 
1

>  <PUBCHEM_CACTVS_TAUTO_COUNT>  (1) 
2

>  <PUBCHEM_CONFORMER_ID>  (1) 
0000643500000001

>  <PUBCHEM_MMFF94_ENERGY>  (1) 
26.4646

>  <PUBCHEM_FEATURE_SELFOVERLAP>  (1) 
20.318

>  <PUBCHEM_SHAPE_FINGERPRINT>  (1) 
10062212 137 18334574642408130643
10130415 120 18335424607534701661
11132069 177 18271813397592018421
11543360 7 15285931328385742111
11578080 2 17750492105413469684
11769659 78 18261954158366826135
12032990 46 18412553106107912871
12119455 92 16630241424714937412
12251169 10 18342177769160730569
12382932 28 18343305833894516777
124424 183 18259702311551178239
13140716 1 18269282412135411385
13214271 11 18131066017689800005
13581323 91 18411135822977387628
13705890 14 15502381153154220664
13760787 5 18113625620284889613
14144814 61 18408889554986712071
14289901 80 15985101911970890967
15219456 202 17703235001045675534
15375462 189 18040714766495261842
16945 1 18341339911594439909
17804303 29 18343868826644818608
18175812 5 17632857538131710740
18186145 218 12035446155358294951
19026448 4 15913340073839346365
200 152 16443062786064394228
20361792 2 17675919923660094405
20510252 161 18129666283495316912
20871998 184 18201436956484800734
21267235 1 18337121128096169735
21501502 16 18196942277916239669
21501925 9 18341890848334235237
22959321 94 18407757032261372154
2297311 6 18272384040301385044
232386 152 18410017670959464743
23380061 330 18343302578504485383
23402539 116 18201431481081947783
23402655 69 8213598632119703091
23463225 33 18408326600569486109
23532345 42 18341324574271435680
23552423 10 17901956562468760765
23559900 14 18200883846950424550
2748010 2 18269559519093601661
43471831 8 18262798454337916522
474 4 17315649653780255508
5104073 3 18269567203116869619
5902787 121 18337392758970518395
7364860 26 18125723632588361364
77492 1 17894636941531673508
90316 7 18261952942654366981

>  <PUBCHEM_SHAPE_MULTIPOLES>  (1) 
277.26
7.14
1.6
0.89
3.81
0.31
0.15
-2.08
1.52
-1
-0.11
0.41
-0.06
-0.35

>  <PUBCHEM_SHAPE_SELFOVERLAP>  (1) 
584.52

>  <PUBCHEM_SHAPE_VOLUME>  (1) 
155.4

>  <PUBCHEM_COORDINATE_TYPE>  (1) 
2
5
10

$$$$
