25654
     RDKit          3D

 28 30  0  0  1  0  0  0  0  0999 V2000
   -3.3961    0.9089   -1.5469 O   0  0  0  0  0  0  0  0  0  0  0  0
    3.1683   -2.0828    0.1949 O   0  0  0  0  0  0  0  0  0  0  0  0
    7.7241   -0.9821   -0.0202 O   0  0  0  0  0  0  0  0  0  0  0  0
   -7.0272   -2.7386   -0.9445 O   0  0  0  0  0  0  0  0  0  0  0  0
   -8.5761    1.4271    0.7969 O   0  0  0  0  0  0  0  0  0  0  0  0
    2.6685    0.8420   -0.1860 N   0  0  0  0  0  0  0  0  0  0  0  0
   -1.5111    0.5406    0.5981 N   0  0  0  0  0  0  0  0  0  0  0  0
    6.1694    0.7371   -0.2244 N   0  0  0  0  0  0  0  0  0  0  0  0
    5.4558   -1.5561    0.0900 N   0  0  0  0  0  0  0  0  0  0  0  0
    4.3078    2.3364   -0.4081 N   0  0  0  0  0  0  0  0  0  0  0  0
    1.3247    0.3227   -0.0962 C   0  0  0  0  0  0  0  0  0  0  0  0
    0.8111    0.3008    1.3431 C   0  0  0  0  0  0  0  0  0  0  0  0
    3.8375    0.1406   -0.1112 C   0  0  0  0  0  0  0  0  0  0  0  0
   -0.6063   -0.2634    1.4110 C   0  0  0  0  0  0  0  0  0  0  0  0
    4.8241    1.0783   -0.2497 C   0  0  0  0  0  0  0  0  0  0  0  0
   -2.8652    0.0070    0.6460 C   0  0  0  0  0  0  0  0  0  0  0  0
    3.0034    2.1594   -0.3649 C   0  0  0  0  0  0  0  0  0  0  0  0
    4.0678   -1.2561    0.0707 C   0  0  0  0  0  0  0  0  0  0  0  0
   -3.8215    0.8709   -0.1853 C   0  0  0  0  0  0  0  0  0  0  0  0
    6.5426   -0.6192   -0.0508 C   0  0  0  0  0  0  0  0  0  0  0  0
   -5.2336    0.3292   -0.1460 C   0  0  0  0  0  0  0  0  0  0  0  0
    7.1907    1.7660   -0.3752 C   0  0  0  0  0  0  0  0  0  0  0  0
    5.8196   -2.9577    0.2712 C   0  0  0  0  0  0  0  0  0  0  0  0
   -6.2563    1.1417    0.3122 C   0  0  0  0  0  0  0  0  0  0  0  0
   -5.4725   -0.9670   -0.5686 C   0  0  0  0  0  0  0  0  0  0  0  0
   -6.7743   -1.4663   -0.5320 C   0  0  0  0  0  0  0  0  0  0  0  0
   -7.5582    0.6422    0.3489 C   0  0  0  0  0  0  0  0  0  0  0  0
   -7.8171   -0.6617   -0.0731 C   0  0  0  0  0  0  0  0  0  0  0  0
  1 19  1  0
  2 18  2  0
  3 20  2  0
  4 26  1  0
  5 27  1  0
  6 11  1  0
  6 13  1  0
  6 17  1  0
  7 14  1  0
  7 16  1  0
  8 15  1  0
  8 20  1  0
  8 22  1  0
  9 18  1  0
  9 20  1  0
  9 23  1  0
 10 15  1  0
 10 17  2  0
 11 12  1  0
 12 14  1  0
 13 15  2  0
 13 18  1  0
 16 19  1  0
 19 21  1  0
 21 24  2  0
 21 25  1  0
 24 27  1  0
 25 26  2  0
 26 28  1  0
 27 28  2  0
M  END
>  <PUBCHEM_COMPOUND_CID>  (1) 
25654

>  <PUBCHEM_CONFORMER_RMSD>  (1) 
0.8

>  <PUBCHEM_CONFORMER_DIVERSEORDER>  (1) 
4
184
28
254
6
90
218
156
163
69
161
117
270
20
111
203
180
258
113
141
110
201
123
7
173
164
244
253
268
50
229
176
63
52
165
1
261
17
107
234
31
91
78
101
3
32
188
18
243
9
233
80
72
264
38
193
208
74
142
11
49
127
248
43
145
2
81
211
137
5
256
247
265
35
152
186
66
167
55
96
93
150
67
125
14
126
260
58
26
249
68
54
155
53
65
232
70
133
172
42
210
15
8
134
56
22
220
73
44
224
37
95
41
82
144
190
146
215
122
76
187
129
139
136
46
209
88
140
75
162
92
169
118
177
238
192
222
121
213
178
106
105
255
79
109
116
154
181
266
227
183
269
24
214
235
237
143
64
240
168
83
60
130
241
29
262
196
160
200
87
189
119
135
99
102
114
40
198
62
205
221
51
250
34
185
157
33
103
39
27
131
263
19
151
59
251
245
61
10
259
206
25
115
216
36
147
21
226
267
148
191
225
212
30
48
202
100
204
228
219
257
174
195
97
171
194
197
246
128
112
45
23
153
149
159
13
239
170
158
47
132
94
84
199
182
16
217
86
57
231
175
166
120
71
207
138
252
89
179
12
223
242
104
108
98
230
77
85
124
236

>  <PUBCHEM_MMFF94_PARTIAL_CHARGES>  (1) 
35
1 -0.68
10 -0.57
11 0.26
13 -0.24
14 0.27
15 0.29
16 0.27
17 0.04
18 0.71
19 0.42
2 -0.57
20 0.69
21 -0.14
22 0.3
23 0.3
24 -0.15
25 -0.15
26 0.08
27 0.08
28 -0.15
3 -0.57
37 0.36
38 0.15
4 -0.53
46 0.15
47 0.15
48 0.4
49 0.15
5 -0.53
50 0.45
51 0.45
6 0.05
7 -0.9
8 -0.42
9 -0.42

>  <PUBCHEM_EFFECTIVE_ROTOR_COUNT>  (1) 
7

>  <PUBCHEM_PHARMACOPHORE_FEATURES>  (1) 
12
1 1 acceptor
1 1 donor
1 2 acceptor
1 3 acceptor
1 4 donor
1 5 donor
1 7 cation
1 7 donor
3 6 10 17 cation
5 6 10 13 15 17 rings
6 21 24 25 26 27 28 rings
6 8 9 13 15 18 20 rings

>  <PUBCHEM_HEAVY_ATOM_COUNT>  (1) 
28

>  <PUBCHEM_ATOM_DEF_STEREO_COUNT>  (1) 
0

>  <PUBCHEM_ATOM_UDEF_STEREO_COUNT>  (1) 
1

>  <PUBCHEM_BOND_DEF_STEREO_COUNT>  (1) 
0

>  <PUBCHEM_BOND_UDEF_STEREO_COUNT>  (1) 
0

>  <PUBCHEM_ISOTOPIC_ATOM_COUNT>  (1) 
0

>  <PUBCHEM_COMPONENT_COUNT>  (1) 
1

>  <PUBCHEM_CACTVS_TAUTO_COUNT>  (1) 
5

>  <PUBCHEM_CONFORMER_ID>  (1) 
0000643600000004

>  <PUBCHEM_MMFF94_ENERGY>  (1) 
47.7476

>  <PUBCHEM_FEATURE_SELFOVERLAP>  (1) 
61.014

>  <PUBCHEM_SHAPE_FINGERPRINT>  (1) 
10299344 5 18342458145327387923
10411042 1 18047752595546462690
10595046 47 18412265029893380585
10670039 82 15792007827305273709
11315181 36 18131073745369875505
11524674 6 16271924939842323407
11719270 70 17560803208084753758
11991303 11 15285649819513686899
12082328 90 18411699907519632439
12166972 35 18334296478509054549
12838862 33 14620506779929643509
13533116 47 18411418397750705888
1361 4 18413106177927502791
13668630 136 18060424599202976774
14170010 4 18260268551660882484
14251764 18 18343020008026277733
14681490 219 18261108543525739296
14933364 13 18335139791553833365
15119646 104 18343305833847277994
15183329 4 18260827103098177747
15352257 5 18413669119586005135
15419008 47 17022617576757615253
1577012 14 18413387644524346391
19841028 212 18270963419755554258
20157964 124 18335141999261689776
21150785 3 18407759248364224786
21315759 40 18342461452304733713
21792938 703 17750239274359496347
221357 26 18186518791462661660
22224240 67 11455889156804952173
22956985 138 16627172576842168038
23198884 109 18408887339522150457
23516275 137 18057627411843149203
23522609 53 18057631891593902561
2747138 104 16805333193363649953
3004659 81 18410570682353379410
335352 9 18334864914379989206
4073 2 17968101979315504946
4098825 35 18409448055681413225
4325135 7 18411136944348954415
4339292 15 16773223107778875255
439807 62 18272088284099771553
5283156 175 18131635560375874569
59755656 215 17168142321364718058
9663363 56 15841548557230754401
99344 41 18342176639959436935

>  <PUBCHEM_SHAPE_MULTIPOLES>  (1) 
521.98
28.05
2.33
0.93
23.28
1.02
0.09
3.73
-2.51
-2.46
-0.33
0.74
-0.02
-1.83

>  <PUBCHEM_SHAPE_SELFOVERLAP>  (1) 
1111.942

>  <PUBCHEM_SHAPE_VOLUME>  (1) 
290.8

>  <PUBCHEM_COORDINATE_TYPE>  (1) 
2
5
10

$$$$
