25669
     RDKit          3D

 20 21  0  0  1  0  0  0  0  0999 V2000
    1.5013   -1.7008    2.4425 S   0  0  0  0  0  0  0  0  0  0  0  0
    1.5051   -1.0296    0.5979 P   0  0  0  0  0  0  0  0  0  0  0  0
    0.2210   -1.5500   -0.2677 O   0  0  0  0  0  0  0  0  0  0  0  0
    2.6900   -1.7122   -0.3012 O   0  0  0  0  0  0  0  0  0  0  0  0
   -6.1258    0.6911    0.1129 N   0  0  0  0  0  0  0  0  0  0  0  0
    1.6455    0.7009    0.1882 C   0  0  0  0  0  0  0  0  0  0  0  0
    1.2373    1.1385   -1.0620 C   0  0  0  0  0  0  0  0  0  0  0  0
    2.1606    1.5817    1.1261 C   0  0  0  0  0  0  0  0  0  0  0  0
   -1.0603   -1.0976   -0.1907 C   0  0  0  0  0  0  0  0  0  0  0  0
    4.0423   -1.3259   -0.1158 C   0  0  0  0  0  0  0  0  0  0  0  0
    1.3470    2.4916   -1.3824 C   0  0  0  0  0  0  0  0  0  0  0  0
    2.2705    2.9349    0.8056 C   0  0  0  0  0  0  0  0  0  0  0  0
    1.8635    3.3898   -0.4487 C   0  0  0  0  0  0  0  0  0  0  0  0
   -1.3877   -0.0786    0.7038 C   0  0  0  0  0  0  0  0  0  0  0  0
   -2.0462   -1.6530   -1.0062 C   0  0  0  0  0  0  0  0  0  0  0  0
    4.9149   -2.1111   -1.0717 C   0  0  0  0  0  0  0  0  0  0  0  0
   -2.7009    0.3851    0.7825 C   0  0  0  0  0  0  0  0  0  0  0  0
   -3.3594   -1.1894   -0.9275 C   0  0  0  0  0  0  0  0  0  0  0  0
   -3.6867   -0.1703   -0.0331 C   0  0  0  0  0  0  0  0  0  0  0  0
   -5.0319    0.3048    0.0475 C   0  0  0  0  0  0  0  0  0  0  0  0
  1  2  2  0
  2  3  1  0
  2  4  1  0
  2  6  1  0
  3  9  1  0
  4 10  1  0
  5 20  3  0
  6  7  2  0
  6  8  1  0
  7 11  1  0
  8 12  2  0
  9 14  2  0
  9 15  1  0
 10 16  1  0
 11 13  2  0
 12 13  1  0
 14 17  1  0
 15 18  2  0
 17 19  2  0
 18 19  1  0
 19 20  1  0
M  END
>  <PUBCHEM_COMPOUND_CID>  (1) 
25669

>  <PUBCHEM_CONFORMER_RMSD>  (1) 
0.8

>  <PUBCHEM_CONFORMER_DIVERSEORDER>  (1) 
1
15
10
9
4
12
3
8
16
7
11
13
14
2
5
6

>  <PUBCHEM_MMFF94_PARTIAL_CHARGES>  (1) 
28
1 -0.68
10 0.28
11 -0.15
12 -0.15
13 -0.15
14 -0.15
15 -0.15
17 -0.15
18 -0.15
19 0.07
2 1.36
20 0.48
21 0.15
22 0.15
25 0.15
26 0.15
27 0.15
28 0.15
29 0.15
3 -0.35
33 0.15
34 0.15
4 -0.55
5 -0.56
6 -0.14
7 -0.15
8 -0.15
9 0.08

>  <PUBCHEM_EFFECTIVE_ROTOR_COUNT>  (1) 
5

>  <PUBCHEM_PHARMACOPHORE_FEATURES>  (1) 
3
1 5 acceptor
6 6 7 8 11 12 13 rings
6 9 14 15 17 18 19 rings

>  <PUBCHEM_HEAVY_ATOM_COUNT>  (1) 
20

>  <PUBCHEM_ATOM_DEF_STEREO_COUNT>  (1) 
0

>  <PUBCHEM_ATOM_UDEF_STEREO_COUNT>  (1) 
1

>  <PUBCHEM_BOND_DEF_STEREO_COUNT>  (1) 
0

>  <PUBCHEM_BOND_UDEF_STEREO_COUNT>  (1) 
0

>  <PUBCHEM_ISOTOPIC_ATOM_COUNT>  (1) 
0

>  <PUBCHEM_COMPONENT_COUNT>  (1) 
1

>  <PUBCHEM_CACTVS_TAUTO_COUNT>  (1) 
1

>  <PUBCHEM_CONFORMER_ID>  (1) 
0000644500000001

>  <PUBCHEM_MMFF94_ENERGY>  (1) 
39.1508

>  <PUBCHEM_FEATURE_SELFOVERLAP>  (1) 
15.223

>  <PUBCHEM_SHAPE_FINGERPRINT>  (1) 
10366900 7 17312824862247228379
10382601 240 17969765540376648776
104564 63 18046626703226637116
10465860 228 18337668740721279637
10906281 52 18188776192762916480
11640471 11 18122332743038656605
12166972 35 18202562852671766841
12553582 1 18263630788924404698
12617007 42 18341339911763154134
12633257 1 16082198774840507497
12788726 201 18046350730578397178
13134695 92 18410576176043792796
13149001 5 18042424563312487658
13583140 156 17968101885453666507
13590594 115 18337964367589233872
14115302 16 17632857529615999347
14170010 4 18413389843157445672
14713325 29 15944050765533602660
14955137 171 18125749840367759322
15238133 3 17459741536656304129
15490181 8 17683523214533989954
1601671 61 18195809557353144645
17492 89 18270397338100912055
17980427 23 17914300663248855258
1813 80 18269849622786275686
18186145 218 18186790401326527319
18335252 114 18340480059738178805
18981168 100 17826813708453542722
20671657 1 18339929323705980188
21033648 29 17559092299615017635
21285901 2 17914061893512361974
21503847 285 18408039615445094835
21524375 3 17757537930510697472
2255824 54 18261387879682251970
23419403 2 15076988827773676314
23557571 272 14548472288182827267
23558518 356 17755578587895056250
23559900 14 18059849575959660795
312423 11 18271247248104759183
3250762 1 17682984415403753202
350125 39 18339929208348985625
474 4 18042677489414403417
57262259 84 17982460291657360654
5895379 119 17131009571901629585
633830 44 18187640362411293243
7364860 26 18342455997495599792
9971528 1 18272365356782268394
9981440 41 17620749922456517008
9999458 23 18186523215389343535

>  <PUBCHEM_SHAPE_MULTIPOLES>  (1) 
402.57
8.97
3.24
1.48
10.7
2.47
-0.57
-1.86
1.33
-4.28
0.32
-0.92
-0.42
-0.05

>  <PUBCHEM_SHAPE_SELFOVERLAP>  (1) 
819.536

>  <PUBCHEM_SHAPE_VOLUME>  (1) 
233.4

>  <PUBCHEM_COORDINATE_TYPE>  (1) 
2
5
10

$$$$
