25663
     RDKit          3D

 13 13  0  0  0  0  0  0  0  0999 V2000
   -0.0815   -1.2588    0.3309 C   0  0  0  0  0  0  0  0  0  0  0  0
   -1.3331   -1.8570   -0.3570 C   0  0  0  0  0  0  0  0  0  0  0  0
    1.1918   -1.9670   -0.1923 C   0  0  0  0  0  0  0  0  0  0  0  0
    0.0048    0.2529    0.1604 C   0  0  0  0  0  0  0  0  0  0  0  0
    0.6746    0.7620   -0.9323 C   0  0  0  0  0  0  0  0  0  0  0  0
   -0.5894    1.0639    1.1043 C   0  0  0  0  0  0  0  0  0  0  0  0
   -2.6257   -1.3389    0.2117 C   0  0  0  0  0  0  0  0  0  0  0  0
    2.4377   -1.5424    0.5343 C   0  0  0  0  0  0  0  0  0  0  0  0
    0.7540    2.1459   -1.0882 C   0  0  0  0  0  0  0  0  0  0  0  0
   -0.5102    2.4477    0.9484 C   0  0  0  0  0  0  0  0  0  0  0  0
    0.1616    2.9887   -0.1479 C   0  0  0  0  0  0  0  0  0  0  0  0
   -3.5726   -0.7349   -0.5151 C   0  0  0  0  0  0  0  0  0  0  0  0
    3.4878   -0.9620   -0.0572 C   0  0  0  0  0  0  0  0  0  0  0  0
  1  2  1  0
  1  3  1  0
  1  4  1  0
  2  7  1  0
  3  8  1  0
  4  5  2  0
  4  6  1  0
  5  9  1  0
  6 10  2  0
  7 12  2  0
  8 13  2  0
  9 11  2  0
 10 11  1  0
M  END
>  <PUBCHEM_COMPOUND_CID>  (1) 
25663

>  <PUBCHEM_CONFORMER_RMSD>  (1) 
0.6

>  <PUBCHEM_CONFORMER_DIVERSEORDER>  (1) 
1
25
18
11
24
2
23
21
20
5
8
3
22
19
12
17
7
14
6
13
10
16
4
9
15

>  <PUBCHEM_MMFF94_PARTIAL_CHARGES>  (1) 
24
1 0.14
10 -0.15
11 -0.15
12 -0.3
13 -0.3
19 0.15
2 0.14
20 0.15
21 0.15
22 0.15
23 0.15
24 0.15
25 0.15
26 0.15
27 0.15
28 0.15
29 0.15
3 0.14
4 -0.14
5 -0.15
6 -0.15
7 -0.29
8 -0.29
9 -0.15

>  <PUBCHEM_EFFECTIVE_ROTOR_COUNT>  (1) 
5

>  <PUBCHEM_PHARMACOPHORE_FEATURES>  (1) 
4
1 12 hydrophobe
1 13 hydrophobe
5 1 2 3 7 8 hydrophobe
6 4 5 6 9 10 11 rings

>  <PUBCHEM_HEAVY_ATOM_COUNT>  (1) 
13

>  <PUBCHEM_ATOM_DEF_STEREO_COUNT>  (1) 
0

>  <PUBCHEM_ATOM_UDEF_STEREO_COUNT>  (1) 
0

>  <PUBCHEM_BOND_DEF_STEREO_COUNT>  (1) 
0

>  <PUBCHEM_BOND_UDEF_STEREO_COUNT>  (1) 
0

>  <PUBCHEM_ISOTOPIC_ATOM_COUNT>  (1) 
0

>  <PUBCHEM_COMPONENT_COUNT>  (1) 
1

>  <PUBCHEM_CACTVS_TAUTO_COUNT>  (1) 
1

>  <PUBCHEM_CONFORMER_ID>  (1) 
0000643F00000001

>  <PUBCHEM_MMFF94_ENERGY>  (1) 
29.4822

>  <PUBCHEM_FEATURE_SELFOVERLAP>  (1) 
20.297

>  <PUBCHEM_SHAPE_FINGERPRINT>  (1) 
1 1 17832987522030632935
13132413 78 18413387652766342157
13294875 104 17697594751197861841
16945 1 18119250811697905239
18410436 195 18340477941427374591
20388701 513 18268986484113928939
20671657 1 18125721433960328955
20871998 184 17760106020058256985
21041028 32 18337969947389411795
21501502 16 17978795606248627154
21524375 3 17261602184257741287
22112679 90 18128002786858344257
23388829 49 18337687342372227680
23419403 2 17983259786169990568
25 1 17478636936380191629
2748010 2 18339907273333235370
305870 269 17762047044791692905
3071541 158 18334851762066470199
3250762 1 17682967952192967819
7364860 26 18124029297980630643
81228 2 18193844742832980866

>  <PUBCHEM_SHAPE_MULTIPOLES>  (1) 
267.53
3.9
3.37
1.01
0.54
2.27
-0.01
-3.3
0.3
-0.3
0
0.01
0.43
-0.54

>  <PUBCHEM_SHAPE_SELFOVERLAP>  (1) 
538.587

>  <PUBCHEM_SHAPE_VOLUME>  (1) 
152.7

>  <PUBCHEM_COORDINATE_TYPE>  (1) 
2
5
10

$$$$
