25668
     RDKit          3D

 29 32  0  0  0  0  0  0  0  0999 V2000
   -2.9046    3.2258    0.2844 S   0  0  0  0  0  0  0  0  0  0  0  0
    6.9632   -0.0833    1.3029 O   0  0  0  0  0  0  0  0  0  0  0  0
    3.2402    1.5479   -1.9098 O   0  0  0  0  0  0  0  0  0  0  0  0
    4.5344   -0.1601   -0.1791 N   0  0  0  0  0  0  0  0  0  0  0  0
   -2.0870    0.2370    0.5375 N   0  0  0  0  0  0  0  0  0  0  0  0
   -1.1555   -4.4643   -0.6746 N   0  0  0  0  0  0  0  0  0  0  0  0
   -1.6641   -1.0637    1.0724 C   0  0  0  0  0  0  0  0  0  0  0  0
    4.9575    1.0489    0.5411 C   0  0  0  0  0  0  0  0  0  0  0  0
    5.0642   -1.3562    0.4903 C   0  0  0  0  0  0  0  0  0  0  0  0
   -1.0727    1.1154    0.0792 C   0  0  0  0  0  0  0  0  0  0  0  0
    3.0776   -0.2227   -0.2770 C   0  0  0  0  0  0  0  0  0  0  0  0
   -1.6123   -2.1135   -0.0370 C   0  0  0  0  0  0  0  0  0  0  0  0
   -3.4801    0.4890    0.4597 C   0  0  0  0  0  0  0  0  0  0  0  0
    6.4798    1.0859    0.6407 C   0  0  0  0  0  0  0  0  0  0  0  0
    6.5839   -1.2626    0.5923 C   0  0  0  0  0  0  0  0  0  0  0  0
   -1.3281    2.4895   -0.0988 C   0  0  0  0  0  0  0  0  0  0  0  0
    1.2169    1.5195   -0.7161 C   0  0  0  0  0  0  0  0  0  0  0  0
    0.2206    0.6558   -0.2529 C   0  0  0  0  0  0  0  0  0  0  0  0
   -1.2337   -3.5211    0.4342 C   0  0  0  0  0  0  0  0  0  0  0  0
    2.5396    1.0031   -1.0317 C   0  0  0  0  0  0  0  0  0  0  0  0
   -3.9741    1.8011    0.3194 C   0  0  0  0  0  0  0  0  0  0  0  0
   -0.3204    3.3549   -0.5606 C   0  0  0  0  0  0  0  0  0  0  0  0
    0.9470    2.8712   -0.8669 C   0  0  0  0  0  0  0  0  0  0  0  0
   -4.4312   -0.5546    0.4822 C   0  0  0  0  0  0  0  0  0  0  0  0
   -5.3565    2.0447    0.2354 C   0  0  0  0  0  0  0  0  0  0  0  0
   -5.8038   -0.3073    0.3932 C   0  0  0  0  0  0  0  0  0  0  0  0
   -6.2670    0.9941    0.2732 C   0  0  0  0  0  0  0  0  0  0  0  0
   -0.6736   -5.7668   -0.2108 C   0  0  0  0  0  0  0  0  0  0  0  0
   -2.4605   -4.6078   -1.3226 C   0  0  0  0  0  0  0  0  0  0  0  0
  1 16  1  0
  1 21  1  0
  2 14  1  0
  2 15  1  0
  3 20  2  0
  4  8  1  0
  4  9  1  0
  4 11  1  0
  5  7  1  0
  5 10  1  0
  5 13  1  0
  6 19  1  0
  6 28  1  0
  6 29  1  0
  7 12  1  0
  8 14  1  0
  9 15  1  0
 10 16  2  0
 10 18  1  0
 11 20  1  0
 12 19  1  0
 13 21  2  0
 13 24  1  0
 16 22  1  0
 17 18  2  0
 17 20  1  0
 17 23  1  0
 21 25  1  0
 22 23  2  0
 24 26  2  0
 25 27  2  0
 26 27  1  0
M  END
>  <PUBCHEM_COMPOUND_CID>  (1) 
25668

>  <PUBCHEM_CONFORMER_RMSD>  (1) 
1

>  <PUBCHEM_CONFORMER_DIVERSEORDER>  (1) 
7
46
38
67
107
6
82
117
101
86
79
99
89
17
112
72
105
110
74
81
3
49
58
53
128
26
93
50
132
39
87
57
85
66
100
35
92
19
8
13
96
95
60
54
103
14
25
98
104
22
97
116
90
68
9
21
113
12
62
65
10
75
31
43
4
108
115
125
45
77
70
37
11
127
16
84
5
15
27
29
69
124
119
106
61
32
131
114
47
76
94
73
63
30
122
23
102
118
56
59
78
24
42
20
130
111
91
44
36
121
126
18
33
120
123
83
28
109
34
40
55
64
80
129
51
2
41
71
1
48
88
52

>  <PUBCHEM_MMFF94_PARTIAL_CHARGES>  (1) 
35
1 -0.2
10 0.1
11 0.33
13 0.1
14 0.28
15 0.28
16 0.1
17 0.09
18 -0.15
19 0.27
2 -0.56
20 0.42
21 0.1
22 -0.15
23 -0.15
24 -0.15
25 -0.15
26 -0.15
27 -0.15
28 0.27
29 0.27
3 -0.57
4 -0.81
46 0.15
47 0.15
48 0.15
49 0.15
5 -0.57
50 0.15
51 0.15
52 0.15
6 -0.81
7 0.37
8 0.27
9 0.27

>  <PUBCHEM_EFFECTIVE_ROTOR_COUNT>  (1) 
8.6

>  <PUBCHEM_PHARMACOPHORE_FEATURES>  (1) 
9
1 2 acceptor
1 3 acceptor
1 4 cation
1 5 cation
1 6 cation
6 1 5 10 13 16 21 rings
6 10 16 17 18 22 23 rings
6 13 21 24 25 26 27 rings
6 2 4 8 9 14 15 rings

>  <PUBCHEM_HEAVY_ATOM_COUNT>  (1) 
29

>  <PUBCHEM_ATOM_DEF_STEREO_COUNT>  (1) 
0

>  <PUBCHEM_ATOM_UDEF_STEREO_COUNT>  (1) 
0

>  <PUBCHEM_BOND_DEF_STEREO_COUNT>  (1) 
0

>  <PUBCHEM_BOND_UDEF_STEREO_COUNT>  (1) 
0

>  <PUBCHEM_ISOTOPIC_ATOM_COUNT>  (1) 
0

>  <PUBCHEM_COMPONENT_COUNT>  (1) 
1

>  <PUBCHEM_CACTVS_TAUTO_COUNT>  (1) 
2

>  <PUBCHEM_CONFORMER_ID>  (1) 
0000644400000007

>  <PUBCHEM_MMFF94_ENERGY>  (1) 
94.6179

>  <PUBCHEM_FEATURE_SELFOVERLAP>  (1) 
45.703

>  <PUBCHEM_SHAPE_FINGERPRINT>  (1) 
10483366 6 18268695269169964327
10939801 23 18335142029463851288
10940486 97 18263368155974379996
1100329 8 18336829804753778361
11135926 11 18337951187505344037
11524674 6 17989484100352212926
11578080 2 16912578651076756777
12236239 1 17821452347954657288
12839892 36 18265330603962373169
14117953 113 18337395941541382894
14394314 77 18335984164549264985
14705955 166 17774716455607915984
14844126 61 18336827605873396450
14866123 147 18340203102650604519
15131766 46 15576713722944880494
15403338 16 16951680290447202571
15439362 3 17471565530653148013
16719943 64 18410014338387128811
16728300 4 17751065934386766899
16994733 274 15769501915781554859
18681886 176 18408878560424693097
19141452 34 18410009961894094752
20028762 73 18343023294451914271
20511986 3 17894624885843920732
20775438 99 16906061897657738215
21133410 171 17191183906597689278
21781055 127 18053974790785508136
22113638 7 18336269023880213031
229767 44 18410291402316264954
23559900 14 17546724851334763603
3004659 81 17822303374755698452
3178227 256 18336000731018237097
3383291 50 18408326605260709819
38695281 34 18411139096265096355
3882209 13 17622980796889271214
4017518 198 18272093747525746902
5028188 123 18339650066446566860
5085150 59 18336261245916206621
5104073 3 18337969972938585761
5171179 24 17695922024597757374
5385378 56 18196102036759072985
6138700 20 18260551078556232937
9953998 17 18341319073141081456
9981440 41 18337401439822351123

>  <PUBCHEM_SHAPE_MULTIPOLES>  (1) 
573.97
14.63
5.88
1.06
17.55
10.66
0.21
-3.32
-5.12
-4.72
1.86
0.66
0.06
-1.21

>  <PUBCHEM_SHAPE_SELFOVERLAP>  (1) 
1203.719

>  <PUBCHEM_SHAPE_VOLUME>  (1) 
325.3

>  <PUBCHEM_COORDINATE_TYPE>  (1) 
2
5
10

$$$$
