25674
     RDKit          3D

 10  9  0  0  1  0  0  0  0  0999 V2000
    1.8357   -0.5224    0.4693 S   0  0  0  0  0  0  0  0  0  0  0  0
   -0.8518    1.7734    0.4039 O   0  0  0  0  0  0  0  0  0  0  0  0
   -2.7037    1.1300   -0.7341 O   0  0  0  0  0  0  0  0  0  0  0  0
   -2.7406   -1.1858    0.7614 N   0  0  0  0  0  0  0  0  0  0  0  0
   -0.6512   -1.3678   -0.4998 C   0  0  0  0  0  0  0  0  0  0  0  0
   -1.4466   -0.5398    0.5196 C   0  0  0  0  0  0  0  0  0  0  0  0
    0.6963   -0.7758   -0.9235 C   0  0  0  0  0  0  0  0  0  0  0  0
   -1.7507    0.8470   -0.0188 C   0  0  0  0  0  0  0  0  0  0  0  0
    3.2307    0.1591   -0.4556 C   0  0  0  0  0  0  0  0  0  0  0  0
    4.3819    0.4821    0.4776 C   0  0  0  0  0  0  0  0  0  0  0  0
  1  7  1  0
  1  9  1  0
  2  8  1  0
  3  8  2  0
  4  6  1  0
  5  6  1  0
  5  7  1  0
  6  8  1  0
  9 10  1  0
M  END
>  <PUBCHEM_COMPOUND_CID>  (1) 
25674

>  <PUBCHEM_CONFORMER_RMSD>  (1) 
0.6

>  <PUBCHEM_CONFORMER_DIVERSEORDER>  (1) 
2
89
4
58
34
84
73
49
59
51
83
3
7
76
74
13
67
66
48
88
28
36
70
62
5
86
19
64
65
29
79
61
6
12
68
78
56
16
77
8
54
63
57
44
22
82
32
1
85
17
20
38
75
69
18
25
15
47
72
26
31
37
27
35
80
52
87
42
43
55
50
10
53
71
39
46
21
41
81
24
33
30
60
11
45
9
40
23
14

>  <PUBCHEM_MMFF94_PARTIAL_CHARGES>  (1) 
11
1 -0.46
16 0.36
17 0.36
2 -0.65
23 0.5
3 -0.57
4 -0.99
6 0.33
7 0.23
8 0.66
9 0.23

>  <PUBCHEM_EFFECTIVE_ROTOR_COUNT>  (1) 
5

>  <PUBCHEM_PHARMACOPHORE_FEATURES>  (1) 
7
1 10 hydrophobe
1 2 acceptor
1 3 acceptor
1 4 cation
1 4 donor
3 2 3 8 anion
4 1 5 7 9 hydrophobe

>  <PUBCHEM_HEAVY_ATOM_COUNT>  (1) 
10

>  <PUBCHEM_ATOM_DEF_STEREO_COUNT>  (1) 
1

>  <PUBCHEM_ATOM_UDEF_STEREO_COUNT>  (1) 
0

>  <PUBCHEM_BOND_DEF_STEREO_COUNT>  (1) 
0

>  <PUBCHEM_BOND_UDEF_STEREO_COUNT>  (1) 
0

>  <PUBCHEM_ISOTOPIC_ATOM_COUNT>  (1) 
0

>  <PUBCHEM_COMPONENT_COUNT>  (1) 
1

>  <PUBCHEM_CACTVS_TAUTO_COUNT>  (1) 
1

>  <PUBCHEM_CONFORMER_ID>  (1) 
0000644A00000002

>  <PUBCHEM_MMFF94_ENERGY>  (1) 
8.0782

>  <PUBCHEM_FEATURE_SELFOVERLAP>  (1) 
35.579

>  <PUBCHEM_SHAPE_FINGERPRINT>  (1) 
12932764 1 18060415841975851298
14390081 3 18343021051945975518
15775835 57 18114180796389884752
17846911 113 18342736286723902120
21293036 1 17346872356149748654
75552 356 18259988184189323462

>  <PUBCHEM_SHAPE_MULTIPOLES>  (1) 
192.93
6.01
1.48
0.92
6.03
0.26
-0.04
1.27
0.71
-0.96
-0.02
-0.05
-0.11
0.42

>  <PUBCHEM_SHAPE_SELFOVERLAP>  (1) 
341.283

>  <PUBCHEM_SHAPE_VOLUME>  (1) 
126.6

>  <PUBCHEM_COORDINATE_TYPE>  (1) 
2
5
10

$$$$
