25684
     RDKit          3D

 22 21  0  0  1  0  0  0  0  0999 V2000
   -0.8313    0.5794   -0.1855 O   0  0  0  0  0  0  0  0  0  0  0  0
    3.9546    0.4018   -0.2476 O   0  0  0  0  0  0  0  0  0  0  0  0
    0.2628    0.9612    1.7979 O   0  0  0  0  0  0  0  0  0  0  0  0
    2.9303    0.8617    1.7546 O   0  0  0  0  0  0  0  0  0  0  0  0
   -4.5043    0.5297    0.1431 N   0  0  0  0  0  0  0  0  0  0  0  0
    1.5594    0.5534   -0.2421 C   0  0  0  0  0  0  0  0  0  0  0  0
    1.5659   -0.8319   -0.9568 C   0  0  0  0  0  0  0  0  0  0  0  0
    1.5588    1.6593   -1.3399 C   0  0  0  0  0  0  0  0  0  0  0  0
    1.5873   -2.0429   -0.0106 C   0  0  0  0  0  0  0  0  0  0  0  0
    0.2806    0.7459    0.5918 C   0  0  0  0  0  0  0  0  0  0  0  0
    2.8747    0.6488    0.5479 C   0  0  0  0  0  0  0  0  0  0  0  0
    1.5127   -3.3828   -0.7491 C   0  0  0  0  0  0  0  0  0  0  0  0
    1.6669    3.0870   -0.8090 C   0  0  0  0  0  0  0  0  0  0  0  0
   -2.0862    0.6704    0.4964 C   0  0  0  0  0  0  0  0  0  0  0  0
   -3.2058    0.4626   -0.5108 C   0  0  0  0  0  0  0  0  0  0  0  0
    1.4917   -4.5879    0.1785 C   0  0  0  0  0  0  0  0  0  0  0  0
   -4.7964   -0.7226    0.8448 C   0  0  0  0  0  0  0  0  0  0  0  0
   -5.5600    0.8220   -0.8296 C   0  0  0  0  0  0  0  0  0  0  0  0
    5.2261    0.3991    0.4097 C   0  0  0  0  0  0  0  0  0  0  0  0
   -6.1185   -0.6397    1.5887 C   0  0  0  0  0  0  0  0  0  0  0  0
   -5.6768   -0.2858   -1.8626 C   0  0  0  0  0  0  0  0  0  0  0  0
    6.3075    0.1113   -0.6098 C   0  0  0  0  0  0  0  0  0  0  0  0
  1 10  1  0
  1 14  1  0
  2 11  1  0
  2 19  1  0
  3 10  2  0
  4 11  2  0
  5 15  1  0
  5 17  1  0
  5 18  1  0
  6  7  1  0
  6  8  1  0
  6 10  1  0
  6 11  1  0
  7  9  1  0
  8 13  1  0
  9 12  1  0
 12 16  1  0
 14 15  1  0
 17 20  1  0
 18 21  1  0
 19 22  1  0
M  END
>  <PUBCHEM_COMPOUND_CID>  (1) 
25684

>  <PUBCHEM_CONFORMER_RMSD>  (1) 
1.2

>  <PUBCHEM_CONFORMER_DIVERSEORDER>  (1) 
1
111
43
76
67
89
85
68
74
109
110
108
98
91
38
39
60
51
93
78
23
63
58
81
30
50
80
22
65
42
28
70
106
19
96
62
73
40
25
13
92
55
41
72
101
9
61
5
88
14
107
95
59
31
7
20
29
48
99
47
69
71
49
97
83
102
52
45
100
4
112
27
32
21
44
35
46
57
77
8
34
113
84
33
53
15
66
75
17
105
103
11
94
104
87
54
10
2
82
36
86
37
26
79
12
90
6
64
56
24
3
18
16

>  <PUBCHEM_MMFF94_PARTIAL_CHARGES>  (1) 
13
1 -0.43
10 0.66
11 0.66
14 0.28
15 0.27
17 0.27
18 0.27
19 0.28
2 -0.43
3 -0.57
4 -0.57
5 -0.81
6 0.12

>  <PUBCHEM_EFFECTIVE_ROTOR_COUNT>  (1) 
14

>  <PUBCHEM_PHARMACOPHORE_FEATURES>  (1) 
6
1 13 hydrophobe
1 16 hydrophobe
1 3 acceptor
1 4 acceptor
1 5 cation
5 6 7 8 9 12 hydrophobe

>  <PUBCHEM_HEAVY_ATOM_COUNT>  (1) 
22

>  <PUBCHEM_ATOM_DEF_STEREO_COUNT>  (1) 
0

>  <PUBCHEM_ATOM_UDEF_STEREO_COUNT>  (1) 
1

>  <PUBCHEM_BOND_DEF_STEREO_COUNT>  (1) 
0

>  <PUBCHEM_BOND_UDEF_STEREO_COUNT>  (1) 
0

>  <PUBCHEM_ISOTOPIC_ATOM_COUNT>  (1) 
0

>  <PUBCHEM_COMPONENT_COUNT>  (1) 
1

>  <PUBCHEM_CACTVS_TAUTO_COUNT>  (1) 
1

>  <PUBCHEM_CONFORMER_ID>  (1) 
0000645400000001

>  <PUBCHEM_MMFF94_ENERGY>  (1) 
27.6981

>  <PUBCHEM_FEATURE_SELFOVERLAP>  (1) 
30.455

>  <PUBCHEM_SHAPE_FINGERPRINT>  (1) 
10090160 65 18413670227170115709
10906281 52 17895777109478726636
12236239 1 15626224632221412064
12293681 25 17679051268367822642
12596602 18 16773794848886805075
13083527 12 18046334233440091154
13533116 47 18200307711758698875
13836976 161 18408886260620098454
14863182 85 18336558148441942086
15537594 2 18060423508582067799
15849732 13 18260551156340443684
18681886 176 18335980986420743048
20645477 70 18259992595426834489
21033650 10 16155407333955500229
21054139 6 18200581614175525183
21521721 280 18271812367016476848
21709351 56 18187361082099450741
22224240 67 18271517676403946256
22956985 138 17902507091820809370
23402539 116 16950278520653803117
23557571 272 17822845382422223909
23559900 14 18407759235843384561
3060560 45 18408324406331879924
3250762 1 17615684038970013588
4340502 62 18273493481914667706
465052 167 18040997332842078058
54040823 5 18040151803825880272
59755656 215 18410291380661723423
7495541 125 17603588572849762725
9999458 23 17988351655136880464

>  <PUBCHEM_SHAPE_MULTIPOLES>  (1) 
424.29
13.4
3.27
1.45
13.23
4.84
0.14
-1.05
-0.35
-3.44
-0.68
1.23
-0.21
0.63

>  <PUBCHEM_SHAPE_SELFOVERLAP>  (1) 
806.993

>  <PUBCHEM_SHAPE_VOLUME>  (1) 
262.7

>  <PUBCHEM_COORDINATE_TYPE>  (1) 
2
5
10

$$$$
