25688
     RDKit          3D

 19 19  0  0  0  0  0  0  0  0999 V2000
    0.3880   -2.1629   -1.0320 I   0  0  0  0  0  0  0  0  0  0  0  0
   -3.6750    2.2090    0.3622 I   0  0  0  0  0  0  0  0  0  0  0  0
    2.1421    3.5220    0.2384 I   0  0  0  0  0  0  0  0  0  0  0  0
    2.2402    0.3909   -0.5446 O   0  0  0  0  0  0  0  0  0  0  0  0
   -3.9018   -2.2848    0.5376 O   0  0  0  0  0  0  0  0  0  0  0  0
    4.6998   -1.5128    1.2386 O   0  0  0  0  0  0  0  0  0  0  0  0
    4.2120   -1.4353   -0.9848 O   0  0  0  0  0  0  0  0  0  0  0  0
   -2.4521   -0.7096   -0.4537 N   0  0  0  0  0  0  0  0  0  0  0  0
   -1.4140    0.2205   -0.3025 C   0  0  0  0  0  0  0  0  0  0  0  0
   -0.0890   -0.1669   -0.5023 C   0  0  0  0  0  0  0  0  0  0  0  0
    0.9397    0.7630   -0.3526 C   0  0  0  0  0  0  0  0  0  0  0  0
   -1.7103    1.5380    0.0469 C   0  0  0  0  0  0  0  0  0  0  0  0
    0.6435    2.0805   -0.0030 C   0  0  0  0  0  0  0  0  0  0  0  0
   -0.6816    2.4680    0.1967 C   0  0  0  0  0  0  0  0  0  0  0  0
   -3.1377   -0.7924   -1.7770 C   0  0  0  0  0  0  0  0  0  0  0  0
   -2.9408   -1.5163    0.6266 C   0  0  0  0  0  0  0  0  0  0  0  0
   -2.2108   -1.4483    1.9484 C   0  0  0  0  0  0  0  0  0  0  0  0
    2.9476   -0.0897    0.5945 C   0  0  0  0  0  0  0  0  0  0  0  0
    4.0001   -1.0727    0.1626 C   0  0  0  0  0  0  0  0  0  0  0  0
  1 10  1  0
  2 12  1  0
  3 13  1  0
  4 11  1  0
  4 18  1  0
  5 16  2  0
  6 19  1  0
  7 19  2  0
  8  9  1  0
  8 15  1  0
  8 16  1  0
  9 10  2  0
  9 12  1  0
 10 11  1  0
 11 13  2  0
 12 14  2  0
 13 14  1  0
 16 17  1  0
 18 19  1  0
M  END
>  <PUBCHEM_COMPOUND_CID>  (1) 
25688

>  <PUBCHEM_CONFORMER_RMSD>  (1) 
0.8

>  <PUBCHEM_CONFORMER_DIVERSEORDER>  (1) 
1
4
13
11
6
20
22
15
18
10
19
21
23
14
5
17
16
12
2
8
9
3
7

>  <PUBCHEM_MMFF94_PARTIAL_CHARGES>  (1) 
21
1 -0.08
10 0.08
11 0.08
12 0.08
13 0.08
14 -0.15
15 0.3
16 0.57
17 0.06
18 0.34
19 0.66
2 -0.08
20 0.15
29 0.5
3 -0.08
4 -0.36
5 -0.57
6 -0.65
7 -0.57
8 -0.48
9 0.12

>  <PUBCHEM_EFFECTIVE_ROTOR_COUNT>  (1) 
5

>  <PUBCHEM_PHARMACOPHORE_FEATURES>  (1) 
9
1 1 hydrophobe
1 2 hydrophobe
1 3 hydrophobe
1 4 acceptor
1 5 acceptor
1 6 acceptor
1 7 acceptor
3 6 7 19 anion
6 9 10 11 12 13 14 rings

>  <PUBCHEM_HEAVY_ATOM_COUNT>  (1) 
19

>  <PUBCHEM_ATOM_DEF_STEREO_COUNT>  (1) 
0

>  <PUBCHEM_ATOM_UDEF_STEREO_COUNT>  (1) 
0

>  <PUBCHEM_BOND_DEF_STEREO_COUNT>  (1) 
0

>  <PUBCHEM_BOND_UDEF_STEREO_COUNT>  (1) 
0

>  <PUBCHEM_ISOTOPIC_ATOM_COUNT>  (1) 
0

>  <PUBCHEM_COMPONENT_COUNT>  (1) 
1

>  <PUBCHEM_CACTVS_TAUTO_COUNT>  (1) 
1

>  <PUBCHEM_CONFORMER_ID>  (1) 
0000645800000001

>  <PUBCHEM_MMFF94_ENERGY>  (1) 
81.3998

>  <PUBCHEM_FEATURE_SELFOVERLAP>  (1) 
45.734

>  <PUBCHEM_SHAPE_FINGERPRINT>  (1) 
10062212 137 18411132507130851015
10906281 52 18197794201479936517
10967382 1 18053666875815511028
1100329 8 18338801108975932009
11132069 177 18199181794038945276
11543360 7 16153433882561928798
11578080 2 16987696044298990553
11680986 33 18412257363356060888
12363563 72 18410013251591403070
12553582 1 18263640663259498400
12788726 201 17976261240636388544
13140716 1 18341897393870351361
13380535 76 18196935474650950717
13544592 271 18199465472217684999
13911987 19 17327172659877109253
14022347 108 17979658752703306124
14178342 30 18058180444167217233
15342168 16 9655034263728976091
15422964 175 17828773081493223217
16945 1 17837769298285005709
19591789 44 17113823449271359900
20600515 1 18128825144605978408
20645477 70 18194668479095292415
21501502 16 18342175613367378989
2334 1 18269838781983215893
23366157 5 18187646963781990596
23402539 116 18055620733895955661
23419403 2 18116133636235552495
23526113 38 17974824445311039149
23557571 272 17984990285092878828
23558518 356 18334581286807336441
23559900 14 18410002252285854448
2748010 2 18340767147498783749
34934 24 18196649584305454445
5104073 3 18340760473604350872
5902787 121 18408603639383283936
7364860 26 18197497531536400732
81228 2 17910689669711533904
8809292 202 18335424534552159457
9709674 26 18337382846254928289

>  <PUBCHEM_SHAPE_MULTIPOLES>  (1) 
398.36
7.41
3.81
1.29
3.88
2.47
0.18
-2.92
1.42
0.41
0.15
-0.54
-0.81
0.12

>  <PUBCHEM_SHAPE_SELFOVERLAP>  (1) 
758.002

>  <PUBCHEM_SHAPE_VOLUME>  (1) 
253.6

>  <PUBCHEM_COORDINATE_TYPE>  (1) 
2
5
10

$$$$
