25683
     RDKit          3D

 16 16  0  0  0  0  0  0  0  0999 V2000
   -0.0717    2.3640   -0.3735 O   0  0  0  0  0  0  0  0  0  0  0  0
    3.4592   -1.8269    0.2311 O   0  0  0  0  0  0  0  0  0  0  0  0
   -3.4016   -0.7303   -0.1356 N   0  0  0  0  0  0  0  0  0  0  0  0
   -1.9448   -0.6094   -0.5592 C   0  0  0  0  0  0  0  0  0  0  0  0
   -1.0948   -0.1167    0.6071 C   0  0  0  0  0  0  0  0  0  0  0  0
   -4.2323   -1.2255   -1.3107 C   0  0  0  0  0  0  0  0  0  0  0  0
   -3.5140   -1.7178    1.0171 C   0  0  0  0  0  0  0  0  0  0  0  0
   -3.9150    0.6310    0.3108 C   0  0  0  0  0  0  0  0  0  0  0  0
    0.3569    0.0903    0.2522 C   0  0  0  0  0  0  0  0  0  0  0  0
    0.7907    1.3205   -0.2190 C   0  0  0  0  0  0  0  0  0  0  0  0
    1.2384   -0.9697    0.4066 C   0  0  0  0  0  0  0  0  0  0  0  0
    2.5839   -0.7953    0.0823 C   0  0  0  0  0  0  0  0  0  0  0  0
    2.1361    1.4949   -0.5434 C   0  0  0  0  0  0  0  0  0  0  0  0
    3.0327    0.4370   -0.3928 C   0  0  0  0  0  0  0  0  0  0  0  0
   -0.2442    3.2327    0.7443 C   0  0  0  0  0  0  0  0  0  0  0  0
    4.8204   -1.5788   -0.1174 C   0  0  0  0  0  0  0  0  0  0  0  0
  1 10  1  0
  1 15  1  0
  2 12  1  0
  2 16  1  0
  3  4  1  0
  3  6  1  0
  3  7  1  0
  3  8  1  0
  4  5  1  0
  5  9  1  0
  9 10  2  0
  9 11  1  0
 10 13  1  0
 11 12  2  0
 12 14  1  0
 13 14  2  0
M  CHG  1   3   1
M  END
>  <PUBCHEM_COMPOUND_CID>  (1) 
25683

>  <PUBCHEM_CONFORMER_RMSD>  (1) 
0.6

>  <PUBCHEM_CONFORMER_DIVERSEORDER>  (1) 
2
10
8
6
11
7
9
1
5
3
4

>  <PUBCHEM_MMFF94_PARTIAL_CHARGES>  (1) 
19
1 -0.36
10 0.08
11 -0.15
12 0.08
13 -0.15
14 -0.15
15 0.28
16 0.28
2 -0.36
3 -1.01
30 0.15
31 0.15
32 0.15
4 0.5
5 0.14
6 0.5
7 0.5
8 0.5
9 -0.14

>  <PUBCHEM_EFFECTIVE_ROTOR_COUNT>  (1) 
5

>  <PUBCHEM_PHARMACOPHORE_FEATURES>  (1) 
4
1 1 acceptor
1 2 acceptor
1 3 cation
6 9 10 11 12 13 14 rings

>  <PUBCHEM_HEAVY_ATOM_COUNT>  (1) 
16

>  <PUBCHEM_ATOM_DEF_STEREO_COUNT>  (1) 
0

>  <PUBCHEM_ATOM_UDEF_STEREO_COUNT>  (1) 
0

>  <PUBCHEM_BOND_DEF_STEREO_COUNT>  (1) 
0

>  <PUBCHEM_BOND_UDEF_STEREO_COUNT>  (1) 
0

>  <PUBCHEM_ISOTOPIC_ATOM_COUNT>  (1) 
0

>  <PUBCHEM_COMPONENT_COUNT>  (1) 
1

>  <PUBCHEM_CACTVS_TAUTO_COUNT>  (1) 
1

>  <PUBCHEM_CONFORMER_ID>  (1) 
0000645300000002

>  <PUBCHEM_MMFF94_ENERGY>  (1) 
71.2821

>  <PUBCHEM_FEATURE_SELFOVERLAP>  (1) 
20.297

>  <PUBCHEM_SHAPE_FINGERPRINT>  (1) 
11471102 20 18261670458444179334
11578080 2 17773855589289741041
116883 192 18197505021383929972
11806522 49 18335140874027737454
12032990 46 18335425676907997722
12553582 1 18334852766957286667
13134695 92 18341888649327252413
13583140 156 14764057896696277122
14576447 43 18198338648697987463
15442244 35 18411422791259799289
15477762 27 18338515373375261087
15848700 24 18409158914008295942
16945 1 18123188167179619001
18186145 218 17458341953027951067
18410436 195 18272366503164360521
19422 9 18411703214022159503
200 152 18408041788719846834
20339313 130 18412550937149467251
20626108 58 18059560438766543015
20645477 70 18335697282081783615
20671657 53 18341894129884519101
21041028 32 18339094730504777553
21267235 1 18410022013393297563
21296965 67 18411695474422429308
21501502 16 18264781969572981172
22112679 90 18200614521787646417
221357 26 18262223483424408373
221490 88 18117005591737740099
2255824 54 18054229009846517269
23402539 116 18338513045666705350
23526113 38 17749959997308373113
23557571 272 18056765326111795878
23559900 14 18186522120710779290
25147074 1 18116730521485338188
2838139 119 14997144630064345254
3091708 16 8922160302688171672
6049 1 17896319302271411499
68521 5 18338518517428562700
7364860 26 18125999609922218953
7471813 234 18059000791816980597
74978 22 18269551822659783159
81228 2 18193850236164607280

>  <PUBCHEM_SHAPE_MULTIPOLES>  (1) 
312.55
8.1
2.62
0.93
1.29
2.1
0.06
-5.88
0.92
-0.64
-0.38
0.71
-0.12
-0.42

>  <PUBCHEM_SHAPE_SELFOVERLAP>  (1) 
624.689

>  <PUBCHEM_SHAPE_VOLUME>  (1) 
187.9

>  <PUBCHEM_COORDINATE_TYPE>  (1) 
2
5
10

$$$$
