25698
     RDKit          3D

 25 28  0  0  0  0  0  0  0  0999 V2000
    0.1806    0.1067    1.1055 Si  0  0  0  0  0  4  0  0  0  0  0  0
   -1.8174   -2.2512    0.4703 Si  0  0  0  0  0  4  0  0  0  0  0  0
   -2.0078    2.2804    0.4109 Si  0  0  0  0  0  4  0  0  0  0  0  0
   -3.8832   -0.0842   -0.5692 Si  0  0  0  0  0  4  0  0  0  0  0  0
   -0.7246   -1.2695    1.2700 O   0  0  0  0  0  0  0  0  0  0  0  0
   -0.6989    1.5069    1.1033 O   0  0  0  0  0  0  0  0  0  0  0  0
   -2.7572   -1.3227   -0.5581 O   0  0  0  0  0  0  0  0  0  0  0  0
   -3.2999    1.2226    0.2989 O   0  0  0  0  0  0  0  0  0  0  0  0
    1.7339    0.1662    2.2797 C   0  0  0  0  0  0  0  0  0  0  0  0
    1.2557    0.0059   -0.4144 C   0  0  0  0  0  0  0  0  0  0  0  0
    2.6097    0.0212   -0.0489 C   0  0  0  0  0  0  0  0  0  0  0  0
    2.9090    0.1036    1.3213 C   0  0  0  0  0  0  0  0  0  0  0  0
    3.6249   -0.0454   -1.0186 C   0  0  0  0  0  0  0  0  0  0  0  0
    0.8884   -0.0799   -1.7517 C   0  0  0  0  0  0  0  0  0  0  0  0
    4.2370    0.1226    1.7401 C   0  0  0  0  0  0  0  0  0  0  0  0
   -2.8954   -3.1545    1.7186 C   0  0  0  0  0  0  0  0  0  0  0  0
   -0.8957   -3.5558   -0.5262 C   0  0  0  0  0  0  0  0  0  0  0  0
   -2.5004    3.7469    1.4906 C   0  0  0  0  0  0  0  0  0  0  0  0
   -1.5550    2.9728   -1.2777 C   0  0  0  0  0  0  0  0  0  0  0  0
    3.2423   -0.1290   -2.3689 C   0  0  0  0  0  0  0  0  0  0  0  0
    4.9594   -0.0248   -0.5784 C   0  0  0  0  0  0  0  0  0  0  0  0
    1.8868   -0.1467   -2.7270 C   0  0  0  0  0  0  0  0  0  0  0  0
   -5.5039   -0.6713    0.1874 C   0  0  0  0  0  0  0  0  0  0  0  0
   -4.2464    0.4207   -2.3459 C   0  0  0  0  0  0  0  0  0  0  0  0
    5.2581    0.0587    0.7885 C   0  0  0  0  0  0  0  0  0  0  0  0
  1  5  1  0
  1  6  1  0
  1  9  1  0
  1 10  1  0
  2  5  1  0
  2  7  1  0
  2 16  1  0
  2 17  1  0
  3  6  1  0
  3  8  1  0
  3 18  1  0
  3 19  1  0
  4  7  1  0
  4  8  1  0
  4 23  1  0
  4 24  1  0
  9 12  1  0
 10 11  2  0
 10 14  1  0
 11 12  1  0
 11 13  1  0
 12 15  2  0
 13 20  2  0
 13 21  1  0
 14 22  2  0
 15 25  1  0
 20 22  1  0
 21 25  2  0
M  END
>  <PUBCHEM_COMPOUND_CID>  (1) 
25698

>  <PUBCHEM_CONFORMER_RMSD>  (1) 
0.6

>  <PUBCHEM_CONFORMER_DIVERSEORDER>  (1) 
3
5
1
6
2
4
7
8

>  <PUBCHEM_MMFF94_PARTIAL_CHARGES>  (1) 
29
1 0.9
10 -0.22
12 -0.14
14 -0.15
15 -0.15
16 -0.08
17 -0.08
18 -0.08
19 -0.08
2 0.76
20 -0.15
21 -0.15
22 -0.15
23 -0.08
24 -0.08
25 -0.15
28 0.15
29 0.15
3 0.76
4 0.76
42 0.15
43 0.15
44 0.15
5 -0.59
51 0.15
6 -0.59
7 -0.59
8 -0.59
9 0.06

>  <PUBCHEM_EFFECTIVE_ROTOR_COUNT>  (1) 
1.6

>  <PUBCHEM_PHARMACOPHORE_FEATURES>  (1) 
3
5 1 9 10 11 12 rings
6 10 11 13 14 20 22 rings
6 11 12 13 15 21 25 rings

>  <PUBCHEM_HEAVY_ATOM_COUNT>  (1) 
25

>  <PUBCHEM_ATOM_DEF_STEREO_COUNT>  (1) 
0

>  <PUBCHEM_ATOM_UDEF_STEREO_COUNT>  (1) 
0

>  <PUBCHEM_BOND_DEF_STEREO_COUNT>  (1) 
0

>  <PUBCHEM_BOND_UDEF_STEREO_COUNT>  (1) 
0

>  <PUBCHEM_ISOTOPIC_ATOM_COUNT>  (1) 
0

>  <PUBCHEM_COMPONENT_COUNT>  (1) 
1

>  <PUBCHEM_CACTVS_TAUTO_COUNT>  (1) 
1

>  <PUBCHEM_CONFORMER_ID>  (1) 
0000646200000003

>  <PUBCHEM_MMFF94_ENERGY>  (1) 
37.523

>  <PUBCHEM_FEATURE_SELFOVERLAP>  (1) 
15.366

>  <PUBCHEM_SHAPE_FINGERPRINT>  (1) 
10366900 7 18131623495933818876
11578080 2 17533474966999125828
11582403 64 16406971247867941096
11640471 11 17603592906371154380
11646440 116 18342745152422449291
121448 382 18337103463243756417
12166972 35 17312819398563654613
12236239 1 17603300457721256594
12293681 25 17917726715711864246
12467345 10 16950561103790247691
12714826 92 18190187977960834403
12788726 201 18341062877672325273
13009979 54 17748821951576954234
13140716 1 18265895946344278777
13149001 5 18192699267235011405
133893 2 17609493831144162395
13402501 40 17703789232099246083
13583140 156 18127945582869352536
13726171 33 17903393551057309677
13947920 75 18187661193176577300
14251757 17 17202485489833363637
14294032 229 18044659690200851517
16752209 62 18408602548071038475
17349148 13 17603590694626592216
17357779 13 17917428761097963025
20511986 3 17531514473584566004
20600515 1 18339641256329263181
20715895 44 16882137228716557029
20739085 24 15678590682245188553
20775438 99 16756313949614460999
21033650 10 18126308383927321200
21285901 2 17918283051721013493
22121540 332 17336792987451513057
22907989 373 18193866866304221141
23402539 116 18342168960525814757
23557571 272 18201726132533538888
23559900 14 18412543245617225866
23598288 3 17895762923259861395
3052486 1 18337674118168176633
3380486 145 17345757537153444163
35225 105 18194654073616751967
469060 322 18336000683620875761
57307002 85 17917726698937689798
57527293 21 17843968280697271042
7226269 152 18410566301734598593

>  <PUBCHEM_SHAPE_MULTIPOLES>  (1) 
563.86
9.44
3.27
2.4
4.53
0.1
-0.88
-0.2
-0.91
-4.74
1.12
1.07
0.18
0.39

>  <PUBCHEM_SHAPE_SELFOVERLAP>  (1) 
1135.556

>  <PUBCHEM_SHAPE_VOLUME>  (1) 
330.4

>  <PUBCHEM_COORDINATE_TYPE>  (1) 
2
5
10

$$$$
