2569
     RDKit          3D

 23 25  0  0  1  0  0  0  0  0999 V2000
    1.5067   -0.9053   -2.3111 O   0  0  0  0  0  0  0  0  0  0  0  0
    0.2315    1.4881   -1.5336 O   0  0  0  0  0  0  0  0  0  0  0  0
   -2.6584   -1.8555    1.4150 O   0  0  0  0  0  0  0  0  0  0  0  0
    2.4169    0.2952    0.9967 O   0  0  0  0  0  0  0  0  0  0  0  0
    3.9390    2.0224    0.9908 O   0  0  0  0  0  0  0  0  0  0  0  0
   -0.1891   -2.6750    0.7724 N   0  0  0  0  0  0  0  0  0  0  0  0
   -2.2380    2.3073   -0.8914 N   0  0  0  0  0  0  0  0  0  0  0  0
    3.0782    1.1942    2.9555 N   0  0  0  0  0  0  0  0  0  0  0  0
    0.1845   -3.6669   -0.2317 C   0  0  0  0  0  0  0  0  0  0  0  0
   -1.0820   -3.8074    0.5445 C   0  0  0  0  0  0  0  0  0  0  0  0
   -1.3454    3.4400   -0.6635 C   0  0  0  0  0  0  0  0  0  0  0  0
   -2.6121    3.2993    0.1124 C   0  0  0  0  0  0  0  0  0  0  0  0
   -0.6000   -1.4495    0.3239 C   0  0  0  0  0  0  0  0  0  0  0  0
   -1.8271    1.0820   -0.4426 C   0  0  0  0  0  0  0  0  0  0  0  0
    0.1215   -0.5960   -0.4214 C   0  0  0  0  0  0  0  0  0  0  0  0
   -2.5485    0.2285    0.3027 C   0  0  0  0  0  0  0  0  0  0  0  0
   -0.4402    0.7161   -0.8502 C   0  0  0  0  0  0  0  0  0  0  0  0
   -1.9865   -1.0833    0.7320 C   0  0  0  0  0  0  0  0  0  0  0  0
    1.5286   -0.8563   -0.8916 C   0  0  0  0  0  0  0  0  0  0  0  0
   -3.9557    0.4885    0.7727 C   0  0  0  0  0  0  0  0  0  0  0  0
    2.4658    0.2429   -0.4257 C   0  0  0  0  0  0  0  0  0  0  0  0
    2.8012   -1.1485   -2.8455 C   0  0  0  0  0  0  0  0  0  0  0  0
    3.2092    1.2394    1.5896 C   0  0  0  0  0  0  0  0  0  0  0  0
  1 19  1  0
  1 22  1  0
  2 17  2  0
  3 18  2  0
  4 21  1  0
  4 23  1  0
  5 23  2  0
  6  9  1  0
  6 10  1  0
  6 13  1  0
  7 11  1  0
  7 12  1  0
  7 14  1  0
  8 23  1  0
  9 10  1  0
 11 12  1  0
 13 15  2  0
 13 18  1  0
 14 16  2  0
 14 17  1  0
 15 17  1  0
 15 19  1  0
 16 18  1  0
 16 20  1  0
 19 21  1  0
M  END
>  <PUBCHEM_COMPOUND_CID>  (1) 
2569

>  <PUBCHEM_CONFORMER_RMSD>  (1) 
0.8

>  <PUBCHEM_CONFORMER_DIVERSEORDER>  (1) 
1
26
34
28
5
37
20
27
29
18
38
36
35
15
2
24
31
4
40
8
22
25
33
32
17
10
30
39
14
16
9
21
11
19
12
6
13
7
23
3

>  <PUBCHEM_MMFF94_PARTIAL_CHARGES>  (1) 
33
1 -0.56
10 -0.03
11 -0.03
12 -0.03
13 0.11
14 0.11
15 -0.12
16 -0.12
17 0.54
18 0.54
19 0.42
2 -0.57
20 0.14
21 0.28
22 0.28
23 0.78
24 0.1
25 0.1
26 0.1
27 0.1
28 0.1
29 0.1
3 -0.57
30 0.1
31 0.1
4 -0.43
41 0.37
42 0.37
5 -0.57
6 -0.44
7 -0.44
8 -0.8
9 -0.03

>  <PUBCHEM_EFFECTIVE_ROTOR_COUNT>  (1) 
8.2

>  <PUBCHEM_PHARMACOPHORE_FEATURES>  (1) 
8
1 1 acceptor
1 2 acceptor
1 3 acceptor
1 5 acceptor
1 6 cation
1 7 cation
1 8 donor
6 13 14 15 16 17 18 rings

>  <PUBCHEM_HEAVY_ATOM_COUNT>  (1) 
23

>  <PUBCHEM_ATOM_DEF_STEREO_COUNT>  (1) 
0

>  <PUBCHEM_ATOM_UDEF_STEREO_COUNT>  (1) 
1

>  <PUBCHEM_BOND_DEF_STEREO_COUNT>  (1) 
0

>  <PUBCHEM_BOND_UDEF_STEREO_COUNT>  (1) 
0

>  <PUBCHEM_ISOTOPIC_ATOM_COUNT>  (1) 
0

>  <PUBCHEM_COMPONENT_COUNT>  (1) 
1

>  <PUBCHEM_CACTVS_TAUTO_COUNT>  (1) 
6

>  <PUBCHEM_CONFORMER_ID>  (1) 
00000A0900000001

>  <PUBCHEM_MMFF94_ENERGY>  (1) 
106.3526

>  <PUBCHEM_FEATURE_SELFOVERLAP>  (1) 
40.6

>  <PUBCHEM_SHAPE_FINGERPRINT>  (1) 
10165383 225 17760971395939234769
11578080 2 17054471648115718627
11582403 64 17483913243499763776
11725454 13 17844503609372808634
12633257 1 18267571571768610736
12716301 132 18334586706849789910
13083527 12 17113810254984367363
13140716 1 18044965534662594225
13294875 104 17907851804377121108
14022347 108 17826542094774932859
14178342 30 18116717305391212677
14713325 29 17031408133472032374
14790565 3 17757318913339516917
14817 1 14673403932017199166
16945 1 18335423529350327926
17980427 23 17408524395597261599
20510252 161 18265355957122893989
20600515 1 18117841216395504797
20642791 239 16168388017783178455
20905425 154 17975999573948815095
21524375 3 17913737627639180936
21650355 55 17975116949188688162
22112679 90 17685500140466926450
23175994 123 17486799406036468814
2334 1 17754192881516539327
23419403 2 17845113808103288380
23526113 38 17914356592587667278
23557571 272 18197230341082696895
23559900 14 18118126861827840021
25222932 49 15506652713333015937
2748010 2 18046653315070863023
298252 57 17245595172132364206
350125 39 17539714408129496813
7364860 26 17689709762525712543
81228 2 18123768700872049227
84936 182 17835519323689658729
90316 7 18048024457029993882

>  <PUBCHEM_SHAPE_MULTIPOLES>  (1) 
429.04
5.37
4.3
2.06
0.03
2.07
0.04
-3.74
-1.18
-1.02
-0.94
2.69
-0.59
2.54

>  <PUBCHEM_SHAPE_SELFOVERLAP>  (1) 
911.054

>  <PUBCHEM_SHAPE_VOLUME>  (1) 
240.3

>  <PUBCHEM_COORDINATE_TYPE>  (1) 
2
5
10

$$$$
