25697
     RDKit          3D

 15 15  0  0  0  0  0  0  0  0999 V2000
   -3.7248   -0.0682    0.2849 O   0  0  0  0  0  0  0  0  0  0  0  0
    1.9158    0.0393    0.2286 C   0  0  0  0  0  0  0  0  0  0  0  0
    0.3925    0.0105    0.2437 C   0  0  0  0  0  0  0  0  0  0  0  0
    2.5202   -1.2131   -0.4523 C   0  0  0  0  0  0  0  0  0  0  0  0
    2.4570    1.3188   -0.4547 C   0  0  0  0  0  0  0  0  0  0  0  0
   -0.2603    0.0002    1.4581 C   0  0  0  0  0  0  0  0  0  0  0  0
   -0.2842   -0.0047   -0.9577 C   0  0  0  0  0  0  0  0  0  0  0  0
    2.1742   -2.4956    0.2534 C   0  0  0  0  0  0  0  0  0  0  0  0
    2.0294    2.5800    0.2432 C   0  0  0  0  0  0  0  0  0  0  0  0
   -1.6547   -0.0264    1.4719 C   0  0  0  0  0  0  0  0  0  0  0  0
   -1.6787   -0.0312   -0.9440 C   0  0  0  0  0  0  0  0  0  0  0  0
   -2.3641   -0.0420    0.2709 C   0  0  0  0  0  0  0  0  0  0  0  0
    1.5609   -3.5294   -0.3340 C   0  0  0  0  0  0  0  0  0  0  0  0
    1.3039    3.5448   -0.3330 C   0  0  0  0  0  0  0  0  0  0  0  0
   -4.3871   -0.0830   -0.9789 C   0  0  0  0  0  0  0  0  0  0  0  0
  1 12  1  0
  1 15  1  0
  2  3  1  0
  2  4  1  0
  2  5  1  0
  3  6  2  0
  3  7  1  0
  4  8  1  0
  5  9  1  0
  6 10  1  0
  7 11  2  0
  8 13  2  0
  9 14  2  0
 10 12  2  0
 11 12  1  0
M  END
>  <PUBCHEM_COMPOUND_CID>  (1) 
25697

>  <PUBCHEM_CONFORMER_RMSD>  (1) 
0.8

>  <PUBCHEM_CONFORMER_DIVERSEORDER>  (1) 
1
16
14
17
9
2
11
4
13
5
10
12
15
3
8
7
6

>  <PUBCHEM_MMFF94_PARTIAL_CHARGES>  (1) 
25
1 -0.36
10 -0.15
11 -0.15
12 0.08
13 -0.3
14 -0.3
15 0.28
2 0.14
21 0.15
22 0.15
23 0.15
24 0.15
25 0.15
26 0.15
27 0.15
28 0.15
29 0.15
3 -0.14
30 0.15
4 0.14
5 0.14
6 -0.15
7 -0.15
8 -0.29
9 -0.29

>  <PUBCHEM_EFFECTIVE_ROTOR_COUNT>  (1) 
6

>  <PUBCHEM_PHARMACOPHORE_FEATURES>  (1) 
5
1 1 acceptor
1 13 hydrophobe
1 14 hydrophobe
5 2 4 5 8 9 hydrophobe
6 3 6 7 10 11 12 rings

>  <PUBCHEM_HEAVY_ATOM_COUNT>  (1) 
15

>  <PUBCHEM_ATOM_DEF_STEREO_COUNT>  (1) 
0

>  <PUBCHEM_ATOM_UDEF_STEREO_COUNT>  (1) 
0

>  <PUBCHEM_BOND_DEF_STEREO_COUNT>  (1) 
0

>  <PUBCHEM_BOND_UDEF_STEREO_COUNT>  (1) 
0

>  <PUBCHEM_ISOTOPIC_ATOM_COUNT>  (1) 
0

>  <PUBCHEM_COMPONENT_COUNT>  (1) 
1

>  <PUBCHEM_CACTVS_TAUTO_COUNT>  (1) 
1

>  <PUBCHEM_CONFORMER_ID>  (1) 
0000646100000001

>  <PUBCHEM_MMFF94_ENERGY>  (1) 
40.5766

>  <PUBCHEM_FEATURE_SELFOVERLAP>  (1) 
25.373

>  <PUBCHEM_SHAPE_FINGERPRINT>  (1) 
11543360 7 18267854155447717807
11578080 2 17413280526522101088
116883 192 17691121535355368452
12326174 3 18187639202759411722
15375462 6 18410011057121415381
15490181 7 17759255372316248176
15906896 17 16966063917035857690
16945 1 18410583889361873177
19765921 60 17771340052502916560
19786989 88 18263348347579532917
20233049 118 14273452565677062719
20645476 183 18059856233227152175
20645477 70 18408317774944916903
20671657 53 18196935478761626415
20820808 20 18198338657272169128
21524375 3 17827914349805839272
21639500 275 18337668715030473757
22096605 113 18266739258809652985
2255824 54 18413390955627821902
23419403 2 17389907172979242110
23526113 38 17968099655479403354
23598291 2 17987536830546073008
257057 1 18051410665439391970
2748010 2 17974027324739105642
3060560 45 18339080492608836180
6992083 37 17696769765247494289
7364860 26 18409728469457901052
81228 2 17541662712621756728
8272917 22 18412833473320664631

>  <PUBCHEM_SHAPE_MULTIPOLES>  (1) 
302.82
5.34
3.41
1.16
6.49
0.21
-0.25
-0.45
1.11
-4.63
0.46
0.6
-0.01
-0.01

>  <PUBCHEM_SHAPE_SELFOVERLAP>  (1) 
610.046

>  <PUBCHEM_SHAPE_VOLUME>  (1) 
178

>  <PUBCHEM_COORDINATE_TYPE>  (1) 
2
5
10

$$$$
