25700
     RDKit          3D

  7  6  0  0  0  0  0  0  0  0999 V2000
   -3.5771    0.4212    0.0125 S   0  0  0  0  0  0  0  0  0  0  0  0
    2.7817   -0.6613    0.0157 O   0  0  0  0  0  0  0  0  0  0  0  0
    1.6815    1.3277   -0.0125 O   0  0  0  0  0  0  0  0  0  0  0  0
   -0.8343    0.1788    0.0189 C   0  0  0  0  0  0  0  0  0  0  0  0
    0.3992   -0.7183   -0.0049 C   0  0  0  0  0  0  0  0  0  0  0  0
   -2.1130   -0.6519   -0.0237 C   0  0  0  0  0  0  0  0  0  0  0  0
    1.6620    0.1038   -0.0061 C   0  0  0  0  0  0  0  0  0  0  0  0
  1  6  1  0
  2  7  1  0
  3  7  2  0
  4  5  1  0
  4  6  1  0
  5  7  1  0
M  END
>  <PUBCHEM_COMPOUND_CID>  (1) 
25700

>  <PUBCHEM_CONFORMER_RMSD>  (1) 
0.4

>  <PUBCHEM_CONFORMER_DIVERSEORDER>  (1) 
1
20
9
13
15
5
19
16
6
11
8
18
17
3
10
12
2
7
14
4

>  <PUBCHEM_MMFF94_PARTIAL_CHARGES>  (1) 
8
1 -0.41
14 0.18
15 0.5
2 -0.65
3 -0.57
5 0.06
6 0.23
7 0.66

>  <PUBCHEM_EFFECTIVE_ROTOR_COUNT>  (1) 
3

>  <PUBCHEM_PHARMACOPHORE_FEATURES>  (1) 
3
1 2 acceptor
1 3 acceptor
3 2 3 7 anion

>  <PUBCHEM_HEAVY_ATOM_COUNT>  (1) 
7

>  <PUBCHEM_ATOM_DEF_STEREO_COUNT>  (1) 
0

>  <PUBCHEM_ATOM_UDEF_STEREO_COUNT>  (1) 
0

>  <PUBCHEM_BOND_DEF_STEREO_COUNT>  (1) 
0

>  <PUBCHEM_BOND_UDEF_STEREO_COUNT>  (1) 
0

>  <PUBCHEM_ISOTOPIC_ATOM_COUNT>  (1) 
0

>  <PUBCHEM_COMPONENT_COUNT>  (1) 
1

>  <PUBCHEM_CACTVS_TAUTO_COUNT>  (1) 
1

>  <PUBCHEM_CONFORMER_ID>  (1) 
0000646400000001

>  <PUBCHEM_MMFF94_ENERGY>  (1) 
4.4951

>  <PUBCHEM_FEATURE_SELFOVERLAP>  (1) 
15.281

>  <PUBCHEM_SHAPE_FINGERPRINT>  (1) 
11062470 55 13758351163773696499
12932764 1 17240472624588527363
14325111 11 18410575119402696871
14390081 3 18411697708021727073
20096714 4 18339080509551256608
5460574 1 9223232948997923975

>  <PUBCHEM_SHAPE_MULTIPOLES>  (1) 
136.17
5.18
1.02
0.6
2.49
0.16
0
0.42
-0.02
-0.25
0
0.11
-0.01
-0.02

>  <PUBCHEM_SHAPE_SELFOVERLAP>  (1) 
236.168

>  <PUBCHEM_SHAPE_VOLUME>  (1) 
91.2

>  <PUBCHEM_COORDINATE_TYPE>  (1) 
2
5
10

$$$$
