25710
     RDKit          3D

 18 17  0  0  0  0  0  0  0  0999 V2000
   -4.3576    0.6965   -0.1754 N   0  0  0  0  0  0  0  0  0  0  0  0
    4.3642    0.6906    0.1751 N   0  0  0  0  0  0  0  0  0  0  0  0
   -3.0504    0.6608   -0.8742 C   0  0  0  0  0  0  0  0  0  0  0  0
    3.0564    0.6680    0.8735 C   0  0  0  0  0  0  0  0  0  0  0  0
   -1.9332    0.6558    0.1586 C   0  0  0  0  0  0  0  0  0  0  0  0
    1.9396    0.6730   -0.1597 C   0  0  0  0  0  0  0  0  0  0  0  0
   -0.5611    0.6659   -0.5168 C   0  0  0  0  0  0  0  0  0  0  0  0
    0.5674    0.6968    0.5151 C   0  0  0  0  0  0  0  0  0  0  0  0
   -4.5112   -0.5121    0.7590 C   0  0  0  0  0  0  0  0  0  0  0  0
    4.5064   -0.5202   -0.7583 C   0  0  0  0  0  0  0  0  0  0  0  0
   -4.4910    1.9715    0.6697 C   0  0  0  0  0  0  0  0  0  0  0  0
   -5.5163    0.6697   -1.1826 C   0  0  0  0  0  0  0  0  0  0  0  0
    4.5100    1.9635   -0.6711 C   0  0  0  0  0  0  0  0  0  0  0  0
    5.5223    0.6536    1.1825 C   0  0  0  0  0  0  0  0  0  0  0  0
   -4.3503   -1.7898   -0.0490 C   0  0  0  0  0  0  0  0  0  0  0  0
    4.3332   -1.7957    0.0508 C   0  0  0  0  0  0  0  0  0  0  0  0
   -4.5395   -3.0199    0.8238 C   0  0  0  0  0  0  0  0  0  0  0  0
    4.5109   -3.0282   -0.8209 C   0  0  0  0  0  0  0  0  0  0  0  0
  1  3  1  0
  1  9  1  0
  1 11  1  0
  1 12  1  0
  2  4  1  0
  2 10  1  0
  2 13  1  0
  2 14  1  0
  3  5  1  0
  4  6  1  0
  5  7  1  0
  6  8  1  0
  7  8  1  0
  9 15  1  0
 10 16  1  0
 15 17  1  0
 16 18  1  0
M  CHG  2   1   1   2   1
M  END
>  <PUBCHEM_COMPOUND_CID>  (1) 
25710

>  <PUBCHEM_CONFORMER_RMSD>  (1) 
1

>  <PUBCHEM_CONFORMER_DIVERSEORDER>  (1) 
3
41
44
7
56
1
26
40
9
25
6
58
60
43
4
54
29
46
52
5
50
36
18
63
33
14
13
12
53
27
32
2
37
48
10
19
51
23
65
55
38
24
61
31
28
30
15
35
62
39
34
21
64
8
20
66
59
45
22
16
11
42
17
49
57
47

>  <PUBCHEM_MMFF94_PARTIAL_CHARGES>  (1) 
10
1 -1.01
10 0.5
11 0.5
12 0.5
13 0.5
14 0.5
2 -1.01
3 0.5
4 0.5
9 0.5

>  <PUBCHEM_EFFECTIVE_ROTOR_COUNT>  (1) 
11

>  <PUBCHEM_PHARMACOPHORE_FEATURES>  (1) 
5
1 1 cation
1 17 hydrophobe
1 18 hydrophobe
1 2 cation
4 5 6 7 8 hydrophobe

>  <PUBCHEM_HEAVY_ATOM_COUNT>  (1) 
18

>  <PUBCHEM_ATOM_DEF_STEREO_COUNT>  (1) 
0

>  <PUBCHEM_ATOM_UDEF_STEREO_COUNT>  (1) 
0

>  <PUBCHEM_BOND_DEF_STEREO_COUNT>  (1) 
0

>  <PUBCHEM_BOND_UDEF_STEREO_COUNT>  (1) 
0

>  <PUBCHEM_ISOTOPIC_ATOM_COUNT>  (1) 
0

>  <PUBCHEM_COMPONENT_COUNT>  (1) 
1

>  <PUBCHEM_CACTVS_TAUTO_COUNT>  (1) 
1

>  <PUBCHEM_CONFORMER_ID>  (1) 
0000646E00000003

>  <PUBCHEM_MMFF94_ENERGY>  (1) 
53.8486

>  <PUBCHEM_FEATURE_SELFOVERLAP>  (1) 
25.373

>  <PUBCHEM_SHAPE_FINGERPRINT>  (1) 
10680689 15 17603585218933848877
10912923 1 18040714796428677152
11287383 113 18334293201670066448
11796584 16 18334006172941764363
12091667 2 17703787037281767761
12616971 3 16877664569221027469
13073987 5 18131350786801081073
13167823 11 18410855460133644423
13255334 9 18409172107995491410
13533116 47 18060134293926440538
13955234 65 18272646862382926264
17834072 33 18187084004816186692
17844677 252 18411426106674209145
20281389 69 17988927713441642569
20645477 70 18410293571817802086
21054139 6 17676761084837256866
21315759 148 18412548746716140147
21623969 137 18059859484612730166
220451 1 18340498810583853476
23402539 116 16515677853851433685
23424784 1240 18338529602586946146
23559900 14 18410290294071992080
239999 70 18334295349659993250
3004659 81 18341049619397913086
314194 84 18059570321227399460
4073 2 18409731776524800962
4990 188 18186518791741814240
5104073 3 18131072597584797266
7495541 125 18338795740435487168
90127 26 17418374713990751361
9841814 1 16415192378477482184

>  <PUBCHEM_SHAPE_MULTIPOLES>  (1) 
360.47
16.39
2.74
1.08
0.04
2.69
0
2.83
0.02
0
0
0
-0.03
1.5

>  <PUBCHEM_SHAPE_SELFOVERLAP>  (1) 
656.94

>  <PUBCHEM_SHAPE_VOLUME>  (1) 
232.8

>  <PUBCHEM_COORDINATE_TYPE>  (1) 
2
5
10

$$$$
