25733
     RDKit          3D

 14 13  0  0  0  0  0  0  0  0999 V2000
    1.7976   -0.2505   -0.0097 O   0  0  0  0  0  0  0  0  0  0  0  0
   -3.0034   -0.2364   -0.0205 O   0  0  0  0  0  0  0  0  0  0  0  0
    6.5833   -0.6283   -0.0035 O   0  0  0  0  0  0  0  0  0  0  0  0
   -7.7878   -0.6286    0.0303 O   0  0  0  0  0  0  0  0  0  0  0  0
   -0.6104   -0.2447   -0.0321 C   0  0  0  0  0  0  0  0  0  0  0  0
    0.6562    0.5965   -0.0100 C   0  0  0  0  0  0  0  0  0  0  0  0
   -1.8645    0.6137   -0.0134 C   0  0  0  0  0  0  0  0  0  0  0  0
    3.0042    0.5002    0.0106 C   0  0  0  0  0  0  0  0  0  0  0  0
    4.1980   -0.4418    0.0104 C   0  0  0  0  0  0  0  0  0  0  0  0
   -4.2122    0.5109   -0.0037 C   0  0  0  0  0  0  0  0  0  0  0  0
   -5.4033   -0.4345   -0.0119 C   0  0  0  0  0  0  0  0  0  0  0  0
    5.5179    0.3116    0.0118 C   0  0  0  0  0  0  0  0  0  0  0  0
   -6.7252    0.3145    0.0254 C   0  0  0  0  0  0  0  0  0  0  0  0
    7.8495    0.0174    0.0163 C   0  0  0  0  0  0  0  0  0  0  0  0
  1  6  1  0
  1  8  1  0
  2  7  1  0
  2 10  1  0
  3 12  1  0
  3 14  1  0
  4 13  1  0
  5  6  1  0
  5  7  1  0
  8  9  1  0
  9 12  1  0
 10 11  1  0
 11 13  1  0
M  END
>  <PUBCHEM_COMPOUND_CID>  (1) 
25733

>  <PUBCHEM_CONFORMER_RMSD>  (1) 
1

>  <PUBCHEM_CONFORMER_DIVERSEORDER>  (1) 
1
33
44
50
29
76
46
63
4
43
60
75
12
8
17
64
20
74
36
77
58
5
7
66
54
41
15
16
24
61
70
56
21
18
68
11
38
32
72
69
27
71
34
25
2
22
53
52
42
39
9
59
47
73
48
28
55
35
65
49
67
10
40
13
14
51
37
62
3
6
78
45
23
30
57
31
26
19

>  <PUBCHEM_MMFF94_PARTIAL_CHARGES>  (1) 
12
1 -0.56
10 0.28
12 0.28
13 0.28
14 0.28
2 -0.56
3 -0.56
36 0.4
4 -0.68
6 0.28
7 0.28
8 0.28

>  <PUBCHEM_EFFECTIVE_ROTOR_COUNT>  (1) 
11

>  <PUBCHEM_PHARMACOPHORE_FEATURES>  (1) 
5
1 1 acceptor
1 2 acceptor
1 3 acceptor
1 4 acceptor
1 4 donor

>  <PUBCHEM_HEAVY_ATOM_COUNT>  (1) 
14

>  <PUBCHEM_ATOM_DEF_STEREO_COUNT>  (1) 
0

>  <PUBCHEM_ATOM_UDEF_STEREO_COUNT>  (1) 
0

>  <PUBCHEM_BOND_DEF_STEREO_COUNT>  (1) 
0

>  <PUBCHEM_BOND_UDEF_STEREO_COUNT>  (1) 
0

>  <PUBCHEM_ISOTOPIC_ATOM_COUNT>  (1) 
0

>  <PUBCHEM_COMPONENT_COUNT>  (1) 
1

>  <PUBCHEM_CACTVS_TAUTO_COUNT>  (1) 
1

>  <PUBCHEM_CONFORMER_ID>  (1) 
0000648500000001

>  <PUBCHEM_MMFF94_ENERGY>  (1) 
18.4685

>  <PUBCHEM_FEATURE_SELFOVERLAP>  (1) 
25.374

>  <PUBCHEM_SHAPE_FINGERPRINT>  (1) 
11315181 36 18411986875495874777
12091667 2 17457782285157433613
13533116 47 15864338126561553664
14123256 10 16732983119708446944
14251764 18 18411138026031846904
14251764 46 18410575084663085419
14729087 3 11167949043929344531
17834076 25 18410575084668366660
18006028 8 18412825785007821629
20767249 213 8862940580503212904
21130983 4 11455888074741783682
22224240 67 15769770260710671886
23035841 295 18412544319005784171
23402539 116 17774997994581354029
23521765 1 18341894090839338820
246663 6 18342179968321175167
33532 11 18410291376836877866
33684 2 8358260340986261205
42788 4 18410573981231179628
8209 1 18186801378782563181

>  <PUBCHEM_SHAPE_MULTIPOLES>  (1) 
264.64
23.78
0.78
0.59
1.07
0.03
0
-3.11
0.26
-0.12
0
0.02
0.01
0.01

>  <PUBCHEM_SHAPE_SELFOVERLAP>  (1) 
475.045

>  <PUBCHEM_SHAPE_VOLUME>  (1) 
171.4

>  <PUBCHEM_COORDINATE_TYPE>  (1) 
2
5
10

$$$$
