25739
     RDKit          3D

 13 14  0  0  0  0  0  0  0  0999 V2000
    1.0032   -1.3800   -0.2594 O   0  0  0  0  0  0  0  0  0  0  0  0
    2.2256    0.5797   -0.2762 N   0  0  0  0  0  0  0  0  0  0  0  0
   -0.0786    0.7043   -0.1081 N   0  0  0  0  0  0  0  0  0  0  0  0
    3.5133   -0.0425   -0.3895 C   0  0  0  0  0  0  0  0  0  0  0  0
    4.2357   -0.5334    0.8233 C   0  0  0  0  0  0  0  0  0  0  0  0
    4.7461    0.6634    0.0756 C   0  0  0  0  0  0  0  0  0  0  0  0
    1.0346   -0.1523   -0.2174 C   0  0  0  0  0  0  0  0  0  0  0  0
   -1.4294    0.3656   -0.0242 C   0  0  0  0  0  0  0  0  0  0  0  0
   -2.3946    1.3672    0.0796 C   0  0  0  0  0  0  0  0  0  0  0  0
   -1.8148   -0.9748   -0.0453 C   0  0  0  0  0  0  0  0  0  0  0  0
   -3.7453    1.0284    0.1625 C   0  0  0  0  0  0  0  0  0  0  0  0
   -3.1653   -1.3136    0.0376 C   0  0  0  0  0  0  0  0  0  0  0  0
   -4.1305   -0.3119    0.1415 C   0  0  0  0  0  0  0  0  0  0  0  0
  1  7  2  0
  2  4  1  0
  2  7  1  0
  3  7  1  0
  3  8  1  0
  4  5  1  0
  4  6  1  0
  5  6  1  0
  8  9  2  0
  8 10  1  0
  9 11  1  0
 10 12  2  0
 11 13  2  0
 12 13  1  0
M  END
>  <PUBCHEM_COMPOUND_CID>  (1) 
25739

>  <PUBCHEM_CONFORMER_RMSD>  (1) 
0.6

>  <PUBCHEM_CONFORMER_DIVERSEORDER>  (1) 
1
7
5
6
3
2
8
4

>  <PUBCHEM_MMFF94_PARTIAL_CHARGES>  (1) 
25
1 -0.57
10 -0.15
11 -0.15
12 -0.15
13 -0.15
14 0.1
15 0.1
16 0.1
17 0.1
18 0.1
19 0.37
2 -0.58
20 0.37
21 0.15
22 0.15
23 0.15
24 0.15
25 0.15
3 -0.55
4 0.05
5 -0.2
6 -0.2
7 0.69
8 0.12
9 -0.15

>  <PUBCHEM_EFFECTIVE_ROTOR_COUNT>  (1) 
4.6

>  <PUBCHEM_PHARMACOPHORE_FEATURES>  (1) 
4
1 1 acceptor
1 2 donor
1 3 donor
6 8 9 10 11 12 13 rings

>  <PUBCHEM_HEAVY_ATOM_COUNT>  (1) 
13

>  <PUBCHEM_ATOM_DEF_STEREO_COUNT>  (1) 
0

>  <PUBCHEM_ATOM_UDEF_STEREO_COUNT>  (1) 
0

>  <PUBCHEM_BOND_DEF_STEREO_COUNT>  (1) 
0

>  <PUBCHEM_BOND_UDEF_STEREO_COUNT>  (1) 
0

>  <PUBCHEM_ISOTOPIC_ATOM_COUNT>  (1) 
0

>  <PUBCHEM_COMPONENT_COUNT>  (1) 
1

>  <PUBCHEM_CACTVS_TAUTO_COUNT>  (1) 
3

>  <PUBCHEM_CONFORMER_ID>  (1) 
0000648B00000001

>  <PUBCHEM_MMFF94_ENERGY>  (1) 
33.5463

>  <PUBCHEM_FEATURE_SELFOVERLAP>  (1) 
20.345

>  <PUBCHEM_SHAPE_FINGERPRINT>  (1) 
10014705 185 18334009476225457877
10465860 250 18201997724679523936
11132069 177 18411984649995816516
11401426 45 18409726270524309869
13167823 11 18259982661130685778
13214271 11 18343580750624997757
13380535 76 18410577271007641671
14123238 8 18343582958111658508
14325111 11 18411138035080704476
15375358 24 18202566150795193439
15536298 74 18269839731170819414
18186145 218 14620792704623899788
18522853 276 18412826893098646161
200 152 18201429299217462357
20279233 1 17846223249653125047
20645477 56 18337957779700089293
20645477 70 16845300376228399790
22485316 2 18333729117739394144
23402539 116 18408877447742852359
23559900 14 18200033924367389718
265663 24 18113334211017252618
42 15 18259702281454784570
5104073 3 18410293584016811698
573450 72 18261664904972227608
77779 3 18410576184565096824

>  <PUBCHEM_SHAPE_MULTIPOLES>  (1) 
251.7
9.63
1.3
0.68
6.56
0.08
-0.05
-0.51
-1.14
-0.87
-0.01
0.26
0.03
-0.19

>  <PUBCHEM_SHAPE_SELFOVERLAP>  (1) 
520.622

>  <PUBCHEM_SHAPE_VOLUME>  (1) 
143.7

>  <PUBCHEM_COORDINATE_TYPE>  (1) 
2
5
10

$$$$
