25732
     RDKit          3D

 11 11  0  0  0  0  0  0  0  0999 V2000
   -2.1550   -0.0044    0.0000 Si  0  0  0  0  0  4  0  0  0  0  0  0
    3.8595   -0.0039    0.0017 O   0  0  0  0  0  0  0  0  0  0  0  0
   -0.2541   -0.0045   -0.0009 C   0  0  0  0  0  0  0  0  0  0  0  0
   -2.7628    0.8861   -1.5391 C   0  0  0  0  0  0  0  0  0  0  0  0
   -2.7628    0.9006    1.5309 C   0  0  0  0  0  0  0  0  0  0  0  0
   -2.8376   -1.7519    0.0097 C   0  0  0  0  0  0  0  0  0  0  0  0
    0.4061    1.2035   -0.0003 C   0  0  0  0  0  0  0  0  0  0  0  0
    0.4062   -1.2125   -0.0012 C   0  0  0  0  0  0  0  0  0  0  0  0
    1.8010    1.2036    0.0001 C   0  0  0  0  0  0  0  0  0  0  0  0
    1.8011   -1.2124   -0.0007 C   0  0  0  0  0  0  0  0  0  0  0  0
    2.4985   -0.0043   -0.0001 C   0  0  0  0  0  0  0  0  0  0  0  0
  1  3  1  0
  1  4  1  0
  1  5  1  0
  1  6  1  0
  2 11  1  0
  3  7  2  0
  3  8  1  0
  7  9  1  0
  8 10  2  0
  9 11  2  0
 10 11  1  0
M  END
>  <PUBCHEM_COMPOUND_CID>  (1) 
25732

>  <PUBCHEM_CONFORMER_RMSD>  (1) 
0.4

>  <PUBCHEM_CONFORMER_DIVERSEORDER>  (1) 
1

>  <PUBCHEM_MMFF94_PARTIAL_CHARGES>  (1) 
16
1 0.46
10 -0.15
11 0.08
2 -0.53
21 0.15
22 0.15
23 0.15
24 0.15
25 0.45
3 -0.22
4 -0.08
5 -0.08
6 -0.08
7 -0.15
8 -0.15
9 -0.15

>  <PUBCHEM_EFFECTIVE_ROTOR_COUNT>  (1) 
1

>  <PUBCHEM_PHARMACOPHORE_FEATURES>  (1) 
2
1 2 donor
6 3 7 8 9 10 11 rings

>  <PUBCHEM_HEAVY_ATOM_COUNT>  (1) 
11

>  <PUBCHEM_ATOM_DEF_STEREO_COUNT>  (1) 
0

>  <PUBCHEM_ATOM_UDEF_STEREO_COUNT>  (1) 
0

>  <PUBCHEM_BOND_DEF_STEREO_COUNT>  (1) 
0

>  <PUBCHEM_BOND_UDEF_STEREO_COUNT>  (1) 
0

>  <PUBCHEM_ISOTOPIC_ATOM_COUNT>  (1) 
0

>  <PUBCHEM_COMPONENT_COUNT>  (1) 
1

>  <PUBCHEM_CACTVS_TAUTO_COUNT>  (1) 
2

>  <PUBCHEM_CONFORMER_ID>  (1) 
0000648400000001

>  <PUBCHEM_MMFF94_ENERGY>  (1) 
19.2228

>  <PUBCHEM_FEATURE_SELFOVERLAP>  (1) 
10.148

>  <PUBCHEM_SHAPE_FINGERPRINT>  (1) 
12032990 46 18412549816643206814
12138202 97 17677594411619089143
12251169 10 18341626909993798577
124424 183 17531514391642421168
12932764 1 18040719147177352107
14144814 61 18342176639573762875
14325111 11 18410856602758371520
15775835 57 18187645782517556943
15906896 17 17489314045216707961
16945 1 18338517434912025348
17844478 74 17677065576575231217
18186145 218 18412269449768032572
200 152 18131060585094273231
20201158 50 18335977601759387559
23402539 116 17561358475058755909
23402655 69 18266438942175425429
2748010 2 18266737059585729588
3248919 1 18059851736143276047
5084963 1 18262798596123857089
528886 8 18341328920424774947
63268167 104 18410852127312668035
8030462 33 17775276145443060463

>  <PUBCHEM_SHAPE_MULTIPOLES>  (1) 
238.72
5.41
1.57
1.07
1.99
0.35
0.01
0.05
0
-0.47
-0.01
-1.15
-0.36
0

>  <PUBCHEM_SHAPE_SELFOVERLAP>  (1) 
464.245

>  <PUBCHEM_SHAPE_VOLUME>  (1) 
145.4

>  <PUBCHEM_COORDINATE_TYPE>  (1) 
2
5
10

$$$$
