25730
     RDKit          3D

 18 19  0  0  0  0  0  0  0  0999 V2000
    2.8191   -2.7298    0.6474 Cl  0  0  0  0  0  0  0  0  0  0  0  0
    5.6623   -1.2230    0.3071 Cl  0  0  0  0  0  0  0  0  0  0  0  0
   -1.2895    1.5263    1.4306 O   0  0  0  0  0  0  0  0  0  0  0  0
    0.5760    1.6935   -0.5651 N   0  0  0  0  0  0  0  0  0  0  0  0
   -0.5914    0.9998   -0.7151 N   0  0  0  0  0  0  0  0  0  0  0  0
    1.7692    0.9915   -0.3554 C   0  0  0  0  0  0  0  0  0  0  0  0
   -2.7300    0.2168    0.1208 C   0  0  0  0  0  0  0  0  0  0  0  0
    1.7410   -0.3620    0.0011 C   0  0  0  0  0  0  0  0  0  0  0  0
    3.0036    1.6358   -0.5006 C   0  0  0  0  0  0  0  0  0  0  0  0
   -1.4978    0.9564    0.3444 C   0  0  0  0  0  0  0  0  0  0  0  0
   -3.8860    0.5566    0.8236 C   0  0  0  0  0  0  0  0  0  0  0  0
   -2.7558   -0.8320   -0.7985 C   0  0  0  0  0  0  0  0  0  0  0  0
    2.9299   -1.0611    0.2094 C   0  0  0  0  0  0  0  0  0  0  0  0
    4.1924    0.9367   -0.2922 C   0  0  0  0  0  0  0  0  0  0  0  0
    4.1556   -0.4117    0.0628 C   0  0  0  0  0  0  0  0  0  0  0  0
   -5.0676   -0.1522    0.6071 C   0  0  0  0  0  0  0  0  0  0  0  0
   -3.9374   -1.5408   -1.0150 C   0  0  0  0  0  0  0  0  0  0  0  0
   -5.0935   -1.2009   -0.3122 C   0  0  0  0  0  0  0  0  0  0  0  0
  1 13  1  0
  2 15  1  0
  3 10  2  0
  4  5  1  0
  4  6  1  0
  5 10  1  0
  6  8  2  0
  6  9  1  0
  7 10  1  0
  7 11  2  0
  7 12  1  0
  8 13  1  0
  9 14  2  0
 11 16  1  0
 12 17  2  0
 13 15  2  0
 14 15  1  0
 16 18  2  0
 17 18  1  0
M  END
>  <PUBCHEM_COMPOUND_CID>  (1) 
25730

>  <PUBCHEM_CONFORMER_RMSD>  (1) 
0.6

>  <PUBCHEM_CONFORMER_DIVERSEORDER>  (1) 
3
29
26
36
32
1
28
16
4
31
34
21
35
15
27
7
30
17
33
2
25
10
6
24
9
20
22
5
14
8
23
11
18
13
12
19

>  <PUBCHEM_MMFF94_PARTIAL_CHARGES>  (1) 
28
1 -0.18
10 0.54
11 -0.15
12 -0.15
13 0.18
14 -0.15
15 0.18
16 -0.15
17 -0.15
18 -0.15
19 0.4
2 -0.18
20 0.15
21 0.15
22 0.37
23 0.15
24 0.15
25 0.15
26 0.15
27 0.15
28 0.15
3 -0.57
4 -0.52
5 -0.41
6 0.1
7 0.09
8 -0.15
9 -0.15

>  <PUBCHEM_EFFECTIVE_ROTOR_COUNT>  (1) 
4

>  <PUBCHEM_PHARMACOPHORE_FEATURES>  (1) 
5
1 3 acceptor
1 4 donor
1 5 donor
6 6 8 9 13 14 15 rings
6 7 11 12 16 17 18 rings

>  <PUBCHEM_HEAVY_ATOM_COUNT>  (1) 
18

>  <PUBCHEM_ATOM_DEF_STEREO_COUNT>  (1) 
0

>  <PUBCHEM_ATOM_UDEF_STEREO_COUNT>  (1) 
0

>  <PUBCHEM_BOND_DEF_STEREO_COUNT>  (1) 
0

>  <PUBCHEM_BOND_UDEF_STEREO_COUNT>  (1) 
0

>  <PUBCHEM_ISOTOPIC_ATOM_COUNT>  (1) 
0

>  <PUBCHEM_COMPONENT_COUNT>  (1) 
1

>  <PUBCHEM_CACTVS_TAUTO_COUNT>  (1) 
2

>  <PUBCHEM_CONFORMER_ID>  (1) 
0000648200000003

>  <PUBCHEM_MMFF94_ENERGY>  (1) 
57.053

>  <PUBCHEM_FEATURE_SELFOVERLAP>  (1) 
26.942

>  <PUBCHEM_SHAPE_FINGERPRINT>  (1) 
10062212 137 18201718479487152495
10616163 171 18271246118217312527
12107183 9 17836372540544290769
12236239 1 18342460356792446689
12410352 35 18342453746811618975
12596602 18 17704352190748286010
12788726 201 17917728889197112993
13167823 11 18413672426377981005
13464513 79 18409450263663615094
13862211 1 18188205400246640066
14251764 18 18272657866273566241
14341114 328 18130793373086585434
14386348 63 16950288411820918179
14576447 43 18408321077816731562
15183329 4 18261096449830906877
15188451 53 16343408614327109319
15196674 1 18410855481618978551
15375462 189 18343301491756505049
15537594 2 18410302384310283599
15880784 105 17918275380724988434
17492 89 18340488842202824911
17834072 33 18412547630193597292
17857418 61 18411695482827715075
1813 80 18188221930552084277
18186145 218 15864068801889047757
19050596 39 18273215300492174600
19433438 38 17676760994299792054
200 152 18410011043798708896
20028762 73 18341889689263713142
20281475 54 18412541041819188845
20511986 3 18271793640779477445
20645477 70 17894352202532928504
21065198 48 18343869913308669233
21250096 35 18343581858753063537
21267235 1 18410301302136637574
21503847 285 10519992573366716230
22224240 67 18338227280761484320
22646028 1 18412545422432577645
22646028 28 18413107273090616559
23366157 5 17769929409761668265
23402539 116 18411979148137474477
23559900 14 18339354279320280449
26918003 58 18335704953082700217
2871803 45 18040150708551054066
3004659 81 18261106374471679155
33824 294 18260266361074353546
3411729 13 16557329660487669936
351380 3 18411699885085070351
4214541 1 18411138005005864581
46194498 28 17096082636036296677
4921388 177 16660931109829903763
5104073 3 17631459037199315219
559249 180 18412542085939177975
573450 72 18060142042116007849
602551 16 16271638000817911966
9709674 26 18259992547760253274

>  <PUBCHEM_SHAPE_MULTIPOLES>  (1) 
358.34
12.29
2.1
0.96
1.99
0.69
0.07
4.84
0.47
-1.5
0.07
0.62
-0.04
-1.46

>  <PUBCHEM_SHAPE_SELFOVERLAP>  (1) 
748.744

>  <PUBCHEM_SHAPE_VOLUME>  (1) 
204.2

>  <PUBCHEM_COORDINATE_TYPE>  (1) 
2
5
10

$$$$
