25740
     RDKit          3D

 15 16  0  0  0  0  0  0  0  0999 V2000
    0.1954    1.6575   -0.1780 O   0  0  0  0  0  0  0  0  0  0  0  0
    1.6122   -0.1599   -0.3370 N   0  0  0  0  0  0  0  0  0  0  0  0
   -0.6463   -0.5353   -0.1667 N   0  0  0  0  0  0  0  0  0  0  0  0
    2.8505    0.6119   -0.4163 C   0  0  0  0  0  0  0  0  0  0  0  0
    3.4741    0.7814    0.9670 C   0  0  0  0  0  0  0  0  0  0  0  0
    3.9334   -0.1727   -1.1530 C   0  0  0  0  0  0  0  0  0  0  0  0
    4.1760   -0.5462    1.2474 C   0  0  0  0  0  0  0  0  0  0  0  0
    4.4731   -1.1619   -0.1215 C   0  0  0  0  0  0  0  0  0  0  0  0
    0.3529    0.4396   -0.2218 C   0  0  0  0  0  0  0  0  0  0  0  0
   -2.0424   -0.3415   -0.0508 C   0  0  0  0  0  0  0  0  0  0  0  0
   -2.8796   -1.4446   -0.0117 C   0  0  0  0  0  0  0  0  0  0  0  0
   -2.5443    0.9477    0.0224 C   0  0  0  0  0  0  0  0  0  0  0  0
   -4.2566   -1.2533    0.1036 C   0  0  0  0  0  0  0  0  0  0  0  0
   -3.9211    1.1390    0.1379 C   0  0  0  0  0  0  0  0  0  0  0  0
   -4.7773    0.0384    0.1785 C   0  0  0  0  0  0  0  0  0  0  0  0
  1  9  2  0
  2  4  1  0
  2  9  1  0
  3  9  1  0
  3 10  1  0
  4  5  1  0
  4  6  1  0
  5  7  1  0
  6  8  1  0
  7  8  1  0
 10 11  2  0
 10 12  1  0
 11 13  1  0
 12 14  2  0
 13 15  2  0
 14 15  1  0
M  END
>  <PUBCHEM_COMPOUND_CID>  (1) 
25740

>  <PUBCHEM_CONFORMER_RMSD>  (1) 
0.6

>  <PUBCHEM_CONFORMER_DIVERSEORDER>  (1) 
1
14
13
6
15
9
3
18
4
17
5
8
19
12
7
2
16
11
10

>  <PUBCHEM_MMFF94_PARTIAL_CHARGES>  (1) 
18
1 -0.57
10 0.12
11 -0.15
12 -0.15
13 -0.15
14 -0.15
15 -0.15
2 -0.73
25 0.37
26 0.37
27 0.15
28 0.15
29 0.15
3 -0.55
30 0.15
31 0.15
4 0.3
9 0.69

>  <PUBCHEM_EFFECTIVE_ROTOR_COUNT>  (1) 
5

>  <PUBCHEM_PHARMACOPHORE_FEATURES>  (1) 
5
1 1 acceptor
1 2 donor
1 3 donor
5 4 5 6 7 8 rings
6 10 11 12 13 14 15 rings

>  <PUBCHEM_HEAVY_ATOM_COUNT>  (1) 
15

>  <PUBCHEM_ATOM_DEF_STEREO_COUNT>  (1) 
0

>  <PUBCHEM_ATOM_UDEF_STEREO_COUNT>  (1) 
0

>  <PUBCHEM_BOND_DEF_STEREO_COUNT>  (1) 
0

>  <PUBCHEM_BOND_UDEF_STEREO_COUNT>  (1) 
0

>  <PUBCHEM_ISOTOPIC_ATOM_COUNT>  (1) 
0

>  <PUBCHEM_COMPONENT_COUNT>  (1) 
1

>  <PUBCHEM_CACTVS_TAUTO_COUNT>  (1) 
3

>  <PUBCHEM_CONFORMER_ID>  (1) 
0000648C00000001

>  <PUBCHEM_MMFF94_ENERGY>  (1) 
33.7958

>  <PUBCHEM_FEATURE_SELFOVERLAP>  (1) 
25.423

>  <PUBCHEM_SHAPE_FINGERPRINT>  (1) 
10465860 250 18131631183951899561
10680689 15 7997966895109023061
10912923 1 17967255312074502425
12236239 1 17821450145068288612
13167823 11 18187365436737593026
13675066 3 18131631196636126732
13760787 5 16950284009389801326
14252887 29 17632582634834855558
15375358 24 17917714591229573367
15885798 251 18408039602481480672
17804303 29 18411703209801019165
17834072 33 18260835929567142364
1813 80 17313108522982458942
18186145 218 16008750233999666900
1986462 14 18409731759576903821
200 152 17489584580758767581
20279233 1 17632582651481896967
20281475 54 17967531306688865086
204376 136 15267340742696359548
20645477 70 14056991699053750064
21267235 1 18336838549734740195
22485316 2 18408602578162079046
22646028 1 18040433299886971794
22854114 59 17132114649658788214
23402539 116 18201995522120858845
23402655 69 11602538719556838810
23557571 272 18200888274645319517
23559900 14 18272655645137391556
26918003 58 17704071785207849618
300161 21 17967248728185024012
42 15 18410009927302280274
4214541 1 18411139112938342525
5104073 3 18339646736712594121
522135 26 16443063894239842114
5374978 207 17918273156031941544
542803 24 15140680271905080631
559249 180 18115581543885822827
573450 72 18334288756341621731
5924683 9 17560226055159872103
77779 3 18410295825905388772
9981440 41 17107633181548705177

>  <PUBCHEM_SHAPE_MULTIPOLES>  (1) 
292.86
11.2
1.37
0.9
0.35
0.01
-0.08
2.09
-1.08
-0.65
-0.03
1.08
0.01
0.03

>  <PUBCHEM_SHAPE_SELFOVERLAP>  (1) 
609.149

>  <PUBCHEM_SHAPE_VOLUME>  (1) 
167

>  <PUBCHEM_COORDINATE_TYPE>  (1) 
2
5
10

$$$$
