25741
     RDKit          3D

 12 12  0  0  0  0  0  0  0  0999 V2000
    3.1985   -1.8852    0.0000 Cl  0  0  0  0  0  0  0  0  0  0  0  0
   -3.0639    1.2236   -0.0003 O   0  0  0  0  0  0  0  0  0  0  0  0
   -1.7772   -0.7496    0.0003 N   0  0  0  0  0  0  0  0  0  0  0  0
   -4.0871   -0.8196   -0.0004 N   0  0  0  0  0  0  0  0  0  0  0  0
    2.1707    0.6389   -0.0001 C   0  0  0  0  0  0  0  0  0  0  0  0
   -0.4609   -0.2869    0.0003 C   0  0  0  0  0  0  0  0  0  0  0  0
    1.9137   -0.7322   -0.0001 C   0  0  0  0  0  0  0  0  0  0  0  0
    1.1120    1.5470    0.0002 C   0  0  0  0  0  0  0  0  0  0  0  0
    0.5978   -1.1951    0.0001 C   0  0  0  0  0  0  0  0  0  0  0  0
   -0.2037    1.0841    0.0004 C   0  0  0  0  0  0  0  0  0  0  0  0
    3.5658    1.1756   -0.0004 C   0  0  0  0  0  0  0  0  0  0  0  0
   -2.9658   -0.0008   -0.0001 C   0  0  0  0  0  0  0  0  0  0  0  0
  1  7  1  0
  2 12  2  0
  3  6  1  0
  3 12  1  0
  4 12  1  0
  5  7  2  0
  5  8  1  0
  5 11  1  0
  6  9  2  0
  6 10  1  0
  7  9  1  0
  8 10  2  0
M  END
>  <PUBCHEM_COMPOUND_CID>  (1) 
25741

>  <PUBCHEM_CONFORMER_RMSD>  (1) 
0.6

>  <PUBCHEM_CONFORMER_DIVERSEORDER>  (1) 
1
5
7
4
8
6
3
2

>  <PUBCHEM_MMFF94_PARTIAL_CHARGES>  (1) 
18
1 -0.18
10 -0.15
11 0.14
12 0.69
13 0.15
14 0.15
15 0.15
19 0.37
2 -0.57
20 0.37
21 0.37
3 -0.55
4 -0.8
5 -0.14
6 0.12
7 0.18
8 -0.15
9 -0.15

>  <PUBCHEM_EFFECTIVE_ROTOR_COUNT>  (1) 
2

>  <PUBCHEM_PHARMACOPHORE_FEATURES>  (1) 
4
1 2 acceptor
1 3 donor
1 4 donor
6 5 6 7 8 9 10 rings

>  <PUBCHEM_HEAVY_ATOM_COUNT>  (1) 
12

>  <PUBCHEM_ATOM_DEF_STEREO_COUNT>  (1) 
0

>  <PUBCHEM_ATOM_UDEF_STEREO_COUNT>  (1) 
0

>  <PUBCHEM_BOND_DEF_STEREO_COUNT>  (1) 
0

>  <PUBCHEM_BOND_UDEF_STEREO_COUNT>  (1) 
0

>  <PUBCHEM_ISOTOPIC_ATOM_COUNT>  (1) 
0

>  <PUBCHEM_COMPONENT_COUNT>  (1) 
1

>  <PUBCHEM_CACTVS_TAUTO_COUNT>  (1) 
3

>  <PUBCHEM_CONFORMER_ID>  (1) 
0000648D00000001

>  <PUBCHEM_MMFF94_ENERGY>  (1) 
32.6743

>  <PUBCHEM_FEATURE_SELFOVERLAP>  (1) 
20.346

>  <PUBCHEM_SHAPE_FINGERPRINT>  (1) 
10130415 120 18336543811645695242
10219947 1 18413672408929235862
10608611 8 18408600353406371789
10980938 120 18411983576507212970
11471102 20 18410006637188461669
12032990 46 18338520742010664422
12346645 6 18342458157922204622
12932764 1 17417802980834042153
13296908 3 18408886209212495699
13380535 76 18335982085911024898
14144814 61 18411982464105363217
14251717 144 18410851070698316422
14325111 11 18410575084805666113
14576447 43 18057028328075834543
15219456 202 18334851688825198884
15442244 35 18268150859587409416
15536298 74 18343301453365549874
15775835 57 18272654596859357733
161256 15 18336263445081692244
16945 1 18338516473002861856
18186145 218 17822291241024375655
20201158 50 18334858346008579411
20645477 70 18411413986682526135
20871998 22 18127695920467918630
21501502 16 18339648819618919960
21501925 9 18338506470055808162
23402655 69 18341323445022117157
23463225 33 18410855421768959214
23552423 10 18261676982721054342
2748010 2 18337381626826984396
3248919 1 17313111877378140773
5104073 3 18410857646714922345
528886 8 18339356474079684392
53812653 166 18271521022078260824
63268167 104 18413111658009632880
7364860 26 18343582941411746282

>  <PUBCHEM_SHAPE_MULTIPOLES>  (1) 
232.99
6.26
1.77
0.6
3.88
0.11
0
0.71
0
-1.24
0
-0.08
0
0

>  <PUBCHEM_SHAPE_SELFOVERLAP>  (1) 
474.122

>  <PUBCHEM_SHAPE_VOLUME>  (1) 
135.8

>  <PUBCHEM_COORDINATE_TYPE>  (1) 
2
5
10

$$$$
