25756
     RDKit          3D

 17 20  0  0  0  0  0  0  0  0999 V2000
   -0.0368    3.3681   -0.0002 N   0  0  0  0  0  0  0  0  0  0  0  0
    0.8989   -0.2076    0.0004 C   0  0  0  0  0  0  0  0  0  0  0  0
    0.1027    0.9291    0.0006 C   0  0  0  0  0  0  0  0  0  0  0  0
    0.1097   -1.3494    0.0004 C   0  0  0  0  0  0  0  0  0  0  0  0
   -1.2885    0.4979    0.0006 C   0  0  0  0  0  0  0  0  0  0  0  0
   -1.2839   -0.9269    0.0002 C   0  0  0  0  0  0  0  0  0  0  0  0
    2.2921   -0.2032   -0.0002 C   0  0  0  0  0  0  0  0  0  0  0  0
    0.7053    2.1732    0.0001 C   0  0  0  0  0  0  0  0  0  0  0  0
    0.7201   -2.5896    0.0003 C   0  0  0  0  0  0  0  0  0  0  0  0
    2.9019    1.0665   -0.0004 C   0  0  0  0  0  0  0  0  0  0  0  0
   -2.4732    1.2090    0.0003 C   0  0  0  0  0  0  0  0  0  0  0  0
   -2.4639   -1.6458   -0.0003 C   0  0  0  0  0  0  0  0  0  0  0  0
    2.9097   -1.4691   -0.0004 C   0  0  0  0  0  0  0  0  0  0  0  0
    2.1103    2.2356   -0.0003 C   0  0  0  0  0  0  0  0  0  0  0  0
    2.1253   -2.6430   -0.0001 C   0  0  0  0  0  0  0  0  0  0  0  0
   -3.6671    0.4819   -0.0005 C   0  0  0  0  0  0  0  0  0  0  0  0
   -3.6625   -0.9267   -0.0007 C   0  0  0  0  0  0  0  0  0  0  0  0
  1  8  1  0
  2  3  1  0
  2  4  2  0
  2  7  1  0
  3  5  1  0
  3  8  2  0
  4  6  1  0
  4  9  1  0
  5  6  2  0
  5 11  1  0
  6 12  1  0
  7 10  1  0
  7 13  2  0
  8 14  1  0
  9 15  2  0
 10 14  2  0
 11 16  2  0
 12 17  2  0
 13 15  1  0
 16 17  1  0
M  END
>  <PUBCHEM_COMPOUND_CID>  (1) 
25756

>  <PUBCHEM_CONFORMER_RMSD>  (1) 
0.4

>  <PUBCHEM_CONFORMER_DIVERSEORDER>  (1) 
1

>  <PUBCHEM_MMFF94_PARTIAL_CHARGES>  (1) 
22
1 -0.9
10 -0.15
11 -0.15
12 -0.15
13 -0.15
14 -0.15
15 -0.15
16 -0.15
17 -0.15
18 0.15
19 0.15
20 0.15
21 0.15
22 0.15
23 0.15
24 0.15
25 0.15
26 0.15
27 0.4
28 0.4
8 0.1
9 -0.15

>  <PUBCHEM_EFFECTIVE_ROTOR_COUNT>  (1) 
0

>  <PUBCHEM_PHARMACOPHORE_FEATURES>  (1) 
6
1 1 cation
1 1 donor
5 2 3 4 5 6 rings
6 2 3 7 8 10 14 rings
6 2 4 7 9 13 15 rings
6 5 6 11 12 16 17 rings

>  <PUBCHEM_HEAVY_ATOM_COUNT>  (1) 
17

>  <PUBCHEM_ATOM_DEF_STEREO_COUNT>  (1) 
0

>  <PUBCHEM_ATOM_UDEF_STEREO_COUNT>  (1) 
0

>  <PUBCHEM_BOND_DEF_STEREO_COUNT>  (1) 
0

>  <PUBCHEM_BOND_UDEF_STEREO_COUNT>  (1) 
0

>  <PUBCHEM_ISOTOPIC_ATOM_COUNT>  (1) 
0

>  <PUBCHEM_COMPONENT_COUNT>  (1) 
1

>  <PUBCHEM_CACTVS_TAUTO_COUNT>  (1) 
1

>  <PUBCHEM_CONFORMER_ID>  (1) 
0000649C00000001

>  <PUBCHEM_MMFF94_ENERGY>  (1) 
85.5918

>  <PUBCHEM_FEATURE_SELFOVERLAP>  (1) 
30.751

>  <PUBCHEM_SHAPE_FINGERPRINT>  (1) 
10319926 262 17185284580444592474
10411042 1 18194683666031858311
10608611 8 18408037403668851541
10967382 1 18338799017162594183
10980938 120 18410012164795534250
11471102 20 18410288125466870567
11578080 2 17271405107977711753
116883 192 18053101713943083975
12553582 1 18194405476546412355
13140716 1 18410572855659513722
13380535 76 18192427687135164858
138480 1 18410573955429668864
13897977 150 18337669827611554687
14178342 30 18341600572943207193
14790565 3 16181030143140659600
15042514 8 17112130738119822706
15196674 1 18410855473034208167
15442244 35 18268431239600498273
15536298 74 18343865524115602818
16945 1 18194401078636719974
193761 8 18122344567088929604
19591789 44 17545610409841497547
20559304 39 18410856585435986667
20645477 70 18410285926670760759
20905425 154 18341334375249609772
21267235 1 18339370668994602955
21501502 16 18411136948369751375
221490 88 18336273421974787875
23184049 29 18049156662175933274
2334 1 18410574028211939366
23419403 2 17680393738290647438
23463225 33 18409728435019184322
23557571 272 17624980431231796766
23559900 14 18411691063248273906
238 59 17830971971430632013
25 1 18335701697207384887
2748010 2 18410854382270731654
335352 9 18122626046276023581
34934 24 18338789014226180687
350125 39 17616540991517719137
352729 6 17545601613674342926
5104073 3 18410576184781538019
53812653 166 18342173431423252784
54173680 148 17329710921034487498
7364860 26 18412544335763536747
7832392 63 18340769247879527425
81228 2 17764032363174979282
84936 182 18059011816618462249
8809292 202 18260835856194294475
9709674 26 18409451418619986211

>  <PUBCHEM_SHAPE_MULTIPOLES>  (1) 
344.87
5.11
3.26
0.61
3.07
0.74
0
-0.76
0
-1.64
0
0
-0.02
0

>  <PUBCHEM_SHAPE_SELFOVERLAP>  (1) 
805.117

>  <PUBCHEM_SHAPE_VOLUME>  (1) 
177

>  <PUBCHEM_COORDINATE_TYPE>  (1) 
2
5
10

$$$$
