25750
     RDKit          3D

 18 17  0  0  0  0  0  0  0  0999 V2000
   -0.3663    0.3160   -2.5059 Cl  0  0  0  0  0  0  0  0  0  0  0  0
    2.8126   -0.1306    0.6219 P   0  0  0  0  0  0  0  0  0  0  0  0
    1.6940   -0.4469   -0.4799 O   0  0  0  0  0  0  0  0  0  0  0  0
   -2.4781   -1.8398   -1.0478 O   0  0  0  0  0  0  0  0  0  0  0  0
    2.3212    1.2686    1.2745 O   0  0  0  0  0  0  0  0  0  0  0  0
    4.0779    0.3103   -0.2891 O   0  0  0  0  0  0  0  0  0  0  0  0
    3.0876   -1.2333    1.6041 O   0  0  0  0  0  0  0  0  0  0  0  0
   -2.7594    0.2036    0.0417 N   0  0  0  0  0  0  0  0  0  0  0  0
   -2.2307    1.4802    0.5203 C   0  0  0  0  0  0  0  0  0  0  0  0
   -4.1545   -0.0565    0.3712 C   0  0  0  0  0  0  0  0  0  0  0  0
   -2.0339   -0.7569   -0.6646 C   0  0  0  0  0  0  0  0  0  0  0  0
   -2.4042    2.5748   -0.5123 C   0  0  0  0  0  0  0  0  0  0  0  0
   -4.2881   -0.7488    1.7120 C   0  0  0  0  0  0  0  0  0  0  0  0
   -0.6187   -0.4324   -0.9718 C   0  0  0  0  0  0  0  0  0  0  0  0
    0.3855   -0.7533   -0.1399 C   0  0  0  0  0  0  0  0  0  0  0  0
    0.2338   -1.4473    1.1824 C   0  0  0  0  0  0  0  0  0  0  0  0
    2.0426    2.3552    0.4086 C   0  0  0  0  0  0  0  0  0  0  0  0
    4.6790   -0.6630   -1.1254 C   0  0  0  0  0  0  0  0  0  0  0  0
  1 14  1  0
  2  3  1  0
  2  5  1  0
  2  6  1  0
  2  7  2  0
  3 15  1  0
  4 11  2  0
  5 17  1  0
  6 18  1  0
  8  9  1  0
  8 10  1  0
  8 11  1  0
  9 12  1  0
 10 13  1  0
 11 14  1  0
 14 15  2  0
 15 16  1  0
M  END
>  <PUBCHEM_COMPOUND_CID>  (1) 
25750

>  <PUBCHEM_CONFORMER_RMSD>  (1) 
0.8

>  <PUBCHEM_CONFORMER_DIVERSEORDER>  (1) 
1
86
69
63
24
27
84
97
82
37
88
44
72
14
51
91
18
70
96
23
80
87
71
79
57
31
48
11
61
74
90
46
85
9
2
56
67
10
55
78
7
29
40
59
73
81
28
76
34
75
49
30
95
12
4
32
17
47
33
66
68
89
45
64
20
36
62
93
52
6
15
58
16
54
53
26
19
77
13
38
41
39
43
3
8
65
35
21
92
25
50
5
60
83
22
94
42

>  <PUBCHEM_MMFF94_PARTIAL_CHARGES>  (1) 
16
1 -0.14
10 0.3
11 0.62
14 0.15
15 -0.06
16 0.14
17 0.28
18 0.28
2 1.51
3 -0.35
4 -0.57
5 -0.55
6 -0.55
7 -0.7
8 -0.66
9 0.3

>  <PUBCHEM_EFFECTIVE_ROTOR_COUNT>  (1) 
8

>  <PUBCHEM_PHARMACOPHORE_FEATURES>  (1) 
2
1 4 acceptor
1 7 acceptor

>  <PUBCHEM_HEAVY_ATOM_COUNT>  (1) 
18

>  <PUBCHEM_ATOM_DEF_STEREO_COUNT>  (1) 
0

>  <PUBCHEM_ATOM_UDEF_STEREO_COUNT>  (1) 
0

>  <PUBCHEM_BOND_DEF_STEREO_COUNT>  (1) 
0

>  <PUBCHEM_BOND_UDEF_STEREO_COUNT>  (1) 
1

>  <PUBCHEM_ISOTOPIC_ATOM_COUNT>  (1) 
0

>  <PUBCHEM_COMPONENT_COUNT>  (1) 
1

>  <PUBCHEM_CACTVS_TAUTO_COUNT>  (1) 
1

>  <PUBCHEM_CONFORMER_ID>  (1) 
0000649600000001

>  <PUBCHEM_MMFF94_ENERGY>  (1) 
32.9297

>  <PUBCHEM_FEATURE_SELFOVERLAP>  (1) 
10.149

>  <PUBCHEM_SHAPE_FINGERPRINT>  (1) 
10366900 7 18260833696052201883
10922523 26 17417804063360947324
11132069 177 18130216159800085865
12186901 62 18272935972877786389
12633257 1 18131072636403182107
12932764 1 18261094293018968950
13296908 3 15068611656965467534
15309172 13 17385719197181380242
15375358 24 8070026644782722616
15375462 478 18113905953085149007
16945 1 18343576330956047959
17041 50 18131349700780860360
17834072 14 8430305827722443356
18186145 218 18272079526576896322
18981168 100 18054474050467917496
20279233 1 11602825691796276196
20645477 56 17988636419905078210
21069387 34 13542166287169378316
21652331 79 18411698824286235513
23557571 272 17846504738121262735
25 1 15123517960748060975
3286 77 18114172017270808944
58051976 100 17203606029547200998
81228 2 16268508838065074583
9882013 296 16225768523185437378

>  <PUBCHEM_SHAPE_MULTIPOLES>  (1) 
341.82
7.9
2.03
1.74
2.11
1.24
-0.58
-0.97
1.54
-0.62
0.4
0.01
-0.15
0.29

>  <PUBCHEM_SHAPE_SELFOVERLAP>  (1) 
634.403

>  <PUBCHEM_SHAPE_VOLUME>  (1) 
217.9

>  <PUBCHEM_COORDINATE_TYPE>  (1) 
2
5
10

$$$$
