25757
     RDKit          3D

 17 20  0  0  0  0  0  0  0  0999 V2000
    3.3870    2.7182   -0.0021 N   0  0  0  0  0  0  0  0  0  0  0  0
    0.6561   -0.3954    0.0005 C   0  0  0  0  0  0  0  0  0  0  0  0
    0.1756    0.9065    0.0010 C   0  0  0  0  0  0  0  0  0  0  0  0
   -0.3979   -1.2986    0.0003 C   0  0  0  0  0  0  0  0  0  0  0  0
   -1.2795    0.8439    0.0008 C   0  0  0  0  0  0  0  0  0  0  0  0
   -1.6380   -0.5351    0.0001 C   0  0  0  0  0  0  0  0  0  0  0  0
    2.0044   -0.7461    0.0001 C   0  0  0  0  0  0  0  0  0  0  0  0
    1.0752    1.9561    0.0007 C   0  0  0  0  0  0  0  0  0  0  0  0
   -0.1235   -2.6533    0.0000 C   0  0  0  0  0  0  0  0  0  0  0  0
    2.9175    0.3265    0.0002 C   0  0  0  0  0  0  0  0  0  0  0  0
    2.4498    1.6586    0.0004 C   0  0  0  0  0  0  0  0  0  0  0  0
   -2.2440    1.8334    0.0006 C   0  0  0  0  0  0  0  0  0  0  0  0
   -2.9621   -0.9297   -0.0006 C   0  0  0  0  0  0  0  0  0  0  0  0
    2.2792   -2.1275   -0.0004 C   0  0  0  0  0  0  0  0  0  0  0  0
    1.2218   -3.0629   -0.0003 C   0  0  0  0  0  0  0  0  0  0  0  0
   -3.5837    1.4343   -0.0005 C   0  0  0  0  0  0  0  0  0  0  0  0
   -3.9380    0.0710   -0.0010 C   0  0  0  0  0  0  0  0  0  0  0  0
  1 11  1  0
  2  3  1  0
  2  4  2  0
  2  7  1  0
  3  5  1  0
  3  8  2  0
  4  6  1  0
  4  9  1  0
  5  6  2  0
  5 12  1  0
  6 13  1  0
  7 10  1  0
  7 14  2  0
  8 11  1  0
  9 15  2  0
 10 11  2  0
 12 16  2  0
 13 17  2  0
 14 15  1  0
 16 17  1  0
M  END
>  <PUBCHEM_COMPOUND_CID>  (1) 
25757

>  <PUBCHEM_CONFORMER_RMSD>  (1) 
0.4

>  <PUBCHEM_CONFORMER_DIVERSEORDER>  (1) 
1

>  <PUBCHEM_MMFF94_PARTIAL_CHARGES>  (1) 
22
1 -0.9
10 -0.15
11 0.1
12 -0.15
13 -0.15
14 -0.15
15 -0.15
16 -0.15
17 -0.15
18 0.15
19 0.15
20 0.15
21 0.15
22 0.15
23 0.15
24 0.15
25 0.15
26 0.15
27 0.4
28 0.4
8 -0.15
9 -0.15

>  <PUBCHEM_EFFECTIVE_ROTOR_COUNT>  (1) 
0

>  <PUBCHEM_PHARMACOPHORE_FEATURES>  (1) 
6
1 1 cation
1 1 donor
5 2 3 4 5 6 rings
6 2 3 7 8 10 11 rings
6 2 4 7 9 14 15 rings
6 5 6 12 13 16 17 rings

>  <PUBCHEM_HEAVY_ATOM_COUNT>  (1) 
17

>  <PUBCHEM_ATOM_DEF_STEREO_COUNT>  (1) 
0

>  <PUBCHEM_ATOM_UDEF_STEREO_COUNT>  (1) 
0

>  <PUBCHEM_BOND_DEF_STEREO_COUNT>  (1) 
0

>  <PUBCHEM_BOND_UDEF_STEREO_COUNT>  (1) 
0

>  <PUBCHEM_ISOTOPIC_ATOM_COUNT>  (1) 
0

>  <PUBCHEM_COMPONENT_COUNT>  (1) 
1

>  <PUBCHEM_CACTVS_TAUTO_COUNT>  (1) 
1

>  <PUBCHEM_CONFORMER_ID>  (1) 
0000649D00000001

>  <PUBCHEM_MMFF94_ENERGY>  (1) 
83.128

>  <PUBCHEM_FEATURE_SELFOVERLAP>  (1) 
30.751

>  <PUBCHEM_SHAPE_FINGERPRINT>  (1) 
10319926 262 17551493867563320856
10411042 1 17618222802280785735
10608611 8 18335700477853709493
10967382 1 18410573981025288901
10980938 120 18410575058898549929
11471102 20 18338230445482039493
11578080 2 16735221596797571710
11680986 33 18335991934002113274
12173636 292 18050285070270045036
12553582 1 17690283707458527819
13140716 1 18410013199988297377
13380535 76 18337387257249398018
13583140 156 16734647883445252281
138480 1 18122343476241108930
13897977 150 18409446955979498069
14178342 30 18196640809534190841
14223421 5 18408046199798861995
14648413 74 18336829663162295529
14790565 3 18337404815398380004
15042514 8 17760086620107764322
15196674 1 18410575123391806505
15309172 13 18338807826346428769
15442244 35 18052258393072897449
15475509 35 16807311107154143177
15475509 8 16765380002493906293
15536298 74 18271805675093250454
16945 1 18410855464518314979
17990270 104 18265894653216562131
18186145 218 18343590615933008157
193761 8 18410856594121308451
19591789 44 18338803415457311014
20510252 161 17982458392543291969
20559304 39 18338798892598045146
20645477 70 18336538323157415383
21267235 1 18195817267110046031
21501502 16 18411980222348718885
21524375 3 18271805786757002030
221490 88 18337118873491702899
2255824 54 18339082588241763326
2334 1 18410855473028926913
23366157 5 18113621149319035570
23419403 2 17389634455224875774
23463225 33 18265613173923674627
23559900 14 18267858398078924931
238 59 17829569960966662085
25 1 18408886226223449508
2748010 2 18409171008319683839
3071541 12 18339646633263963596
3091708 16 9260526167061469698
335352 9 17978228253789521981
33824 294 18409165532653268723
34934 24 17832979451739909691
350125 39 18409735066374693392
352729 6 18049445047501464814
43471831 8 18336542823676707435
5104073 3 18336831901389020089
5939293 188 18122902036500427514
6138700 20 18339368449292888430
7364860 26 18340486660131773198
7832392 63 17980481157346589385
81228 2 17188400006994301587
8272917 22 18341055116771331789
84936 182 18201997728948442536
9709674 26 18337956693025897075

>  <PUBCHEM_SHAPE_MULTIPOLES>  (1) 
344.87
5.52
3.21
0.61
3.24
0.71
0
-2.12
0
-2.39
0
0.02
0.01
0

>  <PUBCHEM_SHAPE_SELFOVERLAP>  (1) 
804.214

>  <PUBCHEM_SHAPE_VOLUME>  (1) 
177.7

>  <PUBCHEM_COORDINATE_TYPE>  (1) 
2
5
10

$$$$
