25758
     RDKit          3D

 17 20  0  0  0  0  0  0  0  0999 V2000
   -2.7693    2.2366   -0.0006 N   0  0  0  0  0  0  0  0  0  0  0  0
    1.0573    0.0091    0.0004 C   0  0  0  0  0  0  0  0  0  0  0  0
    0.0865    1.0009    0.0007 C   0  0  0  0  0  0  0  0  0  0  0  0
    0.4645   -1.2460    0.0004 C   0  0  0  0  0  0  0  0  0  0  0  0
   -1.2158    0.3490    0.0007 C   0  0  0  0  0  0  0  0  0  0  0  0
   -0.9793   -1.0561    0.0003 C   0  0  0  0  0  0  0  0  0  0  0  0
    2.4311    0.2403   -0.0002 C   0  0  0  0  0  0  0  0  0  0  0  0
   -2.5006    0.8577    0.0005 C   0  0  0  0  0  0  0  0  0  0  0  0
    0.4785    2.3265    0.0002 C   0  0  0  0  0  0  0  0  0  0  0  0
    1.2687   -2.3702    0.0002 C   0  0  0  0  0  0  0  0  0  0  0  0
   -2.0264   -1.9576   -0.0002 C   0  0  0  0  0  0  0  0  0  0  0  0
    2.8260    1.5924   -0.0004 C   0  0  0  0  0  0  0  0  0  0  0  0
    3.2466   -0.9081   -0.0005 C   0  0  0  0  0  0  0  0  0  0  0  0
    1.8545    2.6169   -0.0003 C   0  0  0  0  0  0  0  0  0  0  0  0
    2.6639   -2.1940   -0.0002 C   0  0  0  0  0  0  0  0  0  0  0  0
   -3.5601   -0.0542   -0.0003 C   0  0  0  0  0  0  0  0  0  0  0  0
   -3.3261   -1.4432   -0.0006 C   0  0  0  0  0  0  0  0  0  0  0  0
  1  8  1  0
  2  3  2  0
  2  4  1  0
  2  7  1  0
  3  5  1  0
  3  9  1  0
  4  6  1  0
  4 10  2  0
  5  6  1  0
  5  8  2  0
  6 11  2  0
  7 12  2  0
  7 13  1  0
  8 16  1  0
  9 14  2  0
 10 15  1  0
 11 17  1  0
 12 14  1  0
 13 15  2  0
 16 17  2  0
M  END
>  <PUBCHEM_COMPOUND_CID>  (1) 
25758

>  <PUBCHEM_CONFORMER_RMSD>  (1) 
0.4

>  <PUBCHEM_CONFORMER_DIVERSEORDER>  (1) 
1

>  <PUBCHEM_MMFF94_PARTIAL_CHARGES>  (1) 
22
1 -0.9
10 -0.15
11 -0.15
12 -0.15
13 -0.15
14 -0.15
15 -0.15
16 -0.15
17 -0.15
18 0.15
19 0.15
20 0.15
21 0.15
22 0.15
23 0.15
24 0.15
25 0.15
26 0.15
27 0.4
28 0.4
8 0.1
9 -0.15

>  <PUBCHEM_EFFECTIVE_ROTOR_COUNT>  (1) 
0

>  <PUBCHEM_PHARMACOPHORE_FEATURES>  (1) 
6
1 1 cation
1 1 donor
5 2 3 4 5 6 rings
6 2 3 7 9 12 14 rings
6 2 4 7 10 13 15 rings
6 5 6 8 11 16 17 rings

>  <PUBCHEM_HEAVY_ATOM_COUNT>  (1) 
17

>  <PUBCHEM_ATOM_DEF_STEREO_COUNT>  (1) 
0

>  <PUBCHEM_ATOM_UDEF_STEREO_COUNT>  (1) 
0

>  <PUBCHEM_BOND_DEF_STEREO_COUNT>  (1) 
0

>  <PUBCHEM_BOND_UDEF_STEREO_COUNT>  (1) 
0

>  <PUBCHEM_ISOTOPIC_ATOM_COUNT>  (1) 
0

>  <PUBCHEM_COMPONENT_COUNT>  (1) 
1

>  <PUBCHEM_CACTVS_TAUTO_COUNT>  (1) 
1

>  <PUBCHEM_CONFORMER_ID>  (1) 
0000649E00000001

>  <PUBCHEM_MMFF94_ENERGY>  (1) 
85.6532

>  <PUBCHEM_FEATURE_SELFOVERLAP>  (1) 
30.751

>  <PUBCHEM_SHAPE_FINGERPRINT>  (1) 
10319926 262 17257623653854425114
10411042 1 18050568443622683311
10608611 8 18409445895069880373
10967382 1 18266460003961411942
10980938 120 18410576227351200552
11471102 20 18410569626049926143
11578080 2 17344881158046354185
12382932 28 18340200770071276202
12553582 1 18122063100544216354
13132413 78 18340487772707846004
13140716 1 18338796706533492874
13380535 76 18120088635411100298
13897977 150 18337951319636207271
14178342 30 18339630196487490832
14223421 5 18337111275636124699
14790565 3 17260486777320610064
15042514 8 17184187241420699778
15196674 1 18410855477313318727
15375462 6 18265897032791669103
15442244 35 18339361859747088483
15536298 74 18343584070713812522
16945 1 18338799025837048231
17990270 104 18410009935902933354
193761 8 18410856559719027781
19591789 44 17545609310408828602
20510252 161 17838624709530348161
20559304 39 18410575127749921464
20645477 70 18411412951727224647
20905425 154 18341618134980149300
21267235 1 18411146809240525863
21501502 16 18410857672300063343
221490 88 18336554901093407050
2334 1 18410856594163149186
23366157 5 18113337531417206420
23402539 116 17981310206230738686
23463225 33 18409728448030660754
23559900 14 18412536622039183536
238 59 16743074227471300501
2748010 2 18410854373738858334
335352 9 18122624955143262359
34934 24 18193267503750069458
350125 39 18410017658264732929
352729 6 17688874563248440904
5104073 3 18410576214740807555
54173680 148 17545601150298332138
589210 1 18410574006826760693
7364860 26 18341050804297125354
74978 22 18410855417405322695
7832392 63 18340205168085950201
81228 2 17693384343297022250
8809292 202 18260553346077730995
9709674 26 18410858788992255439

>  <PUBCHEM_SHAPE_MULTIPOLES>  (1) 
344.87
5.42
3.01
0.61
2.08
0.47
0
-0.45
0
-1.04
0
-0.01
-0.01
0

>  <PUBCHEM_SHAPE_SELFOVERLAP>  (1) 
805.177

>  <PUBCHEM_SHAPE_VOLUME>  (1) 
175.9

>  <PUBCHEM_COORDINATE_TYPE>  (1) 
2
5
10

$$$$
