2575
     RDKit          3D

 35 39  0  0  1  0  0  0  0  0999 V2000
   -4.7886    1.8461    2.0573 S   0  0  0  0  0  0  0  0  0  0  0  0
   -2.5039    1.3364   -1.6753 O   0  0  0  0  0  0  0  0  0  0  0  0
   -5.3749   -0.8523   -1.5743 O   0  0  0  0  0  0  0  0  0  0  0  0
   -7.1434    0.5251   -1.9878 O   0  0  0  0  0  0  0  0  0  0  0  0
    0.3151    1.1264   -0.2834 O   0  0  0  0  0  0  0  0  0  0  0  0
    2.8643    0.5238    0.6663 O   0  0  0  0  0  0  0  0  0  0  0  0
    2.9735   -1.4911   -0.5104 O   0  0  0  0  0  0  0  0  0  0  0  0
   -4.1278    0.6092   -0.1248 N   0  0  0  0  0  0  0  0  0  0  0  0
   -1.2391    0.0399    1.0505 N   0  0  0  0  0  0  0  0  0  0  0  0
   -3.7386    0.5600    1.2876 C   0  0  0  0  0  0  0  0  0  0  0  0
   -6.1477    1.5294    0.8238 C   0  0  0  0  0  0  0  0  0  0  0  0
   -5.3881    1.2262   -0.4857 C   0  0  0  0  0  0  0  0  0  0  0  0
   -2.3317    0.9879    0.8478 C   0  0  0  0  0  0  0  0  0  0  0  0
   -2.9022    0.9961   -0.5845 C   0  0  0  0  0  0  0  0  0  0  0  0
   -7.0007    0.3666    1.3491 C   0  0  0  0  0  0  0  0  0  0  0  0
   -7.0040    2.7902    0.6927 C   0  0  0  0  0  0  0  0  0  0  0  0
   -6.0827    0.2942   -1.4266 C   0  0  0  0  0  0  0  0  0  0  0  0
    0.0151    0.1913    0.4574 C   0  0  0  0  0  0  0  0  0  0  0  0
    0.9907   -0.9350    0.7982 C   0  0  0  0  0  0  0  0  0  0  0  0
    0.3989   -2.2660    0.3672 C   0  0  0  0  0  0  0  0  0  0  0  0
    2.3891   -0.7144    0.2347 C   0  0  0  0  0  0  0  0  0  0  0  0
    8.7540    1.3276    0.2698 C   0  0  0  0  0  0  0  0  0  0  0  0
    7.8293    0.3773    1.0455 C   0  0  0  0  0  0  0  0  0  0  0  0
    8.1015    1.5587   -1.1015 C   0  0  0  0  0  0  0  0  0  0  0  0
    6.4988    0.7214    0.4541 C   0  0  0  0  0  0  0  0  0  0  0  0
    6.6535    1.3921   -0.7649 C   0  0  0  0  0  0  0  0  0  0  0  0
    5.2416    0.4167    0.9473 C   0  0  0  0  0  0  0  0  0  0  0  0
    4.1263    0.8072    0.2029 C   0  0  0  0  0  0  0  0  0  0  0  0
    0.7310   -3.4065    1.0722 C   0  0  0  0  0  0  0  0  0  0  0  0
   -0.4555   -2.2995   -0.7177 C   0  0  0  0  0  0  0  0  0  0  0  0
    5.5539    1.7719   -1.5156 C   0  0  0  0  0  0  0  0  0  0  0  0
    4.2814    1.4798   -1.0197 C   0  0  0  0  0  0  0  0  0  0  0  0
    0.1874   -4.6287    0.6767 C   0  0  0  0  0  0  0  0  0  0  0  0
   -0.9991   -3.5217   -1.1131 C   0  0  0  0  0  0  0  0  0  0  0  0
   -0.6776   -4.6863   -0.4158 C   0  0  0  0  0  0  0  0  0  0  0  0
  1 10  1  0
  1 11  1  0
  2 14  2  0
  3 17  1  0
  4 17  2  0
  5 18  2  0
  6 21  1  0
  6 28  1  0
  7 21  2  0
  8 10  1  0
  8 12  1  0
  8 14  1  0
  9 13  1  0
  9 18  1  0
 10 13  1  0
 11 12  1  0
 11 15  1  0
 11 16  1  0
 12 17  1  0
 13 14  1  0
 18 19  1  0
 19 20  1  0
 19 21  1  0
 20 29  2  0
 20 30  1  0
 22 23  1  0
 22 24  1  0
 23 25  1  0
 24 26  1  0
 25 26  2  0
 25 27  1  0
 26 31  1  0
 27 28  2  0
 28 32  1  0
 29 33  1  0
 30 34  2  0
 31 32  2  0
 33 35  2  0
 34 35  1  0
M  END
>  <PUBCHEM_COMPOUND_CID>  (1) 
2575

>  <PUBCHEM_CONFORMER_RMSD>  (1) 
1.6

>  <PUBCHEM_CONFORMER_DIVERSEORDER>  (1) 
1
122
65
80
115
102
71
130
107
85
20
34
112
38
49
82
30
91
68
8
128
131
97
72
87
14
2
120
67
84
12
35
123
126
59
66
111
26
101
61
52
121
129
50
40
86
44
116
53
79
39
64
105
42
11
99
95
127
33
132
45
16
100
109
113
25
54
117
15
103
88
62
9
27
18
124
19
7
110
32
93
76
92
6
83
98
51
29
74
119
43
37
70
23
5
41
94
114
31
10
78
96
13
75
90
17
106
60
22
56
63
108
125
47
118
48
36
81
104
57
46
28
3
24
4
55
58
21
73
89
77
69

>  <PUBCHEM_MMFF94_PARTIAL_CHARGES>  (1) 
42
1 -0.45
10 0.44
11 0.23
12 0.36
13 0.28
14 0.58
17 0.66
18 0.57
19 0.27
2 -0.57
20 -0.14
21 0.66
23 0.14
24 0.14
25 -0.14
26 -0.14
27 -0.15
28 0.08
29 -0.15
3 -0.65
30 -0.15
31 -0.15
32 -0.15
33 -0.15
34 -0.15
35 -0.15
4 -0.57
45 0.37
47 0.5
5 -0.57
54 0.15
55 0.15
56 0.15
57 0.15
58 0.15
59 0.15
6 -0.23
60 0.15
61 0.15
7 -0.57
8 -0.59
9 -0.65

>  <PUBCHEM_EFFECTIVE_ROTOR_COUNT>  (1) 
9.4

>  <PUBCHEM_PHARMACOPHORE_FEATURES>  (1) 
14
1 19 anion
1 2 acceptor
1 3 acceptor
1 4 acceptor
1 5 acceptor
1 7 acceptor
1 9 donor
3 11 15 16 hydrophobe
3 3 4 17 anion
4 8 10 13 14 rings
5 22 23 24 25 26 rings
6 20 29 30 33 34 35 rings
6 25 26 27 28 31 32 rings
7 1 8 10 11 12 13 14 rings

>  <PUBCHEM_HEAVY_ATOM_COUNT>  (1) 
35

>  <PUBCHEM_ATOM_DEF_STEREO_COUNT>  (1) 
0

>  <PUBCHEM_ATOM_UDEF_STEREO_COUNT>  (1) 
4

>  <PUBCHEM_BOND_DEF_STEREO_COUNT>  (1) 
0

>  <PUBCHEM_BOND_UDEF_STEREO_COUNT>  (1) 
0

>  <PUBCHEM_ISOTOPIC_ATOM_COUNT>  (1) 
0

>  <PUBCHEM_COMPONENT_COUNT>  (1) 
1

>  <PUBCHEM_CACTVS_TAUTO_COUNT>  (1) 
2

>  <PUBCHEM_CONFORMER_ID>  (1) 
00000A0F00000001

>  <PUBCHEM_MMFF94_ENERGY>  (1) 
107.2384

>  <PUBCHEM_FEATURE_SELFOVERLAP>  (1) 
74.921

>  <PUBCHEM_SHAPE_FINGERPRINT>  (1) 
10 15 17312827082497647344
10165383 225 18411420604852368544
10190206 1 18341603876216754271
102385 1 17763465419139843184
10369192 42 18335140873584957493
10904742 90 18411983550489463520
11007060 377 18059291071217815457
11135926 11 18408882911220885879
11136131 41 18260821549527129691
11331351 85 11602813558472006231
11410812 94 17346024693405282142
11823591 26 18410291402310723954
11991303 11 18261680379998585186
12597179 24 18272940423097395326
12758862 11 14117511047902231354
12977781 61 17488488388919874494
13150687 139 18340775866709558742
13631057 29 18271235136813942679
13911987 19 18408879633697005317
14150023 24 18333446530688388418
14190465 44 18268704099416736648
14294032 229 18408035221424811669
15183329 4 13183023999395313084
15297060 5 18272371992090340963
15301273 46 13840260382429274192
1577012 14 18059572460195121753
15849732 13 17676488363256940316
16992610 120 18337686278085365724
18365409 1 18269837670008563031
20505436 4 17845936230659631767
21033648 144 18260546693695381855
21365058 27 18343305868502772951
21781055 127 17916588627468220034
21792961 116 11815627354253763152
21792965 131 18114168779093458203
22311459 1 18411982469107861904
23576562 1 18117842320561329196
249057 3 18334860558866685924
25019877 29 18409732858883265398
4073 2 18336554816190645571
4258327 124 18188220921957637636
437815 12 10519981561038855963
504843 32 18260553367626862531
563151 40 18341609356231208575
563151 97 18269277872402835729
5758199 1 18341614802064532593
59755656 520 18412821400299561886
6669772 16 18341619179153737198
6691757 9 18272100430562534530

>  <PUBCHEM_SHAPE_MULTIPOLES>  (1) 
678.96
22.95
4.09
1.59
18.68
7.66
0.22
-22.95
1.41
-1.51
-0.06
-1.67
-0.36
-2.09

>  <PUBCHEM_SHAPE_SELFOVERLAP>  (1) 
1470.718

>  <PUBCHEM_SHAPE_VOLUME>  (1) 
374.4

>  <PUBCHEM_COORDINATE_TYPE>  (1) 
2
5
10

$$$$
