25776
     RDKit          3D

 12 12  0  0  0  0  0  0  0  0999 V2000
   -3.4482   -0.3600   -1.7361 Br  0  0  0  0  0  0  0  0  0  0  0  0
   -3.5128    1.3317    1.0228 Br  0  0  0  0  0  0  0  0  0  0  0  0
    4.6010    0.4088   -0.2349 Br  0  0  0  0  0  0  0  0  0  0  0  0
   -1.9009   -1.3862    0.8922 O   0  0  0  0  0  0  0  0  0  0  0  0
   -0.0215   -0.2142    0.1434 C   0  0  0  0  0  0  0  0  0  0  0  0
    0.5020    1.0740    0.0343 C   0  0  0  0  0  0  0  0  0  0  0  0
    0.8328   -1.3170    0.1401 C   0  0  0  0  0  0  0  0  0  0  0  0
   -1.4583   -0.4079    0.2591 C   0  0  0  0  0  0  0  0  0  0  0  0
    1.8798    1.2595   -0.0783 C   0  0  0  0  0  0  0  0  0  0  0  0
    2.2107   -1.1314    0.0276 C   0  0  0  0  0  0  0  0  0  0  0  0
    2.7343    0.1569   -0.0816 C   0  0  0  0  0  0  0  0  0  0  0  0
   -2.4189    0.5858   -0.3886 C   0  0  0  0  0  0  0  0  0  0  0  0
  1 12  1  0
  2 12  1  0
  3 11  1  0
  4  8  2  0
  5  6  2  0
  5  7  1  0
  5  8  1  0
  6  9  1  0
  7 10  2  0
  8 12  1  0
  9 11  2  0
 10 11  1  0
M  END
>  <PUBCHEM_COMPOUND_CID>  (1) 
25776

>  <PUBCHEM_CONFORMER_RMSD>  (1) 
0.6

>  <PUBCHEM_CONFORMER_DIVERSEORDER>  (1) 
1
5
3
6
2
4
7

>  <PUBCHEM_MMFF94_PARTIAL_CHARGES>  (1) 
16
1 -0.23
10 -0.15
11 0.11
12 0.52
13 0.15
14 0.15
15 0.15
16 0.15
2 -0.23
3 -0.11
4 -0.57
5 0.09
6 -0.15
7 -0.15
8 0.42
9 -0.15

>  <PUBCHEM_EFFECTIVE_ROTOR_COUNT>  (1) 
2

>  <PUBCHEM_PHARMACOPHORE_FEATURES>  (1) 
6
1 1 hydrophobe
1 2 hydrophobe
1 3 hydrophobe
1 4 acceptor
3 1 2 12 hydrophobe
6 5 6 7 9 10 11 rings

>  <PUBCHEM_HEAVY_ATOM_COUNT>  (1) 
12

>  <PUBCHEM_ATOM_DEF_STEREO_COUNT>  (1) 
0

>  <PUBCHEM_ATOM_UDEF_STEREO_COUNT>  (1) 
0

>  <PUBCHEM_BOND_DEF_STEREO_COUNT>  (1) 
0

>  <PUBCHEM_BOND_UDEF_STEREO_COUNT>  (1) 
0

>  <PUBCHEM_ISOTOPIC_ATOM_COUNT>  (1) 
0

>  <PUBCHEM_COMPONENT_COUNT>  (1) 
1

>  <PUBCHEM_CACTVS_TAUTO_COUNT>  (1) 
2

>  <PUBCHEM_CONFORMER_ID>  (1) 
000064B000000001

>  <PUBCHEM_MMFF94_ENERGY>  (1) 
29.9225

>  <PUBCHEM_FEATURE_SELFOVERLAP>  (1) 
31.749

>  <PUBCHEM_SHAPE_FINGERPRINT>  (1) 
11401426 45 18342168982258958204
11543360 7 16773793749058704828
12138202 97 17749380499067668159
124424 183 17676477346343884000
12932764 1 17346597482522064771
13380535 76 18334857216432498850
13705890 14 15841833369608043820
13760787 5 18261111846877075926
14144814 61 18408040689007622729
14325111 11 18336269037065833968
14576447 43 18129925888561827695
14993402 34 18060410335384393806
15775835 57 18201723916419915865
16945 1 18187643578898562760
17844478 74 17458919136745805269
18186145 218 18040722446097357302
19026448 4 15769768057461052816
200 152 18201430424356670375
20201158 50 18334853909481507286
20279233 1 17458061551803516371
20645477 70 17895462618787705314
20871999 31 16773790407558233557
231179 274 17313375730209648236
23402539 116 18130784555487325221
23402655 69 18340477868856295933
23557571 272 16343703244261230297
23559900 14 18410018754499167436
23598291 2 17986383395983918599
25 1 18334012757137061307
2748010 2 18119531191626890292
3248919 1 18408881849662317827
528886 8 18409729556179559736
53812653 166 18410295813484743256
6333449 129 18187646937747773523
8030462 33 18343858935519609317

>  <PUBCHEM_SHAPE_MULTIPOLES>  (1) 
258.91
7.48
1.48
1.11
2.72
0.12
-0.25
1.37
-1.42
-0.53
0.2
-1.19
-0.2
-0.86

>  <PUBCHEM_SHAPE_SELFOVERLAP>  (1) 
492.361

>  <PUBCHEM_SHAPE_VOLUME>  (1) 
166.1

>  <PUBCHEM_COORDINATE_TYPE>  (1) 
2
5
10

$$$$
