25771
     RDKit          3D

 14 14  0  0  0  0  0  0  0  0999 V2000
   -3.2689    0.0067    0.0003 Si  0  0  0  0  0  4  0  0  0  0  0  0
    3.2474    0.0068   -0.0004 Si  0  0  0  0  0  4  0  0  0  0  0  0
   -1.3680    0.0070    0.0004 C   0  0  0  0  0  0  0  0  0  0  0  0
    1.3842    0.0072   -0.0003 C   0  0  0  0  0  0  0  0  0  0  0  0
   -3.8759   -0.8829    1.5402 C   0  0  0  0  0  0  0  0  0  0  0  0
   -3.8774   -0.8995   -1.5297 C   0  0  0  0  0  0  0  0  0  0  0  0
   -3.9517    1.7541   -0.0102 C   0  0  0  0  0  0  0  0  0  0  0  0
    3.8920   -0.8830   -1.5402 C   0  0  0  0  0  0  0  0  0  0  0  0
    3.8935   -0.8994    1.5298 C   0  0  0  0  0  0  0  0  0  0  0  0
    3.9680    1.7541    0.0101 C   0  0  0  0  0  0  0  0  0  0  0  0
   -0.7082   -1.2008    0.0002 C   0  0  0  0  0  0  0  0  0  0  0  0
    0.6866   -1.2008   -0.0001 C   0  0  0  0  0  0  0  0  0  0  0  0
   -0.7082    1.2151    0.0002 C   0  0  0  0  0  0  0  0  0  0  0  0
    0.6867    1.2153   -0.0002 C   0  0  0  0  0  0  0  0  0  0  0  0
  1  3  1  0
  1  5  1  0
  1  6  1  0
  1  7  1  0
  2  4  1  0
  2  8  1  0
  2  9  1  0
  2 10  1  0
  3 11  2  0
  3 13  1  0
  4 12  2  0
  4 14  1  0
 11 12  1  0
 13 14  2  0
M  END
>  <PUBCHEM_COMPOUND_CID>  (1) 
25771

>  <PUBCHEM_CONFORMER_RMSD>  (1) 
0.6

>  <PUBCHEM_CONFORMER_DIVERSEORDER>  (1) 
1
2

>  <PUBCHEM_MMFF94_PARTIAL_CHARGES>  (1) 
18
1 0.46
10 -0.08
11 -0.15
12 -0.15
13 -0.15
14 -0.15
2 0.46
3 -0.22
33 0.15
34 0.15
35 0.15
36 0.15
4 -0.22
5 -0.08
6 -0.08
7 -0.08
8 -0.08
9 -0.08

>  <PUBCHEM_EFFECTIVE_ROTOR_COUNT>  (1) 
2

>  <PUBCHEM_PHARMACOPHORE_FEATURES>  (1) 
1
6 3 4 11 12 13 14 rings

>  <PUBCHEM_HEAVY_ATOM_COUNT>  (1) 
14

>  <PUBCHEM_ATOM_DEF_STEREO_COUNT>  (1) 
0

>  <PUBCHEM_ATOM_UDEF_STEREO_COUNT>  (1) 
0

>  <PUBCHEM_BOND_DEF_STEREO_COUNT>  (1) 
0

>  <PUBCHEM_BOND_UDEF_STEREO_COUNT>  (1) 
0

>  <PUBCHEM_ISOTOPIC_ATOM_COUNT>  (1) 
0

>  <PUBCHEM_COMPONENT_COUNT>  (1) 
1

>  <PUBCHEM_CACTVS_TAUTO_COUNT>  (1) 
1

>  <PUBCHEM_CONFORMER_ID>  (1) 
000064AB00000001

>  <PUBCHEM_MMFF94_ENERGY>  (1) 
20.1048

>  <PUBCHEM_FEATURE_SELFOVERLAP>  (1) 
5.074

>  <PUBCHEM_SHAPE_FINGERPRINT>  (1) 
10062212 137 18336818724038977971
10680689 15 18343869913656458535
11132069 177 18059850645179202937
11401426 45 18343010078225471373
11543360 7 17703787063051149469
12032990 46 18410867554761465511
124424 183 17894903023556702259
12616999 72 16515695459270455042
12670546 56 17386272229786198785
13214271 11 18334861610811458717
13296908 3 18410013242821795460
13583140 156 17385995230207381267
13675066 3 18343308067251195497
13705890 14 16917066668135443846
13760787 19 17313393304894154523
13760787 5 18261106374482183287
14144814 61 18333450941081315120
14289901 80 17775288257055656554
15536298 74 18272371979590261828
16945 1 18410575088963496359
18186145 218 17894352168004229286
19050596 39 18114741534107951872
200 152 18342166817864557495
20281475 54 17561367287645760662
20559304 39 18188204304818625778
20645476 183 17531543069455996478
20645477 70 17988928829757989046
23402539 116 18272360958661865476
23402655 69 18202284679981802036
23557571 272 16558478577524832945
23559900 14 18131072585317313830
2748010 2 18120658199424246731
474 4 17460039698298748604
4990 188 18131636655834985398
5104073 3 18334295361716876793
581208 293 18131630088988388070
633830 44 18410015416080561294
90127 26 18410020930802926857

>  <PUBCHEM_SHAPE_MULTIPOLES>  (1) 
324.54
9.41
1.66
1.29
0.09
0.51
0
0.09
0
0
0
0
-0.53
0

>  <PUBCHEM_SHAPE_SELFOVERLAP>  (1) 
607.844

>  <PUBCHEM_SHAPE_VOLUME>  (1) 
204.2

>  <PUBCHEM_COORDINATE_TYPE>  (1) 
2
5
10

$$$$
