25772
     RDKit          3D

 13 13  0  0  0  0  0  0  0  0999 V2000
    3.2472    2.3141   -0.3666 O   0  0  0  0  0  0  0  0  0  0  0  0
    1.3965   -0.8876    0.1331 N   0  0  0  0  0  0  0  0  0  0  0  0
    0.1472   -1.2307    0.9316 C   0  0  0  0  0  0  0  0  0  0  0  0
    1.6875    0.6007    0.2604 C   0  0  0  0  0  0  0  0  0  0  0  0
    1.1746   -1.2379   -1.3313 C   0  0  0  0  0  0  0  0  0  0  0  0
    2.5771   -1.6829    0.6716 C   0  0  0  0  0  0  0  0  0  0  0  0
   -1.0704   -0.4881    0.4659 C   0  0  0  0  0  0  0  0  0  0  0  0
    2.9498    0.9317   -0.5111 C   0  0  0  0  0  0  0  0  0  0  0  0
   -1.3803    0.7463    1.0260 C   0  0  0  0  0  0  0  0  0  0  0  0
   -1.8786   -1.0407   -0.5216 C   0  0  0  0  0  0  0  0  0  0  0  0
   -2.5123    1.4367    0.5932 C   0  0  0  0  0  0  0  0  0  0  0  0
   -3.0106   -0.3502   -0.9543 C   0  0  0  0  0  0  0  0  0  0  0  0
   -3.3276    0.8886   -0.3970 C   0  0  0  0  0  0  0  0  0  0  0  0
  1  8  1  0
  2  3  1  0
  2  4  1  0
  2  5  1  0
  2  6  1  0
  3  7  1  0
  4  8  1  0
  7  9  2  0
  7 10  1  0
  9 11  1  0
 10 12  2  0
 11 13  2  0
 12 13  1  0
M  CHG  1   2   1
M  END
>  <PUBCHEM_COMPOUND_CID>  (1) 
25772

>  <PUBCHEM_CONFORMER_RMSD>  (1) 
0.6

>  <PUBCHEM_CONFORMER_DIVERSEORDER>  (1) 
6
1
7
5
2
4
3

>  <PUBCHEM_MMFF94_PARTIAL_CHARGES>  (1) 
19
1 -0.68
10 -0.15
11 -0.15
12 -0.15
13 -0.15
2 -1.01
26 0.15
27 0.15
28 0.15
29 0.15
3 0.65
30 0.4
31 0.15
4 0.5
5 0.5
6 0.5
7 -0.14
8 0.28
9 -0.15

>  <PUBCHEM_EFFECTIVE_ROTOR_COUNT>  (1) 
4

>  <PUBCHEM_PHARMACOPHORE_FEATURES>  (1) 
4
1 1 acceptor
1 1 donor
1 2 cation
6 7 9 10 11 12 13 rings

>  <PUBCHEM_HEAVY_ATOM_COUNT>  (1) 
13

>  <PUBCHEM_ATOM_DEF_STEREO_COUNT>  (1) 
0

>  <PUBCHEM_ATOM_UDEF_STEREO_COUNT>  (1) 
0

>  <PUBCHEM_BOND_DEF_STEREO_COUNT>  (1) 
0

>  <PUBCHEM_BOND_UDEF_STEREO_COUNT>  (1) 
0

>  <PUBCHEM_ISOTOPIC_ATOM_COUNT>  (1) 
0

>  <PUBCHEM_COMPONENT_COUNT>  (1) 
1

>  <PUBCHEM_CACTVS_TAUTO_COUNT>  (1) 
1

>  <PUBCHEM_CONFORMER_ID>  (1) 
000064AC00000006

>  <PUBCHEM_MMFF94_ENERGY>  (1) 
45.5732

>  <PUBCHEM_FEATURE_SELFOVERLAP>  (1) 
20.297

>  <PUBCHEM_SHAPE_FINGERPRINT>  (1) 
12162725 195 18340763762889863775
12382932 28 11963651340425802492
12897270 3 17775001323222991759
12932764 1 17023183773674370627
13571099 52 17603296076944265943
14250199 8 18338519642440852069
14252887 29 12822714099192071111
15775835 57 18408606950375755837
16945 1 18197768010916480491
17357990 137 17982178816052714121
18186145 218 18334294219429375679
18522853 303 18340486668975019653
20201158 50 16629946725761067703
20645464 45 16153426159930850233
20645476 183 18272929410273695207
20653085 51 18268438936371783785
20711985 344 13973143994175141571
20715346 28 16732990803447306507
21501502 16 18342173354066167115
21524375 3 18338234998274162012
21947302 44 18408040714872293978
22096605 113 18334572472969598209
23419403 2 15653530149400169227
23552423 10 18058167220274532375
25610 137 18338519763269694067
305870 269 18187648037507152282
3248919 1 17988359265539100483
369184 2 18040436555936431923
5262128 65 17130731515782351736
63268167 104 18335700520391841369
74978 22 18335424512892927674
9939556 21 18341888537652606767

>  <PUBCHEM_SHAPE_MULTIPOLES>  (1) 
256.68
5.54
1.91
1.12
0.07
0.56
0.07
2.07
1.01
-1.37
0.06
0.06
-0.22
-0.75

>  <PUBCHEM_SHAPE_SELFOVERLAP>  (1) 
512.185

>  <PUBCHEM_SHAPE_VOLUME>  (1) 
153.9

>  <PUBCHEM_COORDINATE_TYPE>  (1) 
2
5
10

$$$$
