25786
     RDKit          3D

 11 12  0  0  0  0  0  0  0  0999 V2000
    2.0061   -1.0638    0.0005 O   0  0  0  0  0  0  0  0  0  0  0  0
    3.3231    0.7674    0.0004 O   0  0  0  0  0  0  0  0  0  0  0  0
    1.0585    1.0876   -0.0003 N   0  0  0  0  0  0  0  0  0  0  0  0
   -0.4588   -0.7786    0.0000 C   0  0  0  0  0  0  0  0  0  0  0  0
   -0.2487    0.5953   -0.0002 C   0  0  0  0  0  0  0  0  0  0  0  0
    0.7098   -1.7075   -0.0006 C   0  0  0  0  0  0  0  0  0  0  0  0
   -1.7688   -1.2710    0.0001 C   0  0  0  0  0  0  0  0  0  0  0  0
   -1.3275    1.4829   -0.0001 C   0  0  0  0  0  0  0  0  0  0  0  0
   -2.8513   -0.3902    0.0003 C   0  0  0  0  0  0  0  0  0  0  0  0
   -2.6304    0.9863    0.0001 C   0  0  0  0  0  0  0  0  0  0  0  0
    2.1880    0.2915   -0.0001 C   0  0  0  0  0  0  0  0  0  0  0  0
  1  6  1  0
  1 11  1  0
  2 11  2  0
  3  5  1  0
  3 11  1  0
  4  5  2  0
  4  6  1  0
  4  7  1  0
  5  8  1  0
  7  9  2  0
  8 10  2  0
  9 10  1  0
M  END
>  <PUBCHEM_COMPOUND_CID>  (1) 
25786

>  <PUBCHEM_CONFORMER_RMSD>  (1) 
0.4

>  <PUBCHEM_CONFORMER_DIVERSEORDER>  (1) 
1

>  <PUBCHEM_MMFF94_PARTIAL_CHARGES>  (1) 
16
1 -0.43
10 -0.15
11 0.78
14 0.15
15 0.37
16 0.15
17 0.15
18 0.15
2 -0.57
3 -0.55
4 -0.14
5 0.12
6 0.42
7 -0.15
8 -0.15
9 -0.15

>  <PUBCHEM_EFFECTIVE_ROTOR_COUNT>  (1) 
0.6

>  <PUBCHEM_PHARMACOPHORE_FEATURES>  (1) 
4
1 2 acceptor
1 3 donor
6 1 3 4 5 6 11 rings
6 4 5 7 8 9 10 rings

>  <PUBCHEM_HEAVY_ATOM_COUNT>  (1) 
11

>  <PUBCHEM_ATOM_DEF_STEREO_COUNT>  (1) 
0

>  <PUBCHEM_ATOM_UDEF_STEREO_COUNT>  (1) 
0

>  <PUBCHEM_BOND_DEF_STEREO_COUNT>  (1) 
0

>  <PUBCHEM_BOND_UDEF_STEREO_COUNT>  (1) 
0

>  <PUBCHEM_ISOTOPIC_ATOM_COUNT>  (1) 
0

>  <PUBCHEM_COMPONENT_COUNT>  (1) 
1

>  <PUBCHEM_CACTVS_TAUTO_COUNT>  (1) 
2

>  <PUBCHEM_CONFORMER_ID>  (1) 
000064BA00000001

>  <PUBCHEM_MMFF94_ENERGY>  (1) 
29.5263

>  <PUBCHEM_FEATURE_SELFOVERLAP>  (1) 
20.322

>  <PUBCHEM_SHAPE_FINGERPRINT>  (1) 
12524768 44 18267308629622994511
12897270 3 18411699893664059173
12932764 1 17346308310789808211
13380535 76 18410007728121054971
14325111 11 18410855442980148992
15775835 57 18412832373518983969
16945 1 18410574011116453223
19973954 147 18267587914018463631
20201158 50 18410290319910341519
20871998 184 18129386067186662575
21040471 1 18410856538201908834
21501502 16 18339358557070361483
23235685 24 18409442600571533933
23402655 69 18268976623818531701
23463225 33 18334289830247060330
23552423 10 18261676982436341191
2748010 2 18338237037935137455
369184 2 18410009918749171489
5084963 1 18201159948326877065
528886 8 18411131459190440235
53812653 166 18343860039215668800
7364860 26 18198622129793910926

>  <PUBCHEM_SHAPE_MULTIPOLES>  (1) 
209.66
4.21
1.67
0.59
1.13
0.23
0
-0.72
0
-0.13
0
-0.06
0.01
0

>  <PUBCHEM_SHAPE_SELFOVERLAP>  (1) 
453.158

>  <PUBCHEM_SHAPE_VOLUME>  (1) 
112.5

>  <PUBCHEM_COORDINATE_TYPE>  (1) 
2
5
10

$$$$
