25793
     RDKit          3D

  8  7  0  0  1  0  0  0  0  0999 V2000
    3.6547    0.6857    0.1390 O   0  0  0  0  0  0  0  0  0  0  0  0
    0.0152   -0.2979   -0.2885 C   0  0  0  0  0  0  0  0  0  0  0  0
   -1.2431    0.4812    0.1534 C   0  0  0  0  0  0  0  0  0  0  0  0
    1.2668    0.5036    0.1227 C   0  0  0  0  0  0  0  0  0  0  0  0
   -2.5572   -0.1629   -0.2962 C   0  0  0  0  0  0  0  0  0  0  0  0
    0.0376   -1.7144    0.2934 C   0  0  0  0  0  0  0  0  0  0  0  0
    2.5837   -0.1573   -0.2684 C   0  0  0  0  0  0  0  0  0  0  0  0
   -3.7576    0.6619    0.1446 C   0  0  0  0  0  0  0  0  0  0  0  0
  1  7  1  0
  2  3  1  0
  2  4  1  0
  2  6  1  0
  3  5  1  0
  4  7  1  0
  5  8  1  0
M  END
>  <PUBCHEM_COMPOUND_CID>  (1) 
25793

>  <PUBCHEM_CONFORMER_RMSD>  (1) 
0.6

>  <PUBCHEM_CONFORMER_DIVERSEORDER>  (1) 
1
52
54
32
27
42
53
6
44
33
17
39
25
2
46
7
55
43
3
19
51
8
56
29
38
26
16
34
31
50
23
30
36
49
20
37
45
21
11
12
47
28
14
41
13
22
48
40
35
24
18
4
15
9
10
5

>  <PUBCHEM_MMFF94_PARTIAL_CHARGES>  (1) 
3
1 -0.68
24 0.4
7 0.28

>  <PUBCHEM_EFFECTIVE_ROTOR_COUNT>  (1) 
4

>  <PUBCHEM_PHARMACOPHORE_FEATURES>  (1) 
5
1 1 acceptor
1 1 donor
1 6 hydrophobe
1 8 hydrophobe
4 2 3 4 5 hydrophobe

>  <PUBCHEM_HEAVY_ATOM_COUNT>  (1) 
8

>  <PUBCHEM_ATOM_DEF_STEREO_COUNT>  (1) 
0

>  <PUBCHEM_ATOM_UDEF_STEREO_COUNT>  (1) 
1

>  <PUBCHEM_BOND_DEF_STEREO_COUNT>  (1) 
0

>  <PUBCHEM_BOND_UDEF_STEREO_COUNT>  (1) 
0

>  <PUBCHEM_ISOTOPIC_ATOM_COUNT>  (1) 
0

>  <PUBCHEM_COMPONENT_COUNT>  (1) 
1

>  <PUBCHEM_CACTVS_TAUTO_COUNT>  (1) 
1

>  <PUBCHEM_CONFORMER_ID>  (1) 
000064C100000001

>  <PUBCHEM_MMFF94_ENERGY>  (1) 
4.7036

>  <PUBCHEM_FEATURE_SELFOVERLAP>  (1) 
25.56

>  <PUBCHEM_SHAPE_FINGERPRINT>  (1) 
10219947 1 17894632539153291333
11062470 55 14979958072914176384
14325111 11 18410575088968634735
14390081 3 18341611490955898913
170605 34 18341333305744788967
20211469 26 11241964888933454157
20711985 327 8286197279486860963
21293036 1 18273214213786294949
23235685 24 18408037411973890953
528862 383 17749938960848915418
5460574 1 9079116656767300492

>  <PUBCHEM_SHAPE_MULTIPOLES>  (1) 
158.77
5.78
1.16
0.66
0.43
0.54
-0.01
-2.07
0.05
-0.09
0.13
0.05
0.03
-0.01

>  <PUBCHEM_SHAPE_SELFOVERLAP>  (1) 
277.345

>  <PUBCHEM_SHAPE_VOLUME>  (1) 
105.7

>  <PUBCHEM_COORDINATE_TYPE>  (1) 
2
5
10

$$$$
