25797
     RDKit          3D

 10 10  0  0  0  0  0  0  0  0999 V2000
    0.7249    1.2003   -0.2830 N   0  0  0  0  0  0  0  0  0  0  0  0
   -0.7249   -1.2006   -0.2827 N   0  0  0  0  0  0  0  0  0  0  0  0
    2.8235   -0.0176   -0.2818 C   0  0  0  0  0  0  0  0  0  0  0  0
   -2.8235    0.0175   -0.2817 C   0  0  0  0  0  0  0  0  0  0  0  0
    1.3348   -0.0015   -0.2829 C   0  0  0  0  0  0  0  0  0  0  0  0
   -1.3349    0.0014   -0.2830 C   0  0  0  0  0  0  0  0  0  0  0  0
    0.6227   -1.1808   -0.2828 C   0  0  0  0  0  0  0  0  0  0  0  0
   -0.6227    1.1806   -0.2832 C   0  0  0  0  0  0  0  0  0  0  0  0
    3.4057   -0.0243    1.1305 C   0  0  0  0  0  0  0  0  0  0  0  0
   -3.4055    0.0248    1.1305 C   0  0  0  0  0  0  0  0  0  0  0  0
  1  5  2  0
  1  8  1  0
  2  6  1  0
  2  7  2  0
  3  5  1  0
  3  9  1  0
  4  6  1  0
  4 10  1  0
  5  7  1  0
  6  8  2  0
M  END
>  <PUBCHEM_COMPOUND_CID>  (1) 
25797

>  <PUBCHEM_CONFORMER_RMSD>  (1) 
0.4

>  <PUBCHEM_CONFORMER_DIVERSEORDER>  (1) 
1
8
5
10
6
2
9
4
7
3

>  <PUBCHEM_MMFF94_PARTIAL_CHARGES>  (1) 
10
1 -0.62
15 0.15
16 0.15
2 -0.62
3 0.14
4 0.14
5 0.17
6 0.17
7 0.16
8 0.16

>  <PUBCHEM_EFFECTIVE_ROTOR_COUNT>  (1) 
2

>  <PUBCHEM_PHARMACOPHORE_FEATURES>  (1) 
5
1 1 acceptor
1 10 hydrophobe
1 2 acceptor
1 9 hydrophobe
6 1 2 5 6 7 8 rings

>  <PUBCHEM_HEAVY_ATOM_COUNT>  (1) 
10

>  <PUBCHEM_ATOM_DEF_STEREO_COUNT>  (1) 
0

>  <PUBCHEM_ATOM_UDEF_STEREO_COUNT>  (1) 
0

>  <PUBCHEM_BOND_DEF_STEREO_COUNT>  (1) 
0

>  <PUBCHEM_BOND_UDEF_STEREO_COUNT>  (1) 
0

>  <PUBCHEM_ISOTOPIC_ATOM_COUNT>  (1) 
0

>  <PUBCHEM_COMPONENT_COUNT>  (1) 
1

>  <PUBCHEM_CACTVS_TAUTO_COUNT>  (1) 
2

>  <PUBCHEM_CONFORMER_ID>  (1) 
000064C500000001

>  <PUBCHEM_MMFF94_ENERGY>  (1) 
16.8557

>  <PUBCHEM_FEATURE_SELFOVERLAP>  (1) 
25.375

>  <PUBCHEM_SHAPE_FINGERPRINT>  (1) 
10219947 1 18410013234237116221
10857977 72 18334859411360863833
11062470 55 15195569004564976731
11769659 78 15647049382456491641
12032990 46 18335428932524856606
124424 183 17603856789552067909
12932764 1 17917988339449225230
14325111 11 18412544305693491068
15310529 11 16732983141336296948
16945 1 18410573985151451398
20653085 51 14692281902383933290
21040471 1 18412830204491843470
23235685 24 18342175565821317822
23402655 69 18123450715169555821
23552423 10 17826232088398657092
2748010 2 18122343467265819127
29004967 10 18260839176266869293
369184 2 18340752798175869758

>  <PUBCHEM_SHAPE_MULTIPOLES>  (1) 
195.83
5.25
1.12
0.93
0
0
-0.29
0
-2.07
0
0.15
0
0
0.01

>  <PUBCHEM_SHAPE_SELFOVERLAP>  (1) 
391.681

>  <PUBCHEM_SHAPE_VOLUME>  (1) 
115.9

>  <PUBCHEM_COORDINATE_TYPE>  (1) 
2
5
10

$$$$
