25795
     RDKit          3D

 18 20  0  0  1  0  0  0  0  0999 V2000
   -1.3721    4.5481   -0.1954 O   0  0  0  0  0  0  0  0  0  0  0  0
    5.5443   -1.7331   -0.5480 O   0  0  0  0  0  0  0  0  0  0  0  0
   -4.7187   -2.8724   -0.2916 O   0  0  0  0  0  0  0  0  0  0  0  0
    0.0499    1.2562    0.0926 O   0  0  0  0  0  0  0  0  0  0  0  0
    2.2826   -0.3865    0.1613 O   0  0  0  0  0  0  0  0  0  0  0  0
   -1.9003   -0.7311    0.3609 O   0  0  0  0  0  0  0  0  0  0  0  0
   -0.3906    3.5308   -0.4323 C   0  0  0  0  0  0  0  0  0  0  0  0
    4.4350   -0.8455   -0.7378 C   0  0  0  0  0  0  0  0  0  0  0  0
   -3.8593   -1.7485   -0.5211 C   0  0  0  0  0  0  0  0  0  0  0  0
    0.1727    0.2550    1.1055 C   0  0  0  0  0  0  0  0  0  0  0  0
   -1.6340    3.6330   -1.2671 C   0  0  0  0  0  0  0  0  0  0  0  0
   -0.2719    2.5180    0.6542 C   0  0  0  0  0  0  0  0  0  0  0  0
    5.4901   -0.5751    0.2953 C   0  0  0  0  0  0  0  0  0  0  0  0
   -3.5316   -3.1112   -1.0585 C   0  0  0  0  0  0  0  0  0  0  0  0
    3.1119   -1.4160   -0.3581 C   0  0  0  0  0  0  0  0  0  0  0  0
   -3.1900   -1.2194    0.7004 C   0  0  0  0  0  0  0  0  0  0  0  0
    1.0045   -0.8879    0.5381 C   0  0  0  0  0  0  0  0  0  0  0  0
   -1.2225   -0.2144    1.5015 C   0  0  0  0  0  0  0  0  0  0  0  0
  1  7  1  0
  1 11  1  0
  2  8  1  0
  2 13  1  0
  3  9  1  0
  3 14  1  0
  4 10  1  0
  4 12  1  0
  5 15  1  0
  5 17  1  0
  6 16  1  0
  6 18  1  0
  7 11  1  0
  7 12  1  0
  8 13  1  0
  8 15  1  0
  9 14  1  0
  9 16  1  0
 10 17  1  0
 10 18  1  0
M  END
>  <PUBCHEM_COMPOUND_CID>  (1) 
25795

>  <PUBCHEM_CONFORMER_RMSD>  (1) 
1

>  <PUBCHEM_CONFORMER_DIVERSEORDER>  (1) 
1
44
61
68
5
37
47
74
64
29
31
77
63
57
43
23
33
71
38
11
18
65
28
69
13
58
56
45
32
62
12
25
20
34
75
70
53
26
15
72
66
40
73
42
35
30
51
48
46
24
59
39
52
49
54
10
16
50
76
14
19
9
67
6
41
4
3
27
36
8
2
17
22
55
60
21
7

>  <PUBCHEM_MMFF94_PARTIAL_CHARGES>  (1) 
27
1 -0.3
10 0.28
11 -0.05
12 0.38
13 -0.05
14 -0.05
15 0.38
16 0.38
17 0.28
18 0.28
19 0.1
2 -0.3
20 0.1
21 0.1
23 0.1
24 0.1
27 0.1
28 0.1
29 0.1
3 -0.3
30 0.1
4 -0.56
5 -0.56
6 -0.56
7 -0.05
8 -0.05
9 -0.05

>  <PUBCHEM_EFFECTIVE_ROTOR_COUNT>  (1) 
12.8

>  <PUBCHEM_PHARMACOPHORE_FEATURES>  (1) 
6
1 1 acceptor
1 2 acceptor
1 3 acceptor
1 4 acceptor
1 5 acceptor
1 6 acceptor

>  <PUBCHEM_HEAVY_ATOM_COUNT>  (1) 
18

>  <PUBCHEM_ATOM_DEF_STEREO_COUNT>  (1) 
0

>  <PUBCHEM_ATOM_UDEF_STEREO_COUNT>  (1) 
3

>  <PUBCHEM_BOND_DEF_STEREO_COUNT>  (1) 
0

>  <PUBCHEM_BOND_UDEF_STEREO_COUNT>  (1) 
0

>  <PUBCHEM_ISOTOPIC_ATOM_COUNT>  (1) 
0

>  <PUBCHEM_COMPONENT_COUNT>  (1) 
1

>  <PUBCHEM_CACTVS_TAUTO_COUNT>  (1) 
1

>  <PUBCHEM_CONFORMER_ID>  (1) 
000064C300000001

>  <PUBCHEM_MMFF94_ENERGY>  (1) 
38.5493

>  <PUBCHEM_FEATURE_SELFOVERLAP>  (1) 
30.46

>  <PUBCHEM_SHAPE_FINGERPRINT>  (1) 
11045515 52 18409730694240417403
11101153 10 18263094339826477012
12788726 201 18189327983615459915
13899415 180 18265881622312088415
14178000 29 18269836574179751307
14251757 5 18264197042129326109
14508225 48 18410291436438457709
14556957 393 18042991876883630076
17539 30 18337950091228399685
1813 80 18340197613201832898
20388580 30 18127130994681691979
20602899 9 17551512145893403929
20671657 53 18268716176416113239
21339142 126 18337684000739809776
21344244 246 17834678579804657004
21426921 1 18338238142211146296
21524375 3 17249216800120265456
22620623 9 18267873791505522844
23402539 116 18412266129526548490
23419403 2 17703208685675876480
3057174 1 17327729600975552405
4409770 3 18266455395904751693
57100710 210 18339927017873298158
57262259 84 18411417280690021629
58779409 54 18336541595358440548
5969126 39 18410569592001261726
68521 5 18336548231040390144
7164475 11 18336273358066606790
7471813 234 18261398879536303732

>  <PUBCHEM_SHAPE_MULTIPOLES>  (1) 
335.22
9.67
5.17
1.14
11.47
7.16
0.1
-12.22
-2.53
-6.16
-2.13
-0.45
0.08
0.07

>  <PUBCHEM_SHAPE_SELFOVERLAP>  (1) 
655.487

>  <PUBCHEM_SHAPE_VOLUME>  (1) 
203.6

>  <PUBCHEM_COORDINATE_TYPE>  (1) 
2
5
10

$$$$
