25802
     RDKit          3D

  7  6  0  0  0  0  0  0  0  0999 V2000
    2.7893   -0.2916   -0.4672 Cl  0  0  0  0  0  0  0  0  0  0  0  0
   -1.4756    2.0659    0.2497 Cl  0  0  0  0  0  0  0  0  0  0  0  0
   -2.0369   -1.6571   -0.2187 Cl  0  0  0  0  0  0  0  0  0  0  0  0
    0.1632   -0.0855    0.1308 C   0  0  0  0  0  0  0  0  0  0  0  0
    1.5309    0.2421    0.6703 C   0  0  0  0  0  0  0  0  0  0  0  0
   -0.4869    0.9632   -0.7350 C   0  0  0  0  0  0  0  0  0  0  0  0
   -0.4840   -1.2370    0.3700 C   0  0  0  0  0  0  0  0  0  0  0  0
  1  5  1  0
  2  6  1  0
  3  7  1  0
  4  5  1  0
  4  6  1  0
  4  7  2  3
M  END
>  <PUBCHEM_COMPOUND_CID>  (1) 
25802

>  <PUBCHEM_CONFORMER_RMSD>  (1) 
0.4

>  <PUBCHEM_CONFORMER_DIVERSEORDER>  (1) 
1
12
3
14
2
8
11
7
10
4
13
9
5
6

>  <PUBCHEM_MMFF94_PARTIAL_CHARGES>  (1) 
8
1 -0.29
12 0.15
2 -0.29
3 -0.14
4 -0.28
5 0.43
6 0.43
7 -0.01

>  <PUBCHEM_EFFECTIVE_ROTOR_COUNT>  (1) 
2

>  <PUBCHEM_PHARMACOPHORE_FEATURES>  (1) 
0

>  <PUBCHEM_HEAVY_ATOM_COUNT>  (1) 
7

>  <PUBCHEM_ATOM_DEF_STEREO_COUNT>  (1) 
0

>  <PUBCHEM_ATOM_UDEF_STEREO_COUNT>  (1) 
0

>  <PUBCHEM_BOND_DEF_STEREO_COUNT>  (1) 
0

>  <PUBCHEM_BOND_UDEF_STEREO_COUNT>  (1) 
0

>  <PUBCHEM_ISOTOPIC_ATOM_COUNT>  (1) 
0

>  <PUBCHEM_COMPONENT_COUNT>  (1) 
1

>  <PUBCHEM_CACTVS_TAUTO_COUNT>  (1) 
1

>  <PUBCHEM_CONFORMER_ID>  (1) 
000064CA00000001

>  <PUBCHEM_MMFF94_ENERGY>  (1) 
6.2157

>  <PUBCHEM_FEATURE_SELFOVERLAP>  (1) 
0

>  <PUBCHEM_SHAPE_FINGERPRINT>  (1) 
137420 1 13584566886761336660
16714656 1 18335706039398293478
21040471 1 18122053213513280504
21930827 45 18270674260448374032
23552423 10 18113615647503177594
23552449 1 18412541028849994808
29004967 10 18050563242316398666

>  <PUBCHEM_SHAPE_MULTIPOLES>  (1) 
149.67
3.14
2.04
0.84
2.04
0.47
-0.02
-0.6
-0.37
-1.9
0.04
0.11
0.06
-0.04

>  <PUBCHEM_SHAPE_SELFOVERLAP>  (1) 
247.982

>  <PUBCHEM_SHAPE_VOLUME>  (1) 
101.7

>  <PUBCHEM_COORDINATE_TYPE>  (1) 
2
5
10

$$$$
