25811
     RDKit          3D

  8  7  0  0  0  0  0  0  0  0999 V2000
    2.6152   -0.5609    0.5732 O   0  0  0  0  0  0  0  0  0  0  0  0
    1.5221    0.2684   -1.2379 O   0  0  0  0  0  0  0  0  0  0  0  0
   -2.0803   -1.3259   -0.4241 O   0  0  0  0  0  0  0  0  0  0  0  0
   -0.8615    0.3428   -0.0112 N   0  0  0  0  0  0  0  0  0  0  0  0
   -1.9913   -0.2849    0.2380 N   0  0  0  0  0  0  0  0  0  0  0  0
    0.2771   -0.1338    0.7865 C   0  0  0  0  0  0  0  0  0  0  0  0
   -0.9938    1.7944    0.1457 C   0  0  0  0  0  0  0  0  0  0  0  0
    1.5124   -0.1001   -0.0701 C   0  0  0  0  0  0  0  0  0  0  0  0
  1  8  1  0
  2  8  2  0
  3  5  2  0
  4  5  1  0
  4  6  1  0
  4  7  1  0
  6  8  1  0
M  END
>  <PUBCHEM_COMPOUND_CID>  (1) 
25811

>  <PUBCHEM_CONFORMER_RMSD>  (1) 
0.6

>  <PUBCHEM_CONFORMER_DIVERSEORDER>  (1) 
1
13
19
4
7
6
3
15
5
9
17
2
12
8
16
14
18
11
10

>  <PUBCHEM_MMFF94_PARTIAL_CHARGES>  (1) 
9
1 -0.65
14 0.5
2 -0.57
3 -0.16
4 -0.36
5 -0.01
6 0.33
7 0.27
8 0.66

>  <PUBCHEM_EFFECTIVE_ROTOR_COUNT>  (1) 
3

>  <PUBCHEM_PHARMACOPHORE_FEATURES>  (1) 
3
1 1 acceptor
1 2 acceptor
3 1 2 8 anion

>  <PUBCHEM_HEAVY_ATOM_COUNT>  (1) 
8

>  <PUBCHEM_ATOM_DEF_STEREO_COUNT>  (1) 
0

>  <PUBCHEM_ATOM_UDEF_STEREO_COUNT>  (1) 
0

>  <PUBCHEM_BOND_DEF_STEREO_COUNT>  (1) 
0

>  <PUBCHEM_BOND_UDEF_STEREO_COUNT>  (1) 
0

>  <PUBCHEM_ISOTOPIC_ATOM_COUNT>  (1) 
0

>  <PUBCHEM_COMPONENT_COUNT>  (1) 
1

>  <PUBCHEM_CACTVS_TAUTO_COUNT>  (1) 
1

>  <PUBCHEM_CONFORMER_ID>  (1) 
000064D300000001

>  <PUBCHEM_MMFF94_ENERGY>  (1) 
16.9928

>  <PUBCHEM_FEATURE_SELFOVERLAP>  (1) 
15.281

>  <PUBCHEM_SHAPE_FINGERPRINT>  (1) 
16714656 1 18341337708276067513
18185500 45 18186519877919984752
21040471 1 17980206279191881441
23552423 10 18187932711865577634
23552449 1 18342732975441474944
23552449 11 17914609699194214929
24536 1 17313401018845244128
29004967 10 16272211890089952274

>  <PUBCHEM_SHAPE_MULTIPOLES>  (1) 
137.07
3.04
1.28
0.87
0.77
0.41
-0.11
-0.85
-0.02
-0.91
-0.04
0.32
0.01
-0.28

>  <PUBCHEM_SHAPE_SELFOVERLAP>  (1) 
255.856

>  <PUBCHEM_SHAPE_VOLUME>  (1) 
86.8

>  <PUBCHEM_COORDINATE_TYPE>  (1) 
2
5
10

$$$$
