25813
     RDKit          3D

 15 16  0  0  0  0  0  0  0  0999 V2000
   -2.0973   -0.2191    0.2598 O   0  0  0  0  0  0  0  0  0  0  0  0
   -4.1669   -0.0162   -0.7276 O   0  0  0  0  0  0  0  0  0  0  0  0
    0.3785    1.2759    0.4417 N   0  0  0  0  0  0  0  0  0  0  0  0
    0.8675    2.2169   -0.3828 N   0  0  0  0  0  0  0  0  0  0  0  0
    1.9335    1.7040   -0.9877 N   0  0  0  0  0  0  0  0  0  0  0  0
   -3.1067   -2.0516   -0.5861 N   0  0  0  0  0  0  0  0  0  0  0  0
   -0.7899    1.5489    1.2413 C   0  0  0  0  0  0  0  0  0  0  0  0
    1.1143    0.1273    0.3937 C   0  0  0  0  0  0  0  0  0  0  0  0
    2.1069    0.4247   -0.5299 C   0  0  0  0  0  0  0  0  0  0  0  0
   -2.0837    1.1766    0.5298 C   0  0  0  0  0  0  0  0  0  0  0  0
    1.0108   -1.0995    1.0460 C   0  0  0  0  0  0  0  0  0  0  0  0
    3.0713   -0.5446   -0.8422 C   0  0  0  0  0  0  0  0  0  0  0  0
    1.9788   -2.0578    0.7257 C   0  0  0  0  0  0  0  0  0  0  0  0
    2.9908   -1.7875   -0.2006 C   0  0  0  0  0  0  0  0  0  0  0  0
   -3.2080   -0.6979   -0.3811 C   0  0  0  0  0  0  0  0  0  0  0  0
  1 10  1  0
  1 15  1  0
  2 15  2  0
  3  4  1  0
  3  7  1  0
  3  8  1  0
  4  5  2  0
  5  9  1  0
  6 15  1  0
  7 10  1  0
  8  9  2  0
  8 11  1  0
  9 12  1  0
 11 13  2  0
 12 14  2  0
 13 14  1  0
M  END
>  <PUBCHEM_COMPOUND_CID>  (1) 
25813

>  <PUBCHEM_CONFORMER_RMSD>  (1) 
0.6

>  <PUBCHEM_CONFORMER_DIVERSEORDER>  (1) 
1
24
34
40
17
32
25
51
49
23
33
41
50
4
7
10
31
42
6
39
21
45
27
38
3
52
20
19
11
43
37
29
46
47
26
9
2
22
35
36
48
44
14
16
15
5
18
28
8
30
12
13

>  <PUBCHEM_MMFF94_PARTIAL_CHARGES>  (1) 
21
1 -0.43
10 0.28
11 -0.15
12 -0.15
13 -0.15
14 -0.15
15 0.78
2 -0.57
20 0.15
21 0.15
22 0.15
23 0.15
24 0.37
25 0.37
3 0.31
4 -0.42
5 -0.23
6 -0.8
7 0.26
8 -0.15
9 0.23

>  <PUBCHEM_EFFECTIVE_ROTOR_COUNT>  (1) 
4

>  <PUBCHEM_PHARMACOPHORE_FEATURES>  (1) 
4
1 2 acceptor
1 6 donor
5 3 4 5 8 9 rings
6 8 9 11 12 13 14 rings

>  <PUBCHEM_HEAVY_ATOM_COUNT>  (1) 
15

>  <PUBCHEM_ATOM_DEF_STEREO_COUNT>  (1) 
0

>  <PUBCHEM_ATOM_UDEF_STEREO_COUNT>  (1) 
0

>  <PUBCHEM_BOND_DEF_STEREO_COUNT>  (1) 
0

>  <PUBCHEM_BOND_UDEF_STEREO_COUNT>  (1) 
0

>  <PUBCHEM_ISOTOPIC_ATOM_COUNT>  (1) 
0

>  <PUBCHEM_COMPONENT_COUNT>  (1) 
1

>  <PUBCHEM_CACTVS_TAUTO_COUNT>  (1) 
2

>  <PUBCHEM_CONFORMER_ID>  (1) 
000064D500000001

>  <PUBCHEM_MMFF94_ENERGY>  (1) 
21.809

>  <PUBCHEM_FEATURE_SELFOVERLAP>  (1) 
20.402

>  <PUBCHEM_SHAPE_FINGERPRINT>  (1) 
11321824 6 17034713046344403914
11471102 22 13326568510734035746
11578080 2 18197760146805891136
11769659 78 18270681948529413514
11806522 49 18413106178127079208
12202030 40 16199322979319901508
12400797 292 18337958990289548862
14128692 85 18340773641472958792
15757776 16 18334295336300233614
16752209 62 18128808656558124001
16945 1 18041863726361247240
20291156 8 18341614802296673287
20645477 70 18341327898824120775
20671657 53 18335136445167297733
21634736 98 18411426136991759310
22112679 90 18058188153565357753
232386 152 17988922236856478097
23402539 116 18189620432819492070
23419403 2 17687693443047716656
23598291 2 18267885920403950701
2748010 2 17756737447665349024
449060 23 18128548071780121174
6338986 31 18116985581722095090
7364860 26 18272364329995168392

>  <PUBCHEM_SHAPE_MULTIPOLES>  (1) 
277.03
5.82
2.33
1.06
4.48
0.03
-0.12
-2.96
1.86
-0.31
0.01
-0.11
0.08
-1

>  <PUBCHEM_SHAPE_SELFOVERLAP>  (1) 
588.939

>  <PUBCHEM_SHAPE_VOLUME>  (1) 
155.3

>  <PUBCHEM_COORDINATE_TYPE>  (1) 
2
5
10

$$$$
