25812
     RDKit          3D

 13 12  0  0  0  0  0  0  0  0999 V2000
    3.8810   -0.5127    0.9122 O   0  0  0  0  0  0  0  0  0  0  0  0
    3.3674    1.1392   -0.6901 O   0  0  0  0  0  0  0  0  0  0  0  0
   -3.0737   -0.6845   -0.1872 C   0  0  0  0  0  0  0  0  0  0  0  0
   -3.9910    0.5121    0.0732 C   0  0  0  0  0  0  0  0  0  0  0  0
   -1.6001   -0.2634   -0.1919 C   0  0  0  0  0  0  0  0  0  0  0  0
   -5.4596    0.0897    0.1074 C   0  0  0  0  0  0  0  0  0  0  0  0
   -0.6469   -1.4377   -0.4204 C   0  0  0  0  0  0  0  0  0  0  0  0
   -6.3767    1.2811    0.3331 C   0  0  0  0  0  0  0  0  0  0  0  0
    0.7619   -1.0210   -0.4086 C   0  0  0  0  0  0  0  0  0  0  0  0
    3.3224   -0.2593   -0.3811 C   0  0  0  0  0  0  0  0  0  0  0  0
    1.9133   -0.6796   -0.3973 C   0  0  0  0  0  0  0  0  0  0  0  0
    3.2069    0.1872    1.9507 C   0  0  0  0  0  0  0  0  0  0  0  0
    4.6949    1.6487   -0.7001 C   0  0  0  0  0  0  0  0  0  0  0  0
  1 10  1  0
  1 12  1  0
  2 10  1  0
  2 13  1  0
  3  4  1  0
  3  5  1  0
  4  6  1  0
  5  7  1  0
  6  8  1  0
  7  9  1  0
  9 11  3  0
 10 11  1  0
M  END
>  <PUBCHEM_COMPOUND_CID>  (1) 
25812

>  <PUBCHEM_CONFORMER_RMSD>  (1) 
0.6

>  <PUBCHEM_CONFORMER_DIVERSEORDER>  (1) 
2
48
9
96
14
28
103
65
104
43
94
19
8
16
70
101
32
66
86
82
40
102
77
64
61
58
93
30
52
11
45
95
50
100
44
7
87
6
47
78
97
22
5
91
56
33
31
79
18
46
12
72
4
42
75
49
76
38
68
20
88
67
36
27
62
80
25
35
89
92
39
41
37
69
60
63
81
85
84
83
98
10
34
55
74
73
59
1
21
57
26
51
13
71
90
24
15
23
99
54
29
3
17
53

>  <PUBCHEM_MMFF94_PARTIAL_CHARGES>  (1) 
8
1 -0.56
10 0.76
11 -0.2
12 0.28
13 0.28
2 -0.56
7 0.2
9 -0.2

>  <PUBCHEM_EFFECTIVE_ROTOR_COUNT>  (1) 
6

>  <PUBCHEM_PHARMACOPHORE_FEATURES>  (1) 
5
1 1 acceptor
1 2 acceptor
1 8 hydrophobe
3 3 4 6 hydrophobe
3 5 7 9 hydrophobe

>  <PUBCHEM_HEAVY_ATOM_COUNT>  (1) 
13

>  <PUBCHEM_ATOM_DEF_STEREO_COUNT>  (1) 
0

>  <PUBCHEM_ATOM_UDEF_STEREO_COUNT>  (1) 
0

>  <PUBCHEM_BOND_DEF_STEREO_COUNT>  (1) 
0

>  <PUBCHEM_BOND_UDEF_STEREO_COUNT>  (1) 
0

>  <PUBCHEM_ISOTOPIC_ATOM_COUNT>  (1) 
0

>  <PUBCHEM_COMPONENT_COUNT>  (1) 
1

>  <PUBCHEM_CACTVS_TAUTO_COUNT>  (1) 
1

>  <PUBCHEM_CONFORMER_ID>  (1) 
000064D400000002

>  <PUBCHEM_MMFF94_ENERGY>  (1) 
12.5752

>  <PUBCHEM_FEATURE_SELFOVERLAP>  (1) 
25.423

>  <PUBCHEM_SHAPE_FINGERPRINT>  (1) 
100836 57 18342744022270972261
10354089 29 17748830739127371372
10378564 45 16701469952515228477
10912923 1 18186794820673834083
12596602 18 17676211281931715785
13533116 47 16878219762542517011
1420 369 11602817991157343313
14252887 29 14129051513505139462
14366163 111 16487252154068866475
15342816 4 8935005897082542178
17834072 33 16702293556219096487
18186145 218 16200156533814706270
20369508 70 8934998148998483030
20432913 95 14129060292370865225
20526848 3 18262808483450484972
20605781 2 18342461452014356125
20645477 56 18060419114809444415
20645477 70 11455899052752162396
20671657 53 9511461125974055623
20767249 213 18410013230807208335
20871999 31 15194700421045120725
212847 35 18273213093068817194
21354914 88 12540699210880229871
23272321 79 18410296939108975135
23402655 69 17847063285284988007
270888 7 18266743657035856732
2767999 5 18272081674540605125
29717793 49 12751243592649519241
3060560 45 15626227918498913940
351380 3 7853571301471762145
42 15 15285357293417128819
449060 62 18343587325861426591
465052 167 7853569123680691665
5374978 207 17749106673348259205
57483677 66 8286191739638250061
960060 61 12175618490578901123

>  <PUBCHEM_SHAPE_MULTIPOLES>  (1) 
255.8
13.87
1.41
1.09
15.29
0.19
-0.55
7.56
-0.82
-0.34
0.26
-1.6
0.2
-0.68

>  <PUBCHEM_SHAPE_SELFOVERLAP>  (1) 
466.894

>  <PUBCHEM_SHAPE_VOLUME>  (1) 
160.9

>  <PUBCHEM_COORDINATE_TYPE>  (1) 
2
5
10

$$$$
