25825
     RDKit          3D

 16 15  0  0  0  0  0  0  0  0999 V2000
    5.8185   -0.5998   -0.0270 O   0  0  0  0  0  0  0  0  0  0  0  0
    6.9464    1.3060    0.0175 O   0  0  0  0  0  0  0  0  0  0  0  0
    8.0919   -0.6065   -0.0262 O   0  0  0  0  0  0  0  0  0  0  0  0
    7.0681    0.0807   -0.0106 N   0  0  0  0  0  0  0  0  0  0  0  0
   -1.6768   -0.4892    0.0130 C   0  0  0  0  0  0  0  0  0  0  0  0
   -2.9571    0.3532    0.0123 C   0  0  0  0  0  0  0  0  0  0  0  0
   -0.3981    0.3518    0.0315 C   0  0  0  0  0  0  0  0  0  0  0  0
   -4.2739   -0.4283    0.0839 C   0  0  0  0  0  0  0  0  0  0  0  0
    0.8814   -0.4909    0.0195 C   0  0  0  0  0  0  0  0  0  0  0  0
   -5.5156    0.4646    0.0197 C   0  0  0  0  0  0  0  0  0  0  0  0
    2.1609    0.3494    0.0133 C   0  0  0  0  0  0  0  0  0  0  0  0
   -6.8297   -0.3232    0.0024 C   0  0  0  0  0  0  0  0  0  0  0  0
    3.4073   -0.5412   -0.0270 C   0  0  0  0  0  0  0  0  0  0  0  0
   -8.0719    0.5641   -0.0887 C   0  0  0  0  0  0  0  0  0  0  0  0
    4.6966    0.2710   -0.0076 C   0  0  0  0  0  0  0  0  0  0  0  0
   -9.3481   -0.2616   -0.0260 C   0  0  0  0  0  0  0  0  0  0  0  0
  1  4  1  0
  1 15  1  0
  2  4  1  0
  3  4  2  0
  5  6  1  0
  5  7  1  0
  6  8  1  0
  7  9  1  0
  8 10  1  0
  9 11  1  0
 10 12  1  0
 11 13  1  0
 12 14  1  0
 13 15  1  0
 14 16  1  0
M  CHG  2   2  -1   4   1
M  END
>  <PUBCHEM_COMPOUND_CID>  (1) 
25825

>  <PUBCHEM_CONFORMER_RMSD>  (1) 
1.2

>  <PUBCHEM_CONFORMER_DIVERSEORDER>  (1) 
1
23
67
52
319
593
2
32
101
3
4
59
587
479
275
25
159
296
28
357
98
68
528
381
17
61
37
387
359
24
460
435
8
497
208
81
31
517
595
21
153
82
249
13
293
203
499
394
198
596
30
229
321
136
437
308
73
288
508
50
51
6
376
577
427
57
42
77
494
185
216
97
76
343
69
236
26

>  <PUBCHEM_MMFF94_PARTIAL_CHARGES>  (1) 
5
1 -0.27
15 0.28
2 -0.52
3 -0.52
4 1.03

>  <PUBCHEM_EFFECTIVE_ROTOR_COUNT>  (1) 
12

>  <PUBCHEM_PHARMACOPHORE_FEATURES>  (1) 
3
1 16 hydrophobe
1 2 acceptor
1 3 acceptor

>  <PUBCHEM_HEAVY_ATOM_COUNT>  (1) 
16

>  <PUBCHEM_ATOM_DEF_STEREO_COUNT>  (1) 
0

>  <PUBCHEM_ATOM_UDEF_STEREO_COUNT>  (1) 
0

>  <PUBCHEM_BOND_DEF_STEREO_COUNT>  (1) 
0

>  <PUBCHEM_BOND_UDEF_STEREO_COUNT>  (1) 
0

>  <PUBCHEM_ISOTOPIC_ATOM_COUNT>  (1) 
0

>  <PUBCHEM_COMPONENT_COUNT>  (1) 
1

>  <PUBCHEM_CACTVS_TAUTO_COUNT>  (1) 
1

>  <PUBCHEM_CONFORMER_ID>  (1) 
000064E100000001

>  <PUBCHEM_MMFF94_ENERGY>  (1) 
8.7085

>  <PUBCHEM_FEATURE_SELFOVERLAP>  (1) 
15.293

>  <PUBCHEM_SHAPE_FINGERPRINT>  (1) 
11315181 36 18202005443690231683
12091667 2 18409730665098747411
14123256 10 18410855455838469251
14251764 18 17561086895285612779
14251764 46 17275103929696783294
155225 1 18335140938975142692
16120349 18 18335419110003540932
17834076 25 18410575084663085410
18006028 8 17561363980832491113
20621476 8 18040433282728247263
21150785 3 17418374692663120183
22224240 67 17313103064073880667
232437 2 18410575085064375811
23521765 1 18341894091298268227
33684 2 18410573976624937059
4325135 7 18413670210275135221
59567204 34 18041273255091662213
67123 10 18410856576824933509
8209 1 18410856559639789575

>  <PUBCHEM_SHAPE_MULTIPOLES>  (1) 
306.68
29.99
0.85
0.59
5.87
0.08
0
0.94
0.53
-0.45
0
0.18
0
0.05

>  <PUBCHEM_SHAPE_SELFOVERLAP>  (1) 
553.766

>  <PUBCHEM_SHAPE_VOLUME>  (1) 
197.4

>  <PUBCHEM_COORDINATE_TYPE>  (1) 
2
5
10

$$$$
