25828
     RDKit          3D

  7  7  0  0  0  0  0  0  0  0999 V2000
    0.4026    1.4193   -0.0904 O   0  0  0  0  0  0  0  0  0  0  0  0
   -0.8751   -0.5222    0.1000 N   0  0  0  0  0  0  0  0  0  0  0  0
    1.4163   -0.6653    0.0559 N   0  0  0  0  0  0  0  0  0  0  0  0
   -2.0566    0.0328    0.6925 C   0  0  0  0  0  0  0  0  0  0  0  0
   -1.9930   -0.2512   -0.7554 C   0  0  0  0  0  0  0  0  0  0  0  0
    0.3212    0.1957    0.0118 C   0  0  0  0  0  0  0  0  0  0  0  0
    2.7846   -0.2090   -0.0145 C   0  0  0  0  0  0  0  0  0  0  0  0
  1  6  2  0
  2  4  1  0
  2  5  1  0
  2  6  1  0
  3  6  1  0
  3  7  1  0
  4  5  1  0
M  END
>  <PUBCHEM_COMPOUND_CID>  (1) 
25828

>  <PUBCHEM_CONFORMER_RMSD>  (1) 
0.4

>  <PUBCHEM_CONFORMER_DIVERSEORDER>  (1) 
1
4
2
3

>  <PUBCHEM_MMFF94_PARTIAL_CHARGES>  (1) 
12
1 -0.57
10 0.1
11 0.1
12 0.37
2 -0.36
3 -0.73
4 -0.05
5 -0.05
6 0.69
7 0.3
8 0.1
9 0.1

>  <PUBCHEM_EFFECTIVE_ROTOR_COUNT>  (1) 
2.6

>  <PUBCHEM_PHARMACOPHORE_FEATURES>  (1) 
2
1 1 acceptor
1 3 donor

>  <PUBCHEM_HEAVY_ATOM_COUNT>  (1) 
7

>  <PUBCHEM_ATOM_DEF_STEREO_COUNT>  (1) 
0

>  <PUBCHEM_ATOM_UDEF_STEREO_COUNT>  (1) 
0

>  <PUBCHEM_BOND_DEF_STEREO_COUNT>  (1) 
0

>  <PUBCHEM_BOND_UDEF_STEREO_COUNT>  (1) 
0

>  <PUBCHEM_ISOTOPIC_ATOM_COUNT>  (1) 
0

>  <PUBCHEM_COMPONENT_COUNT>  (1) 
1

>  <PUBCHEM_CACTVS_TAUTO_COUNT>  (1) 
2

>  <PUBCHEM_CONFORMER_ID>  (1) 
000064E400000001

>  <PUBCHEM_MMFF94_ENERGY>  (1) 
16.9538

>  <PUBCHEM_FEATURE_SELFOVERLAP>  (1) 
10.148

>  <PUBCHEM_SHAPE_FINGERPRINT>  (1) 
139733 1 9439400233284472104
16714656 1 18341896259977262422
20096714 4 18340492291092458569
24536 1 18267015240459518425
29004967 10 18261398840412086306
5460574 1 9295289438939197466

>  <PUBCHEM_SHAPE_MULTIPOLES>  (1) 
128.23
3.51
0.92
0.75
1.39
0.27
-0.01
-0.53
0.02
0.13
-0.04
-0.34
-0.02
-0.1

>  <PUBCHEM_SHAPE_SELFOVERLAP>  (1) 
242.993

>  <PUBCHEM_SHAPE_VOLUME>  (1) 
80.9

>  <PUBCHEM_COORDINATE_TYPE>  (1) 
2
5
10

$$$$
