25821
     RDKit          3D

 45 48  0  0  1  0  0  0  0  0999 V2000
   -0.8622    1.3343   -1.6717 Si  0  0  0  0  0  4  0  0  0  0  0  0
    0.8399   -1.3135   -1.6484 Si  0  0  0  0  0  4  0  0  0  0  0  0
   -3.7856    0.1858   -1.2983 Si  0  0  0  0  0  4  0  0  0  0  0  0
    3.7754   -0.1865   -1.3113 Si  0  0  0  0  0  4  0  0  0  0  0  0
   -4.3830   -2.8971   -0.9051 Si  0  0  0  0  0  4  0  0  0  0  0  0
    4.4056    2.8839   -0.8890 Si  0  0  0  0  0  4  0  0  0  0  0  0
   -0.0159    0.0118   -1.1018 O   0  0  0  0  0  0  0  0  0  0  0  0
   -2.4364    0.8853   -1.9812 O   0  0  0  0  0  0  0  0  0  0  0  0
    2.4137   -0.8749   -1.9854 O   0  0  0  0  0  0  0  0  0  0  0  0
   -3.5606   -1.4626   -1.1694 O   0  0  0  0  0  0  0  0  0  0  0  0
    3.5633    1.4620   -1.1560 O   0  0  0  0  0  0  0  0  0  0  0  0
   -0.9383    2.5809   -0.2560 C   0  0  0  0  0  0  0  0  0  0  0  0
    0.9056   -2.5684   -0.2407 C   0  0  0  0  0  0  0  0  0  0  0  0
   -0.0161    2.1301   -3.1308 C   0  0  0  0  0  0  0  0  0  0  0  0
    0.0134   -2.1111   -3.1213 C   0  0  0  0  0  0  0  0  0  0  0  0
   -3.9036    0.8511    0.4658 C   0  0  0  0  0  0  0  0  0  0  0  0
    3.9226   -0.8553    0.4482 C   0  0  0  0  0  0  0  0  0  0  0  0
   -5.3436    0.6529   -2.2182 C   0  0  0  0  0  0  0  0  0  0  0  0
    5.3230   -0.6430   -2.2541 C   0  0  0  0  0  0  0  0  0  0  0  0
   -5.2338   -3.4692   -2.4833 C   0  0  0  0  0  0  0  0  0  0  0  0
   -3.2074   -4.2585   -0.3542 C   0  0  0  0  0  0  0  0  0  0  0  0
   -5.7032   -2.6838    0.4181 C   0  0  0  0  0  0  0  0  0  0  0  0
    5.6742    3.1740   -2.2496 C   0  0  0  0  0  0  0  0  0  0  0  0
    5.3081    2.8360    0.7577 C   0  0  0  0  0  0  0  0  0  0  0  0
    3.2309    4.3513   -0.8785 C   0  0  0  0  0  0  0  0  0  0  0  0
   -1.6102    3.7913   -0.4281 C   0  0  0  0  0  0  0  0  0  0  0  0
    1.5855   -3.7742   -0.4126 C   0  0  0  0  0  0  0  0  0  0  0  0
   -0.3225    2.2922    0.9619 C   0  0  0  0  0  0  0  0  0  0  0  0
    0.2737   -2.2908    0.9716 C   0  0  0  0  0  0  0  0  0  0  0  0
   -4.6305    2.0130    0.7257 C   0  0  0  0  0  0  0  0  0  0  0  0
    4.6596   -2.0138    0.6943 C   0  0  0  0  0  0  0  0  0  0  0  0
   -3.2637    0.1810    1.5086 C   0  0  0  0  0  0  0  0  0  0  0  0
    3.2942   -0.1916    1.5018 C   0  0  0  0  0  0  0  0  0  0  0  0
   -1.6659    4.7129    0.6174 C   0  0  0  0  0  0  0  0  0  0  0  0
    1.6337   -4.7024    0.6275 C   0  0  0  0  0  0  0  0  0  0  0  0
   -0.3785    3.2139    2.0074 C   0  0  0  0  0  0  0  0  0  0  0  0
    0.3220   -3.2190    2.0117 C   0  0  0  0  0  0  0  0  0  0  0  0
   -4.7173    2.5049    2.0281 C   0  0  0  0  0  0  0  0  0  0  0  0
    4.7680   -2.5086    1.9940 C   0  0  0  0  0  0  0  0  0  0  0  0
   -3.3506    0.6729    2.8110 C   0  0  0  0  0  0  0  0  0  0  0  0
    3.4026   -0.6864    2.8015 C   0  0  0  0  0  0  0  0  0  0  0  0
   -1.0503    4.4242    1.8351 C   0  0  0  0  0  0  0  0  0  0  0  0
    1.0019   -4.4248    1.8396 C   0  0  0  0  0  0  0  0  0  0  0  0
   -4.0775    1.8349    3.0707 C   0  0  0  0  0  0  0  0  0  0  0  0
    4.1396   -1.8450    3.0475 C   0  0  0  0  0  0  0  0  0  0  0  0
  1  7  1  0
  1  8  1  0
  1 12  1  0
  1 14  1  0
  2  7  1  0
  2  9  1  0
  2 13  1  0
  2 15  1  0
  3  8  1  0
  3 10  1  0
  3 16  1  0
  3 18  1  0
  4  9  1  0
  4 11  1  0
  4 17  1  0
  4 19  1  0
  5 10  1  0
  5 20  1  0
  5 21  1  0
  5 22  1  0
  6 11  1  0
  6 23  1  0
  6 24  1  0
  6 25  1  0
 12 26  2  0
 12 28  1  0
 13 27  2  0
 13 29  1  0
 16 30  2  0
 16 32  1  0
 17 31  2  0
 17 33  1  0
 26 34  1  0
 27 35  1  0
 28 36  2  0
 29 37  2  0
 30 38  1  0
 31 39  1  0
 32 40  2  0
 33 41  2  0
 34 42  2  0
 35 43  2  0
 36 42  1  0
 37 43  1  0
 38 44  2  0
 39 45  2  0
 40 44  1  0
 41 45  1  0
M  END
>  <PUBCHEM_COMPOUND_CID>  (1) 
25821

>  <PUBCHEM_CONFORMER_RMSD>  (1) 
2

>  <PUBCHEM_CONFORMER_DIVERSEORDER>  (1) 
1
33
120
73
2
122
75
55
135
64
40
163
152
164
127
23
54
42
72
62
58
137
161
94
9
111
44
146
70
66
47
143
18
138
74
117
113
108
134
160
147
85
103
145
45
27
158
65
151
60
53
97
153
68
57
76
115
131
69
155
98
35
102
39
101
84
128
144
109
125
38
139
31
79
114
21
28
104
22
12
150
67
106
99
93
88
37
82
133
124
157
89
136
123
110
61
154
159
63
26
119
156
129
78
41
148
81
59
11
43
51
16
162
121
6
29
90
36
25
105
77
91
87
8
112
107
3
140
71
116
15
30
141
14
80
92
86
19
83
132
7
13
130
34
46
10
24
49
48
17
5
50
142
100
96
52
4
20
32
56
118
95
165
126
149

>  <PUBCHEM_MMFF94_PARTIAL_CHARGES>  (1) 
65
1 0.9
10 -0.59
11 -0.59
12 -0.22
13 -0.22
14 -0.08
15 -0.08
16 -0.22
17 -0.22
18 -0.08
19 -0.08
2 0.9
20 -0.08
21 -0.08
22 -0.08
23 -0.08
24 -0.08
25 -0.08
26 -0.15
27 -0.15
28 -0.15
29 -0.15
3 0.9
30 -0.15
31 -0.15
32 -0.15
33 -0.15
34 -0.15
35 -0.15
36 -0.15
37 -0.15
38 -0.15
39 -0.15
4 0.9
40 -0.15
41 -0.15
42 -0.15
43 -0.15
44 -0.15
45 -0.15
5 0.54
6 0.54
7 -0.59
76 0.15
77 0.15
78 0.15
79 0.15
8 -0.59
80 0.15
81 0.15
82 0.15
83 0.15
84 0.15
85 0.15
86 0.15
87 0.15
88 0.15
89 0.15
9 -0.59
90 0.15
91 0.15
92 0.15
93 0.15
94 0.15
95 0.15

>  <PUBCHEM_EFFECTIVE_ROTOR_COUNT>  (1) 
14

>  <PUBCHEM_PHARMACOPHORE_FEATURES>  (1) 
4
6 12 26 28 34 36 42 rings
6 13 27 29 35 37 43 rings
6 16 30 32 38 40 44 rings
6 17 31 33 39 41 45 rings

>  <PUBCHEM_HEAVY_ATOM_COUNT>  (1) 
45

>  <PUBCHEM_ATOM_DEF_STEREO_COUNT>  (1) 
0

>  <PUBCHEM_ATOM_UDEF_STEREO_COUNT>  (1) 
4

>  <PUBCHEM_BOND_DEF_STEREO_COUNT>  (1) 
0

>  <PUBCHEM_BOND_UDEF_STEREO_COUNT>  (1) 
0

>  <PUBCHEM_ISOTOPIC_ATOM_COUNT>  (1) 
0

>  <PUBCHEM_COMPONENT_COUNT>  (1) 
1

>  <PUBCHEM_CACTVS_TAUTO_COUNT>  (1) 
1

>  <PUBCHEM_CONFORMER_ID>  (1) 
000064DD00000001

>  <PUBCHEM_MMFF94_ENERGY>  (1) 
48.1987

>  <PUBCHEM_FEATURE_SELFOVERLAP>  (1) 
20.3

>  <PUBCHEM_SHAPE_FINGERPRINT>  (1) 
10581848 31 17541110091589928852
12355185 1 18341337721171590584
12788726 201 18340485664332305228
15001296 14 18272376386438392748
16112460 7 18410300241595914884
19315092 285 18115008797423053616
20764821 26 18409166623184585026
392239 28 18408601431416497078
469060 322 18191846968949402616

>  <PUBCHEM_SHAPE_MULTIPOLES>  (1) 
1006.01
12.27
7.06
3.48
0.31
0.02
0.65
-0.02
-1.37
-0.09
2.26
0
-0.01
-4.99

>  <PUBCHEM_SHAPE_SELFOVERLAP>  (1) 
1993.586

>  <PUBCHEM_SHAPE_VOLUME>  (1) 
598.2

>  <PUBCHEM_COORDINATE_TYPE>  (1) 
2
5
10

$$$$
