25823
     RDKit          3D

  8  7  0  0  1  0  0  0  0  0999 V2000
    2.2087   -1.2076   -1.0763 Cl  0  0  0  0  0  0  0  0  0  0  0  0
   -2.2199    1.2075   -1.0758 Cl  0  0  0  0  0  0  0  0  0  0  0  0
    0.5815    0.5042    0.3247 C   0  0  0  0  0  0  0  0  0  0  0  0
   -0.5781   -0.5038    0.3098 C   0  0  0  0  0  0  0  0  0  0  0  0
    1.9642   -0.1632    0.3564 C   0  0  0  0  0  0  0  0  0  0  0  0
   -1.9606    0.1633    0.3545 C   0  0  0  0  0  0  0  0  0  0  0  0
    3.0758    0.8789    0.3990 C   0  0  0  0  0  0  0  0  0  0  0  0
   -3.0716   -0.8792    0.4078 C   0  0  0  0  0  0  0  0  0  0  0  0
  1  5  1  0
  2  6  1  0
  3  4  1  0
  3  5  1  0
  4  6  1  0
  5  7  1  0
  6  8  1  0
M  END
>  <PUBCHEM_COMPOUND_CID>  (1) 
25823

>  <PUBCHEM_CONFORMER_RMSD>  (1) 
0.6

>  <PUBCHEM_CONFORMER_DIVERSEORDER>  (1) 
1
3
26
25
28
5
12
21
27
24
29
19
4
20
10
7
9
18
22
17
16
15
14
8
13
2
11
23
6

>  <PUBCHEM_MMFF94_PARTIAL_CHARGES>  (1) 
4
1 -0.29
2 -0.29
5 0.29
6 0.29

>  <PUBCHEM_EFFECTIVE_ROTOR_COUNT>  (1) 
3

>  <PUBCHEM_PHARMACOPHORE_FEATURES>  (1) 
0

>  <PUBCHEM_HEAVY_ATOM_COUNT>  (1) 
8

>  <PUBCHEM_ATOM_DEF_STEREO_COUNT>  (1) 
0

>  <PUBCHEM_ATOM_UDEF_STEREO_COUNT>  (1) 
2

>  <PUBCHEM_BOND_DEF_STEREO_COUNT>  (1) 
0

>  <PUBCHEM_BOND_UDEF_STEREO_COUNT>  (1) 
0

>  <PUBCHEM_ISOTOPIC_ATOM_COUNT>  (1) 
0

>  <PUBCHEM_COMPONENT_COUNT>  (1) 
1

>  <PUBCHEM_CACTVS_TAUTO_COUNT>  (1) 
1

>  <PUBCHEM_CONFORMER_ID>  (1) 
000064DF00000001

>  <PUBCHEM_MMFF94_ENERGY>  (1) 
5.0992

>  <PUBCHEM_FEATURE_SELFOVERLAP>  (1) 
0

>  <PUBCHEM_SHAPE_FINGERPRINT>  (1) 
12932741 1 18410575041718680895
12932764 1 18114750334517092283
14325111 11 18411136935162927411
14390081 3 18040990713727937741
15310529 11 17346604062369692689
18342897 55 17489016180238932232
20651381 32 18059288760377710084
23552423 10 18129954359926217586
29004967 10 18060139838301841506
3248919 1 18059569153006799064
5460574 1 9223238441897034018

>  <PUBCHEM_SHAPE_MULTIPOLES>  (1) 
168.38
5.27
1.27
1.03
0
0
-0.3
-0.01
-0.04
0
-0.28
0
0
1.03

>  <PUBCHEM_SHAPE_SELFOVERLAP>  (1) 
281.81

>  <PUBCHEM_SHAPE_VOLUME>  (1) 
115.1

>  <PUBCHEM_COORDINATE_TYPE>  (1) 
2
5
10

$$$$
