25822
     RDKit          3D

  9  8  0  0  0  0  0  0  0  0999 V2000
   -1.0027    2.7956    0.1422 Cl  0  0  0  0  0  0  0  0  0  0  0  0
   -2.5383   -1.9178    0.2173 Cl  0  0  0  0  0  0  0  0  0  0  0  0
   -0.4123   -0.0105   -0.2210 P   0  0  0  0  0  0  0  0  0  0  0  0
    1.1001    0.2302    0.3061 O   0  0  0  0  0  0  0  0  0  0  0  0
   -0.5711    0.1063   -1.7100 O   0  0  0  0  0  0  0  0  0  0  0  0
   -1.3699    1.1621    0.7137 C   0  0  0  0  0  0  0  0  0  0  0  0
   -0.8067   -1.6202    0.4267 C   0  0  0  0  0  0  0  0  0  0  0  0
    2.1726   -0.4617   -0.1457 C   0  0  0  0  0  0  0  0  0  0  0  0
    3.4283   -0.2840    0.2707 C   0  0  0  0  0  0  0  0  0  0  0  0
  1  6  1  0
  2  7  1  0
  3  4  1  0
  3  5  2  0
  3  6  1  0
  3  7  1  0
  4  8  1  0
  8  9  2  0
M  END
>  <PUBCHEM_COMPOUND_CID>  (1) 
25822

>  <PUBCHEM_CONFORMER_RMSD>  (1) 
0.6

>  <PUBCHEM_CONFORMER_DIVERSEORDER>  (1) 
1
22
8
20
3
12
24
17
23
11
19
21
2
16
18
9
14
5
6
10
15
13
4
7

>  <PUBCHEM_MMFF94_PARTIAL_CHARGES>  (1) 
12
1 -0.29
14 0.15
15 0.15
16 0.15
2 -0.29
3 0.97
4 -0.35
5 -0.7
6 0.29
7 0.29
8 -0.07
9 -0.3

>  <PUBCHEM_EFFECTIVE_ROTOR_COUNT>  (1) 
4

>  <PUBCHEM_PHARMACOPHORE_FEATURES>  (1) 
0

>  <PUBCHEM_HEAVY_ATOM_COUNT>  (1) 
9

>  <PUBCHEM_ATOM_DEF_STEREO_COUNT>  (1) 
0

>  <PUBCHEM_ATOM_UDEF_STEREO_COUNT>  (1) 
0

>  <PUBCHEM_BOND_DEF_STEREO_COUNT>  (1) 
0

>  <PUBCHEM_BOND_UDEF_STEREO_COUNT>  (1) 
0

>  <PUBCHEM_ISOTOPIC_ATOM_COUNT>  (1) 
0

>  <PUBCHEM_COMPONENT_COUNT>  (1) 
1

>  <PUBCHEM_CACTVS_TAUTO_COUNT>  (1) 
1

>  <PUBCHEM_CONFORMER_ID>  (1) 
000064DE00000001

>  <PUBCHEM_MMFF94_ENERGY>  (1) 
7.5758

>  <PUBCHEM_FEATURE_SELFOVERLAP>  (1) 
0

>  <PUBCHEM_SHAPE_FINGERPRINT>  (1) 
12932764 1 17313664846402676634
19021347 4 17978231560687557897
20871998 184 18202005429840225310
21040471 1 18122632643340508640
23211744 41 17697607597376530509
23552449 1 18412265042730621280

>  <PUBCHEM_SHAPE_MULTIPOLES>  (1) 
181.07
3.84
2.53
0.96
3.77
1.61
-0.37
-1.74
0.57
-2.35
0.36
-0.19
0.05
-0.01

>  <PUBCHEM_SHAPE_SELFOVERLAP>  (1) 
300.197

>  <PUBCHEM_SHAPE_VOLUME>  (1) 
125.4

>  <PUBCHEM_COORDINATE_TYPE>  (1) 
2
5
10

$$$$
