25820
     RDKit          3D

 27 28  0  0  1  0  0  0  0  0999 V2000
   -1.1359    0.9943   -0.7948 Si  0  0  0  0  0  4  0  0  0  0  0  0
    1.9206    0.1868   -0.7684 Si  0  0  0  0  0  4  0  0  0  0  0  0
   -3.4427    2.7464    0.4657 Si  0  0  0  0  0  4  0  0  0  0  0  0
    4.0215    2.1919    0.4658 Si  0  0  0  0  0  4  0  0  0  0  0  0
    0.4951    0.9936   -0.4415 O   0  0  0  0  0  0  0  0  0  0  0  0
   -1.9166    2.1547    0.1151 O   0  0  0  0  0  0  0  0  0  0  0  0
    3.1306    0.7973    0.2078 O   0  0  0  0  0  0  0  0  0  0  0  0
   -1.7921   -0.6837   -0.2296 C   0  0  0  0  0  0  0  0  0  0  0  0
    1.6415   -1.5896   -0.1965 C   0  0  0  0  0  0  0  0  0  0  0  0
   -1.4420    1.2271   -2.6215 C   0  0  0  0  0  0  0  0  0  0  0  0
    2.3875    0.2653   -2.5723 C   0  0  0  0  0  0  0  0  0  0  0  0
   -3.3141    4.1686    1.6898 C   0  0  0  0  0  0  0  0  0  0  0  0
   -4.5111    1.3998    1.2287 C   0  0  0  0  0  0  0  0  0  0  0  0
   -4.3046    3.3778   -1.0827 C   0  0  0  0  0  0  0  0  0  0  0  0
    4.9793    2.6719   -1.0794 C   0  0  0  0  0  0  0  0  0  0  0  0
    2.8763    3.6141    0.9172 C   0  0  0  0  0  0  0  0  0  0  0  0
    5.2467    1.9505    1.8733 C   0  0  0  0  0  0  0  0  0  0  0  0
   -2.3920   -1.5168   -1.1558 C   0  0  0  0  0  0  0  0  0  0  0  0
    1.1783   -2.5242   -1.1052 C   0  0  0  0  0  0  0  0  0  0  0  0
   -1.6599   -1.0464    1.0980 C   0  0  0  0  0  0  0  0  0  0  0  0
    1.9050   -1.9244    1.1195 C   0  0  0  0  0  0  0  0  0  0  0  0
   -2.8767   -2.7567   -0.7395 C   0  0  0  0  0  0  0  0  0  0  0  0
    0.9721   -3.8377   -0.6836 C   0  0  0  0  0  0  0  0  0  0  0  0
   -2.1446   -2.2864    1.5142 C   0  0  0  0  0  0  0  0  0  0  0  0
    1.6986   -3.2380    1.5410 C   0  0  0  0  0  0  0  0  0  0  0  0
   -2.7530   -3.1416    0.5954 C   0  0  0  0  0  0  0  0  0  0  0  0
    1.2322   -4.1947    0.6395 C   0  0  0  0  0  0  0  0  0  0  0  0
  1  5  1  0
  1  6  1  0
  1  8  1  0
  1 10  1  0
  2  5  1  0
  2  7  1  0
  2  9  1  0
  2 11  1  0
  3  6  1  0
  3 12  1  0
  3 13  1  0
  3 14  1  0
  4  7  1  0
  4 15  1  0
  4 16  1  0
  4 17  1  0
  8 18  2  0
  8 20  1  0
  9 19  2  0
  9 21  1  0
 18 22  1  0
 19 23  1  0
 20 24  2  0
 21 25  2  0
 22 26  2  0
 23 27  2  0
 24 26  1  0
 25 27  1  0
M  END
>  <PUBCHEM_COMPOUND_CID>  (1) 
25820

>  <PUBCHEM_CONFORMER_RMSD>  (1) 
0.8

>  <PUBCHEM_CONFORMER_DIVERSEORDER>  (1) 
15
374
316
89
200
373
293
445
100
109
350
360
449
52
295
214
398
129
70
55
420
58
290
113
217
375
268
429
443
367
145
229
221
406
435
88
266
143
426
421
304
99
233
179
417
269
156
356
174
95
226
308
376
127
190
370
80
331
260
353
154
203
275
90
257
33
63
292
287
423
401
439
102
47
385
10
128
442
73
414
267
397
418
62
20
399
411
187
59
384
57
343
146
279
341
307
48
448
25
193
379
105
21
120
345
114
50
416
407
53
230
93
395
191
338
76
245
310
206
66
121
453
79
222
400
205
49
452
337
188
281
74
394
106
162
348
413
195
263
82
254
329
381
119
124
339
284
45
305
415
241
270
431
134
424
94
351
40
368
326
317
324
228
158
96
410
282
216
246
34
333
318
192
184
393
347
289
177
234
359
286
433
126
280
220
144
194
28
322
118
388
46
84
378
181
312
456
218
396
44
272
111
409
342
75
140
273
225
166
141
122
336
366
404
173
135
369
390
387
296
224
101
137
391
160
115
301
213
180
252
346
248
123
151
455
136
236
208
450
297
244
300
209
170
274
383
85
157
147
294
249
438
117
365
240
358
271
67
107
437
364
319
148
210
87
261
152
132
36
403
91
204
125
283
412
255
60
425
314
362
161
285
389
51
427
441
103
259
138
422
92
315
38
235
142
131
392
86
69
363
239
328
61
454
278
303
159
112
104
116
340
231
164
457
39
202
223
238
81
172
168
361
139
98
37
155
169
243
355
108
130
133
227
265
372
165
110
212
68
176
311
197
97
408
186
163
349
198
434
377
277
43
153
251
262
77
215
432
330
320
444
78
7
171
402
327
288
189
12
309
380
325
253
201
16
237
382
250
72
41
167
232
306
42
276
207
199
11
64
264
54
175
27
150
298
29
256
65
149
386
18
419
182
32
321
8
183
430
23
302
178
428
56
2
354
405
185
6
371
344
4
219
83
451
211
334
447
71
436
335
196
332
323
446
357
31
352
440
35
291
313
242
299
247
9
258
14
17
13
3
22
24
19
5
1
26
30

>  <PUBCHEM_MMFF94_PARTIAL_CHARGES>  (1) 
37
1 0.9
10 -0.08
11 -0.08
12 -0.08
13 -0.08
14 -0.08
15 -0.08
16 -0.08
17 -0.08
18 -0.15
19 -0.15
2 0.9
20 -0.15
21 -0.15
22 -0.15
23 -0.15
24 -0.15
25 -0.15
26 -0.15
27 -0.15
3 0.54
4 0.54
5 -0.59
52 0.15
53 0.15
54 0.15
55 0.15
56 0.15
57 0.15
58 0.15
59 0.15
6 -0.59
60 0.15
61 0.15
7 -0.59
8 -0.22
9 -0.22

>  <PUBCHEM_EFFECTIVE_ROTOR_COUNT>  (1) 
8

>  <PUBCHEM_PHARMACOPHORE_FEATURES>  (1) 
2
6 8 18 20 22 24 26 rings
6 9 19 21 23 25 27 rings

>  <PUBCHEM_HEAVY_ATOM_COUNT>  (1) 
27

>  <PUBCHEM_ATOM_DEF_STEREO_COUNT>  (1) 
0

>  <PUBCHEM_ATOM_UDEF_STEREO_COUNT>  (1) 
2

>  <PUBCHEM_BOND_DEF_STEREO_COUNT>  (1) 
0

>  <PUBCHEM_BOND_UDEF_STEREO_COUNT>  (1) 
0

>  <PUBCHEM_ISOTOPIC_ATOM_COUNT>  (1) 
0

>  <PUBCHEM_COMPONENT_COUNT>  (1) 
1

>  <PUBCHEM_CACTVS_TAUTO_COUNT>  (1) 
1

>  <PUBCHEM_CONFORMER_ID>  (1) 
000064DC0000000F

>  <PUBCHEM_MMFF94_ENERGY>  (1) 
27.7167

>  <PUBCHEM_FEATURE_SELFOVERLAP>  (1) 
10.149

>  <PUBCHEM_SHAPE_FINGERPRINT>  (1) 
10930396 42 17330793295779852216
1100329 8 18266458694634930618
11578080 2 17987257627723249721
12422481 6 17968091984952688352
12553582 1 17762887776408945510
12633257 1 17972576832921480962
12788726 201 17976540834354282088
12930653 34 18411135861505525364
13140716 1 18410005503944849376
13583140 156 18266742381398986301
13911987 19 17830448736792052110
14178342 30 18334582372879849605
14955137 171 17545606651987739179
17980427 23 17981292661453079130
20600515 1 17758966208804901885
21591340 35 17983866588145978880
21796203 349 17617687369976621770
23559900 14 17843964732573879454
283562 15 18265894850848049381
392239 28 18122905605570700210
5252454 2 18262534580136970948
6004065 56 17833813985581521941
9981440 41 18339065068922405385

>  <PUBCHEM_SHAPE_MULTIPOLES>  (1) 
610.89
8.62
6.33
2.02
2.71
2.2
0.59
-10.15
-2.14
-1.1
-2.01
0.28
-0.44
-0.06

>  <PUBCHEM_SHAPE_SELFOVERLAP>  (1) 
1177.057

>  <PUBCHEM_SHAPE_VOLUME>  (1) 
372.5

>  <PUBCHEM_COORDINATE_TYPE>  (1) 
2
5
10

$$$$
