25833
     RDKit          3D

  6  5  0  0  0  0  0  0  0  0999 V2000
    2.9120   -0.2080   -0.2343 N   0  0  0  0  0  0  0  0  0  0  0  0
   -1.9500    0.5673    0.0320 C   0  0  0  0  0  0  0  0  0  0  0  0
   -2.7167   -0.7431   -0.0539 C   0  0  0  0  0  0  0  0  0  0  0  0
   -0.5118    0.3869   -0.3570 C   0  0  0  0  0  0  0  0  0  0  0  0
    0.4583    0.0763    0.5134 C   0  0  0  0  0  0  0  0  0  0  0  0
    1.8082   -0.0794    0.0997 C   0  0  0  0  0  0  0  0  0  0  0  0
  1  6  3  0
  2  3  1  0
  2  4  1  0
  4  5  2  0
  5  6  1  0
M  END
>  <PUBCHEM_COMPOUND_CID>  (1) 
25833

>  <PUBCHEM_CONFORMER_RMSD>  (1) 
0.4

>  <PUBCHEM_CONFORMER_DIVERSEORDER>  (1) 
1

>  <PUBCHEM_MMFF94_PARTIAL_CHARGES>  (1) 
7
1 -0.56
12 0.15
13 0.15
2 0.14
4 -0.29
5 -0.09
6 0.49

>  <PUBCHEM_EFFECTIVE_ROTOR_COUNT>  (1) 
1

>  <PUBCHEM_PHARMACOPHORE_FEATURES>  (1) 
2
1 1 acceptor
1 3 hydrophobe

>  <PUBCHEM_HEAVY_ATOM_COUNT>  (1) 
6

>  <PUBCHEM_ATOM_DEF_STEREO_COUNT>  (1) 
0

>  <PUBCHEM_ATOM_UDEF_STEREO_COUNT>  (1) 
0

>  <PUBCHEM_BOND_DEF_STEREO_COUNT>  (1) 
0

>  <PUBCHEM_BOND_UDEF_STEREO_COUNT>  (1) 
1

>  <PUBCHEM_ISOTOPIC_ATOM_COUNT>  (1) 
0

>  <PUBCHEM_COMPONENT_COUNT>  (1) 
1

>  <PUBCHEM_CACTVS_TAUTO_COUNT>  (1) 
1

>  <PUBCHEM_CONFORMER_ID>  (1) 
000064E900000001

>  <PUBCHEM_MMFF94_ENERGY>  (1) 
-0.2313

>  <PUBCHEM_FEATURE_SELFOVERLAP>  (1) 
10.148

>  <PUBCHEM_SHAPE_FINGERPRINT>  (1) 
14390081 3 11241967088014849047
16714656 1 18333449846033524503
29004967 10 17274823549509465290
5460574 1 9439403531793014168

>  <PUBCHEM_SHAPE_MULTIPOLES>  (1) 
118.5
4.3
0.79
0.68
0.71
0.02
-0.02
0.86
0.3
-0.37
0.01
0
-0.01
0.01

>  <PUBCHEM_SHAPE_SELFOVERLAP>  (1) 
211.726

>  <PUBCHEM_SHAPE_VOLUME>  (1) 
74.9

>  <PUBCHEM_COORDINATE_TYPE>  (1) 
2
5
10

$$$$
