2584
     RDKit          3D

 30 31  0  0  1  0  0  0  0  0999 V2000
    4.6651   -0.8880   -0.4202 S   0  0  0  0  0  0  0  0  0  0  0  0
   -4.7598   -1.8554    0.6995 S   0  0  0  0  0  0  0  0  0  0  0  0
    0.3033   -3.0809    0.0353 O   0  0  0  0  0  0  0  0  0  0  0  0
    3.1134    1.3431    1.3455 O   0  0  0  0  0  0  0  0  0  0  0  0
    4.9402    0.4950   -1.2522 O   0  0  0  0  0  0  0  0  0  0  0  0
    4.6999   -1.9789   -1.3895 O   0  0  0  0  0  0  0  0  0  0  0  0
    5.5978   -0.9025    0.7024 O   0  0  0  0  0  0  0  0  0  0  0  0
   -0.8418    1.0260    2.4660 O   0  0  0  0  0  0  0  0  0  0  0  0
   -0.1025   -3.9775   -2.0459 O   0  0  0  0  0  0  0  0  0  0  0  0
   -0.8078    2.7453   -0.1144 O   0  0  0  0  0  0  0  0  0  0  0  0
    0.3166    5.8174   -1.5695 O   0  0  0  0  0  0  0  0  0  0  0  0
    1.2941    4.4705   -0.0146 O   0  0  0  0  0  0  0  0  0  0  0  0
    3.0948   -0.7193    0.1659 N   0  0  0  0  0  0  0  0  0  0  0  0
    0.1401   -0.1529    0.6913 N   0  0  0  0  0  0  0  0  0  0  0  0
   -1.9819    2.0029   -0.3021 N   0  0  0  0  0  0  0  0  0  0  0  0
   -1.5513   -4.3341   -0.2964 N   0  0  0  0  0  0  0  0  0  0  0  0
   -4.1905    0.3696   -0.4871 N   0  0  0  0  0  0  0  0  0  0  0  0
   -6.2804   -0.5728   -1.0652 N   0  0  0  0  0  0  0  0  0  0  0  0
    2.1533   -1.7282    0.6972 C   0  0  0  0  0  0  0  0  0  0  0  0
    1.3649   -0.5852    1.3717 C   0  0  0  0  0  0  0  0  0  0  0  0
    2.6114    0.2902    1.0272 C   0  0  0  0  0  0  0  0  0  0  0  0
    1.4962   -2.4888   -0.4422 C   0  0  0  0  0  0  0  0  0  0  0  0
   -0.8245    0.6056    1.3204 C   0  0  0  0  0  0  0  0  0  0  0  0
   -1.9908    0.9238    0.4209 C   0  0  0  0  0  0  0  0  0  0  0  0
   -0.4203   -3.8113   -0.8731 C   0  0  0  0  0  0  0  0  0  0  0  0
   -3.1574    0.0385    0.3432 C   0  0  0  0  0  0  0  0  0  0  0  0
   -3.2596   -1.1103    1.0680 C   0  0  0  0  0  0  0  0  0  0  0  0
   -5.1055   -0.5683   -0.3816 C   0  0  0  0  0  0  0  0  0  0  0  0
   -0.8805    3.9000   -0.9362 C   0  0  0  0  0  0  0  0  0  0  0  0
    0.3638    4.7264   -0.7642 C   0  0  0  0  0  0  0  0  0  0  0  0
  1  5  1  0
  1  6  2  0
  1  7  2  0
  1 13  1  0
  2 27  1  0
  2 28  1  0
  3 22  1  0
  3 25  1  0
  4 21  2  0
  8 23  2  0
  9 25  2  0
 10 15  1  0
 10 29  1  0
 11 30  1  0
 12 30  2  0
 13 19  1  0
 13 21  1  0
 14 20  1  0
 14 23  1  0
 15 24  2  0
 16 25  1  0
 17 26  1  0
 17 28  2  0
 18 28  1  0
 19 20  1  0
 19 22  1  0
 20 21  1  0
 23 24  1  0
 24 26  1  0
 26 27  2  0
 29 30  1  0
M  END
>  <PUBCHEM_COMPOUND_CID>  (1) 
2584

>  <PUBCHEM_CONFORMER_RMSD>  (1) 
1

>  <PUBCHEM_CONFORMER_DIVERSEORDER>  (1) 
1
20
69
88
76
13
79
11
37
84
9
61
39
60
64
55
77
67
70
90
41
65
89
12
56
36
59
52
40
3
43
4
28
33
92
21
72
16
6
53
58
85
63
50
78
17
87
62
45
82
18
7
68
81
75
5
83
54
57
74
42
80
71
32
91
86
48
14
23
15
8
26
19
66
49
38
10
24
93
47
29
22
25
73
44
46
34
30
27
35
51
2
31

>  <PUBCHEM_MMFF94_PARTIAL_CHARGES>  (1) 
38
1 1.62
10 -0.22
11 -0.65
12 -0.57
13 -0.68
14 -0.65
15 -0.51
16 -0.8
17 -0.57
18 -0.88
19 0.31
2 -0.08
20 0.28
21 0.75
22 0.28
23 0.63
24 0.54
25 0.78
26 0.14
27 -0.11
28 0.46
29 0.34
3 -0.43
30 0.66
35 0.37
36 0.5
37 0.37
38 0.37
39 0.15
4 -0.57
42 0.4
43 0.4
44 0.5
5 -0.68
6 -0.65
7 -0.65
8 -0.57
9 -0.57

>  <PUBCHEM_EFFECTIVE_ROTOR_COUNT>  (1) 
11.6

>  <PUBCHEM_PHARMACOPHORE_FEATURES>  (1) 
17
1 11 acceptor
1 12 acceptor
1 14 donor
1 15 acceptor
1 16 donor
1 18 donor
1 4 acceptor
1 5 acceptor
1 6 acceptor
1 7 acceptor
1 8 acceptor
1 9 acceptor
3 11 12 30 anion
3 17 18 28 cation
4 1 5 6 7 anion
4 13 19 20 21 rings
5 2 17 26 27 28 rings

>  <PUBCHEM_HEAVY_ATOM_COUNT>  (1) 
30

>  <PUBCHEM_ATOM_DEF_STEREO_COUNT>  (1) 
0

>  <PUBCHEM_ATOM_UDEF_STEREO_COUNT>  (1) 
2

>  <PUBCHEM_BOND_DEF_STEREO_COUNT>  (1) 
0

>  <PUBCHEM_BOND_UDEF_STEREO_COUNT>  (1) 
1

>  <PUBCHEM_ISOTOPIC_ATOM_COUNT>  (1) 
0

>  <PUBCHEM_COMPONENT_COUNT>  (1) 
1

>  <PUBCHEM_CACTVS_TAUTO_COUNT>  (1) 
8

>  <PUBCHEM_CONFORMER_ID>  (1) 
00000A1800000001

>  <PUBCHEM_MMFF94_ENERGY>  (1) 
37.5367

>  <PUBCHEM_FEATURE_SELFOVERLAP>  (1) 
86.395

>  <PUBCHEM_SHAPE_FINGERPRINT>  (1) 
10675989 125 17542215771571424341
11578080 2 14568097604787815945
12788726 201 17969778567070512521
13402501 40 18343865532964818947
1361 2 18338231673700586041
14117953 113 18411695465969547847
15324884 4 18267562745937702361
15439362 3 18192991754345241733
15664445 248 18339657663204489669
18681886 176 18410006675906542530
22393880 68 17908147581875126198
23559900 14 18263637524023760929
4017518 198 17763189442375945020
46194498 28 18117256251399560527
6669772 16 17689171413966180236
7399639 24 18197756856886705432

>  <PUBCHEM_SHAPE_MULTIPOLES>  (1) 
536.51
9.8
6.52
1.52
1.42
7.68
-0.16
-5.24
1.53
-0.73
4.21
-0.27
-0.02
0.35

>  <PUBCHEM_SHAPE_SELFOVERLAP>  (1) 
1091.935

>  <PUBCHEM_SHAPE_VOLUME>  (1) 
311.5

>  <PUBCHEM_COORDINATE_TYPE>  (1) 
2
5
10

$$$$
