25847
     RDKit          3D

 22 26  0  0  0  0  0  0  0  0999 V2000
   -2.4478   -3.2775   -0.7736 O   0  0  0  0  0  0  0  0  0  0  0  0
    0.5005    0.0455    0.0366 C   0  0  0  0  0  0  0  0  0  0  0  0
    1.9222    0.1115    0.0105 C   0  0  0  0  0  0  0  0  0  0  0  0
   -0.2878    1.2261   -0.0144 C   0  0  0  0  0  0  0  0  0  0  0  0
   -0.1209   -1.2197    0.1145 C   0  0  0  0  0  0  0  0  0  0  0  0
   -1.7220    1.1220    0.0140 C   0  0  0  0  0  0  0  0  0  0  0  0
    2.5739    1.3613   -0.0671 C   0  0  0  0  0  0  0  0  0  0  0  0
    2.6981   -1.0722    0.0619 C   0  0  0  0  0  0  0  0  0  0  0  0
   -2.3192   -0.1607    0.0924 C   0  0  0  0  0  0  0  0  0  0  0  0
   -1.5156   -1.3045    0.1411 C   0  0  0  0  0  0  0  0  0  0  0  0
    0.4084    2.4541   -0.0914 C   0  0  0  0  0  0  0  0  0  0  0  0
    0.6615   -2.3814    0.1648 C   0  0  0  0  0  0  0  0  0  0  0  0
    1.8038    2.5226   -0.1172 C   0  0  0  0  0  0  0  0  0  0  0  0
    2.0528   -2.3095    0.1388 C   0  0  0  0  0  0  0  0  0  0  0  0
    3.9755    1.4174   -0.0923 C   0  0  0  0  0  0  0  0  0  0  0  0
    4.0979   -0.9881    0.0352 C   0  0  0  0  0  0  0  0  0  0  0  0
   -2.6037    2.2320   -0.0314 C   0  0  0  0  0  0  0  0  0  0  0  0
   -3.7182   -0.2976    0.1221 C   0  0  0  0  0  0  0  0  0  0  0  0
    4.7317    0.2495   -0.0415 C   0  0  0  0  0  0  0  0  0  0  0  0
   -2.1480   -2.6293    0.2224 C   0  0  0  0  0  0  0  0  0  0  0  0
   -3.9928    2.0824   -0.0010 C   0  0  0  0  0  0  0  0  0  0  0  0
   -4.5504    0.8162    0.0757 C   0  0  0  0  0  0  0  0  0  0  0  0
  1 20  2  0
  2  3  2  0
  2  4  1  0
  2  5  1  0
  3  7  1  0
  3  8  1  0
  4  6  1  0
  4 11  2  0
  5 10  2  0
  5 12  1  0
  6  9  2  0
  6 17  1  0
  7 13  2  0
  7 15  1  0
  8 14  1  0
  8 16  2  0
  9 10  1  0
  9 18  1  0
 10 20  1  0
 11 13  1  0
 12 14  2  0
 15 19  2  0
 16 19  1  0
 17 21  2  0
 18 22  2  0
 21 22  1  0
M  END
>  <PUBCHEM_COMPOUND_CID>  (1) 
25847

>  <PUBCHEM_CONFORMER_RMSD>  (1) 
0.6

>  <PUBCHEM_CONFORMER_DIVERSEORDER>  (1) 
1

>  <PUBCHEM_MMFF94_PARTIAL_CHARGES>  (1) 
26
1 -0.57
10 0.09
11 -0.15
12 -0.15
13 -0.15
14 -0.15
15 -0.15
16 -0.15
17 -0.15
18 -0.15
19 -0.15
20 0.42
21 -0.15
22 -0.15
23 0.15
24 0.15
25 0.15
26 0.15
27 0.15
28 0.15
29 0.15
30 0.15
31 0.15
32 0.06
33 0.15
34 0.15

>  <PUBCHEM_EFFECTIVE_ROTOR_COUNT>  (1) 
1

>  <PUBCHEM_PHARMACOPHORE_FEATURES>  (1) 
6
1 1 acceptor
6 2 3 4 7 11 13 rings
6 2 3 5 8 12 14 rings
6 2 4 5 6 9 10 rings
6 3 7 8 15 16 19 rings
6 6 9 17 18 21 22 rings

>  <PUBCHEM_HEAVY_ATOM_COUNT>  (1) 
22

>  <PUBCHEM_ATOM_DEF_STEREO_COUNT>  (1) 
0

>  <PUBCHEM_ATOM_UDEF_STEREO_COUNT>  (1) 
0

>  <PUBCHEM_BOND_DEF_STEREO_COUNT>  (1) 
0

>  <PUBCHEM_BOND_UDEF_STEREO_COUNT>  (1) 
0

>  <PUBCHEM_ISOTOPIC_ATOM_COUNT>  (1) 
0

>  <PUBCHEM_COMPONENT_COUNT>  (1) 
1

>  <PUBCHEM_CACTVS_TAUTO_COUNT>  (1) 
1

>  <PUBCHEM_CONFORMER_ID>  (1) 
000064F700000001

>  <PUBCHEM_MMFF94_ENERGY>  (1) 
91.6639

>  <PUBCHEM_FEATURE_SELFOVERLAP>  (1) 
30.6

>  <PUBCHEM_SHAPE_FINGERPRINT>  (1) 
10062212 137 18335132128968076706
10411042 1 17762058044029748162
10616163 171 18339082695484187367
10863032 1 18412544336080067376
10967382 1 18337954485011254152
1100329 8 18410855468976793344
11112241 14 16699742796369452328
11578080 2 17130132342047778987
12011746 2 18337955588664959700
12403259 226 18053944240518802592
12403260 363 18121207934248627402
12403814 3 17603584097593710205
12838862 33 18337653244579801160
13132413 78 18411419501093181164
13140716 1 18337955717524482641
138480 1 17401768523625537187
14178342 30 18267004219568233872
14223421 5 18267304428917956770
14790565 3 18267030452954976353
15196674 1 18409730634052963408
15442244 35 18409728482379752210
15536298 74 18341895143359637864
1601671 61 18409450246019613120
16945 1 18410289220282552291
17492 89 18338517563951786338
19591789 44 18193557774555785303
19930381 70 17977665312399933907
20691752 17 17531797069463110938
20739085 24 17833016865390215329
20905425 154 18053671553103279798
21267235 1 18338244781861496210
21421861 104 17824254904820729586
21478907 32 18051409866860941567
21501502 16 18265051508159985750
23227448 37 18412544323100473607
2334 1 18050007988849127274
23402539 116 18343011160314526668
23558518 356 17971475349407850010
23559900 14 18343582958766130600
238 59 17394125921527431173
2748010 2 18410577331331868886
335352 9 18337954476711541726
34934 24 18409444769830750834
350125 39 18338241591006594611
3680242 22 18190178988630596858
5104073 3 18409449163350044040
69090 78 18410009910212075393
7364860 26 18340207371551937526
7832392 63 18411134740571964410
9709674 26 18413394228229618078
9981440 41 17397828363689000344

>  <PUBCHEM_SHAPE_MULTIPOLES>  (1) 
446.88
7.88
3.38
0.64
0.49
1.09
0.01
-1.86
0.03
-1.05
0.23
-0.05
0.07
-0.25

>  <PUBCHEM_SHAPE_SELFOVERLAP>  (1) 
1051.594

>  <PUBCHEM_SHAPE_VOLUME>  (1) 
226.6

>  <PUBCHEM_COORDINATE_TYPE>  (1) 
2
5
10

$$$$
