25846
     RDKit          3D

 12 13  0  0  0  0  0  0  0  0999 V2000
   -1.7632    0.5945   -1.4567 O   0  0  0  0  0  0  0  0  0  0  0  0
   -2.3816   -0.3324    0.5918 N   0  0  0  0  0  0  0  0  0  0  0  0
   -0.1792   -0.3677   -0.0570 N   0  0  0  0  0  0  0  0  0  0  0  0
    0.9727   -0.1346   -0.8964 C   0  0  0  0  0  0  0  0  0  0  0  0
    1.5868    1.2418   -0.6191 C   0  0  0  0  0  0  0  0  0  0  0  0
    2.0106   -1.2496   -0.7296 C   0  0  0  0  0  0  0  0  0  0  0  0
    2.3031    1.3017    0.7299 C   0  0  0  0  0  0  0  0  0  0  0  0
    2.7262   -1.1856    0.6197 C   0  0  0  0  0  0  0  0  0  0  0  0
    3.3383    0.1896    0.8677 C   0  0  0  0  0  0  0  0  0  0  0  0
   -3.7494   -0.6485    0.3021 C   0  0  0  0  0  0  0  0  0  0  0  0
   -3.3935    0.5706    1.0559 C   0  0  0  0  0  0  0  0  0  0  0  0
   -1.4708    0.0202   -0.4084 C   0  0  0  0  0  0  0  0  0  0  0  0
  1 12  2  0
  2 10  1  0
  2 11  1  0
  2 12  1  0
  3  4  1  0
  3 12  1  0
  4  5  1  0
  4  6  1  0
  5  7  1  0
  6  8  1  0
  7  9  1  0
  8  9  1  0
 10 11  1  0
M  END
>  <PUBCHEM_COMPOUND_CID>  (1) 
25846

>  <PUBCHEM_CONFORMER_RMSD>  (1) 
0.6

>  <PUBCHEM_CONFORMER_DIVERSEORDER>  (1) 
1
18
5
6
19
10
3
8
4
12
2
13
16
11
17
9
7
14
15

>  <PUBCHEM_MMFF94_PARTIAL_CHARGES>  (1) 
12
1 -0.57
10 -0.05
11 -0.05
12 0.69
2 -0.36
24 0.1
25 0.1
26 0.1
27 0.1
28 0.37
3 -0.73
4 0.3

>  <PUBCHEM_EFFECTIVE_ROTOR_COUNT>  (1) 
4.8

>  <PUBCHEM_PHARMACOPHORE_FEATURES>  (1) 
3
1 1 acceptor
1 3 donor
6 4 5 6 7 8 9 rings

>  <PUBCHEM_HEAVY_ATOM_COUNT>  (1) 
12

>  <PUBCHEM_ATOM_DEF_STEREO_COUNT>  (1) 
0

>  <PUBCHEM_ATOM_UDEF_STEREO_COUNT>  (1) 
0

>  <PUBCHEM_BOND_DEF_STEREO_COUNT>  (1) 
0

>  <PUBCHEM_BOND_UDEF_STEREO_COUNT>  (1) 
0

>  <PUBCHEM_ISOTOPIC_ATOM_COUNT>  (1) 
0

>  <PUBCHEM_COMPONENT_COUNT>  (1) 
1

>  <PUBCHEM_CACTVS_TAUTO_COUNT>  (1) 
2

>  <PUBCHEM_CONFORMER_ID>  (1) 
000064F600000001

>  <PUBCHEM_MMFF94_ENERGY>  (1) 
19.9265

>  <PUBCHEM_FEATURE_SELFOVERLAP>  (1) 
15.223

>  <PUBCHEM_SHAPE_FINGERPRINT>  (1) 
11031198 65 11240000057301609405
11471102 22 18335133194209415936
12251169 10 18412262869413800931
12696612 119 18410858784554525636
12897270 3 11167942489255024778
12932764 1 18334855013119401518
13705890 14 12107792912601555472
13764800 53 14836127705932373015
14350558 41 14562524089651126704
15775835 57 16630803331065119762
170605 34 17203614825724508076
177051 138 16153709851289936387
18186145 218 11383844735911242779
20279233 1 17822003216370231639
20281407 28 17458349628166105539
20361792 2 15213019370947735983
20559304 39 17846508014659238808
20653085 51 9295022258188771455
20715346 28 18113886144300360548
20767249 442 15410895145651057513
20871998 22 18056483838171477886
21501925 9 18187927317565735491
21730867 7 18409167727217935650
230 275 16487262057946796920
23402655 69 9007070053756742851
3248919 1 18202005434467436975
522135 26 10737278061321642915
5374978 207 18202291312128433259
57812782 119 17676762132566313043
581208 293 18040997388027988011
7364860 26 14979410451941628356
81539 233 15648478846836877148

>  <PUBCHEM_SHAPE_MULTIPOLES>  (1) 
231.12
6.43
1.26
1.17
4.05
0.07
0.2
0.27
-2.32
-0.87
-0.06
0.03
0.07
-0.13

>  <PUBCHEM_SHAPE_SELFOVERLAP>  (1) 
460.01

>  <PUBCHEM_SHAPE_VOLUME>  (1) 
136.5

>  <PUBCHEM_COORDINATE_TYPE>  (1) 
2
5
10

$$$$
