25853
     RDKit          3D

 22 23  0  0  1  0  0  0  0  0999 V2000
    0.3449   -1.1614    0.2864 O   0  0  0  0  0  0  0  0  0  0  0  0
    3.9021   -1.5246   -0.5684 N   0  0  0  0  0  0  0  0  0  0  0  0
   -0.7797   -0.4774   -0.2955 C   0  0  0  0  0  0  0  0  0  0  0  0
   -2.0492   -0.7114    0.5958 C   0  0  0  0  0  0  0  0  0  0  0  0
   -1.0094   -1.1050   -1.6973 C   0  0  0  0  0  0  0  0  0  0  0  0
   -3.3224   -0.2145   -0.1130 C   0  0  0  0  0  0  0  0  0  0  0  0
   -2.3103   -0.6718   -2.3768 C   0  0  0  0  0  0  0  0  0  0  0  0
   -3.5255   -0.8619   -1.4787 C   0  0  0  0  0  0  0  0  0  0  0  0
   -2.2183   -2.1714    1.0518 C   0  0  0  0  0  0  0  0  0  0  0  0
   -0.3436    0.9964   -0.2913 C   0  0  0  0  0  0  0  0  0  0  0  0
   -0.1075    1.6670    0.9061 C   0  0  0  0  0  0  0  0  0  0  0  0
   -3.3969   -2.3160    1.9904 C   0  0  0  0  0  0  0  0  0  0  0  0
   -0.1870    1.6552   -1.5085 C   0  0  0  0  0  0  0  0  0  0  0  0
    1.5214   -0.9621   -0.4805 C   0  0  0  0  0  0  0  0  0  0  0  0
   -0.2705    0.9784    2.2214 C   0  0  0  0  0  0  0  0  0  0  0  0
    0.2873    3.0047    0.8864 C   0  0  0  0  0  0  0  0  0  0  0  0
    2.6739   -1.6875    0.1953 C   0  0  0  0  0  0  0  0  0  0  0  0
    0.2080    2.9927   -1.5282 C   0  0  0  0  0  0  0  0  0  0  0  0
    0.4451    3.6675   -0.3306 C   0  0  0  0  0  0  0  0  0  0  0  0
    0.8860    1.2682    3.1734 C   0  0  0  0  0  0  0  0  0  0  0  0
    4.2477   -0.1069   -0.6979 C   0  0  0  0  0  0  0  0  0  0  0  0
    5.0039   -2.2580    0.0596 C   0  0  0  0  0  0  0  0  0  0  0  0
  1  3  1  0
  1 14  1  0
  2 17  1  0
  2 21  1  0
  2 22  1  0
  3  4  1  0
  3  5  1  0
  3 10  1  0
  4  6  1  0
  4  9  1  0
  5  7  1  0
  6  8  1  0
  7  8  1  0
  9 12  1  0
 10 11  2  0
 10 13  1  0
 11 15  1  0
 11 16  1  0
 13 18  2  0
 14 17  1  0
 15 20  1  0
 16 19  2  0
 18 19  1  0
M  END
>  <PUBCHEM_COMPOUND_CID>  (1) 
25853

>  <PUBCHEM_CONFORMER_RMSD>  (1) 
0.8

>  <PUBCHEM_CONFORMER_DIVERSEORDER>  (1) 
3
25
22
24
21
27
23
11
8
28
18
14
19
9
26
29
20
12
1
13
2
17
10
6
15
5
16
7
4

>  <PUBCHEM_MMFF94_PARTIAL_CHARGES>  (1) 
18
1 -0.56
10 -0.14
11 -0.14
13 -0.15
14 0.28
15 0.14
16 -0.15
17 0.27
18 -0.15
19 -0.15
2 -0.81
21 0.27
22 0.27
3 0.42
37 0.15
42 0.15
45 0.15
46 0.15

>  <PUBCHEM_EFFECTIVE_ROTOR_COUNT>  (1) 
8.2

>  <PUBCHEM_PHARMACOPHORE_FEATURES>  (1) 
6
1 1 acceptor
1 12 hydrophobe
1 2 cation
1 20 hydrophobe
6 10 11 13 16 18 19 rings
6 3 4 5 6 7 8 rings

>  <PUBCHEM_HEAVY_ATOM_COUNT>  (1) 
22

>  <PUBCHEM_ATOM_DEF_STEREO_COUNT>  (1) 
0

>  <PUBCHEM_ATOM_UDEF_STEREO_COUNT>  (1) 
2

>  <PUBCHEM_BOND_DEF_STEREO_COUNT>  (1) 
0

>  <PUBCHEM_BOND_UDEF_STEREO_COUNT>  (1) 
0

>  <PUBCHEM_ISOTOPIC_ATOM_COUNT>  (1) 
0

>  <PUBCHEM_COMPONENT_COUNT>  (1) 
1

>  <PUBCHEM_CACTVS_TAUTO_COUNT>  (1) 
1

>  <PUBCHEM_CONFORMER_ID>  (1) 
000064FD00000003

>  <PUBCHEM_MMFF94_ENERGY>  (1) 
81.9232

>  <PUBCHEM_FEATURE_SELFOVERLAP>  (1) 
30.446

>  <PUBCHEM_SHAPE_FINGERPRINT>  (1) 
11045515 52 17968388900305082196
11244481 83 17461981443715940688
11315181 36 17241051990767336334
11582403 64 15507157169525108300
12592029 89 17612614605741779596
12788726 201 18046894988015948819
133893 2 17983562285021801175
13681431 1 18338225093699795308
14142880 1 17984144755934164824
14181834 199 18059009634816838357
14251757 17 17458616831040332372
14863182 85 16545477062552901886
14955137 171 17415309326869454446
16945 1 18125723628139952109
17980427 23 17915765127402300681
1813 80 18340187666131220240
18915476 22 17975131264446547927
18981168 100 17903632226916381117
20600515 1 18269856279421211534
21304303 282 17393573936546368508
21330990 113 17558825096698527957
21524375 3 17187277968537299564
2306618 200 17984978194522277450
23175994 123 18408327683212812407
23419403 2 18116437131446266147
23526113 38 18189037836947011831
23558518 356 17831864542775931014
23559900 14 18043244837841896103
3027735 51 18049718521065600406
394222 165 17337079130603791825
5845 1 12907106027249155047
81228 2 18124049926507911511

>  <PUBCHEM_SHAPE_MULTIPOLES>  (1) 
441.9
6.04
3.65
2.41
5.54
2.88
1.16
-7.08
-0.91
1.45
0.25
-1.24
0.49
0.84

>  <PUBCHEM_SHAPE_SELFOVERLAP>  (1) 
901.583

>  <PUBCHEM_SHAPE_VOLUME>  (1) 
256.9

>  <PUBCHEM_COORDINATE_TYPE>  (1) 
2
5
10

$$$$
