25866
     RDKit          3D

 11 12  0  0  0  0  0  0  0  0999 V2000
    1.5324   -0.2258    0.2564 N   0  0  0  0  0  0  0  0  0  0  0  0
    2.9003   -0.3039   -0.2303 C   0  0  0  0  0  0  0  0  0  0  0  0
    4.0481   -0.3966    0.7397 C   0  0  0  0  0  0  0  0  0  0  0  0
    3.8384    0.8606   -0.0523 C   0  0  0  0  0  0  0  0  0  0  0  0
    0.5900   -0.1432   -0.8607 C   0  0  0  0  0  0  0  0  0  0  0  0
   -0.8267   -0.0511   -0.4032 C   0  0  0  0  0  0  0  0  0  0  0  0
   -1.5732   -1.2131   -0.2076 C   0  0  0  0  0  0  0  0  0  0  0  0
   -1.4050    1.1967   -0.1712 C   0  0  0  0  0  0  0  0  0  0  0  0
   -2.8980   -1.1271    0.2202 C   0  0  0  0  0  0  0  0  0  0  0  0
   -2.7299    1.2827    0.2566 C   0  0  0  0  0  0  0  0  0  0  0  0
   -3.4765    0.1208    0.4524 C   0  0  0  0  0  0  0  0  0  0  0  0
  1  2  1  0
  1  5  1  0
  2  3  1  0
  2  4  1  0
  3  4  1  0
  5  6  1  0
  6  7  2  0
  6  8  1  0
  7  9  1  0
  8 10  2  0
  9 11  2  0
 10 11  1  0
M  END
>  <PUBCHEM_COMPOUND_CID>  (1) 
25866

>  <PUBCHEM_CONFORMER_RMSD>  (1) 
0.6

>  <PUBCHEM_CONFORMER_DIVERSEORDER>  (1) 
1
3
6
4
2
5

>  <PUBCHEM_MMFF94_PARTIAL_CHARGES>  (1) 
22
1 -0.79
10 -0.15
11 -0.15
12 0.1
13 0.1
14 0.1
15 0.1
16 0.1
17 0.36
2 0.06
20 0.15
21 0.15
22 0.15
23 0.15
24 0.15
3 -0.2
4 -0.2
5 0.41
6 -0.14
7 -0.15
8 -0.15
9 -0.15

>  <PUBCHEM_EFFECTIVE_ROTOR_COUNT>  (1) 
3.6

>  <PUBCHEM_PHARMACOPHORE_FEATURES>  (1) 
3
1 1 cation
1 1 donor
6 6 7 8 9 10 11 rings

>  <PUBCHEM_HEAVY_ATOM_COUNT>  (1) 
11

>  <PUBCHEM_ATOM_DEF_STEREO_COUNT>  (1) 
0

>  <PUBCHEM_ATOM_UDEF_STEREO_COUNT>  (1) 
0

>  <PUBCHEM_BOND_DEF_STEREO_COUNT>  (1) 
0

>  <PUBCHEM_BOND_UDEF_STEREO_COUNT>  (1) 
0

>  <PUBCHEM_ISOTOPIC_ATOM_COUNT>  (1) 
0

>  <PUBCHEM_COMPONENT_COUNT>  (1) 
1

>  <PUBCHEM_CACTVS_TAUTO_COUNT>  (1) 
1

>  <PUBCHEM_CONFORMER_ID>  (1) 
0000650A00000001

>  <PUBCHEM_MMFF94_ENERGY>  (1) 
24.3672

>  <PUBCHEM_FEATURE_SELFOVERLAP>  (1) 
15.223

>  <PUBCHEM_SHAPE_FINGERPRINT>  (1) 
12251169 10 18408887347362992012
12932764 1 17531239531279219918
13024252 1 14923943440742920549
13897977 58 18339085985666538980
14144814 61 18334857208121775202
14325111 11 18411700972012138798
14445660 50 18410580582247715096
15219456 202 17917158190790191630
18186145 218 14836404739996957606
190213 19 17822009813371303054
19050596 39 18334011709623899200
20279233 1 17561365071701189798
20528008 55 18412539920737636077
20645464 45 17988929955055062487
20711985 327 17167868568929070870
20871998 184 18201444730813969527
20871999 31 9943517480420718769
21119208 17 11024109841117832576
22485316 2 12540698141180178536
23402539 116 18271799138817606159
23403322 49 12179833984037777296
42 15 18261672589206991466
75552 356 18409451405502332647

>  <PUBCHEM_SHAPE_MULTIPOLES>  (1) 
221.39
7.55
1.25
0.79
5.91
0.1
-0.02
0.34
1.69
-0.8
0.02
0.15
-0.03
-0.15

>  <PUBCHEM_SHAPE_SELFOVERLAP>  (1) 
452.33

>  <PUBCHEM_SHAPE_VOLUME>  (1) 
129.2

>  <PUBCHEM_COORDINATE_TYPE>  (1) 
2
5
10

$$$$
