25861
     RDKit          3D

 18 19  0  0  0  0  0  0  0  0999 V2000
   -2.7573   -0.9135    2.0139 O   0  0  0  0  0  0  0  0  0  0  0  0
   -1.5389   -2.1135   -0.8822 O   0  0  0  0  0  0  0  0  0  0  0  0
    6.1394    1.1369    0.4260 O   0  0  0  0  0  0  0  0  0  0  0  0
   -2.6860   -0.1629   -0.2627 C   0  0  0  0  0  0  0  0  0  0  0  0
    2.3426   -0.4112   -0.2200 C   0  0  0  0  0  0  0  0  0  0  0  0
   -1.4530   -0.9479   -0.5117 C   0  0  0  0  0  0  0  0  0  0  0  0
   -3.2767   -0.1846    0.9860 C   0  0  0  0  0  0  0  0  0  0  0  0
    1.0123   -0.9534   -0.4451 C   0  0  0  0  0  0  0  0  0  0  0  0
   -3.2116    0.5746   -1.3068 C   0  0  0  0  0  0  0  0  0  0  0  0
   -0.1455   -0.2784   -0.2650 C   0  0  0  0  0  0  0  0  0  0  0  0
    2.5380    0.9699   -0.1954 C   0  0  0  0  0  0  0  0  0  0  0  0
    3.4234   -1.2718   -0.0274 C   0  0  0  0  0  0  0  0  0  0  0  0
   -4.4373    0.5591    1.1994 C   0  0  0  0  0  0  0  0  0  0  0  0
   -4.3721    1.3183   -1.0935 C   0  0  0  0  0  0  0  0  0  0  0  0
    3.8139    1.4901    0.0214 C   0  0  0  0  0  0  0  0  0  0  0  0
    4.6992   -0.7515    0.1896 C   0  0  0  0  0  0  0  0  0  0  0  0
    4.8945    0.6295    0.2138 C   0  0  0  0  0  0  0  0  0  0  0  0
   -4.9851    1.3105    0.1596 C   0  0  0  0  0  0  0  0  0  0  0  0
  1  7  1  0
  2  6  2  0
  3 17  1  0
  4  6  1  0
  4  7  2  0
  4  9  1  0
  5  8  1  0
  5 11  2  0
  5 12  1  0
  6 10  1  0
  7 13  1  0
  8 10  2  0
  9 14  2  0
 11 15  1  0
 12 16  2  0
 13 18  2  0
 14 18  1  0
 15 17  2  0
 16 17  1  0
M  END
>  <PUBCHEM_COMPOUND_CID>  (1) 
25861

>  <PUBCHEM_CONFORMER_RMSD>  (1) 
0.6

>  <PUBCHEM_CONFORMER_DIVERSEORDER>  (1) 
1
12
10
14
4
7
9
2
13
18
3
11
17
6
16
5
8
15

>  <PUBCHEM_MMFF94_PARTIAL_CHARGES>  (1) 
30
1 -0.53
10 -0.14
11 -0.15
12 -0.15
13 -0.15
14 -0.15
15 -0.15
16 -0.15
17 0.08
18 -0.15
19 0.15
2 -0.57
20 0.15
21 0.15
22 0.15
23 0.15
24 0.15
25 0.15
26 0.15
27 0.15
28 0.15
29 0.45
3 -0.53
30 0.45
4 0.09
5 0.03
6 0.47
7 0.08
8 -0.18
9 -0.15

>  <PUBCHEM_EFFECTIVE_ROTOR_COUNT>  (1) 
3

>  <PUBCHEM_PHARMACOPHORE_FEATURES>  (1) 
5
1 1 donor
1 2 acceptor
1 3 donor
6 4 7 9 13 14 18 rings
6 5 11 12 15 16 17 rings

>  <PUBCHEM_HEAVY_ATOM_COUNT>  (1) 
18

>  <PUBCHEM_ATOM_DEF_STEREO_COUNT>  (1) 
0

>  <PUBCHEM_ATOM_UDEF_STEREO_COUNT>  (1) 
0

>  <PUBCHEM_BOND_DEF_STEREO_COUNT>  (1) 
0

>  <PUBCHEM_BOND_UDEF_STEREO_COUNT>  (1) 
1

>  <PUBCHEM_ISOTOPIC_ATOM_COUNT>  (1) 
0

>  <PUBCHEM_COMPONENT_COUNT>  (1) 
1

>  <PUBCHEM_CACTVS_TAUTO_COUNT>  (1) 
21

>  <PUBCHEM_CONFORMER_ID>  (1) 
0000650500000001

>  <PUBCHEM_MMFF94_ENERGY>  (1) 
56.4663

>  <PUBCHEM_FEATURE_SELFOVERLAP>  (1) 
25.371

>  <PUBCHEM_SHAPE_FINGERPRINT>  (1) 
10014705 185 18342734139245418599
11046707 91 13190336881164235247
11089746 13 17275097345686070096
11370993 144 18114180778898662351
12236239 1 17489868215360301023
12507557 5 18343302599684202121
12670546 177 13110958742919029186
128620 24 10303808791588512178
13103583 49 12829783856201462597
13288520 33 11530480025901723103
13583140 156 18260551147091164891
13675066 3 18040719164531353166
14123260 362 17346323699863429643
14341114 176 17748831791357513388
14350574 20 10159694715946070380
14576447 43 9007065664890775948
15188451 53 16226334823709157243
15348495 7 17749391503174619232
16988056 13 13383786855478507361
17780758 139 15719388442981733813
1813 80 12468647075350661395
193927 3 7853579049524094968
19489759 90 17385158446720362101
200 152 8574711295326091439
20281389 69 18411132550513339280
20300324 65 15267341812575700091
20325693 3 14045742617249263565
204376 136 18272090478817659631
20645477 56 18408037416126414381
20645477 70 18341891836472684438
21033648 29 18335123281182914293
21033650 10 15625407678323910376
21065199 12 17967537860882825027
22393880 68 12463303466119447852
23402539 116 16845289423523840812
23402655 69 18202279234648676774
23559900 14 17170124642257048159
27216 239 18334861619491057565
300161 21 18060132155111724930
3268164 11 15123508073654153169
34797466 226 13470395712599457080
351380 3 12396301460768453432
3545911 37 18343022211613590718
465052 167 11963686499075567169
474 4 17917433077556231879
5104073 3 18338226168043149650
542803 24 17346597469531563764
57265010 4 17022626377350754001
5924683 9 17968100888641867971
602551 16 16226055521759057986
633830 44 17894907464779856558
7970288 3 11674885510701851241
90127 26 18261117361361980294

>  <PUBCHEM_SHAPE_MULTIPOLES>  (1) 
352.82
13.05
1.57
1.17
7.19
0.11
-0.27
-5.53
-2.01
0.29
0.18
-1.63
0.1
0.55

>  <PUBCHEM_SHAPE_SELFOVERLAP>  (1) 
762.638

>  <PUBCHEM_SHAPE_VOLUME>  (1) 
193.4

>  <PUBCHEM_COORDINATE_TYPE>  (1) 
2
5
10

$$$$
