25862
     RDKit          3D

 21 22  0  0  0  0  0  0  0  0999 V2000
   -5.8010    1.2473    0.3948 O   0  0  0  0  0  0  0  0  0  0  0  0
   -5.5568   -1.3312   -0.6139 O   0  0  0  0  0  0  0  0  0  0  0  0
    3.1725   -0.5476    2.1883 O   0  0  0  0  0  0  0  0  0  0  0  0
    1.7616   -2.4464   -0.2524 O   0  0  0  0  0  0  0  0  0  0  0  0
    6.4503    1.7643   -0.3829 O   0  0  0  0  0  0  0  0  0  0  0  0
   -2.0607   -0.5298    0.0921 C   0  0  0  0  0  0  0  0  0  0  0  0
    2.9648   -0.4330   -0.1984 C   0  0  0  0  0  0  0  0  0  0  0  0
   -3.1965   -1.2304   -0.3141 C   0  0  0  0  0  0  0  0  0  0  0  0
   -2.1835    0.7645    0.5978 C   0  0  0  0  0  0  0  0  0  0  0  0
   -0.7484   -1.1479   -0.0124 C   0  0  0  0  0  0  0  0  0  0  0  0
   -4.5774    0.6574    0.2913 C   0  0  0  0  0  0  0  0  0  0  0  0
   -4.4549   -0.6369   -0.2146 C   0  0  0  0  0  0  0  0  0  0  0  0
    1.7121   -1.2251   -0.1557 C   0  0  0  0  0  0  0  0  0  0  0  0
    3.6325   -0.1343    0.9737 C   0  0  0  0  0  0  0  0  0  0  0  0
   -3.4417    1.3580    0.6973 C   0  0  0  0  0  0  0  0  0  0  0  0
    0.4280   -0.4816   -0.0258 C   0  0  0  0  0  0  0  0  0  0  0  0
    3.4316   -0.0175   -1.4313 C   0  0  0  0  0  0  0  0  0  0  0  0
    4.8116    0.6084    0.9113 C   0  0  0  0  0  0  0  0  0  0  0  0
    4.6106    0.7251   -1.4936 C   0  0  0  0  0  0  0  0  0  0  0  0
    5.3006    1.0381   -0.3224 C   0  0  0  0  0  0  0  0  0  0  0  0
   -6.2555    1.9985   -0.7291 C   0  0  0  0  0  0  0  0  0  0  0  0
  1 11  1  0
  1 21  1  0
  2 12  1  0
  3 14  1  0
  4 13  2  0
  5 20  1  0
  6  8  2  0
  6  9  1  0
  6 10  1  0
  7 13  1  0
  7 14  2  0
  7 17  1  0
  8 12  1  0
  9 15  2  0
 10 16  2  0
 11 12  2  0
 11 15  1  0
 13 16  1  0
 14 18  1  0
 17 19  2  0
 18 20  2  0
 19 20  1  0
M  END
>  <PUBCHEM_COMPOUND_CID>  (1) 
25862

>  <PUBCHEM_CONFORMER_RMSD>  (1) 
0.6

>  <PUBCHEM_CONFORMER_DIVERSEORDER>  (1) 
1
34
54
37
67
29
26
10
8
56
59
13
53
62
36
19
9
7
27
72
71
4
11
32
66
30
70
3
58
31
23
63
2
60
21
33
16
24
38
44
28
5
17
25
22
64
35
41
73
55
6
18
68
45
12
65
49
42
39
51
57
15
40
69
14
46
20
52
43
47
61
48
50

>  <PUBCHEM_MMFF94_PARTIAL_CHARGES>  (1) 
32
1 -0.36
10 -0.18
11 0.08
12 0.08
13 0.47
14 0.08
15 -0.15
16 -0.14
17 -0.15
18 -0.15
19 -0.15
2 -0.53
20 0.08
21 0.28
22 0.15
23 0.15
24 0.15
25 0.15
26 0.15
27 0.15
28 0.15
29 0.15
3 -0.53
30 0.45
31 0.45
35 0.45
4 -0.57
5 -0.53
6 0.03
7 0.09
8 -0.15
9 -0.15

>  <PUBCHEM_EFFECTIVE_ROTOR_COUNT>  (1) 
4

>  <PUBCHEM_PHARMACOPHORE_FEATURES>  (1) 
7
1 1 acceptor
1 2 donor
1 3 donor
1 4 acceptor
1 5 donor
6 6 8 9 11 12 15 rings
6 7 14 17 18 19 20 rings

>  <PUBCHEM_HEAVY_ATOM_COUNT>  (1) 
21

>  <PUBCHEM_ATOM_DEF_STEREO_COUNT>  (1) 
0

>  <PUBCHEM_ATOM_UDEF_STEREO_COUNT>  (1) 
0

>  <PUBCHEM_BOND_DEF_STEREO_COUNT>  (1) 
0

>  <PUBCHEM_BOND_UDEF_STEREO_COUNT>  (1) 
1

>  <PUBCHEM_ISOTOPIC_ATOM_COUNT>  (1) 
0

>  <PUBCHEM_COMPONENT_COUNT>  (1) 
1

>  <PUBCHEM_CACTVS_TAUTO_COUNT>  (1) 
36

>  <PUBCHEM_CONFORMER_ID>  (1) 
0000650600000001

>  <PUBCHEM_MMFF94_ENERGY>  (1) 
75.5276

>  <PUBCHEM_FEATURE_SELFOVERLAP>  (1) 
35.522

>  <PUBCHEM_SHAPE_FINGERPRINT>  (1) 
10 15 18186527588404522945
10014705 185 18409166576757440061
10498660 4 18201722838351378896
10670039 82 18271819969140524652
10693767 8 13829591791357165812
10912923 1 17894625968096291955
11128504 68 13686294694917005986
114674 6 14346346832703881824
12236239 1 18187361038796479562
12596602 18 17749392567957146353
12633257 1 15864353609928736708
12730499 353 16916790721087864598
13167372 99 18041276578150844500
13631057 29 17969786478833295179
13668630 136 12247681569211535908
13675066 3 13767927927078773659
13685833 64 8862938381385193900
14341114 328 17749105621403018754
14528608 73 18201718461568493087
15183329 4 14979963553403241880
15188451 53 12468644979733175289
15348495 7 14057012649577314909
15788980 27 13623530177467949059
15961568 22 18409733954305958900
17844677 252 14548739499773582147
19427546 20 18412259576250207655
20511986 3 18187352246940363349
20645477 70 15698015024149901486
21150785 3 17917986188361836661
22061861 79 15913336775230805076
221357 26 16128659630614053080
2215653 11 16917064451990620657
22224240 67 15357974629642856248
22289505 5 17203611476114345184
23557571 272 17775010119490223879
23559900 14 17985824835339835055
26918003 58 13912318006078065030
2767999 5 18187364345847457637
300161 21 18333449824817046997
3472631 163 18340491157474547284
34797466 226 17632021947780631605
465052 167 9295281759638042136
474 4 18041003968155210318
5104073 3 17385726906520868963
5281201 14 15554452872878775224
53794403 172 18055350490412036352
542803 24 18187083961792374835
5924683 9 14852465366547375145
59682541 52 16988289659896678356
67856867 119 18339077077815086058
7970288 3 9871756771412736660
8863177 126 10735286863070750061
960060 61 13182735957355253338

>  <PUBCHEM_SHAPE_MULTIPOLES>  (1) 
402.82
16.24
1.79
1.2
4.59
0.06
0.18
-8.72
-2
0.94
-0.23
-1.42
-0.09
-0.58

>  <PUBCHEM_SHAPE_SELFOVERLAP>  (1) 
868.297

>  <PUBCHEM_SHAPE_VOLUME>  (1) 
222.3

>  <PUBCHEM_COORDINATE_TYPE>  (1) 
2
5
10

$$$$
