25869
     RDKit          3D

  8  7  0  0  1  0  0  0  0  0999 V2000
   -0.0535    1.6430    0.2666 O   0  0  0  0  0  0  0  0  0  0  0  0
    1.7773   -1.5735   -0.0828 N   0  0  0  0  0  0  0  0  0  0  0  0
    0.1193    0.2657   -0.0726 C   0  0  0  0  0  0  0  0  0  0  0  0
    1.5679   -0.1628    0.2491 C   0  0  0  0  0  0  0  0  0  0  0  0
   -0.9251   -0.5436    0.7159 C   0  0  0  0  0  0  0  0  0  0  0  0
   -2.3557   -0.0656    0.4430 C   0  0  0  0  0  0  0  0  0  0  0  0
    2.6018    0.6833   -0.4997 C   0  0  0  0  0  0  0  0  0  0  0  0
   -2.7320   -0.2464   -1.0195 C   0  0  0  0  0  0  0  0  0  0  0  0
  1  3  1  0
  2  4  1  0
  3  4  1  0
  3  5  1  0
  4  7  1  0
  5  6  1  0
  6  8  1  0
M  END
>  <PUBCHEM_COMPOUND_CID>  (1) 
25869

>  <PUBCHEM_CONFORMER_RMSD>  (1) 
0.6

>  <PUBCHEM_CONFORMER_DIVERSEORDER>  (1) 
14
6
31
38
10
25
37
1
35
32
36
18
34
29
12
19
20
5
17
28
33
11
2
27
23
3
30
9
24
26
22
13
15
16
8
21
4
7

>  <PUBCHEM_MMFF94_PARTIAL_CHARGES>  (1) 
7
1 -0.68
18 0.36
19 0.36
2 -0.99
23 0.4
3 0.28
4 0.27

>  <PUBCHEM_EFFECTIVE_ROTOR_COUNT>  (1) 
3

>  <PUBCHEM_PHARMACOPHORE_FEATURES>  (1) 
5
1 1 acceptor
1 1 donor
1 2 cation
1 2 donor
1 8 hydrophobe

>  <PUBCHEM_HEAVY_ATOM_COUNT>  (1) 
8

>  <PUBCHEM_ATOM_DEF_STEREO_COUNT>  (1) 
0

>  <PUBCHEM_ATOM_UDEF_STEREO_COUNT>  (1) 
2

>  <PUBCHEM_BOND_DEF_STEREO_COUNT>  (1) 
0

>  <PUBCHEM_BOND_UDEF_STEREO_COUNT>  (1) 
0

>  <PUBCHEM_ISOTOPIC_ATOM_COUNT>  (1) 
0

>  <PUBCHEM_COMPONENT_COUNT>  (1) 
1

>  <PUBCHEM_CACTVS_TAUTO_COUNT>  (1) 
1

>  <PUBCHEM_CONFORMER_ID>  (1) 
0000650D0000000E

>  <PUBCHEM_MMFF94_ENERGY>  (1) 
1.9756

>  <PUBCHEM_FEATURE_SELFOVERLAP>  (1) 
25.371

>  <PUBCHEM_SHAPE_FINGERPRINT>  (1) 
12897270 3 18408611374339542860
12932764 1 17704355463592285129
14128692 85 17273690056274484285
14390081 3 16225758623486143799
18342897 55 18267583683681581140
20651381 32 18259978254314657943
20653085 51 15647343982948210789
21293036 1 18338518658909003237
23552423 10 18190747435767811458
23552449 11 17274805991683127051
29004967 10 18409454703789218419
5460574 1 10303820864746778139

>  <PUBCHEM_SHAPE_MULTIPOLES>  (1) 
153.79
4.01
1.23
0.88
0.66
0
-0.1
0.13
-1
-0.58
0.05
0.42
0.02
-0.05

>  <PUBCHEM_SHAPE_SELFOVERLAP>  (1) 
272.867

>  <PUBCHEM_SHAPE_VOLUME>  (1) 
101.3

>  <PUBCHEM_COORDINATE_TYPE>  (1) 
2
5
10

$$$$
