25874
     RDKit          3D

 25 27  0  0  1  0  0  0  0  0999 V2000
   -2.7894    1.3022    0.2983 N   0  0  0  0  0  0  0  0  0  0  0  0
    3.0580    3.0287    1.1118 N   0  0  0  0  0  0  0  0  0  0  0  0
    1.6391    1.2186   -0.2098 C   0  0  0  0  0  0  0  0  0  0  0  0
    0.1548    1.7334   -0.2319 C   0  0  0  0  0  0  0  0  0  0  0  0
    2.2037    1.1336   -1.6915 C   0  0  0  0  0  0  0  0  0  0  0  0
   -0.5220    1.8435    1.1505 C   0  0  0  0  0  0  0  0  0  0  0  0
   -1.9920    2.2639    1.0589 C   0  0  0  0  0  0  0  0  0  0  0  0
   -2.7270   -0.0262    0.9240 C   0  0  0  0  0  0  0  0  0  0  0  0
   -4.1781    1.7676    0.1772 C   0  0  0  0  0  0  0  0  0  0  0  0
    1.6901   -0.1888    0.4302 C   0  0  0  0  0  0  0  0  0  0  0  0
   -3.5161   -1.0553    0.1134 C   0  0  0  0  0  0  0  0  0  0  0  0
   -5.0147    0.7970   -0.6580 C   0  0  0  0  0  0  0  0  0  0  0  0
   -4.9620   -0.6147   -0.0853 C   0  0  0  0  0  0  0  0  0  0  0  0
    3.6653    0.6620   -1.7851 C   0  0  0  0  0  0  0  0  0  0  0  0
    2.0690    2.4565   -2.4694 C   0  0  0  0  0  0  0  0  0  0  0  0
    1.0035   -1.2384   -0.1430 C   0  0  0  0  0  0  0  0  0  0  0  0
    2.4379    2.2304    0.5406 C   0  0  0  0  0  0  0  0  0  0  0  0
    2.4484   -0.2922    1.5705 C   0  0  0  0  0  0  0  0  0  0  0  0
    1.0909   -2.5010    0.4902 C   0  0  0  0  0  0  0  0  0  0  0  0
    2.5347   -1.5340    2.1928 C   0  0  0  0  0  0  0  0  0  0  0  0
    0.2340   -1.1072   -1.3103 C   0  0  0  0  0  0  0  0  0  0  0  0
    1.8609   -2.6322    1.6573 C   0  0  0  0  0  0  0  0  0  0  0  0
    0.4059   -3.5954   -0.0627 C   0  0  0  0  0  0  0  0  0  0  0  0
   -0.4402   -2.2051   -1.8457 C   0  0  0  0  0  0  0  0  0  0  0  0
   -0.3546   -3.4467   -1.2230 C   0  0  0  0  0  0  0  0  0  0  0  0
  1  7  1  0
  1  8  1  0
  1  9  1  0
  2 17  3  0
  3  4  1  0
  3  5  1  0
  3 10  1  0
  3 17  1  0
  4  6  1  0
  5 14  1  0
  5 15  1  0
  6  7  1  0
  8 11  1  0
  9 12  1  0
 10 16  1  0
 10 18  2  0
 11 13  1  0
 12 13  1  0
 16 19  2  0
 16 21  1  0
 18 20  1  0
 19 22  1  0
 19 23  1  0
 20 22  2  0
 21 24  2  0
 23 25  2  0
 24 25  1  0
M  END
>  <PUBCHEM_COMPOUND_CID>  (1) 
25874

>  <PUBCHEM_CONFORMER_RMSD>  (1) 
0.8

>  <PUBCHEM_CONFORMER_DIVERSEORDER>  (1) 
4
52
70
51
26
15
72
44
64
37
60
67
71
29
9
59
8
68
49
17
73
69
32
33
53
38
62
25
20
43
61
24
23
3
42
30
12
21
41
63
2
66
35
13
18
1
56
34
31
39
58
16
54
57
48
55
40
46
10
14
22
5
19
50
65
28
47
45
6
11
27
36
7

>  <PUBCHEM_MMFF94_PARTIAL_CHARGES>  (1) 
22
1 -0.81
10 -0.14
17 0.36
18 -0.15
2 -0.56
20 -0.15
21 -0.15
22 -0.15
23 -0.15
24 -0.15
25 -0.15
3 0.34
49 0.15
50 0.15
51 0.15
52 0.15
53 0.15
54 0.15
55 0.15
7 0.27
8 0.27
9 0.27

>  <PUBCHEM_EFFECTIVE_ROTOR_COUNT>  (1) 
7.2

>  <PUBCHEM_PHARMACOPHORE_FEATURES>  (1) 
7
1 1 cation
1 2 acceptor
3 5 14 15 hydrophobe
4 3 4 5 6 hydrophobe
6 1 8 9 11 12 13 rings
6 10 16 18 19 20 22 rings
6 16 19 21 23 24 25 rings

>  <PUBCHEM_HEAVY_ATOM_COUNT>  (1) 
25

>  <PUBCHEM_ATOM_DEF_STEREO_COUNT>  (1) 
0

>  <PUBCHEM_ATOM_UDEF_STEREO_COUNT>  (1) 
1

>  <PUBCHEM_BOND_DEF_STEREO_COUNT>  (1) 
0

>  <PUBCHEM_BOND_UDEF_STEREO_COUNT>  (1) 
0

>  <PUBCHEM_ISOTOPIC_ATOM_COUNT>  (1) 
0

>  <PUBCHEM_COMPONENT_COUNT>  (1) 
1

>  <PUBCHEM_CACTVS_TAUTO_COUNT>  (1) 
1

>  <PUBCHEM_CONFORMER_ID>  (1) 
0000651200000004

>  <PUBCHEM_MMFF94_ENERGY>  (1) 
78.4903

>  <PUBCHEM_FEATURE_SELFOVERLAP>  (1) 
35.568

>  <PUBCHEM_SHAPE_FINGERPRINT>  (1) 
10759866 29 18187650231971748375
108634 29 17840589528260927623
1100329 8 18197760284618624520
12293681 4 17114378702670020346
12553582 1 18126012559549342393
12633257 1 16904108635787022107
12788726 201 17035298510547967718
133893 2 17898034363563105193
14178342 30 17843398475717537377
14251757 17 17487926516754654900
14863182 85 18199749141722515979
14955137 171 18339072675932355314
15163728 17 16300677180828145036
17980427 23 18195791995173986009
18681886 176 18411982468469214056
20600515 1 16257592461237888710
20715895 44 17905030471148460125
20739085 24 17968641788216795322
21304303 282 17466509331784868164
21421861 104 18195265321047311081
22393880 68 18413111667074509637
23419403 2 17607774271977522860
23559900 14 18127130763069793927
238 59 18338536186797281737
3052486 1 17833820947570631921
3060560 45 18410300198430302076
35225 105 17394198810979645126
3797600 57 18263656223921003251
394222 165 18041568034657645472
404807 78 17607815212387179659
4280585 95 17617674154394387502
57527293 21 17323231516603323698
57527573 199 16178737252995019577
5845 1 16187812535971129800
6438718 38 17342653701727520031
6669772 16 18201722911845851180
81228 2 17547589526560715432

>  <PUBCHEM_SHAPE_MULTIPOLES>  (1) 
504.53
7.01
4.17
2.01
10.57
1.88
-0.43
-3.09
0.01
-1.95
-0.24
-1.94
-0.02
-1.53

>  <PUBCHEM_SHAPE_SELFOVERLAP>  (1) 
1064.819

>  <PUBCHEM_SHAPE_VOLUME>  (1) 
281.1

>  <PUBCHEM_COORDINATE_TYPE>  (1) 
2
5
10

$$$$
