25873
     RDKit          3D

 22 24  0  0  1  0  0  0  0  0999 V2000
   -3.2927   -0.0658    0.7634 N   0  0  0  0  0  0  0  0  0  0  0  0
    0.9133   -3.7687   -1.6477 N   0  0  0  0  0  0  0  0  0  0  0  0
   -2.9195    1.2264    0.1710 C   0  0  0  0  0  0  0  0  0  0  0  0
   -4.7116   -0.0852    1.1455 C   0  0  0  0  0  0  0  0  0  0  0  0
   -3.7615    1.5284   -1.0698 C   0  0  0  0  0  0  0  0  0  0  0  0
   -5.6120    0.1739   -0.0633 C   0  0  0  0  0  0  0  0  0  0  0  0
   -5.2518    1.4853   -0.7524 C   0  0  0  0  0  0  0  0  0  0  0  0
   -2.4473   -0.3616    1.9198 C   0  0  0  0  0  0  0  0  0  0  0  0
   -0.9824   -0.4601    1.4953 C   0  0  0  0  0  0  0  0  0  0  0  0
   -0.7862   -1.5584    0.4419 C   0  0  0  0  0  0  0  0  0  0  0  0
    0.6944   -1.7638    0.0549 C   0  0  0  0  0  0  0  0  0  0  0  0
    1.3522   -0.5136   -0.5017 C   0  0  0  0  0  0  0  0  0  0  0  0
    2.4492    0.0695    0.1297 C   0  0  0  0  0  0  0  0  0  0  0  0
    0.8047    0.0097   -1.6623 C   0  0  0  0  0  0  0  0  0  0  0  0
    3.0170    1.2341   -0.4397 C   0  0  0  0  0  0  0  0  0  0  0  0
    0.8167   -2.8861   -0.9004 C   0  0  0  0  0  0  0  0  0  0  0  0
    3.0042   -0.4605    1.3060 C   0  0  0  0  0  0  0  0  0  0  0  0
    1.3634    1.1548   -2.2224 C   0  0  0  0  0  0  0  0  0  0  0  0
    2.4625    1.7641   -1.6161 C   0  0  0  0  0  0  0  0  0  0  0  0
    4.1231    1.8343    0.1839 C   0  0  0  0  0  0  0  0  0  0  0  0
    4.1029    0.1490    1.9121 C   0  0  0  0  0  0  0  0  0  0  0  0
    4.6613    1.2943    1.3523 C   0  0  0  0  0  0  0  0  0  0  0  0
  1  3  1  0
  1  4  1  0
  1  8  1  0
  2 16  3  0
  3  5  1  0
  4  6  1  0
  5  7  1  0
  6  7  1  0
  8  9  1  0
  9 10  1  0
 10 11  1  0
 11 12  1  0
 11 16  1  0
 12 13  1  0
 12 14  2  0
 13 15  2  0
 13 17  1  0
 14 18  1  0
 15 19  1  0
 15 20  1  0
 17 21  2  0
 18 19  2  0
 20 22  2  0
 21 22  1  0
M  END
>  <PUBCHEM_COMPOUND_CID>  (1) 
25873

>  <PUBCHEM_CONFORMER_RMSD>  (1) 
0.8

>  <PUBCHEM_CONFORMER_DIVERSEORDER>  (1) 
2
45
80
69
40
74
51
1
62
83
3
61
82
21
41
19
78
70
76
72
57
30
53
6
66
20
38
23
29
68
79
52
14
58
22
67
15
5
43
7
46
12
75
33
27
73
48
32
8
4
47
34
81
71
64
42
37
65
77
63
39
26
16
60
10
28
17
55
18
54
13
25
50
56
24
44
11
49
9
36
31
59
35

>  <PUBCHEM_MMFF94_PARTIAL_CHARGES>  (1) 
22
1 -0.81
11 0.34
12 -0.14
14 -0.15
16 0.36
17 -0.15
18 -0.15
19 -0.15
2 -0.56
20 -0.15
21 -0.15
22 -0.15
3 0.27
4 0.27
40 0.15
41 0.15
42 0.15
43 0.15
44 0.15
45 0.15
46 0.15
8 0.27

>  <PUBCHEM_EFFECTIVE_ROTOR_COUNT>  (1) 
6.2

>  <PUBCHEM_PHARMACOPHORE_FEATURES>  (1) 
5
1 1 cation
1 2 acceptor
6 1 3 4 5 6 7 rings
6 12 13 14 15 18 19 rings
6 13 15 17 20 21 22 rings

>  <PUBCHEM_HEAVY_ATOM_COUNT>  (1) 
22

>  <PUBCHEM_ATOM_DEF_STEREO_COUNT>  (1) 
0

>  <PUBCHEM_ATOM_UDEF_STEREO_COUNT>  (1) 
1

>  <PUBCHEM_BOND_DEF_STEREO_COUNT>  (1) 
0

>  <PUBCHEM_BOND_UDEF_STEREO_COUNT>  (1) 
0

>  <PUBCHEM_ISOTOPIC_ATOM_COUNT>  (1) 
0

>  <PUBCHEM_COMPONENT_COUNT>  (1) 
1

>  <PUBCHEM_CACTVS_TAUTO_COUNT>  (1) 
1

>  <PUBCHEM_CONFORMER_ID>  (1) 
0000651100000002

>  <PUBCHEM_MMFF94_ENERGY>  (1) 
46.1864

>  <PUBCHEM_FEATURE_SELFOVERLAP>  (1) 
25.398

>  <PUBCHEM_SHAPE_FINGERPRINT>  (1) 
10759866 29 16879088496935264452
10764073 3 16881574286735793358
11140007 195 14201393889370321899
12160290 23 17768271341409787730
12403259 327 16805608096084998952
12403260 363 17458062694760624409
12467345 10 17095516309906907561
12633257 1 16515400793715923041
12670546 177 13686304590321455696
12788726 201 17690843784153032486
128620 24 17275105024855512665
12892183 10 17024038248696022064
13103583 49 16298379171598829048
13911987 19 18201162160425445585
14251764 3 18201148927467604817
14251764 30 7781521446596156673
14251764 38 17894914010220819381
14957384 54 18267025153508197456
15238133 3 16805326561184506724
15527383 91 16443059530574421864
15848702 105 14045738248972416940
17349148 13 18113621183752672469
17492 54 15913033370024597496
17859628 37 17530966873506494582
17974551 9 16951130715043026688
17980427 23 18041275573286454341
1813 80 12613030570170193946
20567600 347 16845575313985459902
20715895 44 17750507391771547301
20739085 24 16154272866169508276
21033648 29 18335689572699896904
21304303 282 17772727584701256278
21756936 100 17245851607814060748
2215653 11 10807933731311976953
22749437 52 18114190696484986261
22849341 161 12901549005335989247
22950370 63 10303817609441207721
23419403 2 17976249145955813366
23559900 14 17969516913468203123
238 59 14692303884337881360
2871803 45 13542462068392085817
3323516 105 11959723884801462632
345986 75 15141775355385515456
351380 180 17603583032732068313
3680242 22 17386289775456032081
469060 322 18126571360923454543
57527585 21 15552217728785039584
6328613 192 17095817568077554716
633830 44 17202790153222376930
7097593 13 16661212584231432000
8509985 295 16515685524552150653

>  <PUBCHEM_SHAPE_MULTIPOLES>  (1) 
442.79
10.44
2.59
2.02
10.66
1.86
-0.18
-6.15
3.74
-0.99
-1.78
-1.13
0.34
0.81

>  <PUBCHEM_SHAPE_SELFOVERLAP>  (1) 
937.266

>  <PUBCHEM_SHAPE_VOLUME>  (1) 
246.2

>  <PUBCHEM_COORDINATE_TYPE>  (1) 
2
5
10

$$$$
