25888
     RDKit          3D

 15 17  0  0  0  0  0  0  0  0999 V2000
    2.4114    0.1463    1.1237 N   0  0  0  0  0  0  0  0  0  0  0  0
    2.3871    0.1250   -1.1413 N   0  0  0  0  0  0  0  0  0  0  0  0
   -0.7460    0.1234   -0.0277 C   0  0  0  0  0  0  0  0  0  0  0  0
   -0.5745    1.6218   -0.0006 C   0  0  0  0  0  0  0  0  0  0  0  0
   -1.8457    2.3813   -0.3755 C   0  0  0  0  0  0  0  0  0  0  0  0
   -3.0439    1.8185    0.3780 C   0  0  0  0  0  0  0  0  0  0  0  0
   -3.2794    0.3591   -0.0073 C   0  0  0  0  0  0  0  0  0  0  0  0
   -2.0207   -0.4718    0.0096 C   0  0  0  0  0  0  0  0  0  0  0  0
    0.3953   -0.6928   -0.0324 C   0  0  0  0  0  0  0  0  0  0  0  0
    1.7434   -0.1354   -0.0312 C   0  0  0  0  0  0  0  0  0  0  0  0
   -2.1279   -1.8708    0.0044 C   0  0  0  0  0  0  0  0  0  0  0  0
    0.2752   -2.0821   -0.0269 C   0  0  0  0  0  0  0  0  0  0  0  0
    3.7109    0.6739    0.8346 C   0  0  0  0  0  0  0  0  0  0  0  0
   -0.9858   -2.6708   -0.0110 C   0  0  0  0  0  0  0  0  0  0  0  0
    3.7004    0.6745   -0.6965 C   0  0  0  0  0  0  0  0  0  0  0  0
  1 10  1  0
  1 13  1  0
  2 10  2  0
  2 15  1  0
  3  4  1  0
  3  8  2  0
  3  9  1  0
  4  5  1  0
  5  6  1  0
  6  7  1  0
  7  8  1  0
  8 11  1  0
  9 10  1  0
  9 12  2  0
 11 14  2  0
 12 14  1  0
 13 15  1  0
M  END
>  <PUBCHEM_COMPOUND_CID>  (1) 
25888

>  <PUBCHEM_CONFORMER_RMSD>  (1) 
0.6

>  <PUBCHEM_CONFORMER_DIVERSEORDER>  (1) 
1
2

>  <PUBCHEM_MMFF94_PARTIAL_CHARGES>  (1) 
17
1 -0.82
10 0.41
11 -0.15
12 -0.15
13 0.37
14 -0.15
15 0.25
2 -0.7
24 0.15
25 0.15
28 0.4
29 0.15
3 -0.14
4 0.14
7 0.14
8 -0.14
9 0.09

>  <PUBCHEM_EFFECTIVE_ROTOR_COUNT>  (1) 
2.4

>  <PUBCHEM_PHARMACOPHORE_FEATURES>  (1) 
5
1 1 donor
3 1 2 10 cation
5 1 2 10 13 15 rings
6 3 4 5 6 7 8 rings
6 3 8 9 11 12 14 rings

>  <PUBCHEM_HEAVY_ATOM_COUNT>  (1) 
15

>  <PUBCHEM_ATOM_DEF_STEREO_COUNT>  (1) 
0

>  <PUBCHEM_ATOM_UDEF_STEREO_COUNT>  (1) 
0

>  <PUBCHEM_BOND_DEF_STEREO_COUNT>  (1) 
0

>  <PUBCHEM_BOND_UDEF_STEREO_COUNT>  (1) 
0

>  <PUBCHEM_ISOTOPIC_ATOM_COUNT>  (1) 
0

>  <PUBCHEM_COMPONENT_COUNT>  (1) 
1

>  <PUBCHEM_CACTVS_TAUTO_COUNT>  (1) 
1

>  <PUBCHEM_CONFORMER_ID>  (1) 
0000652000000001

>  <PUBCHEM_MMFF94_ENERGY>  (1) 
44.2977

>  <PUBCHEM_FEATURE_SELFOVERLAP>  (1) 
25.393

>  <PUBCHEM_SHAPE_FINGERPRINT>  (1) 
10608611 8 18272649103870609728
10967382 1 18338798914104471605
11132069 177 18412825806498183625
12173636 292 18410853256831376148
13140716 1 18194124255489282515
13380535 21 18269284477714039115
13380535 76 18339075991219573319
13538477 17 18114740537981513514
13583140 156 16732983124283463237
13764800 53 18410019827159706313
14420673 8 18120641441486069986
14614273 12 18261947449680865429
14648413 74 17471575421772075305
15042514 8 18336830913056547979
15309172 13 18337963289842190065
15669948 3 18336545022889782494
15775835 57 18408323259311861144
16945 1 18410575123528956583
1741750 31 18342176630968010625
17846911 113 18411412904097241417
18186145 218 18059583433989498328
19868273 325 18265334099801936559
20510252 161 18342461486147228387
20525323 117 18411129260067009839
20645477 56 18412266151185643952
20871998 184 18271249438231982167
21501502 16 18267861692503814435
21524375 3 18340764828105284043
22802520 49 18129962090941307694
2334 1 17834113426469709109
23402539 116 18270668896298322895
23557571 272 18127422356926195844
23559900 14 18272938203047052750
23598294 1 18335134336486185202
2748010 2 18120664534949265039
305870 269 18191300481521314986
3071541 12 17836370345773914255
3071541 236 18261386780239156963
3071541 250 17472987671375197623
350125 39 18050013185933752137
43471831 8 18335136458269094643
458136 41 18052841164379355273
53812653 8 18335141985643467375
5706482 22 18338224994968314643
6333449 129 18413105078293691461
7097593 13 17970325067531214522
7364860 26 17837771127771969895
77492 1 17676483995074616390
81228 2 18267022932614349611
90316 7 18041542698830695748

>  <PUBCHEM_SHAPE_MULTIPOLES>  (1) 
298.73
5.65
2.56
0.84
3.78
0.73
-0.01
-2.49
-0.28
-2.09
0.07
0.57
-0.12
0

>  <PUBCHEM_SHAPE_SELFOVERLAP>  (1) 
645.615

>  <PUBCHEM_SHAPE_VOLUME>  (1) 
160.9

>  <PUBCHEM_COORDINATE_TYPE>  (1) 
2
5
10

$$$$
