25886
     RDKit          3D

 16 16  0  0  0  0  0  0  0  0999 V2000
   -2.2171    1.7445    0.6978 O   0  0  0  0  0  0  0  0  0  0  0  0
   -3.6542   -0.0855   -0.8229 O   0  0  0  0  0  0  0  0  0  0  0  0
    2.5922    0.2177    0.1761 N   0  0  0  0  0  0  0  0  0  0  0  0
    3.6748    1.9617   -0.8975 N   0  0  0  0  0  0  0  0  0  0  0  0
    4.5205   -0.1312   -1.2133 N   0  0  0  0  0  0  0  0  0  0  0  0
    1.3439   -1.5266    1.3649 C   0  0  0  0  0  0  0  0  0  0  0  0
    0.0237   -1.1422    0.7877 C   0  0  0  0  0  0  0  0  0  0  0  0
    2.5292   -1.2221    0.4413 C   0  0  0  0  0  0  0  0  0  0  0  0
   -0.4906    0.1348    1.0120 C   0  0  0  0  0  0  0  0  0  0  0  0
   -0.6975   -2.0603    0.0243 C   0  0  0  0  0  0  0  0  0  0  0  0
   -1.7259    0.4938    0.4728 C   0  0  0  0  0  0  0  0  0  0  0  0
   -2.4469   -0.4242   -0.2906 C   0  0  0  0  0  0  0  0  0  0  0  0
   -1.9328   -1.7014   -0.5148 C   0  0  0  0  0  0  0  0  0  0  0  0
    3.5470    0.6254   -0.5996 C   0  0  0  0  0  0  0  0  0  0  0  0
   -1.4179    2.6221    1.4884 C   0  0  0  0  0  0  0  0  0  0  0  0
   -3.6485    0.4934   -2.1264 C   0  0  0  0  0  0  0  0  0  0  0  0
  1 11  1  0
  1 15  1  0
  2 12  1  0
  2 16  1  0
  3  8  1  0
  3 14  2  3
  4 14  1  0
  5 14  1  0
  6  7  1  0
  6  8  1  0
  7  9  2  0
  7 10  1  0
  9 11  1  0
 10 13  2  0
 11 12  2  0
 12 13  1  0
M  END
>  <PUBCHEM_COMPOUND_CID>  (1) 
25886

>  <PUBCHEM_CONFORMER_RMSD>  (1) 
0.6

>  <PUBCHEM_CONFORMER_DIVERSEORDER>  (1) 
24
63
34
93
76
41
33
32
77
5
37
86
50
57
49
90
55
85
23
21
64
62
31
88
12
36
38
43
35
61
65
18
80
1
68
9
95
22
94
66
53
47
60
56
89
78
81
30
25
26
46
16
71
84
72
6
13
59
7
75
73
15
54
17
83
28
82
96
70
11
69
39
87
40
91
92
4
79
14
27
74
29
52
8
48
42
58
3
44
19
20
67
45
2
10
51

>  <PUBCHEM_MMFF94_PARTIAL_CHARGES>  (1) 
23
1 -0.36
10 -0.15
11 0.08
12 0.08
13 -0.15
14 0.55
15 0.28
16 0.28
2 -0.36
21 0.15
22 0.15
23 0.15
3 -0.7
30 0.4
31 0.4
32 0.4
33 0.4
4 -0.85
5 -0.85
6 0.14
7 -0.14
8 0.25
9 -0.15

>  <PUBCHEM_EFFECTIVE_ROTOR_COUNT>  (1) 
5

>  <PUBCHEM_PHARMACOPHORE_FEATURES>  (1) 
6
1 1 acceptor
1 2 acceptor
1 4 donor
1 5 donor
4 3 4 5 14 cation
6 7 9 10 11 12 13 rings

>  <PUBCHEM_HEAVY_ATOM_COUNT>  (1) 
16

>  <PUBCHEM_ATOM_DEF_STEREO_COUNT>  (1) 
0

>  <PUBCHEM_ATOM_UDEF_STEREO_COUNT>  (1) 
0

>  <PUBCHEM_BOND_DEF_STEREO_COUNT>  (1) 
0

>  <PUBCHEM_BOND_UDEF_STEREO_COUNT>  (1) 
0

>  <PUBCHEM_ISOTOPIC_ATOM_COUNT>  (1) 
0

>  <PUBCHEM_COMPONENT_COUNT>  (1) 
1

>  <PUBCHEM_CACTVS_TAUTO_COUNT>  (1) 
2

>  <PUBCHEM_CONFORMER_ID>  (1) 
0000651E00000018

>  <PUBCHEM_MMFF94_ENERGY>  (1) 
63.3528

>  <PUBCHEM_FEATURE_SELFOVERLAP>  (1) 
30.506

>  <PUBCHEM_SHAPE_FINGERPRINT>  (1) 
11206711 2 17988063497106147929
12202030 40 15051436224245132086
12382932 28 11097856289379648080
14123250 116 18340503217521382608
14787075 74 18042975457197750867
15775835 57 17967530181602619110
16945 1 18058430076620782067
17357990 137 18120656833994081202
18186145 218 18334018310967540510
192875 21 18267286678139927778
19765921 60 17822277028914413635
20361792 2 13398636030742292810
20449540 30 18187367661847000955
20645476 183 18261380161642228383
212916 134 13046215014825515717
21475661 188 15358519870792015351
22620623 9 16629947842795592533
228727 97 18341609304722405203
22926399 37 18334010605653864757
231179 274 17530963566840690470
23402539 116 18130790036118665956
23419403 2 16960720814548138275
23557571 272 17843104051409186770
23559900 14 18271523221576386960
23598291 2 18122623851738067954
27216 239 15575005025644945868
2748010 2 17840558690833988435
353137 74 18409727361340495193
4028521 119 18261393381735513028
5262128 65 17986973988468234524
526903 126 18192998351108520616
537710 114 18410844465512992041
9981440 41 17829325036763052880

>  <PUBCHEM_SHAPE_MULTIPOLES>  (1) 
302.59
6.94
2.31
1.53
5.04
0.78
-0.33
2.1
-4.53
-0.27
0.75
-0.61
0.47
-1.18

>  <PUBCHEM_SHAPE_SELFOVERLAP>  (1) 
615.601

>  <PUBCHEM_SHAPE_VOLUME>  (1) 
175.1

>  <PUBCHEM_COORDINATE_TYPE>  (1) 
2
5
10

$$$$
