25882
     RDKit          3D

 16 17  0  0  0  0  0  0  0  0999 V2000
    0.4629   -1.9960    0.0484 O   0  0  0  0  0  0  0  0  0  0  0  0
   -4.5186   -1.3987    0.3708 O   0  0  0  0  0  0  0  0  0  0  0  0
   -4.9300    1.3280    0.0202 O   0  0  0  0  0  0  0  0  0  0  0  0
    2.7082   -0.5837   -0.3310 N   0  0  0  0  0  0  0  0  0  0  0  0
    3.8106    0.3296   -0.4519 C   0  0  0  0  0  0  0  0  0  0  0  0
    5.1569   -0.4226   -0.4087 C   0  0  0  0  0  0  0  0  0  0  0  0
    4.1871    0.9260    0.9204 C   0  0  0  0  0  0  0  0  0  0  0  0
    5.6618    0.6915    0.5316 C   0  0  0  0  0  0  0  0  0  0  0  0
    1.4584    0.1688   -0.3384 C   0  0  0  0  0  0  0  0  0  0  0  0
    0.2660   -0.7730   -0.1083 C   0  0  0  0  0  0  0  0  0  0  0  0
   -1.0832   -0.2315   -0.0746 C   0  0  0  0  0  0  0  0  0  0  0  0
   -2.1706   -1.0798    0.1340 C   0  0  0  0  0  0  0  0  0  0  0  0
   -1.2899    1.1368   -0.2507 C   0  0  0  0  0  0  0  0  0  0  0  0
   -3.4646   -0.5601    0.1663 C   0  0  0  0  0  0  0  0  0  0  0  0
   -2.5838    1.6566   -0.2182 C   0  0  0  0  0  0  0  0  0  0  0  0
   -3.6712    0.8081   -0.0099 C   0  0  0  0  0  0  0  0  0  0  0  0
  1 10  2  0
  2 14  1  0
  3 16  1  0
  4  5  1  0
  4  9  1  0
  5  6  1  0
  5  7  1  0
  6  8  1  0
  7  8  1  0
  9 10  1  0
 10 11  1  0
 11 12  2  0
 11 13  1  0
 12 14  1  0
 13 15  2  0
 14 16  2  0
 15 16  1  0
M  END
>  <PUBCHEM_COMPOUND_CID>  (1) 
25882

>  <PUBCHEM_CONFORMER_RMSD>  (1) 
0.6

>  <PUBCHEM_CONFORMER_DIVERSEORDER>  (1) 
1
68
59
4
72
22
109
95
64
98
67
2
24
77
65
31
70
91
97
9
99
100
66
78
74
21
38
80
43
18
63
94
92
48
29
36
76
44
51
101
79
17
102
93
32
50
106
73
28
71
52
42
82
96
49
56
39
62
89
85
105
41
107
20
5
10
108
23
69
47
57
12
33
83
40
58
15
103
30
26
55
14
61
19
27
6
54
86
13
46
104
60
11
53
37
45
90
16
25
3
84
35
88
87
34
8
81
75
7

>  <PUBCHEM_MMFF94_PARTIAL_CHARGES>  (1) 
19
1 -0.57
10 0.42
11 0.09
12 -0.15
13 -0.15
14 0.08
15 -0.15
16 0.08
2 -0.53
24 0.36
27 0.15
28 0.15
29 0.15
3 -0.53
30 0.45
31 0.45
4 -0.84
5 0.21
9 0.33

>  <PUBCHEM_EFFECTIVE_ROTOR_COUNT>  (1) 
4.8

>  <PUBCHEM_PHARMACOPHORE_FEATURES>  (1) 
7
1 1 acceptor
1 2 donor
1 3 donor
1 4 cation
1 4 donor
4 5 6 7 8 rings
6 11 12 13 14 15 16 rings

>  <PUBCHEM_HEAVY_ATOM_COUNT>  (1) 
16

>  <PUBCHEM_ATOM_DEF_STEREO_COUNT>  (1) 
0

>  <PUBCHEM_ATOM_UDEF_STEREO_COUNT>  (1) 
0

>  <PUBCHEM_BOND_DEF_STEREO_COUNT>  (1) 
0

>  <PUBCHEM_BOND_UDEF_STEREO_COUNT>  (1) 
0

>  <PUBCHEM_ISOTOPIC_ATOM_COUNT>  (1) 
0

>  <PUBCHEM_COMPONENT_COUNT>  (1) 
1

>  <PUBCHEM_CACTVS_TAUTO_COUNT>  (1) 
47

>  <PUBCHEM_CONFORMER_ID>  (1) 
0000651A00000001

>  <PUBCHEM_MMFF94_ENERGY>  (1) 
45.259

>  <PUBCHEM_FEATURE_SELFOVERLAP>  (1) 
35.526

>  <PUBCHEM_SHAPE_FINGERPRINT>  (1) 
10912923 1 17095526227275894180
11128504 68 13470402305922837088
11132069 177 18333455322116892077
11401426 45 18408040710698698021
12107183 9 17466212042817208096
12236239 1 17531246171451705164
12403259 415 18202001058101581712
12596602 18 17168144580997920840
12916748 109 18410859875918947152
13081056 2 18272089409576167192
13214271 11 18411699889933536095
13675066 3 18413110580426450598
14251764 18 18260260855522411610
15042514 8 18192155012779240875
15196674 1 18410293592733475854
18186145 218 17989215828310392622
19433438 28 18412824703118785152
19489759 90 18113897169328434881
19784866 170 18334579005994507659
200 152 17275101730151353309
20432913 95 14562526271948226152
20645477 56 18201716284510619500
20645477 70 17131564860276706750
22854114 59 18343302574198961880
2297311 6 18340499914801931508
23402539 116 18411131459026936159
23557571 272 18271255987814184254
23559900 14 18342460314354554790
26918003 58 11891328760159625156
2916195 48 18201993370046870512
34934 24 18335134242561192293
351380 180 18413668019936908960
3545911 37 18409169870169220172
42 15 18113897148481391274
4214541 1 18410575080621364700
42788 4 18412545422949360390
474229 33 18410012173607606039
5104073 3 18336832983204028267
542803 24 17385728006449091036
573450 72 17968086521537880040
69090 78 18059572520699366446

>  <PUBCHEM_SHAPE_MULTIPOLES>  (1) 
306.68
12
1.55
0.73
8.68
0.1
-0.04
-2.31
-1.28
-1.27
-0.05
0.43
-0.06
0.66

>  <PUBCHEM_SHAPE_SELFOVERLAP>  (1) 
644.112

>  <PUBCHEM_SHAPE_VOLUME>  (1) 
174.1

>  <PUBCHEM_COORDINATE_TYPE>  (1) 
2
5
10

$$$$
