25889
     RDKit          3D

 18 19  0  0  0  0  0  0  0  0999 V2000
    3.6130    0.5751    2.3338 Cl  0  0  0  0  0  0  0  0  0  0  0  0
    5.1730   -0.0953   -0.4207 Cl  0  0  0  0  0  0  0  0  0  0  0  0
   -0.7701   -0.1759   -0.2089 N   0  0  0  0  0  0  0  0  0  0  0  0
   -2.9421    1.0295    0.0272 N   0  0  0  0  0  0  0  0  0  0  0  0
   -2.7894   -1.3037    0.3473 N   0  0  0  0  0  0  0  0  0  0  0  0
   -0.8311   -2.5169    0.1162 N   0  0  0  0  0  0  0  0  0  0  0  0
   -4.8078   -0.1556    0.6870 N   0  0  0  0  0  0  0  0  0  0  0  0
   -1.5190    1.0927   -0.3556 C   0  0  0  0  0  0  0  0  0  0  0  0
   -0.9233    2.2035    0.5308 C   0  0  0  0  0  0  0  0  0  0  0  0
   -1.5207    1.5519   -1.8242 C   0  0  0  0  0  0  0  0  0  0  0  0
    0.6390   -0.1529   -0.2433 C   0  0  0  0  0  0  0  0  0  0  0  0
   -1.5049   -1.3162    0.0990 C   0  0  0  0  0  0  0  0  0  0  0  0
   -3.4787   -0.1092    0.3399 C   0  0  0  0  0  0  0  0  0  0  0  0
    1.3809    0.1596    0.9084 C   0  0  0  0  0  0  0  0  0  0  0  0
    1.3321   -0.4421   -1.4310 C   0  0  0  0  0  0  0  0  0  0  0  0
    2.7751    0.1822    0.8736 C   0  0  0  0  0  0  0  0  0  0  0  0
    2.7263   -0.4194   -1.4659 C   0  0  0  0  0  0  0  0  0  0  0  0
    3.4478   -0.1074   -0.3136 C   0  0  0  0  0  0  0  0  0  0  0  0
  1 16  1  0
  2 18  1  0
  3  8  1  0
  3 11  1  0
  3 12  1  0
  4  8  1  0
  4 13  2  0
  5 12  2  0
  5 13  1  0
  6 12  1  0
  7 13  1  0
  8  9  1  0
  8 10  1  0
 11 14  2  0
 11 15  1  0
 14 16  1  0
 15 17  2  0
 16 18  2  0
 17 18  1  0
M  END
>  <PUBCHEM_COMPOUND_CID>  (1) 
25889

>  <PUBCHEM_CONFORMER_RMSD>  (1) 
0.6

>  <PUBCHEM_CONFORMER_DIVERSEORDER>  (1) 
1
3
4
2

>  <PUBCHEM_MMFF94_PARTIAL_CHARGES>  (1) 
23
1 -0.18
11 0.1
12 0.55
13 0.71
14 -0.15
15 -0.15
16 0.18
17 -0.15
18 0.18
2 -0.18
25 0.15
26 0.15
27 0.4
28 0.4
29 0.15
3 -0.52
30 0.4
31 0.4
4 -0.7
5 -0.66
6 -0.85
7 -0.85
8 0.62

>  <PUBCHEM_EFFECTIVE_ROTOR_COUNT>  (1) 
1.4

>  <PUBCHEM_PHARMACOPHORE_FEATURES>  (1) 
7
1 6 donor
1 7 donor
3 8 9 10 hydrophobe
4 3 5 6 12 cation
4 4 5 7 13 cation
6 11 14 15 16 17 18 rings
6 3 4 5 8 12 13 rings

>  <PUBCHEM_HEAVY_ATOM_COUNT>  (1) 
18

>  <PUBCHEM_ATOM_DEF_STEREO_COUNT>  (1) 
0

>  <PUBCHEM_ATOM_UDEF_STEREO_COUNT>  (1) 
0

>  <PUBCHEM_BOND_DEF_STEREO_COUNT>  (1) 
0

>  <PUBCHEM_BOND_UDEF_STEREO_COUNT>  (1) 
0

>  <PUBCHEM_ISOTOPIC_ATOM_COUNT>  (1) 
0

>  <PUBCHEM_COMPONENT_COUNT>  (1) 
1

>  <PUBCHEM_CACTVS_TAUTO_COUNT>  (1) 
5

>  <PUBCHEM_CONFORMER_ID>  (1) 
0000652100000001

>  <PUBCHEM_MMFF94_ENERGY>  (1) 
75.5297

>  <PUBCHEM_FEATURE_SELFOVERLAP>  (1) 
35.557

>  <PUBCHEM_SHAPE_FINGERPRINT>  (1) 
10366900 7 17989490714575123758
11132069 177 18341326764752053835
11471102 20 16630529531606423474
12236239 1 17313107453435296862
12633257 1 18268978933740537432
13083527 12 17264670899768033423
13538477 17 17530970232065632826
13581323 91 18113896048516043822
13583140 156 18121183607796553928
14614273 12 18115307757306559237
15219456 202 17847057813670589626
15342168 16 16987705982357662128
15375462 189 17168145684229067408
15375462 478 16805323271165627165
15653759 3 18343299275838190906
15775835 57 17749393624455933460
16752209 62 18114732781165192487
16945 1 18187072975318733919
17844478 74 17917435293474474248
18175812 5 17846217799550538334
18186145 218 16056587756173849104
19049666 15 17915185619996401350
200 152 15791733018128413677
20510252 161 18340492162090757785
20600515 1 18337686311464110461
21486144 27 17704065231145628792
2297311 6 18339094726162058092
23175994 123 17346330275722110416
23402539 116 18412823581726100295
23419403 2 17261544932602018781
23557571 272 18411706456643483284
23559900 14 18341618071157052614
2748010 2 18046627807038585207
350125 39 17975139742685785095
4072396 5 18040709239421003819
465052 167 17460056148197286395
474 4 15553869105546093346
69090 78 17704352178174789175
77492 1 17312823779445886662
8272917 22 15338295462537346255
90316 7 17894623730223385861

>  <PUBCHEM_SHAPE_MULTIPOLES>  (1) 
349.27
7.94
1.66
1.56
2.31
0.05
0.1
-0.1
-1.53
-0.89
-0.18
0.94
-0.37
1.34

>  <PUBCHEM_SHAPE_SELFOVERLAP>  (1) 
723.75

>  <PUBCHEM_SHAPE_VOLUME>  (1) 
199

>  <PUBCHEM_COORDINATE_TYPE>  (1) 
2
5
10

$$$$
