25891
     RDKit          3D

 21 25  0  0  0  0  0  0  0  0999 V2000
    4.1006    2.3915   -0.0002 O   0  0  0  0  0  0  0  0  0  0  0  0
    0.0764   -0.3574   -0.0001 C   0  0  0  0  0  0  0  0  0  0  0  0
    1.4940   -0.2276    0.0000 C   0  0  0  0  0  0  0  0  0  0  0  0
   -0.7631    0.7884   -0.0001 C   0  0  0  0  0  0  0  0  0  0  0  0
   -0.4887   -1.6510   -0.0001 C   0  0  0  0  0  0  0  0  0  0  0  0
    2.0900    1.0520    0.0000 C   0  0  0  0  0  0  0  0  0  0  0  0
   -2.1915    0.6199   -0.0001 C   0  0  0  0  0  0  0  0  0  0  0  0
    2.3213   -1.3771    0.0001 C   0  0  0  0  0  0  0  0  0  0  0  0
   -2.7316   -0.6901   -0.0002 C   0  0  0  0  0  0  0  0  0  0  0  0
   -1.8784   -1.7984   -0.0003 C   0  0  0  0  0  0  0  0  0  0  0  0
   -0.1216    2.0482    0.0000 C   0  0  0  0  0  0  0  0  0  0  0  0
    0.3442   -2.7782    0.0002 C   0  0  0  0  0  0  0  0  0  0  0  0
    1.2695    2.1794    0.0000 C   0  0  0  0  0  0  0  0  0  0  0  0
    1.7311   -2.6439    0.0001 C   0  0  0  0  0  0  0  0  0  0  0  0
    3.4880    1.1710    0.0001 C   0  0  0  0  0  0  0  0  0  0  0  0
    3.7162   -1.2302    0.0001 C   0  0  0  0  0  0  0  0  0  0  0  0
   -3.1213    1.6909    0.0002 C   0  0  0  0  0  0  0  0  0  0  0  0
    4.2950    0.0364    0.0001 C   0  0  0  0  0  0  0  0  0  0  0  0
   -4.1234   -0.8899   -0.0001 C   0  0  0  0  0  0  0  0  0  0  0  0
   -4.5026    1.4789    0.0003 C   0  0  0  0  0  0  0  0  0  0  0  0
   -5.0040    0.1872    0.0002 C   0  0  0  0  0  0  0  0  0  0  0  0
  1 15  1  0
  2  3  2  0
  2  4  1  0
  2  5  1  0
  3  6  1  0
  3  8  1  0
  4  7  1  0
  4 11  2  0
  5 10  2  0
  5 12  1  0
  6 13  2  0
  6 15  1  0
  7  9  2  0
  7 17  1  0
  8 14  1  0
  8 16  2  0
  9 10  1  0
  9 19  1  0
 11 13  1  0
 12 14  2  0
 15 18  2  0
 16 18  1  0
 17 20  2  0
 19 21  2  0
 20 21  1  0
M  END
>  <PUBCHEM_COMPOUND_CID>  (1) 
25891

>  <PUBCHEM_CONFORMER_RMSD>  (1) 
0.6

>  <PUBCHEM_CONFORMER_DIVERSEORDER>  (1) 
1

>  <PUBCHEM_MMFF94_PARTIAL_CHARGES>  (1) 
25
1 -0.53
10 -0.15
11 -0.15
12 -0.15
13 -0.15
14 -0.15
15 0.08
16 -0.15
17 -0.15
18 -0.15
19 -0.15
20 -0.15
21 -0.15
22 0.15
23 0.15
24 0.15
25 0.15
26 0.15
27 0.15
28 0.15
29 0.15
30 0.15
31 0.15
32 0.15
33 0.45

>  <PUBCHEM_EFFECTIVE_ROTOR_COUNT>  (1) 
0

>  <PUBCHEM_PHARMACOPHORE_FEATURES>  (1) 
6
1 1 donor
6 2 3 4 6 11 13 rings
6 2 3 5 8 12 14 rings
6 2 4 5 7 9 10 rings
6 3 6 8 15 16 18 rings
6 7 9 17 19 20 21 rings

>  <PUBCHEM_HEAVY_ATOM_COUNT>  (1) 
21

>  <PUBCHEM_ATOM_DEF_STEREO_COUNT>  (1) 
0

>  <PUBCHEM_ATOM_UDEF_STEREO_COUNT>  (1) 
0

>  <PUBCHEM_BOND_DEF_STEREO_COUNT>  (1) 
0

>  <PUBCHEM_BOND_UDEF_STEREO_COUNT>  (1) 
0

>  <PUBCHEM_ISOTOPIC_ATOM_COUNT>  (1) 
0

>  <PUBCHEM_COMPONENT_COUNT>  (1) 
1

>  <PUBCHEM_CACTVS_TAUTO_COUNT>  (1) 
3

>  <PUBCHEM_CONFORMER_ID>  (1) 
0000652300000001

>  <PUBCHEM_MMFF94_ENERGY>  (1) 
77.7129

>  <PUBCHEM_FEATURE_SELFOVERLAP>  (1) 
30.6

>  <PUBCHEM_SHAPE_FINGERPRINT>  (1) 
10411042 1 17546165203863637391
10493431 412 18339078327787387832
10616163 171 18339081596294429871
10863032 1 18411700993159895122
10948715 1 18410855486019492750
10967382 1 18410856521048458886
1100329 8 18410288108424502298
11370993 70 18410570716697208697
11471102 20 18410853248272771487
11578080 2 13697883560163865452
12011746 2 18410577262253787318
12592029 89 18408606946064873699
12838862 33 18338778070955621480
13132413 78 18412826871861063261
13140716 1 18409442596735554874
13583140 156 16661463199878592332
138480 1 18050568435016567178
14178342 30 17907278203205492978
14790565 3 18337399347693827180
15196674 1 18410855473023619687
15442244 35 18123751959125731603
15536298 74 18342458118834845726
1601671 61 18410575050356127056
16945 1 18122344850303388162
19591789 44 18410855460170626206
200 152 18131346410904301573
20645477 70 18342739576774320207
20739085 24 18191045446363713785
20905425 154 18124597479241031614
21267235 1 18411427184721244622
21421861 104 17825666642794956611
21452121 103 18342448262597038832
221490 88 18337117786828066739
23227448 37 18341611555333234823
2334 1 18338799021800485314
23402539 116 18343575248719351894
23558518 356 17684645815768877306
23559900 14 18269552737303512622
238 59 17612830913168815285
2748010 2 18410580612639644182
335352 9 18338797814988652030
33824 294 18409166593246427274
34934 24 18412820300365849942
350125 39 18409448055918621084
3680242 22 18263361395780011850
474 4 18334576858168013787
495365 180 17346307254771237744
5104073 3 18409730668370368275
6138700 20 18338239241976553438
7364860 26 18341050709623501430
8272917 22 18341335483393363487
9709674 26 18411143515338291463

>  <PUBCHEM_SHAPE_MULTIPOLES>  (1) 
426.3
8.43
2.88
0.61
3.77
0.46
0
-2.31
0
-1.3
0
0.02
0.01
0

>  <PUBCHEM_SHAPE_SELFOVERLAP>  (1) 
1005.431

>  <PUBCHEM_SHAPE_VOLUME>  (1) 
215.6

>  <PUBCHEM_COORDINATE_TYPE>  (1) 
2
5
10

$$$$
