25899
     RDKit          3D

 26 27  0  0  1  0  0  0  0  0999 V2000
    2.6221   -0.6729    0.0107 O   0  0  0  0  0  0  0  0  0  0  0  0
    1.6059   -2.5634    0.8191 O   0  0  0  0  0  0  0  0  0  0  0  0
    0.9420    3.9805    0.0740 N   0  0  0  0  0  0  0  0  0  0  0  0
    0.3023   -1.0204   -0.5862 C   0  0  0  0  0  0  0  0  0  0  0  0
    0.0090   -2.0914   -1.7190 C   0  0  0  0  0  0  0  0  0  0  0  0
    0.5708    0.4038   -1.1964 C   0  0  0  0  0  0  0  0  0  0  0  0
   -0.8496   -0.8409    0.4441 C   0  0  0  0  0  0  0  0  0  0  0  0
    0.5793    1.5688   -0.1921 C   0  0  0  0  0  0  0  0  0  0  0  0
    1.5640   -1.5171    0.1789 C   0  0  0  0  0  0  0  0  0  0  0  0
   -0.2825   -3.5054   -1.1795 C   0  0  0  0  0  0  0  0  0  0  0  0
    1.1197   -2.2189   -2.7772 C   0  0  0  0  0  0  0  0  0  0  0  0
   -2.1274   -0.4000    0.0629 C   0  0  0  0  0  0  0  0  0  0  0  0
    0.9456    2.8825   -0.8857 C   0  0  0  0  0  0  0  0  0  0  0  0
   -0.5669   -1.1364    1.7781 C   0  0  0  0  0  0  0  0  0  0  0  0
   -3.1327   -0.2572    1.0489 C   0  0  0  0  0  0  0  0  0  0  0  0
   -1.5556   -0.9963    2.7475 C   0  0  0  0  0  0  0  0  0  0  0  0
   -2.4297   -0.0979   -1.2749 C   0  0  0  0  0  0  0  0  0  0  0  0
   -2.8307   -0.5596    2.3867 C   0  0  0  0  0  0  0  0  0  0  0  0
   -4.4106    0.1835    0.6679 C   0  0  0  0  0  0  0  0  0  0  0  0
    3.8447   -1.0709    0.6393 C   0  0  0  0  0  0  0  0  0  0  0  0
   -3.7047    0.3389   -1.6353 C   0  0  0  0  0  0  0  0  0  0  0  0
    1.7518    5.0968   -0.4169 C   0  0  0  0  0  0  0  0  0  0  0  0
   -0.4265    4.4256    0.3425 C   0  0  0  0  0  0  0  0  0  0  0  0
   -4.6933    0.4794   -0.6658 C   0  0  0  0  0  0  0  0  0  0  0  0
    4.9093   -0.0235    0.3515 C   0  0  0  0  0  0  0  0  0  0  0  0
    6.2437   -0.3877    0.9771 C   0  0  0  0  0  0  0  0  0  0  0  0
  1  9  1  0
  1 20  1  0
  2  9  2  0
  3 13  1  0
  3 22  1  0
  3 23  1  0
  4  5  1  0
  4  6  1  0
  4  7  1  0
  4  9  1  0
  5 10  1  0
  5 11  1  0
  6  8  1  0
  7 12  2  0
  7 14  1  0
  8 13  1  0
 12 15  1  0
 12 17  1  0
 14 16  2  0
 15 18  2  0
 15 19  1  0
 16 18  1  0
 17 21  2  0
 19 24  2  0
 20 25  1  0
 21 24  1  0
 25 26  1  0
M  END
>  <PUBCHEM_COMPOUND_CID>  (1) 
25899

>  <PUBCHEM_CONFORMER_RMSD>  (1) 
1

>  <PUBCHEM_CONFORMER_DIVERSEORDER>  (1) 
1
122
124
105
40
38
117
66
48
46
5
33
22
70
96
123
32
116
85
72
120
101
59
23
91
104
50
128
18
84
83
10
92
11
53
110
75
43
76
99
49
115
129
69
88
113
82
9
35
4
78
95
80
54
63
98
13
47
15
14
106
24
108
74
34
81
44
57
39
90
87
30
77
71
107
118
114
28
16
29
58
60
12
25
36
86
61
37
26
6
119
17
127
111
103
2
100
97
7
21
65
41
52
89
125
109
94
3
68
19
64
55
42
27
31
51
56
102
67
126
73
79
112
121
8
93
20
62
45

>  <PUBCHEM_MMFF94_PARTIAL_CHARGES>  (1) 
24
1 -0.43
13 0.27
14 -0.15
16 -0.15
17 -0.15
18 -0.15
19 -0.15
2 -0.57
20 0.28
21 -0.15
22 0.27
23 0.27
24 -0.15
3 -0.81
4 0.2
40 0.15
41 0.15
42 0.15
43 0.15
44 0.15
47 0.15
54 0.15
7 -0.14
9 0.66

>  <PUBCHEM_EFFECTIVE_ROTOR_COUNT>  (1) 
10

>  <PUBCHEM_PHARMACOPHORE_FEATURES>  (1) 
7
1 2 acceptor
1 26 hydrophobe
1 3 cation
3 5 10 11 hydrophobe
4 4 5 6 8 hydrophobe
6 12 15 17 19 21 24 rings
6 7 12 14 15 16 18 rings

>  <PUBCHEM_HEAVY_ATOM_COUNT>  (1) 
26

>  <PUBCHEM_ATOM_DEF_STEREO_COUNT>  (1) 
0

>  <PUBCHEM_ATOM_UDEF_STEREO_COUNT>  (1) 
1

>  <PUBCHEM_BOND_DEF_STEREO_COUNT>  (1) 
0

>  <PUBCHEM_BOND_UDEF_STEREO_COUNT>  (1) 
0

>  <PUBCHEM_ISOTOPIC_ATOM_COUNT>  (1) 
0

>  <PUBCHEM_COMPONENT_COUNT>  (1) 
1

>  <PUBCHEM_CACTVS_TAUTO_COUNT>  (1) 
1

>  <PUBCHEM_CONFORMER_ID>  (1) 
0000652B00000001

>  <PUBCHEM_MMFF94_ENERGY>  (1) 
91.6318

>  <PUBCHEM_FEATURE_SELFOVERLAP>  (1) 
35.564

>  <PUBCHEM_SHAPE_FINGERPRINT>  (1) 
10006869 2 18120070824482410760
10906281 52 18263941950704392525
1100329 8 18338228392561661484
11582403 64 17392431810696063749
12788726 201 17541971709511743973
13134695 92 18335412431370976519
13583140 156 17972328574863212522
13911987 19 18335712649748712070
14787075 74 17894903014587128494
14840074 17 18343304790713621848
14955137 171 18338248132052239630
15219462 58 17828501171335509802
15295992 7 18041570229913630009
16945 1 18334002891845381671
17980427 23 18202570600539535075
20600515 1 17750250118069996660
21524375 3 17476386244473091317
23175994 123 18333737900705005896
23419403 2 18042134304979677689
23558518 356 17613720319423228060
23559900 14 17241612895708968127
238 59 18267871751828769005
3493558 16 16912248749921861776
7226269 152 17894906274652000336
81228 2 17613173879028953605

>  <PUBCHEM_SHAPE_MULTIPOLES>  (1) 
518.35
7.79
4.72
2.19
6.08
8.24
0.29
-0.68
2.39
3.16
-1.5
-1.2
-1.55
0.09

>  <PUBCHEM_SHAPE_SELFOVERLAP>  (1) 
1070.456

>  <PUBCHEM_SHAPE_VOLUME>  (1) 
299.3

>  <PUBCHEM_COORDINATE_TYPE>  (1) 
2
5
10

$$$$
