25906
     RDKit          3D

 23 26  0  0  0  0  0  0  0  0999 V2000
    3.2852   -1.4567    1.3312 S   0  0  0  0  0  0  0  0  0  0  0  0
   -0.8008    1.9935    1.1459 O   0  0  0  0  0  0  0  0  0  0  0  0
   -3.0072   -2.4141   -0.9203 O   0  0  0  0  0  0  0  0  0  0  0  0
   -0.5136   -0.2551    0.5293 C   0  0  0  0  0  0  0  0  0  0  0  0
   -1.0901   -1.4066   -0.0109 C   0  0  0  0  0  0  0  0  0  0  0  0
   -2.7175    0.9857    0.2366 C   0  0  0  0  0  0  0  0  0  0  0  0
   -3.2941   -0.1658   -0.3034 C   0  0  0  0  0  0  0  0  0  0  0  0
   -1.3061    0.9831    0.6726 C   0  0  0  0  0  0  0  0  0  0  0  0
   -2.5015   -1.4042   -0.4464 C   0  0  0  0  0  0  0  0  0  0  0  0
    0.8250   -0.2708    0.9395 C   0  0  0  0  0  0  0  0  0  0  0  0
   -0.3278   -2.5737   -0.1414 C   0  0  0  0  0  0  0  0  0  0  0  0
    1.5808   -1.4362    0.8080 C   0  0  0  0  0  0  0  0  0  0  0  0
   -3.4797    2.1528    0.3673 C   0  0  0  0  0  0  0  0  0  0  0  0
   -4.6328   -0.1502   -0.7129 C   0  0  0  0  0  0  0  0  0  0  0  0
    1.0057   -2.5851    0.2687 C   0  0  0  0  0  0  0  0  0  0  0  0
   -4.8136    2.1638   -0.0416 C   0  0  0  0  0  0  0  0  0  0  0  0
   -5.3888    1.0148   -0.5808 C   0  0  0  0  0  0  0  0  0  0  0  0
    3.9850   -0.1856    0.2885 C   0  0  0  0  0  0  0  0  0  0  0  0
    3.9301   -0.3177   -1.0970 C   0  0  0  0  0  0  0  0  0  0  0  0
    4.5822    0.9328    0.8648 C   0  0  0  0  0  0  0  0  0  0  0  0
    4.4763    0.6745   -1.9110 C   0  0  0  0  0  0  0  0  0  0  0  0
    5.1282    1.9250    0.0506 C   0  0  0  0  0  0  0  0  0  0  0  0
    5.0752    1.7958   -1.3374 C   0  0  0  0  0  0  0  0  0  0  0  0
  1 12  1  0
  1 18  1  0
  2  8  2  0
  3  9  2  0
  4  5  2  0
  4  8  1  0
  4 10  1  0
  5  9  1  0
  5 11  1  0
  6  7  2  0
  6  8  1  0
  6 13  1  0
  7  9  1  0
  7 14  1  0
 10 12  2  0
 11 15  2  0
 12 15  1  0
 13 16  2  0
 14 17  2  0
 16 17  1  0
 18 19  2  0
 18 20  1  0
 19 21  1  0
 20 22  2  0
 21 23  2  0
 22 23  1  0
M  END
>  <PUBCHEM_COMPOUND_CID>  (1) 
25906

>  <PUBCHEM_CONFORMER_RMSD>  (1) 
0.6

>  <PUBCHEM_CONFORMER_DIVERSEORDER>  (1) 
1
2
8
7
3
4
6
5

>  <PUBCHEM_MMFF94_PARTIAL_CHARGES>  (1) 
35
1 -0.2
10 -0.15
11 -0.15
12 0.1
13 -0.15
14 -0.15
15 -0.15
16 -0.15
17 -0.15
18 0.1
19 -0.15
2 -0.57
20 -0.15
21 -0.15
22 -0.15
23 -0.15
24 0.15
25 0.15
26 0.15
27 0.15
28 0.15
29 0.15
3 -0.57
30 0.15
31 0.15
32 0.15
33 0.15
34 0.15
35 0.15
4 0.09
5 0.09
6 0.09
7 0.09
8 0.4
9 0.4

>  <PUBCHEM_EFFECTIVE_ROTOR_COUNT>  (1) 
2

>  <PUBCHEM_PHARMACOPHORE_FEATURES>  (1) 
6
1 2 acceptor
1 3 acceptor
6 18 19 20 21 22 23 rings
6 4 5 10 11 12 15 rings
6 4 5 6 7 8 9 rings
6 6 7 13 14 16 17 rings

>  <PUBCHEM_HEAVY_ATOM_COUNT>  (1) 
23

>  <PUBCHEM_ATOM_DEF_STEREO_COUNT>  (1) 
0

>  <PUBCHEM_ATOM_UDEF_STEREO_COUNT>  (1) 
0

>  <PUBCHEM_BOND_DEF_STEREO_COUNT>  (1) 
0

>  <PUBCHEM_BOND_UDEF_STEREO_COUNT>  (1) 
0

>  <PUBCHEM_ISOTOPIC_ATOM_COUNT>  (1) 
0

>  <PUBCHEM_COMPONENT_COUNT>  (1) 
1

>  <PUBCHEM_CACTVS_TAUTO_COUNT>  (1) 
1

>  <PUBCHEM_CONFORMER_ID>  (1) 
0000653200000001

>  <PUBCHEM_MMFF94_ENERGY>  (1) 
68.012

>  <PUBCHEM_FEATURE_SELFOVERLAP>  (1) 
30.49

>  <PUBCHEM_SHAPE_FINGERPRINT>  (1) 
10411042 1 17547000188345071355
10498660 4 18343024410795075912
10670039 82 18336836295024765700
10759866 29 18336543815925234523
10906281 52 18200317607500368961
11640471 11 17968381255743505206
11796584 16 13182724923705732397
12236239 1 18187640297744197298
12390115 104 17845662439485220785
12422481 6 17023179362626933293
12616971 3 17968365776201355330
12633257 1 14273746204444020164
12788726 201 17988926621844404512
13383661 66 14761779906577931671
13617811 41 18337377302091043821
13782708 43 12175319402701731469
13828863 39 14203401701336290094
14251764 38 17533490128038631893
14528608 73 18410291397825995468
14739800 52 18268129033486842880
14767858 380 18340472453086957359
14790565 3 18199191681312591673
14840074 17 17822018604964111173
14848178 5 10663817438632914564
15342168 16 17749115499759325190
15475509 8 16916519064359037073
17959699 21 18335420136405291648
1979834 28 12540696981375946656
20511986 3 18261657243019914972
20567600 234 15791745117341417557
20715895 44 18046051671324925757
22079108 93 17022910046960814185
22950370 63 10375870788157816132
23227448 37 18410855498846353173
23366157 5 18048597010805400891
235170 7 17060066973127764524
23559900 14 17986951856523136510
245318 6 17604729887631628044
3004659 81 18340483358024966594
3472631 163 18410857667894625612
34797466 226 17418091061201805544
38570 142 17604450556444601086
394222 165 18187638051276316402
4340502 62 17095247982267610675
46194498 28 17129578205546472848
465052 167 10231745734484214949
474 4 17894352168283999098
5104073 3 18040151803430365226
56633871 153 8214150637679367720
6034566 193 17242756396333976084
633830 44 18113335289144305938
67856867 119 18263917761664827042
7237137 82 18339353167419239887
7970288 3 11383849138427561596
8509985 295 8790592723943308473
960060 61 15051734201013779784
9981440 41 18335420222853862202

>  <PUBCHEM_SHAPE_MULTIPOLES>  (1) 
465.44
12.19
2.81
1.26
2.41
0.6
0.23
-8.31
3.33
-0.34
0
1.34
-0.15
-1.55

>  <PUBCHEM_SHAPE_SELFOVERLAP>  (1) 
1034.713

>  <PUBCHEM_SHAPE_VOLUME>  (1) 
248.7

>  <PUBCHEM_COORDINATE_TYPE>  (1) 
2
5
10

$$$$
