25917
     RDKit          3D

  9  8  0  0  0  0  0  0  0  0999 V2000
   -0.9484   -0.6892    0.1992 O   0  0  0  0  0  0  0  0  0  0  0  0
    0.4382    1.0013    0.9343 O   0  0  0  0  0  0  0  0  0  0  0  0
    3.6998    0.2433   -0.1414 N   0  0  0  0  0  0  0  0  0  0  0  0
   -2.0972    0.1526    0.1823 C   0  0  0  0  0  0  0  0  0  0  0  0
   -1.9744    1.1443   -0.9644 C   0  0  0  0  0  0  0  0  0  0  0  0
   -3.3460   -0.7069    0.0569 C   0  0  0  0  0  0  0  0  0  0  0  0
    0.2561   -0.0509    0.3370 C   0  0  0  0  0  0  0  0  0  0  0  0
    1.3227   -0.8547   -0.3652 C   0  0  0  0  0  0  0  0  0  0  0  0
    2.6492   -0.2398   -0.2387 C   0  0  0  0  0  0  0  0  0  0  0  0
  1  4  1  0
  1  7  1  0
  2  7  2  0
  3  9  3  0
  4  5  1  0
  4  6  1  0
  7  8  1  0
  8  9  1  0
M  END
>  <PUBCHEM_COMPOUND_CID>  (1) 
25917

>  <PUBCHEM_CONFORMER_RMSD>  (1) 
0.6

>  <PUBCHEM_CONFORMER_DIVERSEORDER>  (1) 
2
21
14
1
7
22
8
13
3
9
4
19
20
23
11
16
15
17
5
6
12
10
18

>  <PUBCHEM_MMFF94_PARTIAL_CHARGES>  (1) 
7
1 -0.43
2 -0.57
3 -0.56
4 0.28
7 0.66
8 0.26
9 0.36

>  <PUBCHEM_EFFECTIVE_ROTOR_COUNT>  (1) 
3

>  <PUBCHEM_PHARMACOPHORE_FEATURES>  (1) 
3
1 2 acceptor
1 3 acceptor
3 4 5 6 hydrophobe

>  <PUBCHEM_HEAVY_ATOM_COUNT>  (1) 
9

>  <PUBCHEM_ATOM_DEF_STEREO_COUNT>  (1) 
0

>  <PUBCHEM_ATOM_UDEF_STEREO_COUNT>  (1) 
0

>  <PUBCHEM_BOND_DEF_STEREO_COUNT>  (1) 
0

>  <PUBCHEM_BOND_UDEF_STEREO_COUNT>  (1) 
0

>  <PUBCHEM_ISOTOPIC_ATOM_COUNT>  (1) 
0

>  <PUBCHEM_COMPONENT_COUNT>  (1) 
1

>  <PUBCHEM_CACTVS_TAUTO_COUNT>  (1) 
1

>  <PUBCHEM_CONFORMER_ID>  (1) 
0000653D00000002

>  <PUBCHEM_MMFF94_ENERGY>  (1) 
10.5185

>  <PUBCHEM_FEATURE_SELFOVERLAP>  (1) 
15.223

>  <PUBCHEM_SHAPE_FINGERPRINT>  (1) 
11062470 55 18272937124060805834
12897270 3 18201721713154128756
12932764 1 18272639151993554322
14325111 11 18187645769448025734
14390081 3 17895193268529551284
15310529 11 18334008359206776719
20653085 51 17459767929420131756
21293036 1 18202002148659115446
23235685 24 17060338517707595903
23402539 116 17676762154073096943
23552423 10 18124040018071522770
29004967 10 17775286036510241035
5460574 1 8718826478980405306

>  <PUBCHEM_SHAPE_MULTIPOLES>  (1) 
168.5
5.4
1.04
0.82
1.77
0.15
0.01
-0.28
-0.6
-0.46
-0.11
-0.08
0.16
0.33

>  <PUBCHEM_SHAPE_SELFOVERLAP>  (1) 
314.859

>  <PUBCHEM_SHAPE_VOLUME>  (1) 
103.3

>  <PUBCHEM_COORDINATE_TYPE>  (1) 
2
5
10

$$$$
