25914
     RDKit          3D

  7  6  0  0  0  0  0  0  0  0999 V2000
   -1.2392    0.3369   -0.0043 N   0  0  0  0  0  0  0  0  0  0  0  0
    1.2115    0.3716    0.0014 C   0  0  0  0  0  0  0  0  0  0  0  0
   -0.0443   -0.4984   -0.0107 C   0  0  0  0  0  0  0  0  0  0  0  0
    2.4776   -0.4858    0.0166 C   0  0  0  0  0  0  0  0  0  0  0  0
   -2.4442   -0.4805   -0.0055 C   0  0  0  0  0  0  0  0  0  0  0  0
    3.7324    0.3727   -0.0071 C   0  0  0  0  0  0  0  0  0  0  0  0
   -3.6938    0.3835    0.0096 C   0  0  0  0  0  0  0  0  0  0  0  0
  1  3  1  0
  1  5  1  0
  2  3  1  0
  2  4  1  0
  4  6  1  0
  5  7  1  0
M  END
>  <PUBCHEM_COMPOUND_CID>  (1) 
25914

>  <PUBCHEM_CONFORMER_RMSD>  (1) 
0.6

>  <PUBCHEM_CONFORMER_DIVERSEORDER>  (1) 
1
20
33
22
30
23
31
21
3
14
25
4
9
32
27
19
24
29
26
5
6
10
28
2
13
11
16
18
15
8
7
12
17

>  <PUBCHEM_MMFF94_PARTIAL_CHARGES>  (1) 
4
1 -0.9
14 0.36
3 0.27
5 0.27

>  <PUBCHEM_EFFECTIVE_ROTOR_COUNT>  (1) 
4

>  <PUBCHEM_PHARMACOPHORE_FEATURES>  (1) 
3
1 1 cation
1 1 donor
1 6 hydrophobe

>  <PUBCHEM_HEAVY_ATOM_COUNT>  (1) 
7

>  <PUBCHEM_ATOM_DEF_STEREO_COUNT>  (1) 
0

>  <PUBCHEM_ATOM_UDEF_STEREO_COUNT>  (1) 
0

>  <PUBCHEM_BOND_DEF_STEREO_COUNT>  (1) 
0

>  <PUBCHEM_BOND_UDEF_STEREO_COUNT>  (1) 
0

>  <PUBCHEM_ISOTOPIC_ATOM_COUNT>  (1) 
0

>  <PUBCHEM_COMPONENT_COUNT>  (1) 
1

>  <PUBCHEM_CACTVS_TAUTO_COUNT>  (1) 
1

>  <PUBCHEM_CONFORMER_ID>  (1) 
0000653A00000001

>  <PUBCHEM_MMFF94_ENERGY>  (1) 
-8.5049

>  <PUBCHEM_FEATURE_SELFOVERLAP>  (1) 
15.223

>  <PUBCHEM_SHAPE_FINGERPRINT>  (1) 
11062470 55 18410856563940057600
14325111 11 18410855464423310978
14390081 3 18413105056723981009
20719005 15 18410293618582342411
5460574 1 9295290542888119878

>  <PUBCHEM_SHAPE_MULTIPOLES>  (1) 
139.08
6.87
0.79
0.6
0.41
0.03
0
-0.89
0.01
-0.01
0
-0.02
0
-0.01

>  <PUBCHEM_SHAPE_SELFOVERLAP>  (1) 
235.452

>  <PUBCHEM_SHAPE_VOLUME>  (1) 
93.8

>  <PUBCHEM_COORDINATE_TYPE>  (1) 
2
5
10

$$$$
