25915
     RDKit          3D

  9  9  0  0  0  0  0  0  0  0999 V2000
   -0.3253   -1.2041   -0.1923 N   0  0  0  0  0  0  0  0  0  0  0  0
    1.1184    1.1939   -0.0139 N   0  0  0  0  0  0  0  0  0  0  0  0
   -2.3996    0.0179   -0.4947 C   0  0  0  0  0  0  0  0  0  0  0  0
   -0.9253   -0.0010   -0.2888 C   0  0  0  0  0  0  0  0  0  0  0  0
   -3.1723    0.0403    0.8227 C   0  0  0  0  0  0  0  0  0  0  0  0
   -0.2162    1.1768   -0.2013 C   0  0  0  0  0  0  0  0  0  0  0  0
    1.7184   -0.0090    0.0825 C   0  0  0  0  0  0  0  0  0  0  0  0
    1.0094   -1.1869   -0.0051 C   0  0  0  0  0  0  0  0  0  0  0  0
    3.1924   -0.0279    0.2908 C   0  0  0  0  0  0  0  0  0  0  0  0
  1  4  2  0
  1  8  1  0
  2  6  2  0
  2  7  1  0
  3  4  1  0
  3  5  1  0
  4  6  1  0
  7  8  2  0
  7  9  1  0
M  END
>  <PUBCHEM_COMPOUND_CID>  (1) 
25915

>  <PUBCHEM_CONFORMER_RMSD>  (1) 
0.4

>  <PUBCHEM_CONFORMER_DIVERSEORDER>  (1) 
1
2
3
4

>  <PUBCHEM_MMFF94_PARTIAL_CHARGES>  (1) 
10
1 -0.62
15 0.15
16 0.15
2 -0.62
3 0.14
4 0.17
6 0.16
7 0.17
8 0.16
9 0.14

>  <PUBCHEM_EFFECTIVE_ROTOR_COUNT>  (1) 
1

>  <PUBCHEM_PHARMACOPHORE_FEATURES>  (1) 
4
1 1 acceptor
1 2 acceptor
1 5 hydrophobe
6 1 2 4 6 7 8 rings

>  <PUBCHEM_HEAVY_ATOM_COUNT>  (1) 
9

>  <PUBCHEM_ATOM_DEF_STEREO_COUNT>  (1) 
0

>  <PUBCHEM_ATOM_UDEF_STEREO_COUNT>  (1) 
0

>  <PUBCHEM_BOND_DEF_STEREO_COUNT>  (1) 
0

>  <PUBCHEM_BOND_UDEF_STEREO_COUNT>  (1) 
0

>  <PUBCHEM_ISOTOPIC_ATOM_COUNT>  (1) 
0

>  <PUBCHEM_COMPONENT_COUNT>  (1) 
1

>  <PUBCHEM_CACTVS_TAUTO_COUNT>  (1) 
2

>  <PUBCHEM_CONFORMER_ID>  (1) 
0000653B00000001

>  <PUBCHEM_MMFF94_ENERGY>  (1) 
17.557

>  <PUBCHEM_FEATURE_SELFOVERLAP>  (1) 
20.301

>  <PUBCHEM_SHAPE_FINGERPRINT>  (1) 
10219947 1 18410012130419965069
10857977 72 18187361043207322513
14325111 11 18411697707515246925
15310529 11 16732975419074736804
16945 1 18410569587173511958
21040471 1 18267301117561462076
23235685 24 18412821395703738704
23402655 69 18123447425124347813
23552423 10 17972319512656576870
2748010 2 18050842226354197270
29004967 10 18260268525294681041
5084963 1 18270671077903883821

>  <PUBCHEM_SHAPE_MULTIPOLES>  (1) 
175.25
4.35
1.18
0.73
0.58
0
-0.05
-0.02
-0.96
-0.24
0.06
0.3
0
0.01

>  <PUBCHEM_SHAPE_SELFOVERLAP>  (1) 
352.96

>  <PUBCHEM_SHAPE_VOLUME>  (1) 
103.2

>  <PUBCHEM_COORDINATE_TYPE>  (1) 
2
5
10

$$$$
