25919
     RDKit          3D

  9  8  0  0  0  0  0  0  0  0999 V2000
    0.7214   -0.3866    0.1880 O   0  0  0  0  0  0  0  0  0  0  0  0
   -0.7383    1.3861   -0.0298 O   0  0  0  0  0  0  0  0  0  0  0  0
   -3.9908    0.0573   -0.1871 N   0  0  0  0  0  0  0  0  0  0  0  0
    1.8263    0.5232    0.1947 C   0  0  0  0  0  0  0  0  0  0  0  0
   -1.5583   -0.9012    0.0774 C   0  0  0  0  0  0  0  0  0  0  0  0
   -0.5135    0.1873    0.0688 C   0  0  0  0  0  0  0  0  0  0  0  0
    3.0906   -0.2585    0.3303 C   0  0  0  0  0  0  0  0  0  0  0  0
    4.0785   -0.2439   -0.5715 C   0  0  0  0  0  0  0  0  0  0  0  0
   -2.9159   -0.3637   -0.0707 C   0  0  0  0  0  0  0  0  0  0  0  0
  1  4  1  0
  1  6  1  0
  2  6  2  0
  3  9  3  0
  4  7  1  0
  5  6  1  0
  5  9  1  0
  7  8  2  0
M  END
>  <PUBCHEM_COMPOUND_CID>  (1) 
25919

>  <PUBCHEM_CONFORMER_RMSD>  (1) 
0.6

>  <PUBCHEM_CONFORMER_DIVERSEORDER>  (1) 
1
42
6
36
2
25
31
15
21
28
19
34
30
32
29
33
35
22
9
17
24
16
5
4
26
37
11
18
43
7
40
3
12
38
27
10
23
14
41
8
13
20
39

>  <PUBCHEM_MMFF94_PARTIAL_CHARGES>  (1) 
12
1 -0.43
14 0.15
15 0.15
16 0.15
2 -0.57
3 -0.56
4 0.42
5 0.26
6 0.66
7 -0.29
8 -0.3
9 0.36

>  <PUBCHEM_EFFECTIVE_ROTOR_COUNT>  (1) 
4

>  <PUBCHEM_PHARMACOPHORE_FEATURES>  (1) 
3
1 2 acceptor
1 3 acceptor
1 8 hydrophobe

>  <PUBCHEM_HEAVY_ATOM_COUNT>  (1) 
9

>  <PUBCHEM_ATOM_DEF_STEREO_COUNT>  (1) 
0

>  <PUBCHEM_ATOM_UDEF_STEREO_COUNT>  (1) 
0

>  <PUBCHEM_BOND_DEF_STEREO_COUNT>  (1) 
0

>  <PUBCHEM_BOND_UDEF_STEREO_COUNT>  (1) 
0

>  <PUBCHEM_ISOTOPIC_ATOM_COUNT>  (1) 
0

>  <PUBCHEM_COMPONENT_COUNT>  (1) 
1

>  <PUBCHEM_CACTVS_TAUTO_COUNT>  (1) 
1

>  <PUBCHEM_CONFORMER_ID>  (1) 
0000653F00000001

>  <PUBCHEM_MMFF94_ENERGY>  (1) 
5.3871

>  <PUBCHEM_FEATURE_SELFOVERLAP>  (1) 
15.223

>  <PUBCHEM_SHAPE_FINGERPRINT>  (1) 
11062470 55 16153707626264852646
12932764 1 16371272437275443363
14325111 11 18340204188727989642
20211469 26 17560804324765252259
20281407 28 18344148107125382170
20719005 15 18411136952712197931
21119208 17 18040156214709768166
21293036 1 16877664573753163478
22485316 2 17704348879444551398
23402539 116 14979954753780124105

>  <PUBCHEM_SHAPE_MULTIPOLES>  (1) 
168.5
7.11
0.93
0.65
1.04
0.15
-0.01
-0.91
-0.99
-0.18
0
0.22
-0.02
0.08

>  <PUBCHEM_SHAPE_SELFOVERLAP>  (1) 
315.098

>  <PUBCHEM_SHAPE_VOLUME>  (1) 
102.6

>  <PUBCHEM_COORDINATE_TYPE>  (1) 
2
5
10

$$$$
