25927
     RDKit          3D

 15 16  0  0  0  0  0  0  0  0999 V2000
    1.7767   -1.6212   -0.0078 N   0  0  0  0  0  0  0  0  0  0  0  0
   -3.8881   -0.1309   -0.0521 N   0  0  0  0  0  0  0  0  0  0  0  0
   -0.1584   -0.6419    0.4646 C   0  0  0  0  0  0  0  0  0  0  0  0
   -1.5792   -0.4388    0.8134 C   0  0  0  0  0  0  0  0  0  0  0  0
    0.8077    0.3748    0.2243 C   0  0  0  0  0  0  0  0  0  0  0  0
    2.0130   -0.2663   -0.0699 C   0  0  0  0  0  0  0  0  0  0  0  0
   -2.4953   -0.3604   -0.4215 C   0  0  0  0  0  0  0  0  0  0  0  0
    0.4674   -1.8580    0.3144 C   0  0  0  0  0  0  0  0  0  0  0  0
    0.7724    1.7835    0.2289 C   0  0  0  0  0  0  0  0  0  0  0  0
    3.1895    0.4335   -0.3607 C   0  0  0  0  0  0  0  0  0  0  0  0
    2.7581   -2.6576   -0.2473 C   0  0  0  0  0  0  0  0  0  0  0  0
    1.9415    2.4967   -0.0603 C   0  0  0  0  0  0  0  0  0  0  0  0
    3.1303    1.8300   -0.3503 C   0  0  0  0  0  0  0  0  0  0  0  0
   -4.7252   -0.0161   -1.2473 C   0  0  0  0  0  0  0  0  0  0  0  0
   -4.0104    1.0728    0.7716 C   0  0  0  0  0  0  0  0  0  0  0  0
  1  6  1  0
  1  8  1  0
  1 11  1  0
  2  7  1  0
  2 14  1  0
  2 15  1  0
  3  4  1  0
  3  5  1  0
  3  8  2  0
  4  7  1  0
  5  6  2  0
  5  9  1  0
  6 10  1  0
  9 12  2  0
 10 13  2  0
 12 13  1  0
M  END
>  <PUBCHEM_COMPOUND_CID>  (1) 
25927

>  <PUBCHEM_CONFORMER_RMSD>  (1) 
0.6

>  <PUBCHEM_CONFORMER_DIVERSEORDER>  (1) 
1
10
9
3
8
7
4
2
6
5

>  <PUBCHEM_MMFF94_PARTIAL_CHARGES>  (1) 
19
1 0.05
10 -0.15
11 0.26
12 -0.15
13 -0.15
14 0.27
15 0.27
2 -0.81
20 0.15
21 0.15
22 0.15
26 0.15
27 0.15
3 -0.18
4 0.18
6 -0.15
7 0.27
8 -0.3
9 -0.15

>  <PUBCHEM_EFFECTIVE_ROTOR_COUNT>  (1) 
3

>  <PUBCHEM_PHARMACOPHORE_FEATURES>  (1) 
4
1 1 cation
1 2 cation
5 1 3 5 6 8 rings
6 5 6 9 10 12 13 rings

>  <PUBCHEM_HEAVY_ATOM_COUNT>  (1) 
15

>  <PUBCHEM_ATOM_DEF_STEREO_COUNT>  (1) 
0

>  <PUBCHEM_ATOM_UDEF_STEREO_COUNT>  (1) 
0

>  <PUBCHEM_BOND_DEF_STEREO_COUNT>  (1) 
0

>  <PUBCHEM_BOND_UDEF_STEREO_COUNT>  (1) 
0

>  <PUBCHEM_ISOTOPIC_ATOM_COUNT>  (1) 
0

>  <PUBCHEM_COMPONENT_COUNT>  (1) 
1

>  <PUBCHEM_CACTVS_TAUTO_COUNT>  (1) 
1

>  <PUBCHEM_CONFORMER_ID>  (1) 
0000654700000001

>  <PUBCHEM_MMFF94_ENERGY>  (1) 
28.3249

>  <PUBCHEM_FEATURE_SELFOVERLAP>  (1) 
20.389

>  <PUBCHEM_SHAPE_FINGERPRINT>  (1) 
10608611 8 18261111906843126689
10980938 120 18410572894250967417
11031198 65 18335426802146964983
11265709 11 17975412421865386170
11471102 20 18409446994439083412
116883 192 17911244909908002068
11796584 16 14835862632998013893
12654215 9 18335140920892679996
12730499 353 18334581291175896955
13009979 54 17702391641320433923
13380535 76 18335701710255940618
13464514 151 18410023138579536680
14178000 15 18268144262828840066
14250199 8 18409727353220214797
14251717 144 18411133636696726191
14415576 193 18335704987184261509
14576447 43 18130496539776517943
14911166 2 18339091470708781396
15442244 35 18197222438411392281
16945 1 18339094764827313082
17134986 127 18192432094061832484
17539 30 17474387972605746798
18186145 218 17894635807971686651
19422 9 18202281377758450351
20606313 2 18408601461322876022
20645476 183 17988921214923599479
20645477 70 18410289186376955951
21499 59 18265894842189666509
21524375 3 18190173688276956162
21639500 275 18410566323183126197
22096605 113 18338796818466366889
221357 26 18264197038003384741
221490 88 18336836372012722211
22289505 5 18335972078674324301
2255824 54 18410572847064862683
231179 274 17749096820767343061
23402655 69 18413105070046862861
23419403 2 17607492823276921046
23557571 272 17385728036772292279
23598291 2 18130224848766819399
25 1 18336269032422720024
2748010 2 17978528747118665888
3060560 45 18413388761052553774
3071541 12 18410864265132950024
3071541 37 18334864934994761686
3082319 5 18060135453651928509
4072396 5 18335404782593443656
474 4 18263644120618786629
7364860 26 18412545396942348674
77492 1 17775292638249437195
81228 2 17619080434219054938
81539 233 18187927326139774446
84936 182 18130787922800052392

>  <PUBCHEM_SHAPE_MULTIPOLES>  (1) 
298.73
7.35
2.5
0.86
9.54
0.22
-0.07
-1.28
-1.79
-3.03
-0.02
0.7
-0.02
-0.26

>  <PUBCHEM_SHAPE_SELFOVERLAP>  (1) 
628.052

>  <PUBCHEM_SHAPE_VOLUME>  (1) 
172.7

>  <PUBCHEM_COORDINATE_TYPE>  (1) 
2
5
10

$$$$
