2592
     RDKit          3D

 13 14  0  0  1  0  0  0  0  0999 V2000
   -0.1105    2.4515    0.2765 O   0  0  0  0  0  0  0  0  0  0  0  0
    2.8243    1.3879    0.5259 O   0  0  0  0  0  0  0  0  0  0  0  0
   -2.7450    1.4008   -0.5205 O   0  0  0  0  0  0  0  0  0  0  0  0
   -3.1076   -1.2898    0.4617 O   0  0  0  0  0  0  0  0  0  0  0  0
    0.4913   -1.1434   -0.2927 N   0  0  0  0  0  0  0  0  0  0  0  0
    0.7357    0.2097    0.2061 C   0  0  0  0  0  0  0  0  0  0  0  0
   -0.3481    1.1643   -0.2884 C   0  0  0  0  0  0  0  0  0  0  0  0
    2.1409    0.4795   -0.3206 C   0  0  0  0  0  0  0  0  0  0  0  0
    1.6986   -1.8906    0.0376 C   0  0  0  0  0  0  0  0  0  0  0  0
   -0.7386   -1.6964    0.2538 C   0  0  0  0  0  0  0  0  0  0  0  0
   -1.7294    0.6552    0.1534 C   0  0  0  0  0  0  0  0  0  0  0  0
    2.8131   -0.8994   -0.3019 C   0  0  0  0  0  0  0  0  0  0  0  0
   -1.9247   -0.8293   -0.1909 C   0  0  0  0  0  0  0  0  0  0  0  0
  1  7  1  0
  2  8  1  0
  3 11  1  0
  4 13  1  0
  5  6  1  0
  5  9  1  0
  5 10  1  0
  6  7  1  0
  6  8  1  0
  7 11  1  0
  8 12  1  0
  9 12  1  0
 10 13  1  0
 11 13  1  0
M  END
>  <PUBCHEM_COMPOUND_CID>  (1) 
2592

>  <PUBCHEM_CONFORMER_RMSD>  (1) 
0.4

>  <PUBCHEM_CONFORMER_DIVERSEORDER>  (1) 
3
63
68
54
60
40
30
78
42
71
67
2
65
77
31
38
35
66
70
41
64
59
56
21
53
69
37
20
33
52
76
24
32
48
28
61
45
18
79
80
73
75
49
74
46
57
22
47
27
1
50
34
12
14
16
36
6
51
17
23
39
26
55
72
5
43
29
44
11
4
9
8
13
10
62
25
58
19
15
7

>  <PUBCHEM_MMFF94_PARTIAL_CHARGES>  (1) 
16
1 -0.68
10 0.27
11 0.28
13 0.28
2 -0.68
25 0.4
26 0.4
27 0.4
28 0.4
3 -0.68
4 -0.68
5 -0.81
6 0.27
7 0.28
8 0.28
9 0.27

>  <PUBCHEM_EFFECTIVE_ROTOR_COUNT>  (1) 
1.4

>  <PUBCHEM_PHARMACOPHORE_FEATURES>  (1) 
11
1 1 acceptor
1 1 donor
1 2 acceptor
1 2 donor
1 3 acceptor
1 3 donor
1 4 acceptor
1 4 donor
1 5 cation
5 5 6 8 9 12 rings
6 5 6 7 10 11 13 rings

>  <PUBCHEM_HEAVY_ATOM_COUNT>  (1) 
13

>  <PUBCHEM_ATOM_DEF_STEREO_COUNT>  (1) 
0

>  <PUBCHEM_ATOM_UDEF_STEREO_COUNT>  (1) 
5

>  <PUBCHEM_BOND_DEF_STEREO_COUNT>  (1) 
0

>  <PUBCHEM_BOND_UDEF_STEREO_COUNT>  (1) 
0

>  <PUBCHEM_ISOTOPIC_ATOM_COUNT>  (1) 
0

>  <PUBCHEM_COMPONENT_COUNT>  (1) 
1

>  <PUBCHEM_CACTVS_TAUTO_COUNT>  (1) 
1

>  <PUBCHEM_CONFORMER_ID>  (1) 
00000A2000000003

>  <PUBCHEM_MMFF94_ENERGY>  (1) 
26.6386

>  <PUBCHEM_FEATURE_SELFOVERLAP>  (1) 
55.91

>  <PUBCHEM_SHAPE_FINGERPRINT>  (1) 
10608611 8 18410289198760515916
12382932 28 18411415103004413656
12423570 1 10792348024416384105
12524768 44 18269843029483734495
12897270 3 18339362967980519676
13897977 150 18411413977802194093
14325111 11 18410011031013929828
15219456 202 18413386540517310618
15775835 57 18189343363814147238
161256 15 18341057371434113278
16945 1 18193557989362295855
17844478 74 18187940511747596923
193761 8 18050570642502754026
19973954 147 18339645529615715046
20201158 50 18268426845659284262
20588541 1 18192717958168026379
21501502 16 18410013199977818922
22802520 49 18128831754275141534
2334 1 18410293626950789407
23552423 10 18260554398328621198
23559900 14 18269559352307405854
241688 4 18337677420791883473
2748010 2 18411136930831069311
5084963 1 18343305851069351650
528886 8 18338793403677307155
53812653 166 18342453776749789577
66348 1 18266460897404293332
8809292 202 18262525775380069706

>  <PUBCHEM_SHAPE_MULTIPOLES>  (1) 
239.08
4.15
2.23
0.67
0.22
0.34
0.01
-0.26
0.03
0.09
-0.18
-0.01
0.02
0.38

>  <PUBCHEM_SHAPE_SELFOVERLAP>  (1) 
493.577

>  <PUBCHEM_SHAPE_VOLUME>  (1) 
139

>  <PUBCHEM_COORDINATE_TYPE>  (1) 
2
5
10

$$$$
