25920
     RDKit          3D

 12 11  0  0  0  0  0  0  0  0999 V2000
    1.0402   -0.4769   -0.0170 O   0  0  0  0  0  0  0  0  0  0  0  0
    2.4544    1.3453    0.0094 O   0  0  0  0  0  0  0  0  0  0  0  0
    5.7559    0.1333    0.0361 N   0  0  0  0  0  0  0  0  0  0  0  0
   -2.6084    0.4195   -0.0216 C   0  0  0  0  0  0  0  0  0  0  0  0
   -3.9114   -0.3847   -0.0011 C   0  0  0  0  0  0  0  0  0  0  0  0
   -1.3550   -0.4542   -0.0176 C   0  0  0  0  0  0  0  0  0  0  0  0
   -5.1658    0.4894   -0.0301 C   0  0  0  0  0  0  0  0  0  0  0  0
   -0.0866    0.3887   -0.0051 C   0  0  0  0  0  0  0  0  0  0  0  0
   -6.4297   -0.3519    0.0649 C   0  0  0  0  0  0  0  0  0  0  0  0
    2.2670    0.1362   -0.0079 C   0  0  0  0  0  0  0  0  0  0  0  0
    3.3477   -0.9168   -0.0212 C   0  0  0  0  0  0  0  0  0  0  0  0
    4.6916   -0.3281    0.0112 C   0  0  0  0  0  0  0  0  0  0  0  0
  1  8  1  0
  1 10  1  0
  2 10  2  0
  3 12  3  0
  4  5  1  0
  4  6  1  0
  5  7  1  0
  6  8  1  0
  7  9  1  0
 10 11  1  0
 11 12  1  0
M  END
>  <PUBCHEM_COMPOUND_CID>  (1) 
25920

>  <PUBCHEM_CONFORMER_RMSD>  (1) 
0.8

>  <PUBCHEM_CONFORMER_DIVERSEORDER>  (1) 
1
82
104
188
14
55
108
221
21
207
6
153
192
181
118
220
90
95
63
19
84
109
60
159
3
196
162
151
37
71
33
165
31
152
157
91
171
223
106
13
185
112
166
183
2
187
29
28
61
148
44
154
222
24
198
85
67
89
10
195
111
12
87
107
143
161
190
135
224
46
197
179
209
133
216
81
122
144
54
68
8
17
191
142
219
101
99
38
69
173
114
35
76
205
11
105
23
172
92
103
93
167
74
22
50
100
145
4
138
180
134
49
124
211
169
129
9
27
41
128
213
78
178
7
217
110
150
5
127
158
132
98
199
206
18
194
66
20
72
121
215
56
36
94
43
53
77
174
26
141
147
65
136
57
16
45
34
193
25
201
186
52
125
39
97
177
86
189
30
176
116
48
168
83
113
64
170
156
204
70
51
139
163
131
120
149
96
73
123
119
164
47
15
126
42
182
79
75
115
203
212
62
218
146
80
117
155
40
59
130
137
184
200
140
210
58
214
160
88
175
32
102
202
208

>  <PUBCHEM_MMFF94_PARTIAL_CHARGES>  (1) 
7
1 -0.43
10 0.66
11 0.26
12 0.36
2 -0.57
3 -0.56
8 0.28

>  <PUBCHEM_EFFECTIVE_ROTOR_COUNT>  (1) 
7

>  <PUBCHEM_PHARMACOPHORE_FEATURES>  (1) 
4
1 2 acceptor
1 3 acceptor
1 9 hydrophobe
4 4 5 6 7 hydrophobe

>  <PUBCHEM_HEAVY_ATOM_COUNT>  (1) 
12

>  <PUBCHEM_ATOM_DEF_STEREO_COUNT>  (1) 
0

>  <PUBCHEM_ATOM_UDEF_STEREO_COUNT>  (1) 
0

>  <PUBCHEM_BOND_DEF_STEREO_COUNT>  (1) 
0

>  <PUBCHEM_BOND_UDEF_STEREO_COUNT>  (1) 
0

>  <PUBCHEM_ISOTOPIC_ATOM_COUNT>  (1) 
0

>  <PUBCHEM_COMPONENT_COUNT>  (1) 
1

>  <PUBCHEM_CACTVS_TAUTO_COUNT>  (1) 
1

>  <PUBCHEM_CONFORMER_ID>  (1) 
0000654000000001

>  <PUBCHEM_MMFF94_ENERGY>  (1) 
2.6945

>  <PUBCHEM_FEATURE_SELFOVERLAP>  (1) 
20.297

>  <PUBCHEM_SHAPE_FINGERPRINT>  (1) 
12091667 2 18333732412670302627
12815109 37 18342175561721529298
13533116 47 14979684243364557206
14123238 8 18202282493853705350
1420 363 18113624491051466435
14251718 22 17967533471515691711
14251764 46 16415480445986391918
15242439 84 17967533480390443563
17834072 33 18412545443875700780
17834076 25 18410573985151477127
187816 3 15574715785515297133
20645477 70 18337108939469905870
20719005 15 18410293610192750959
23402539 116 17846211155536954837
23521765 1 18341895190345698343
366044 4 18333450941482703059
42788 4 18410575080373386373
8209 1 18410011035219167886

>  <PUBCHEM_SHAPE_MULTIPOLES>  (1) 
230.23
14.9
0.9
0.59
6.7
0.09
0
-0.93
-0.23
-0.28
0
0.07
-0.01
0.03

>  <PUBCHEM_SHAPE_SELFOVERLAP>  (1) 
423.941

>  <PUBCHEM_SHAPE_VOLUME>  (1) 
143.2

>  <PUBCHEM_COORDINATE_TYPE>  (1) 
2
5
10

$$$$
