25926
     RDKit          3D

 24 27  0  0  0  0  0  0  0  0999 V2000
   -0.0852    0.0039   -1.2680 N   0  0  0  0  0  0  0  0  0  0  0  0
    3.6236   -0.0048    0.6849 N   0  0  0  0  0  0  0  0  0  0  0  0
   -5.3595    0.0023    0.6441 N   0  0  0  0  0  0  0  0  0  0  0  0
    1.1725    0.0008   -0.6056 C   0  0  0  0  0  0  0  0  0  0  0  0
    1.7838   -1.2152   -0.2840 C   0  0  0  0  0  0  0  0  0  0  0  0
    1.7879    1.2141   -0.2815 C   0  0  0  0  0  0  0  0  0  0  0  0
    3.0264   -1.1705    0.3703 C   0  0  0  0  0  0  0  0  0  0  0  0
    3.0305    1.1637    0.3727 C   0  0  0  0  0  0  0  0  0  0  0  0
   -1.4023    0.0066   -0.7904 C   0  0  0  0  0  0  0  0  0  0  0  0
    1.1880   -2.4492   -0.5980 C   0  0  0  0  0  0  0  0  0  0  0  0
    1.1965    2.4508   -0.5928 C   0  0  0  0  0  0  0  0  0  0  0  0
   -4.0337    0.0046    0.1637 C   0  0  0  0  0  0  0  0  0  0  0  0
    3.6401   -2.3780    0.6932 C   0  0  0  0  0  0  0  0  0  0  0  0
    3.6484    2.3683    0.6982 C   0  0  0  0  0  0  0  0  0  0  0  0
   -2.4782    0.0103   -1.6851 C   0  0  0  0  0  0  0  0  0  0  0  0
   -1.6549    0.0018    0.5862 C   0  0  0  0  0  0  0  0  0  0  0  0
   -3.7896    0.0096   -1.2098 C   0  0  0  0  0  0  0  0  0  0  0  0
   -2.9662    0.0009    1.0617 C   0  0  0  0  0  0  0  0  0  0  0  0
    1.8223   -3.6421   -0.2644 C   0  0  0  0  0  0  0  0  0  0  0  0
    1.8349    3.6409   -0.2565 C   0  0  0  0  0  0  0  0  0  0  0  0
    3.0508   -3.6061    0.3825 C   0  0  0  0  0  0  0  0  0  0  0  0
    3.0634    3.5991    0.3904 C   0  0  0  0  0  0  0  0  0  0  0  0
   -5.6239   -0.0169    2.0692 C   0  0  0  0  0  0  0  0  0  0  0  0
   -6.4755    0.0050   -0.2808 C   0  0  0  0  0  0  0  0  0  0  0  0
  1  4  1  0
  1  9  1  0
  2  7  2  0
  2  8  1  0
  3 12  1  0
  3 23  1  0
  3 24  1  0
  4  5  2  0
  4  6  1  0
  5  7  1  0
  5 10  1  0
  6  8  2  0
  6 11  1  0
  7 13  1  0
  8 14  1  0
  9 15  2  0
  9 16  1  0
 10 19  2  0
 11 20  2  0
 12 17  2  0
 12 18  1  0
 13 21  2  0
 14 22  2  0
 15 17  1  0
 16 18  2  0
 19 21  1  0
 20 22  1  0
M  END
>  <PUBCHEM_COMPOUND_CID>  (1) 
25926

>  <PUBCHEM_CONFORMER_RMSD>  (1) 
0.6

>  <PUBCHEM_CONFORMER_DIVERSEORDER>  (1) 
1
2
3
4

>  <PUBCHEM_MMFF94_PARTIAL_CHARGES>  (1) 
35
1 -0.6
10 -0.15
11 -0.15
12 0.1
13 -0.15
14 -0.15
15 -0.15
16 -0.15
17 -0.15
18 -0.15
19 -0.15
2 -0.62
20 -0.15
21 -0.15
22 -0.15
23 0.37
24 0.37
25 0.4
26 0.15
27 0.15
28 0.15
29 0.15
3 -0.84
30 0.15
31 0.15
32 0.15
33 0.15
34 0.15
35 0.15
36 0.15
37 0.15
4 0.1
7 0.31
8 0.31
9 0.1

>  <PUBCHEM_EFFECTIVE_ROTOR_COUNT>  (1) 
3

>  <PUBCHEM_PHARMACOPHORE_FEATURES>  (1) 
8
1 1 cation
1 1 donor
1 2 acceptor
1 3 cation
6 2 4 5 6 7 8 rings
6 5 7 10 13 19 21 rings
6 6 8 11 14 20 22 rings
6 9 12 15 16 17 18 rings

>  <PUBCHEM_HEAVY_ATOM_COUNT>  (1) 
24

>  <PUBCHEM_ATOM_DEF_STEREO_COUNT>  (1) 
0

>  <PUBCHEM_ATOM_UDEF_STEREO_COUNT>  (1) 
0

>  <PUBCHEM_BOND_DEF_STEREO_COUNT>  (1) 
0

>  <PUBCHEM_BOND_UDEF_STEREO_COUNT>  (1) 
0

>  <PUBCHEM_ISOTOPIC_ATOM_COUNT>  (1) 
0

>  <PUBCHEM_COMPONENT_COUNT>  (1) 
1

>  <PUBCHEM_CACTVS_TAUTO_COUNT>  (1) 
2

>  <PUBCHEM_CONFORMER_ID>  (1) 
0000654600000001

>  <PUBCHEM_MMFF94_ENERGY>  (1) 
112.0382

>  <PUBCHEM_FEATURE_SELFOVERLAP>  (1) 
40.658

>  <PUBCHEM_SHAPE_FINGERPRINT>  (1) 
10165383 225 18189625002522316292
10411042 1 18122904223066724734
1100329 8 18268138929038471722
114674 6 18113620049491423555
11582403 64 15947028083496089180
11640471 11 17846500391039670669
12035758 1 18336250302903981050
12107183 9 17982176617657505057
12236239 1 17704351086783259453
12390115 104 17834116729601006820
12553582 1 18268422439471569534
12633257 1 18114731737440537346
12788726 201 17183050350591858474
13134695 92 18336256830710854230
13140716 1 18266454498314433424
13533116 47 18335989701288811491
13785724 45 17912093741775844935
13955234 65 18410576201391642563
14790565 3 18410012170077926092
14955137 171 18411143511491606710
15142526 21 17912357937809051561
15475509 84 18057606456069478041
15842332 3 17845639452361089495
16992787 43 18340217328177628222
17138139 8 17051578914733122263
17818456 19 17415289334297839097
17844677 252 18339927022426552501
1813 80 17985838029748050030
18785283 64 18334857251050316684
19377110 9 17988649653301028707
1979834 28 18187932840962724317
20157964 124 18411697708412097869
20511986 3 17631999940869730357
20715895 44 17627521428515971937
20739085 24 18200035023678589854
21049683 271 18261403213316522038
21065201 7 16515679997235014031
21197605 99 18119254115035145883
21344244 78 18130212766675617905
21421861 104 18201168654304895897
21756936 100 17769095984094944900
21859007 373 17459453487134430605
2255824 54 18341612633475163734
23557571 272 17168136815712542989
23559900 14 18409168813997837523
23845131 108 18120930869734013530
25147074 1 17845639461225402175
31174 14 18335419032572413974
3178227 256 18335423491523881848
341906 21 15913331252393329891
3421961 26 18336826394592105746
38570 142 18056778721714463316
474 4 18342174530829391841
5309563 4 18049720720104926991
57527573 199 17128715089119812160
633830 44 18058735847874019620
6443956 14 18264204703997313494
8272917 22 18412826901698987477
86090 222 17459494185891626203
8988823 20 18410011023020178759
9841814 1 18339372854842624663
9999458 23 18411141376692050188

>  <PUBCHEM_SHAPE_MULTIPOLES>  (1) 
478.97
10.77
4.1
1.28
20.34
0.02
0.1
-0.02
3.69
-8.39
0.17
1.54
0
0.02

>  <PUBCHEM_SHAPE_SELFOVERLAP>  (1) 
1068.623

>  <PUBCHEM_SHAPE_VOLUME>  (1) 
253.5

>  <PUBCHEM_COORDINATE_TYPE>  (1) 
2
5
10

$$$$
