25923
     RDKit          3D

 10 10  0  0  0  0  0  0  0  0999 V2000
   -3.4882   -0.1198   -0.1880 O   0  0  0  0  0  0  0  0  0  0  0  0
   -2.0074    0.5887    1.3720 O   0  0  0  0  0  0  0  0  0  0  0  0
    0.7866    0.0693    0.0642 C   0  0  0  0  0  0  0  0  0  0  0  0
   -0.0035   -1.2255   -0.2195 C   0  0  0  0  0  0  0  0  0  0  0  0
   -0.0358    0.7269   -1.0636 C   0  0  0  0  0  0  0  0  0  0  0  0
   -1.1260   -0.3268   -0.7788 C   0  0  0  0  0  0  0  0  0  0  0  0
    2.2770   -0.0204   -0.2011 C   0  0  0  0  0  0  0  0  0  0  0  0
   -2.2230    0.1058    0.2630 C   0  0  0  0  0  0  0  0  0  0  0  0
    2.8866   -1.1234    0.6588 C   0  0  0  0  0  0  0  0  0  0  0  0
    2.9337    1.3252    0.0930 C   0  0  0  0  0  0  0  0  0  0  0  0
  1  8  1  0
  2  8  2  0
  3  4  1  0
  3  5  1  0
  3  7  1  0
  4  6  1  0
  5  6  1  0
  6  8  1  0
  7  9  1  0
  7 10  1  0
M  END
>  <PUBCHEM_COMPOUND_CID>  (1) 
25923

>  <PUBCHEM_CONFORMER_RMSD>  (1) 
0.6

>  <PUBCHEM_CONFORMER_DIVERSEORDER>  (1) 
1
9
8
2
6
7
3
4
5

>  <PUBCHEM_MMFF94_PARTIAL_CHARGES>  (1) 
5
1 -0.65
2 -0.57
24 0.5
6 0.05
8 0.67

>  <PUBCHEM_EFFECTIVE_ROTOR_COUNT>  (1) 
2.8

>  <PUBCHEM_PHARMACOPHORE_FEATURES>  (1) 
5
1 1 acceptor
1 2 acceptor
3 1 2 8 anion
3 7 9 10 hydrophobe
4 3 4 5 6 rings

>  <PUBCHEM_HEAVY_ATOM_COUNT>  (1) 
10

>  <PUBCHEM_ATOM_DEF_STEREO_COUNT>  (1) 
0

>  <PUBCHEM_ATOM_UDEF_STEREO_COUNT>  (1) 
0

>  <PUBCHEM_BOND_DEF_STEREO_COUNT>  (1) 
0

>  <PUBCHEM_BOND_UDEF_STEREO_COUNT>  (1) 
0

>  <PUBCHEM_ISOTOPIC_ATOM_COUNT>  (1) 
0

>  <PUBCHEM_COMPONENT_COUNT>  (1) 
1

>  <PUBCHEM_CACTVS_TAUTO_COUNT>  (1) 
1

>  <PUBCHEM_CONFORMER_ID>  (1) 
0000654300000001

>  <PUBCHEM_MMFF94_ENERGY>  (1) 
16.2501

>  <PUBCHEM_FEATURE_SELFOVERLAP>  (1) 
25.431

>  <PUBCHEM_SHAPE_FINGERPRINT>  (1) 
10219947 1 18259705596868850303
10857977 72 16805323322668408620
11062470 55 17240199937204464837
12897270 3 10665234743549336962
12932764 1 18333165068385212550
13839132 238 16629142982666192001
14325111 11 18411698802858475535
14390081 3 15554447370751440099
15775835 57 18341613749860815728
16945 1 18342463586381097574
20201158 50 16443344256297849042
20653085 51 14764357058242610042
20711983 138 16660642899700718960
20711983 171 17561093474832963121
21028194 46 16128661816493754774
21040471 1 16559033770382085654
21293036 1 12247673885493359606
29004967 10 17240485818606695972
3248919 1 17846776304096900310
369184 2 18335976527853864342
5084963 1 18272926094458176150

>  <PUBCHEM_SHAPE_MULTIPOLES>  (1) 
194.06
4.87
1.18
0.99
0.53
0.06
0.11
-0.21
0.99
-0.89
0
0.36
-0.1
-0.19

>  <PUBCHEM_SHAPE_SELFOVERLAP>  (1) 
379.046

>  <PUBCHEM_SHAPE_VOLUME>  (1) 
117.8

>  <PUBCHEM_COORDINATE_TYPE>  (1) 
2
5
10

$$$$
