25934
     RDKit          3D

 29 30  0  0  0  0  0  0  0  0999 V2000
    4.6875   -1.1518    0.8234 S   0  0  0  0  0  0  0  0  0  0  0  0
   -4.6932   -1.1352   -0.8525 S   0  0  0  0  0  0  0  0  0  0  0  0
    4.0877   -1.9291   -0.2444 O   0  0  0  0  0  0  0  0  0  0  0  0
    4.8417   -1.7262    2.1461 O   0  0  0  0  0  0  0  0  0  0  0  0
   -4.0860   -1.9338    0.1951 O   0  0  0  0  0  0  0  0  0  0  0  0
   -4.8574   -1.6829   -2.1853 O   0  0  0  0  0  0  0  0  0  0  0  0
    0.0019    1.9686   -0.0005 N   0  0  0  0  0  0  0  0  0  0  0  0
    3.8782    0.3369    0.9602 N   0  0  0  0  0  0  0  0  0  0  0  0
   -3.8844    0.3558   -0.9653 N   0  0  0  0  0  0  0  0  0  0  0  0
    2.4472    2.0255   -0.1301 C   0  0  0  0  0  0  0  0  0  0  0  0
   -2.4449    2.0219    0.1482 C   0  0  0  0  0  0  0  0  0  0  0  0
    1.1989    1.1431   -0.0718 C   0  0  0  0  0  0  0  0  0  0  0  0
   -1.1973    1.1405    0.0631 C   0  0  0  0  0  0  0  0  0  0  0  0
    3.7330    1.2101   -0.2247 C   0  0  0  0  0  0  0  0  0  0  0  0
   -3.7302    1.2050    0.2357 C   0  0  0  0  0  0  0  0  0  0  0  0
    6.2950   -0.6441    0.2914 C   0  0  0  0  0  0  0  0  0  0  0  0
   -6.2966   -0.6378   -0.2987 C   0  0  0  0  0  0  0  0  0  0  0  0
    6.5560   -0.5361   -1.0636 C   0  0  0  0  0  0  0  0  0  0  0  0
   -6.5478   -0.5569    1.0601 C   0  0  0  0  0  0  0  0  0  0  0  0
    7.2627   -0.3637    1.2403 C   0  0  0  0  0  0  0  0  0  0  0  0
   -7.2712   -0.3382   -1.2348 C   0  0  0  0  0  0  0  0  0  0  0  0
    8.8123    0.1518   -0.5400 C   0  0  0  0  0  0  0  0  0  0  0  0
   -8.8075    0.1418    0.5668 C   0  0  0  0  0  0  0  0  0  0  0  0
    7.8247   -0.1351   -1.4826 C   0  0  0  0  0  0  0  0  0  0  0  0
   -7.8132   -0.1640    1.4961 C   0  0  0  0  0  0  0  0  0  0  0  0
    8.5313    0.0375    0.8212 C   0  0  0  0  0  0  0  0  0  0  0  0
   -8.5365    0.0548   -0.7986 C   0  0  0  0  0  0  0  0  0  0  0  0
   10.1686    0.5801   -0.9885 C   0  0  0  0  0  0  0  0  0  0  0  0
  -10.1605    0.5615    1.0336 C   0  0  0  0  0  0  0  0  0  0  0  0
  1  3  2  0
  1  4  2  0
  1  8  1  0
  1 16  1  0
  2  5  2  0
  2  6  2  0
  2  9  1  0
  2 17  1  0
  7 12  1  0
  7 13  1  0
  8 14  1  0
  9 15  1  0
 10 12  1  0
 10 14  1  0
 11 13  1  0
 11 15  1  0
 16 18  2  0
 16 20  1  0
 17 19  2  0
 17 21  1  0
 18 24  1  0
 19 25  1  0
 20 26  2  0
 21 27  2  0
 22 24  2  0
 22 26  1  0
 22 28  1  0
 23 25  2  0
 23 27  1  0
 23 29  1  0
M  END
>  <PUBCHEM_COMPOUND_CID>  (1) 
25934

>  <PUBCHEM_CONFORMER_RMSD>  (1) 
1.4

>  <PUBCHEM_CONFORMER_DIVERSEORDER>  (1) 
1
80
40
30
66
68
22
140
41
92
29
149
2
61
120
62
88
75
151
147
152
34
57
150
8
123
108
96
44
101
133
159
26
160
21
9
77
162
47
157
154
14
161
90
124
102
128
83
25
86
139
95
99
16
163
73
78
158
32
11
126
74
42
45
127
87
36
117
49
135
31
50
20
146
35
104
33
105
71
118
76
5
54
63
153
138
64
115
148
46
7
114
12
137
85
4
91
89
111
65
125
48
122
143
81
136
19
10
156
82
13
97
119
59
94
38
113
132
72
3
84
129
69
100
106
103
70
145
144
23
67
15
141
52
116
55
109
37
110
51
130
98
6
53
79
58
18
39
131
155
60
17
43
24
28
112
121
107
93
56
27
142
134

>  <PUBCHEM_MMFF94_PARTIAL_CHARGES>  (1) 
38
1 1.45
12 0.27
13 0.27
14 0.36
15 0.36
16 -0.01
17 -0.01
18 -0.15
19 -0.15
2 1.45
20 -0.15
21 -0.15
22 -0.14
23 -0.14
24 -0.15
25 -0.15
26 -0.15
27 -0.15
28 0.14
29 0.14
3 -0.65
4 -0.65
42 0.36
43 0.42
44 0.42
45 0.15
46 0.15
47 0.15
48 0.15
49 0.15
5 -0.65
50 0.15
51 0.15
52 0.15
6 -0.65
7 -0.9
8 -0.91
9 -0.91

>  <PUBCHEM_EFFECTIVE_ROTOR_COUNT>  (1) 
12

>  <PUBCHEM_PHARMACOPHORE_FEATURES>  (1) 
10
1 3 acceptor
1 4 acceptor
1 5 acceptor
1 6 acceptor
1 7 cation
1 7 donor
1 8 donor
1 9 donor
6 16 18 20 22 24 26 rings
6 17 19 21 23 25 27 rings

>  <PUBCHEM_HEAVY_ATOM_COUNT>  (1) 
29

>  <PUBCHEM_ATOM_DEF_STEREO_COUNT>  (1) 
0

>  <PUBCHEM_ATOM_UDEF_STEREO_COUNT>  (1) 
0

>  <PUBCHEM_BOND_DEF_STEREO_COUNT>  (1) 
0

>  <PUBCHEM_BOND_UDEF_STEREO_COUNT>  (1) 
0

>  <PUBCHEM_ISOTOPIC_ATOM_COUNT>  (1) 
0

>  <PUBCHEM_COMPONENT_COUNT>  (1) 
1

>  <PUBCHEM_CACTVS_TAUTO_COUNT>  (1) 
1

>  <PUBCHEM_CONFORMER_ID>  (1) 
0000654E00000001

>  <PUBCHEM_MMFF94_ENERGY>  (1) 
23.4324

>  <PUBCHEM_FEATURE_SELFOVERLAP>  (1) 
50.783

>  <PUBCHEM_SHAPE_FINGERPRINT>  (1) 
10674148 151 18410012143975209361
11476731 38 17967819353535205364
12013929 2 15698006210270263481
12082328 90 16878217581005020517
12144603 126 18410859862470010464
12522641 24 17846494881530852968
12539747 363 17918272060652738913
13673619 4 18410852165899711229
14251764 18 18409449172077173360
14251764 46 18411703187898843305
14257110 125 9367344842986968061
14344974 52 13623540085857430181
14428016 86 9079119963982217908
15183329 4 18334009497499723899
15301273 46 16271929311338373036
15419008 145 11959741443319456282
15684393 108 17749384845511222834
1818759 1 18410577287981379712
21150785 3 15719392836632920837
21591340 7 9079115544814330708
335507 130 18411419510173862804
439807 62 17967250884079161178
54039377 194 18260832618226328701
5470011 282 17167861959174881366
9962374 69 18342169020507716213

>  <PUBCHEM_SHAPE_MULTIPOLES>  (1) 
566.09
39.71
1.76
1.47
0.08
0.17
-0.01
-5.02
0.19
0.04
0.01
-0.07
-0.57
-1.67

>  <PUBCHEM_SHAPE_SELFOVERLAP>  (1) 
1132.537

>  <PUBCHEM_SHAPE_VOLUME>  (1) 
334

>  <PUBCHEM_COORDINATE_TYPE>  (1) 
2
5
10

$$$$
