25938
     RDKit          3D

 25 28  0  0  1  0  0  0  0  0999 V2000
    1.8140   -0.5718   -0.4386 O   0  0  0  0  0  0  0  0  0  0  0  0
    5.4284   -0.0858    0.1989 N   0  0  0  0  0  0  0  0  0  0  0  0
   -0.4776   -0.6492   -1.1092 C   0  0  0  0  0  0  0  0  0  0  0  0
   -0.9609   -0.3942    0.3571 C   0  0  0  0  0  0  0  0  0  0  0  0
   -2.7997    0.4154   -1.3514 C   0  0  0  0  0  0  0  0  0  0  0  0
   -1.5547   -0.1118   -2.1203 C   0  0  0  0  0  0  0  0  0  0  0  0
   -2.2794   -1.1585    0.4713 C   0  0  0  0  0  0  0  0  0  0  0  0
   -1.2913    1.0904    0.4749 C   0  0  0  0  0  0  0  0  0  0  0  0
   -3.2651   -0.7267   -0.4552 C   0  0  0  0  0  0  0  0  0  0  0  0
   -2.2790    1.5265   -0.4462 C   0  0  0  0  0  0  0  0  0  0  0  0
    0.9026   -0.0544   -1.3891 C   0  0  0  0  0  0  0  0  0  0  0  0
   -2.5497   -2.1825    1.3673 C   0  0  0  0  0  0  0  0  0  0  0  0
   -0.7241    1.9785    1.3772 C   0  0  0  0  0  0  0  0  0  0  0  0
   -4.5182   -1.3208   -0.4817 C   0  0  0  0  0  0  0  0  0  0  0  0
   -2.6946    2.8499   -0.4637 C   0  0  0  0  0  0  0  0  0  0  0  0
    4.0648   -0.6528    0.4111 C   0  0  0  0  0  0  0  0  0  0  0  0
    3.1284   -0.0615   -0.6352 C   0  0  0  0  0  0  0  0  0  0  0  0
   -3.8120   -2.7787    1.3364 C   0  0  0  0  0  0  0  0  0  0  0  0
   -1.1438    3.3101    1.3558 C   0  0  0  0  0  0  0  0  0  0  0  0
   -4.7866   -2.3523    0.4206 C   0  0  0  0  0  0  0  0  0  0  0  0
   -2.1196    3.7418    0.4439 C   0  0  0  0  0  0  0  0  0  0  0  0
    4.1593   -2.1667    0.3082 C   0  0  0  0  0  0  0  0  0  0  0  0
    5.3951    1.4432    0.2917 C   0  0  0  0  0  0  0  0  0  0  0  0
    6.4004   -0.6135    1.2593 C   0  0  0  0  0  0  0  0  0  0  0  0
    5.9631   -0.4747   -1.1832 C   0  0  0  0  0  0  0  0  0  0  0  0
  1 11  1  0
  1 17  1  0
  2 16  1  0
  2 23  1  0
  2 24  1  0
  2 25  1  0
  3  4  1  0
  3  6  1  0
  3 11  1  0
  4  7  1  0
  4  8  1  0
  5  6  1  0
  5  9  1  0
  5 10  1  0
  7  9  2  0
  7 12  1  0
  8 10  2  0
  8 13  1  0
  9 14  1  0
 10 15  1  0
 12 18  2  0
 13 19  2  0
 14 20  2  0
 15 21  2  0
 16 17  1  0
 16 22  1  0
 18 20  1  0
 19 21  1  0
M  CHG  1   2   1
M  END
>  <PUBCHEM_COMPOUND_CID>  (1) 
25938

>  <PUBCHEM_CONFORMER_RMSD>  (1) 
0.8

>  <PUBCHEM_CONFORMER_DIVERSEORDER>  (1) 
8
36
31
18
6
9
26
33
7
1
10
12
28
23
11
30
13
3
16
32
34
29
20
17
5
24
27
15
2
14
25
22
4
35
21
19

>  <PUBCHEM_MMFF94_PARTIAL_CHARGES>  (1) 
30
1 -0.56
10 -0.14
11 0.28
12 -0.15
13 -0.15
14 -0.15
15 -0.15
16 0.5
17 0.28
18 -0.15
19 -0.15
2 -1.01
20 -0.15
21 -0.15
23 0.5
24 0.5
25 0.5
33 0.15
34 0.15
35 0.15
36 0.15
4 0.29
40 0.15
41 0.15
42 0.15
43 0.15
5 0.29
7 -0.14
8 -0.14
9 -0.14

>  <PUBCHEM_EFFECTIVE_ROTOR_COUNT>  (1) 
5.4

>  <PUBCHEM_PHARMACOPHORE_FEATURES>  (1) 
5
1 1 acceptor
1 2 cation
6 7 9 12 14 18 20 rings
6 8 10 13 15 19 21 rings
8 3 4 5 6 7 8 9 10 rings

>  <PUBCHEM_HEAVY_ATOM_COUNT>  (1) 
25

>  <PUBCHEM_ATOM_DEF_STEREO_COUNT>  (1) 
0

>  <PUBCHEM_ATOM_UDEF_STEREO_COUNT>  (1) 
2

>  <PUBCHEM_BOND_DEF_STEREO_COUNT>  (1) 
0

>  <PUBCHEM_BOND_UDEF_STEREO_COUNT>  (1) 
0

>  <PUBCHEM_ISOTOPIC_ATOM_COUNT>  (1) 
0

>  <PUBCHEM_COMPONENT_COUNT>  (1) 
1

>  <PUBCHEM_CACTVS_TAUTO_COUNT>  (1) 
1

>  <PUBCHEM_CONFORMER_ID>  (1) 
0000655200000008

>  <PUBCHEM_MMFF94_ENERGY>  (1) 
107.3072

>  <PUBCHEM_FEATURE_SELFOVERLAP>  (1) 
25.394

>  <PUBCHEM_SHAPE_FINGERPRINT>  (1) 
10670039 82 18270697424114830796
11315181 36 18040715870845201598
11545043 162 18129956564009390486
11552529 35 18334573564377081786
11578080 2 16629142961523405235
12035758 1 18200051572889149905
12107183 9 17687740537643542858
12166972 35 18040998475388112732
12293681 160 18052516813240806285
12403814 3 17704070702897073087
12422481 6 17703805729079582665
12516196 113 18340772658094753219
12596602 18 18187356650104716280
12788726 201 18264508297887007847
12892183 10 18412822461415115934
12930653 34 18340493248717652774
13583140 156 18131060507742676626
13631057 29 18187365471445763954
14068700 675 18115309002441087790
14142880 1 18264204712656378917
14363568 33 17913484920332671504
14468879 13 17701818782645007733
14565420 104 17335075464400740913
14840074 17 17559678528270369380
15131766 46 16414057789498541248
15880784 105 17458338642235711866
17492 89 18341613664426161334
17844677 252 18342461431151332550
20101258 96 18272368698061479729
20600515 1 17914924116765641643
20681651 13 17677320624586417450
21033648 29 17631717302019634304
21304303 282 18118672224438946989
22956985 138 17471293328030144715
23419403 2 18192980746485811709
23557571 272 18342465811195204124
23559900 14 17969497289398241277
268830 7 14620788289630024290
283562 15 18335702724169299203
329604 57 18409729603888631576
376196 1 17123953833913879645
392239 28 18410859905751895954
463206 1 18045225096232001083
469060 322 18271262571988441424
497634 4 18113060424258862134
5104073 3 18340482250018324202
633830 44 13254789149547601086
7226269 152 18409165477282963029
7288768 16 17555753013940164609
81228 2 18053136993590501589
90127 26 18130787824838126286
9981440 41 17915451697199000799

>  <PUBCHEM_SHAPE_MULTIPOLES>  (1) 
503.64
12.32
3.51
1.53
24.38
2.7
-0.24
-6.13
1.43
-4.63
1.73
-0.33
-0.04
0.64

>  <PUBCHEM_SHAPE_SELFOVERLAP>  (1) 
1087.085

>  <PUBCHEM_SHAPE_VOLUME>  (1) 
280

>  <PUBCHEM_COORDINATE_TYPE>  (1) 
2
5
10

$$$$
