25936
     RDKit          3D

 18 19  0  0  0  0  0  0  0  0999 V2000
    4.9572    1.8412    0.6742 Cl  0  0  0  0  0  0  0  0  0  0  0  0
    5.7504   -1.2293    0.0285 Cl  0  0  0  0  0  0  0  0  0  0  0  0
   -0.7867   -0.4681    0.0788 O   0  0  0  0  0  0  0  0  0  0  0  0
   -0.3032    1.7088   -0.5339 O   0  0  0  0  0  0  0  0  0  0  0  0
   -6.0077    0.1393    0.0942 O   0  0  0  0  0  0  0  0  0  0  0  0
   -3.9149    1.0350   -0.2286 N   0  0  0  0  0  0  0  0  0  0  0  0
   -2.5621    0.9272   -0.2465 N   0  0  0  0  0  0  0  0  0  0  0  0
    1.4502    0.1411   -0.1678 C   0  0  0  0  0  0  0  0  0  0  0  0
    2.4412    1.0600    0.1776 C   0  0  0  0  0  0  0  0  0  0  0  0
    1.7927   -1.1817   -0.4483 C   0  0  0  0  0  0  0  0  0  0  0  0
    0.0598    0.5620   -0.2366 C   0  0  0  0  0  0  0  0  0  0  0  0
    3.7748    0.6560    0.2425 C   0  0  0  0  0  0  0  0  0  0  0  0
    3.1262   -1.5856   -0.3835 C   0  0  0  0  0  0  0  0  0  0  0  0
    4.1172   -0.6669   -0.0380 C   0  0  0  0  0  0  0  0  0  0  0  0
   -2.0893   -0.2320    0.0584 C   0  0  0  0  0  0  0  0  0  0  0  0
   -2.8478   -1.4307    0.4173 C   0  0  0  0  0  0  0  0  0  0  0  0
   -4.1731   -1.2904    0.4260 C   0  0  0  0  0  0  0  0  0  0  0  0
   -4.7849    0.0143    0.0858 C   0  0  0  0  0  0  0  0  0  0  0  0
  1 12  1  0
  2 14  1  0
  3 11  1  0
  3 15  1  0
  4 11  2  0
  5 18  2  0
  6  7  1  0
  6 18  1  0
  7 15  2  0
  8  9  2  0
  8 10  1  0
  8 11  1  0
  9 12  1  0
 10 13  2  0
 12 14  2  0
 13 14  1  0
 15 16  1  0
 16 17  2  0
 17 18  1  0
M  END
>  <PUBCHEM_COMPOUND_CID>  (1) 
25936

>  <PUBCHEM_CONFORMER_RMSD>  (1) 
0.6

>  <PUBCHEM_CONFORMER_DIVERSEORDER>  (1) 
1
77
23
75
40
88
106
81
20
60
25
58
57
78
17
76
52
87
21
67
59
18
61
38
70
7
10
74
64
96
51
105
71
3
80
86
100
19
8
29
82
26
63
79
15
50
30
68
36
34
2
92
103
27
94
39
97
4
83
9
37
101
6
43
95
53
5
102
35
99
54
47
16
42
33
56
91
55
48
41
85
24
69
90
49
62
13
66
84
14
31
104
44
72
46
28
65
32
12
22
98
11
45
89
93
73

>  <PUBCHEM_MMFF94_PARTIAL_CHARGES>  (1) 
24
1 -0.18
10 -0.15
11 0.63
12 0.18
13 -0.15
14 0.18
15 0.59
16 -0.14
17 -0.14
18 0.62
19 0.15
2 -0.18
20 0.15
21 0.15
22 0.15
23 0.15
24 0.37
3 -0.3
4 -0.57
5 -0.57
6 -0.37
7 -0.51
8 0.09
9 -0.15

>  <PUBCHEM_EFFECTIVE_ROTOR_COUNT>  (1) 
3

>  <PUBCHEM_PHARMACOPHORE_FEATURES>  (1) 
5
1 4 acceptor
1 5 acceptor
1 6 donor
6 6 7 15 16 17 18 rings
6 8 9 10 12 13 14 rings

>  <PUBCHEM_HEAVY_ATOM_COUNT>  (1) 
18

>  <PUBCHEM_ATOM_DEF_STEREO_COUNT>  (1) 
0

>  <PUBCHEM_ATOM_UDEF_STEREO_COUNT>  (1) 
0

>  <PUBCHEM_BOND_DEF_STEREO_COUNT>  (1) 
0

>  <PUBCHEM_BOND_UDEF_STEREO_COUNT>  (1) 
0

>  <PUBCHEM_ISOTOPIC_ATOM_COUNT>  (1) 
0

>  <PUBCHEM_COMPONENT_COUNT>  (1) 
1

>  <PUBCHEM_CACTVS_TAUTO_COUNT>  (1) 
2

>  <PUBCHEM_CONFORMER_ID>  (1) 
0000655000000001

>  <PUBCHEM_MMFF94_ENERGY>  (1) 
55.2486

>  <PUBCHEM_FEATURE_SELFOVERLAP>  (1) 
25.372

>  <PUBCHEM_SHAPE_FINGERPRINT>  (1) 
11045977 3 18410576214719727290
12107183 9 17622735214847953027
12236239 1 17275384313356142527
12403259 415 18333724698075959876
12507560 40 18411980260581678388
12616971 3 17703782626756056396
13533116 47 17775568606788267978
13675066 3 18334016120349564259
14251764 18 18272939345371261875
14341114 176 18411423929199195056
14386348 63 18334860515078002419
14790565 3 17617381023456605724
15196674 1 18410856594142264554
15375358 24 18408605880870915795
15475509 35 17386548182626984066
15788980 27 17749111097101277019
15880784 105 18130509720556635939
17834072 33 18131348630732467670
17844677 252 18412833464419967920
1813 80 17095242527131786388
18186145 218 15792015622628691404
19141452 34 18411702114816662295
200 152 17989203724554495371
20279233 1 18410863156941944175
20374829 77 18260830384178975914
20645477 70 18201721713001596542
21065198 57 18410856568234998954
21267235 1 18409175389223534742
22485316 2 18410574006758390283
22854114 59 18272651281239544296
23402539 116 18343858910340721005
23557571 272 17749390317325646468
23559900 14 18409445916550134656
239999 70 18413393125219555942
26918003 58 18343584035963950595
2871803 45 18261111842355625498
300161 21 18411694413570632515
3004659 81 18186803561211570434
33824 294 18410573972799825442
3545911 37 18410294709208565077
4073 2 18114186384316586138
42 15 18409169908860926951
4214541 1 18409730630037681357
5104073 3 18411139129907034136
5283173 99 18187920617380441517
5374978 207 18409162208459351576
542803 24 16774082877455887155
69090 78 18413669119448744719
77779 3 18411702088381797883
9709674 26 18262524821928978587
9971528 1 18113619001867101460

>  <PUBCHEM_SHAPE_MULTIPOLES>  (1) 
346.6
13.04
1.73
0.7
4.54
0.09
-0.02
-0.79
-1.56
-1.41
-0.04
-0.14
0.01
0.87

>  <PUBCHEM_SHAPE_SELFOVERLAP>  (1) 
733.026

>  <PUBCHEM_SHAPE_VOLUME>  (1) 
194.4

>  <PUBCHEM_COORDINATE_TYPE>  (1) 
2
5
10

$$$$
