25947
     RDKit          3D

 17 18  0  0  0  0  0  0  0  0999 V2000
    3.6993   -1.4495   -0.3458 O   0  0  0  0  0  0  0  0  0  0  0  0
   -2.2365    3.6363   -0.2566 N   0  0  0  0  0  0  0  0  0  0  0  0
    0.5137    1.1056    0.3978 C   0  0  0  0  0  0  0  0  0  0  0  0
    0.2740   -0.2368    0.0980 C   0  0  0  0  0  0  0  0  0  0  0  0
   -0.6079    2.0557    0.6714 C   0  0  0  0  0  0  0  0  0  0  0  0
   -1.0730   -0.7617    0.0401 C   0  0  0  0  0  0  0  0  0  0  0  0
    1.8215    1.5882    0.4476 C   0  0  0  0  0  0  0  0  0  0  0  0
   -1.1331    2.7629   -0.5841 C   0  0  0  0  0  0  0  0  0  0  0  0
    1.3468   -1.0947   -0.1517 C   0  0  0  0  0  0  0  0  0  0  0  0
    2.6545   -0.6120   -0.1020 C   0  0  0  0  0  0  0  0  0  0  0  0
    2.8918    0.7294    0.1978 C   0  0  0  0  0  0  0  0  0  0  0  0
   -1.6670   -1.2875    1.1874 C   0  0  0  0  0  0  0  0  0  0  0  0
   -1.7783   -0.7403   -1.1631 C   0  0  0  0  0  0  0  0  0  0  0  0
   -2.9663   -1.7916    1.1317 C   0  0  0  0  0  0  0  0  0  0  0  0
   -3.0777   -1.2445   -1.2188 C   0  0  0  0  0  0  0  0  0  0  0  0
   -3.6717   -1.7701   -0.0715 C   0  0  0  0  0  0  0  0  0  0  0  0
    5.0099   -0.8894   -0.2784 C   0  0  0  0  0  0  0  0  0  0  0  0
  1 10  1  0
  1 17  1  0
  2  8  1  0
  3  4  2  0
  3  5  1  0
  3  7  1  0
  4  6  1  0
  4  9  1  0
  5  8  1  0
  6 12  2  0
  6 13  1  0
  7 11  2  0
  9 10  2  0
 10 11  1  0
 12 14  1  0
 13 15  2  0
 14 16  2  0
 15 16  1  0
M  END
>  <PUBCHEM_COMPOUND_CID>  (1) 
25947

>  <PUBCHEM_CONFORMER_RMSD>  (1) 
0.6

>  <PUBCHEM_CONFORMER_DIVERSEORDER>  (1) 
2
4
3
1
5
6

>  <PUBCHEM_MMFF94_PARTIAL_CHARGES>  (1) 
25
1 -0.36
10 0.08
11 -0.15
12 -0.15
13 -0.15
14 -0.15
15 -0.15
16 -0.15
17 0.28
2 -0.99
20 0.15
23 0.15
24 0.15
25 0.15
26 0.15
27 0.15
28 0.15
29 0.36
3 -0.14
30 0.36
31 0.15
5 0.14
7 -0.15
8 0.27
9 -0.15

>  <PUBCHEM_EFFECTIVE_ROTOR_COUNT>  (1) 
4

>  <PUBCHEM_PHARMACOPHORE_FEATURES>  (1) 
5
1 1 acceptor
1 2 cation
1 2 donor
6 3 4 7 9 10 11 rings
6 6 12 13 14 15 16 rings

>  <PUBCHEM_HEAVY_ATOM_COUNT>  (1) 
17

>  <PUBCHEM_ATOM_DEF_STEREO_COUNT>  (1) 
0

>  <PUBCHEM_ATOM_UDEF_STEREO_COUNT>  (1) 
0

>  <PUBCHEM_BOND_DEF_STEREO_COUNT>  (1) 
0

>  <PUBCHEM_BOND_UDEF_STEREO_COUNT>  (1) 
0

>  <PUBCHEM_ISOTOPIC_ATOM_COUNT>  (1) 
0

>  <PUBCHEM_COMPONENT_COUNT>  (1) 
1

>  <PUBCHEM_CACTVS_TAUTO_COUNT>  (1) 
1

>  <PUBCHEM_CONFORMER_ID>  (1) 
0000655B00000002

>  <PUBCHEM_MMFF94_ENERGY>  (1) 
55.9108

>  <PUBCHEM_FEATURE_SELFOVERLAP>  (1) 
25.371

>  <PUBCHEM_SHAPE_FINGERPRINT>  (1) 
104564 63 18411136905151014149
1100329 8 17399510130804911867
11543360 7 16226052240531098582
11578080 2 17202457018627086617
116883 192 18411134736224405629
12236239 1 17274267282683873267
12532896 13 17975698281607469285
12553582 1 18343024415101190294
13583140 156 14261352410343892474
16752209 62 18338224977941549642
16945 1 18334005077809343818
17357779 13 18340194271664399204
1813 80 18199772360447438054
18186145 218 17822282526498951667
200 152 18131630118594567343
20361792 2 18271807981358982199
20602899 9 15911615953480866412
20645477 70 18341324612657544854
20711985 344 18335129852503450161
21041028 32 18337120063434695825
21501502 16 18411987948968906944
21524375 3 17760367686714512917
22182313 1 18201987829797657704
22802520 49 18411973672239048245
23175994 123 18262238931968266207
23402539 116 18342454854765702574
23419403 2 17417224611747841849
23526113 38 17825106171217065019
23558518 356 18187091650248376896
23559900 14 17895466012523733290
2748010 2 18340189890787415349
31174 14 17612601424766619379
5104073 3 18270393885901313074
53917941 68 18045203965092501268
559249 180 17976254639398521066
58779409 54 18340197471547020156
621550 5 17460045187213834643
68521 5 18409732841618615892
6992083 37 17845941856671436375
7364860 26 17615128119471828229
77492 1 17202213008623886731
81228 2 18335130995060196625
8809292 202 18408884001440946081

>  <PUBCHEM_SHAPE_MULTIPOLES>  (1) 
339
6.69
3.07
1.03
5.04
3.7
0
-4.74
-0.75
-1.92
-0.13
-0.78
-0.24
0.62

>  <PUBCHEM_SHAPE_SELFOVERLAP>  (1) 
722.479

>  <PUBCHEM_SHAPE_VOLUME>  (1) 
189.5

>  <PUBCHEM_COORDINATE_TYPE>  (1) 
2
5
10

$$$$
