25941
     RDKit          3D

 19 20  0  0  1  0  0  0  0  0999 V2000
   -1.3305   -0.7861    0.6732 O   0  0  0  0  0  0  0  0  0  0  0  0
   -1.1090    1.0598   -2.0252 O   0  0  0  0  0  0  0  0  0  0  0  0
   -3.4423   -1.5983    1.0450 O   0  0  0  0  0  0  0  0  0  0  0  0
   -0.3713    1.8197    0.0439 N   0  0  0  0  0  0  0  0  0  0  0  0
   -0.4658   -0.5960   -0.4607 C   0  0  0  0  0  0  0  0  0  0  0  0
   -1.0027   -1.5813   -1.4913 C   0  0  0  0  0  0  0  0  0  0  0  0
   -2.4796   -1.6597   -1.1738 C   0  0  0  0  0  0  0  0  0  0  0  0
   -0.6800    0.8310   -0.8911 C   0  0  0  0  0  0  0  0  0  0  0  0
    0.9940   -0.8078   -0.1068 C   0  0  0  0  0  0  0  0  0  0  0  0
   -2.5050   -1.3746    0.2949 C   0  0  0  0  0  0  0  0  0  0  0  0
    0.0899    3.1457   -0.3472 C   0  0  0  0  0  0  0  0  0  0  0  0
   -0.4880    1.5979    1.4830 C   0  0  0  0  0  0  0  0  0  0  0  0
    1.9892   -0.5971   -1.0664 C   0  0  0  0  0  0  0  0  0  0  0  0
    1.3548   -1.2147    1.1817 C   0  0  0  0  0  0  0  0  0  0  0  0
    1.6046    3.1901   -0.4559 C   0  0  0  0  0  0  0  0  0  0  0  0
   -1.8728    1.9695    1.9852 C   0  0  0  0  0  0  0  0  0  0  0  0
    3.3316   -0.7915   -0.7410 C   0  0  0  0  0  0  0  0  0  0  0  0
    2.6973   -1.4090    1.5069 C   0  0  0  0  0  0  0  0  0  0  0  0
    3.6856   -1.1974    0.5455 C   0  0  0  0  0  0  0  0  0  0  0  0
  1  5  1  0
  1 10  1  0
  2  8  2  0
  3 10  2  0
  4  8  1  0
  4 11  1  0
  4 12  1  0
  5  6  1  0
  5  8  1  0
  5  9  1  0
  6  7  1  0
  7 10  1  0
  9 13  2  0
  9 14  1  0
 11 15  1  0
 12 16  1  0
 13 17  1  0
 14 18  2  0
 17 19  2  0
 18 19  1  0
M  END
>  <PUBCHEM_COMPOUND_CID>  (1) 
25941

>  <PUBCHEM_CONFORMER_RMSD>  (1) 
0.8

>  <PUBCHEM_CONFORMER_DIVERSEORDER>  (1) 
1
12
8
11
5
7
6
4
14
13
2
9
3
10

>  <PUBCHEM_MMFF94_PARTIAL_CHARGES>  (1) 
21
1 -0.43
10 0.66
11 0.3
12 0.3
13 -0.15
14 -0.15
17 -0.15
18 -0.15
19 -0.15
2 -0.57
28 0.15
29 0.15
3 -0.57
36 0.15
37 0.15
38 0.15
4 -0.66
5 0.48
7 0.06
8 0.57
9 -0.14

>  <PUBCHEM_EFFECTIVE_ROTOR_COUNT>  (1) 
5.8

>  <PUBCHEM_PHARMACOPHORE_FEATURES>  (1) 
4
1 2 acceptor
1 3 acceptor
5 1 5 6 7 10 rings
6 9 13 14 17 18 19 rings

>  <PUBCHEM_HEAVY_ATOM_COUNT>  (1) 
19

>  <PUBCHEM_ATOM_DEF_STEREO_COUNT>  (1) 
0

>  <PUBCHEM_ATOM_UDEF_STEREO_COUNT>  (1) 
1

>  <PUBCHEM_BOND_DEF_STEREO_COUNT>  (1) 
0

>  <PUBCHEM_BOND_UDEF_STEREO_COUNT>  (1) 
0

>  <PUBCHEM_ISOTOPIC_ATOM_COUNT>  (1) 
0

>  <PUBCHEM_COMPONENT_COUNT>  (1) 
1

>  <PUBCHEM_CACTVS_TAUTO_COUNT>  (1) 
2

>  <PUBCHEM_CONFORMER_ID>  (1) 
0000655500000001

>  <PUBCHEM_MMFF94_ENERGY>  (1) 
52.4981

>  <PUBCHEM_FEATURE_SELFOVERLAP>  (1) 
20.298

>  <PUBCHEM_SHAPE_FINGERPRINT>  (1) 
10165383 225 17123985758653190768
10989021 7 18410298050962263604
11578080 2 17968087672737283197
133893 2 17761179482756673655
13538477 17 18043814178247341030
13681431 1 18197479934390289607
13764800 53 17916300528860407154
14142880 1 18199181793822758720
14181834 199 17338675638656655159
14817 1 8928485500892414111
15295992 7 16771539552574355562
15490181 8 17400627238860718134
15906896 17 17976246950805116039
16945 1 18047207253555097729
19868273 325 18411408493255518822
20361792 2 18340473564777053150
20600515 1 18125406857021828107
21524375 3 17188954740807089220
21731228 192 17402886722660831896
22112679 90 18338536156811618804
22344851 341 17614573965326670466
23419403 2 17767637898199828697
23557571 272 18201704168518984962
2748010 2 18195496334094363036
427121 178 17053897411457527905
81228 2 18270675346911627907

>  <PUBCHEM_SHAPE_MULTIPOLES>  (1) 
368.42
4.5
3.21
1.76
2.39
3.24
0.21
-3.06
1.02
-0.8
-0.17
-0.46
0.13
-0.87

>  <PUBCHEM_SHAPE_SELFOVERLAP>  (1) 
776.167

>  <PUBCHEM_SHAPE_VOLUME>  (1) 
207.9

>  <PUBCHEM_COORDINATE_TYPE>  (1) 
2
5
10

$$$$
