25940
     RDKit          3D

 15 16  0  0  1  0  0  0  0  0999 V2000
    0.7647   -1.1762    1.0001 O   0  0  0  0  0  0  0  0  0  0  0  0
    2.1061   -2.8131    0.1297 O   0  0  0  0  0  0  0  0  0  0  0  0
    3.3493    0.9960    0.2723 O   0  0  0  0  0  0  0  0  0  0  0  0
    1.9740    2.7729   -0.2230 N   0  0  0  0  0  0  0  0  0  0  0  0
    1.1625    0.5316   -0.5792 C   0  0  0  0  0  0  0  0  0  0  0  0
    0.3014    0.1280    0.6076 C   0  0  0  0  0  0  0  0  0  0  0  0
    1.7304   -0.7689   -1.1057 C   0  0  0  0  0  0  0  0  0  0  0  0
   -1.1788    0.1138    0.2899 C   0  0  0  0  0  0  0  0  0  0  0  0
    1.5891   -1.7088    0.0527 C   0  0  0  0  0  0  0  0  0  0  0  0
    2.2779    1.4347   -0.1387 C   0  0  0  0  0  0  0  0  0  0  0  0
   -1.9435    1.2651    0.4777 C   0  0  0  0  0  0  0  0  0  0  0  0
   -1.7780   -1.0507   -0.1903 C   0  0  0  0  0  0  0  0  0  0  0  0
   -3.3073    1.2519    0.1852 C   0  0  0  0  0  0  0  0  0  0  0  0
   -3.1417   -1.0639   -0.4830 C   0  0  0  0  0  0  0  0  0  0  0  0
   -3.9064    0.0874   -0.2953 C   0  0  0  0  0  0  0  0  0  0  0  0
  1  6  1  0
  1  9  1  0
  2  9  2  0
  3 10  2  0
  4 10  1  0
  5  6  1  0
  5  7  1  0
  5 10  1  0
  6  8  1  0
  7  9  1  0
  8 11  2  0
  8 12  1  0
 11 13  1  0
 12 14  2  0
 13 15  2  0
 14 15  1  0
M  END
>  <PUBCHEM_COMPOUND_CID>  (1) 
25940

>  <PUBCHEM_CONFORMER_RMSD>  (1) 
0.6

>  <PUBCHEM_CONFORMER_DIVERSEORDER>  (1) 
1
18
26
34
4
7
15
14
8
30
9
12
28
11
27
29
23
13
6
24
19
35
20
5
25
17
32
2
16
31
3
33
10
21
22

>  <PUBCHEM_MMFF94_PARTIAL_CHARGES>  (1) 
22
1 -0.43
10 0.57
11 -0.15
12 -0.15
13 -0.15
14 -0.15
15 -0.15
2 -0.57
20 0.15
21 0.15
22 0.15
23 0.15
24 0.37
25 0.37
26 0.15
3 -0.57
4 -0.8
5 0.06
6 0.42
7 0.06
8 -0.14
9 0.66

>  <PUBCHEM_EFFECTIVE_ROTOR_COUNT>  (1) 
2.8

>  <PUBCHEM_PHARMACOPHORE_FEATURES>  (1) 
5
1 2 acceptor
1 3 acceptor
1 4 donor
5 1 5 6 7 9 rings
6 8 11 12 13 14 15 rings

>  <PUBCHEM_HEAVY_ATOM_COUNT>  (1) 
15

>  <PUBCHEM_ATOM_DEF_STEREO_COUNT>  (1) 
0

>  <PUBCHEM_ATOM_UDEF_STEREO_COUNT>  (1) 
2

>  <PUBCHEM_BOND_DEF_STEREO_COUNT>  (1) 
0

>  <PUBCHEM_BOND_UDEF_STEREO_COUNT>  (1) 
0

>  <PUBCHEM_ISOTOPIC_ATOM_COUNT>  (1) 
0

>  <PUBCHEM_COMPONENT_COUNT>  (1) 
1

>  <PUBCHEM_CACTVS_TAUTO_COUNT>  (1) 
4

>  <PUBCHEM_CONFORMER_ID>  (1) 
0000655400000001

>  <PUBCHEM_MMFF94_ENERGY>  (1) 
31.7839

>  <PUBCHEM_FEATURE_SELFOVERLAP>  (1) 
25.371

>  <PUBCHEM_SHAPE_FINGERPRINT>  (1) 
10465860 71 17985846838425150774
10608611 8 18408884031901700413
11715629 250 18408319986742090309
12932764 1 18336277734348247701
13380535 76 18335136539640987914
15442244 35 18124316008480101817
15490181 8 18189064259785971482
15536298 74 18343019960892549878
15775835 57 18408891719835027541
15852999 172 17531523303668224027
16945 1 18337684090876087371
18186145 218 18340774736974507789
18619055 16 18342451518029235509
20559304 39 18411699842219442699
20645477 70 18342173333103345783
20671657 53 18127138476404004150
21501502 16 18271805692536701315
21524375 3 18190738837538781312
2255824 54 18409454656692621846
22854114 111 18409173199027389273
230 275 16877943828031354533
23402539 116 18196924681044682068
23419403 2 14135180139515382090
23552423 10 18411699876901083739
23559900 14 18342450405094895490
23598291 2 18057055609359483807
2748010 2 17903091253893979272
305870 269 18408885165682999414
353137 74 18271530904655421521
474 4 18262804093513762565
58051976 378 18341889744707085831
6992083 37 17694797224201983705
7364860 26 18412544275771307066
74978 22 18339081476151117295
7832392 63 18268155262134934297
81228 2 17400090669044730858
9709674 26 18410859875756079439
9939556 21 18342176601314591975

>  <PUBCHEM_SHAPE_MULTIPOLES>  (1) 
286.1
5.68
2.35
0.84
3.38
0.08
-0.04
-0.92
-0.51
-1.91
0.04
-0.12
0.1
-0.38

>  <PUBCHEM_SHAPE_SELFOVERLAP>  (1) 
614.42

>  <PUBCHEM_SHAPE_VOLUME>  (1) 
158.2

>  <PUBCHEM_COORDINATE_TYPE>  (1) 
2
5
10

$$$$
