2594
     RDKit          3D

 36 37  0  0  1  0  0  0  0  0999 V2000
   10.2288   -1.8907    0.0354 Cl  0  0  0  0  0  0  0  0  0  0  0  0
   -5.7650   -1.7922   -0.9941 O   0  0  0  0  0  0  0  0  0  0  0  0
   -1.8647   -0.5484   -1.1969 O   0  0  0  0  0  0  0  0  0  0  0  0
   -5.0818   -0.0056    0.2774 O   0  0  0  0  0  0  0  0  0  0  0  0
    1.7513   -0.9965    1.0541 O   0  0  0  0  0  0  0  0  0  0  0  0
    3.9452    0.0849   -0.0823 O   0  0  0  0  0  0  0  0  0  0  0  0
    4.7635    1.7825   -1.4098 O   0  0  0  0  0  0  0  0  0  0  0  0
   -3.7809   -1.9144    0.0562 N   0  0  0  0  0  0  0  0  0  0  0  0
   -0.6997   -0.1083    0.7615 N   0  0  0  0  0  0  0  0  0  0  0  0
    2.6799    0.6759   -0.2393 N   0  0  0  0  0  0  0  0  0  0  0  0
   -2.6705   -1.5088    0.8799 C   0  0  0  0  0  0  0  0  0  0  0  0
   -1.9637   -2.6947    1.5702 C   0  0  0  0  0  0  0  0  0  0  0  0
   -1.7141   -0.6905    0.0148 C   0  0  0  0  0  0  0  0  0  0  0  0
    0.3116    0.7466    0.1838 C   0  0  0  0  0  0  0  0  0  0  0  0
   -2.8978   -3.5102    2.4704 C   0  0  0  0  0  0  0  0  0  0  0  0
   -1.3000   -3.6146    0.5407 C   0  0  0  0  0  0  0  0  0  0  0  0
    0.2928    2.1333    0.8377 C   0  0  0  0  0  0  0  0  0  0  0  0
   -6.9704   -1.0914   -1.3205 C   0  0  0  0  0  0  0  0  0  0  0  0
   -4.8933   -1.1296   -0.1762 C   0  0  0  0  0  0  0  0  0  0  0  0
   -1.0375    2.8355    0.7149 C   0  0  0  0  0  0  0  0  0  0  0  0
    1.6445    0.0425    0.4055 C   0  0  0  0  0  0  0  0  0  0  0  0
   -6.5994    0.2081   -2.0337 C   0  0  0  0  0  0  0  0  0  0  0  0
   -7.7319   -0.8047   -0.0271 C   0  0  0  0  0  0  0  0  0  0  0  0
   -7.7923   -1.9928   -2.2391 C   0  0  0  0  0  0  0  0  0  0  0  0
   -1.2942    3.6563   -0.3831 C   0  0  0  0  0  0  0  0  0  0  0  0
   -2.0101    2.6638    1.6999 C   0  0  0  0  0  0  0  0  0  0  0  0
   -2.5236    4.3056   -0.4964 C   0  0  0  0  0  0  0  0  0  0  0  0
   -3.2396    3.3130    1.5866 C   0  0  0  0  0  0  0  0  0  0  0  0
   -3.4962    4.1340    0.4885 C   0  0  0  0  0  0  0  0  0  0  0  0
    4.9134    0.7672   -0.7477 C   0  0  0  0  0  0  0  0  0  0  0  0
    6.2291    0.1090   -0.5542 C   0  0  0  0  0  0  0  0  0  0  0  0
    7.3973    0.8712   -0.5592 C   0  0  0  0  0  0  0  0  0  0  0  0
    6.2977   -1.2714   -0.3670 C   0  0  0  0  0  0  0  0  0  0  0  0
    8.6343    0.2528   -0.3769 C   0  0  0  0  0  0  0  0  0  0  0  0
    7.5346   -1.8898   -0.1847 C   0  0  0  0  0  0  0  0  0  0  0  0
    8.7028   -1.1277   -0.1897 C   0  0  0  0  0  0  0  0  0  0  0  0
  1 36  1  0
  2 18  1  0
  2 19  1  0
  3 13  2  0
  4 19  2  0
  5 21  2  0
  6 10  1  0
  6 30  1  0
  7 30  2  0
  8 11  1  0
  8 19  1  0
  9 13  1  0
  9 14  1  0
 10 21  1  0
 11 12  1  0
 11 13  1  0
 12 15  1  0
 12 16  1  0
 14 17  1  0
 14 21  1  0
 17 20  1  0
 18 22  1  0
 18 23  1  0
 18 24  1  0
 20 25  2  0
 20 26  1  0
 25 27  1  0
 26 28  2  0
 27 29  2  0
 28 29  1  0
 30 31  1  0
 31 32  2  0
 31 33  1  0
 32 34  1  0
 33 35  2  0
 34 36  2  0
 35 36  1  0
M  END
>  <PUBCHEM_COMPOUND_CID>  (1) 
2594

>  <PUBCHEM_CONFORMER_RMSD>  (1) 
1.2

>  <PUBCHEM_CONFORMER_DIVERSEORDER>  (1) 
1
99
59
35
26
22
28
21
113
111
63
52
106
27
4
68
103
85
33
31
84
109
112
70
108
48
69
83
38
79
65
88
7
76
47
53
45
95
97
87
14
44
10
36
54
64
105
19
66
11
20
96
73
6
78
15
57
29
94
12
107
42
13
119
58
115
61
37
25
3
92
9
23
91
89
117
71
98
24
101
30
82
43
114
16
90
34
102
75
60
104
110
80
51
2
86
5
72
17
32
74
49
50
81
40
18
41
8
118
62
46
55
56
93
77
100
67
116
39

>  <PUBCHEM_MMFF94_PARTIAL_CHARGES>  (1) 
42
1 -0.18
10 -0.39
11 0.36
13 0.57
14 0.36
17 0.14
18 0.28
19 0.78
2 -0.43
20 -0.14
21 0.57
25 -0.15
26 -0.15
27 -0.15
28 -0.15
29 -0.15
3 -0.57
30 0.63
31 0.09
32 -0.15
33 -0.15
34 -0.15
35 -0.15
36 0.18
4 -0.57
46 0.37
47 0.37
5 -0.57
59 0.15
6 -0.19
60 0.15
61 0.37
62 0.15
63 0.15
64 0.15
65 0.15
66 0.15
67 0.15
68 0.15
7 -0.57
8 -0.73
9 -0.73

>  <PUBCHEM_EFFECTIVE_ROTOR_COUNT>  (1) 
15

>  <PUBCHEM_PHARMACOPHORE_FEATURES>  (1) 
11
1 10 donor
1 3 acceptor
1 4 acceptor
1 5 acceptor
1 7 acceptor
1 8 donor
1 9 donor
3 12 15 16 hydrophobe
4 18 22 23 24 hydrophobe
6 20 25 26 27 28 29 rings
6 31 32 33 34 35 36 rings

>  <PUBCHEM_HEAVY_ATOM_COUNT>  (1) 
36

>  <PUBCHEM_ATOM_DEF_STEREO_COUNT>  (1) 
0

>  <PUBCHEM_ATOM_UDEF_STEREO_COUNT>  (1) 
2

>  <PUBCHEM_BOND_DEF_STEREO_COUNT>  (1) 
0

>  <PUBCHEM_BOND_UDEF_STEREO_COUNT>  (1) 
0

>  <PUBCHEM_ISOTOPIC_ATOM_COUNT>  (1) 
0

>  <PUBCHEM_COMPONENT_COUNT>  (1) 
1

>  <PUBCHEM_CACTVS_TAUTO_COUNT>  (1) 
8

>  <PUBCHEM_CONFORMER_ID>  (1) 
00000A2200000001

>  <PUBCHEM_MMFF94_ENERGY>  (1) 
93.7863

>  <PUBCHEM_FEATURE_SELFOVERLAP>  (1) 
55.822

>  <PUBCHEM_SHAPE_FINGERPRINT>  (1) 
10165383 225 17821441371109888711
10190206 1 18334857182125254576
10483366 6 18408882945427637203
10670039 82 18411979131079035369
11297750 10 18201992265824375881
11672396 167 18337952274290877374
12498461 61 18339360744121481490
12645989 146 18200868608707307727
12758862 11 17968090979777464061
12788726 201 18410286995969489459
13631057 29 18342737399226193201
13726171 33 15214676237019913319
14068700 675 17703512177087443545
14279260 333 18341610387407916511
14931854 50 18334282185585049239
15064986 266 18410022022510648972
15276724 80 18342178907528245276
15461852 350 18343026554511660804
21236236 1 18340774758454846456
21792961 116 18113620097210544411
21792965 169 18261409866110015748
249057 3 17676205809979921670
4353968 344 18342455898880254966
5758199 1 11242241949147956471
5969126 39 18272930526991468173
6009941 240 17676208017456390410

>  <PUBCHEM_SHAPE_MULTIPOLES>  (1) 
692.57
26.41
4.85
1.61
53.73
3.71
0.09
-16.49
-12.48
-7.22
1.84
-3.23
-0.64
-1.66

>  <PUBCHEM_SHAPE_SELFOVERLAP>  (1) 
1428.46

>  <PUBCHEM_SHAPE_VOLUME>  (1) 
396.8

>  <PUBCHEM_COORDINATE_TYPE>  (1) 
2
5
10

$$$$
