25948
     RDKit          3D

 15 16  0  0  0  0  0  0  0  0999 V2000
    4.3831    0.1058    0.5522 N   0  0  0  0  0  0  0  0  0  0  0  0
    0.2003   -0.1079    0.2124 C   0  0  0  0  0  0  0  0  0  0  0  0
   -1.2404   -0.1796    0.1020 C   0  0  0  0  0  0  0  0  0  0  0  0
   -1.9980    0.9497   -0.2143 C   0  0  0  0  0  0  0  0  0  0  0  0
    2.3872   -0.2632   -0.8028 C   0  0  0  0  0  0  0  0  0  0  0  0
    0.9981   -0.3328   -0.9095 C   0  0  0  0  0  0  0  0  0  0  0  0
    0.7915    0.1865    1.4409 C   0  0  0  0  0  0  0  0  0  0  0  0
    2.9784    0.0313    0.4257 C   0  0  0  0  0  0  0  0  0  0  0  0
   -1.8760   -1.4040    0.3170 C   0  0  0  0  0  0  0  0  0  0  0  0
    2.1806    0.2563    1.5475 C   0  0  0  0  0  0  0  0  0  0  0  0
   -3.3860    0.8549   -0.3151 C   0  0  0  0  0  0  0  0  0  0  0  0
   -1.3548    2.2783   -0.4523 C   0  0  0  0  0  0  0  0  0  0  0  0
    3.2187   -0.5078   -2.0202 C   0  0  0  0  0  0  0  0  0  0  0  0
   -3.2640   -1.4986    0.2164 C   0  0  0  0  0  0  0  0  0  0  0  0
   -4.0190   -0.3692   -0.0998 C   0  0  0  0  0  0  0  0  0  0  0  0
  1  8  1  0
  2  3  1  0
  2  6  1  0
  2  7  2  0
  3  4  2  0
  3  9  1  0
  4 11  1  0
  4 12  1  0
  5  6  2  0
  5  8  1  0
  5 13  1  0
  7 10  1  0
  8 10  2  0
  9 14  2  0
 11 15  2  0
 14 15  1  0
M  END
>  <PUBCHEM_COMPOUND_CID>  (1) 
25948

>  <PUBCHEM_CONFORMER_RMSD>  (1) 
0.4

>  <PUBCHEM_CONFORMER_DIVERSEORDER>  (1) 
2
1

>  <PUBCHEM_MMFF94_PARTIAL_CHARGES>  (1) 
22
1 -0.9
10 -0.15
11 -0.15
12 0.14
13 0.14
14 -0.15
15 -0.15
16 0.15
17 0.15
18 0.15
19 0.15
20 0.15
27 0.15
28 0.15
29 0.4
30 0.4
4 -0.14
5 -0.14
6 -0.15
7 -0.15
8 0.1
9 -0.15

>  <PUBCHEM_EFFECTIVE_ROTOR_COUNT>  (1) 
1

>  <PUBCHEM_PHARMACOPHORE_FEATURES>  (1) 
4
1 1 cation
1 1 donor
6 2 5 6 7 8 10 rings
6 3 4 9 11 14 15 rings

>  <PUBCHEM_HEAVY_ATOM_COUNT>  (1) 
15

>  <PUBCHEM_ATOM_DEF_STEREO_COUNT>  (1) 
0

>  <PUBCHEM_ATOM_UDEF_STEREO_COUNT>  (1) 
0

>  <PUBCHEM_BOND_DEF_STEREO_COUNT>  (1) 
0

>  <PUBCHEM_BOND_UDEF_STEREO_COUNT>  (1) 
0

>  <PUBCHEM_ISOTOPIC_ATOM_COUNT>  (1) 
0

>  <PUBCHEM_COMPONENT_COUNT>  (1) 
1

>  <PUBCHEM_CACTVS_TAUTO_COUNT>  (1) 
1

>  <PUBCHEM_CONFORMER_ID>  (1) 
0000655C00000002

>  <PUBCHEM_MMFF94_ENERGY>  (1) 
59.3016

>  <PUBCHEM_FEATURE_SELFOVERLAP>  (1) 
20.297

>  <PUBCHEM_SHAPE_FINGERPRINT>  (1) 
10465860 71 18334590060987276293
11471102 20 16630526237102769850
12236239 1 17240479204383381923
13296908 3 17561369448046049958
13538477 17 17748825232810447203
13581323 91 18260539017966214866
15219456 202 17847062168414019255
15653759 3 18343579650807434242
15775835 57 16588033415197389967
16752209 62 18114451298009847895
16945 1 18334860489497979285
17844478 74 17917713500118073393
18175812 5 18060132189086438849
18186145 218 18059583433773090519
19049666 15 17916307125808743747
19422 9 17168145649996235107
200 152 16153420662552020379
20201158 50 17704072893161777226
20279233 1 18060419122761081887
204376 136 16342558721882393218
20510252 161 18339920420666413825
20645476 183 17312819399001666899
20645477 70 16558469673535298652
22094290 60 18409452470411583476
22112679 90 17821730515816658149
22802520 49 17986116209983379037
228727 97 17603596235086866357
23048698 100 16370729227018042942
23402539 116 18336815451136644607
23557571 272 18341896281637065928
23559900 14 18340769239479685542
2748010 2 18192422194415292593
474 4 16371862918502275052
57096353 35 17313390075268827343
6049 1 17988929950433274832
7364860 26 18052820544310562425
77492 1 17240481403353863939
81228 2 18337400344315786713
8272917 22 15410350874927060087
9981440 41 16521900200865392108

>  <PUBCHEM_SHAPE_MULTIPOLES>  (1) 
303.71
7.05
1.41
1.36
0.76
0.48
-0.14
-0.88
-0.64
-1.46
-0.14
1.59
-0.07
0.6

>  <PUBCHEM_SHAPE_SELFOVERLAP>  (1) 
657.132

>  <PUBCHEM_SHAPE_VOLUME>  (1) 
167.5

>  <PUBCHEM_COORDINATE_TYPE>  (1) 
2
5
10

$$$$
