25954
     RDKit          3D

 16 17  0  0  0  0  0  0  0  0999 V2000
    0.1136   -0.1936    0.0734 S   0  0  0  0  0  0  0  0  0  0  0  0
   -1.1984    1.9424   -0.7162 O   0  0  0  0  0  0  0  0  0  0  0  0
    2.8042    0.3500   -0.1177 C   0  0  0  0  0  0  0  0  0  0  0  0
    1.4451    0.9487   -0.3543 C   0  0  0  0  0  0  0  0  0  0  0  0
   -2.6368    0.1887   -0.0890 C   0  0  0  0  0  0  0  0  0  0  0  0
    3.4301   -0.3532   -1.1386 C   0  0  0  0  0  0  0  0  0  0  0  0
    3.4166    0.5074    1.1186 C   0  0  0  0  0  0  0  0  0  0  0  0
   -1.3253    0.7784   -0.3062 C   0  0  0  0  0  0  0  0  0  0  0  0
    4.6907   -0.9086   -0.9194 C   0  0  0  0  0  0  0  0  0  0  0  0
    4.6772   -0.0481    1.3379 C   0  0  0  0  0  0  0  0  0  0  0  0
   -3.7143    0.9962    0.2750 C   0  0  0  0  0  0  0  0  0  0  0  0
   -2.8172   -1.1855   -0.2466 C   0  0  0  0  0  0  0  0  0  0  0  0
    5.3143   -0.7560    0.3189 C   0  0  0  0  0  0  0  0  0  0  0  0
   -4.9721    0.4297    0.4811 C   0  0  0  0  0  0  0  0  0  0  0  0
   -4.0751   -1.7520   -0.0404 C   0  0  0  0  0  0  0  0  0  0  0  0
   -5.1526   -0.9445    0.3235 C   0  0  0  0  0  0  0  0  0  0  0  0
  1  4  1  0
  1  8  1  0
  2  8  2  0
  3  4  1  0
  3  6  2  0
  3  7  1  0
  5  8  1  0
  5 11  2  0
  5 12  1  0
  6  9  1  0
  7 10  2  0
  9 13  2  0
 10 13  1  0
 11 14  1  0
 12 15  2  0
 14 16  2  0
 15 16  1  0
M  END
>  <PUBCHEM_COMPOUND_CID>  (1) 
25954

>  <PUBCHEM_CONFORMER_RMSD>  (1) 
0.6

>  <PUBCHEM_CONFORMER_DIVERSEORDER>  (1) 
1
15
27
10
3
45
18
5
13
11
2
6
37
21
7
26
38
35
4
30
29
28
47
36
14
16
46
24
8
22
33
12
23
39
34
32
31
41
9
25
40
44
17
20
19
42
43

>  <PUBCHEM_MMFF94_PARTIAL_CHARGES>  (1) 
26
1 -0.37
10 -0.15
11 -0.15
12 -0.15
13 -0.15
14 -0.15
15 -0.15
16 -0.15
19 0.15
2 -0.57
20 0.15
21 0.15
22 0.15
23 0.15
24 0.15
25 0.15
26 0.15
27 0.15
28 0.15
3 -0.14
4 0.37
5 0.09
6 -0.15
7 -0.15
8 0.62
9 -0.15

>  <PUBCHEM_EFFECTIVE_ROTOR_COUNT>  (1) 
4

>  <PUBCHEM_PHARMACOPHORE_FEATURES>  (1) 
2
6 3 6 7 9 10 13 rings
6 5 11 12 14 15 16 rings

>  <PUBCHEM_HEAVY_ATOM_COUNT>  (1) 
16

>  <PUBCHEM_ATOM_DEF_STEREO_COUNT>  (1) 
0

>  <PUBCHEM_ATOM_UDEF_STEREO_COUNT>  (1) 
0

>  <PUBCHEM_BOND_DEF_STEREO_COUNT>  (1) 
0

>  <PUBCHEM_BOND_UDEF_STEREO_COUNT>  (1) 
0

>  <PUBCHEM_ISOTOPIC_ATOM_COUNT>  (1) 
0

>  <PUBCHEM_COMPONENT_COUNT>  (1) 
1

>  <PUBCHEM_CACTVS_TAUTO_COUNT>  (1) 
1

>  <PUBCHEM_CONFORMER_ID>  (1) 
0000656200000001

>  <PUBCHEM_MMFF94_ENERGY>  (1) 
43.0238

>  <PUBCHEM_FEATURE_SELFOVERLAP>  (1) 
10.149

>  <PUBCHEM_SHAPE_FINGERPRINT>  (1) 
10014705 185 10087649186925197859
10670039 82 11023560133055377354
11046707 91 18260547835855911253
11128504 68 17167869681415225542
12236239 1 17385726884966839044
13167823 11 18259984885559611634
13288520 33 18334577936405232733
13533116 47 16702031833101070422
13668630 136 16370728119022352842
13675066 3 17775003492076143684
13760787 5 16877946048466195109
13862211 1 18260264170398621339
1420 369 18260828206730699210
14251752 14 17095794452642494021
14252887 29 17418100893004009846
14341114 176 17704356580442180632
14386348 63 18202567263365783302
14528608 73 8142082052829899138
15188451 53 18200583808982979759
15348495 7 17775563182160060691
15880784 105 17703791465519670051
17834072 33 18040158431176689172
17844677 252 18343026592259161000
1813 80 17821452360796764277
18222031 100 18187081784386439373
18785283 64 17772737506481878992
19141452 34 18131069368086219727
19489759 90 17989205928584913865
20374829 77 18334293180194820687
204376 136 14620797110875542525
20645477 70 14056993889666419048
21267235 1 18334304192897415923
212847 35 10519992552129185318
22646028 1 17821727234598507876
2297311 6 18340496590307411748
23402539 116 17967810535539981525
23402655 69 12973883706637471350
23557571 272 18341902831135119188
23559900 14 18272651272459965504
239999 70 18130792257276245118
26918003 58 17632857516725478514
2767999 5 11887955432325654987
29717793 49 16660360342925161774
3004659 81 18113904866279120724
314173 85 18410291415238031821
351380 3 17821728333899275722
42 15 18202003226606216460
4214541 1 18341897368237275193
465052 167 17895203219916281930
49783359 22 18131347531532316711
5104073 3 18267875046079235033
522135 26 15502374526478495480
542803 24 14418131807581168495
559249 180 18260543399397333019
5924683 9 17131260394055327967

>  <PUBCHEM_SHAPE_MULTIPOLES>  (1) 
327.25
13.5
1.42
1.02
1.48
0.05
-0.08
3.84
-2.33
-1.18
0.17
1.16
-0.04
0.45

>  <PUBCHEM_SHAPE_SELFOVERLAP>  (1) 
683.068

>  <PUBCHEM_SHAPE_VOLUME>  (1) 
185.5

>  <PUBCHEM_COORDINATE_TYPE>  (1) 
2
5
10

$$$$
