25952
     RDKit          3D

 16 16  0  0  0  0  0  0  0  0999 V2000
    1.0461    1.7842   -0.1819 P   0  0  0  0  0  0  0  0  0  0  0  0
    1.7862   -1.0473    0.1812 P   0  0  0  0  0  0  0  0  0  0  0  0
   -1.7858    1.0426    0.1869 P   0  0  0  0  0  0  0  0  0  0  0  0
   -1.0442   -1.7875   -0.1857 P   0  0  0  0  0  0  0  0  0  0  0  0
    1.4783    0.4681    0.6467 O   0  0  0  0  0  0  0  0  0  0  0  0
   -0.4705    1.4766   -0.6437 O   0  0  0  0  0  0  0  0  0  0  0  0
    0.4704   -1.4771   -0.6491 O   0  0  0  0  0  0  0  0  0  0  0  0
   -1.4758   -0.4730    0.6475 O   0  0  0  0  0  0  0  0  0  0  0  0
    0.8655    2.9068    0.9678 O   0  0  0  0  0  0  0  0  0  0  0  0
    2.9090   -0.8634   -0.9679 O   0  0  0  0  0  0  0  0  0  0  0  0
   -2.9046    0.8682   -0.9676 O   0  0  0  0  0  0  0  0  0  0  0  0
   -0.8673   -2.9080    0.9667 O   0  0  0  0  0  0  0  0  0  0  0  0
    1.9708    2.1735   -1.2974 O   0  0  0  0  0  0  0  0  0  0  0  0
    2.1754   -1.9754    1.2940 O   0  0  0  0  0  0  0  0  0  0  0  0
   -2.1689    1.9804    1.2936 O   0  0  0  0  0  0  0  0  0  0  0  0
   -1.9845   -2.1687   -1.2909 O   0  0  0  0  0  0  0  0  0  0  0  0
  1  5  1  0
  1  6  1  0
  1  9  1  0
  1 13  2  0
  2  5  1  0
  2  7  1  0
  2 10  1  0
  2 14  2  0
  3  6  1  0
  3  8  1  0
  3 11  1  0
  3 15  2  0
  4  7  1  0
  4  8  1  0
  4 12  1  0
  4 16  2  0
M  END
>  <PUBCHEM_COMPOUND_CID>  (1) 
25952

>  <PUBCHEM_CONFORMER_RMSD>  (1) 
0.4

>  <PUBCHEM_CONFORMER_DIVERSEORDER>  (1) 
1
5
4
3
2

>  <PUBCHEM_MMFF94_PARTIAL_CHARGES>  (1) 
20
1 1.51
10 -0.77
11 -0.77
12 -0.77
13 -0.7
14 -0.7
15 -0.7
16 -0.7
17 0.5
18 0.5
19 0.5
2 1.51
20 0.5
3 1.51
4 1.51
5 -0.54
6 -0.54
7 -0.54
8 -0.54
9 -0.77

>  <PUBCHEM_EFFECTIVE_ROTOR_COUNT>  (1) 
0.8

>  <PUBCHEM_PHARMACOPHORE_FEATURES>  (1) 
8
1 10 acceptor
1 11 acceptor
1 12 acceptor
1 13 acceptor
1 14 acceptor
1 15 acceptor
1 16 acceptor
1 9 acceptor

>  <PUBCHEM_HEAVY_ATOM_COUNT>  (1) 
16

>  <PUBCHEM_ATOM_DEF_STEREO_COUNT>  (1) 
0

>  <PUBCHEM_ATOM_UDEF_STEREO_COUNT>  (1) 
0

>  <PUBCHEM_BOND_DEF_STEREO_COUNT>  (1) 
0

>  <PUBCHEM_BOND_UDEF_STEREO_COUNT>  (1) 
0

>  <PUBCHEM_ISOTOPIC_ATOM_COUNT>  (1) 
0

>  <PUBCHEM_COMPONENT_COUNT>  (1) 
1

>  <PUBCHEM_CACTVS_TAUTO_COUNT>  (1) 
1

>  <PUBCHEM_CONFORMER_ID>  (1) 
0000656000000001

>  <PUBCHEM_MMFF94_ENERGY>  (1) 
-48.7324

>  <PUBCHEM_FEATURE_SELFOVERLAP>  (1) 
40.646

>  <PUBCHEM_SHAPE_FINGERPRINT>  (1) 
14251711 518 18408605842395597146
16945 1 17769927987535876008
20645476 183 17750819669541327462
21041028 32 18051437315516583858
22802520 49 17188719943893654244
23419403 2 16326448655383254577
2748010 2 16321186684732472559
2897 32 18336825406659794484
353137 74 17758402155171570340
589210 1 18338516459838281189
66348 1 18338798888292450378

>  <PUBCHEM_SHAPE_MULTIPOLES>  (1) 
274.24
3.5
3.5
1.23
0
0
0
-0.01
-0.57
0
0.57
0
0
-0.63

>  <PUBCHEM_SHAPE_SELFOVERLAP>  (1) 
494.436

>  <PUBCHEM_SHAPE_VOLUME>  (1) 
174.5

>  <PUBCHEM_COORDINATE_TYPE>  (1) 
2
5
10

$$$$
