25958
     RDKit          3D

 13 14  0  0  0  0  0  0  0  0999 V2000
    3.2781    1.5375    0.0598 O   0  0  0  0  0  0  0  0  0  0  0  0
    3.8999   -0.6686   -0.0138 N   0  0  0  0  0  0  0  0  0  0  0  0
   -3.2521    1.1463   -0.3411 C   0  0  0  0  0  0  0  0  0  0  0  0
   -3.5809   -0.1645    0.3619 C   0  0  0  0  0  0  0  0  0  0  0  0
   -1.8619    1.6342    0.0620 C   0  0  0  0  0  0  0  0  0  0  0  0
   -2.5982   -1.2563   -0.0574 C   0  0  0  0  0  0  0  0  0  0  0  0
   -0.8109    0.5538    0.0020 C   0  0  0  0  0  0  0  0  0  0  0  0
   -1.1580   -0.8099   -0.0138 C   0  0  0  0  0  0  0  0  0  0  0  0
    0.5436    0.9195    0.0205 C   0  0  0  0  0  0  0  0  0  0  0  0
   -0.1434   -1.7784   -0.0479 C   0  0  0  0  0  0  0  0  0  0  0  0
    1.5425   -0.0533   -0.0032 C   0  0  0  0  0  0  0  0  0  0  0  0
    1.1991   -1.4014   -0.0398 C   0  0  0  0  0  0  0  0  0  0  0  0
    2.9421    0.3411    0.0107 C   0  0  0  0  0  0  0  0  0  0  0  0
  1 13  2  0
  2 13  1  0
  3  4  1  0
  3  5  1  0
  4  6  1  0
  5  7  1  0
  6  8  1  0
  7  8  2  0
  7  9  1  0
  8 10  1  0
  9 11  2  0
 10 12  2  0
 11 12  1  0
 11 13  1  0
M  END
>  <PUBCHEM_COMPOUND_CID>  (1) 
25958

>  <PUBCHEM_CONFORMER_RMSD>  (1) 
0.6

>  <PUBCHEM_CONFORMER_DIVERSEORDER>  (1) 
1
2

>  <PUBCHEM_MMFF94_PARTIAL_CHARGES>  (1) 
16
1 -0.57
10 -0.15
11 0.09
12 -0.15
13 0.54
2 -0.8
22 0.15
23 0.15
24 0.15
25 0.37
26 0.37
5 0.14
6 0.14
7 -0.14
8 -0.14
9 -0.15

>  <PUBCHEM_EFFECTIVE_ROTOR_COUNT>  (1) 
1.8

>  <PUBCHEM_PHARMACOPHORE_FEATURES>  (1) 
4
1 1 acceptor
1 2 donor
6 3 4 5 6 7 8 rings
6 7 8 9 10 11 12 rings

>  <PUBCHEM_HEAVY_ATOM_COUNT>  (1) 
13

>  <PUBCHEM_ATOM_DEF_STEREO_COUNT>  (1) 
0

>  <PUBCHEM_ATOM_UDEF_STEREO_COUNT>  (1) 
0

>  <PUBCHEM_BOND_DEF_STEREO_COUNT>  (1) 
0

>  <PUBCHEM_BOND_UDEF_STEREO_COUNT>  (1) 
0

>  <PUBCHEM_ISOTOPIC_ATOM_COUNT>  (1) 
0

>  <PUBCHEM_COMPONENT_COUNT>  (1) 
1

>  <PUBCHEM_CACTVS_TAUTO_COUNT>  (1) 
2

>  <PUBCHEM_CONFORMER_ID>  (1) 
0000656600000001

>  <PUBCHEM_MMFF94_ENERGY>  (1) 
30.4991

>  <PUBCHEM_FEATURE_SELFOVERLAP>  (1) 
20.318

>  <PUBCHEM_SHAPE_FINGERPRINT>  (1) 
10608611 8 18410853243946499876
10967382 1 18411136930820461159
11132069 177 18412537725872256336
11543360 7 15410604943121693505
12032990 46 18411144636055321070
13380535 76 18410854326389060743
14144814 61 18408602552234045832
14325111 11 18410573993883959940
14614273 12 18261106323396373581
14897335 6 18338792321598730159
15196674 1 18410856581130469793
15219456 202 18270967834205721095
15309172 13 18341621408040712283
15536298 74 18270961233242023974
15775835 57 18341617014204544969
16945 1 18411133653997940551
18186145 218 18201446873854644936
193761 8 17762619490717235178
200 152 18060127748496410997
20201158 50 18412544280198091191
20510252 161 18343023323730701745
20645476 183 17823998898847349902
20871998 184 18128542746089544879
21028194 46 18409452474885846844
21501502 16 18266735792733933539
23402539 116 18343010095194266364
23402655 69 18269540656161727325
23463225 33 18335136458347728506
23559900 14 18272651247602414352
2748010 2 18338521820163416015
5104073 3 18410575097548007784
528886 8 18411694383405758251
53812653 166 18343298171477805569
54173680 148 18192434297143087635
6333449 129 18412261731542730181
69090 78 18202278121598324663
7364860 26 18124877863196315782
8809292 202 18261398879162088435

>  <PUBCHEM_SHAPE_MULTIPOLES>  (1) 
256.68
6
1.78
0.62
1.82
0.09
0
-1.06
-0.1
-0.23
0.03
-0.11
0
0.12

>  <PUBCHEM_SHAPE_SELFOVERLAP>  (1) 
547.524

>  <PUBCHEM_SHAPE_VOLUME>  (1) 
142.3

>  <PUBCHEM_COORDINATE_TYPE>  (1) 
2
5
10

$$$$
