25968
     RDKit          3D

 23 25  0  0  1  0  0  0  0  0999 V2000
   -4.7717   -1.5692   -1.3758 Cl  0  0  0  0  0  0  0  0  0  0  0  0
   -0.3262    1.5978    1.7860 S   0  0  0  0  0  0  0  0  0  0  0  0
    0.0441   -2.3911   -1.5616 O   0  0  0  0  0  0  0  0  0  0  0  0
   -0.9452    2.9040    2.1878 O   0  0  0  0  0  0  0  0  0  0  0  0
    0.1804   -0.2196   -0.6675 N   0  0  0  0  0  0  0  0  0  0  0  0
    1.8266   -2.6704    1.1931 N   0  0  0  0  0  0  0  0  0  0  0  0
   -1.1956   -0.1070   -0.2519 C   0  0  0  0  0  0  0  0  0  0  0  0
    0.9125    1.0174   -0.6415 C   0  0  0  0  0  0  0  0  0  0  0  0
   -1.5673    0.7451    0.8037 C   0  0  0  0  0  0  0  0  0  0  0  0
    0.7251    1.9619    0.3793 C   0  0  0  0  0  0  0  0  0  0  0  0
    2.1994   -1.6585   -0.9802 C   0  0  0  0  0  0  0  0  0  0  0  0
    0.7067   -1.4407   -1.1342 C   0  0  0  0  0  0  0  0  0  0  0  0
    2.4248   -2.8829   -0.1185 C   0  0  0  0  0  0  0  0  0  0  0  0
   -2.2131   -0.8187   -0.9129 C   0  0  0  0  0  0  0  0  0  0  0  0
    1.7714    1.3524   -1.7042 C   0  0  0  0  0  0  0  0  0  0  0  0
   -2.9133    0.8570    1.1874 C   0  0  0  0  0  0  0  0  0  0  0  0
    1.4292    3.1760    0.3592 C   0  0  0  0  0  0  0  0  0  0  0  0
   -3.5518   -0.6950   -0.5320 C   0  0  0  0  0  0  0  0  0  0  0  0
    2.4606    2.5664   -1.7252 C   0  0  0  0  0  0  0  0  0  0  0  0
   -3.9019    0.1415    0.5190 C   0  0  0  0  0  0  0  0  0  0  0  0
    2.2944    3.4758   -0.6894 C   0  0  0  0  0  0  0  0  0  0  0  0
    2.4055   -1.4909    1.8396 C   0  0  0  0  0  0  0  0  0  0  0  0
    2.0053   -3.8514    2.0400 C   0  0  0  0  0  0  0  0  0  0  0  0
  1 18  1  0
  2  4  2  0
  2  9  1  0
  2 10  1  0
  3 12  2  0
  5  7  1  0
  5  8  1  0
  5 12  1  0
  6 13  1  0
  6 22  1  0
  6 23  1  0
  7  9  2  0
  7 14  1  0
  8 10  2  0
  8 15  1  0
  9 16  1  0
 10 17  1  0
 11 12  1  0
 11 13  1  0
 14 18  2  0
 15 19  2  0
 16 20  2  0
 17 21  2  0
 18 20  1  0
 19 21  1  0
M  END
>  <PUBCHEM_COMPOUND_CID>  (1) 
25968

>  <PUBCHEM_CONFORMER_RMSD>  (1) 
0.8

>  <PUBCHEM_CONFORMER_DIVERSEORDER>  (1) 
6
19
15
13
20
5
3
21
24
4
2
25
26
23
17
10
22
12
14
1
18
7
16
27
8
9
11

>  <PUBCHEM_MMFF94_PARTIAL_CHARGES>  (1) 
30
1 -0.18
10 0.06
11 0.06
12 0.57
13 0.27
14 -0.15
15 -0.15
16 -0.15
17 -0.15
18 0.18
19 -0.15
2 0.37
20 -0.15
21 -0.15
22 0.27
23 0.27
28 0.15
29 0.15
3 -0.57
30 0.15
31 0.15
32 0.15
33 0.15
34 0.15
4 -0.5
5 -0.29
6 -0.81
7 0.12
8 0.12
9 0.06

>  <PUBCHEM_EFFECTIVE_ROTOR_COUNT>  (1) 
4.2

>  <PUBCHEM_PHARMACOPHORE_FEATURES>  (1) 
6
1 3 acceptor
1 4 acceptor
1 6 cation
6 2 5 7 8 9 10 rings
6 7 9 14 16 18 20 rings
6 8 10 15 17 19 21 rings

>  <PUBCHEM_HEAVY_ATOM_COUNT>  (1) 
23

>  <PUBCHEM_ATOM_DEF_STEREO_COUNT>  (1) 
0

>  <PUBCHEM_ATOM_UDEF_STEREO_COUNT>  (1) 
1

>  <PUBCHEM_BOND_DEF_STEREO_COUNT>  (1) 
0

>  <PUBCHEM_BOND_UDEF_STEREO_COUNT>  (1) 
0

>  <PUBCHEM_ISOTOPIC_ATOM_COUNT>  (1) 
0

>  <PUBCHEM_COMPONENT_COUNT>  (1) 
1

>  <PUBCHEM_CACTVS_TAUTO_COUNT>  (1) 
1

>  <PUBCHEM_CONFORMER_ID>  (1) 
0000657000000006

>  <PUBCHEM_MMFF94_ENERGY>  (1) 
96.7593

>  <PUBCHEM_FEATURE_SELFOVERLAP>  (1) 
30.489

>  <PUBCHEM_SHAPE_FINGERPRINT>  (1) 
1100329 8 18338516464640254974
11578080 2 18117826720918349924
12403259 327 16601323079388957633
12553582 1 18192721033554884695
12644460 14 18126596529246426585
12788726 201 17395297914764772042
13004483 165 17613147477822598635
13009979 54 17916037771235471999
13083527 12 18265030544619870767
133893 2 18334573555633562213
13681431 1 18334853870826730318
14022347 108 17619101363689652999
14840074 17 17970882644876447304
15420108 30 17480053824822845952
16945 1 18260267460000412349
1813 80 18264205799013864763
19765921 60 18194413409461505157
20567600 347 18047748484038465763
20600515 1 17979896238561459567
20645476 183 17686340180240951676
21033648 29 16982090454462462705
21421861 104 18340502083739440753
21452121 199 18271795805490337667
21452121 99 17399234638838788144
21524375 3 18195814200038920252
22112679 90 17834138362965498838
22182313 1 14369486823499498384
23388829 49 18199198307987738468
23419403 2 17692763239386302961
23558518 356 16685957316953563101
23559900 14 17917715669498661815
25222932 49 15378334041066951192
2748010 2 15095972664457408161
34934 24 17542827146833104948
35225 105 17181647906146158338
3759504 43 17686060904245149164
394222 165 18338524152172174737
404807 78 16889182207675255063
484985 159 16018027599451237075
4938544 92 16748440875297570722
5845 1 8355469591564944484
59554788 281 18051686947822273624
81228 2 17547855153092097647
90316 7 17760088410744869970
9981440 41 17197142173114529108

>  <PUBCHEM_SHAPE_MULTIPOLES>  (1) 
457.35
5.67
4.62
2.08
7.94
2.09
0.57
0.25
-1.77
-5.48
1.7
-0.46
0.17
-2.41

>  <PUBCHEM_SHAPE_SELFOVERLAP>  (1) 
961.221

>  <PUBCHEM_SHAPE_VOLUME>  (1) 
259.3

>  <PUBCHEM_COORDINATE_TYPE>  (1) 
2
5
10

$$$$
