25961
     RDKit          3D

 22 23  0  0  0  0  0  0  0  0999 V2000
   -3.1787    0.9272   -0.6485 O   0  0  0  0  0  0  0  0  0  0  0  0
    2.7715   -2.3259    0.4258 O   0  0  0  0  0  0  0  0  0  0  0  0
   -3.7337    4.0096    1.0992 O   0  0  0  0  0  0  0  0  0  0  0  0
   -2.0996    3.4131   -0.3710 O   0  0  0  0  0  0  0  0  0  0  0  0
    1.4401   -0.5069   -0.1016 N   0  0  0  0  0  0  0  0  0  0  0  0
    0.3011   -1.2330   -0.0054 N   0  0  0  0  0  0  0  0  0  0  0  0
    6.1057    1.3119   -0.1543 N   0  0  0  0  0  0  0  0  0  0  0  0
   -2.1149   -1.1633   -0.1450 C   0  0  0  0  0  0  0  0  0  0  0  0
   -3.2635   -0.4037   -0.3672 C   0  0  0  0  0  0  0  0  0  0  0  0
   -2.2233   -2.5242    0.1413 C   0  0  0  0  0  0  0  0  0  0  0  0
   -4.5204   -1.0049   -0.3027 C   0  0  0  0  0  0  0  0  0  0  0  0
   -3.4802   -3.1255    0.2056 C   0  0  0  0  0  0  0  0  0  0  0  0
   -4.6288   -2.3658   -0.0164 C   0  0  0  0  0  0  0  0  0  0  0  0
   -0.7929   -0.5555   -0.2073 C   0  0  0  0  0  0  0  0  0  0  0  0
    3.8562   -0.2822    0.0325 C   0  0  0  0  0  0  0  0  0  0  0  0
   -3.8269    1.8221    0.2528 C   0  0  0  0  0  0  0  0  0  0  0  0
    2.6466   -1.1394    0.1327 C   0  0  0  0  0  0  0  0  0  0  0  0
    4.9751   -0.6220    0.7551 C   0  0  0  0  0  0  0  0  0  0  0  0
    3.8215    0.8260   -0.7802 C   0  0  0  0  0  0  0  0  0  0  0  0
    6.0764    0.2090    0.6271 C   0  0  0  0  0  0  0  0  0  0  0  0
    4.9745    1.5922   -0.8395 C   0  0  0  0  0  0  0  0  0  0  0  0
   -3.1056    3.1412    0.2670 C   0  0  0  0  0  0  0  0  0  0  0  0
  1  9  1  0
  1 16  1  0
  2 17  2  0
  3 22  1  0
  4 22  2  0
  5  6  1  0
  5 17  1  0
  6 14  2  0
  7 20  2  0
  7 21  1  0
  8  9  2  0
  8 10  1  0
  8 14  1  0
  9 11  1  0
 10 12  2  0
 11 13  2  0
 12 13  1  0
 15 17  1  0
 15 18  2  0
 15 19  1  0
 16 22  1  0
 18 20  1  0
 19 21  2  0
M  END
>  <PUBCHEM_COMPOUND_CID>  (1) 
25961

>  <PUBCHEM_CONFORMER_RMSD>  (1) 
0.8

>  <PUBCHEM_CONFORMER_DIVERSEORDER>  (1) 
1
31
23
35
15
36
33
29
18
27
34
13
17
24
32
5
26
25
12
19
9
28
21
20
3
11
10
2
30
8
6
22
7
4
16
14

>  <PUBCHEM_MMFF94_PARTIAL_CHARGES>  (1) 
33
1 -0.36
10 -0.15
11 -0.15
12 -0.15
13 -0.15
14 0.3
15 0.09
16 0.34
17 0.54
18 -0.15
19 -0.15
2 -0.57
20 0.16
21 0.16
22 0.66
23 0.15
24 0.15
25 0.15
26 0.15
27 0.06
3 -0.65
30 0.15
31 0.15
32 0.37
33 0.15
34 0.15
35 0.5
4 -0.57
5 -0.37
6 -0.51
7 -0.62
8 0.09
9 0.08

>  <PUBCHEM_EFFECTIVE_ROTOR_COUNT>  (1) 
7

>  <PUBCHEM_PHARMACOPHORE_FEATURES>  (1) 
10
1 1 acceptor
1 2 acceptor
1 3 acceptor
1 4 acceptor
1 5 donor
1 6 acceptor
1 7 acceptor
3 3 4 22 anion
6 7 15 18 19 20 21 rings
6 8 9 10 11 12 13 rings

>  <PUBCHEM_HEAVY_ATOM_COUNT>  (1) 
22

>  <PUBCHEM_ATOM_DEF_STEREO_COUNT>  (1) 
0

>  <PUBCHEM_ATOM_UDEF_STEREO_COUNT>  (1) 
0

>  <PUBCHEM_BOND_DEF_STEREO_COUNT>  (1) 
0

>  <PUBCHEM_BOND_UDEF_STEREO_COUNT>  (1) 
1

>  <PUBCHEM_ISOTOPIC_ATOM_COUNT>  (1) 
0

>  <PUBCHEM_COMPONENT_COUNT>  (1) 
1

>  <PUBCHEM_CACTVS_TAUTO_COUNT>  (1) 
2

>  <PUBCHEM_CONFORMER_ID>  (1) 
0000656900000001

>  <PUBCHEM_MMFF94_ENERGY>  (1) 
63.7245

>  <PUBCHEM_FEATURE_SELFOVERLAP>  (1) 
50.817

>  <PUBCHEM_SHAPE_FINGERPRINT>  (1) 
10411042 1 18123187081328983207
10595046 47 18334292123865416154
10670039 82 18336276699630603036
10937287 8 17908425749769359745
11405975 8 18336263419238646170
12107183 9 17903066747116966274
12390115 104 18200325303459537633
12596602 18 17386001814366035131
12788726 201 18335693971136778571
13073987 5 18409163321056451746
14251764 75 17696482780387698337
14565420 104 17694801623093163673
14790565 3 17908429056894359641
15348495 7 11025798738866581894
17844677 252 18409736153587345558
20286276 3 18267029366344237142
21033648 29 17560786750059874954
21033650 10 18265641860600906694
21065198 48 18260542321255352138
21304253 13 18270407226143573963
21315763 129 18411698820655438676
23557571 272 18272661146673856966
23559900 14 18192139615500027111
245318 6 16881618572581693412
283562 15 18409163299835173491
329604 57 18337673130457359488
397830 11 11603114928749426460
4214541 1 18334853922303326630
441001 317 18412260636199501584
445580 37 18337401512873607804
5104073 3 18188206507646602490
531348 171 18060135393122090566
6700243 42 17698478681057835310
7808743 9 18339641131638061921

>  <PUBCHEM_SHAPE_MULTIPOLES>  (1) 
414.33
14.39
4.03
0.8
17.88
3.66
0.02
1.83
0.57
-7.29
0.83
0.27
0.25
-1.35

>  <PUBCHEM_SHAPE_SELFOVERLAP>  (1) 
882.554

>  <PUBCHEM_SHAPE_VOLUME>  (1) 
227.6

>  <PUBCHEM_COORDINATE_TYPE>  (1) 
2
5
10

$$$$
