25969
     RDKit          3D

 20 21  0  0  0  0  0  0  0  0999 V2000
   -4.9346    0.6966    0.5181 F   0  0  0  0  0  0  0  0  0  0  0  0
   -3.3733    1.1111    1.9654 F   0  0  0  0  0  0  0  0  0  0  0  0
   -3.3778    2.1409    0.0501 F   0  0  0  0  0  0  0  0  0  0  0  0
    4.7550   -1.2703    0.8500 O   0  0  0  0  0  0  0  0  0  0  0  0
    2.6689   -1.9591    1.4334 O   0  0  0  0  0  0  0  0  0  0  0  0
    0.8320   -0.9647   -0.4469 N   0  0  0  0  0  0  0  0  0  0  0  0
    3.4312    2.3432   -0.4613 N   0  0  0  0  0  0  0  0  0  0  0  0
   -0.5746   -1.0633   -0.4862 C   0  0  0  0  0  0  0  0  0  0  0  0
    1.7112    0.1354   -0.4445 C   0  0  0  0  0  0  0  0  0  0  0  0
   -2.7514   -0.1527    0.0322 C   0  0  0  0  0  0  0  0  0  0  0  0
   -1.3605   -0.0557    0.0728 C   0  0  0  0  0  0  0  0  0  0  0  0
   -1.1795   -2.1679   -1.0858 C   0  0  0  0  0  0  0  0  0  0  0  0
    2.9490    0.0652    0.1893 C   0  0  0  0  0  0  0  0  0  0  0  0
   -3.3564   -1.2573   -0.5673 C   0  0  0  0  0  0  0  0  0  0  0  0
   -2.5704   -2.2649   -1.1263 C   0  0  0  0  0  0  0  0  0  0  0  0
    1.3358    1.3122   -1.0865 C   0  0  0  0  0  0  0  0  0  0  0  0
   -3.5922    0.9240    0.6300 C   0  0  0  0  0  0  0  0  0  0  0  0
    3.7638    1.1854    0.1524 C   0  0  0  0  0  0  0  0  0  0  0  0
    2.2226    2.3766   -1.0662 C   0  0  0  0  0  0  0  0  0  0  0  0
    3.4012   -1.1347    0.8774 C   0  0  0  0  0  0  0  0  0  0  0  0
  1 17  1  0
  2 17  1  0
  3 17  1  0
  4 20  1  0
  5 20  2  0
  6  8  1  0
  6  9  1  0
  7 18  2  0
  7 19  1  0
  8 11  1  0
  8 12  2  0
  9 13  2  0
  9 16  1  0
 10 11  2  0
 10 14  1  0
 10 17  1  0
 12 15  1  0
 13 18  1  0
 13 20  1  0
 14 15  2  0
 16 19  2  0
M  END
>  <PUBCHEM_COMPOUND_CID>  (1) 
25969

>  <PUBCHEM_CONFORMER_RMSD>  (1) 
0.6

>  <PUBCHEM_CONFORMER_DIVERSEORDER>  (1) 
1
19
24
2
20
23
8
17
16
7
18
22
21
15
14
13
12
11
3
6
4
5
10
9

>  <PUBCHEM_MMFF94_PARTIAL_CHARGES>  (1) 
29
1 -0.34
10 -0.14
11 -0.15
12 -0.15
13 0.09
14 -0.15
15 -0.15
16 -0.15
17 1.16
18 0.16
19 0.16
2 -0.34
20 0.63
21 0.4
22 0.15
23 0.15
24 0.15
25 0.15
26 0.15
27 0.15
28 0.15
29 0.5
3 -0.34
4 -0.65
5 -0.57
6 -0.6
7 -0.62
8 0.1
9 0.1

>  <PUBCHEM_EFFECTIVE_ROTOR_COUNT>  (1) 
4

>  <PUBCHEM_PHARMACOPHORE_FEATURES>  (1) 
8
1 4 acceptor
1 5 acceptor
1 6 cation
1 6 donor
1 7 acceptor
3 4 5 20 anion
6 7 9 13 16 18 19 rings
6 8 10 11 12 14 15 rings

>  <PUBCHEM_HEAVY_ATOM_COUNT>  (1) 
20

>  <PUBCHEM_ATOM_DEF_STEREO_COUNT>  (1) 
0

>  <PUBCHEM_ATOM_UDEF_STEREO_COUNT>  (1) 
0

>  <PUBCHEM_BOND_DEF_STEREO_COUNT>  (1) 
0

>  <PUBCHEM_BOND_UDEF_STEREO_COUNT>  (1) 
0

>  <PUBCHEM_ISOTOPIC_ATOM_COUNT>  (1) 
0

>  <PUBCHEM_COMPONENT_COUNT>  (1) 
1

>  <PUBCHEM_CACTVS_TAUTO_COUNT>  (1) 
3

>  <PUBCHEM_CONFORMER_ID>  (1) 
0000657100000001

>  <PUBCHEM_MMFF94_ENERGY>  (1) 
66.6949

>  <PUBCHEM_FEATURE_SELFOVERLAP>  (1) 
40.652

>  <PUBCHEM_SHAPE_FINGERPRINT>  (1) 
10062212 137 18342168999069867679
10382601 240 18040991886924000552
10646746 165 17846217812593929584
11578080 2 17979878835122679557
11640471 11 18341343282790319744
12107183 9 18195242218043568970
12236239 1 18411696612462279162
12251169 10 18408602530769888703
12553582 1 18042388150680063458
12670546 56 18341885346407230668
12788726 201 17984700279995165799
13583140 156 17822009757921759315
13965767 371 18268719324316158504
14178342 30 18119234319619704682
14739800 52 17773017877889286960
14790565 3 17825959388642454772
15375462 189 17968086474789339242
15442244 35 18409442592419287046
15527383 91 18040714741041916880
15669948 3 17987233515845486839
16752209 62 17845366807621251039
1741750 31 17918002663429089623
17492 89 18339642342655958550
17818456 19 18131070385803369746
1813 80 17823141134075915694
19078846 21 18335137558080805118
201361 129 18262799704573761100
20233049 118 17917713530504740992
20261772 1 18409169883091324588
20600515 1 17489591138789337504
20715895 44 17979353067545223593
20739085 24 18040999536186759076
21065198 48 18338232777338265710
21427221 339 18411139100016387514
21503847 285 18335143081419277674
21524375 3 18201441350822172999
21665062 11 18333740121514756556
2255824 54 18115023125745215614
23184049 59 18335420127920774254
235170 7 13686292431707027257
23532345 12 18342450456877245702
23557571 272 16702028633687720047
23559900 14 17560531625034605326
23598288 3 18200311151627050935
23598291 2 18409724101682182086
2748010 2 17618789050520320111
312423 11 18336270153304040334
38570 142 17900010341173348900
474 4 17897444119408892676
5104073 3 18410571833420549746
633830 44 18117569641909340092
6992083 37 18408880720170412735
7064713 232 18129946676446282537
7097593 13 18335975394236134482
7615 1 18340479079530430758
7832392 63 18411419552975589124
84936 182 18051973920531287296
9981440 41 17471564907671419512

>  <PUBCHEM_SHAPE_MULTIPOLES>  (1) 
368.07
8.83
2.59
1.23
0.7
0.23
-0.23
1.59
-2.41
-0.29
0.36
0.16
-0.06
-2.53

>  <PUBCHEM_SHAPE_SELFOVERLAP>  (1) 
798.95

>  <PUBCHEM_SHAPE_VOLUME>  (1) 
200.3

>  <PUBCHEM_COORDINATE_TYPE>  (1) 
2
5
10

$$$$
