25964
     RDKit          3D

  6  5  0  0  0  0  0  0  0  0999 V2000
   -2.4112    0.5793    0.6178 Cl  0  0  0  0  0  0  0  0  0  0  0  0
    0.0310   -0.2143   -0.2147 C   0  0  0  0  0  0  0  0  0  0  0  0
   -1.3622    0.0490   -0.7147 C   0  0  0  0  0  0  0  0  0  0  0  0
    1.0153    0.7046   -0.1815 C   0  0  0  0  0  0  0  0  0  0  0  0
    0.2978   -1.6290    0.2303 C   0  0  0  0  0  0  0  0  0  0  0  0
    2.4293    0.5104    0.2628 C   0  0  0  0  0  0  0  0  0  0  0  0
  1  3  1  0
  2  3  1  0
  2  4  2  0
  2  5  1  0
  4  6  1  0
M  END
>  <PUBCHEM_COMPOUND_CID>  (1) 
25964

>  <PUBCHEM_CONFORMER_RMSD>  (1) 
0.4

>  <PUBCHEM_CONFORMER_DIVERSEORDER>  (1) 
1
3
2

>  <PUBCHEM_MMFF94_PARTIAL_CHARGES>  (1) 
7
1 -0.29
2 -0.28
3 0.43
4 -0.29
5 0.14
6 0.14
9 0.15

>  <PUBCHEM_EFFECTIVE_ROTOR_COUNT>  (1) 
1

>  <PUBCHEM_PHARMACOPHORE_FEATURES>  (1) 
2
1 5 hydrophobe
1 6 hydrophobe

>  <PUBCHEM_HEAVY_ATOM_COUNT>  (1) 
6

>  <PUBCHEM_ATOM_DEF_STEREO_COUNT>  (1) 
0

>  <PUBCHEM_ATOM_UDEF_STEREO_COUNT>  (1) 
0

>  <PUBCHEM_BOND_DEF_STEREO_COUNT>  (1) 
0

>  <PUBCHEM_BOND_UDEF_STEREO_COUNT>  (1) 
1

>  <PUBCHEM_ISOTOPIC_ATOM_COUNT>  (1) 
0

>  <PUBCHEM_COMPONENT_COUNT>  (1) 
1

>  <PUBCHEM_CACTVS_TAUTO_COUNT>  (1) 
1

>  <PUBCHEM_CONFORMER_ID>  (1) 
0000656C00000001

>  <PUBCHEM_MMFF94_ENERGY>  (1) 
4.2248

>  <PUBCHEM_FEATURE_SELFOVERLAP>  (1) 
10.15

>  <PUBCHEM_SHAPE_FINGERPRINT>  (1) 
14390081 3 17561080310868957745
16714656 1 18186517743643102636
20096714 4 18272651250969116245
20653085 51 16988299666928085768
21040471 1 18410014376877771526
29004967 10 17894634703716679049
5460574 1 9007065677031885868
5943 1 10188082388093545391

>  <PUBCHEM_SHAPE_MULTIPOLES>  (1) 
125.35
3.12
1.25
0.81
0.23
0.59
-0.02
-1.19
0.62
-0.21
0.14
0.24
-0.03
-0.12

>  <PUBCHEM_SHAPE_SELFOVERLAP>  (1) 
213.454

>  <PUBCHEM_SHAPE_VOLUME>  (1) 
84.5

>  <PUBCHEM_COORDINATE_TYPE>  (1) 
2
5
10

$$$$
