25972
     RDKit          3D

 16 16  0  0  0  0  0  0  0  0999 V2000
    0.1702    2.7307   -0.0004 O   0  0  0  0  0  0  0  0  0  0  0  0
   -1.4299   -3.3190    0.0004 O   0  0  0  0  0  0  0  0  0  0  0  0
    0.8204   -3.6390   -0.0001 O   0  0  0  0  0  0  0  0  0  0  0  0
   -2.4126    1.5425    0.0003 C   0  0  0  0  0  0  0  0  0  0  0  0
    2.6019    1.2576    0.0002 C   0  0  0  0  0  0  0  0  0  0  0  0
   -1.1528    0.7407   -0.0005 C   0  0  0  0  0  0  0  0  0  0  0  0
    1.2594    0.6041    0.0010 C   0  0  0  0  0  0  0  0  0  0  0  0
    0.0927    1.3688    0.0005 C   0  0  0  0  0  0  0  0  0  0  0  0
   -1.2318   -0.6519   -0.0010 C   0  0  0  0  0  0  0  0  0  0  0  0
    1.1803   -0.7886    0.0005 C   0  0  0  0  0  0  0  0  0  0  0  0
   -0.0653   -1.4165   -0.0005 C   0  0  0  0  0  0  0  0  0  0  0  0
   -3.2624    1.2992    1.2610 C   0  0  0  0  0  0  0  0  0  0  0  0
   -3.2635    1.3004   -1.2599 C   0  0  0  0  0  0  0  0  0  0  0  0
    3.4204    0.9195    1.2599 C   0  0  0  0  0  0  0  0  0  0  0  0
    3.4183    0.9202   -1.2610 C   0  0  0  0  0  0  0  0  0  0  0  0
   -0.1453   -2.8686   -0.0005 C   0  0  0  0  0  0  0  0  0  0  0  0
  1  8  1  0
  2 16  1  0
  3 16  2  0
  4  6  1  0
  4 12  1  0
  4 13  1  0
  5  7  1  0
  5 14  1  0
  5 15  1  0
  6  8  2  0
  6  9  1  0
  7  8  1  0
  7 10  2  0
  9 11  2  0
 10 11  1  0
 11 16  1  0
M  END
>  <PUBCHEM_COMPOUND_CID>  (1) 
25972

>  <PUBCHEM_CONFORMER_RMSD>  (1) 
0.6

>  <PUBCHEM_CONFORMER_DIVERSEORDER>  (1) 
1
2
3
4

>  <PUBCHEM_MMFF94_PARTIAL_CHARGES>  (1) 
16
1 -0.53
10 -0.15
11 0.09
16 0.63
19 0.15
2 -0.65
20 0.15
3 -0.57
33 0.45
34 0.5
4 0.14
5 0.14
6 -0.14
7 -0.14
8 0.08
9 -0.15

>  <PUBCHEM_EFFECTIVE_ROTOR_COUNT>  (1) 
3

>  <PUBCHEM_PHARMACOPHORE_FEATURES>  (1) 
7
1 1 donor
1 2 acceptor
1 3 acceptor
3 2 3 16 anion
3 4 12 13 hydrophobe
3 5 14 15 hydrophobe
6 6 7 8 9 10 11 rings

>  <PUBCHEM_HEAVY_ATOM_COUNT>  (1) 
16

>  <PUBCHEM_ATOM_DEF_STEREO_COUNT>  (1) 
0

>  <PUBCHEM_ATOM_UDEF_STEREO_COUNT>  (1) 
0

>  <PUBCHEM_BOND_DEF_STEREO_COUNT>  (1) 
0

>  <PUBCHEM_BOND_UDEF_STEREO_COUNT>  (1) 
0

>  <PUBCHEM_ISOTOPIC_ATOM_COUNT>  (1) 
0

>  <PUBCHEM_COMPONENT_COUNT>  (1) 
1

>  <PUBCHEM_CACTVS_TAUTO_COUNT>  (1) 
3

>  <PUBCHEM_CONFORMER_ID>  (1) 
0000657400000001

>  <PUBCHEM_MMFF94_ENERGY>  (1) 
47.4837

>  <PUBCHEM_FEATURE_SELFOVERLAP>  (1) 
35.578

>  <PUBCHEM_SHAPE_FINGERPRINT>  (1) 
1 1 18266177236220683390
10967382 1 18338516313804176839
11322862 65 18339661025805127870
116883 192 17838062854756443142
12553582 1 17616818077544742618
12759256 9 17978787905234602211
13140716 1 18338798914104848810
13380535 76 18411971455872191838
13538477 17 18188484791726238568
13583140 156 16877936174294722576
14817 1 12169183310856369342
15309172 13 18410016528699072137
16752209 62 18192418882499869066
16945 1 18194682807011161382
18186145 218 18272935998774671172
193761 8 17762055840763746597
19591789 44 18338815441139198247
20510252 161 18126847337539471688
20645476 183 18113908199194932340
20645477 70 18045775694512742509
20711985 344 17977678824393343022
20871999 31 18123489403733434268
21160774 45 18264208183284865583
21524375 3 18261106370234688801
23114952 82 17609773102507316509
23184049 29 17834389399577781720
2334 1 18410574006642371734
23388829 49 17764575530593301071
23419403 2 16979339665153519127
23493267 7 17531821146807685976
23530152 11 18410575059083419711
23557571 272 17983875646680268676
23598291 2 17771622348430297557
23598294 1 18263365961488249466
257057 1 17259045823949609418
2748010 2 18410023112672686847
3071541 236 18265882721833999352
3071541 250 17620488908302927958
3071541 37 18264210205834809845
3091708 16 9411393477407493251
352729 6 18410574032427824360
43471831 8 18338234864660508715
458136 41 18194143853019040873
58807428 26 18339349778362995914
633830 44 18059862731244333725
7364860 26 17908416961658876472
81228 2 18050288372930694090
88987 49 18265330789041800684

>  <PUBCHEM_SHAPE_MULTIPOLES>  (1) 
311.66
4.9
3.61
1.02
0.37
4.55
0
-3.69
0
-0.32
0
0.02
-0.46
0

>  <PUBCHEM_SHAPE_SELFOVERLAP>  (1) 
643.888

>  <PUBCHEM_SHAPE_VOLUME>  (1) 
180.4

>  <PUBCHEM_COORDINATE_TYPE>  (1) 
2
5
10

$$$$
