25982
     RDKit          3D

 10  9  0  0  1  0  0  0  0  0999 V2000
   -0.3667   -0.0607   -0.0557 O   0  0  0  0  0  0  0  0  0  0  0  0
    2.2341    0.7766    0.5375 O   0  0  0  0  0  0  0  0  0  0  0  0
   -2.7854    0.7716   -1.1891 O   0  0  0  0  0  0  0  0  0  0  0  0
    1.9974   -0.3040   -0.3636 C   0  0  0  0  0  0  0  0  0  0  0  0
    0.7011   -0.9917    0.0454 C   0  0  0  0  0  0  0  0  0  0  0  0
   -1.6052   -0.6446    0.3344 C   0  0  0  0  0  0  0  0  0  0  0  0
   -2.7103    0.3930    0.1845 C   0  0  0  0  0  0  0  0  0  0  0  0
    3.1780   -1.2614   -0.3050 C   0  0  0  0  0  0  0  0  0  0  0  0
   -4.0587   -0.1633    0.6161 C   0  0  0  0  0  0  0  0  0  0  0  0
    3.4157    1.4845    0.1954 C   0  0  0  0  0  0  0  0  0  0  0  0
  1  5  1  0
  1  6  1  0
  2  4  1  0
  2 10  1  0
  3  7  1  0
  4  5  1  0
  4  8  1  0
  6  7  1  0
  7  9  1  0
M  END
>  <PUBCHEM_COMPOUND_CID>  (1) 
25982

>  <PUBCHEM_CONFORMER_RMSD>  (1) 
0.6

>  <PUBCHEM_CONFORMER_DIVERSEORDER>  (1) 
2
94
12
98
7
91
76
13
78
84
28
79
31
92
55
57
9
86
81
32
49
65
6
77
47
60
35
43
96
105
87
29
85
16
102
18
34
52
23
71
50
24
56
36
45
95
88
20
58
83
53
80
51
74
72
4
10
15
61
62
48
21
93
90
37
107
59
26
14
97
40
64
38
30
82
75
67
17
66
1
41
89
42
25
54
63
27
73
69
46
70
8
104
103
68
5
22
3
11
19
33
39
44
101
99
106
100

>  <PUBCHEM_MMFF94_PARTIAL_CHARGES>  (1) 
9
1 -0.56
10 0.28
2 -0.56
23 0.4
3 -0.68
4 0.28
5 0.28
6 0.28
7 0.28

>  <PUBCHEM_EFFECTIVE_ROTOR_COUNT>  (1) 
5

>  <PUBCHEM_PHARMACOPHORE_FEATURES>  (1) 
4
1 1 acceptor
1 2 acceptor
1 3 acceptor
1 3 donor

>  <PUBCHEM_HEAVY_ATOM_COUNT>  (1) 
10

>  <PUBCHEM_ATOM_DEF_STEREO_COUNT>  (1) 
0

>  <PUBCHEM_ATOM_UDEF_STEREO_COUNT>  (1) 
2

>  <PUBCHEM_BOND_DEF_STEREO_COUNT>  (1) 
0

>  <PUBCHEM_BOND_UDEF_STEREO_COUNT>  (1) 
0

>  <PUBCHEM_ISOTOPIC_ATOM_COUNT>  (1) 
0

>  <PUBCHEM_COMPONENT_COUNT>  (1) 
1

>  <PUBCHEM_CACTVS_TAUTO_COUNT>  (1) 
1

>  <PUBCHEM_CONFORMER_ID>  (1) 
0000657E00000002

>  <PUBCHEM_MMFF94_ENERGY>  (1) 
21.6351

>  <PUBCHEM_FEATURE_SELFOVERLAP>  (1) 
20.305

>  <PUBCHEM_SHAPE_FINGERPRINT>  (1) 
10857977 72 17313108553236971087
11062470 55 10519697865490492403
12932764 1 18186800257817516251
14325111 11 18412827997000069827
14390081 3 18334573529774100641
15775835 57 17988645237119671332
170605 34 18409447024788606786
177051 138 12901540252055171808
18186145 218 18413110537023148810
190213 19 16773799169249312643
20645477 70 18272653411285302231
20765181 27 18187359926405016727
3248919 1 17346882234326934487
449060 50 18335987570315236420

>  <PUBCHEM_SHAPE_MULTIPOLES>  (1) 
188.19
7.35
1.28
0.8
2.56
0.12
0.12
1.22
-0.38
-1.34
-0.01
0.39
0.09
0.55

>  <PUBCHEM_SHAPE_SELFOVERLAP>  (1) 
339.608

>  <PUBCHEM_SHAPE_VOLUME>  (1) 
122.4

>  <PUBCHEM_COORDINATE_TYPE>  (1) 
2
5
10

$$$$
