25989
     RDKit          3D

  8  7  0  0  0  0  0  0  0  0999 V2000
    1.1944    0.0705   -0.0075 Si  0  0  0  0  0  4  0  0  0  0  0  0
   -1.6655   -1.2052    0.0126 O   0  0  0  0  0  0  0  0  0  0  0  0
   -0.4187    0.7769   -0.0171 N   0  0  0  0  0  0  0  0  0  0  0  0
    2.4779    1.4294   -0.0388 C   0  0  0  0  0  0  0  0  0  0  0  0
    1.3957   -0.9380    1.5582 C   0  0  0  0  0  0  0  0  0  0  0  0
    1.4038   -1.0443   -1.4936 C   0  0  0  0  0  0  0  0  0  0  0  0
   -1.5787    0.0203    0.0016 C   0  0  0  0  0  0  0  0  0  0  0  0
   -2.8089    0.8904   -0.0154 C   0  0  0  0  0  0  0  0  0  0  0  0
  1  3  1  0
  1  4  1  0
  1  5  1  0
  1  6  1  0
  2  7  2  0
  3  7  1  0
  7  8  1  0
M  END
>  <PUBCHEM_COMPOUND_CID>  (1) 
25989

>  <PUBCHEM_CONFORMER_RMSD>  (1) 
0.4

>  <PUBCHEM_CONFORMER_DIVERSEORDER>  (1) 
1
4
2
3

>  <PUBCHEM_MMFF94_PARTIAL_CHARGES>  (1) 
9
1 0.58
18 0.37
2 -0.57
3 -0.77
4 -0.08
5 -0.08
6 -0.08
7 0.57
8 0.06

>  <PUBCHEM_EFFECTIVE_ROTOR_COUNT>  (1) 
2

>  <PUBCHEM_PHARMACOPHORE_FEATURES>  (1) 
2
1 2 acceptor
1 3 donor

>  <PUBCHEM_HEAVY_ATOM_COUNT>  (1) 
8

>  <PUBCHEM_ATOM_DEF_STEREO_COUNT>  (1) 
0

>  <PUBCHEM_ATOM_UDEF_STEREO_COUNT>  (1) 
0

>  <PUBCHEM_BOND_DEF_STEREO_COUNT>  (1) 
0

>  <PUBCHEM_BOND_UDEF_STEREO_COUNT>  (1) 
0

>  <PUBCHEM_ISOTOPIC_ATOM_COUNT>  (1) 
0

>  <PUBCHEM_COMPONENT_COUNT>  (1) 
1

>  <PUBCHEM_CACTVS_TAUTO_COUNT>  (1) 
2

>  <PUBCHEM_CONFORMER_ID>  (1) 
0000658500000001

>  <PUBCHEM_MMFF94_ENERGY>  (1) 
6.3985

>  <PUBCHEM_FEATURE_SELFOVERLAP>  (1) 
10.148

>  <PUBCHEM_SHAPE_FINGERPRINT>  (1) 
12897270 3 18059868293395313004
12932764 1 17968382247522144117
14390081 3 18411418444578919769
170605 34 18409452522046396376
21040471 1 17560790082817222670
23211744 41 18192998342418209648
23235685 24 18131910463973468309
23235687 12 18412537691459731381
23552423 10 18113617897701614995
23552449 11 18261664866396681912
24536 1 18131066000425404525
29004967 10 17775295966648546762
3248919 1 18059569157723908697
5084963 1 18190742127525954060
68250623 7 18265892643704610954

>  <PUBCHEM_SHAPE_MULTIPOLES>  (1) 
172
3.65
1.42
1.23
2.21
0.09
-0.06
1.06
0.04
-0.45
0.05
-0.78
-0.54
0.01

>  <PUBCHEM_SHAPE_SELFOVERLAP>  (1) 
295.815

>  <PUBCHEM_SHAPE_VOLUME>  (1) 
115.4

>  <PUBCHEM_COORDINATE_TYPE>  (1) 
2
5
10

$$$$
