2598
     RDKit          3D

 16 17  0  0  0  0  0  0  0  0999 V2000
   -0.4880    2.1857   -0.1671 O   0  0  0  0  0  0  0  0  0  0  0  0
    1.1481   -2.8950    0.0834 O   0  0  0  0  0  0  0  0  0  0  0  0
   -4.9950    0.8579    0.7784 O   0  0  0  0  0  0  0  0  0  0  0  0
   -2.4065    0.2337   -0.1916 N   0  0  0  0  0  0  0  0  0  0  0  0
    3.6082    1.4816    0.0477 N   0  0  0  0  0  0  0  0  0  0  0  0
   -1.0878   -0.1121   -0.1174 C   0  0  0  0  0  0  0  0  0  0  0  0
    1.3209    0.6974   -0.0319 C   0  0  0  0  0  0  0  0  0  0  0  0
    1.7627   -0.6189    0.0337 C   0  0  0  0  0  0  0  0  0  0  0  0
   -0.1148    1.0190   -0.1095 C   0  0  0  0  0  0  0  0  0  0  0  0
   -3.4786   -0.7266   -0.1763 C   0  0  0  0  0  0  0  0  0  0  0  0
   -0.6415   -1.3733   -0.0533 C   0  0  0  0  0  0  0  0  0  0  0  0
    0.7920   -1.7246    0.0265 C   0  0  0  0  0  0  0  0  0  0  0  0
    3.1284   -0.8888    0.1064 C   0  0  0  0  0  0  0  0  0  0  0  0
   -4.8236   -0.0318   -0.3169 C   0  0  0  0  0  0  0  0  0  0  0  0
    2.2763    1.7065   -0.0220 C   0  0  0  0  0  0  0  0  0  0  0  0
    3.9993    0.1893    0.1099 C   0  0  0  0  0  0  0  0  0  0  0  0
  1  9  2  0
  2 12  2  0
  3 14  1  0
  4  6  1  0
  4 10  1  0
  5 15  2  0
  5 16  1  0
  6  9  1  0
  6 11  2  0
  7  8  2  0
  7  9  1  0
  7 15  1  0
  8 12  1  0
  8 13  1  0
 10 14  1  0
 11 12  1  0
 13 16  2  0
M  END
>  <PUBCHEM_COMPOUND_CID>  (1) 
2598

>  <PUBCHEM_CONFORMER_RMSD>  (1) 
0.6

>  <PUBCHEM_CONFORMER_DIVERSEORDER>  (1) 
1
10
5
9
11
6
3
8
4
7
2

>  <PUBCHEM_MMFF94_PARTIAL_CHARGES>  (1) 
22
1 -0.57
10 0.37
11 -0.14
12 0.47
13 -0.15
14 0.28
15 0.16
16 0.16
17 0.4
2 -0.57
20 0.15
21 0.15
24 0.15
25 0.15
26 0.4
3 -0.68
4 -0.87
5 -0.62
6 0.11
7 0.09
8 0.09
9 0.47

>  <PUBCHEM_EFFECTIVE_ROTOR_COUNT>  (1) 
3

>  <PUBCHEM_PHARMACOPHORE_FEATURES>  (1) 
9
1 1 acceptor
1 2 acceptor
1 3 acceptor
1 3 donor
1 4 cation
1 4 donor
1 5 acceptor
6 5 7 8 13 15 16 rings
6 6 7 8 9 11 12 rings

>  <PUBCHEM_HEAVY_ATOM_COUNT>  (1) 
16

>  <PUBCHEM_ATOM_DEF_STEREO_COUNT>  (1) 
0

>  <PUBCHEM_ATOM_UDEF_STEREO_COUNT>  (1) 
0

>  <PUBCHEM_BOND_DEF_STEREO_COUNT>  (1) 
0

>  <PUBCHEM_BOND_UDEF_STEREO_COUNT>  (1) 
0

>  <PUBCHEM_ISOTOPIC_ATOM_COUNT>  (1) 
0

>  <PUBCHEM_COMPONENT_COUNT>  (1) 
1

>  <PUBCHEM_CACTVS_TAUTO_COUNT>  (1) 
3

>  <PUBCHEM_CONFORMER_ID>  (1) 
00000A2600000001

>  <PUBCHEM_MMFF94_ENERGY>  (1) 
39.9395

>  <PUBCHEM_FEATURE_SELFOVERLAP>  (1) 
45.697

>  <PUBCHEM_SHAPE_FINGERPRINT>  (1) 
10411042 1 17834113048223534538
10967382 1 18410008849429064750
10980938 120 18410007728400415503
11132069 177 18338508733202769219
11471102 20 18410006637309774445
12236239 1 17918274243149141055
12644460 14 18261110733884850506
13140716 1 18337664338691044370
13380535 76 18335982051219184978
13862211 1 18409722942057050346
14251717 144 18411696595298156327
14790565 3 18337400460000848516
15196674 1 18338234971992726791
15375358 24 18259703398162183835
15442244 35 18052822442764689449
15536298 74 18272089378989163286
16945 1 18338230475578673294
17834072 33 18272081730485891639
18186145 218 18410288129313419148
193761 8 17977943488793963716
19784866 9 18412263921991862721
20645477 70 18341891862231743839
21267235 1 18411144614506722566
21421861 104 17898568679248827795
21452121 103 18271795861393926328
21501502 16 18193556653622140128
2334 1 18121779697337926518
23402539 116 18272643593242738422
23402655 69 18272368706461042653
23463225 33 18335416885283710734
25 1 18408880763030564079
2748010 2 18265619977505351382
2871803 45 18336824204174459791
3071541 37 18334298656283755246
335352 9 18410572912190453270
33824 294 18408602556518794891
4072396 5 18262499434371750986
42630746 31 18413389830488925559
449060 62 18413107259968363747
4990 188 17918001593517905806
5104073 3 18410009978937055123
528886 8 18338791325166388994
53655031 270 18342176648364235417
537710 114 18409451418329478732
53812653 166 18341045332492979160
633830 44 18343022224229396263
69090 78 18341607169881260638
7364860 26 18341613651235122446
8272917 22 18341336591642820279

>  <PUBCHEM_SHAPE_MULTIPOLES>  (1) 
301.7
7.86
2.13
0.63
8.36
0.6
0.01
-1.72
0.59
-1.11
0.02
0.18
-0.02
-0.23

>  <PUBCHEM_SHAPE_SELFOVERLAP>  (1) 
650.061

>  <PUBCHEM_SHAPE_VOLUME>  (1) 
163.9

>  <PUBCHEM_COORDINATE_TYPE>  (1) 
2
5
10

$$$$
