25987
     RDKit          3D

 16 16  0  0  0  0  0  0  0  0999 V2000
   -1.0652    0.1402   -0.8577 S   0  0  0  0  0  0  0  0  0  0  0  0
    3.5305   -1.4406   -0.2668 S   0  0  0  0  0  0  0  0  0  0  0  0
    4.6055    1.3004    0.2769 S   0  0  0  0  0  0  0  0  0  0  0  0
   -4.4570    0.6465   -1.6426 S   0  0  0  0  0  0  0  0  0  0  0  0
   -3.0974    0.3420   -0.2610 P   0  0  0  0  0  0  0  0  0  0  0  0
   -3.1365    1.4838    0.9090 O   0  0  0  0  0  0  0  0  0  0  0  0
   -3.4510   -0.9518    0.6748 O   0  0  0  0  0  0  0  0  0  0  0  0
    1.2795   -2.8000   -0.2522 O   0  0  0  0  0  0  0  0  0  0  0  0
    1.2161   -0.5307    0.3560 N   0  0  0  0  0  0  0  0  0  0  0  0
    2.0536    0.5506    0.5017 N   0  0  0  0  0  0  0  0  0  0  0  0
   -0.1793   -0.3603    0.6306 C   0  0  0  0  0  0  0  0  0  0  0  0
    1.8093   -1.7174   -0.0544 C   0  0  0  0  0  0  0  0  0  0  0  0
    3.2643    0.2084    0.2111 C   0  0  0  0  0  0  0  0  0  0  0  0
   -2.8824    2.8428    0.5934 C   0  0  0  0  0  0  0  0  0  0  0  0
   -3.5397   -2.2468    0.1039 C   0  0  0  0  0  0  0  0  0  0  0  0
    4.0498    2.5328   -0.9227 C   0  0  0  0  0  0  0  0  0  0  0  0
  1  5  1  0
  1 11  1  0
  2 12  1  0
  2 13  1  0
  3 13  1  0
  3 16  1  0
  4  5  2  0
  5  6  1  0
  5  7  1  0
  6 14  1  0
  7 15  1  0
  8 12  2  0
  9 10  1  0
  9 11  1  0
  9 12  1  0
 10 13  2  0
M  END
>  <PUBCHEM_COMPOUND_CID>  (1) 
25987

>  <PUBCHEM_CONFORMER_RMSD>  (1) 
0.8

>  <PUBCHEM_CONFORMER_DIVERSEORDER>  (1) 
1
31
25
73
13
88
48
56
12
70
39
96
34
63
30
29
53
78
97
81
54
87
6
71
50
92
23
43
69
57
95
52
77
60
46
68
64
36
16
45
83
26
90
51
35
28
11
24
80
76
85
47
89
84
8
44
94
86
4
42
32
14
21
79
27
38
74
41
7
59
40
66
91
58
65
18
33
75
17
67
19
37
49
20
55
15
61
2
22
9
72
5
82
3
93
10
62

>  <PUBCHEM_MMFF94_PARTIAL_CHARGES>  (1) 
16
1 -0.48
10 -0.51
11 0.53
12 0.77
13 0.73
14 0.28
15 0.28
16 0.23
2 -0.28
3 -0.37
4 -0.68
5 1.47
6 -0.55
7 -0.55
8 -0.57
9 -0.3

>  <PUBCHEM_EFFECTIVE_ROTOR_COUNT>  (1) 
6

>  <PUBCHEM_PHARMACOPHORE_FEATURES>  (1) 
3
1 10 acceptor
1 16 hydrophobe
5 2 9 10 12 13 rings

>  <PUBCHEM_HEAVY_ATOM_COUNT>  (1) 
16

>  <PUBCHEM_ATOM_DEF_STEREO_COUNT>  (1) 
0

>  <PUBCHEM_ATOM_UDEF_STEREO_COUNT>  (1) 
0

>  <PUBCHEM_BOND_DEF_STEREO_COUNT>  (1) 
0

>  <PUBCHEM_BOND_UDEF_STEREO_COUNT>  (1) 
0

>  <PUBCHEM_ISOTOPIC_ATOM_COUNT>  (1) 
0

>  <PUBCHEM_COMPONENT_COUNT>  (1) 
1

>  <PUBCHEM_CACTVS_TAUTO_COUNT>  (1) 
1

>  <PUBCHEM_CONFORMER_ID>  (1) 
0000658300000001

>  <PUBCHEM_MMFF94_ENERGY>  (1) 
10.4875

>  <PUBCHEM_FEATURE_SELFOVERLAP>  (1) 
15.223

>  <PUBCHEM_SHAPE_FINGERPRINT>  (1) 
10014705 185 17967525775351171917
10366900 7 18130495414479080153
11132069 177 17894347774099776293
14289901 80 18410576192791203834
14415576 193 18412547578933304660
14787075 74 18118121613372418755
15375358 24 18040425573589005191
18186145 218 18261395494732854290
20645477 56 17895191052964743277
20645477 70 18201711808654128766
21524375 3 18261671588553354104
21709351 56 18341048493847307158
23402539 116 17603855720042037558
23402655 69 18342735208871538814
23532345 1 18336542729097567773
23557571 272 18334576892907846107
23559900 14 18337665326591674482
474 4 18334011705302895860
58051976 378 18342173388536759886
633830 44 18271814484102745510
9709674 26 18200032811765352639

>  <PUBCHEM_SHAPE_MULTIPOLES>  (1) 
320.95
10.14
2.93
1.07
0.33
0.21
-0.26
3.66
-1.46
0.29
0.06
-0.87
0.38
-0.3

>  <PUBCHEM_SHAPE_SELFOVERLAP>  (1) 
562.902

>  <PUBCHEM_SHAPE_VOLUME>  (1) 
215.1

>  <PUBCHEM_COORDINATE_TYPE>  (1) 
2
5
10

$$$$
