25991
     RDKit          3D

 11 10  0  0  0  0  0  0  0  0999 V2000
    2.5007    0.0102   -0.0003 N   0  0  0  0  0  0  0  0  0  0  0  0
   -2.4743   -0.0091   -0.0042 N   0  0  0  0  0  0  0  0  0  0  0  0
    1.2886   -0.8969   -0.1554 C   0  0  0  0  0  0  0  0  0  0  0  0
   -1.2959   -0.8887   -0.1836 C   0  0  0  0  0  0  0  0  0  0  0  0
   -0.0030   -0.1017    0.0025 C   0  0  0  0  0  0  0  0  0  0  0  0
    2.4788    0.6548    1.3783 C   0  0  0  0  0  0  0  0  0  0  0  0
    3.7722   -0.8114   -0.1560 C   0  0  0  0  0  0  0  0  0  0  0  0
    2.4631    1.0943   -1.0677 C   0  0  0  0  0  0  0  0  0  0  0  0
   -2.4443    0.6732    1.3715 C   0  0  0  0  0  0  0  0  0  0  0  0
   -2.5069    1.0885   -1.0780 C   0  0  0  0  0  0  0  0  0  0  0  0
   -3.7789   -0.8130   -0.1070 C   0  0  0  0  0  0  0  0  0  0  0  0
  1  3  1  0
  1  6  1  0
  1  7  1  0
  1  8  1  0
  2  4  1  0
  2  9  1  0
  2 10  1  0
  2 11  1  0
  3  5  1  0
  4  5  1  0
M  CHG  2   1   1   2   1
M  END
>  <PUBCHEM_COMPOUND_CID>  (1) 
25991

>  <PUBCHEM_CONFORMER_RMSD>  (1) 
0.6

>  <PUBCHEM_CONFORMER_DIVERSEORDER>  (1) 
1
2

>  <PUBCHEM_MMFF94_PARTIAL_CHARGES>  (1) 
10
1 -1.01
10 0.5
11 0.5
2 -1.01
3 0.5
4 0.5
6 0.5
7 0.5
8 0.5
9 0.5

>  <PUBCHEM_EFFECTIVE_ROTOR_COUNT>  (1) 
4

>  <PUBCHEM_PHARMACOPHORE_FEATURES>  (1) 
2
1 1 cation
1 2 cation

>  <PUBCHEM_HEAVY_ATOM_COUNT>  (1) 
11

>  <PUBCHEM_ATOM_DEF_STEREO_COUNT>  (1) 
0

>  <PUBCHEM_ATOM_UDEF_STEREO_COUNT>  (1) 
0

>  <PUBCHEM_BOND_DEF_STEREO_COUNT>  (1) 
0

>  <PUBCHEM_BOND_UDEF_STEREO_COUNT>  (1) 
0

>  <PUBCHEM_ISOTOPIC_ATOM_COUNT>  (1) 
0

>  <PUBCHEM_COMPONENT_COUNT>  (1) 
1

>  <PUBCHEM_CACTVS_TAUTO_COUNT>  (1) 
1

>  <PUBCHEM_CONFORMER_ID>  (1) 
0000658700000001

>  <PUBCHEM_MMFF94_ENERGY>  (1) 
44.876

>  <PUBCHEM_FEATURE_SELFOVERLAP>  (1) 
10.149

>  <PUBCHEM_SHAPE_FINGERPRINT>  (1) 
11062470 55 8718828682330361143
12162725 195 17821445759495365813
124424 183 17095794434898180550
12932764 1 18411975858192675122
14144814 61 16153422831209863377
14325111 11 18408041814173087574
14390081 3 17775283867599086587
15775835 57 18412267245953697093
18186145 218 17989488519651637162
190213 19 18413670209900666558
20201158 50 7925914785338111148
20281407 28 13262396661129487654
20645477 70 12324505533291687224
21028194 46 18341892995633448783
23402539 116 16917057841866835181
3248919 1 18411141341757343803
5084963 1 18410293609691746970
57812782 119 18408597071940217511
8030462 33 17846218834516363255

>  <PUBCHEM_SHAPE_MULTIPOLES>  (1) 
216.41
6.85
1.19
1.19
0
0.07
-0.27
-0.44
0.09
0.01
0.18
0
0.46
0.02

>  <PUBCHEM_SHAPE_SELFOVERLAP>  (1) 
385.21

>  <PUBCHEM_SHAPE_VOLUME>  (1) 
144.2

>  <PUBCHEM_COORDINATE_TYPE>  (1) 
2
5
10

$$$$
