25995
     RDKit          3D

 14 13  0  0  0  0  0  0  0  0999 V2000
    3.0892    0.3619   -0.1697 N   0  0  0  0  0  0  0  0  0  0  0  0
   -3.0900   -0.3611   -0.1749 N   0  0  0  0  0  0  0  0  0  0  0  0
    1.8704   -0.4826   -0.1694 C   0  0  0  0  0  0  0  0  0  0  0  0
   -1.8718    0.4843   -0.1763 C   0  0  0  0  0  0  0  0  0  0  0  0
    0.6421    0.4152   -0.1780 C   0  0  0  0  0  0  0  0  0  0  0  0
   -0.6430   -0.4120   -0.1313 C   0  0  0  0  0  0  0  0  0  0  0  0
    4.3556   -0.5059   -0.1940 C   0  0  0  0  0  0  0  0  0  0  0  0
   -4.3571    0.5059   -0.1868 C   0  0  0  0  0  0  0  0  0  0  0  0
    3.1177    1.2800   -1.4001 C   0  0  0  0  0  0  0  0  0  0  0  0
    3.1417    1.2456    1.0848 C   0  0  0  0  0  0  0  0  0  0  0  0
   -3.1247   -1.2717   -1.4107 C   0  0  0  0  0  0  0  0  0  0  0  0
   -3.1348   -1.2524    1.0745 C   0  0  0  0  0  0  0  0  0  0  0  0
    4.3545   -1.4228    1.0096 C   0  0  0  0  0  0  0  0  0  0  0  0
   -4.3499    1.4154    1.0224 C   0  0  0  0  0  0  0  0  0  0  0  0
  1  3  1  0
  1  7  1  0
  1  9  1  0
  1 10  1  0
  2  4  1  0
  2  8  1  0
  2 11  1  0
  2 12  1  0
  3  5  1  0
  4  6  1  0
  5  6  1  0
  7 13  1  0
  8 14  1  0
M  CHG  2   1   1   2   1
M  END
>  <PUBCHEM_COMPOUND_CID>  (1) 
25995

>  <PUBCHEM_CONFORMER_RMSD>  (1) 
0.8

>  <PUBCHEM_CONFORMER_DIVERSEORDER>  (1) 
26
21
14
13
4
11
10
3
7
1
19
8
16
2
9
6
18
24
27
23
5
22
12
25
15
17
20

>  <PUBCHEM_MMFF94_PARTIAL_CHARGES>  (1) 
10
1 -1.01
10 0.5
11 0.5
12 0.5
2 -1.01
3 0.5
4 0.5
7 0.5
8 0.5
9 0.5

>  <PUBCHEM_EFFECTIVE_ROTOR_COUNT>  (1) 
7

>  <PUBCHEM_PHARMACOPHORE_FEATURES>  (1) 
2
1 1 cation
1 2 cation

>  <PUBCHEM_HEAVY_ATOM_COUNT>  (1) 
14

>  <PUBCHEM_ATOM_DEF_STEREO_COUNT>  (1) 
0

>  <PUBCHEM_ATOM_UDEF_STEREO_COUNT>  (1) 
0

>  <PUBCHEM_BOND_DEF_STEREO_COUNT>  (1) 
0

>  <PUBCHEM_BOND_UDEF_STEREO_COUNT>  (1) 
0

>  <PUBCHEM_ISOTOPIC_ATOM_COUNT>  (1) 
0

>  <PUBCHEM_COMPONENT_COUNT>  (1) 
1

>  <PUBCHEM_CACTVS_TAUTO_COUNT>  (1) 
1

>  <PUBCHEM_CONFORMER_ID>  (1) 
0000658B0000001A

>  <PUBCHEM_MMFF94_ENERGY>  (1) 
53.1693

>  <PUBCHEM_FEATURE_SELFOVERLAP>  (1) 
10.149

>  <PUBCHEM_SHAPE_FINGERPRINT>  (1) 
10014705 185 18343015597744081221
10680689 15 17988932209981516575
11405975 8 18410575084663079280
11543360 7 9223227446791312004
12500047 106 17632292363606899687
12507557 5 16845565443897218010
12932764 1 18131355249261220580
13167823 11 18342452664311237182
13296908 3 17822012050922806690
13675066 3 18410575093253013554
14004511 7 18410857642235311817
14252887 29 16950280711456421500
14455015 7 16660930971931851738
15375358 24 15697997422693258094
18186145 218 16877657989378479060
190213 19 18113614620646797454
19026448 5 18410855490192933156
19050596 39 18411699876510609234
19433438 15 18342459248585331157
20279233 1 16917071053128150615
20281475 54 18186521041935347151
20645477 56 17917718981097703657
20645477 70 17821446850860417474
212847 35 18413111645325450688
22485316 2 18201433696778747894
22646028 1 18411693292616076750
2306618 200 17132121238808579283
23402539 116 17704064084384176980
23402655 69 18201723959438043748
23532345 1 13110959829809615766
23557571 272 16845584127274337661
23559900 14 18040715883577077170
42 15 18409164390202446010
5104073 3 18410855485897966459
522135 26 17749109980931902590
573450 72 18201711851809269583
633830 44 18113337526510491398
6430166 295 18060420175260054481
77779 3 17967537895142109047
90127 26 18130516317710493272

>  <PUBCHEM_SHAPE_MULTIPOLES>  (1) 
278.15
10.76
1.49
1.24
0.01
0
0.08
0.01
-1.53
0.01
-0.18
-0.01
0
-1.07

>  <PUBCHEM_SHAPE_SELFOVERLAP>  (1) 
504.529

>  <PUBCHEM_SHAPE_VOLUME>  (1) 
181.4

>  <PUBCHEM_COORDINATE_TYPE>  (1) 
2
5
10

$$$$
