26008
     RDKit          3D

 22 24  0  0  0  0  0  0  0  0999 V2000
    1.7994    0.6104   -2.8031 O   0  0  0  0  0  0  0  0  0  0  0  0
    0.0157   -0.1698    0.8299 N   0  0  0  0  0  0  0  0  0  0  0  0
   -2.4897   -2.1859   -0.6540 N   0  0  0  0  0  0  0  0  0  0  0  0
    0.2237    1.6221   -1.5279 N   0  0  0  0  0  0  0  0  0  0  0  0
   -0.6160   -1.2894    1.5398 C   0  0  0  0  0  0  0  0  0  0  0  0
   -0.4790   -2.5838    0.7389 C   0  0  0  0  0  0  0  0  0  0  0  0
   -0.7451    1.0072    0.6800 C   0  0  0  0  0  0  0  0  0  0  0  0
    1.4053   -0.2591    0.6254 C   0  0  0  0  0  0  0  0  0  0  0  0
   -1.0723   -2.5263   -0.6723 C   0  0  0  0  0  0  0  0  0  0  0  0
   -0.6188    1.8585   -0.4276 C   0  0  0  0  0  0  0  0  0  0  0  0
    2.0358    0.2427   -0.5194 C   0  0  0  0  0  0  0  0  0  0  0  0
   -1.6995    1.3674    1.6633 C   0  0  0  0  0  0  0  0  0  0  0  0
    2.2317   -0.8536    1.6097 C   0  0  0  0  0  0  0  0  0  0  0  0
    1.3210    0.8077   -1.6831 C   0  0  0  0  0  0  0  0  0  0  0  0
   -1.4519    2.9901   -0.5496 C   0  0  0  0  0  0  0  0  0  0  0  0
    3.4368    0.1492   -0.6598 C   0  0  0  0  0  0  0  0  0  0  0  0
   -2.5013    2.5044    1.5472 C   0  0  0  0  0  0  0  0  0  0  0  0
    3.6176   -0.9411    1.4668 C   0  0  0  0  0  0  0  0  0  0  0  0
   -3.2579   -3.2140    0.0507 C   0  0  0  0  0  0  0  0  0  0  0  0
   -2.9976   -2.0182   -2.0169 C   0  0  0  0  0  0  0  0  0  0  0  0
   -2.3804    3.3167    0.4333 C   0  0  0  0  0  0  0  0  0  0  0  0
    4.2223   -0.4352    0.3289 C   0  0  0  0  0  0  0  0  0  0  0  0
  1 14  2  0
  2  5  1  0
  2  7  1  0
  2  8  1  0
  3  9  1  0
  3 19  1  0
  3 20  1  0
  4 10  1  0
  4 14  1  0
  5  6  1  0
  6  9  1  0
  7 10  2  0
  7 12  1  0
  8 11  2  0
  8 13  1  0
 10 15  1  0
 11 14  1  0
 11 16  1  0
 12 17  2  0
 13 18  2  0
 15 21  2  0
 16 22  2  0
 17 21  1  0
 18 22  1  0
M  END
>  <PUBCHEM_COMPOUND_CID>  (1) 
26008

>  <PUBCHEM_CONFORMER_RMSD>  (1) 
0.8

>  <PUBCHEM_CONFORMER_DIVERSEORDER>  (1) 
3
11
1
10
12
6
7
5
9
8
4
2

>  <PUBCHEM_MMFF94_PARTIAL_CHARGES>  (1) 
30
1 -0.57
10 0.12
11 0.09
12 -0.15
13 -0.15
14 0.54
15 -0.15
16 -0.15
17 -0.15
18 -0.15
19 0.27
2 -0.57
20 0.27
21 -0.15
22 -0.15
29 0.15
3 -0.81
30 0.15
31 0.37
32 0.15
33 0.15
34 0.15
35 0.15
4 -0.55
42 0.15
43 0.15
5 0.37
7 0.1
8 0.1
9 0.27

>  <PUBCHEM_EFFECTIVE_ROTOR_COUNT>  (1) 
4.4

>  <PUBCHEM_PHARMACOPHORE_FEATURES>  (1) 
7
1 1 acceptor
1 2 cation
1 3 cation
1 4 donor
6 7 10 12 15 17 21 rings
6 8 11 13 16 18 22 rings
7 2 4 7 8 10 11 14 rings

>  <PUBCHEM_HEAVY_ATOM_COUNT>  (1) 
22

>  <PUBCHEM_ATOM_DEF_STEREO_COUNT>  (1) 
0

>  <PUBCHEM_ATOM_UDEF_STEREO_COUNT>  (1) 
0

>  <PUBCHEM_BOND_DEF_STEREO_COUNT>  (1) 
0

>  <PUBCHEM_BOND_UDEF_STEREO_COUNT>  (1) 
0

>  <PUBCHEM_ISOTOPIC_ATOM_COUNT>  (1) 
0

>  <PUBCHEM_COMPONENT_COUNT>  (1) 
1

>  <PUBCHEM_CACTVS_TAUTO_COUNT>  (1) 
2

>  <PUBCHEM_CONFORMER_ID>  (1) 
0000659800000003

>  <PUBCHEM_MMFF94_ENERGY>  (1) 
97.9224

>  <PUBCHEM_FEATURE_SELFOVERLAP>  (1) 
35.536

>  <PUBCHEM_SHAPE_FINGERPRINT>  (1) 
10064457 181 17982450395482920290
104564 63 18340475712487463251
10764073 3 16821016759748912137
11578080 2 18116689980403405772
11582403 64 16265119885698718040
12035759 4 18042948926646523747
12422481 6 18054820324223099379
12788726 201 18339650039167806751
13004483 165 18268980067780967898
13134695 92 17837749477047526911
13583140 156 17273669041569795922
13681431 1 17694774525368337251
14004458 79 18271249412451342803
14817 1 15156535345314848183
14863182 85 17905343822865954905
16945 1 18340192012564225456
17138139 8 17551176945825032949
20600515 1 17771351060599249594
21524375 3 18119253861140711584
22112679 90 18193298457331211681
23419403 2 17472644490629556640
266924 78 16227480544663314854
2748010 2 16162724433367313733
2803657 2 18187653564702761852
35225 105 17916286278285532271
4340502 62 17771339773868313913
5845 1 12625884011195761275
6438718 38 18341068344933045507
81228 2 18411132580092632354
84936 31 17260740751177963249

>  <PUBCHEM_SHAPE_MULTIPOLES>  (1) 
431.94
5.46
3.94
2.06
4.03
0.63
0.76
1.12
-0.43
-5.92
0.14
0.22
-0.14
-1.85

>  <PUBCHEM_SHAPE_SELFOVERLAP>  (1) 
926.462

>  <PUBCHEM_SHAPE_VOLUME>  (1) 
238.5

>  <PUBCHEM_COORDINATE_TYPE>  (1) 
2
5
10

$$$$
