2600
     RDKit          3D

 17 18  0  0  0  0  0  0  0  0999 V2000
    3.1426    1.2983    0.1542 O   0  0  0  0  0  0  0  0  0  0  0  0
   -4.5970   -1.0826    0.8427 O   0  0  0  0  0  0  0  0  0  0  0  0
   -2.0743   -0.3946   -0.2075 N   0  0  0  0  0  0  0  0  0  0  0  0
    2.4678   -2.8201    0.0212 N   0  0  0  0  0  0  0  0  0  0  0  0
    1.1825    3.1329    0.0684 N   0  0  0  0  0  0  0  0  0  0  0  0
   -0.7782    0.0442   -0.1186 C   0  0  0  0  0  0  0  0  0  0  0  0
    0.3246   -0.9562   -0.0717 C   0  0  0  0  0  0  0  0  0  0  0  0
    1.6608   -0.5426    0.0206 C   0  0  0  0  0  0  0  0  0  0  0  0
   -0.4996    1.3593   -0.0739 C   0  0  0  0  0  0  0  0  0  0  0  0
   -3.2001    0.4932   -0.2918 C   0  0  0  0  0  0  0  0  0  0  0  0
    0.8773    1.8795    0.0226 C   0  0  0  0  0  0  0  0  0  0  0  0
    1.9964    0.8871    0.0725 C   0  0  0  0  0  0  0  0  0  0  0  0
    0.0977   -2.3393   -0.1162 C   0  0  0  0  0  0  0  0  0  0  0  0
    2.6803   -1.4897    0.0634 C   0  0  0  0  0  0  0  0  0  0  0  0
   -4.5011   -0.2923   -0.3350 C   0  0  0  0  0  0  0  0  0  0  0  0
    1.1808   -3.2103   -0.0677 C   0  0  0  0  0  0  0  0  0  0  0  0
    0.0394    4.0332    0.0169 C   0  0  0  0  0  0  0  0  0  0  0  0
  1 12  2  0
  2 15  1  0
  3  6  1  0
  3 10  1  0
  4 14  2  0
  4 16  1  0
  5 11  2  0
  5 17  1  0
  6  7  1  0
  6  9  2  0
  7  8  2  0
  7 13  1  0
  8 12  1  0
  8 14  1  0
  9 11  1  0
 10 15  1  0
 11 12  1  0
 13 16  2  0
M  END
>  <PUBCHEM_COMPOUND_CID>  (1) 
2600

>  <PUBCHEM_CONFORMER_RMSD>  (1) 
0.6

>  <PUBCHEM_CONFORMER_DIVERSEORDER>  (1) 
1
8
9
7
5
6
2
4
3

>  <PUBCHEM_MMFF94_PARTIAL_CHARGES>  (1) 
23
1 -0.57
10 0.37
11 0.44
12 0.48
13 -0.15
14 0.16
15 0.28
16 0.16
17 0.25
18 0.4
19 0.15
2 -0.68
22 0.15
23 0.15
26 0.15
3 -0.87
30 0.4
4 -0.62
5 -0.7
6 0.07
7 0.03
8 0.09
9 -0.14

>  <PUBCHEM_EFFECTIVE_ROTOR_COUNT>  (1) 
3

>  <PUBCHEM_PHARMACOPHORE_FEATURES>  (1) 
9
1 1 acceptor
1 2 acceptor
1 2 donor
1 3 cation
1 3 donor
1 4 acceptor
1 5 acceptor
6 4 7 8 13 14 16 rings
6 6 7 8 9 11 12 rings

>  <PUBCHEM_HEAVY_ATOM_COUNT>  (1) 
17

>  <PUBCHEM_ATOM_DEF_STEREO_COUNT>  (1) 
0

>  <PUBCHEM_ATOM_UDEF_STEREO_COUNT>  (1) 
0

>  <PUBCHEM_BOND_DEF_STEREO_COUNT>  (1) 
0

>  <PUBCHEM_BOND_UDEF_STEREO_COUNT>  (1) 
0

>  <PUBCHEM_ISOTOPIC_ATOM_COUNT>  (1) 
0

>  <PUBCHEM_COMPONENT_COUNT>  (1) 
1

>  <PUBCHEM_CACTVS_TAUTO_COUNT>  (1) 
2

>  <PUBCHEM_CONFORMER_ID>  (1) 
00000A2800000001

>  <PUBCHEM_MMFF94_ENERGY>  (1) 
51.6309

>  <PUBCHEM_FEATURE_SELFOVERLAP>  (1) 
45.704

>  <PUBCHEM_SHAPE_FINGERPRINT>  (1) 
10411042 1 18194964045707350119
10493431 412 18124871515424413640
10967382 1 18411134753393432902
1100329 8 18123748922795343672
11471102 20 18410567397178021487
116883 192 17836361554017901709
12553582 1 18122913031822771379
13140716 1 17978503466466778512
13380536 305 18267307714552367309
138480 1 18410854330572946436
14251717 144 18411131450843352111
14790565 3 18265906924076095356
15042514 8 16897083838548272483
15442244 35 18196937669590430337
16945 1 18266733765351088292
193761 8 17979069380269400100
19591789 44 17905614658865463623
20645477 70 18336816538328126319
21041028 32 18267018362642260229
21197605 99 17760381285372991059
221490 88 18335988601492795211
2255824 54 18340487880219042021
2334 1 18411133602400427716
23557571 272 17336460840260986070
23558518 356 17901393286171586952
23598291 2 18060409218988439087
238 59 17759191462960382469
2748010 2 18267007380648521084
3060560 45 18339921627124546972
3091708 16 9214596306336107633
33824 294 18409445929593376459
54173680 148 17474386877024933166
6443956 14 18336828581089194701
7364860 26 18411135853063394191
81228 2 17474087822783938329
8272917 22 18412549821096111383

>  <PUBCHEM_SHAPE_MULTIPOLES>  (1) 
323.17
5.61
4.25
0.64
7.69
2.81
-0.02
-3.16
-0.38
-2.22
-0.09
0.2
-0.06
0.28

>  <PUBCHEM_SHAPE_SELFOVERLAP>  (1) 
688.227

>  <PUBCHEM_SHAPE_VOLUME>  (1) 
178.9

>  <PUBCHEM_COORDINATE_TYPE>  (1) 
2
5
10

$$$$
