26019
     RDKit          3D

 32 35  0  0  1  0  0  0  0  0999 V2000
   -4.7136   -1.2318    0.9665 O   0  0  0  0  0  0  0  0  0  0  0  0
   -4.0658   -2.2965   -0.9785 O   0  0  0  0  0  0  0  0  0  0  0  0
    0.0377    0.0514   -0.3502 N   0  0  0  0  0  0  0  0  0  0  0  0
    3.5599    1.0637    0.4015 N   0  0  0  0  0  0  0  0  0  0  0  0
    6.4073    1.5618    0.3479 N   0  0  0  0  0  0  0  0  0  0  0  0
   -2.9245   -0.2933   -0.2377 C   0  0  0  0  0  0  0  0  0  0  0  0
   -1.9835   -0.4845    0.9822 C   0  0  0  0  0  0  0  0  0  0  0  0
   -2.0609   -0.5429   -1.5029 C   0  0  0  0  0  0  0  0  0  0  0  0
   -0.6916    0.3386    0.8898 C   0  0  0  0  0  0  0  0  0  0  0  0
   -0.7944    0.3178   -1.5286 C   0  0  0  0  0  0  0  0  0  0  0  0
    1.2769    0.8259   -0.4094 C   0  0  0  0  0  0  0  0  0  0  0  0
    2.3917    0.1864    0.4414 C   0  0  0  0  0  0  0  0  0  0  0  0
   -3.6844    1.0398   -0.3002 C   0  0  0  0  0  0  0  0  0  0  0  0
    4.3875    0.8850    1.6008 C   0  0  0  0  0  0  0  0  0  0  0  0
    4.3537    0.8205   -0.8092 C   0  0  0  0  0  0  0  0  0  0  0  0
   -3.9541   -1.4002   -0.1532 C   0  0  0  0  0  0  0  0  0  0  0  0
    2.7501   -1.2301    0.0241 C   0  0  0  0  0  0  0  0  0  0  0  0
    5.6139    1.8030    1.5593 C   0  0  0  0  0  0  0  0  0  0  0  0
    5.5794    1.7396   -0.8512 C   0  0  0  0  0  0  0  0  0  0  0  0
   -4.5747    1.2867   -1.3453 C   0  0  0  0  0  0  0  0  0  0  0  0
   -3.4848    2.0037    0.6883 C   0  0  0  0  0  0  0  0  0  0  0  0
    3.2172   -2.1397    0.9731 C   0  0  0  0  0  0  0  0  0  0  0  0
    2.6115   -1.6212   -1.3076 C   0  0  0  0  0  0  0  0  0  0  0  0
    7.5743    2.4409    0.3080 C   0  0  0  0  0  0  0  0  0  0  0  0
   -5.2651    2.4974   -1.4022 C   0  0  0  0  0  0  0  0  0  0  0  0
   -4.1754    3.2143    0.6314 C   0  0  0  0  0  0  0  0  0  0  0  0
   -5.0656    3.4611   -0.4139 C   0  0  0  0  0  0  0  0  0  0  0  0
   -5.7336   -2.2146    1.1712 C   0  0  0  0  0  0  0  0  0  0  0  0
    3.5459   -3.4400    0.5902 C   0  0  0  0  0  0  0  0  0  0  0  0
    2.9402   -2.9217   -1.6904 C   0  0  0  0  0  0  0  0  0  0  0  0
    3.4074   -3.8311   -0.7414 C   0  0  0  0  0  0  0  0  0  0  0  0
   -6.4826   -1.8898    2.4460 C   0  0  0  0  0  0  0  0  0  0  0  0
  1 16  1  0
  1 28  1  0
  2 16  2  0
  3  9  1  0
  3 10  1  0
  3 11  1  0
  4 12  1  0
  4 14  1  0
  4 15  1  0
  5 18  1  0
  5 19  1  0
  5 24  1  0
  6  7  1  0
  6  8  1  0
  6 13  1  0
  6 16  1  0
  7  9  1  0
  8 10  1  0
 11 12  1  0
 12 17  1  0
 13 20  2  0
 13 21  1  0
 14 18  1  0
 15 19  1  0
 17 22  2  0
 17 23  1  0
 20 25  1  0
 21 26  2  0
 22 29  1  0
 23 30  2  0
 25 27  2  0
 26 27  1  0
 28 32  1  0
 29 31  2  0
 30 31  1  0
M  END
>  <PUBCHEM_COMPOUND_CID>  (1) 
26019

>  <PUBCHEM_CONFORMER_RMSD>  (1) 
1

>  <PUBCHEM_CONFORMER_DIVERSEORDER>  (1) 
1
119
95
140
138
110
29
121
59
153
35
86
134
87
132
81
99
47
149
80
33
65
62
79
68
152
113
73
31
89
156
116
104
13
58
18
145
55
100
151
125
76
39
23
106
25
78
61
94
127
71
85
130
123
6
44
105
49
120
136
117
74
114
97
11
111
10
83
42
21
102
64
150
146
19
46
67
92
50
155
93
91
26
12
40
118
147
107
4
88
75
27
54
122
36
144
53
142
60
72
141
133
16
43
84
69
41
77
124
126
37
7
101
15
32
20
24
98
135
90
52
66
154
56
51
57
129
70
30
143
9
96
131
137
48
148
5
34
103
45
115
108
38
82
8
22
109
17
112
14
28
128
139
63
3
2

>  <PUBCHEM_MMFF94_PARTIAL_CHARGES>  (1) 
39
1 -0.43
10 0.27
11 0.27
12 0.41
13 -0.14
14 0.27
15 0.27
16 0.66
17 -0.14
18 0.27
19 0.27
2 -0.57
20 -0.15
21 -0.15
22 -0.15
23 -0.15
24 0.27
25 -0.15
26 -0.15
27 -0.15
28 0.28
29 -0.15
3 -0.81
30 -0.15
31 -0.15
4 -0.81
5 -0.81
52 0.15
53 0.15
54 0.15
55 0.15
59 0.15
6 0.2
60 0.15
61 0.15
64 0.15
65 0.15
66 0.15
9 0.27

>  <PUBCHEM_EFFECTIVE_ROTOR_COUNT>  (1) 
10.4

>  <PUBCHEM_PHARMACOPHORE_FEATURES>  (1) 
8
1 2 acceptor
1 3 cation
1 4 cation
1 5 cation
6 13 20 21 25 26 27 rings
6 17 22 23 29 30 31 rings
6 3 6 7 8 9 10 rings
6 4 5 14 15 18 19 rings

>  <PUBCHEM_HEAVY_ATOM_COUNT>  (1) 
32

>  <PUBCHEM_ATOM_DEF_STEREO_COUNT>  (1) 
0

>  <PUBCHEM_ATOM_UDEF_STEREO_COUNT>  (1) 
1

>  <PUBCHEM_BOND_DEF_STEREO_COUNT>  (1) 
0

>  <PUBCHEM_BOND_UDEF_STEREO_COUNT>  (1) 
0

>  <PUBCHEM_ISOTOPIC_ATOM_COUNT>  (1) 
0

>  <PUBCHEM_COMPONENT_COUNT>  (1) 
1

>  <PUBCHEM_CACTVS_TAUTO_COUNT>  (1) 
1

>  <PUBCHEM_CONFORMER_ID>  (1) 
000065A300000001

>  <PUBCHEM_MMFF94_ENERGY>  (1) 
91.0281

>  <PUBCHEM_FEATURE_SELFOVERLAP>  (1) 
40.6

>  <PUBCHEM_SHAPE_FINGERPRINT>  (1) 
10290309 65 18201164282229148991
10369192 42 18337107990587790388
10906281 52 17894639153999558884
11135926 11 17775569740996958462
11405975 8 18265894666280727523
12107183 9 17907295451382742561
12166972 35 13407064951041777262
12892183 10 18411139130165645735
13073987 5 18187364324451742483
13540713 4 18339371755927069879
13583140 156 18059565914928791149
13782708 43 13913697808174165568
14068700 675 17460038607497828939
14118638 360 18409449185215269663
15347590 135 18334864964901453475
19301679 30 18261125105916645795
19377110 9 18261115209351263193
21033648 144 18263073336866629149
21033648 29 17606112884681982549
21130935 74 17894621561907953992
21859007 373 17464523213936577693
22393880 68 18272939301925931462
23559900 14 17985824835350085846
23569914 152 16409302066564622804
3178227 256 18340770463861921824
32027 91 17972592182687048106
3411729 13 18410568454135595506
4073 2 18334856099898900171
460360 51 18339368465823638095
5104073 3 18336266739042105323
6698420 124 18120940504548977433

>  <PUBCHEM_SHAPE_MULTIPOLES>  (1) 
631.86
17.46
4.26
1.7
4.56
1.26
-0.21
-7.72
-4.33
0.34
0.1
-0.97
0.5
3.3

>  <PUBCHEM_SHAPE_SELFOVERLAP>  (1) 
1334.367

>  <PUBCHEM_SHAPE_VOLUME>  (1) 
353.3

>  <PUBCHEM_COORDINATE_TYPE>  (1) 
2
5
10

$$$$
