26013
     RDKit          3D

 28 30  0  0  1  0  0  0  0  0999 V2000
    3.5052    1.6799    0.4521 O   0  0  0  0  0  0  0  0  0  0  0  0
    2.1075    2.0631   -1.3470 O   0  0  0  0  0  0  0  0  0  0  0  0
   -0.9819    0.6140    0.4967 N   0  0  0  0  0  0  0  0  0  0  0  0
   -4.4364    1.8726   -0.2311 N   0  0  0  0  0  0  0  0  0  0  0  0
    1.8940    0.0356   -0.0370 C   0  0  0  0  0  0  0  0  0  0  0  0
    1.2820    0.1744    1.3806 C   0  0  0  0  0  0  0  0  0  0  0  0
    0.7473   -0.3089   -1.0216 C   0  0  0  0  0  0  0  0  0  0  0  0
    0.0497    1.0852    1.4254 C   0  0  0  0  0  0  0  0  0  0  0  0
   -0.4766    0.6042   -0.8788 C   0  0  0  0  0  0  0  0  0  0  0  0
   -2.1809    1.4459    0.5968 C   0  0  0  0  0  0  0  0  0  0  0  0
    3.0178   -1.0098   -0.1358 C   0  0  0  0  0  0  0  0  0  0  0  0
    2.4930    1.3773   -0.4098 C   0  0  0  0  0  0  0  0  0  0  0  0
   -3.3086    0.9361   -0.3221 C   0  0  0  0  0  0  0  0  0  0  0  0
    3.3824   -1.7432    0.9902 C   0  0  0  0  0  0  0  0  0  0  0  0
    3.6654   -1.2172   -1.3508 C   0  0  0  0  0  0  0  0  0  0  0  0
   -3.7481   -0.4882   -0.0267 C   0  0  0  0  0  0  0  0  0  0  0  0
    4.4019   -2.6910    0.9004 C   0  0  0  0  0  0  0  0  0  0  0  0
    4.6848   -2.1651   -1.4406 C   0  0  0  0  0  0  0  0  0  0  0  0
   -3.9772    3.2397   -0.4604 C   0  0  0  0  0  0  0  0  0  0  0  0
   -5.4737    1.5084   -1.1921 C   0  0  0  0  0  0  0  0  0  0  0  0
   -3.1178   -1.5315   -0.6764 C   0  0  0  0  0  0  0  0  0  0  0  0
   -4.7651   -0.7001    0.8834 C   0  0  0  0  0  0  0  0  0  0  0  0
    5.0531   -2.9019   -0.3151 C   0  0  0  0  0  0  0  0  0  0  0  0
    4.1634    2.9281    0.2135 C   0  0  0  0  0  0  0  0  0  0  0  0
   -3.5209   -2.8390   -0.4052 C   0  0  0  0  0  0  0  0  0  0  0  0
   -5.1681   -2.0078    1.1545 C   0  0  0  0  0  0  0  0  0  0  0  0
    5.2537    3.1161    1.2468 C   0  0  0  0  0  0  0  0  0  0  0  0
   -4.5459   -3.0771    0.5101 C   0  0  0  0  0  0  0  0  0  0  0  0
  1 12  1  0
  1 24  1  0
  2 12  2  0
  3  8  1  0
  3  9  1  0
  3 10  1  0
  4 13  1  0
  4 19  1  0
  4 20  1  0
  5  6  1  0
  5  7  1  0
  5 11  1  0
  5 12  1  0
  6  8  1  0
  7  9  1  0
 10 13  1  0
 11 14  2  0
 11 15  1  0
 13 16  1  0
 14 17  1  0
 15 18  2  0
 16 21  2  0
 16 22  1  0
 17 23  2  0
 18 23  1  0
 21 25  1  0
 22 26  2  0
 24 27  1  0
 25 28  2  0
 26 28  1  0
M  END
>  <PUBCHEM_COMPOUND_CID>  (1) 
26013

>  <PUBCHEM_CONFORMER_RMSD>  (1) 
1

>  <PUBCHEM_CONFORMER_DIVERSEORDER>  (1) 
1
48
22
24
43
15
29
25
26
20
53
33
46
23
54
34
50
19
45
49
38
7
27
12
51
44
30
40
21
11
9
32
52
31
28
39
17
8
47
16
18
37
5
13
42
41
10
36
3
4
14
35
2
6

>  <PUBCHEM_MMFF94_PARTIAL_CHARGES>  (1) 
35
1 -0.43
10 0.27
11 -0.14
12 0.66
13 0.41
14 -0.15
15 -0.15
16 -0.14
17 -0.15
18 -0.15
19 0.27
2 -0.57
20 0.27
21 -0.15
22 -0.15
23 -0.15
24 0.28
25 -0.15
26 -0.15
28 -0.15
3 -0.81
4 -0.81
40 0.15
41 0.15
42 0.15
43 0.15
5 0.2
50 0.15
51 0.15
52 0.15
55 0.15
56 0.15
60 0.15
8 0.27
9 0.27

>  <PUBCHEM_EFFECTIVE_ROTOR_COUNT>  (1) 
9.2

>  <PUBCHEM_PHARMACOPHORE_FEATURES>  (1) 
6
1 2 acceptor
1 3 cation
1 4 cation
6 11 14 15 17 18 23 rings
6 16 21 22 25 26 28 rings
6 3 5 6 7 8 9 rings

>  <PUBCHEM_HEAVY_ATOM_COUNT>  (1) 
28

>  <PUBCHEM_ATOM_DEF_STEREO_COUNT>  (1) 
0

>  <PUBCHEM_ATOM_UDEF_STEREO_COUNT>  (1) 
1

>  <PUBCHEM_BOND_DEF_STEREO_COUNT>  (1) 
0

>  <PUBCHEM_BOND_UDEF_STEREO_COUNT>  (1) 
0

>  <PUBCHEM_ISOTOPIC_ATOM_COUNT>  (1) 
0

>  <PUBCHEM_COMPONENT_COUNT>  (1) 
1

>  <PUBCHEM_CACTVS_TAUTO_COUNT>  (1) 
1

>  <PUBCHEM_CONFORMER_ID>  (1) 
0000659D00000001

>  <PUBCHEM_MMFF94_ENERGY>  (1) 
88.4479

>  <PUBCHEM_FEATURE_SELFOVERLAP>  (1) 
30.446

>  <PUBCHEM_SHAPE_FINGERPRINT>  (1) 
10369192 42 18121492720962388300
11405975 8 18410012096334780313
11796584 16 18265618688778123598
12633257 1 17275114967842413995
13167823 11 18334580131086366415
13583140 156 18059001903976289193
14251751 18 18410294679302627922
14910302 57 18113613478486275061
15484559 13 13273322203248221751
17349148 13 17631733759806921381
17492 89 18408325514196383387
17844677 252 18409172099447098867
17913733 40 17987513887505836184
21033648 29 16555911037337683074
21065198 57 18410009905790631061
21421861 104 18270961358044040866
21859007 373 17607504861590918949
221490 88 18412549816426831438
22393880 68 18260551095351168410
23559900 14 18340763754452903712
249057 3 18263643957499667861
25222932 49 17700416059216694199
32027 91 18266172838443736634
3383291 50 18272362028800494047
340366 18 18261397685377419237
3411729 13 18411129261048497136
4015057 19 18130487675148972717
4073 2 18334015016464017000
4340502 62 18268432515543382354
44062 13 18336266743606383279
463206 1 17899696765368676082
5104073 3 18412831278592448441
9709674 26 18188779460446772539

>  <PUBCHEM_SHAPE_MULTIPOLES>  (1) 
554.53
13.72
4.17
1.35
3.09
0.22
-0.01
-2.95
-0.26
-1.67
-0.26
-0.52
-0.04
2.23

>  <PUBCHEM_SHAPE_SELFOVERLAP>  (1) 
1169.195

>  <PUBCHEM_SHAPE_VOLUME>  (1) 
311.1

>  <PUBCHEM_COORDINATE_TYPE>  (1) 
2
5
10

$$$$
