2602
     RDKit          3D

 16 16  0  0  0  0  0  0  0  0999 V2000
    3.3617   -1.8265    0.6226 O   0  0  0  0  0  0  0  0  0  0  0  0
    5.7442   -0.9075   -0.2218 O   0  0  0  0  0  0  0  0  0  0  0  0
   -4.0110   -1.6115   -0.4737 O   0  0  0  0  0  0  0  0  0  0  0  0
   -6.2892   -0.3041    0.1842 O   0  0  0  0  0  0  0  0  0  0  0  0
    4.5905   -0.1153   -0.3125 N   0  0  0  0  0  0  0  0  0  0  0  0
   -5.0356    0.3134    0.2931 N   0  0  0  0  0  0  0  0  0  0  0  0
   -0.1921    0.3286   -0.1107 C   0  0  0  0  0  0  0  0  0  0  0  0
    2.2099    0.1442    0.0716 C   0  0  0  0  0  0  0  0  0  0  0  0
    0.9568   -0.4589   -0.0356 C   0  0  0  0  0  0  0  0  0  0  0  0
   -0.0878    1.7191   -0.0786 C   0  0  0  0  0  0  0  0  0  0  0  0
    2.3143    1.5348    0.1038 C   0  0  0  0  0  0  0  0  0  0  0  0
    1.1654    2.3223    0.0287 C   0  0  0  0  0  0  0  0  0  0  0  0
   -1.4991   -0.2999   -0.2233 C   0  0  0  0  0  0  0  0  0  0  0  0
    3.4082   -0.6763    0.1489 C   0  0  0  0  0  0  0  0  0  0  0  0
   -2.6777    0.2920    0.0739 C   0  0  0  0  0  0  0  0  0  0  0  0
   -3.9585   -0.4541   -0.0706 C   0  0  0  0  0  0  0  0  0  0  0  0
  1 14  2  0
  2  5  1  0
  3 16  2  0
  4  6  1  0
  5 14  1  0
  6 16  1  0
  7  9  2  0
  7 10  1  0
  7 13  1  0
  8  9  1  0
  8 11  2  0
  8 14  1  0
 10 12  2  0
 11 12  1  0
 13 15  2  0
 15 16  1  0
M  END
>  <PUBCHEM_COMPOUND_CID>  (1) 
2602

>  <PUBCHEM_CONFORMER_RMSD>  (1) 
0.6

>  <PUBCHEM_CONFORMER_DIVERSEORDER>  (1) 
1
10
6
20
19
21
18
2
5
4
7
11
13
16
12
14
3
17
9
15
8

>  <PUBCHEM_MMFF94_PARTIAL_CHARGES>  (1) 
26
1 -0.57
10 -0.15
11 -0.15
12 -0.15
13 -0.18
14 0.54
15 -0.14
16 0.62
17 0.15
18 0.15
19 0.15
2 -0.44
20 0.15
21 0.15
22 0.15
23 0.37
24 0.37
25 0.4
26 0.4
3 -0.57
4 -0.44
5 -0.39
6 -0.39
7 0.03
8 0.09
9 -0.15

>  <PUBCHEM_EFFECTIVE_ROTOR_COUNT>  (1) 
5

>  <PUBCHEM_PHARMACOPHORE_FEATURES>  (1) 
5
1 1 acceptor
1 3 acceptor
1 5 donor
1 6 donor
6 7 8 9 10 11 12 rings

>  <PUBCHEM_HEAVY_ATOM_COUNT>  (1) 
16

>  <PUBCHEM_ATOM_DEF_STEREO_COUNT>  (1) 
0

>  <PUBCHEM_ATOM_UDEF_STEREO_COUNT>  (1) 
0

>  <PUBCHEM_BOND_DEF_STEREO_COUNT>  (1) 
0

>  <PUBCHEM_BOND_UDEF_STEREO_COUNT>  (1) 
1

>  <PUBCHEM_ISOTOPIC_ATOM_COUNT>  (1) 
0

>  <PUBCHEM_COMPONENT_COUNT>  (1) 
1

>  <PUBCHEM_CACTVS_TAUTO_COUNT>  (1) 
9

>  <PUBCHEM_CONFORMER_ID>  (1) 
00000A2A00000001

>  <PUBCHEM_MMFF94_ENERGY>  (1) 
44.0445

>  <PUBCHEM_FEATURE_SELFOVERLAP>  (1) 
25.371

>  <PUBCHEM_SHAPE_FINGERPRINT>  (1) 
11287383 113 15647345159774517860
11471102 20 18336826484776031844
11806522 49 18409166615106327020
12032990 46 18411417298022839044
12236239 1 17989489640896642233
12553582 1 18339345406123380198
12841375 25 18408885127092013100
13167823 11 18270397317058039823
13690532 89 18412545413800302048
13862211 1 18409726245060922378
14115302 16 17822021933974916302
14252887 29 18059862740403415454
15196674 1 18340205314463088815
15242439 84 18040151834122571035
15442244 35 18412263926345300257
17834072 33 18411703213927226988
17834072 8 18335414652412575981
18186145 218 17822561815811744041
187816 3 17603589612463424504
20612939 158 18260554462632129893
20645477 70 18411138060602763935
20871998 22 18200600181265995174
21267235 1 18411708672619527102
221490 88 18190747637715754979
23402539 116 17561078099609633669
23559900 14 18338512057613062049
2916195 48 11819285489848517078
351380 3 18411697677503567663
42 15 18343021103480373213
4214541 1 18411699881602297865
4463277 17 18411702084583008108
465052 167 18341899597082806374
5104073 3 18200315549799695203
522135 26 18333732437548848781
7364860 26 18270678804909349656
83771 10 18409445873753383908
8863177 126 17897460590946343427
9971528 1 18410850005562472049

>  <PUBCHEM_SHAPE_MULTIPOLES>  (1) 
295.83
11.43
1.75
0.63
8.37
0.65
0
-5.08
-0.16
-1.12
-0.05
-0.03
-0.03
-0.29

>  <PUBCHEM_SHAPE_SELFOVERLAP>  (1) 
614.888

>  <PUBCHEM_SHAPE_VOLUME>  (1) 
168

>  <PUBCHEM_COORDINATE_TYPE>  (1) 
2
5
10

$$$$
