26029
     RDKit          3D

 10 10  0  0  0  0  0  0  0  0999 V2000
    2.1910   -0.8824    0.0002 N   0  0  0  0  0  0  0  0  0  0  0  0
   -0.1045   -1.3600    0.0005 N   0  0  0  0  0  0  0  0  0  0  0  0
    0.6775    0.9085    0.0010 N   0  0  0  0  0  0  0  0  0  0  0  0
   -1.6781    0.4516    0.0000 N   0  0  0  0  0  0  0  0  0  0  0  0
   -2.4125   -1.7755   -0.0010 N   0  0  0  0  0  0  0  0  0  0  0  0
   -0.8840    2.6579   -0.0008 N   0  0  0  0  0  0  0  0  0  0  0  0
    0.8565   -0.4222    0.0008 C   0  0  0  0  0  0  0  0  0  0  0  0
   -1.3466   -0.8498    0.0001 C   0  0  0  0  0  0  0  0  0  0  0  0
   -0.6151    1.2720    0.0005 C   0  0  0  0  0  0  0  0  0  0  0  0
    3.3158   -0.0001   -0.0013 C   0  0  0  0  0  0  0  0  0  0  0  0
  1  7  1  0
  1 10  1  0
  2  7  2  0
  2  8  1  0
  3  7  1  0
  3  9  2  0
  4  8  2  0
  4  9  1  0
  5  8  1  0
  6  9  1  0
M  END
>  <PUBCHEM_COMPOUND_CID>  (1) 
26029

>  <PUBCHEM_CONFORMER_RMSD>  (1) 
0.4

>  <PUBCHEM_CONFORMER_DIVERSEORDER>  (1) 
1
2

>  <PUBCHEM_MMFF94_PARTIAL_CHARGES>  (1) 
15
1 -0.87
10 0.37
11 0.4
15 0.4
16 0.4
17 0.4
18 0.4
2 -0.62
3 -0.62
4 -0.62
5 -0.9
6 -0.9
7 0.72
8 0.72
9 0.72

>  <PUBCHEM_EFFECTIVE_ROTOR_COUNT>  (1) 
1

>  <PUBCHEM_PHARMACOPHORE_FEATURES>  (1) 
7
1 1 donor
1 5 donor
1 6 donor
4 1 2 3 7 cation
4 2 4 5 8 cation
4 3 4 6 9 cation
6 2 3 4 7 8 9 rings

>  <PUBCHEM_HEAVY_ATOM_COUNT>  (1) 
10

>  <PUBCHEM_ATOM_DEF_STEREO_COUNT>  (1) 
0

>  <PUBCHEM_ATOM_UDEF_STEREO_COUNT>  (1) 
0

>  <PUBCHEM_BOND_DEF_STEREO_COUNT>  (1) 
0

>  <PUBCHEM_BOND_UDEF_STEREO_COUNT>  (1) 
0

>  <PUBCHEM_ISOTOPIC_ATOM_COUNT>  (1) 
0

>  <PUBCHEM_COMPONENT_COUNT>  (1) 
1

>  <PUBCHEM_CACTVS_TAUTO_COUNT>  (1) 
10

>  <PUBCHEM_CONFORMER_ID>  (1) 
000065AD00000001

>  <PUBCHEM_MMFF94_ENERGY>  (1) 
34.1377

>  <PUBCHEM_FEATURE_SELFOVERLAP>  (1) 
35.652

>  <PUBCHEM_SHAPE_FINGERPRINT>  (1) 
10857977 72 18340757247661924330
12716758 59 18196937660778813134
16945 1 18338516326720662276
20871998 184 18273497866232479118
21040471 1 17906452130180103392
23552423 10 18188495670720273734
23552449 1 18411697673345412592
241688 4 18410854403708723145
2748010 2 18267858552803353013

>  <PUBCHEM_SHAPE_MULTIPOLES>  (1) 
175.91
3.49
2.09
0.56
2.78
1.12
0
-1.12
0
-1.36
0
0.02
0
0

>  <PUBCHEM_SHAPE_SELFOVERLAP>  (1) 
357.98

>  <PUBCHEM_SHAPE_VOLUME>  (1) 
91.9

>  <PUBCHEM_COORDINATE_TYPE>  (1) 
2
5
10

$$$$
