26027
     RDKit          3D

 27 30  0  0  0  0  0  0  0  0999 V2000
   -0.2687    1.2731   -0.6817 S   0  0  0  0  0  0  0  0  0  0  0  0
   -6.1609    1.5152   -0.0329 O   0  0  0  0  0  0  0  0  0  0  0  0
    4.4270    0.8223    0.2485 N   0  0  0  0  0  0  0  0  0  0  0  0
    1.2250   -0.9921   -0.4776 N   0  0  0  0  0  0  0  0  0  0  0  0
   -0.9420   -1.3047   -0.1731 N   0  0  0  0  0  0  0  0  0  0  0  0
    5.1210    1.1927    1.4899 C   0  0  0  0  0  0  0  0  0  0  0  0
    4.2205    1.9939   -0.6145 C   0  0  0  0  0  0  0  0  0  0  0  0
    6.4822    1.8244    1.1937 C   0  0  0  0  0  0  0  0  0  0  0  0
    5.5520    2.6518   -0.9794 C   0  0  0  0  0  0  0  0  0  0  0  0
    6.3453    3.0272    0.2672 C   0  0  0  0  0  0  0  0  0  0  0  0
    3.1492    0.1773    0.5496 C   0  0  0  0  0  0  0  0  0  0  0  0
    2.4940   -0.3177   -0.7365 C   0  0  0  0  0  0  0  0  0  0  0  0
    1.0930   -2.3285   -0.2391 C   0  0  0  0  0  0  0  0  0  0  0  0
   -0.0064   -0.4183   -0.4302 C   0  0  0  0  0  0  0  0  0  0  0  0
   -0.2754   -2.5022   -0.0507 C   0  0  0  0  0  0  0  0  0  0  0  0
    2.0147   -3.3739   -0.1720 C   0  0  0  0  0  0  0  0  0  0  0  0
   -0.7713   -3.7884    0.2218 C   0  0  0  0  0  0  0  0  0  0  0  0
    1.5037   -4.6473    0.1000 C   0  0  0  0  0  0  0  0  0  0  0  0
    0.1358   -4.8529    0.2939 C   0  0  0  0  0  0  0  0  0  0  0  0
   -2.0547    1.3457   -0.4854 C   0  0  0  0  0  0  0  0  0  0  0  0
   -2.5929    1.5708    0.7728 C   0  0  0  0  0  0  0  0  0  0  0  0
   -2.8698    1.1765   -1.5945 C   0  0  0  0  0  0  0  0  0  0  0  0
   -3.9782    1.6277    0.9254 C   0  0  0  0  0  0  0  0  0  0  0  0
   -4.2552    1.2335   -1.4420 C   0  0  0  0  0  0  0  0  0  0  0  0
   -4.8093    1.4591   -0.1820 C   0  0  0  0  0  0  0  0  0  0  0  0
   -6.6938    1.0958    1.2224 C   0  0  0  0  0  0  0  0  0  0  0  0
   -8.0849    0.5389    1.0062 C   0  0  0  0  0  0  0  0  0  0  0  0
  1 14  1  0
  1 20  1  0
  2 25  1  0
  2 26  1  0
  3  6  1  0
  3  7  1  0
  3 11  1  0
  4 12  1  0
  4 13  1  0
  4 14  1  0
  5 14  2  0
  5 15  1  0
  6  8  1  0
  7  9  1  0
  8 10  1  0
  9 10  1  0
 11 12  1  0
 13 15  2  0
 13 16  1  0
 15 17  1  0
 16 18  2  0
 17 19  2  0
 18 19  1  0
 20 21  2  0
 20 22  1  0
 21 23  1  0
 22 24  2  0
 23 25  2  0
 24 25  1  0
 26 27  1  0
M  END
>  <PUBCHEM_COMPOUND_CID>  (1) 
26027

>  <PUBCHEM_CONFORMER_RMSD>  (1) 
1

>  <PUBCHEM_CONFORMER_DIVERSEORDER>  (1) 
1
13
8
40
35
26
27
39
17
44
31
42
23
18
12
41
20
16
32
11
9
15
30
28
24
4
22
7
36
34
19
10
33
2
43
6
25
3
5
29
14
37
21
38

>  <PUBCHEM_MMFF94_PARTIAL_CHARGES>  (1) 
31
1 -0.16
11 0.27
12 0.26
13 -0.15
14 0.24
15 0.23
16 -0.15
17 -0.15
18 -0.15
19 -0.15
2 -0.36
20 0.1
21 -0.15
22 -0.15
23 -0.15
24 -0.15
25 0.08
26 0.28
3 -0.81
4 0.05
42 0.15
43 0.15
44 0.15
45 0.15
46 0.15
47 0.15
48 0.15
49 0.15
5 -0.57
6 0.27
7 0.27

>  <PUBCHEM_EFFECTIVE_ROTOR_COUNT>  (1) 
8.2

>  <PUBCHEM_PHARMACOPHORE_FEATURES>  (1) 
7
1 2 acceptor
1 3 cation
3 4 5 14 cation
5 4 5 13 14 15 rings
6 13 15 16 17 18 19 rings
6 20 21 22 23 24 25 rings
6 3 6 7 8 9 10 rings

>  <PUBCHEM_HEAVY_ATOM_COUNT>  (1) 
27

>  <PUBCHEM_ATOM_DEF_STEREO_COUNT>  (1) 
0

>  <PUBCHEM_ATOM_UDEF_STEREO_COUNT>  (1) 
0

>  <PUBCHEM_BOND_DEF_STEREO_COUNT>  (1) 
0

>  <PUBCHEM_BOND_UDEF_STEREO_COUNT>  (1) 
0

>  <PUBCHEM_ISOTOPIC_ATOM_COUNT>  (1) 
0

>  <PUBCHEM_COMPONENT_COUNT>  (1) 
1

>  <PUBCHEM_CACTVS_TAUTO_COUNT>  (1) 
1

>  <PUBCHEM_CONFORMER_ID>  (1) 
000065AB00000001

>  <PUBCHEM_MMFF94_ENERGY>  (1) 
52.6079

>  <PUBCHEM_FEATURE_SELFOVERLAP>  (1) 
35.63

>  <PUBCHEM_SHAPE_FINGERPRINT>  (1) 
10 15 18040719190180344201
10074138 170 18117262869200768058
10258939 38 17749389222610976809
10411042 1 17256243173554541646
12107183 9 18262782018547029874
12202916 173 17676487276978426185
12390115 104 18341056319309453132
12596602 18 17774449279146421545
12597179 24 18334298664757593883
12788726 201 18051393361027531014
13140716 1 18336544906762804306
13583140 156 16371266892836953860
13631057 29 18127676318648416063
13726171 33 18122906701658760376
13911987 19 18334847333718500477
13955234 65 18193558869794129635
14347424 109 17979927012920494913
14565420 104 18412266103634815041
14790565 3 18409728499502008612
14849402 71 18267588992593831930
15183329 4 14117807916063518272
15776043 110 17896863406277656248
15927050 60 18413105074110403822
16126227 98 18339080522595167680
17913733 40 18410860940896861019
1813 80 7997687644830413224
18393751 57 18334573572518590981
18785283 64 18191862332475129794
19315958 150 18337116666927980873
19319366 153 18343014459113322999
1979834 28 18114754745596588469
21033648 29 18270110353208233264
21049683 271 18046919178121606198
21304303 172 17977663439562461342
21521721 280 18341619213407454169
21703447 108 17972875852866040569
22149856 69 18190767271018976881
22224240 67 18411701002351508809
23559900 14 17829322485098693853
23845131 108 18409445907717769419
24771750 20 18338811035336378726
249999 5 18338797793297823210
283562 15 18194672889995855703
3178227 256 18265614282558402938
4340502 62 18412265017066286573
4403749 210 18263924513501089729
5385378 56 18411982421234908992
5758199 1 18343587352238125609
59755656 520 18411409636196737700
621550 34 18189335680328943997
6523845 18 18262249832843028270
6673363 416 17331404165454664486
6691757 9 18122874725594612112
7399639 24 18115585938054111469
9981440 41 18408319990683344194

>  <PUBCHEM_SHAPE_MULTIPOLES>  (1) 
538.68
16.34
5.47
1.22
10.65
9.8
0.01
-21.43
6.04
-4.72
0.21
0.35
-0.72
0.21

>  <PUBCHEM_SHAPE_SELFOVERLAP>  (1) 
1137.415

>  <PUBCHEM_SHAPE_VOLUME>  (1) 
305.4

>  <PUBCHEM_COORDINATE_TYPE>  (1) 
2
5
10

$$$$
