26028
     RDKit          3D

 15 15  0  0  1  0  0  0  0  0999 V2000
   -3.1154   -1.6570   -0.3132 S   0  0  0  0  0  0  0  0  0  0  0  0
   -0.0474    1.0625    1.6794 O   0  0  0  0  0  0  0  0  0  0  0  0
   -2.2679    1.3640   -1.6217 O   0  0  0  0  0  0  0  0  0  0  0  0
   -0.8022   -0.2985   -0.0404 N   0  0  0  0  0  0  0  0  0  0  0  0
   -3.8167    1.6251    0.0542 N   0  0  0  0  0  0  0  0  0  0  0  0
   -2.2183   -0.1795    0.2491 C   0  0  0  0  0  0  0  0  0  0  0  0
    1.5704    0.1314    0.2605 C   0  0  0  0  0  0  0  0  0  0  0  0
    0.1715    0.3414    0.7100 C   0  0  0  0  0  0  0  0  0  0  0  0
   -2.7385    1.0075   -0.5434 C   0  0  0  0  0  0  0  0  0  0  0  0
    2.5124    1.1015    0.5359 C   0  0  0  0  0  0  0  0  0  0  0  0
    1.8860   -1.0273   -0.4194 C   0  0  0  0  0  0  0  0  0  0  0  0
    3.8271    0.9044    0.1132 C   0  0  0  0  0  0  0  0  0  0  0  0
    3.2007   -1.2244   -0.8421 C   0  0  0  0  0  0  0  0  0  0  0  0
    4.1712   -0.2586   -0.5757 C   0  0  0  0  0  0  0  0  0  0  0  0
   -2.3328   -2.8925    0.7535 C   0  0  0  0  0  0  0  0  0  0  0  0
  1  6  1  0
  1 15  1  0
  2  8  2  0
  3  9  2  0
  4  6  1  0
  4  8  1  0
  5  9  1  0
  6  9  1  0
  7  8  1  0
  7 10  2  0
  7 11  1  0
 10 12  1  0
 11 13  2  0
 12 14  2  0
 13 14  1  0
M  END
>  <PUBCHEM_COMPOUND_CID>  (1) 
26028

>  <PUBCHEM_CONFORMER_RMSD>  (1) 
0.6

>  <PUBCHEM_CONFORMER_DIVERSEORDER>  (1) 
1
30
49
27
91
88
63
83
37
41
76
34
80
84
68
29
67
87
32
64
36
59
14
86
72
31
52
81
70
56
8
90
33
40
10
24
79
82
35
92
50
66
42
45
71
7
51
48
11
43
15
61
65
85
78
23
44
18
53
75
16
39
46
73
74
62
54
69
60
89
57
3
58
47
6
77
55
22
19
38
93
13
28
20
5
12
26
25
9
21
4
2
17

>  <PUBCHEM_MMFF94_PARTIAL_CHARGES>  (1) 
23
1 -0.46
10 -0.15
11 -0.15
12 -0.15
13 -0.15
14 -0.15
15 0.23
17 0.37
18 0.15
19 0.15
2 -0.57
20 0.15
21 0.15
22 0.15
26 0.37
27 0.37
3 -0.57
4 -0.73
5 -0.8
6 0.59
7 0.09
8 0.54
9 0.57

>  <PUBCHEM_EFFECTIVE_ROTOR_COUNT>  (1) 
5

>  <PUBCHEM_PHARMACOPHORE_FEATURES>  (1) 
6
1 15 hydrophobe
1 2 acceptor
1 3 acceptor
1 4 donor
1 5 donor
6 7 10 11 12 13 14 rings

>  <PUBCHEM_HEAVY_ATOM_COUNT>  (1) 
15

>  <PUBCHEM_ATOM_DEF_STEREO_COUNT>  (1) 
0

>  <PUBCHEM_ATOM_UDEF_STEREO_COUNT>  (1) 
1

>  <PUBCHEM_BOND_DEF_STEREO_COUNT>  (1) 
0

>  <PUBCHEM_BOND_UDEF_STEREO_COUNT>  (1) 
0

>  <PUBCHEM_ISOTOPIC_ATOM_COUNT>  (1) 
0

>  <PUBCHEM_COMPONENT_COUNT>  (1) 
1

>  <PUBCHEM_CACTVS_TAUTO_COUNT>  (1) 
4

>  <PUBCHEM_CONFORMER_ID>  (1) 
000065AC00000001

>  <PUBCHEM_MMFF94_ENERGY>  (1) 
37.6723

>  <PUBCHEM_FEATURE_SELFOVERLAP>  (1) 
30.446

>  <PUBCHEM_SHAPE_FINGERPRINT>  (1) 
10608611 8 18340764931247705296
11543360 7 18114472270245405694
12173636 292 18262795160440359509
12500047 106 18335700511796625623
12932764 1 18040713641039776280
13296908 3 18059857285393951274
13705890 14 18343022211919435250
15219456 202 18343582962348532054
17357779 13 18124298661529713023
17834074 16 18340770441648690903
18186145 218 18409728422313539544
1986462 14 18408040718987984734
200 152 17346313761509579700
20361792 2 16271920523682350104
20645477 56 18334295349085071213
20645477 70 17632580414115263350
20871999 31 18409444800043046231
221490 88 18270408303621228126
22943178 12 18342455975957466378
22959321 105 18411986896596021582
23402539 116 17095520699816501756
23402655 69 18059576858626852140
23493267 7 18411416198326595266
23557571 272 18409450318643699748
23559900 14 18342456994461100266
25 1 18199464355731981197
2748010 2 18130504244794742394
2871803 45 18338229487509861671
3312278 4 18201443570882259274
4921388 177 18187368757079713083
58051976 100 18408608075657219887
58051976 378 18193836166115288158
6049 1 18270959175620139857
633830 44 15430315781041341434
81228 2 18116147951857538779
8809292 202 18413112744636501435
93112 12 18411981347250478836
9709674 26 18342179981169595758

>  <PUBCHEM_SHAPE_MULTIPOLES>  (1) 
290.84
7.63
2.11
1.1
2.36
1.04
0
0.14
1.4
-2.21
-0.14
-0.22
-0.21
1.14

>  <PUBCHEM_SHAPE_SELFOVERLAP>  (1) 
583.723

>  <PUBCHEM_SHAPE_VOLUME>  (1) 
172.3

>  <PUBCHEM_COORDINATE_TYPE>  (1) 
2
5
10

$$$$
