26023
     RDKit          3D

 20 22  0  0  0  0  0  0  0  0999 V2000
   -4.0574   -0.9377    0.1057 O   0  0  0  0  0  0  0  0  0  0  0  0
   -2.9247   -2.9277    0.3883 O   0  0  0  0  0  0  0  0  0  0  0  0
    2.5589   -0.9464   -0.1074 N   0  0  0  0  0  0  0  0  0  0  0  0
    4.7394    0.9505   -0.0347 N   0  0  0  0  0  0  0  0  0  0  0  0
   -1.7676   -0.8956    0.3077 N   0  0  0  0  0  0  0  0  0  0  0  0
    2.5126    0.2983   -0.8840 C   0  0  0  0  0  0  0  0  0  0  0  0
    3.9477   -1.3882    0.0695 C   0  0  0  0  0  0  0  0  0  0  0  0
    1.7604   -1.9888   -0.7490 C   0  0  0  0  0  0  0  0  0  0  0  0
    3.3506    1.3916   -0.2122 C   0  0  0  0  0  0  0  0  0  0  0  0
    4.7868   -0.2953    0.7404 C   0  0  0  0  0  0  0  0  0  0  0  0
    0.2867   -1.5894   -0.8673 C   0  0  0  0  0  0  0  0  0  0  0  0
   -0.3970   -1.2977    0.4670 C   0  0  0  0  0  0  0  0  0  0  0  0
    5.5369    1.9928    0.6087 C   0  0  0  0  0  0  0  0  0  0  0  0
   -2.1898    0.4090    0.1506 C   0  0  0  0  0  0  0  0  0  0  0  0
   -2.8927   -1.7078    0.2806 C   0  0  0  0  0  0  0  0  0  0  0  0
   -3.5636    0.3563    0.0319 C   0  0  0  0  0  0  0  0  0  0  0  0
   -1.4910    1.5973    0.1048 C   0  0  0  0  0  0  0  0  0  0  0  0
   -4.3199    1.4963   -0.1404 C   0  0  0  0  0  0  0  0  0  0  0  0
   -2.2368    2.7661   -0.0692 C   0  0  0  0  0  0  0  0  0  0  0  0
   -3.6395    2.7163   -0.1908 C   0  0  0  0  0  0  0  0  0  0  0  0
  1 15  1  0
  1 16  1  0
  2 15  2  0
  3  6  1  0
  3  7  1  0
  3  8  1  0
  4  9  1  0
  4 10  1  0
  4 13  1  0
  5 12  1  0
  5 14  1  0
  5 15  1  0
  6  9  1  0
  7 10  1  0
  8 11  1  0
 11 12  1  0
 14 16  2  0
 14 17  1  0
 16 18  1  0
 17 19  2  0
 18 20  2  0
 19 20  1  0
M  END
>  <PUBCHEM_COMPOUND_CID>  (1) 
26023

>  <PUBCHEM_CONFORMER_RMSD>  (1) 
0.8

>  <PUBCHEM_CONFORMER_DIVERSEORDER>  (1) 
2
43
21
37
35
23
20
42
16
26
17
27
15
18
39
5
19
24
40
36
38
13
25
11
8
29
3
14
33
28
31
12
41
22
6
32
10
1
9
34
7
4
30

>  <PUBCHEM_MMFF94_PARTIAL_CHARGES>  (1) 
23
1 -0.23
10 0.27
12 0.3
13 0.27
14 0.12
15 0.78
16 0.08
17 -0.15
18 -0.15
19 -0.15
2 -0.57
20 -0.15
3 -0.81
38 0.15
39 0.15
4 -0.81
40 0.15
41 0.15
5 -0.48
6 0.27
7 0.27
8 0.27
9 0.27

>  <PUBCHEM_EFFECTIVE_ROTOR_COUNT>  (1) 
5.2

>  <PUBCHEM_PHARMACOPHORE_FEATURES>  (1) 
6
1 2 acceptor
1 3 cation
1 4 cation
5 1 5 14 15 16 rings
6 14 16 17 18 19 20 rings
6 3 4 6 7 9 10 rings

>  <PUBCHEM_HEAVY_ATOM_COUNT>  (1) 
20

>  <PUBCHEM_ATOM_DEF_STEREO_COUNT>  (1) 
0

>  <PUBCHEM_ATOM_UDEF_STEREO_COUNT>  (1) 
0

>  <PUBCHEM_BOND_DEF_STEREO_COUNT>  (1) 
0

>  <PUBCHEM_BOND_UDEF_STEREO_COUNT>  (1) 
0

>  <PUBCHEM_ISOTOPIC_ATOM_COUNT>  (1) 
0

>  <PUBCHEM_COMPONENT_COUNT>  (1) 
1

>  <PUBCHEM_CACTVS_TAUTO_COUNT>  (1) 
1

>  <PUBCHEM_CONFORMER_ID>  (1) 
000065A700000002

>  <PUBCHEM_MMFF94_ENERGY>  (1) 
45.2568

>  <PUBCHEM_FEATURE_SELFOVERLAP>  (1) 
30.562

>  <PUBCHEM_SHAPE_FINGERPRINT>  (1) 
10319926 262 18338785746573922074
10498660 4 18341899571523888424
10608611 8 18339928112567478591
10616163 171 18410860992141160140
10646746 165 18410859828600570910
10670039 82 18263379121716951036
11370993 70 18338795598363436429
12107183 9 17973433305298506634
12173636 292 18265054631228912341
12403259 415 18201726167346496536
12596602 18 17168141299537191000
12633257 1 18115017486247265202
12788726 201 17027154312152846994
12892183 10 18261109716594837834
13402501 40 18342454854887138920
13965767 371 17462284629873775165
14251764 38 18271245993821256464
14341114 176 18335707130810545098
14790565 3 17838062503361117305
15196674 1 18410856547113739724
17492 89 18408606946171271394
17834072 32 18339362937831638313
20645477 56 18264498295277369023
20715895 44 18121494661712417445
21065198 48 18259979388639834770
21065198 57 18410013191731100526
21065199 12 18409169917830923058
21521721 280 18269277855866590161
21623110 236 18341901796375243273
21652331 79 18412263977789552906
22749437 52 18339646633417321284
23227448 37 18411699868226694957
23557571 272 18341345451806950135
23559900 14 18126849287734939262
245318 6 16810122850492342796
341906 21 18335706048547391004
351380 180 18410571760680184170
3524813 1 18130784633139758128
4214541 1 18408886209312780968
5104073 3 18335988579563824130
6328613 192 18188221931664972252
9709674 26 18341337690721931551
9981440 41 18334013891172471731

>  <PUBCHEM_SHAPE_MULTIPOLES>  (1) 
384.91
11.15
3.15
0.79
9.22
0.34
-0.06
4.94
1.46
-1.87
0.02
0.35
-0.1
0.8

>  <PUBCHEM_SHAPE_SELFOVERLAP>  (1) 
811.479

>  <PUBCHEM_SHAPE_VOLUME>  (1) 
218.1

>  <PUBCHEM_COORDINATE_TYPE>  (1) 
2
5
10

$$$$
