26026
     RDKit          3D

 26 29  0  0  0  0  0  0  0  0999 V2000
    0.0929    1.0954    1.6595 S   0  0  0  0  0  0  0  0  0  0  0  0
    5.6328    1.4461   -0.4342 O   0  0  0  0  0  0  0  0  0  0  0  0
   -4.2533    1.3510   -0.4918 N   0  0  0  0  0  0  0  0  0  0  0  0
   -1.5387   -0.9457    0.6556 N   0  0  0  0  0  0  0  0  0  0  0  0
    0.5427   -1.4941    0.8100 N   0  0  0  0  0  0  0  0  0  0  0  0
   -4.2193    2.3735    0.5535 C   0  0  0  0  0  0  0  0  0  0  0  0
   -4.5430    2.0798   -1.7265 C   0  0  0  0  0  0  0  0  0  0  0  0
   -5.4047    3.2605    0.2021 C   0  0  0  0  0  0  0  0  0  0  0  0
   -5.6196    3.0648   -1.2955 C   0  0  0  0  0  0  0  0  0  0  0  0
   -3.0118    0.5956   -0.5709 C   0  0  0  0  0  0  0  0  0  0  0  0
   -2.7717   -0.1681    0.7258 C   0  0  0  0  0  0  0  0  0  0  0  0
   -1.4572   -2.2440    0.2060 C   0  0  0  0  0  0  0  0  0  0  0  0
   -0.3328   -0.5048    1.0154 C   0  0  0  0  0  0  0  0  0  0  0  0
   -0.1101   -2.6002    0.3056 C   0  0  0  0  0  0  0  0  0  0  0  0
   -2.4280   -3.1179   -0.2689 C   0  0  0  0  0  0  0  0  0  0  0  0
    0.3600   -3.8550   -0.0631 C   0  0  0  0  0  0  0  0  0  0  0  0
   -1.9688   -4.3884   -0.6447 C   0  0  0  0  0  0  0  0  0  0  0  0
   -0.6079   -4.7481   -0.5443 C   0  0  0  0  0  0  0  0  0  0  0  0
    1.7652    1.2007    1.0280 C   0  0  0  0  0  0  0  0  0  0  0  0
    1.9882    1.1438   -0.3434 C   0  0  0  0  0  0  0  0  0  0  0  0
    2.8287    1.3389    1.9131 C   0  0  0  0  0  0  0  0  0  0  0  0
    3.2907    1.2262   -0.8358 C   0  0  0  0  0  0  0  0  0  0  0  0
    4.1312    1.4214    1.4208 C   0  0  0  0  0  0  0  0  0  0  0  0
    4.3622    1.3651    0.0464 C   0  0  0  0  0  0  0  0  0  0  0  0
    5.9096    0.7641   -1.6566 C   0  0  0  0  0  0  0  0  0  0  0  0
    7.3626    0.3394   -1.6662 C   0  0  0  0  0  0  0  0  0  0  0  0
  1 13  1  0
  1 19  1  0
  2 24  1  0
  2 25  1  0
  3  6  1  0
  3  7  1  0
  3 10  1  0
  4 11  1  0
  4 12  1  0
  4 13  2  0
  5 13  1  0
  5 14  1  0
  6  8  1  0
  7  9  1  0
  8  9  1  0
 10 11  1  0
 12 14  2  0
 12 15  1  0
 14 16  1  0
 15 17  2  0
 16 18  2  0
 17 18  1  0
 19 20  2  0
 19 21  1  0
 20 22  1  0
 21 23  2  0
 22 24  2  0
 23 24  1  0
 25 26  1  0
M  CHG  1   4   1
M  END
>  <PUBCHEM_COMPOUND_CID>  (1) 
26026

>  <PUBCHEM_CONFORMER_RMSD>  (1) 
0.8

>  <PUBCHEM_CONFORMER_DIVERSEORDER>  (1) 
1
15
92
137
39
22
124
101
84
82
99
72
49
100
128
38
116
18
103
61
56
86
77
115
141
131
20
10
140
75
134
118
94
53
55
138
32
64
21
50
111
80
48
97
60
136
113
120
68
132
117
135
6
13
130
96
16
8
104
17
54
24
59
90
33
119
93
11
106
66
121
51
73
83
133
52
139
25
19
109
31
98
89
4
125
91
95
126
5
14
44
30
87
71
45
63
34
57
114
42
65
37
105
46
81
35
47
29
102
108
23
127
74
9
129
107
62
12
122
3
110
70
2
85
36
69
123
28
88
67
58
40
43
112
7
27
26
79
76
78
41

>  <PUBCHEM_MMFF94_PARTIAL_CHARGES>  (1) 
32
1 -0.19
10 0.27
11 0.51
12 0.31
13 0.89
14 0.31
15 -0.11
16 -0.11
17 -0.15
18 -0.15
19 0.1
2 -0.36
20 -0.15
21 -0.15
22 -0.15
23 -0.15
24 0.08
25 0.28
3 -0.81
39 0.45
4 -0.76
40 0.15
41 0.15
42 0.15
43 0.15
44 0.15
45 0.15
46 0.15
47 0.15
5 -0.7
6 0.27
7 0.27

>  <PUBCHEM_EFFECTIVE_ROTOR_COUNT>  (1) 
8

>  <PUBCHEM_PHARMACOPHORE_FEATURES>  (1) 
8
1 2 acceptor
1 3 cation
1 5 donor
3 4 5 13 cation
5 3 6 7 8 9 rings
5 4 5 12 13 14 rings
6 12 14 15 16 17 18 rings
6 19 20 21 22 23 24 rings

>  <PUBCHEM_HEAVY_ATOM_COUNT>  (1) 
26

>  <PUBCHEM_ATOM_DEF_STEREO_COUNT>  (1) 
0

>  <PUBCHEM_ATOM_UDEF_STEREO_COUNT>  (1) 
0

>  <PUBCHEM_BOND_DEF_STEREO_COUNT>  (1) 
0

>  <PUBCHEM_BOND_UDEF_STEREO_COUNT>  (1) 
0

>  <PUBCHEM_ISOTOPIC_ATOM_COUNT>  (1) 
0

>  <PUBCHEM_COMPONENT_COUNT>  (1) 
1

>  <PUBCHEM_CACTVS_TAUTO_COUNT>  (1) 
2

>  <PUBCHEM_CONFORMER_ID>  (1) 
000065AA00000001

>  <PUBCHEM_MMFF94_ENERGY>  (1) 
54.7485

>  <PUBCHEM_FEATURE_SELFOVERLAP>  (1) 
40.705

>  <PUBCHEM_SHAPE_FINGERPRINT>  (1) 
10165383 225 18341063964662587241
10190108 129 18340771555205718099
10369192 42 18260276222346204325
105312 117 18409446998644470965
11621639 336 17481726160064963681
11796584 16 18341898511505340082
12293681 160 17917150507178387961
12643181 29 18341337734858378246
12788726 201 17901662996969181659
12954195 1 18341330101989466527
12977781 61 15911608446326873438
13690498 29 18051705631103668686
13761468 95 17749382612503016652
13944108 23 17688306785488899037
14294032 229 18409451419120340785
14713325 29 18188499098104059507
14910302 57 18055916751926933090
15163728 17 18335703797826324141
15230672 131 18336271163697774534
15439362 3 18266456494973150592
15664445 248 16464458534826987473
167882 2 18265051323624500939
16988056 13 17328845618373929053
16993427 108 10735590237648307909
20642791 178 18267008467317841651
21033650 10 18116714217536093512
21065201 7 18126564755120789650
21307412 95 18130526158329648084
22122407 14 15647317672136941783
22393880 68 18270120244670616914
22907989 373 17977373160192255887
23559900 14 18059581351706073624
24771750 20 18267586793575929527
312425 83 18119539975436754956
32027 91 18130516275847340998
38570 142 17987806198770086593
4015057 19 16701738353975675880
4058900 60 18265339404344997305
44062 13 18268999855006452382
508706 21 18269840989759832822
5265222 85 18192167082190379996
5283173 99 18268708497294501016
59755656 520 18058747865461188497
6376802 90 18198335355238936168
6523845 18 18271820020690351153

>  <PUBCHEM_SHAPE_MULTIPOLES>  (1) 
518.1
13.24
5.62
1.61
12.85
8.39
0.02
-16.55
8.02
-7.41
1.15
1.24
-0.99
1.04

>  <PUBCHEM_SHAPE_SELFOVERLAP>  (1) 
1097.946

>  <PUBCHEM_SHAPE_VOLUME>  (1) 
292.9

>  <PUBCHEM_COORDINATE_TYPE>  (1) 
2
5
10

$$$$
