26034
     RDKit          3D

 24 26  0  0  0  0  0  0  0  0999 V2000
    0.0156   -0.7918    0.1241 O   0  0  0  0  0  0  0  0  0  0  0  0
   -4.0141    1.9007    0.1216 O   0  0  0  0  0  0  0  0  0  0  0  0
   -4.2641   -2.8378   -0.0476 O   0  0  0  0  0  0  0  0  0  0  0  0
    1.1548    2.7116    0.2525 O   0  0  0  0  0  0  0  0  0  0  0  0
   -1.6167    2.9409    0.2069 O   0  0  0  0  0  0  0  0  0  0  0  0
    5.0002   -0.4777   -2.1396 O   0  0  0  0  0  0  0  0  0  0  0  0
    6.3107   -0.8290    0.2863 O   0  0  0  0  0  0  0  0  0  0  0  0
   -1.9659    0.6100    0.1263 C   0  0  0  0  0  0  0  0  0  0  0  0
   -1.3463   -0.6374    0.0981 C   0  0  0  0  0  0  0  0  0  0  0  0
    0.8086    0.3428    0.1931 C   0  0  0  0  0  0  0  0  0  0  0  0
   -3.3594    0.7065    0.0964 C   0  0  0  0  0  0  0  0  0  0  0  0
   -1.1295    1.8185    0.1858 C   0  0  0  0  0  0  0  0  0  0  0  0
    0.3372    1.6028    0.2170 C   0  0  0  0  0  0  0  0  0  0  0  0
    2.2500    0.0363    0.2138 C   0  0  0  0  0  0  0  0  0  0  0  0
   -2.1175   -1.7985    0.0392 C   0  0  0  0  0  0  0  0  0  0  0  0
   -3.5091   -1.7064    0.0095 C   0  0  0  0  0  0  0  0  0  0  0  0
   -4.1286   -0.4562    0.0382 C   0  0  0  0  0  0  0  0  0  0  0  0
    2.9568   -0.0782   -0.9837 C   0  0  0  0  0  0  0  0  0  0  0  0
    2.9083   -0.1406    1.4311 C   0  0  0  0  0  0  0  0  0  0  0  0
    4.3209   -0.3692   -0.9638 C   0  0  0  0  0  0  0  0  0  0  0  0
    4.2722   -0.4317    1.4511 C   0  0  0  0  0  0  0  0  0  0  0  0
    4.9785   -0.5458    0.2537 C   0  0  0  0  0  0  0  0  0  0  0  0
   -4.2954    2.5123   -1.1359 C   0  0  0  0  0  0  0  0  0  0  0  0
   -3.5672   -4.0823   -0.0743 C   0  0  0  0  0  0  0  0  0  0  0  0
  1  9  1  0
  1 10  1  0
  2 11  1  0
  2 23  1  0
  3 16  1  0
  3 24  1  0
  4 13  1  0
  5 12  2  0
  6 20  1  0
  7 22  1  0
  8  9  2  0
  8 11  1  0
  8 12  1  0
  9 15  1  0
 10 13  2  0
 10 14  1  0
 11 17  2  0
 12 13  1  0
 14 18  2  0
 14 19  1  0
 15 16  2  0
 16 17  1  0
 18 20  1  0
 19 21  2  0
 20 22  2  0
 21 22  1  0
M  END
>  <PUBCHEM_COMPOUND_CID>  (1) 
26034

>  <PUBCHEM_CONFORMER_RMSD>  (1) 
0.6

>  <PUBCHEM_CONFORMER_DIVERSEORDER>  (1) 
3
5
4
6
1
7
8
2

>  <PUBCHEM_MMFF94_PARTIAL_CHARGES>  (1) 
32
1 -0.16
10 0.05
11 0.08
12 0.47
13 0.09
14 0.03
15 -0.15
16 0.08
17 -0.15
18 -0.15
19 -0.15
2 -0.36
20 0.08
21 -0.15
22 0.08
23 0.28
24 0.28
25 0.15
26 0.15
27 0.15
28 0.15
29 0.15
3 -0.36
30 0.45
37 0.45
38 0.45
4 -0.53
5 -0.57
6 -0.53
7 -0.53
8 0.09
9 0.08

>  <PUBCHEM_EFFECTIVE_ROTOR_COUNT>  (1) 
3

>  <PUBCHEM_PHARMACOPHORE_FEATURES>  (1) 
10
1 1 acceptor
1 2 acceptor
1 3 acceptor
1 4 donor
1 5 acceptor
1 6 donor
1 7 donor
6 1 8 9 10 12 13 rings
6 14 18 19 20 21 22 rings
6 8 9 11 15 16 17 rings

>  <PUBCHEM_HEAVY_ATOM_COUNT>  (1) 
24

>  <PUBCHEM_ATOM_DEF_STEREO_COUNT>  (1) 
0

>  <PUBCHEM_ATOM_UDEF_STEREO_COUNT>  (1) 
0

>  <PUBCHEM_BOND_DEF_STEREO_COUNT>  (1) 
0

>  <PUBCHEM_BOND_UDEF_STEREO_COUNT>  (1) 
0

>  <PUBCHEM_ISOTOPIC_ATOM_COUNT>  (1) 
0

>  <PUBCHEM_COMPONENT_COUNT>  (1) 
1

>  <PUBCHEM_CACTVS_TAUTO_COUNT>  (1) 
38

>  <PUBCHEM_CONFORMER_ID>  (1) 
000065B200000003

>  <PUBCHEM_MMFF94_ENERGY>  (1) 
93.9517

>  <PUBCHEM_FEATURE_SELFOVERLAP>  (1) 
50.79

>  <PUBCHEM_SHAPE_FINGERPRINT>  (1) 
10319926 262 18198036163627313394
10411042 1 18194118745257920083
105312 117 18189326867288128949
10616163 171 18411136926562995354
11370993 144 16845303708569301794
11545043 162 18202280316637972874
11796584 16 18340768123073583650
12236239 1 17749391426028491016
12293681 160 17770483263027221145
12403259 226 18196367250757108803
12553582 1 18409168843973048203
12616971 3 17168146707032644526
13140716 1 18341891939535899921
13540713 4 18268412711449771745
13675066 3 17846212297613172586
13690498 29 18263373636484433983
14386348 63 17846498106670671254
14790565 3 17907866102482440713
15042514 8 18410856573168373803
15196674 1 18410853300018484184
16752209 62 18334570261093349443
17138139 8 17750787951424644722
17492 89 18051128391625807059
17804303 29 18413106169184035217
17844677 252 18411421747608886448
200 152 16805323267313907664
20511986 3 17677038063041295136
20600515 1 18129958796575336392
21033648 29 17203597177619694914
21065201 7 18341891887843304834
21267235 1 18409171034617255291
22849339 104 18338807736352588975
23175994 123 17275106136961944393
23366157 5 17970627617622750252
23402539 116 18409162191200205102
23557571 272 18273497861937264622
23559900 14 18271529685290833078
335352 9 18410853283587305159
484989 97 18263070159418621623
5104073 3 18272089447750864872
559249 180 18188484675371809690
602551 16 18413105061451653538
67856867 119 18261114123542728020
6823239 73 18271801350546656184
7237137 82 18259705609801426741
7970288 3 18339077228223856986

>  <PUBCHEM_SHAPE_MULTIPOLES>  (1) 
452.82
11.57
3.23
1.09
10.6
1.11
0.25
4.3
1.58
-6.34
0.18
1.56
0
0.41

>  <PUBCHEM_SHAPE_SELFOVERLAP>  (1) 
1001.589

>  <PUBCHEM_SHAPE_VOLUME>  (1) 
242.5

>  <PUBCHEM_COORDINATE_TYPE>  (1) 
2
5
10

$$$$
