2604
     RDKit          3D

 20 22  0  0  1  0  0  0  0  0999 V2000
   -5.4470   -0.0011   -0.6210 O   0  0  0  0  0  0  0  0  0  0  0  0
   -4.9538    0.0023    1.5966 O   0  0  0  0  0  0  0  0  0  0  0  0
    3.3586   -0.0001   -0.1854 N   0  0  0  0  0  0  0  0  0  0  0  0
   -2.6138   -0.0034   -2.5656 N   0  0  0  0  0  0  0  0  0  0  0  0
    1.9881    0.0001    0.0873 C   0  0  0  0  0  0  0  0  0  0  0  0
    4.0120   -1.2525   -0.5538 C   0  0  0  0  0  0  0  0  0  0  0  0
    4.0118    1.2522   -0.5554 C   0  0  0  0  0  0  0  0  0  0  0  0
    1.2794   -1.2128    0.2497 C   0  0  0  0  0  0  0  0  0  0  0  0
    1.2793    1.2132    0.2484 C   0  0  0  0  0  0  0  0  0  0  0  0
    3.4831   -2.3999    0.2954 C   0  0  0  0  0  0  0  0  0  0  0  0
    3.4829    2.4003    0.2930 C   0  0  0  0  0  0  0  0  0  0  0  0
    1.9788   -2.5413    0.0966 C   0  0  0  0  0  0  0  0  0  0  0  0
    1.9786    2.5415    0.0942 C   0  0  0  0  0  0  0  0  0  0  0  0
   -0.0995   -1.2027    0.5100 C   0  0  0  0  0  0  0  0  0  0  0  0
   -0.0995    1.2034    0.5087 C   0  0  0  0  0  0  0  0  0  0  0  0
   -0.7847    0.0005    0.6385 C   0  0  0  0  0  0  0  0  0  0  0  0
   -2.2142    0.0006    0.9070 C   0  0  0  0  0  0  0  0  0  0  0  0
   -3.1801    0.0003   -0.0409 C   0  0  0  0  0  0  0  0  0  0  0  0
   -4.5920    0.0009    0.4300 C   0  0  0  0  0  0  0  0  0  0  0  0
   -2.8679   -0.0013   -1.4333 C   0  0  0  0  0  0  0  0  0  0  0  0
  1 19  1  0
  2 19  2  0
  3  5  1  0
  3  6  1  0
  3  7  1  0
  4 20  3  0
  5  8  2  0
  5  9  1  0
  6 10  1  0
  7 11  1  0
  8 12  1  0
  8 14  1  0
  9 13  1  0
  9 15  2  0
 10 12  1  0
 11 13  1  0
 14 16  2  0
 15 16  1  0
 16 17  1  0
 17 18  2  0
 18 19  1  0
 18 20  1  0
M  END
>  <PUBCHEM_COMPOUND_CID>  (1) 
2604

>  <PUBCHEM_CONFORMER_RMSD>  (1) 
0.6

>  <PUBCHEM_CONFORMER_DIVERSEORDER>  (1) 
1
3
4
2

>  <PUBCHEM_MMFF94_PARTIAL_CHARGES>  (1) 
22
1 -0.65
12 0.14
13 0.14
14 -0.15
15 -0.15
16 0.03
17 -0.18
18 0.08
19 0.71
2 -0.57
20 0.49
3 -0.84
33 0.15
34 0.15
35 0.15
36 0.5
4 -0.56
5 0.1
6 0.37
7 0.37
8 -0.14
9 -0.14

>  <PUBCHEM_EFFECTIVE_ROTOR_COUNT>  (1) 
3.2

>  <PUBCHEM_PHARMACOPHORE_FEATURES>  (1) 
8
1 1 acceptor
1 2 acceptor
1 3 cation
1 4 acceptor
3 1 2 19 anion
6 3 5 6 8 10 12 rings
6 3 5 7 9 11 13 rings
6 5 8 9 14 15 16 rings

>  <PUBCHEM_HEAVY_ATOM_COUNT>  (1) 
20

>  <PUBCHEM_ATOM_DEF_STEREO_COUNT>  (1) 
0

>  <PUBCHEM_ATOM_UDEF_STEREO_COUNT>  (1) 
0

>  <PUBCHEM_BOND_DEF_STEREO_COUNT>  (1) 
0

>  <PUBCHEM_BOND_UDEF_STEREO_COUNT>  (1) 
1

>  <PUBCHEM_ISOTOPIC_ATOM_COUNT>  (1) 
0

>  <PUBCHEM_COMPONENT_COUNT>  (1) 
1

>  <PUBCHEM_CACTVS_TAUTO_COUNT>  (1) 
1

>  <PUBCHEM_CONFORMER_ID>  (1) 
00000A2C00000001

>  <PUBCHEM_MMFF94_ENERGY>  (1) 
51.0448

>  <PUBCHEM_FEATURE_SELFOVERLAP>  (1) 
40.724

>  <PUBCHEM_SHAPE_FINGERPRINT>  (1) 
10411042 1 18050009892216777322
10693767 8 18130515141559907046
10967382 1 18410863178864926912
11471102 20 18410015442077179264
11796584 16 14979972358350235980
12236239 1 17704075087858176763
12403259 415 17822009800344041605
12553582 1 18269833125653503982
12730499 353 18334866064260073787
13134695 92 18338228280955763364
13140716 1 18266456697459034826
15961568 22 16298960877806132724
16752209 62 16415485909332440297
16945 1 18410578383809833736
17818456 19 17200809799821714105
1813 80 17986399888684761038
18186145 218 18336260223492171332
19784866 34 18198058273422918920
200 152 18272368629199162490
20600515 1 14932606316469116849
20612939 158 18411702084319062625
20645477 70 18411421704416756562
21041028 32 18269276763800074208
21065201 7 16153708687385675051
21267235 1 18340500958500369090
21639500 275 18410566318993536996
22112679 90 17418365896200988761
221357 26 18335133147123395317
22182313 1 17895181195334544365
22289505 5 18335134246197173101
2255824 54 18342458157906347722
23402539 116 18197495113432928706
23557571 272 17022903428437335957
23559900 14 16805325452872344258
23598288 3 17774440474031317929
23598291 2 17989199356947315037
25 1 18336262444164453560
2748010 2 18121232132273578442
3060560 45 18412548721479190086
3071541 37 18335710468063457136
3323516 105 18260267429988375695
33824 294 18410014360093593384
341906 21 15285629984985129791
4072396 5 18335409184987728160
42630746 31 18341611538295329016
474 4 18268711782448486728
5104073 3 18408891767106101035
5281201 14 18113899333997435069
602551 16 16154287137896939987
6049 1 17822004268716295325
633830 44 18129386067149836564
7364860 26 18412547613430180376
7471813 234 18059285470723132824
7495541 125 18040439875614108826
77492 1 17775845718003930625
8272917 22 18341058457707248778
9981440 41 16048691325213634632

>  <PUBCHEM_SHAPE_MULTIPOLES>  (1) 
389.89
9.49
2.36
1.23
9.59
0
0.65
0
0.56
-4.1
-0.25
1.58
0
0

>  <PUBCHEM_SHAPE_SELFOVERLAP>  (1) 
843.758

>  <PUBCHEM_SHAPE_VOLUME>  (1) 
211

>  <PUBCHEM_COORDINATE_TYPE>  (1) 
2
5
10

$$$$
