26068
     RDKit          3D

 11 11  0  0  1  0  0  0  0  0999 V2000
    0.4592    1.5901    0.9665 O   0  0  0  0  0  0  0  0  0  0  0  0
   -0.1794   -0.2549   -0.4776 C   0  0  0  0  0  0  0  0  0  0  0  0
   -1.6501   -0.1089   -0.0824 C   0  0  0  0  0  0  0  0  0  0  0  0
    0.5767    1.0810   -0.3612 C   0  0  0  0  0  0  0  0  0  0  0  0
    0.4902   -1.3496    0.3684 C   0  0  0  0  0  0  0  0  0  0  0  0
    2.0580    0.9117   -0.7089 C   0  0  0  0  0  0  0  0  0  0  0  0
    1.9679   -1.5064    0.0158 C   0  0  0  0  0  0  0  0  0  0  0  0
    2.7209   -0.1842    0.1253 C   0  0  0  0  0  0  0  0  0  0  0  0
   -2.5050   -1.0943   -0.8957 C   0  0  0  0  0  0  0  0  0  0  0  0
   -1.8159   -0.4105    1.4160 C   0  0  0  0  0  0  0  0  0  0  0  0
   -2.1224    1.3262   -0.3661 C   0  0  0  0  0  0  0  0  0  0  0  0
  1  4  1  0
  2  3  1  0
  2  4  1  0
  2  5  1  0
  3  9  1  0
  3 10  1  0
  3 11  1  0
  4  6  1  0
  5  7  1  0
  6  8  1  0
  7  8  1  0
M  END
>  <PUBCHEM_COMPOUND_CID>  (1) 
26068

>  <PUBCHEM_CONFORMER_RMSD>  (1) 
0.6

>  <PUBCHEM_CONFORMER_DIVERSEORDER>  (1) 
2
6
5
3
7
1
4

>  <PUBCHEM_MMFF94_PARTIAL_CHARGES>  (1) 
3
1 -0.68
31 0.4
4 0.28

>  <PUBCHEM_EFFECTIVE_ROTOR_COUNT>  (1) 
2.2

>  <PUBCHEM_PHARMACOPHORE_FEATURES>  (1) 
4
1 1 acceptor
1 1 donor
4 3 9 10 11 hydrophobe
6 2 4 5 6 7 8 rings

>  <PUBCHEM_HEAVY_ATOM_COUNT>  (1) 
11

>  <PUBCHEM_ATOM_DEF_STEREO_COUNT>  (1) 
0

>  <PUBCHEM_ATOM_UDEF_STEREO_COUNT>  (1) 
2

>  <PUBCHEM_BOND_DEF_STEREO_COUNT>  (1) 
0

>  <PUBCHEM_BOND_UDEF_STEREO_COUNT>  (1) 
0

>  <PUBCHEM_ISOTOPIC_ATOM_COUNT>  (1) 
0

>  <PUBCHEM_COMPONENT_COUNT>  (1) 
1

>  <PUBCHEM_CACTVS_TAUTO_COUNT>  (1) 
1

>  <PUBCHEM_CONFORMER_ID>  (1) 
000065D400000002

>  <PUBCHEM_MMFF94_ENERGY>  (1) 
35.6183

>  <PUBCHEM_FEATURE_SELFOVERLAP>  (1) 
20.297

>  <PUBCHEM_SHAPE_FINGERPRINT>  (1) 
12138202 97 16951117508087058747
12423570 1 11830624550937882712
12524768 44 17979074881695225527
12897270 3 18265887128665779943
12932764 1 18272377489669221244
14128692 85 18058718229949696175
15775835 57 18342745155915627997
16945 1 18261964053897701006
18185500 45 18341049618749105582
20201158 50 18186518778545818882
20653091 64 17773877678131911688
21040471 1 18263364849033697188
21501502 16 18334294253831273165
23552423 10 18261393312773456006
241688 4 17905889536651023483
2748010 2 18335703793346669222
29004967 10 18114189622441955688
3248919 1 17676487267533786436
369184 2 18202562865039625715
5084963 1 18200312259242699037
528886 8 18040714731972090260
63268167 104 18413952788799925970
8030462 33 18334018310545534700

>  <PUBCHEM_SHAPE_MULTIPOLES>  (1) 
220.51
3.69
1.65
1.04
0.22
0.09
0.21
-0.38
-0.39
0.17
0.02
-0.44
-0.03
-0.14

>  <PUBCHEM_SHAPE_SELFOVERLAP>  (1) 
433.581

>  <PUBCHEM_SHAPE_VOLUME>  (1) 
132.7

>  <PUBCHEM_COORDINATE_TYPE>  (1) 
2
5
10

$$$$
