26067
     RDKit          3D

 13 14  0  0  1  0  0  0  0  0999 V2000
   -3.1735   -1.0230   -0.7289 O   0  0  0  0  0  0  0  0  0  0  0  0
    0.2320   -0.3853    0.8312 C   0  0  0  0  0  0  0  0  0  0  0  0
    0.4928    0.9549    0.0128 C   0  0  0  0  0  0  0  0  0  0  0  0
    1.4648   -1.3263    0.7767 C   0  0  0  0  0  0  0  0  0  0  0  0
    1.1257    0.6557   -1.3794 C   0  0  0  0  0  0  0  0  0  0  0  0
    1.9975   -1.5723   -0.6300 C   0  0  0  0  0  0  0  0  0  0  0  0
    2.3402   -0.2627   -1.3210 C   0  0  0  0  0  0  0  0  0  0  0  0
   -0.0688   -0.1189    2.3288 C   0  0  0  0  0  0  0  0  0  0  0  0
    1.4173    1.9252    0.7810 C   0  0  0  0  0  0  0  0  0  0  0  0
   -1.0044   -1.1045    0.2874 C   0  0  0  0  0  0  0  0  0  0  0  0
   -0.8245    1.6773   -0.2723 C   0  0  0  0  0  0  0  0  0  0  0  0
   -2.0192   -0.4284   -0.2778 C   0  0  0  0  0  0  0  0  0  0  0  0
   -1.9799    1.0082   -0.4086 C   0  0  0  0  0  0  0  0  0  0  0  0
  1 12  1  0
  2  3  1  0
  2  4  1  0
  2  8  1  0
  2 10  1  0
  3  5  1  0
  3  9  1  0
  3 11  1  0
  4  6  1  0
  5  7  1  0
  6  7  1  0
 10 12  2  0
 11 13  2  0
 12 13  1  0
M  END
>  <PUBCHEM_COMPOUND_CID>  (1) 
26067

>  <PUBCHEM_CONFORMER_RMSD>  (1) 
0.4

>  <PUBCHEM_CONFORMER_DIVERSEORDER>  (1) 
1
3
4
2
5
6

>  <PUBCHEM_MMFF94_PARTIAL_CHARGES>  (1) 
11
1 -0.53
10 -0.29
11 -0.29
12 0.08
13 -0.15
2 0.14
28 0.15
29 0.15
3 0.14
30 0.15
31 0.45

>  <PUBCHEM_EFFECTIVE_ROTOR_COUNT>  (1) 
0.8

>  <PUBCHEM_PHARMACOPHORE_FEATURES>  (1) 
3
1 1 donor
6 2 3 10 11 12 13 rings
6 2 3 4 5 6 7 rings

>  <PUBCHEM_HEAVY_ATOM_COUNT>  (1) 
13

>  <PUBCHEM_ATOM_DEF_STEREO_COUNT>  (1) 
0

>  <PUBCHEM_ATOM_UDEF_STEREO_COUNT>  (1) 
2

>  <PUBCHEM_BOND_DEF_STEREO_COUNT>  (1) 
0

>  <PUBCHEM_BOND_UDEF_STEREO_COUNT>  (1) 
0

>  <PUBCHEM_ISOTOPIC_ATOM_COUNT>  (1) 
0

>  <PUBCHEM_COMPONENT_COUNT>  (1) 
1

>  <PUBCHEM_CACTVS_TAUTO_COUNT>  (1) 
2

>  <PUBCHEM_CONFORMER_ID>  (1) 
000065D300000001

>  <PUBCHEM_MMFF94_ENERGY>  (1) 
34.717

>  <PUBCHEM_FEATURE_SELFOVERLAP>  (1) 
15.292

>  <PUBCHEM_SHAPE_FINGERPRINT>  (1) 
10353120 184 17822865181978325581
10702982 57 15904349113660733800
12326174 3 16127798815798425971
12423570 1 13882095609643017824
13024252 1 17099508589529784390
137420 1 8494848092180603592
14128692 85 18341896255529424846
141345 1 13984677957091906000
144361 1 18186813460509710172
14713566 1 17760088410982136254
14761567 1 17604163565854364098
14817 1 9394008420534820586
161256 15 18411134770715863349
16945 1 17968387766196325918
21922407 69 16485320380499443020
23211744 25 18114468885289014872
23419403 2 17247745842661836858
23552423 10 18114183012408224447
23559900 14 17767676167123794654
241688 4 18041558027299677005
2748010 2 18335968831757955061
430814 3 12324246112977283286
5084963 1 17385715872744538487
528886 8 16879082844726257604
53812653 217 17622763858248749476
54276843 12 17324094636840110472

>  <PUBCHEM_SHAPE_MULTIPOLES>  (1) 
261.66
3.13
1.82
1.56
1.13
0.41
-0.68
-0.9
1.45
-0.24
-0.11
-0.38
-0.07
0.04

>  <PUBCHEM_SHAPE_SELFOVERLAP>  (1) 
546.754

>  <PUBCHEM_SHAPE_VOLUME>  (1) 
147.2

>  <PUBCHEM_COORDINATE_TYPE>  (1) 
2
5
10

$$$$
