2606
     RDKit          3D

 12 12  0  0  1  0  0  0  0  0999 V2000
    1.3929    0.0000    0.2938 O   0  0  0  0  0  0  0  0  0  0  0  0
   -0.1341    1.2260   -0.9316 O   0  0  0  0  0  0  0  0  0  0  0  0
   -2.9132    0.8203    0.0505 N   0  0  0  0  0  0  0  0  0  0  0  0
   -2.2824   -1.3595   -0.7284 N   0  0  0  0  0  0  0  0  0  0  0  0
   -0.8565   -0.1153    0.9375 C   0  0  0  0  0  0  0  0  0  0  0  0
   -2.0094    0.8584    1.1789 C   0  0  0  0  0  0  0  0  0  0  0  0
   -1.3604   -1.4676    0.4189 C   0  0  0  0  0  0  0  0  0  0  0  0
    0.1487    0.4614   -0.0192 C   0  0  0  0  0  0  0  0  0  0  0  0
   -2.9600   -0.2651   -0.7813 C   0  0  0  0  0  0  0  0  0  0  0  0
    2.4528    0.4730   -0.5435 C   0  0  0  0  0  0  0  0  0  0  0  0
    3.7345   -0.0868   -0.1134 C   0  0  0  0  0  0  0  0  0  0  0  0
    4.7870   -0.5450    0.2379 C   0  0  0  0  0  0  0  0  0  0  0  0
  1  8  1  0
  1 10  1  0
  2  8  2  0
  3  6  1  0
  3  9  1  0
  4  7  1  0
  4  9  2  0
  5  6  1  0
  5  7  1  0
  5  8  1  0
 10 11  1  0
 11 12  3  0
M  END
>  <PUBCHEM_COMPOUND_CID>  (1) 
2606

>  <PUBCHEM_CONFORMER_RMSD>  (1) 
0.6

>  <PUBCHEM_CONFORMER_DIVERSEORDER>  (1) 
1
53
43
21
54
22
6
29
3
55
18
44
14
31
4
30
7
17
26
47
49
46
45
42
11
15
8
9
13
10
39
37
52
2
23
51
34
36
40
35
25
50
41
33
20
28
5
48
24
19
27
12
38
32
16

>  <PUBCHEM_MMFF94_PARTIAL_CHARGES>  (1) 
15
1 -0.43
10 0.48
11 -0.2
12 -0.18
18 0.4
19 0.06
2 -0.57
22 0.18
3 -0.82
4 -0.7
5 0.06
6 0.37
7 0.25
8 0.66
9 0.44

>  <PUBCHEM_EFFECTIVE_ROTOR_COUNT>  (1) 
3.8

>  <PUBCHEM_PHARMACOPHORE_FEATURES>  (1) 
5
1 12 hydrophobe
1 2 acceptor
1 3 donor
3 3 4 9 cation
6 3 4 5 6 7 9 rings

>  <PUBCHEM_HEAVY_ATOM_COUNT>  (1) 
12

>  <PUBCHEM_ATOM_DEF_STEREO_COUNT>  (1) 
0

>  <PUBCHEM_ATOM_UDEF_STEREO_COUNT>  (1) 
1

>  <PUBCHEM_BOND_DEF_STEREO_COUNT>  (1) 
0

>  <PUBCHEM_BOND_UDEF_STEREO_COUNT>  (1) 
0

>  <PUBCHEM_ISOTOPIC_ATOM_COUNT>  (1) 
0

>  <PUBCHEM_COMPONENT_COUNT>  (1) 
1

>  <PUBCHEM_CACTVS_TAUTO_COUNT>  (1) 
1

>  <PUBCHEM_CONFORMER_ID>  (1) 
00000A2E00000001

>  <PUBCHEM_MMFF94_ENERGY>  (1) 
16.7826

>  <PUBCHEM_FEATURE_SELFOVERLAP>  (1) 
25.371

>  <PUBCHEM_SHAPE_FINGERPRINT>  (1) 
13024252 1 14418134028411511411
13296908 3 17023474152318589840
14577589 140 18335708234174106498
14993402 34 18187075165973516423
18186145 218 15285359552696455780
187816 3 17917705786820994289
200 152 17846771919045943886
20279233 1 16845580798758683276
20645477 56 17703239411966779425
20645477 70 17022617542972629442
20653085 51 17458621276468652701
22485316 2 18341890784421441690
23402539 116 17632572726419409825
23559900 14 18060128873698864352
3248919 1 17917163753173662324
57812782 119 16702302351784643264

>  <PUBCHEM_SHAPE_MULTIPOLES>  (1) 
225.25
6.98
1.2
1
8.9
0.24
-0.07
1.01
0.26
-0.73
0.03
-0.48
-0.09
-0.43

>  <PUBCHEM_SHAPE_SELFOVERLAP>  (1) 
449.684

>  <PUBCHEM_SHAPE_VOLUME>  (1) 
127.9

>  <PUBCHEM_COORDINATE_TYPE>  (1) 
2
5
10

$$$$
