26062
     RDKit          3D

  8  7  0  0  1  0  0  0  0  0999 V2000
    0.4721    1.8733   -0.0193 O   0  0  0  0  0  0  0  0  0  0  0  0
    1.4489   -1.5396    0.5755 O   0  0  0  0  0  0  0  0  0  0  0  0
    1.9257   -0.1080   -1.1196 O   0  0  0  0  0  0  0  0  0  0  0  0
   -3.0351   -0.5567   -0.3261 N   0  0  0  0  0  0  0  0  0  0  0  0
   -0.9747    0.1395    0.8095 C   0  0  0  0  0  0  0  0  0  0  0  0
    0.4682    0.6366    0.6778 C   0  0  0  0  0  0  0  0  0  0  0  0
   -1.6647   -0.1018   -0.5376 C   0  0  0  0  0  0  0  0  0  0  0  0
    1.3594   -0.3434   -0.0601 C   0  0  0  0  0  0  0  0  0  0  0  0
  1  6  1  0
  2  8  1  0
  3  8  2  0
  4  7  1  0
  5  6  1  0
  5  7  1  0
  6  8  1  0
M  END
>  <PUBCHEM_COMPOUND_CID>  (1) 
26062

>  <PUBCHEM_CONFORMER_RMSD>  (1) 
0.6

>  <PUBCHEM_CONFORMER_DIVERSEORDER>  (1) 
1
18
17
12
8
7
9
6
16
11
4
13
15
3
14
5
2
10

>  <PUBCHEM_MMFF94_PARTIAL_CHARGES>  (1) 
11
1 -0.68
14 0.36
15 0.36
16 0.4
17 0.5
2 -0.65
3 -0.57
4 -0.99
6 0.34
7 0.27
8 0.66

>  <PUBCHEM_EFFECTIVE_ROTOR_COUNT>  (1) 
3

>  <PUBCHEM_PHARMACOPHORE_FEATURES>  (1) 
7
1 1 acceptor
1 1 donor
1 2 acceptor
1 3 acceptor
1 4 cation
1 4 donor
3 2 3 8 anion

>  <PUBCHEM_HEAVY_ATOM_COUNT>  (1) 
8

>  <PUBCHEM_ATOM_DEF_STEREO_COUNT>  (1) 
0

>  <PUBCHEM_ATOM_UDEF_STEREO_COUNT>  (1) 
1

>  <PUBCHEM_BOND_DEF_STEREO_COUNT>  (1) 
0

>  <PUBCHEM_BOND_UDEF_STEREO_COUNT>  (1) 
0

>  <PUBCHEM_ISOTOPIC_ATOM_COUNT>  (1) 
0

>  <PUBCHEM_COMPONENT_COUNT>  (1) 
1

>  <PUBCHEM_CACTVS_TAUTO_COUNT>  (1) 
1

>  <PUBCHEM_CONFORMER_ID>  (1) 
000065CE00000001

>  <PUBCHEM_MMFF94_ENERGY>  (1) 
-0.6207

>  <PUBCHEM_FEATURE_SELFOVERLAP>  (1) 
35.586

>  <PUBCHEM_SHAPE_FINGERPRINT>  (1) 
14390081 3 13479127999941092847
18185500 45 18340487759638386123
23552333 60 17917148407075983995
23552449 11 17916850404975453979
29004967 10 18409725166543635153

>  <PUBCHEM_SHAPE_MULTIPOLES>  (1) 
142.05
3.04
1.29
0.94
2.13
0.33
0.03
-1.06
0.7
-0.48
-0.12
-0.18
-0.04
-0.18

>  <PUBCHEM_SHAPE_SELFOVERLAP>  (1) 
262.03

>  <PUBCHEM_SHAPE_VOLUME>  (1) 
89.5

>  <PUBCHEM_COORDINATE_TYPE>  (1) 
2
5
10

$$$$
