26072
     RDKit          3D

 30 33  0  0  1  0  0  0  0  0999 V2000
   -6.3821   -0.5932    0.4107 O   0  0  0  0  0  0  0  0  0  0  0  0
    0.0185   -1.2079   -2.1300 O   0  0  0  0  0  0  0  0  0  0  0  0
    2.5975    2.0987    1.7399 O   0  0  0  0  0  0  0  0  0  0  0  0
   -3.7387   -1.4423   -0.2165 N   0  0  0  0  0  0  0  0  0  0  0  0
    2.2145    0.0903   -0.8489 N   0  0  0  0  0  0  0  0  0  0  0  0
   -2.5161   -1.3896   -1.0152 C   0  0  0  0  0  0  0  0  0  0  0  0
    1.2534   -0.7456   -0.0972 C   0  0  0  0  0  0  0  0  0  0  0  0
   -1.3164   -1.0739   -0.1273 C   0  0  0  0  0  0  0  0  0  0  0  0
   -4.8878   -1.8306   -1.0462 C   0  0  0  0  0  0  0  0  0  0  0  0
   -3.9976   -0.1470    0.4274 C   0  0  0  0  0  0  0  0  0  0  0  0
   -0.0098   -1.0217   -0.9134 C   0  0  0  0  0  0  0  0  0  0  0  0
   -6.1534   -1.8664   -0.1944 C   0  0  0  0  0  0  0  0  0  0  0  0
   -5.2838   -0.2234    1.2451 C   0  0  0  0  0  0  0  0  0  0  0  0
    1.9275   -1.9769    0.4814 C   0  0  0  0  0  0  0  0  0  0  0  0
    2.5620    1.3531   -0.5153 C   0  0  0  0  0  0  0  0  0  0  0  0
    2.8532   -0.3290   -1.9647 C   0  0  0  0  0  0  0  0  0  0  0  0
    3.4716    1.7762   -1.4592 C   0  0  0  0  0  0  0  0  0  0  0  0
    1.8230   -3.1782   -0.1931 C   0  0  0  0  0  0  0  0  0  0  0  0
    2.6271   -1.8634    1.6675 C   0  0  0  0  0  0  0  0  0  0  0  0
    3.6560    0.7119   -2.3761 C   0  0  0  0  0  0  0  0  0  0  0  0
    2.0669    2.0871    0.6093 C   0  0  0  0  0  0  0  0  0  0  0  0
    2.4421   -4.3093    0.3389 C   0  0  0  0  0  0  0  0  0  0  0  0
    3.2462   -2.9945    2.1994 C   0  0  0  0  0  0  0  0  0  0  0  0
    0.8404    2.9415    0.5033 C   0  0  0  0  0  0  0  0  0  0  0  0
    3.1537   -4.2174    1.5352 C   0  0  0  0  0  0  0  0  0  0  0  0
    0.1837    2.9947   -0.7017 C   0  0  0  0  0  0  0  0  0  0  0  0
    0.4276    3.6327    1.6158 C   0  0  0  0  0  0  0  0  0  0  0  0
   -0.9580    3.7898   -0.8005 C   0  0  0  0  0  0  0  0  0  0  0  0
   -0.7143    4.4277    1.5169 C   0  0  0  0  0  0  0  0  0  0  0  0
   -1.4071    4.5062    0.3088 C   0  0  0  0  0  0  0  0  0  0  0  0
  1 12  1  0
  1 13  1  0
  2 11  2  0
  3 21  2  0
  4  6  1  0
  4  9  1  0
  4 10  1  0
  5  7  1  0
  5 15  1  0
  5 16  1  0
  6  8  1  0
  7 11  1  0
  7 14  1  0
  8 11  1  0
  9 12  1  0
 10 13  1  0
 14 18  2  0
 14 19  1  0
 15 17  2  0
 15 21  1  0
 16 20  2  0
 17 20  1  0
 18 22  1  0
 19 23  2  0
 21 24  1  0
 22 25  2  0
 23 25  1  0
 24 26  2  0
 24 27  1  0
 26 28  1  0
 27 29  2  0
 28 30  2  0
 29 30  1  0
M  END
>  <PUBCHEM_COMPOUND_CID>  (1) 
26072

>  <PUBCHEM_CONFORMER_RMSD>  (1) 
1

>  <PUBCHEM_CONFORMER_DIVERSEORDER>  (1) 
1
52
115
159
234
217
180
209
235
202
239
57
63
215
146
71
143
160
192
124
185
33
173
32
228
102
196
165
195
12
251
72
64
162
110
236
11
46
243
238
189
191
76
10
247
222
200
47
6
216
166
176
51
20
43
183
49
144
117
100
111
138
141
26
24
248
174
133
186
82
37
253
38
163
213
207
197
113
169
181
15
211
233
73
168
27
218
99
249
175
221
194
140
2
116
223
204
193
104
79
188
35
255
184
86
78
119
67
205
84
229
182
9
252
134
118
18
187
88
121
224
219
171
122
145
55
41
226
56
96
210
170
90
17
190
132
212
65
201
5
127
92
44
179
19
16
208
172
147
48
154
220
150
242
3
177
227
128
129
106
74
157
254
14
120
53
245
112
23
158
4
75
50
31
155
13
60
135
142
70
199
161
25
91
250
246
62
164
93
7
22
139
68
89
29
109
107
131
167
36
61
59
126
148
232
94
30
244
137
151
87
125
130
28
39
54
83
203
95
108
231
225
21
34
156
152
136
40
66
149
178
77
81
240
206
230
42
198
237
214
45
241
58
123
97
85
80
114
153
103
69
98
8
101
105

>  <PUBCHEM_MMFF94_PARTIAL_CHARGES>  (1) 
43
1 -0.56
10 0.27
11 0.45
12 0.28
13 0.28
14 -0.14
15 -0.24
16 -0.3
17 -0.15
18 -0.15
19 -0.15
2 -0.57
20 -0.15
21 0.57
22 -0.15
23 -0.15
24 0.09
25 -0.15
26 -0.15
27 -0.15
28 -0.15
29 -0.15
3 -0.57
30 -0.15
4 -0.81
44 0.15
45 0.15
46 0.15
47 0.15
48 0.15
49 0.15
5 0.05
50 0.15
51 0.15
52 0.15
53 0.15
54 0.15
55 0.15
56 0.15
6 0.27
7 0.46
8 0.06
9 0.27

>  <PUBCHEM_EFFECTIVE_ROTOR_COUNT>  (1) 
9.2

>  <PUBCHEM_PHARMACOPHORE_FEATURES>  (1) 
9
1 1 acceptor
1 2 acceptor
1 3 acceptor
1 4 cation
1 5 cation
5 5 15 16 17 20 rings
6 1 4 9 10 12 13 rings
6 14 18 19 22 23 25 rings
6 24 26 27 28 29 30 rings

>  <PUBCHEM_HEAVY_ATOM_COUNT>  (1) 
30

>  <PUBCHEM_ATOM_DEF_STEREO_COUNT>  (1) 
0

>  <PUBCHEM_ATOM_UDEF_STEREO_COUNT>  (1) 
1

>  <PUBCHEM_BOND_DEF_STEREO_COUNT>  (1) 
0

>  <PUBCHEM_BOND_UDEF_STEREO_COUNT>  (1) 
0

>  <PUBCHEM_ISOTOPIC_ATOM_COUNT>  (1) 
0

>  <PUBCHEM_COMPONENT_COUNT>  (1) 
1

>  <PUBCHEM_CACTVS_TAUTO_COUNT>  (1) 
3

>  <PUBCHEM_CONFORMER_ID>  (1) 
000065D800000001

>  <PUBCHEM_MMFF94_ENERGY>  (1) 
76.7873

>  <PUBCHEM_FEATURE_SELFOVERLAP>  (1) 
45.673

>  <PUBCHEM_SHAPE_FINGERPRINT>  (1) 
10074138 170 17110693710613344210
10675989 125 18264220256622804652
11421498 54 18335150782058295062
12788726 201 18265341594636302507
13533116 47 18333167280884973587
13583140 156 18191880122525244339
13692114 37 17693371141185564513
13692115 27 18044934563126928310
13965767 371 17559654295958916290
14028597 1 18408042914528623736
14955137 171 18410283732059062706
15210252 30 18116447022640781869
15420108 30 17701521021342123542
15475509 84 18265610979590804363
18681886 176 17559966578810186839
19319366 153 18261961872123062350
21344244 78 18339346484054871851
376196 1 17124787718798789592
57527573 199 18052534671693658944
5912855 24 17614275568638601034
6376802 137 17411300288995876929
70251023 43 18269574761764094014
7288768 16 17404848740920578257

>  <PUBCHEM_SHAPE_MULTIPOLES>  (1) 
589.82
9.42
6.72
1.99
18.61
3.93
0.11
-9.15
-0.26
-2.45
-3.02
-1.96
0.09
-2.72

>  <PUBCHEM_SHAPE_SELFOVERLAP>  (1) 
1274.683

>  <PUBCHEM_SHAPE_VOLUME>  (1) 
322.5

>  <PUBCHEM_COORDINATE_TYPE>  (1) 
2
5
10

$$$$
