26073
     RDKit          3D

  8  7  0  0  0  0  0  0  0  0999 V2000
    1.4405   -2.3314    0.0122 Cl  0  0  0  0  0  0  0  0  0  0  0  0
    0.6713    0.5348    0.0320 Si  0  0  0  0  0  4  0  0  0  0  0  0
   -0.8844    0.1675    0.5448 O   0  0  0  0  0  0  0  0  0  0  0  0
    1.4152   -0.8562   -0.9765 C   0  0  0  0  0  0  0  0  0  0  0  0
    0.6775    2.0947   -1.0274 C   0  0  0  0  0  0  0  0  0  0  0  0
    1.7749    0.8649    1.5252 C   0  0  0  0  0  0  0  0  0  0  0  0
   -1.8994   -0.0857   -0.4155 C   0  0  0  0  0  0  0  0  0  0  0  0
   -3.1957   -0.3887    0.3052 C   0  0  0  0  0  0  0  0  0  0  0  0
  1  4  1  0
  2  3  1  0
  2  4  1  0
  2  5  1  0
  2  6  1  0
  3  7  1  0
  7  8  1  0
M  END
>  <PUBCHEM_COMPOUND_CID>  (1) 
26073

>  <PUBCHEM_CONFORMER_RMSD>  (1) 
0.6

>  <PUBCHEM_CONFORMER_DIVERSEORDER>  (1) 
1
5
6
2
3
4

>  <PUBCHEM_MMFF94_PARTIAL_CHARGES>  (1) 
7
1 -0.29
2 0.54
3 -0.58
4 0.21
5 -0.08
6 -0.08
7 0.28

>  <PUBCHEM_EFFECTIVE_ROTOR_COUNT>  (1) 
3

>  <PUBCHEM_PHARMACOPHORE_FEATURES>  (1) 
0

>  <PUBCHEM_HEAVY_ATOM_COUNT>  (1) 
8

>  <PUBCHEM_ATOM_DEF_STEREO_COUNT>  (1) 
0

>  <PUBCHEM_ATOM_UDEF_STEREO_COUNT>  (1) 
0

>  <PUBCHEM_BOND_DEF_STEREO_COUNT>  (1) 
0

>  <PUBCHEM_BOND_UDEF_STEREO_COUNT>  (1) 
0

>  <PUBCHEM_ISOTOPIC_ATOM_COUNT>  (1) 
0

>  <PUBCHEM_COMPONENT_COUNT>  (1) 
1

>  <PUBCHEM_CACTVS_TAUTO_COUNT>  (1) 
1

>  <PUBCHEM_CONFORMER_ID>  (1) 
000065D900000001

>  <PUBCHEM_MMFF94_ENERGY>  (1) 
1.4917

>  <PUBCHEM_FEATURE_SELFOVERLAP>  (1) 
0

>  <PUBCHEM_SHAPE_FINGERPRINT>  (1) 
10219947 1 18336534023378414680
12423570 1 13122746383847676180
12932764 1 17632307804256882753
20653091 64 18200609019944732299
20711978 78 17488445404580596172
20711985 344 17682953297748092569
21040471 1 17910957172916556852
21061003 4 17414697792662744746
23235687 12 18042678580383309509
23552333 60 17632865221728113091
23552423 10 18411428331962510607
23552449 11 17988637454675886691
29004967 10 18408322176863927825
3248919 1 18336547230961720251
3250762 1 17978492153881720648
5943 1 12939245306422817852

>  <PUBCHEM_SHAPE_MULTIPOLES>  (1) 
178.85
3.33
2.12
1.23
3.87
0.55
0.19
0.83
0.58
-1.47
-0.45
-0.61
-0.39
0.27

>  <PUBCHEM_SHAPE_SELFOVERLAP>  (1) 
294.836

>  <PUBCHEM_SHAPE_VOLUME>  (1) 
124.4

>  <PUBCHEM_COORDINATE_TYPE>  (1) 
2
5
10

$$$$
