26086
     RDKit          3D

  8  7  0  0  0  0  0  0  0  0999 V2000
   -3.6003    0.5088   -0.1345 O   0  0  0  0  0  0  0  0  0  0  0  0
    3.5910    0.5149   -0.1378 O   0  0  0  0  0  0  0  0  0  0  0  0
   -0.0032   -0.1789    0.2822 N   0  0  0  0  0  0  0  0  0  0  0  0
    0.0291   -1.4825   -0.3191 N   0  0  0  0  0  0  0  0  0  0  0  0
   -1.2084    0.5189   -0.1639 C   0  0  0  0  0  0  0  0  0  0  0  0
    1.1992    0.5413   -0.1305 C   0  0  0  0  0  0  0  0  0  0  0  0
   -2.4565   -0.2116    0.3056 C   0  0  0  0  0  0  0  0  0  0  0  0
    2.4491   -0.2109    0.2980 C   0  0  0  0  0  0  0  0  0  0  0  0
  1  7  1  0
  2  8  1  0
  3  4  1  0
  3  5  1  0
  3  6  1  0
  5  7  1  0
  6  8  1  0
M  END
>  <PUBCHEM_COMPOUND_CID>  (1) 
26086

>  <PUBCHEM_CONFORMER_RMSD>  (1) 
0.6

>  <PUBCHEM_CONFORMER_DIVERSEORDER>  (1) 
1
9
10
31
14
27
12
24
8
23
30
22
13
28
4
21
32
16
7
18
2
26
25
11
6
29
3
15
19
5
20
17

>  <PUBCHEM_MMFF94_PARTIAL_CHARGES>  (1) 
12
1 -0.68
17 0.36
18 0.36
19 0.4
2 -0.68
20 0.4
3 -0.54
4 -0.72
5 0.27
6 0.27
7 0.28
8 0.28

>  <PUBCHEM_EFFECTIVE_ROTOR_COUNT>  (1) 
4

>  <PUBCHEM_PHARMACOPHORE_FEATURES>  (1) 
5
1 1 acceptor
1 1 donor
1 2 acceptor
1 2 donor
1 4 donor

>  <PUBCHEM_HEAVY_ATOM_COUNT>  (1) 
8

>  <PUBCHEM_ATOM_DEF_STEREO_COUNT>  (1) 
0

>  <PUBCHEM_ATOM_UDEF_STEREO_COUNT>  (1) 
0

>  <PUBCHEM_BOND_DEF_STEREO_COUNT>  (1) 
0

>  <PUBCHEM_BOND_UDEF_STEREO_COUNT>  (1) 
0

>  <PUBCHEM_ISOTOPIC_ATOM_COUNT>  (1) 
0

>  <PUBCHEM_COMPONENT_COUNT>  (1) 
1

>  <PUBCHEM_CACTVS_TAUTO_COUNT>  (1) 
1

>  <PUBCHEM_CONFORMER_ID>  (1) 
000065E600000001

>  <PUBCHEM_MMFF94_ENERGY>  (1) 
8.0528

>  <PUBCHEM_FEATURE_SELFOVERLAP>  (1) 
25.373

>  <PUBCHEM_SHAPE_FINGERPRINT>  (1) 
11062470 55 16660362575959872645
14325111 11 18411138038916768298
14390081 3 18201999902454685697
16714656 1 18410572907130497124
23235685 24 18413385436399511624
5460574 1 10231757786056783624

>  <PUBCHEM_SHAPE_MULTIPOLES>  (1) 
142.94
5.38
0.96
0.62
0.05
0.28
0.02
-1.15
0.08
-0.01
-0.1
0
0.02
0

>  <PUBCHEM_SHAPE_SELFOVERLAP>  (1) 
252.57

>  <PUBCHEM_SHAPE_VOLUME>  (1) 
94.2

>  <PUBCHEM_COORDINATE_TYPE>  (1) 
2
5
10

$$$$
