2608
     RDKit          3D

 18 19  0  0  0  0  0  0  0  0999 V2000
    4.5324   -0.3451   -0.1041 S   0  0  0  0  0  0  0  0  0  0  0  0
    5.2583    0.6477    0.6858 O   0  0  0  0  0  0  0  0  0  0  0  0
    4.6192   -1.7619    0.2396 O   0  0  0  0  0  0  0  0  0  0  0  0
   -1.2311    1.0485    0.3398 N   0  0  0  0  0  0  0  0  0  0  0  0
    5.0292   -0.1627   -1.7422 N   0  0  0  0  0  0  0  0  0  0  0  0
   -2.3818   -1.0236    0.5685 N   0  0  0  0  0  0  0  0  0  0  0  0
   -4.7153   -1.1703   -0.0157 N   0  0  0  0  0  0  0  0  0  0  0  0
   -5.8589    0.7575   -0.8189 N   0  0  0  0  0  0  0  0  0  0  0  0
    2.8401    0.0639    0.0264 C   0  0  0  0  0  0  0  0  0  0  0  0
    0.1361    0.7179    0.2353 C   0  0  0  0  0  0  0  0  0  0  0  0
    2.4591    1.3785    0.2962 C   0  0  0  0  0  0  0  0  0  0  0  0
    1.8689   -0.9237   -0.1390 C   0  0  0  0  0  0  0  0  0  0  0  0
    1.1072    1.7054    0.4007 C   0  0  0  0  0  0  0  0  0  0  0  0
    0.5169   -0.5966   -0.0345 C   0  0  0  0  0  0  0  0  0  0  0  0
   -2.4086    0.2846    0.2233 C   0  0  0  0  0  0  0  0  0  0  0  0
   -3.5450    0.9209   -0.2441 C   0  0  0  0  0  0  0  0  0  0  0  0
   -4.6771    0.1380   -0.3436 C   0  0  0  0  0  0  0  0  0  0  0  0
   -3.5496   -1.6793    0.4266 C   0  0  0  0  0  0  0  0  0  0  0  0
  1  2  2  0
  1  3  2  0
  1  5  1  0
  1  9  1  0
  4 10  1  0
  4 15  1  0
  6 15  2  0
  6 18  1  0
  7 17  1  0
  7 18  2  0
  8 17  1  0
  9 11  2  0
  9 12  1  0
 10 13  2  0
 10 14  1  0
 11 13  1  0
 12 14  2  0
 15 16  1  0
 16 17  2  0
M  END
>  <PUBCHEM_COMPOUND_CID>  (1) 
2608

>  <PUBCHEM_CONFORMER_RMSD>  (1) 
0.6

>  <PUBCHEM_CONFORMER_DIVERSEORDER>  (1) 
3
15
5
18
2
8
12
9
17
6
13
7
16
10
1
4
14
11

>  <PUBCHEM_MMFF94_PARTIAL_CHARGES>  (1) 
29
1 1.45
10 0.1
11 -0.15
12 -0.15
13 -0.15
14 -0.15
15 0.41
16 -0.15
17 0.41
18 0.47
19 0.15
2 -0.65
20 0.15
21 0.15
22 0.15
23 0.4
24 0.15
25 0.42
26 0.42
27 0.15
28 0.4
29 0.4
3 -0.65
4 -0.6
5 -0.98
6 -0.62
7 -0.62
8 -0.9
9 -0.01

>  <PUBCHEM_EFFECTIVE_ROTOR_COUNT>  (1) 
3

>  <PUBCHEM_PHARMACOPHORE_FEATURES>  (1) 
10
1 2 acceptor
1 3 acceptor
1 4 donor
1 5 donor
1 8 cation
1 8 donor
3 4 6 15 cation
3 6 7 18 cation
6 6 7 15 16 17 18 rings
6 9 10 11 12 13 14 rings

>  <PUBCHEM_HEAVY_ATOM_COUNT>  (1) 
18

>  <PUBCHEM_ATOM_DEF_STEREO_COUNT>  (1) 
0

>  <PUBCHEM_ATOM_UDEF_STEREO_COUNT>  (1) 
0

>  <PUBCHEM_BOND_DEF_STEREO_COUNT>  (1) 
0

>  <PUBCHEM_BOND_UDEF_STEREO_COUNT>  (1) 
0

>  <PUBCHEM_ISOTOPIC_ATOM_COUNT>  (1) 
0

>  <PUBCHEM_COMPONENT_COUNT>  (1) 
1

>  <PUBCHEM_CACTVS_TAUTO_COUNT>  (1) 
9

>  <PUBCHEM_CONFORMER_ID>  (1) 
00000A3000000003

>  <PUBCHEM_MMFF94_ENERGY>  (1) 
60.8017

>  <PUBCHEM_FEATURE_SELFOVERLAP>  (1) 
50.896

>  <PUBCHEM_SHAPE_FINGERPRINT>  (1) 
11315181 36 18272654558057082712
11401426 45 18410007749574467784
11796584 16 17821727230372626274
11806522 49 18412546513676037280
12032990 46 18272094885648894152
12555020 224 18411409610458881215
12596602 18 13902184876620011287
12815109 37 18411697681935262801
13533116 47 14261359024819843246
13862211 1 18272647931149508502
14123238 8 11600005457334755713
14251731 8 18407759231574667509
14252887 29 17274831237949318156
14366163 111 16515408482192738332
15196674 1 18410854408214628227
15242439 84 18409727365999576037
15788980 27 17749393654325259296
17834072 33 18187087286355512020
17834072 8 18411982459615256213
17870717 6 18411429401372535239
1813 80 14764354850866914128
18222031 100 17703792505302227556
200 152 17847057792396245649
20279233 1 18341618118085057943
20374829 77 18408318891451297305
20645477 56 18113333086400641261
20645477 70 18202002148659161092
21267235 1 18411427232577600323
21682296 61 17273711862103560822
221490 88 18192156103473242939
2215653 11 18341608205395413189
23402539 116 16877657967977469741
23402655 69 18408881815798588077
23536379 177 16805039605855848048
23557571 272 18337674109504564933
23559900 14 18339916112714008705
239999 70 18202569488807572270
26918003 58 18343298176105088665
2871803 45 18409729530404481034
29717793 49 17632578240730195749
300161 21 17967807249752778490
3004659 81 18041278764964483434
32948 21 18113897143595736325
351380 180 18411415124690207491
3545911 37 18335419067659937965
4072396 5 18337658746896793618
4214541 1 18409728448305155769
4921388 177 16153718664810988539
5104073 3 18341614836487406225
5283173 99 18262794047711935925
542803 24 16370444453685790431
633830 44 17168422769870618393
960060 61 17967538965206196326
9709674 26 18191586565509663339

>  <PUBCHEM_SHAPE_MULTIPOLES>  (1) 
337.64
12.71
1.57
0.85
1.86
0.13
-0.23
1.89
-2.46
0.05
0.22
-0.53
0
0.65

>  <PUBCHEM_SHAPE_SELFOVERLAP>  (1) 
707.963

>  <PUBCHEM_SHAPE_VOLUME>  (1) 
189.8

>  <PUBCHEM_COORDINATE_TYPE>  (1) 
2
5
10

$$$$
