26098
     RDKit          3D

 22 24  0  0  1  0  0  0  0  0999 V2000
   -0.0741   -2.7756   -1.0354 O   0  0  0  0  0  0  0  0  0  0  0  0
    3.1742    0.6456   -0.7294 O   0  0  0  0  0  0  0  0  0  0  0  0
   -0.1256   -0.4754   -0.4545 N   0  0  0  0  0  0  0  0  0  0  0  0
    0.8342    0.5384   -0.3623 N   0  0  0  0  0  0  0  0  0  0  0  0
   -0.7940    2.1129    0.3385 N   0  0  0  0  0  0  0  0  0  0  0  0
    1.4173    2.7934    0.1231 N   0  0  0  0  0  0  0  0  0  0  0  0
    1.9148   -1.4033   -1.0725 C   0  0  0  0  0  0  0  0  0  0  0  0
    2.7791   -2.3058   -0.2118 C   0  0  0  0  0  0  0  0  0  0  0  0
    0.4417   -1.6822   -0.8607 C   0  0  0  0  0  0  0  0  0  0  0  0
    2.1080    0.0503   -0.7098 C   0  0  0  0  0  0  0  0  0  0  0  0
   -1.4695   -0.1996   -0.1419 C   0  0  0  0  0  0  0  0  0  0  0  0
    0.4458    1.8258    0.0432 C   0  0  0  0  0  0  0  0  0  0  0  0
    2.4608   -2.1397    1.2739 C   0  0  0  0  0  0  0  0  0  0  0  0
   -1.7759    1.1119    0.2529 C   0  0  0  0  0  0  0  0  0  0  0  0
   -2.4885   -1.1568   -0.2089 C   0  0  0  0  0  0  0  0  0  0  0  0
    3.3468   -3.0226    2.1380 C   0  0  0  0  0  0  0  0  0  0  0  0
   -3.0975    1.4464    0.5749 C   0  0  0  0  0  0  0  0  0  0  0  0
   -3.8022   -0.8105    0.1148 C   0  0  0  0  0  0  0  0  0  0  0  0
   -4.1073    0.4892    0.5061 C   0  0  0  0  0  0  0  0  0  0  0  0
    1.7248    3.6198   -1.0211 C   0  0  0  0  0  0  0  0  0  0  0  0
    1.9690    3.1751    1.4026 C   0  0  0  0  0  0  0  0  0  0  0  0
   -4.8820   -1.8371    0.0402 C   0  0  0  0  0  0  0  0  0  0  0  0
  1  9  2  0
  2 10  2  0
  3  4  1  0
  3  9  1  0
  3 11  1  0
  4 10  1  0
  4 12  1  0
  5 12  2  0
  5 14  1  0
  6 12  1  0
  6 20  1  0
  6 21  1  0
  7  8  1  0
  7  9  1  0
  7 10  1  0
  8 13  1  0
 11 14  2  0
 11 15  1  0
 13 16  1  0
 14 17  1  0
 15 18  2  0
 17 19  2  0
 18 19  1  0
 18 22  1  0
M  END
>  <PUBCHEM_COMPOUND_CID>  (1) 
26098

>  <PUBCHEM_CONFORMER_RMSD>  (1) 
0.6

>  <PUBCHEM_CONFORMER_DIVERSEORDER>  (1) 
1
6
4
5
3
2

>  <PUBCHEM_MMFF94_PARTIAL_CHARGES>  (1) 
22
1 -0.57
10 0.57
11 0.12
12 0.56
14 0.18
15 -0.15
17 -0.15
18 -0.14
19 -0.15
2 -0.57
20 0.37
21 0.37
22 0.14
28 0.15
3 -0.18
32 0.15
33 0.15
4 -0.12
5 -0.63
6 -0.79
7 0.12
9 0.57

>  <PUBCHEM_EFFECTIVE_ROTOR_COUNT>  (1) 
3.2

>  <PUBCHEM_PHARMACOPHORE_FEATURES>  (1) 
7
1 1 acceptor
1 16 hydrophobe
1 2 acceptor
1 7 anion
5 3 4 7 9 10 rings
6 11 14 15 17 18 19 rings
6 3 4 5 11 12 14 rings

>  <PUBCHEM_HEAVY_ATOM_COUNT>  (1) 
22

>  <PUBCHEM_ATOM_DEF_STEREO_COUNT>  (1) 
0

>  <PUBCHEM_ATOM_UDEF_STEREO_COUNT>  (1) 
1

>  <PUBCHEM_BOND_DEF_STEREO_COUNT>  (1) 
0

>  <PUBCHEM_BOND_UDEF_STEREO_COUNT>  (1) 
0

>  <PUBCHEM_ISOTOPIC_ATOM_COUNT>  (1) 
0

>  <PUBCHEM_COMPONENT_COUNT>  (1) 
1

>  <PUBCHEM_CACTVS_TAUTO_COUNT>  (1) 
3

>  <PUBCHEM_CONFORMER_ID>  (1) 
000065F200000001

>  <PUBCHEM_MMFF94_ENERGY>  (1) 
66.8161

>  <PUBCHEM_FEATURE_SELFOVERLAP>  (1) 
35.641

>  <PUBCHEM_SHAPE_FINGERPRINT>  (1) 
10090160 65 17904759230603471085
10967382 1 18126855017252408461
1100329 8 18196090173647794934
11578080 2 17604695677979537076
12553582 1 18196664986200511679
12633257 1 18267030449271178843
12788726 201 17830186705406505706
13083527 12 18269535261113045295
13140716 1 17980193411712182946
14022347 108 17762652515079684695
14081887 123 17692239743028947306
14178342 30 17985832527936979179
14787075 74 18113901537948887938
14790565 3 18268726067810854708
15475509 35 17532397338841237419
16945 1 18341898553373663214
17780758 139 17322930271797619994
19591789 44 18053957413162439437
20600515 1 18055067657956004424
20645476 183 17397270906750525436
20645477 70 18340490079711802527
21033648 29 16987705793315966323
21421861 104 18118419353358377851
21524375 3 18053951928505312388
21650355 55 17976809896342328826
2255824 54 18337118980681093700
2334 1 18341619165856553460
23366157 5 18260835937914607021
23419403 2 17972004042781434892
23557571 272 17698161746973409582
23558518 356 17618216652140033166
23559900 14 18273219673064339679
25265897 201 10875727646131385218
2748010 2 18198624341485303772
33824 294 18197219367836615143
350125 39 18270130126958153597
3759504 43 17396143898773547908
3886686 26 16173392934536092515
43471831 8 18123748922679019713
4409770 3 17467340132724971589
484985 159 16162688171222490346
5104073 3 18341342167196037083
58807428 26 17980180209125484616
5902787 121 18338239254333603275
5939293 188 18271530805649582181
7364860 26 18272657882335532141
81228 2 17549273527255332329
90316 7 17976537217426887888
9841814 1 18410019818770550011
9999458 23 18189901009614872660

>  <PUBCHEM_SHAPE_MULTIPOLES>  (1) 
421.09
6.77
4.25
1.27
6.77
2.19
-0.43
-3.88
-1.67
-3.89
-0.73
-1.32
-0.47
-1.21

>  <PUBCHEM_SHAPE_SELFOVERLAP>  (1) 
902.173

>  <PUBCHEM_SHAPE_VOLUME>  (1) 
232.9

>  <PUBCHEM_COORDINATE_TYPE>  (1) 
2
5
10

$$$$
