26099
     RDKit          3D

 19 20  0  0  0  0  0  0  0  0999 V2000
    4.7780    2.5522   -0.2566 Cl  0  0  0  0  0  0  0  0  0  0  0  0
    1.9497   -3.0841   -0.6309 S   0  0  0  0  0  0  0  0  0  0  0  0
   -1.2576   -2.7050    0.6117 O   0  0  0  0  0  0  0  0  0  0  0  0
   -0.2037   -0.6276    0.5774 N   0  0  0  0  0  0  0  0  0  0  0  0
   -4.2998    0.7513   -0.0549 N   0  0  0  0  0  0  0  0  0  0  0  0
   -1.4536    0.1080    0.7601 C   0  0  0  0  0  0  0  0  0  0  0  0
   -1.8641    0.8845   -0.4895 C   0  0  0  0  0  0  0  0  0  0  0  0
    0.9857    0.1371    0.3334 C   0  0  0  0  0  0  0  0  0  0  0  0
   -3.1873    1.6440   -0.3563 C   0  0  0  0  0  0  0  0  0  0  0  0
    1.9654   -0.2958   -0.5904 C   0  0  0  0  0  0  0  0  0  0  0  0
   -0.2268   -2.0278    0.6574 C   0  0  0  0  0  0  0  0  0  0  0  0
    1.7550   -1.4976   -1.4767 C   0  0  0  0  0  0  0  0  0  0  0  0
    1.0994   -2.7111    0.9139 C   0  0  0  0  0  0  0  0  0  0  0  0
    1.1747    1.3608    0.9994 C   0  0  0  0  0  0  0  0  0  0  0  0
    3.1347    0.4662   -0.7612 C   0  0  0  0  0  0  0  0  0  0  0  0
    2.3374    2.1088    0.8089 C   0  0  0  0  0  0  0  0  0  0  0  0
   -4.4745   -0.2338   -1.1239 C   0  0  0  0  0  0  0  0  0  0  0  0
   -5.5346    1.5134    0.1394 C   0  0  0  0  0  0  0  0  0  0  0  0
    3.3217    1.6564   -0.0614 C   0  0  0  0  0  0  0  0  0  0  0  0
  1 19  1  0
  2 12  1  0
  2 13  1  0
  3 11  2  0
  4  6  1  0
  4  8  1  0
  4 11  1  0
  5  9  1  0
  5 17  1  0
  5 18  1  0
  6  7  1  0
  7  9  1  0
  8 10  2  0
  8 14  1  0
 10 12  1  0
 10 15  1  0
 11 13  1  0
 14 16  2  0
 15 19  2  0
 16 19  1  0
M  END
>  <PUBCHEM_COMPOUND_CID>  (1) 
26099

>  <PUBCHEM_CONFORMER_RMSD>  (1) 
0.6

>  <PUBCHEM_CONFORMER_DIVERSEORDER>  (1) 
17
12
36
20
29
37
10
38
31
13
35
33
5
39
19
24
2
28
14
6
41
23
30
26
3
34
27
9
1
40
4
16
25
15
21
8
18
22
32
11
7

>  <PUBCHEM_MMFF94_PARTIAL_CHARGES>  (1) 
21
1 -0.18
10 -0.14
11 0.57
12 0.37
13 0.29
14 -0.15
15 -0.15
16 -0.15
17 0.27
18 0.27
19 0.18
2 -0.46
3 -0.57
30 0.15
31 0.15
32 0.15
4 -0.48
5 -0.81
6 0.3
8 0.12
9 0.27

>  <PUBCHEM_EFFECTIVE_ROTOR_COUNT>  (1) 
4.8

>  <PUBCHEM_PHARMACOPHORE_FEATURES>  (1) 
4
1 3 acceptor
1 5 cation
6 8 10 14 15 16 19 rings
7 2 4 8 10 11 12 13 rings

>  <PUBCHEM_HEAVY_ATOM_COUNT>  (1) 
19

>  <PUBCHEM_ATOM_DEF_STEREO_COUNT>  (1) 
0

>  <PUBCHEM_ATOM_UDEF_STEREO_COUNT>  (1) 
0

>  <PUBCHEM_BOND_DEF_STEREO_COUNT>  (1) 
0

>  <PUBCHEM_BOND_UDEF_STEREO_COUNT>  (1) 
0

>  <PUBCHEM_ISOTOPIC_ATOM_COUNT>  (1) 
0

>  <PUBCHEM_COMPONENT_COUNT>  (1) 
1

>  <PUBCHEM_CACTVS_TAUTO_COUNT>  (1) 
1

>  <PUBCHEM_CONFORMER_ID>  (1) 
000065F300000011

>  <PUBCHEM_MMFF94_ENERGY>  (1) 
61.9802

>  <PUBCHEM_FEATURE_SELFOVERLAP>  (1) 
20.309

>  <PUBCHEM_SHAPE_FINGERPRINT>  (1) 
12532896 13 18261394489483920275
12716301 132 18123177168163773088
12730499 353 18411147934948770849
13464514 151 18412827988425985454
13583140 156 16081920576987004025
13955234 65 18189619332996368731
15502722 9 18338794520574454381
15852999 172 18340208587212233760
16945 1 18198363787763880882
17834072 32 18190465054838409700
18186145 218 18337388249761454885
20554085 129 17987499529372514000
20645477 70 18271521980045625109
21521239 73 17846779620186108772
21524375 3 18411129273125945924
221490 88 18338241462221379435
22182313 1 18193581027593622130
2255824 54 18267299833625047675
23402539 116 18337945809193530436
23402655 69 18060139842771427557
23526113 38 17988655120314238088
23559900 14 18341339963861930668
23598291 2 17843408375912572985
238 59 18413390921289221431
25 1 18342457053836222900
2748010 2 18126309625452353726
3323516 105 18412266099677477079
474 4 18408886265216362973
559249 180 18264487455550235712
58051976 378 18410004442829607373
633830 44 18340205190099045549
6442390 28 18334302002158256883
7364860 26 18339919290646682226
7471813 234 17983284933208439051
81228 2 17543619185614169474
81539 233 18410288112302439316
84936 182 18341329989840360064

>  <PUBCHEM_SHAPE_MULTIPOLES>  (1) 
380.9
8.58
3.49
1.12
10.28
2.14
-0.1
-7.64
-2.09
-2.91
0.34
-0.15
0.31
0.42

>  <PUBCHEM_SHAPE_SELFOVERLAP>  (1) 
762.244

>  <PUBCHEM_SHAPE_VOLUME>  (1) 
227.1

>  <PUBCHEM_COORDINATE_TYPE>  (1) 
2
5
10

$$$$
