26097
     RDKit          3D

 11 11  0  0  0  0  0  0  0  0999 V2000
    3.7963    0.2159   -0.9991 O   0  0  0  0  0  0  0  0  0  0  0  0
    1.3210   -1.5604    0.6263 O   0  0  0  0  0  0  0  0  0  0  0  0
    1.8039    0.6524    0.1295 N   0  0  0  0  0  0  0  0  0  0  0  0
   -3.2144    0.3490   -0.2441 N   0  0  0  0  0  0  0  0  0  0  0  0
   -0.4908   -0.1573    0.1288 C   0  0  0  0  0  0  0  0  0  0  0  0
    0.9257   -0.4208    0.3225 C   0  0  0  0  0  0  0  0  0  0  0  0
   -1.3461   -1.1851   -0.2531 C   0  0  0  0  0  0  0  0  0  0  0  0
   -0.9959    1.1232    0.3245 C   0  0  0  0  0  0  0  0  0  0  0  0
    3.2401    0.5435    0.2626 C   0  0  0  0  0  0  0  0  0  0  0  0
   -2.6872   -0.8827   -0.4248 C   0  0  0  0  0  0  0  0  0  0  0  0
   -2.3527    1.3224    0.1266 C   0  0  0  0  0  0  0  0  0  0  0  0
  1  9  1  0
  2  6  2  0
  3  6  1  0
  3  9  1  0
  4 10  2  0
  4 11  1  0
  5  6  1  0
  5  7  2  0
  5  8  1  0
  7 10  1  0
  8 11  2  0
M  END
>  <PUBCHEM_COMPOUND_CID>  (1) 
26097

>  <PUBCHEM_CONFORMER_RMSD>  (1) 
0.6

>  <PUBCHEM_CONFORMER_DIVERSEORDER>  (1) 
1
5
4
2
3

>  <PUBCHEM_MMFF94_PARTIAL_CHARGES>  (1) 
17
1 -0.68
10 0.16
11 0.16
12 0.37
13 0.15
14 0.15
17 0.15
18 0.15
19 0.4
2 -0.57
3 -0.73
4 -0.62
5 0.09
6 0.54
7 -0.15
8 -0.15
9 0.58

>  <PUBCHEM_EFFECTIVE_ROTOR_COUNT>  (1) 
3

>  <PUBCHEM_PHARMACOPHORE_FEATURES>  (1) 
6
1 1 acceptor
1 1 donor
1 2 acceptor
1 3 donor
1 4 acceptor
6 4 5 7 8 10 11 rings

>  <PUBCHEM_HEAVY_ATOM_COUNT>  (1) 
11

>  <PUBCHEM_ATOM_DEF_STEREO_COUNT>  (1) 
0

>  <PUBCHEM_ATOM_UDEF_STEREO_COUNT>  (1) 
0

>  <PUBCHEM_BOND_DEF_STEREO_COUNT>  (1) 
0

>  <PUBCHEM_BOND_UDEF_STEREO_COUNT>  (1) 
0

>  <PUBCHEM_ISOTOPIC_ATOM_COUNT>  (1) 
0

>  <PUBCHEM_COMPONENT_COUNT>  (1) 
1

>  <PUBCHEM_CACTVS_TAUTO_COUNT>  (1) 
2

>  <PUBCHEM_CONFORMER_ID>  (1) 
000065F100000001

>  <PUBCHEM_MMFF94_ENERGY>  (1) 
24.7707

>  <PUBCHEM_FEATURE_SELFOVERLAP>  (1) 
30.49

>  <PUBCHEM_SHAPE_FINGERPRINT>  (1) 
11062470 55 15357691994159714757
12897270 3 18341326768614491464
12932764 1 18060127752263993931
13024252 1 17894911854151764139
13380535 21 18339370668788595459
14325111 11 18411135844526142168
14390081 3 18412820291728514120
15775835 57 18336268946444434689
16945 1 18339068376347766849
20653085 51 18339371841499244680
20828058 34 18407760347918050318
23552423 10 18192423083130943467
369184 2 14851598886590931697
528716 315 18410858788923086095
7364860 26 18198617740342602730
8030462 33 18340193137972335311

>  <PUBCHEM_SHAPE_MULTIPOLES>  (1) 
204.67
5.5
1.38
0.74
3.42
0.09
0.05
-0.82
1.2
-0.55
-0.12
0.29
0.05
-0.26

>  <PUBCHEM_SHAPE_SELFOVERLAP>  (1) 
420.551

>  <PUBCHEM_SHAPE_VOLUME>  (1) 
116.6

>  <PUBCHEM_COORDINATE_TYPE>  (1) 
2
5
10

$$$$
