26094
     RDKit          3D

 16 16  0  0  0  0  0  0  0  0999 V2000
   -1.1001    3.1136   -0.2355 O   0  0  0  0  0  0  0  0  0  0  0  0
   -1.3495   -1.5316    0.0034 N   0  0  0  0  0  0  0  0  0  0  0  0
    0.7478   -0.4845    0.0700 N   0  0  0  0  0  0  0  0  0  0  0  0
   -1.2646    0.8087   -0.1191 N   0  0  0  0  0  0  0  0  0  0  0  0
    2.8162    0.6188    0.1313 N   0  0  0  0  0  0  0  0  0  0  0  0
    0.8668    1.9090   -0.0535 N   0  0  0  0  0  0  0  0  0  0  0  0
   -0.7073   -2.8351    0.1125 C   0  0  0  0  0  0  0  0  0  0  0  0
   -2.8042   -1.4871   -0.0708 C   0  0  0  0  0  0  0  0  0  0  0  0
   -0.5941   -0.3591   -0.0161 C   0  0  0  0  0  0  0  0  0  0  0  0
   -0.1926   -3.2790   -1.2433 C   0  0  0  0  0  0  0  0  0  0  0  0
   -3.3876   -1.1783    1.2947 C   0  0  0  0  0  0  0  0  0  0  0  0
    1.4085    0.6843    0.0452 C   0  0  0  0  0  0  0  0  0  0  0  0
    3.5297   -0.6151    0.2403 C   0  0  0  0  0  0  0  0  0  0  0  0
   -0.4736    1.8937   -0.1318 C   0  0  0  0  0  0  0  0  0  0  0  0
    5.0225   -0.3524    0.2910 C   0  0  0  0  0  0  0  0  0  0  0  0
   -2.5180    3.0945   -0.3182 C   0  0  0  0  0  0  0  0  0  0  0  0
  1 14  1  0
  1 16  1  0
  2  7  1  0
  2  8  1  0
  2  9  1  0
  3  9  2  0
  3 12  1  0
  4  9  1  0
  4 14  2  0
  5 12  1  0
  5 13  1  0
  6 12  2  0
  6 14  1  0
  7 10  1  0
  8 11  1  0
 13 15  1  0
M  END
>  <PUBCHEM_COMPOUND_CID>  (1) 
26094

>  <PUBCHEM_CONFORMER_RMSD>  (1) 
0.8

>  <PUBCHEM_CONFORMER_DIVERSEORDER>  (1) 
1
18
21
16
13
12
23
20
2
9
26
8
15
24
3
19
14
6
22
7
10
11
25
4
5
17

>  <PUBCHEM_MMFF94_PARTIAL_CHARGES>  (1) 
14
1 -0.36
12 0.72
13 0.37
14 0.7
16 0.28
2 -0.84
29 0.4
3 -0.62
4 -0.62
5 -0.87
6 -0.62
7 0.37
8 0.37
9 0.72

>  <PUBCHEM_EFFECTIVE_ROTOR_COUNT>  (1) 
6

>  <PUBCHEM_PHARMACOPHORE_FEATURES>  (1) 
4
1 5 donor
4 2 3 4 9 cation
4 3 5 6 12 cation
6 3 4 6 9 12 14 rings

>  <PUBCHEM_HEAVY_ATOM_COUNT>  (1) 
16

>  <PUBCHEM_ATOM_DEF_STEREO_COUNT>  (1) 
0

>  <PUBCHEM_ATOM_UDEF_STEREO_COUNT>  (1) 
0

>  <PUBCHEM_BOND_DEF_STEREO_COUNT>  (1) 
0

>  <PUBCHEM_BOND_UDEF_STEREO_COUNT>  (1) 
0

>  <PUBCHEM_ISOTOPIC_ATOM_COUNT>  (1) 
0

>  <PUBCHEM_COMPONENT_COUNT>  (1) 
1

>  <PUBCHEM_CACTVS_TAUTO_COUNT>  (1) 
4

>  <PUBCHEM_CONFORMER_ID>  (1) 
000065EE00000001

>  <PUBCHEM_MMFF94_ENERGY>  (1) 
43.9691

>  <PUBCHEM_FEATURE_SELFOVERLAP>  (1) 
20.34

>  <PUBCHEM_SHAPE_FINGERPRINT>  (1) 
10967382 1 17977947109219318093
11357001 24 18334573525394835064
11680986 33 17906743500846016003
12507560 14 18197503033262724375
12553582 1 18266177425663701798
13140716 1 18122628515930068210
13380535 76 18049715226740775141
15042514 8 18262519169915397952
15279308 51 17910393127709922263
15442244 35 18051979417788492379
15490181 8 17833254338273373737
16752209 62 18337657655579370234
16945 1 16824462800730233339
193761 8 18050286960187237783
20510252 161 18343300345137562792
20711985 365 18409165532568937644
20871998 184 18412263909017296270
21029758 27 18189627196585419986
22182313 1 18197794201537556263
23402539 116 18272080638957803351
23419403 2 13140120080383937553
23526113 38 17630317542049844856
23552423 10 17114665675114893791
23557571 272 18343311375215075908
23559900 14 18198899207530809802
23598291 2 17550963914724399111
23598294 1 18335690603739434920
257057 1 17980468276718407302
2748010 2 18196661704513415606
3091708 16 9349173196644611504
3250762 1 17907308658581698855
34934 24 18049999188767138328
352729 6 18266176136857281196
559249 180 18191019007568387074
57426455 70 18263654011880931907
58051976 100 18188771622648142470
6992083 37 18126014990263507011
7364860 26 17329991807278457473
7832392 63 17763188333671741747
81228 2 18262786471389352968

>  <PUBCHEM_SHAPE_MULTIPOLES>  (1) 
298.5
5.89
3.96
0.83
7.65
0.6
0.02
-0.66
1.6
-3.36
-1.13
-0.39
-0.45
0.48

>  <PUBCHEM_SHAPE_SELFOVERLAP>  (1) 
588.998

>  <PUBCHEM_SHAPE_VOLUME>  (1) 
175.5

>  <PUBCHEM_COORDINATE_TYPE>  (1) 
2
5
10

$$$$
