26101
     RDKit          3D

 10 10  0  0  1  0  0  0  0  0999 V2000
    3.8360   -0.0228    0.0052 Cl  0  0  0  0  0  0  0  0  0  0  0  0
   -2.6284   -0.2861    1.4940 Cl  0  0  0  0  0  0  0  0  0  0  0  0
   -0.7291    0.0783   -0.4349 C   0  0  0  0  0  0  0  0  0  0  0  0
   -0.0530    1.2110    0.3504 C   0  0  0  0  0  0  0  0  0  0  0  0
   -0.0606   -1.2714   -0.1144 C   0  0  0  0  0  0  0  0  0  0  0  0
    1.4415    1.3027    0.0209 C   0  0  0  0  0  0  0  0  0  0  0  0
    1.4387   -1.1989   -0.0699 C   0  0  0  0  0  0  0  0  0  0  0  0
    2.1088   -0.0393   -0.0245 C   0  0  0  0  0  0  0  0  0  0  0  0
   -2.2003    0.0252   -0.1526 C   0  0  0  0  0  0  0  0  0  0  0  0
   -3.1537    0.2013   -1.0743 C   0  0  0  0  0  0  0  0  0  0  0  0
  1  8  1  0
  2  9  1  0
  3  4  1  0
  3  5  1  0
  3  9  1  0
  4  6  1  0
  5  7  1  0
  6  8  1  0
  7  8  2  0
  9 10  2  0
M  END
>  <PUBCHEM_COMPOUND_CID>  (1) 
26101

>  <PUBCHEM_CONFORMER_RMSD>  (1) 
0.4

>  <PUBCHEM_CONFORMER_DIVERSEORDER>  (1) 
1
7
5
2
6
3
4

>  <PUBCHEM_MMFF94_PARTIAL_CHARGES>  (1) 
10
1 -0.14
10 -0.3
18 0.15
19 0.15
2 -0.14
20 0.15
3 0.14
5 0.14
6 0.14
7 -0.29

>  <PUBCHEM_EFFECTIVE_ROTOR_COUNT>  (1) 
1.8

>  <PUBCHEM_PHARMACOPHORE_FEATURES>  (1) 
1
6 3 4 5 6 7 8 rings

>  <PUBCHEM_HEAVY_ATOM_COUNT>  (1) 
10

>  <PUBCHEM_ATOM_DEF_STEREO_COUNT>  (1) 
0

>  <PUBCHEM_ATOM_UDEF_STEREO_COUNT>  (1) 
1

>  <PUBCHEM_BOND_DEF_STEREO_COUNT>  (1) 
0

>  <PUBCHEM_BOND_UDEF_STEREO_COUNT>  (1) 
0

>  <PUBCHEM_ISOTOPIC_ATOM_COUNT>  (1) 
0

>  <PUBCHEM_COMPONENT_COUNT>  (1) 
1

>  <PUBCHEM_CACTVS_TAUTO_COUNT>  (1) 
1

>  <PUBCHEM_CONFORMER_ID>  (1) 
000065F500000001

>  <PUBCHEM_MMFF94_ENERGY>  (1) 
7.7775

>  <PUBCHEM_FEATURE_SELFOVERLAP>  (1) 
5.074

>  <PUBCHEM_SHAPE_FINGERPRINT>  (1) 
10219947 1 18413387631512882838
10857977 72 17530970228023587219
11062470 55 17458059344026750660
12032990 46 18410301285278515254
12138202 97 17313093155853399175
124424 183 17894619340697698106
12932764 1 17968096455702393883
14325111 11 18410007771123241708
14993402 34 17917422133673229900
15775835 57 17131562647724659027
16945 1 18412831287034513942
17844478 74 18041289823903558897
19026448 4 16805042921771021588
19026448 5 16056882425105268870
20201158 50 18260827072875092331
20711983 171 15338845226561380091
21040471 1 18195521717256065364
21061003 4 18335995223936493009
21293036 1 18412257350523107710
23235685 24 18412257346402193956
23402539 116 14476955663015102305
23402655 69 18195789809753401605
2748010 2 18124314075924049716
29004967 10 18334300850679409305
5084963 1 17988916795132842529
63268167 104 18272366468862196043

>  <PUBCHEM_SHAPE_MULTIPOLES>  (1) 
209.53
5.29
1.25
1.01
1.31
0.02
0.21
-0.02
-0.08
0.38
0.04
-1
-0.03
0.23

>  <PUBCHEM_SHAPE_SELFOVERLAP>  (1) 
398.446

>  <PUBCHEM_SHAPE_VOLUME>  (1) 
124.1

>  <PUBCHEM_COORDINATE_TYPE>  (1) 
2
5
10

$$$$
