26104
     RDKit          3D

 18 19  0  0  0  0  0  0  0  0999 V2000
   -0.5816    0.1129    0.9275 O   0  0  0  0  0  0  0  0  0  0  0  0
   -1.0083   -0.5450   -1.2791 O   0  0  0  0  0  0  0  0  0  0  0  0
    5.3992    1.0552   -0.7250 O   0  0  0  0  0  0  0  0  0  0  0  0
    5.4964   -1.0505   -0.1122 O   0  0  0  0  0  0  0  0  0  0  0  0
    4.8545    0.0135   -0.2861 N   0  0  0  0  0  0  0  0  0  0  0  0
   -2.8181   -0.1811    0.2714 C   0  0  0  0  0  0  0  0  0  0  0  0
   -3.3701    1.2299    0.0569 C   0  0  0  0  0  0  0  0  0  0  0  0
   -3.6319   -1.2238   -0.4982 C   0  0  0  0  0  0  0  0  0  0  0  0
   -4.8576    1.3103    0.3897 C   0  0  0  0  0  0  0  0  0  0  0  0
   -5.1189   -1.1376   -0.1644 C   0  0  0  0  0  0  0  0  0  0  0  0
   -5.6642    0.2705   -0.3825 C   0  0  0  0  0  0  0  0  0  0  0  0
   -1.3811   -0.2380   -0.1544 C   0  0  0  0  0  0  0  0  0  0  0  0
    0.7814    0.0878    0.6233 C   0  0  0  0  0  0  0  0  0  0  0  0
    1.3730    1.2353    0.1430 C   0  0  0  0  0  0  0  0  0  0  0  0
    1.4814   -1.0828    0.8155 C   0  0  0  0  0  0  0  0  0  0  0  0
    2.7341    1.2108   -0.1608 C   0  0  0  0  0  0  0  0  0  0  0  0
    2.8427   -1.1071    0.5118 C   0  0  0  0  0  0  0  0  0  0  0  0
    3.4690    0.0398    0.0236 C   0  0  0  0  0  0  0  0  0  0  0  0
  1 12  1  0
  1 13  1  0
  2 12  2  0
  3  5  1  0
  4  5  2  0
  5 18  1  0
  6  7  1  0
  6  8  1  0
  6 12  1  0
  7  9  1  0
  8 10  1  0
  9 11  1  0
 10 11  1  0
 13 14  2  0
 13 15  1  0
 14 16  1  0
 15 17  2  0
 16 18  2  0
 17 18  1  0
M  CHG  2   3  -1   5   1
M  END
>  <PUBCHEM_COMPOUND_CID>  (1) 
26104

>  <PUBCHEM_CONFORMER_RMSD>  (1) 
0.8

>  <PUBCHEM_CONFORMER_DIVERSEORDER>  (1) 
1
14
10
13
20
7
11
5
9
2
18
19
8
21
3
6
16
22
15
17
12
4

>  <PUBCHEM_MMFF94_PARTIAL_CHARGES>  (1) 
17
1 -0.23
12 0.66
13 0.08
14 -0.15
15 -0.15
16 -0.15
17 -0.15
18 0.13
2 -0.57
3 -0.52
30 0.15
31 0.15
32 0.15
33 0.15
4 -0.52
5 0.91
6 0.06

>  <PUBCHEM_EFFECTIVE_ROTOR_COUNT>  (1) 
5.2

>  <PUBCHEM_PHARMACOPHORE_FEATURES>  (1) 
6
1 2 acceptor
1 3 acceptor
1 3 anion
1 4 acceptor
6 13 14 15 16 17 18 rings
6 6 7 8 9 10 11 rings

>  <PUBCHEM_HEAVY_ATOM_COUNT>  (1) 
18

>  <PUBCHEM_ATOM_DEF_STEREO_COUNT>  (1) 
0

>  <PUBCHEM_ATOM_UDEF_STEREO_COUNT>  (1) 
0

>  <PUBCHEM_BOND_DEF_STEREO_COUNT>  (1) 
0

>  <PUBCHEM_BOND_UDEF_STEREO_COUNT>  (1) 
0

>  <PUBCHEM_ISOTOPIC_ATOM_COUNT>  (1) 
0

>  <PUBCHEM_COMPONENT_COUNT>  (1) 
1

>  <PUBCHEM_CACTVS_TAUTO_COUNT>  (1) 
1

>  <PUBCHEM_CONFORMER_ID>  (1) 
000065F800000001

>  <PUBCHEM_MMFF94_ENERGY>  (1) 
43.0654

>  <PUBCHEM_FEATURE_SELFOVERLAP>  (1) 
30.528

>  <PUBCHEM_SHAPE_FINGERPRINT>  (1) 
10366900 7 17385438834738330057
106641 1 9727341404357091518
10912923 1 18260543403317708979
11471102 20 18187083957972076888
12107183 9 17688587161306598265
12236239 1 18413671305143681392
12730499 353 17530970180715864874
13167823 11 18411979182951068863
13288520 33 18202283611120124333
13760787 19 18411978057685526587
14251718 22 18335139808490765159
14251731 8 18060420218283431151
14528608 73 18334576875580063076
15048467 5 18113056025948716773
15788980 27 17131829880568840117
17834072 33 18410574006726527453
18186145 218 18114170956324293657
200 152 18342739628413914089
20612939 158 18186806910969901308
20621476 66 18059303046193876289
20645477 70 18336827485888774074
21267235 1 18411423934158722547
2297311 6 17917716812049502993
23402539 116 17989202638376402797
23402655 69 18335417950414624633
23536379 177 18412826871866175472
23557571 272 18202569453846908165
23559900 14 18340759455539008065
26918003 58 10879989173043599653
29717793 49 18131071523806179484
300161 21 18259977172093597675
3004659 81 18411422774681349366
34797466 226 17131559444080502032
3545911 37 18408040711046877017
4047638 21 16732985332286569384
4214541 1 18412543206793870873
42788 4 18410293609686374769
474 4 17677053571772672765
4990 188 18272375269445461878
5104073 3 18411134753308972867
542803 24 17676205775456269257
58051976 100 18342733057372595919
59755656 520 16877943832790747643
77779 3 18410009944798563195
8272917 22 18338800000963793291
9981440 41 17331110015158291560

>  <PUBCHEM_SHAPE_MULTIPOLES>  (1) 
341.97
13.16
1.4
0.85
0.41
0.09
-0.02
0.24
-2.01
-0.27
0.02
0.01
-0.06
-0.69

>  <PUBCHEM_SHAPE_SELFOVERLAP>  (1) 
719.175

>  <PUBCHEM_SHAPE_VOLUME>  (1) 
190.5

>  <PUBCHEM_COORDINATE_TYPE>  (1) 
2
5
10

$$$$
