2610
     RDKit          3D

 25 27  0  0  1  0  0  0  0  0999 V2000
   -2.5181    2.0205   -1.4136 S   0  0  0  0  0  0  0  0  0  0  0  0
   -1.5261   -2.3282   -0.1027 O   0  0  0  0  0  0  0  0  0  0  0  0
    1.2970    2.1660   -0.3406 O   0  0  0  0  0  0  0  0  0  0  0  0
   -4.8567   -2.2433   -0.8043 O   0  0  0  0  0  0  0  0  0  0  0  0
   -4.8927   -1.9728    1.4664 O   0  0  0  0  0  0  0  0  0  0  0  0
    6.8722   -1.6227   -1.3141 O   0  0  0  0  0  0  0  0  0  0  0  0
   -2.6550   -0.2583   -0.0581 N   0  0  0  0  0  0  0  0  0  0  0  0
    0.5245    0.0994    0.3719 N   0  0  0  0  0  0  0  0  0  0  0  0
    2.9819    2.2704    1.8461 N   0  0  0  0  0  0  0  0  0  0  0  0
   -1.8702    0.9621   -0.0997 C   0  0  0  0  0  0  0  0  0  0  0  0
   -0.6701    0.0637   -0.4709 C   0  0  0  0  0  0  0  0  0  0  0  0
   -1.6232   -1.1244   -0.1560 C   0  0  0  0  0  0  0  0  0  0  0  0
   -4.0085   -0.2820    0.0486 C   0  0  0  0  0  0  0  0  0  0  0  0
   -4.1678    2.1542   -0.6450 C   0  0  0  0  0  0  0  0  0  0  0  0
   -4.7546    0.8271   -0.1691 C   0  0  0  0  0  0  0  0  0  0  0  0
    1.4237    1.1672    0.3658 C   0  0  0  0  0  0  0  0  0  0  0  0
   -6.2521    0.9012    0.0089 C   0  0  0  0  0  0  0  0  0  0  0  0
   -4.6314   -1.5802    0.3471 C   0  0  0  0  0  0  0  0  0  0  0  0
    2.5995    0.9593    1.3141 C   0  0  0  0  0  0  0  0  0  0  0  0
    3.7465    0.2661    0.6083 C   0  0  0  0  0  0  0  0  0  0  0  0
    4.1984   -0.9491    1.0901 C   0  0  0  0  0  0  0  0  0  0  0  0
    4.3152    0.8646   -0.5016 C   0  0  0  0  0  0  0  0  0  0  0  0
    5.2548   -1.5873    0.4404 C   0  0  0  0  0  0  0  0  0  0  0  0
    5.3715    0.2264   -1.1515 C   0  0  0  0  0  0  0  0  0  0  0  0
    5.8414   -0.9997   -0.6806 C   0  0  0  0  0  0  0  0  0  0  0  0
  1 10  1  0
  1 14  1  0
  2 12  2  0
  3 16  2  0
  4 18  1  0
  5 18  2  0
  6 25  1  0
  7 10  1  0
  7 12  1  0
  7 13  1  0
  8 11  1  0
  8 16  1  0
  9 19  1  0
 10 11  1  0
 11 12  1  0
 13 15  2  0
 13 18  1  0
 14 15  1  0
 15 17  1  0
 16 19  1  0
 19 20  1  0
 20 21  2  0
 20 22  1  0
 21 23  1  0
 22 24  2  0
 23 25  2  0
 24 25  1  0
M  END
>  <PUBCHEM_COMPOUND_CID>  (1) 
2610

>  <PUBCHEM_CONFORMER_RMSD>  (1) 
0.8

>  <PUBCHEM_CONFORMER_DIVERSEORDER>  (1) 
10
38
14
44
27
9
36
58
51
7
17
87
39
45
53
49
28
69
79
11
95
60
72
96
63
90
61
1
74
80
65
52
57
13
4
16
23
91
48
68
77
8
94
20
83
34
21
82
6
55
64
12
84
62
86
89
26
18
81
97
37
71
24
40
2
5
93
76
46
19
29
73
31
3
50
56
43
67
35
92
78
15
98
85
66
32
59
70
22
88
30
75
42
47
41
33
54
25

>  <PUBCHEM_MMFF94_PARTIAL_CHARGES>  (1) 
34
1 -0.45
10 0.44
11 0.28
12 0.58
13 0.12
14 0.37
15 -0.28
16 0.57
17 0.14
18 0.71
19 0.47
2 -0.57
20 -0.14
21 -0.15
22 -0.15
23 -0.15
24 -0.15
25 0.08
28 0.37
3 -0.57
35 0.36
36 0.36
37 0.5
38 0.15
39 0.15
4 -0.65
40 0.15
41 0.15
42 0.45
5 -0.57
6 -0.53
7 -0.39
8 -0.65
9 -0.99

>  <PUBCHEM_EFFECTIVE_ROTOR_COUNT>  (1) 
5.6

>  <PUBCHEM_PHARMACOPHORE_FEATURES>  (1) 
12
1 2 acceptor
1 3 acceptor
1 4 acceptor
1 5 acceptor
1 6 donor
1 8 donor
1 9 cation
1 9 donor
3 4 5 18 anion
4 7 10 11 12 rings
6 1 7 10 13 14 15 rings
6 20 21 22 23 24 25 rings

>  <PUBCHEM_HEAVY_ATOM_COUNT>  (1) 
25

>  <PUBCHEM_ATOM_DEF_STEREO_COUNT>  (1) 
0

>  <PUBCHEM_ATOM_UDEF_STEREO_COUNT>  (1) 
3

>  <PUBCHEM_BOND_DEF_STEREO_COUNT>  (1) 
0

>  <PUBCHEM_BOND_UDEF_STEREO_COUNT>  (1) 
0

>  <PUBCHEM_ISOTOPIC_ATOM_COUNT>  (1) 
0

>  <PUBCHEM_COMPONENT_COUNT>  (1) 
1

>  <PUBCHEM_CACTVS_TAUTO_COUNT>  (1) 
4

>  <PUBCHEM_CONFORMER_ID>  (1) 
00000A320000000A

>  <PUBCHEM_MMFF94_ENERGY>  (1) 
68.9302

>  <PUBCHEM_FEATURE_SELFOVERLAP>  (1) 
61.211

>  <PUBCHEM_SHAPE_FINGERPRINT>  (1) 
10366900 7 17313097588169913449
11273773 46 18126291848588530070
11524674 6 17489868237505544999
11545043 162 18341891900580312377
11578080 2 16445296878007980871
12166972 35 18201999958463879857
12236239 1 17022621949097332845
12616971 3 15051733114022992112
12730499 353 12757152355764345896
13402501 40 18342460318343872510
13533116 47 17988079027359776338
13782708 43 17987797544189380383
13914758 101 15769781200330049785
14251752 14 18261673671559628062
14251757 5 18259710003552736274
14341114 176 18334858324966753337
14420673 8 18336826368817391138
14617045 38 18335423426666985394
14840074 17 15574715785573507851
15183329 4 18336266756264022508
15250474 111 17749374954143856538
15788980 27 16988839497119999245
15799311 1 18041573446258760778
17349148 13 16559037107540143040
17844677 252 18412826923174161801
1813 80 17167852106193129972
18927931 339 18335139804617979655
21033648 29 18130208428827707745
21150785 3 14201399426016027755
21267235 1 18259990405568370643
21682296 61 18202286892132624159
2215653 11 18272927202633637300
22950370 63 18186239515645973220
2297311 6 18261115158102072157
2303208 19 18343587364695369818
23175994 123 17775563148032677729
23522609 53 18193588672556774901
23559900 14 18271518792600116929
23569943 247 15983436040534211422
3004659 81 18334860490183762118
3298306 158 18271803480455192158
335352 9 18334855001215746637
350125 39 18409167693048237733
437815 12 18131635565124385888
44062 13 18343580771931607350
46194498 28 18261116301059154604
465052 167 17988929976978279102
5104073 3 18410285934806982889
5265222 85 18337683013699477534
59755656 215 18339357462159519935
7495541 125 18342455963288998192
8863177 126 18341051938237570298

>  <PUBCHEM_SHAPE_MULTIPOLES>  (1) 
474.05
16.37
2.44
1.23
7.71
0.22
-0.17
5.18
2.52
-1.82
0.01
1.12
-0.23
1.45

>  <PUBCHEM_SHAPE_SELFOVERLAP>  (1) 
1004.129

>  <PUBCHEM_SHAPE_VOLUME>  (1) 
267

>  <PUBCHEM_COORDINATE_TYPE>  (1) 
2
5
10

$$$$
