26117
     RDKit          3D

 13 14  0  0  0  0  0  0  0  0999 V2000
    4.4777   -0.0185   -0.1024 O   0  0  0  0  0  0  0  0  0  0  0  0
    2.6556   -0.1420   -1.4524 O   0  0  0  0  0  0  0  0  0  0  0  0
    0.1435   -1.0485    0.5048 N   0  0  0  0  0  0  0  0  0  0  0  0
    0.1558    1.1714    0.3966 N   0  0  0  0  0  0  0  0  0  0  0  0
   -1.1441   -0.6900    0.1981 C   0  0  0  0  0  0  0  0  0  0  0  0
    0.8815    0.0972    0.6129 C   0  0  0  0  0  0  0  0  0  0  0  0
   -1.1106    0.7004    0.1362 C   0  0  0  0  0  0  0  0  0  0  0  0
    2.3195    0.0545    0.9377 C   0  0  0  0  0  0  0  0  0  0  0  0
   -2.2999   -1.4395   -0.0238 C   0  0  0  0  0  0  0  0  0  0  0  0
   -2.2911    1.4012   -0.1634 C   0  0  0  0  0  0  0  0  0  0  0  0
   -3.4655   -0.7258   -0.3210 C   0  0  0  0  0  0  0  0  0  0  0  0
   -3.4633    0.6693   -0.3899 C   0  0  0  0  0  0  0  0  0  0  0  0
    3.1410   -0.0297   -0.3336 C   0  0  0  0  0  0  0  0  0  0  0  0
  1 13  1  0
  2 13  2  0
  3  5  1  0
  3  6  1  0
  4  6  2  0
  4  7  1  0
  5  7  2  0
  5  9  1  0
  6  8  1  0
  7 10  1  0
  8 13  1  0
  9 11  2  0
 10 12  2  0
 11 12  1  0
M  END
>  <PUBCHEM_COMPOUND_CID>  (1) 
26117

>  <PUBCHEM_CONFORMER_RMSD>  (1) 
0.6

>  <PUBCHEM_CONFORMER_DIVERSEORDER>  (1) 
1
3
4
2

>  <PUBCHEM_MMFF94_PARTIAL_CHARGES>  (1) 
19
1 -0.65
10 -0.15
11 -0.15
12 -0.15
13 0.66
14 0.27
17 0.15
18 0.15
19 0.15
2 -0.57
20 0.15
21 0.5
3 0.03
4 -0.57
5 -0.15
6 0.01
7 0.23
8 0.24
9 -0.15

>  <PUBCHEM_EFFECTIVE_ROTOR_COUNT>  (1) 
2

>  <PUBCHEM_PHARMACOPHORE_FEATURES>  (1) 
7
1 1 acceptor
1 2 acceptor
1 3 donor
3 1 2 13 anion
3 3 4 6 cation
5 3 4 5 6 7 rings
6 5 7 9 10 11 12 rings

>  <PUBCHEM_HEAVY_ATOM_COUNT>  (1) 
13

>  <PUBCHEM_ATOM_DEF_STEREO_COUNT>  (1) 
0

>  <PUBCHEM_ATOM_UDEF_STEREO_COUNT>  (1) 
0

>  <PUBCHEM_BOND_DEF_STEREO_COUNT>  (1) 
0

>  <PUBCHEM_BOND_UDEF_STEREO_COUNT>  (1) 
0

>  <PUBCHEM_ISOTOPIC_ATOM_COUNT>  (1) 
0

>  <PUBCHEM_COMPONENT_COUNT>  (1) 
1

>  <PUBCHEM_CACTVS_TAUTO_COUNT>  (1) 
3

>  <PUBCHEM_CONFORMER_ID>  (1) 
0000660500000001

>  <PUBCHEM_MMFF94_ENERGY>  (1) 
17.7772

>  <PUBCHEM_FEATURE_SELFOVERLAP>  (1) 
35.686

>  <PUBCHEM_SHAPE_FINGERPRINT>  (1) 
10465860 71 18338812177180006764
11206711 2 18335688452045273821
12032990 46 18341049735145875763
12251169 10 10375870783599156690
12932764 1 18408595963965243049
13024252 1 17458063772718268499
13296908 3 17988638627117374154
14911166 2 18411128139586941349
14993402 34 17749104504437176151
15219456 202 17917421090297110640
15775835 57 17894630327176659484
16945 1 18409719665144170577
18186145 218 18409443691551463824
200 152 16056878022489490368
20201158 50 17847065471602722078
20279233 1 17847059986845036982
20645476 183 17749388187001209851
20645477 70 16558190397835057692
21119208 17 17821446854912382326
23402539 116 18410567375777141988
23559900 14 18342454834171256050
2748010 2 18049148167020408467
369184 2 14405183980280256635
7364860 26 17984417705063553200
77492 1 17531240651875339544

>  <PUBCHEM_SHAPE_MULTIPOLES>  (1) 
245.83
6.63
1.25
0.88
3.91
0.01
-0.12
-0.16
-1.43
-1.07
0.04
0.52
-0.01
0.09

>  <PUBCHEM_SHAPE_SELFOVERLAP>  (1) 
535.038

>  <PUBCHEM_SHAPE_VOLUME>  (1) 
135.7

>  <PUBCHEM_COORDINATE_TYPE>  (1) 
2
5
10

$$$$
