26110
     RDKit          3D

 12 13  0  0  1  0  0  0  0  0999 V2000
    3.2084   -0.1688    0.3994 O   0  0  0  0  0  0  0  0  0  0  0  0
    2.2391    0.6231   -0.2206 N   0  0  0  0  0  0  0  0  0  0  0  0
   -1.1804    0.1577    0.5823 C   0  0  0  0  0  0  0  0  0  0  0  0
   -0.2350    0.6158   -0.5657 C   0  0  0  0  0  0  0  0  0  0  0  0
   -0.6702   -1.3111    0.5115 C   0  0  0  0  0  0  0  0  0  0  0  0
   -0.5639   -0.3599   -1.7207 C   0  0  0  0  0  0  0  0  0  0  0  0
   -0.8833   -1.6790   -0.9797 C   0  0  0  0  0  0  0  0  0  0  0  0
    0.8571   -1.1959    0.7417 C   0  0  0  0  0  0  0  0  0  0  0  0
    1.0862    0.0807   -0.0284 C   0  0  0  0  0  0  0  0  0  0  0  0
   -2.6844    0.3221    0.2812 C   0  0  0  0  0  0  0  0  0  0  0  0
   -0.9296    0.8376    1.9426 C   0  0  0  0  0  0  0  0  0  0  0  0
   -0.2440    2.0777   -0.9436 C   0  0  0  0  0  0  0  0  0  0  0  0
  1  2  1  0
  2  9  2  0
  3  4  1  0
  3  5  1  0
  3 10  1  0
  3 11  1  0
  4  6  1  0
  4  9  1  0
  4 12  1  0
  5  7  1  0
  5  8  1  0
  6  7  1  0
  8  9  1  0
M  END
>  <PUBCHEM_COMPOUND_CID>  (1) 
26110

>  <PUBCHEM_CONFORMER_RMSD>  (1) 
0.4

>  <PUBCHEM_CONFORMER_DIVERSEORDER>  (1) 
2
1

>  <PUBCHEM_MMFF94_PARTIAL_CHARGES>  (1) 
6
1 -0.34
2 -0.51
29 0.4
4 0.06
8 0.06
9 0.33

>  <PUBCHEM_EFFECTIVE_ROTOR_COUNT>  (1) 
0.8

>  <PUBCHEM_PHARMACOPHORE_FEATURES>  (1) 
4
1 1 anion
1 2 acceptor
3 3 10 11 hydrophobe
7 3 4 5 6 7 8 9 rings

>  <PUBCHEM_HEAVY_ATOM_COUNT>  (1) 
12

>  <PUBCHEM_ATOM_DEF_STEREO_COUNT>  (1) 
0

>  <PUBCHEM_ATOM_UDEF_STEREO_COUNT>  (1) 
2

>  <PUBCHEM_BOND_DEF_STEREO_COUNT>  (1) 
0

>  <PUBCHEM_BOND_UDEF_STEREO_COUNT>  (1) 
1

>  <PUBCHEM_ISOTOPIC_ATOM_COUNT>  (1) 
0

>  <PUBCHEM_COMPONENT_COUNT>  (1) 
1

>  <PUBCHEM_CACTVS_TAUTO_COUNT>  (1) 
2

>  <PUBCHEM_CONFORMER_ID>  (1) 
000065FE00000002

>  <PUBCHEM_MMFF94_ENERGY>  (1) 
51.5363

>  <PUBCHEM_FEATURE_SELFOVERLAP>  (1) 
20.297

>  <PUBCHEM_SHAPE_FINGERPRINT>  (1) 
10702982 57 18341889701620327703
12423570 1 14958360658289192087
13024252 1 16587737629553088046
137420 1 9361508720833678695
14993402 34 18410858784712463093
15557651 10 18129363947925499537
16945 1 18131080350000785323
22344851 12 15733551342669571161
23419403 2 16908569770845584269
2748010 2 17829038823804151526
369184 2 18334286604620996024
5084963 1 18199470952469393018
528886 8 18187630423477045211
68250623 7 16029379416893424503

>  <PUBCHEM_SHAPE_MULTIPOLES>  (1) 
236.1
2.7
1.64
1.5
1.6
0.09
0.07
0.23
0.57
-0.25
-0.35
-0.43
0.15
-0.32

>  <PUBCHEM_SHAPE_SELFOVERLAP>  (1) 
501.07

>  <PUBCHEM_SHAPE_VOLUME>  (1) 
140.7

>  <PUBCHEM_COORDINATE_TYPE>  (1) 
2
5
10

$$$$
