26120
     RDKit          3D

 13 14  0  0  1  0  0  0  0  0999 V2000
    0.5678    0.9019   -0.0120 O   0  0  0  0  0  0  0  0  0  0  0  0
    2.9810    1.4547   -0.4925 O   0  0  0  0  0  0  0  0  0  0  0  0
   -0.1895   -1.8424   -0.1161 N   0  0  0  0  0  0  0  0  0  0  0  0
    3.8330   -0.4759    0.4244 N   0  0  0  0  0  0  0  0  0  0  0  0
    1.4520   -0.1519    0.3846 C   0  0  0  0  0  0  0  0  0  0  0  0
    1.1724   -1.4361   -0.3830 C   0  0  0  0  0  0  0  0  0  0  0  0
   -1.1413   -0.8330   -0.0505 C   0  0  0  0  0  0  0  0  0  0  0  0
   -0.7539    0.5168    0.0032 C   0  0  0  0  0  0  0  0  0  0  0  0
    2.8127    0.3714    0.0618 C   0  0  0  0  0  0  0  0  0  0  0  0
   -2.5064   -1.1381   -0.0008 C   0  0  0  0  0  0  0  0  0  0  0  0
   -1.7059    1.5370    0.0462 C   0  0  0  0  0  0  0  0  0  0  0  0
   -3.4609   -0.1199    0.0587 C   0  0  0  0  0  0  0  0  0  0  0  0
   -3.0611    1.2155    0.0759 C   0  0  0  0  0  0  0  0  0  0  0  0
  1  5  1  0
  1  8  1  0
  2  9  2  0
  3  6  1  0
  3  7  1  0
  4  9  1  0
  5  6  1  0
  5  9  1  0
  7  8  2  0
  7 10  1  0
  8 11  1  0
 10 12  2  0
 11 13  2  0
 12 13  1  0
M  END
>  <PUBCHEM_COMPOUND_CID>  (1) 
26120

>  <PUBCHEM_CONFORMER_RMSD>  (1) 
0.6

>  <PUBCHEM_CONFORMER_DIVERSEORDER>  (1) 
1
4
8
9
2
3
5
6
7

>  <PUBCHEM_MMFF94_PARTIAL_CHARGES>  (1) 
20
1 -0.36
10 -0.15
11 -0.15
12 -0.15
13 -0.15
17 0.4
18 0.15
19 0.15
2 -0.57
20 0.15
21 0.15
22 0.37
23 0.37
3 -0.87
4 -0.8
5 0.34
6 0.37
7 0.1
8 0.08
9 0.57

>  <PUBCHEM_EFFECTIVE_ROTOR_COUNT>  (1) 
1.8

>  <PUBCHEM_PHARMACOPHORE_FEATURES>  (1) 
7
1 1 acceptor
1 2 acceptor
1 3 cation
1 3 donor
1 4 donor
6 1 3 5 6 7 8 rings
6 7 8 10 11 12 13 rings

>  <PUBCHEM_HEAVY_ATOM_COUNT>  (1) 
13

>  <PUBCHEM_ATOM_DEF_STEREO_COUNT>  (1) 
0

>  <PUBCHEM_ATOM_UDEF_STEREO_COUNT>  (1) 
1

>  <PUBCHEM_BOND_DEF_STEREO_COUNT>  (1) 
0

>  <PUBCHEM_BOND_UDEF_STEREO_COUNT>  (1) 
0

>  <PUBCHEM_ISOTOPIC_ATOM_COUNT>  (1) 
0

>  <PUBCHEM_COMPONENT_COUNT>  (1) 
1

>  <PUBCHEM_CACTVS_TAUTO_COUNT>  (1) 
2

>  <PUBCHEM_CONFORMER_ID>  (1) 
0000660800000001

>  <PUBCHEM_MMFF94_ENERGY>  (1) 
43.2494

>  <PUBCHEM_FEATURE_SELFOVERLAP>  (1) 
35.571

>  <PUBCHEM_SHAPE_FINGERPRINT>  (1) 
10608611 8 18411697660281448465
11132069 177 18412820287428233088
12251169 10 18333726897357385762
12932764 1 17274814766322495855
13380535 21 18270694068953626459
13380535 76 18411980234928048983
14144814 61 18409166614715969536
14325111 11 18410856564014053560
14614273 12 18262232214713333573
14897335 6 18340763733183730437
15219456 202 18200880560725611687
15536298 74 18200875054910016358
15775835 57 18411704287415732945
16945 1 18341330080313981419
17846911 113 18342451539061077401
18186145 218 18200603483779392916
193761 8 17763182436402075961
20201158 50 18341330015831423731
20645476 183 17896617256658069526
20871998 184 18200600340185475567
21028194 46 18342737416500520696
21501502 16 18340765923538098971
23235685 24 18412257324716451825
23402539 116 18342444950465083997
23402655 69 18198607853944975349
23463225 33 18335699412580240914
23552423 10 18264772069240717223
23559900 14 18131350818020866720
2748010 2 18267872679114358983
369184 2 17095238116448130201
528886 8 18412538808383324019
53812653 166 18201432567023027288
6333449 129 18341890788378707877
7364860 26 18055072064666549862

>  <PUBCHEM_SHAPE_MULTIPOLES>  (1) 
245.83
5.72
1.69
0.64
1.87
0.13
0
-1.02
-0.28
-0.26
0.14
0.08
0
-0.15

>  <PUBCHEM_SHAPE_SELFOVERLAP>  (1) 
529.623

>  <PUBCHEM_SHAPE_VOLUME>  (1) 
134

>  <PUBCHEM_COORDINATE_TYPE>  (1) 
2
5
10

$$$$
