26121
     RDKit          3D

 10  9  0  0  0  0  0  0  0  0999 V2000
   -3.7346    1.1980   -0.1437 Cl  0  0  0  0  0  0  0  0  0  0  0  0
    2.2531   -0.1764   -0.2118 O   0  0  0  0  0  0  0  0  0  0  0  0
    1.0804    1.7051    0.3587 O   0  0  0  0  0  0  0  0  0  0  0  0
   -0.8694   -2.4467    0.0424 O   0  0  0  0  0  0  0  0  0  0  0  0
   -0.0023   -0.3436    0.2281 N   0  0  0  0  0  0  0  0  0  0  0  0
    0.1744   -1.7932   -0.0608 N   0  0  0  0  0  0  0  0  0  0  0  0
   -1.3209    0.1547    0.5879 C   0  0  0  0  0  0  0  0  0  0  0  0
   -2.1308    0.5893   -0.6221 C   0  0  0  0  0  0  0  0  0  0  0  0
    1.1099    0.4947    0.1428 C   0  0  0  0  0  0  0  0  0  0  0  0
    3.4402    0.6178   -0.3216 C   0  0  0  0  0  0  0  0  0  0  0  0
  1  8  1  0
  2  9  1  0
  2 10  1  0
  3  9  2  0
  4  6  2  0
  5  6  1  0
  5  7  1  0
  5  9  1  0
  7  8  1  0
M  END
>  <PUBCHEM_COMPOUND_CID>  (1) 
26121

>  <PUBCHEM_CONFORMER_RMSD>  (1) 
0.6

>  <PUBCHEM_CONFORMER_DIVERSEORDER>  (1) 
1
29
23
13
24
20
4
35
11
19
30
36
3
34
33
26
9
10
25
2
16
6
15
5
21
12
14
22
17
31
18
32
37
38
28
27
8
7

>  <PUBCHEM_MMFF94_PARTIAL_CHARGES>  (1) 
10
1 -0.29
10 0.28
2 -0.43
3 -0.57
4 -0.16
5 -0.18
6 -0.02
7 0.3
8 0.29
9 0.78

>  <PUBCHEM_EFFECTIVE_ROTOR_COUNT>  (1) 
5

>  <PUBCHEM_PHARMACOPHORE_FEATURES>  (1) 
1
1 3 acceptor

>  <PUBCHEM_HEAVY_ATOM_COUNT>  (1) 
10

>  <PUBCHEM_ATOM_DEF_STEREO_COUNT>  (1) 
0

>  <PUBCHEM_ATOM_UDEF_STEREO_COUNT>  (1) 
0

>  <PUBCHEM_BOND_DEF_STEREO_COUNT>  (1) 
0

>  <PUBCHEM_BOND_UDEF_STEREO_COUNT>  (1) 
0

>  <PUBCHEM_ISOTOPIC_ATOM_COUNT>  (1) 
0

>  <PUBCHEM_COMPONENT_COUNT>  (1) 
1

>  <PUBCHEM_CACTVS_TAUTO_COUNT>  (1) 
1

>  <PUBCHEM_CONFORMER_ID>  (1) 
0000660900000001

>  <PUBCHEM_MMFF94_ENERGY>  (1) 
14.4093

>  <PUBCHEM_FEATURE_SELFOVERLAP>  (1) 
5.074

>  <PUBCHEM_SHAPE_FINGERPRINT>  (1) 
1 1 18336261224203947999
14325111 11 18409448081118576213
15775835 57 18334012783049303005
19021347 11 18339077065093097207
20711985 344 18048024465572903730
21040471 1 18410005563457180592
21293036 1 18413109459028698548
23235685 24 18408881815519149541
23402655 69 18269263579099840693
23552423 10 17901667390905205250

>  <PUBCHEM_SHAPE_MULTIPOLES>  (1) 
180.1
5.09
1.87
0.69
0.92
1.35
-0.01
-2.82
-0.83
0.24
0.04
0.12
-0.08
0.1

>  <PUBCHEM_SHAPE_SELFOVERLAP>  (1) 
323.64

>  <PUBCHEM_SHAPE_VOLUME>  (1) 
117.3

>  <PUBCHEM_COORDINATE_TYPE>  (1) 
2
5
10

$$$$
