2612
     RDKit          3D

 26 28  0  0  1  0  0  0  0  0999 V2000
   -0.5115   -0.1578   -2.4227 S   0  0  0  0  0  0  0  0  0  0  0  0
    6.5292    1.2220   -0.0865 S   0  0  0  0  0  0  0  0  0  0  0  0
   -0.0748   -3.3765    0.9033 O   0  0  0  0  0  0  0  0  0  0  0  0
   -4.0605    1.8544   -0.0951 O   0  0  0  0  0  0  0  0  0  0  0  0
   -2.8344   -1.2131    2.2773 O   0  0  0  0  0  0  0  0  0  0  0  0
    3.4035   -0.3914   -1.7911 O   0  0  0  0  0  0  0  0  0  0  0  0
   -3.4761   -2.8298    0.7925 O   0  0  0  0  0  0  0  0  0  0  0  0
   -6.3663    1.9026    0.0389 O   0  0  0  0  0  0  0  0  0  0  0  0
   -0.8086   -1.3598   -0.0741 N   0  0  0  0  0  0  0  0  0  0  0  0
    2.4117   -1.5882   -0.0680 N   0  0  0  0  0  0  0  0  0  0  0  0
    0.1556   -0.5425   -0.7877 C   0  0  0  0  0  0  0  0  0  0  0  0
    1.1049   -1.7578   -0.7022 C   0  0  0  0  0  0  0  0  0  0  0  0
    0.0284   -2.3733    0.2368 C   0  0  0  0  0  0  0  0  0  0  0  0
   -2.1090   -1.0114    0.1033 C   0  0  0  0  0  0  0  0  0  0  0  0
   -2.6797   -0.0178   -0.6187 C   0  0  0  0  0  0  0  0  0  0  0  0
   -1.9620    0.7197   -1.7470 C   0  0  0  0  0  0  0  0  0  0  0  0
   -4.0912    0.4815   -0.4236 C   0  0  0  0  0  0  0  0  0  0  0  0
    3.4644   -0.9090   -0.6770 C   0  0  0  0  0  0  0  0  0  0  0  0
   -2.8864   -1.8042    1.0674 C   0  0  0  0  0  0  0  0  0  0  0  0
    4.7177   -0.8432    0.1727 C   0  0  0  0  0  0  0  0  0  0  0  0
    5.0437    0.5966    0.4563 C   0  0  0  0  0  0  0  0  0  0  0  0
   -5.2766    2.4538    0.1136 C   0  0  0  0  0  0  0  0  0  0  0  0
    4.2785    1.5094    1.1186 C   0  0  0  0  0  0  0  0  0  0  0  0
    4.9286    2.7753    1.1883 C   0  0  0  0  0  0  0  0  0  0  0  0
    6.1606    2.7589    0.5722 C   0  0  0  0  0  0  0  0  0  0  0  0
   -5.0900    3.9017    0.4525 C   0  0  0  0  0  0  0  0  0  0  0  0
  1 11  1  0
  1 16  1  0
  2 21  1  0
  2 25  1  0
  3 13  2  0
  4 17  1  0
  4 22  1  0
  5 19  1  0
  6 18  2  0
  7 19  2  0
  8 22  2  0
  9 11  1  0
  9 13  1  0
  9 14  1  0
 10 12  1  0
 10 18  1  0
 11 12  1  0
 12 13  1  0
 14 15  2  0
 14 19  1  0
 15 16  1  0
 15 17  1  0
 18 20  1  0
 20 21  1  0
 21 23  2  0
 22 26  1  0
 23 24  1  0
 24 25  2  0
M  END
>  <PUBCHEM_COMPOUND_CID>  (1) 
2612

>  <PUBCHEM_CONFORMER_RMSD>  (1) 
1

>  <PUBCHEM_CONFORMER_DIVERSEORDER>  (1) 
1
18
108
69
49
102
115
15
83
154
32
88
97
85
17
140
99
137
57
100
63
12
55
98
144
62
70
124
139
45
67
36
128
48
116
101
19
148
142
56
134
46
29
47
87
95
39
107
34
146
122
60
65
143
150
133
130
77
31
23
38
93
110
5
117
43
79
138
96
151
50
118
132
136
127
28
26
2
114
37
141
20
135
120
89
111
14
71
153
41
33
76
4
13
86
25
8
129
145
131
104
125
90
119
53
59
84
92
35
44
40
113
106
81
126
3
103
42
22
16
91
6
58
105
61
52
147
112
73
152
80
155
64
68
7
54
11
149
109
74
72
21
24
94
121
75
51
27
78
66
30
10
9
123
82

>  <PUBCHEM_MMFF94_PARTIAL_CHARGES>  (1) 
31
1 -0.45
10 -0.65
11 0.44
12 0.28
13 0.58
14 0.12
15 -0.28
16 0.37
17 0.42
18 0.57
19 0.71
2 -0.08
20 0.24
21 -0.14
22 0.66
23 -0.15
24 -0.15
25 -0.11
26 0.06
3 -0.57
31 0.37
36 0.5
37 0.15
38 0.15
39 0.15
4 -0.43
5 -0.65
6 -0.57
7 -0.57
8 -0.57
9 -0.39

>  <PUBCHEM_EFFECTIVE_ROTOR_COUNT>  (1) 
8.6

>  <PUBCHEM_PHARMACOPHORE_FEATURES>  (1) 
10
1 10 donor
1 3 acceptor
1 5 acceptor
1 6 acceptor
1 7 acceptor
1 8 acceptor
3 5 7 19 anion
4 9 11 12 13 rings
5 2 21 23 24 25 rings
6 1 9 11 14 15 16 rings

>  <PUBCHEM_HEAVY_ATOM_COUNT>  (1) 
26

>  <PUBCHEM_ATOM_DEF_STEREO_COUNT>  (1) 
0

>  <PUBCHEM_ATOM_UDEF_STEREO_COUNT>  (1) 
2

>  <PUBCHEM_BOND_DEF_STEREO_COUNT>  (1) 
0

>  <PUBCHEM_BOND_UDEF_STEREO_COUNT>  (1) 
0

>  <PUBCHEM_ISOTOPIC_ATOM_COUNT>  (1) 
0

>  <PUBCHEM_COMPONENT_COUNT>  (1) 
1

>  <PUBCHEM_CACTVS_TAUTO_COUNT>  (1) 
2

>  <PUBCHEM_CONFORMER_ID>  (1) 
00000A3400000001

>  <PUBCHEM_MMFF94_ENERGY>  (1) 
56.6241

>  <PUBCHEM_FEATURE_SELFOVERLAP>  (1) 
51.062

>  <PUBCHEM_SHAPE_FINGERPRINT>  (1) 
10074138 170 17386011701971542499
10693767 8 9294414202478758089
10763959 59 18272375278695000500
11370993 144 18407754838029111886
11578080 2 18412549786699794531
12403259 415 18339654407666927158
12422481 6 17095806512288285919
12633257 1 17312825986964359140
12925494 130 18339636840744576785
13140716 1 17532112590830362679
14739800 52 18267017250615314129
14848178 5 11170174464080238860
15510800 12 11747198148993970800
21033648 29 18335144215301323174
21475661 188 18342173345645310436
22122407 14 18201442445685477488
23379529 103 9726760900377102085
23559900 14 18188505575036477262
2838139 119 18200586987116321557
2916195 48 18338517426939490229
3472631 163 18130501955250204508
34797466 226 17704075054126257869
5081480 168 17200830819966784116
5104073 3 18113329813298094930
56616090 13 18201993331138749238
57724786 102 18410283723658363076
633830 44 18270952467097650870
7064713 232 18114187427471263166
7970288 3 8574709109314792952

>  <PUBCHEM_SHAPE_MULTIPOLES>  (1) 
497.59
15.25
3.9
1.57
8.96
1.84
-0.45
16.9
3.26
-3
1.59
-0.45
-0.39
1.8

>  <PUBCHEM_SHAPE_SELFOVERLAP>  (1) 
1029.615

>  <PUBCHEM_SHAPE_VOLUME>  (1) 
285.7

>  <PUBCHEM_COORDINATE_TYPE>  (1) 
2
5
10

$$$$
