26131
     RDKit          3D

  9  9  0  0  1  0  0  0  0  0999 V2000
   -2.7321   -0.9314    0.4420 O   0  0  0  0  0  0  0  0  0  0  0  0
   -0.9805    0.1320    0.0520 N   0  0  0  0  0  0  0  0  0  0  0  0
   -2.2059   -0.1308   -0.3372 N   0  0  0  0  0  0  0  0  0  0  0  0
    1.3792   -0.6149    0.3176 C   0  0  0  0  0  0  0  0  0  0  0  0
    1.8674    0.7923   -0.0389 C   0  0  0  0  0  0  0  0  0  0  0  0
    0.0069   -0.8927   -0.3211 C   0  0  0  0  0  0  0  0  0  0  0  0
    0.8066    1.8272    0.3168 C   0  0  0  0  0  0  0  0  0  0  0  0
   -0.5422    1.4838   -0.3166 C   0  0  0  0  0  0  0  0  0  0  0  0
    2.4006   -1.6655   -0.1147 C   0  0  0  0  0  0  0  0  0  0  0  0
  1  3  2  0
  2  3  1  0
  2  6  1  0
  2  8  1  0
  4  5  1  0
  4  6  1  0
  4  9  1  0
  5  7  1  0
  7  8  1  0
M  END
>  <PUBCHEM_COMPOUND_CID>  (1) 
26131

>  <PUBCHEM_CONFORMER_RMSD>  (1) 
0.4

>  <PUBCHEM_CONFORMER_DIVERSEORDER>  (1) 
3
15
7
4
1
13
12
2
11
6
10
8
14
9
5

>  <PUBCHEM_MMFF94_PARTIAL_CHARGES>  (1) 
5
1 -0.16
2 -0.36
3 -0.01
6 0.27
8 0.27

>  <PUBCHEM_EFFECTIVE_ROTOR_COUNT>  (1) 
2.2

>  <PUBCHEM_PHARMACOPHORE_FEATURES>  (1) 
1
6 2 4 5 6 7 8 rings

>  <PUBCHEM_HEAVY_ATOM_COUNT>  (1) 
9

>  <PUBCHEM_ATOM_DEF_STEREO_COUNT>  (1) 
0

>  <PUBCHEM_ATOM_UDEF_STEREO_COUNT>  (1) 
1

>  <PUBCHEM_BOND_DEF_STEREO_COUNT>  (1) 
0

>  <PUBCHEM_BOND_UDEF_STEREO_COUNT>  (1) 
0

>  <PUBCHEM_ISOTOPIC_ATOM_COUNT>  (1) 
0

>  <PUBCHEM_COMPONENT_COUNT>  (1) 
1

>  <PUBCHEM_CACTVS_TAUTO_COUNT>  (1) 
1

>  <PUBCHEM_CONFORMER_ID>  (1) 
0000661300000003

>  <PUBCHEM_MMFF94_ENERGY>  (1) 
8.9035

>  <PUBCHEM_FEATURE_SELFOVERLAP>  (1) 
5.074

>  <PUBCHEM_SHAPE_FINGERPRINT>  (1) 
10857977 72 18339626850924335786
14128692 85 18336274427191742390
16945 1 18268424801260074020
18185500 45 18270391814724534894
20711978 78 18272357698554970988
20871998 22 18270971128588217726
21040471 1 17546162364773586560
23552423 10 18187932712018227094
241688 4 18265333902434024688
2748010 2 18339913810537431484
29004967 10 18335982055503219593

>  <PUBCHEM_SHAPE_MULTIPOLES>  (1) 
169.38
3.21
1.89
0.66
0.95
0.51
0
-1.64
-0.14
-0.55
-0.04
0
0.01
0.2

>  <PUBCHEM_SHAPE_SELFOVERLAP>  (1) 
327.378

>  <PUBCHEM_SHAPE_VOLUME>  (1) 
103.5

>  <PUBCHEM_COORDINATE_TYPE>  (1) 
2
5
10

$$$$
