26130
     RDKit          3D

 10 10  0  0  0  0  0  0  0  0999 V2000
    3.3803   -0.0254   -0.0005 O   0  0  0  0  0  0  0  0  0  0  0  0
   -2.6740   -1.1934   -0.0008 O   0  0  0  0  0  0  0  0  0  0  0  0
   -2.8368    1.0737    0.0001 O   0  0  0  0  0  0  0  0  0  0  0  0
    2.1068   -0.0063    0.0001 N   0  0  0  0  0  0  0  0  0  0  0  0
   -0.6812    0.0356    0.0002 C   0  0  0  0  0  0  0  0  0  0  0  0
    0.0328    1.2289   -0.0001 C   0  0  0  0  0  0  0  0  0  0  0  0
   -0.0034   -1.1785    0.0004 C   0  0  0  0  0  0  0  0  0  0  0  0
    1.4233    1.1945   -0.0001 C   0  0  0  0  0  0  0  0  0  0  0  0
    1.3876   -1.1858    0.0004 C   0  0  0  0  0  0  0  0  0  0  0  0
   -2.1354    0.0567    0.0003 C   0  0  0  0  0  0  0  0  0  0  0  0
  1  4  1  0
  2 10  1  0
  3 10  2  0
  4  8  2  0
  4  9  1  0
  5  6  2  0
  5  7  1  0
  5 10  1  0
  6  8  1  0
  7  9  2  0
M  CHG  2   1  -1   4   1
M  END
>  <PUBCHEM_COMPOUND_CID>  (1) 
26130

>  <PUBCHEM_CONFORMER_RMSD>  (1) 
0.4

>  <PUBCHEM_CONFORMER_DIVERSEORDER>  (1) 
1
2

>  <PUBCHEM_MMFF94_PARTIAL_CHARGES>  (1) 
15
1 -0.75
10 0.63
11 0.15
12 0.15
13 0.15
14 0.15
15 0.5
2 -0.65
3 -0.57
4 0.57
5 0.09
6 -0.15
7 -0.15
8 -0.06
9 -0.06

>  <PUBCHEM_EFFECTIVE_ROTOR_COUNT>  (1) 
1

>  <PUBCHEM_PHARMACOPHORE_FEATURES>  (1) 
5
1 1 anion
1 2 acceptor
1 3 acceptor
3 2 3 10 anion
6 4 5 6 7 8 9 rings

>  <PUBCHEM_HEAVY_ATOM_COUNT>  (1) 
10

>  <PUBCHEM_ATOM_DEF_STEREO_COUNT>  (1) 
0

>  <PUBCHEM_ATOM_UDEF_STEREO_COUNT>  (1) 
0

>  <PUBCHEM_BOND_DEF_STEREO_COUNT>  (1) 
0

>  <PUBCHEM_BOND_UDEF_STEREO_COUNT>  (1) 
0

>  <PUBCHEM_ISOTOPIC_ATOM_COUNT>  (1) 
0

>  <PUBCHEM_COMPONENT_COUNT>  (1) 
1

>  <PUBCHEM_CACTVS_TAUTO_COUNT>  (1) 
1

>  <PUBCHEM_CONFORMER_ID>  (1) 
0000661200000001

>  <PUBCHEM_MMFF94_ENERGY>  (1) 
26.0764

>  <PUBCHEM_FEATURE_SELFOVERLAP>  (1) 
25.429

>  <PUBCHEM_SHAPE_FINGERPRINT>  (1) 
10857977 72 18411408540252044426
12032990 46 18411990160782040902
12897270 3 18411417297727271053
14325111 11 18410574011058573856
16945 1 18338516343890085892
193761 8 17545883093236034788
21040471 1 18266459982655445472
23235685 24 18410288103786312072
23402655 69 18268695127298555709
23552423 10 18333453153021153415
2748010 2 18267020750665377148
29004967 10 18408608045502466194
5084963 1 18270964660303718233
528886 8 18411131411871907977

>  <PUBCHEM_SHAPE_MULTIPOLES>  (1) 
183.21
4.1
1.43
0.58
0.08
0.02
0
-0.01
0
0.12
0
0
0
0

>  <PUBCHEM_SHAPE_SELFOVERLAP>  (1) 
384.012

>  <PUBCHEM_SHAPE_VOLUME>  (1) 
103.1

>  <PUBCHEM_COORDINATE_TYPE>  (1) 
2
5
10

$$$$
