26139
     RDKit          3D

 18 19  0  0  1  0  0  0  0  0999 V2000
    0.8706    0.3554    0.6986 O   0  0  0  0  0  0  0  0  0  0  0  0
    2.6669    0.8640   -1.4965 O   0  0  0  0  0  0  0  0  0  0  0  0
    0.2191    3.0453    1.0791 O   0  0  0  0  0  0  0  0  0  0  0  0
   -6.1904   -2.2058   -0.8112 O   0  0  0  0  0  0  0  0  0  0  0  0
   -2.4216    0.7678   -0.1745 N   0  0  0  0  0  0  0  0  0  0  0  0
    0.5311    1.2077   -0.4038 C   0  0  0  0  0  0  0  0  0  0  0  0
   -0.4546    2.2503    0.1030 C   0  0  0  0  0  0  0  0  0  0  0  0
   -1.7018    1.6371    0.7462 C   0  0  0  0  0  0  0  0  0  0  0  0
    1.7918    1.8594   -0.9565 C   0  0  0  0  0  0  0  0  0  0  0  0
   -3.5780    0.1649    0.4745 C   0  0  0  0  0  0  0  0  0  0  0  0
    1.9476   -0.4441    0.4199 C   0  0  0  0  0  0  0  0  0  0  0  0
    2.8118   -0.2037   -0.6505 C   0  0  0  0  0  0  0  0  0  0  0  0
   -4.3139   -0.7505   -0.4987 C   0  0  0  0  0  0  0  0  0  0  0  0
    2.1689   -1.5308    1.2664 C   0  0  0  0  0  0  0  0  0  0  0  0
    3.8722   -1.0749   -0.9016 C   0  0  0  0  0  0  0  0  0  0  0  0
   -5.5420   -1.3792    0.1455 C   0  0  0  0  0  0  0  0  0  0  0  0
    3.2376   -2.3937    1.0229 C   0  0  0  0  0  0  0  0  0  0  0  0
    4.0848   -2.1692   -0.0627 C   0  0  0  0  0  0  0  0  0  0  0  0
  1  6  1  0
  1 11  1  0
  2  9  1  0
  2 12  1  0
  3  7  1  0
  4 16  1  0
  5  8  1  0
  5 10  1  0
  6  7  1  0
  6  9  1  0
  7  8  1  0
 10 13  1  0
 11 12  2  0
 11 14  1  0
 12 15  1  0
 13 16  1  0
 14 17  2  0
 15 18  2  0
 17 18  1  0
M  END
>  <PUBCHEM_COMPOUND_CID>  (1) 
26139

>  <PUBCHEM_CONFORMER_RMSD>  (1) 
0.8

>  <PUBCHEM_CONFORMER_DIVERSEORDER>  (1) 
1
150
46
149
199
197
98
13
196
17
2
155
169
5
192
66
179
41
181
164
20
10
168
83
160
59
82
114
175
26
11
9
49
69
19
37
86
77
200
24
91
163
52
189
140
35
182
108
123
172
103
16
161
109
116
57
183
154
191
110
177
88
72
148
31
173
111
8
132
48
208
65
137
141
187
4
214
203
51
159
85
42
142
104
100
205
45
23
158
127
105
162
40
29
64
209
55
113
195
176
92
198
63
80
152
44
81
122
167
96
43
97
138
153
60
99
119
93
185
202
47
146
136
18
174
67
61
33
126
95
212
118
38
201
27
71
79
193
14
21
68
101
194
207
73
6
133
190
156
186
75
120
144
188
125
32
157
50
7
87
121
131
106
124
90
74
12
94
117
206
147
204
36
3
145
70
211
15
30
54
39
184
135
115
84
102
78
180
130
134
53
112
76
128
213
62
22
143
58
166
89
56
129
25
28
165
139
178
170
171
34
151
210
107

>  <PUBCHEM_MMFF94_PARTIAL_CHARGES>  (1) 
24
1 -0.36
10 0.27
11 0.08
12 0.08
14 -0.15
15 -0.15
16 0.28
17 -0.15
18 -0.15
2 -0.36
25 0.36
3 -0.68
30 0.4
31 0.15
32 0.15
35 0.15
36 0.15
37 0.4
4 -0.68
5 -0.9
6 0.28
7 0.28
8 0.27
9 0.28

>  <PUBCHEM_EFFECTIVE_ROTOR_COUNT>  (1) 
6.8

>  <PUBCHEM_PHARMACOPHORE_FEATURES>  (1) 
10
1 1 acceptor
1 2 acceptor
1 3 acceptor
1 3 donor
1 4 acceptor
1 4 donor
1 5 cation
1 5 donor
6 1 2 6 9 11 12 rings
6 11 12 14 15 17 18 rings

>  <PUBCHEM_HEAVY_ATOM_COUNT>  (1) 
18

>  <PUBCHEM_ATOM_DEF_STEREO_COUNT>  (1) 
0

>  <PUBCHEM_ATOM_UDEF_STEREO_COUNT>  (1) 
2

>  <PUBCHEM_BOND_DEF_STEREO_COUNT>  (1) 
0

>  <PUBCHEM_BOND_UDEF_STEREO_COUNT>  (1) 
0

>  <PUBCHEM_ISOTOPIC_ATOM_COUNT>  (1) 
0

>  <PUBCHEM_COMPONENT_COUNT>  (1) 
1

>  <PUBCHEM_CACTVS_TAUTO_COUNT>  (1) 
1

>  <PUBCHEM_CONFORMER_ID>  (1) 
0000661B00000001

>  <PUBCHEM_MMFF94_ENERGY>  (1) 
39.5752

>  <PUBCHEM_FEATURE_SELFOVERLAP>  (1) 
50.792

>  <PUBCHEM_SHAPE_FINGERPRINT>  (1) 
10042902 136 18051418357906096310
11578080 2 18191006938188598060
11806522 49 18334580092911526768
12824470 246 18341052930464569513
13533116 47 18268147746807089395
13955234 65 17983014754766337985
1420 369 18342738507644097695
14576447 43 18261397719715941182
14767858 380 18188791521273804100
14787075 74 18411986888449796480
15188451 53 16486682663502798007
15342816 4 18341059552924078572
1798214 20 18334574638065677551
18915474 69 18335988592469895671
20281475 54 18409732850804954745
20291156 8 18410573951018559601
20388580 30 18334859424209024477
20626108 58 18335132051384313240
20645477 70 18261109716415106519
20715895 44 10014214974560442091
21634736 98 18333740108682283722
23503958 8 17986675861423022658
235170 7 16370723747231084583
23596394 208 17385435540603785367
270888 7 8646763396291284511
3004659 81 18259982661114854719
314194 84 18410581720984014291
351380 3 18342459248976136951
44062 13 18336539422911746981
46194498 28 17023466481723141431
465052 167 18271251633551159767
556388 4 18334856121505949699
76465 3 18409729517303366195
7808743 9 8646469826601882519
7970288 3 18341612586125931511
960060 61 18113336449096069143

>  <PUBCHEM_SHAPE_MULTIPOLES>  (1) 
341.97
10.51
3.02
1.16
16.81
0.6
0
-11.06
2.37
-0.07
-0.47
-0.58
0.04
-1.57

>  <PUBCHEM_SHAPE_SELFOVERLAP>  (1) 
704.105

>  <PUBCHEM_SHAPE_VOLUME>  (1) 
195.5

>  <PUBCHEM_COORDINATE_TYPE>  (1) 
2
5
10

$$$$
