26140
     RDKit          3D

 18 19  0  0  1  0  0  0  0  0999 V2000
    0.6932   -0.3778   -0.7150 O   0  0  0  0  0  0  0  0  0  0  0  0
    2.4768   -1.0158    1.4567 O   0  0  0  0  0  0  0  0  0  0  0  0
   -0.1495   -3.0148   -1.0908 O   0  0  0  0  0  0  0  0  0  0  0  0
   -5.5466    1.6695   -0.1525 O   0  0  0  0  0  0  0  0  0  0  0  0
   -2.6087   -0.5612    0.1991 N   0  0  0  0  0  0  0  0  0  0  0  0
    0.3087   -1.2069    0.3905 C   0  0  0  0  0  0  0  0  0  0  0  0
   -0.7537   -2.1769   -0.1053 C   0  0  0  0  0  0  0  0  0  0  0  0
   -1.9629   -1.4766   -0.7318 C   0  0  0  0  0  0  0  0  0  0  0  0
    1.5276   -1.9463    0.9264 C   0  0  0  0  0  0  0  0  0  0  0  0
   -3.7281    0.1223   -0.4346 C   0  0  0  0  0  0  0  0  0  0  0  0
    1.8269    0.3438   -0.4487 C   0  0  0  0  0  0  0  0  0  0  0  0
    2.6854    0.0412    0.6104 C   0  0  0  0  0  0  0  0  0  0  0  0
   -4.4534    1.0600    0.5336 C   0  0  0  0  0  0  0  0  0  0  0  0
    2.1129    1.4142   -1.2964 C   0  0  0  0  0  0  0  0  0  0  0  0
    3.8072    0.8355    0.8492 C   0  0  0  0  0  0  0  0  0  0  0  0
   -3.5632    2.1761    1.0651 C   0  0  0  0  0  0  0  0  0  0  0  0
    3.2422    2.1998   -1.0652 C   0  0  0  0  0  0  0  0  0  0  0  0
    4.0852    1.9142    0.0093 C   0  0  0  0  0  0  0  0  0  0  0  0
  1  6  1  0
  1 11  1  0
  2  9  1  0
  2 12  1  0
  3  7  1  0
  4 13  1  0
  5  8  1  0
  5 10  1  0
  6  7  1  0
  6  9  1  0
  7  8  1  0
 10 13  1  0
 11 12  2  0
 11 14  1  0
 12 15  1  0
 13 16  1  0
 14 17  2  0
 15 18  2  0
 17 18  1  0
M  END
>  <PUBCHEM_COMPOUND_CID>  (1) 
26140

>  <PUBCHEM_CONFORMER_RMSD>  (1) 
0.8

>  <PUBCHEM_CONFORMER_DIVERSEORDER>  (1) 
1
12
101
169
58
118
81
108
46
75
113
97
143
30
135
104
14
80
24
92
18
124
27
157
66
99
5
105
138
10
98
44
177
84
86
3
72
121
42
128
69
54
125
73
90
106
34
91
168
85
64
178
144
2
26
126
45
55
133
48
63
164
36
37
95
20
103
111
51
154
145
93
57
16
161
115
132
62
33
122
167
39
120
171
8
56
43
77
160
159
61
107
149
83
170
15
174
114
127
162
158
109
142
49
156
59
67
141
32
23
96
9
25
41
7
147
60
13
150
88
4
176
140
89
38
78
28
163
117
17
47
137
76
100
112
151
153
6
134
65
50
79
53
175
155
148
172
131
68
152
22
110
71
21
40
129
82
136
130
74
31
29
139
19
94
173
165
11
119
52
70
166
35
123
146
87
102
116

>  <PUBCHEM_MMFF94_PARTIAL_CHARGES>  (1) 
24
1 -0.36
10 0.27
11 0.08
12 0.08
13 0.28
14 -0.15
15 -0.15
17 -0.15
18 -0.15
2 -0.36
25 0.36
29 0.4
3 -0.68
30 0.15
31 0.15
35 0.15
36 0.15
37 0.4
4 -0.68
5 -0.9
6 0.28
7 0.28
8 0.27
9 0.28

>  <PUBCHEM_EFFECTIVE_ROTOR_COUNT>  (1) 
5.8

>  <PUBCHEM_PHARMACOPHORE_FEATURES>  (1) 
10
1 1 acceptor
1 2 acceptor
1 3 acceptor
1 3 donor
1 4 acceptor
1 4 donor
1 5 cation
1 5 donor
6 1 2 6 9 11 12 rings
6 11 12 14 15 17 18 rings

>  <PUBCHEM_HEAVY_ATOM_COUNT>  (1) 
18

>  <PUBCHEM_ATOM_DEF_STEREO_COUNT>  (1) 
0

>  <PUBCHEM_ATOM_UDEF_STEREO_COUNT>  (1) 
3

>  <PUBCHEM_BOND_DEF_STEREO_COUNT>  (1) 
0

>  <PUBCHEM_BOND_UDEF_STEREO_COUNT>  (1) 
0

>  <PUBCHEM_ISOTOPIC_ATOM_COUNT>  (1) 
0

>  <PUBCHEM_COMPONENT_COUNT>  (1) 
1

>  <PUBCHEM_CACTVS_TAUTO_COUNT>  (1) 
1

>  <PUBCHEM_CONFORMER_ID>  (1) 
0000661C00000001

>  <PUBCHEM_MMFF94_ENERGY>  (1) 
42.3882

>  <PUBCHEM_FEATURE_SELFOVERLAP>  (1) 
50.792

>  <PUBCHEM_SHAPE_FINGERPRINT>  (1) 
10382601 240 17749099002942733658
10465860 228 18334011696654737586
10498660 4 18131353007868859225
10906281 52 17822855429110228160
11640471 11 18410576205792000675
11725454 13 16198994345882050786
12173636 292 18199179775162067735
12633257 1 15792016730846642625
12788726 201 18049711116758643379
13257819 101 16271058537300891056
13828863 39 14998847811702617356
14123255 52 18412548721246996813
14123260 362 18343025518727950153
1420 369 8574714602667440377
14251764 38 17901660476399184805
14739800 52 17912058836908972832
15188451 53 14996576139866563457
15209294 21 18263915704570527872
15342168 16 18411418367986647701
15475509 8 18335148566678200812
1741750 31 18340770445917167491
17810953 82 18265053540170724765
17834072 32 18412829118234746241
1798214 55 18413112753616787125
20157964 124 18189046518009463869
20539926 19 18410299128830275837
20715895 44 17830725458058350973
20739085 24 17748543736802115716
21503847 285 18262239923910474442
21524375 3 18409444821412718807
21665062 11 18040996215617986772
21713013 43 13686285890735488317
235170 7 15267337414629948233
351380 3 9007057980867573577
38570 142 17460904988127212060
44154327 71 18409731733802182369
474 4 18334575707602166259
633830 44 18261675982151949958
7808743 9 18270119140115059121
7832392 63 18335980986583851006
8199 26 18411420643670467817
960060 61 11311764065198689049

>  <PUBCHEM_SHAPE_MULTIPOLES>  (1) 
341.97
9.13
2.93
1.19
8.66
0.74
0.02
-8.37
1.11
0.4
-0.29
-0.51
-0.02
-1.56

>  <PUBCHEM_SHAPE_SELFOVERLAP>  (1) 
706.607

>  <PUBCHEM_SHAPE_VOLUME>  (1) 
195.4

>  <PUBCHEM_COORDINATE_TYPE>  (1) 
2
5
10

$$$$
