26145
     RDKit          3D

 21 22  0  0  1  0  0  0  0  0999 V2000
   -2.7412   -0.8477    0.7399 O   0  0  0  0  0  0  0  0  0  0  0  0
   -1.4894   -2.9934   -0.3392 O   0  0  0  0  0  0  0  0  0  0  0  0
   -2.1438    1.0680   -1.3281 O   0  0  0  0  0  0  0  0  0  0  0  0
    7.2262    1.3849   -0.2101 O   0  0  0  0  0  0  0  0  0  0  0  0
    1.5621   -1.0016    0.3774 N   0  0  0  0  0  0  0  0  0  0  0  0
   -0.6947   -2.0019    0.3149 C   0  0  0  0  0  0  0  0  0  0  0  0
    0.7322   -2.0158   -0.2724 C   0  0  0  0  0  0  0  0  0  0  0  0
   -1.4250   -0.6722    0.1980 C   0  0  0  0  0  0  0  0  0  0  0  0
   -1.5231   -0.2193   -1.2528 C   0  0  0  0  0  0  0  0  0  0  0  0
    2.8633   -0.9120   -0.2661 C   0  0  0  0  0  0  0  0  0  0  0  0
    1.4233   -3.3762   -0.1675 C   0  0  0  0  0  0  0  0  0  0  0  0
    3.7218    0.1503    0.4183 C   0  0  0  0  0  0  0  0  0  0  0  0
   -3.5667    0.2040    0.4410 C   0  0  0  0  0  0  0  0  0  0  0  0
    5.0914    0.2673   -0.2486 C   0  0  0  0  0  0  0  0  0  0  0  0
   -3.2718    1.1386   -0.5538 C   0  0  0  0  0  0  0  0  0  0  0  0
    5.9716    1.2940    0.4519 C   0  0  0  0  0  0  0  0  0  0  0  0
   -4.7494    0.3119    1.1731 C   0  0  0  0  0  0  0  0  0  0  0  0
   -4.1378    2.2070   -0.7876 C   0  0  0  0  0  0  0  0  0  0  0  0
   -5.6217    1.3730    0.9294 C   0  0  0  0  0  0  0  0  0  0  0  0
   -5.3138    2.3222   -0.0458 C   0  0  0  0  0  0  0  0  0  0  0  0
    8.0863    2.3190    0.4282 C   0  0  0  0  0  0  0  0  0  0  0  0
  1  8  1  0
  1 13  1  0
  2  6  1  0
  3  9  1  0
  3 15  1  0
  4 16  1  0
  4 21  1  0
  5  7  1  0
  5 10  1  0
  6  7  1  0
  6  8  1  0
  7 11  1  0
  8  9  1  0
 10 12  1  0
 12 14  1  0
 13 15  2  0
 13 17  1  0
 14 16  1  0
 15 18  1  0
 17 19  2  0
 18 20  2  0
 19 20  1  0
M  END
>  <PUBCHEM_COMPOUND_CID>  (1) 
26145

>  <PUBCHEM_CONFORMER_RMSD>  (1) 
1

>  <PUBCHEM_CONFORMER_DIVERSEORDER>  (1) 
14
76
2
108
235
552
495
53
239
54
642
41
103
395
112
245
30
282
147
13
804
253
146
815
639
80
273
933
11
132
87
381
676
160
623
828
915
295
1
515
42
201
58
316
187
845
111
354
563
305
66
3
715
932
995
616
93
94
152
262
417
310
977
104
376
958
419
20
38
234
777
728
385
534
137
205
423
202
72
189
370
696
100
186
280
91
291
686
332
634
198
170
6
124
819
61
257
82
714
477
433
430
63
998
92
464
349
410
429
140
302
236
808
912
309
151
426
303
45
17
427
203
338
333
540
252
84
801
764
40
581
224
467
244
156
717
770
89
306
12
16
115
266
389
278
81
51
221
468
18
588
473
213
113
183
664
37
50
128
380
264
65
49
530
67
46
683
308
336
55
891
85
150
522
109
535
627
864
177
782
797
34
722
188
598
795
32
246
957
690
571
123
752
675
314
43
57
83
181
75
836
107
487
622
96
359
330
465
960
210
528
243
35
163
969
301
122
668
636
832
633
437
154
818
684
608
21
988
52
251
149
256
176
582
576
166
377
319
15
131
736
670
418
763
31
654
986
506
228
694
643
784
769
501
884
593
899
985
424

>  <PUBCHEM_MMFF94_PARTIAL_CHARGES>  (1) 
24
1 -0.36
10 0.27
13 0.08
15 0.08
16 0.28
17 -0.15
18 -0.15
19 -0.15
2 -0.68
20 -0.15
21 0.28
25 0.36
3 -0.36
35 0.4
4 -0.56
40 0.15
41 0.15
42 0.15
43 0.15
5 -0.9
6 0.28
7 0.27
8 0.28
9 0.28

>  <PUBCHEM_EFFECTIVE_ROTOR_COUNT>  (1) 
8.8

>  <PUBCHEM_PHARMACOPHORE_FEATURES>  (1) 
9
1 1 acceptor
1 2 acceptor
1 2 donor
1 3 acceptor
1 4 acceptor
1 5 cation
1 5 donor
6 1 3 8 9 13 15 rings
6 13 15 17 18 19 20 rings

>  <PUBCHEM_HEAVY_ATOM_COUNT>  (1) 
21

>  <PUBCHEM_ATOM_DEF_STEREO_COUNT>  (1) 
0

>  <PUBCHEM_ATOM_UDEF_STEREO_COUNT>  (1) 
3

>  <PUBCHEM_BOND_DEF_STEREO_COUNT>  (1) 
0

>  <PUBCHEM_BOND_UDEF_STEREO_COUNT>  (1) 
0

>  <PUBCHEM_ISOTOPIC_ATOM_COUNT>  (1) 
0

>  <PUBCHEM_COMPONENT_COUNT>  (1) 
1

>  <PUBCHEM_CACTVS_TAUTO_COUNT>  (1) 
1

>  <PUBCHEM_CONFORMER_ID>  (1) 
000066210000000E

>  <PUBCHEM_MMFF94_ENERGY>  (1) 
50.0024

>  <PUBCHEM_FEATURE_SELFOVERLAP>  (1) 
45.719

>  <PUBCHEM_SHAPE_FINGERPRINT>  (1) 
10 15 18113902662850316392
10165383 225 18341898502076700889
10369192 42 18413393158998753524
10411042 1 17689998264217703755
10493431 412 18408887330114505679
10622 236 12398592924832621313
12390115 104 18341339954264693746
12633257 1 15936422142805379374
12895836 83 18412260657858961330
12895837 130 18129660936809659700
14123256 34 9439401346019008172
15183329 4 15339122316851546732
15342168 16 18339922615289005559
15519825 34 16154000160719372936
15778101 99 18411702123496007658
16110190 28 17968097581649068372
16126227 98 18340209686639835824
17780758 139 12396290448377250806
17870717 6 12535623865132640745
193927 3 7997969107006689594
20281389 69 18335138709448733408
20621476 66 18410014369010900096
21033650 10 14405193824166691963
21307412 95 10951758660981910273
21401589 2 18260828202419862522
21756936 100 18341044211744119206
23198884 109 16056882424778494192
23559900 14 17244160227980902927
270888 7 18411697664887535224
2838139 119 18411693258409039974
2916195 48 18411138039254352402
3014063 24 11746943104602291200
5104073 3 17898017832987870433
5718773 13 8646476410618416609
59682541 35 18260559935269356241
59682541 52 16773244977092774908
5969126 39 18055347196251228527
6327066 14 18410288108039172620
633830 44 17558277523176633551
636775 72 18051689139041987504
636775 8 8862667937066602984
77188 2 17402614048336881038
7808743 9 18409445912328884002
7970288 3 8934997071078164832

>  <PUBCHEM_SHAPE_MULTIPOLES>  (1) 
403.71
17.36
3.21
0.99
31.72
1.8
0.07
-20.35
-3.2
0.98
0.22
-0.92
-0.19
0.78

>  <PUBCHEM_SHAPE_SELFOVERLAP>  (1) 
820.914

>  <PUBCHEM_SHAPE_VOLUME>  (1) 
234.9

>  <PUBCHEM_COORDINATE_TYPE>  (1) 
2
5
10

$$$$
