26141
     RDKit          3D

 18 19  0  0  1  0  0  0  0  0999 V2000
    0.8529    0.3491    0.6969 O   0  0  0  0  0  0  0  0  0  0  0  0
    2.6672    0.8878   -1.4762 O   0  0  0  0  0  0  0  0  0  0  0  0
    0.1937    3.0332    1.1050 O   0  0  0  0  0  0  0  0  0  0  0  0
   -5.4177   -1.3610    0.1237 O   0  0  0  0  0  0  0  0  0  0  0  0
   -2.4323    0.7672   -0.1993 N   0  0  0  0  0  0  0  0  0  0  0  0
    0.5215    1.2145   -0.3977 C   0  0  0  0  0  0  0  0  0  0  0  0
   -0.4702    2.2492    0.1134 C   0  0  0  0  0  0  0  0  0  0  0  0
   -1.7219    1.6263    0.7382 C   0  0  0  0  0  0  0  0  0  0  0  0
    1.7858    1.8750   -0.9315 C   0  0  0  0  0  0  0  0  0  0  0  0
    1.9336   -0.4451    0.4177 C   0  0  0  0  0  0  0  0  0  0  0  0
    2.8066   -0.1902   -0.6422 C   0  0  0  0  0  0  0  0  0  0  0  0
   -3.5932    0.1547    0.4325 C   0  0  0  0  0  0  0  0  0  0  0  0
    2.1494   -1.5417    1.2526 C   0  0  0  0  0  0  0  0  0  0  0  0
    3.8705   -1.0565   -0.8949 C   0  0  0  0  0  0  0  0  0  0  0  0
   -4.3050   -0.7740   -0.5382 C   0  0  0  0  0  0  0  0  0  0  0  0
    3.2216   -2.4000    1.0076 C   0  0  0  0  0  0  0  0  0  0  0  0
    4.0777   -2.1607   -0.0678 C   0  0  0  0  0  0  0  0  0  0  0  0
   -6.1404   -2.2278   -0.7399 C   0  0  0  0  0  0  0  0  0  0  0  0
  1  6  1  0
  1 10  1  0
  2  9  1  0
  2 11  1  0
  3  7  1  0
  4 15  1  0
  4 18  1  0
  5  8  1  0
  5 12  1  0
  6  7  1  0
  6  9  1  0
  7  8  1  0
 10 11  2  0
 10 13  1  0
 11 14  1  0
 12 15  1  0
 13 16  2  0
 14 17  2  0
 16 17  1  0
M  END
>  <PUBCHEM_COMPOUND_CID>  (1) 
26141

>  <PUBCHEM_CONFORMER_RMSD>  (1) 
0.8

>  <PUBCHEM_CONFORMER_DIVERSEORDER>  (1) 
4
105
45
143
113
132
38
119
78
178
135
183
34
71
13
152
1
95
179
97
102
80
144
61
120
59
23
63
52
170
175
5
110
12
106
64
160
163
130
3
83
103
11
149
112
138
85
82
67
72
129
164
29
66
173
125
89
21
166
177
142
69
114
6
76
134
91
182
127
107
9
117
53
18
165
169
40
131
70
16
140
109
111
74
87
162
154
55
147
44
96
26
146
33
172
136
57
8
54
84
19
141
35
90
77
94
79
48
171
32
39
75
25
49
88
50
30
14
158
126
124
73
65
2
157
101
180
81
10
31
116
41
20
123
47
98
150
100
36
7
156
181
60
176
121
22
167
133
17
104
68
155
51
24
137
115
37
93
139
62
58
28
128
43
108
27
161
42
122
86
118
168
56
153
15
92
159
148
99
151
145
46
174

>  <PUBCHEM_MMFF94_PARTIAL_CHARGES>  (1) 
24
1 -0.36
10 0.08
11 0.08
12 0.27
13 -0.15
14 -0.15
15 0.28
16 -0.15
17 -0.15
18 0.28
2 -0.36
25 0.36
28 0.4
29 0.15
3 -0.68
32 0.15
33 0.15
34 0.15
4 -0.56
5 -0.9
6 0.28
7 0.28
8 0.27
9 0.28

>  <PUBCHEM_EFFECTIVE_ROTOR_COUNT>  (1) 
6.8

>  <PUBCHEM_PHARMACOPHORE_FEATURES>  (1) 
9
1 1 acceptor
1 2 acceptor
1 3 acceptor
1 3 donor
1 4 acceptor
1 5 cation
1 5 donor
6 1 2 6 9 10 11 rings
6 10 11 13 14 16 17 rings

>  <PUBCHEM_HEAVY_ATOM_COUNT>  (1) 
18

>  <PUBCHEM_ATOM_DEF_STEREO_COUNT>  (1) 
0

>  <PUBCHEM_ATOM_UDEF_STEREO_COUNT>  (1) 
2

>  <PUBCHEM_BOND_DEF_STEREO_COUNT>  (1) 
0

>  <PUBCHEM_BOND_UDEF_STEREO_COUNT>  (1) 
0

>  <PUBCHEM_ISOTOPIC_ATOM_COUNT>  (1) 
0

>  <PUBCHEM_COMPONENT_COUNT>  (1) 
1

>  <PUBCHEM_CACTVS_TAUTO_COUNT>  (1) 
1

>  <PUBCHEM_CONFORMER_ID>  (1) 
0000661D00000004

>  <PUBCHEM_MMFF94_ENERGY>  (1) 
45.554

>  <PUBCHEM_FEATURE_SELFOVERLAP>  (1) 
45.717

>  <PUBCHEM_SHAPE_FINGERPRINT>  (1) 
10042902 136 18051699837172493046
11578080 2 18191005838666420756
11806522 49 18334861567882956168
12824470 246 18341334409757333481
13533116 47 18268147746807115331
13955234 65 17911237540504258489
1420 369 18343019986921063415
14576447 43 18333735693503369798
14767858 380 18189353376005329164
14787075 74 18411986884170646944
15188451 53 16486964138479521687
15342816 4 18341341032206332037
1798214 20 18334855013530773447
18915474 69 18408327661495090271
20281475 54 18410013226280574129
20291156 8 18410855430311323557
20388580 30 18334859428519803053
20626108 58 18335132055673992776
20645477 70 18261390100507053767
21634736 98 18333740108677008954
23503958 8 17986675861412479642
235170 7 16370722647730045311
23596394 208 17385997391056147951
270888 7 8574708001318810175
3004659 81 18260263036606317903
314194 84 18410863195966025659
351380 3 18342740728268926927
44062 13 18336820902193935485
46194498 28 17095804451241989511
465052 167 18271813483987685087
556388 4 18335417976269097259
76465 3 18409729521603621231
7808743 9 8574413332075595375
7970288 3 18341611486609028991
960060 61 18113616824571721039

>  <PUBCHEM_SHAPE_MULTIPOLES>  (1) 
341.97
10.53
3.08
1.16
17.42
0.54
0.01
-11.3
2.4
0.02
-0.48
-0.63
0.04
-1.58

>  <PUBCHEM_SHAPE_SELFOVERLAP>  (1) 
703.383

>  <PUBCHEM_SHAPE_VOLUME>  (1) 
196.3

>  <PUBCHEM_COORDINATE_TYPE>  (1) 
2
5
10

$$$$
