26148
     RDKit          3D

 19 20  0  0  1  0  0  0  0  0999 V2000
    1.1695   -0.4532    0.7811 O   0  0  0  0  0  0  0  0  0  0  0  0
    2.5528    1.4834   -0.8323 O   0  0  0  0  0  0  0  0  0  0  0  0
   -0.8144    0.5093    2.4533 O   0  0  0  0  0  0  0  0  0  0  0  0
   -6.0279   -1.0368   -1.0151 O   0  0  0  0  0  0  0  0  0  0  0  0
   -2.9666    0.3041    0.5265 N   0  0  0  0  0  0  0  0  0  0  0  0
    0.8109    0.9395    0.7659 C   0  0  0  0  0  0  0  0  0  0  0  0
   -0.6683    1.0122    1.1256 C   0  0  0  0  0  0  0  0  0  0  0  0
    1.1325    1.5325   -0.6114 C   0  0  0  0  0  0  0  0  0  0  0  0
   -1.5547    0.1898    0.1876 C   0  0  0  0  0  0  0  0  0  0  0  0
    0.7202    2.9929   -0.7526 C   0  0  0  0  0  0  0  0  0  0  0  0
    2.4144   -0.6781    0.2595 C   0  0  0  0  0  0  0  0  0  0  0  0
    3.0897    0.2654   -0.5145 C   0  0  0  0  0  0  0  0  0  0  0  0
   -3.7893   -0.4547   -0.4059 C   0  0  0  0  0  0  0  0  0  0  0  0
    3.0011   -1.9163    0.5219 C   0  0  0  0  0  0  0  0  0  0  0  0
    4.3720   -0.0093   -0.9905 C   0  0  0  0  0  0  0  0  0  0  0  0
   -5.2641   -0.2959   -0.0725 C   0  0  0  0  0  0  0  0  0  0  0  0
    4.2777   -2.1965    0.0343 C   0  0  0  0  0  0  0  0  0  0  0  0
    4.9646   -1.2420   -0.7163 C   0  0  0  0  0  0  0  0  0  0  0  0
   -7.4200   -0.9461   -0.7448 C   0  0  0  0  0  0  0  0  0  0  0  0
  1  6  1  0
  1 11  1  0
  2  8  1  0
  2 12  1  0
  3  7  1  0
  4 16  1  0
  4 19  1  0
  5  9  1  0
  5 13  1  0
  6  7  1  0
  6  8  1  0
  7  9  1  0
  8 10  1  0
 11 12  2  0
 11 14  1  0
 12 15  1  0
 13 16  1  0
 14 17  2  0
 15 18  2  0
 17 18  1  0
M  END
>  <PUBCHEM_COMPOUND_CID>  (1) 
26148

>  <PUBCHEM_CONFORMER_RMSD>  (1) 
0.8

>  <PUBCHEM_CONFORMER_DIVERSEORDER>  (1) 
1
150
3
87
177
88
62
105
140
196
165
185
123
35
138
160
94
15
134
176
92
2
154
93
43
130
68
78
77
34
168
112
18
125
132
135
22
162
145
201
4
199
141
81
19
58
124
29
63
111
136
97
143
167
183
190
172
128
102
188
37
147
121
193
84
114
180
41
28
200
120
159
98
49
32
192
45
146
80
198
137
187
74
109
76
30
186
142
82
122
164
17
133
197
166
195
5
57
75
54
100
39
9
152
25
51
117
182
173
46
110
23
151
170
85
42
115
155
191
149
27
73
72
161
16
104
48
7
119
61
118
103
126
181
64
24
60
156
131
189
90
106
127
175
10
14
8
6
163
101
144
99
53
33
116
47
12
194
95
107
31
65
79
96
59
69
129
52
56
86
50
40
67
91
184
71
83
113
70
36
108
179
55
153
148
66
44
21
158
20
174
13
169
26
157
89
38
139
178
171
11

>  <PUBCHEM_MMFF94_PARTIAL_CHARGES>  (1) 
24
1 -0.36
11 0.08
12 0.08
13 0.27
14 -0.15
15 -0.15
16 0.28
17 -0.15
18 -0.15
19 0.28
2 -0.36
28 0.36
29 0.4
3 -0.68
32 0.15
33 0.15
36 0.15
37 0.15
4 -0.56
5 -0.9
6 0.28
7 0.28
8 0.28
9 0.27

>  <PUBCHEM_EFFECTIVE_ROTOR_COUNT>  (1) 
6.8

>  <PUBCHEM_PHARMACOPHORE_FEATURES>  (1) 
9
1 1 acceptor
1 2 acceptor
1 3 acceptor
1 3 donor
1 4 acceptor
1 5 cation
1 5 donor
6 1 2 6 8 11 12 rings
6 11 12 14 15 17 18 rings

>  <PUBCHEM_HEAVY_ATOM_COUNT>  (1) 
19

>  <PUBCHEM_ATOM_DEF_STEREO_COUNT>  (1) 
0

>  <PUBCHEM_ATOM_UDEF_STEREO_COUNT>  (1) 
3

>  <PUBCHEM_BOND_DEF_STEREO_COUNT>  (1) 
0

>  <PUBCHEM_BOND_UDEF_STEREO_COUNT>  (1) 
0

>  <PUBCHEM_ISOTOPIC_ATOM_COUNT>  (1) 
0

>  <PUBCHEM_COMPONENT_COUNT>  (1) 
1

>  <PUBCHEM_CACTVS_TAUTO_COUNT>  (1) 
1

>  <PUBCHEM_CONFORMER_ID>  (1) 
0000662400000001

>  <PUBCHEM_MMFF94_ENERGY>  (1) 
48.442

>  <PUBCHEM_FEATURE_SELFOVERLAP>  (1) 
45.719

>  <PUBCHEM_SHAPE_FINGERPRINT>  (1) 
10378564 45 18040986337725917413
10498660 4 14634871946532693861
10670039 82 14635141266667990031
10693767 8 18334569101442227691
10753850 27 18411413973459988002
11724838 91 8790877489698352513
11796584 16 17989209231245959575
12236239 1 18202570557326130873
12633257 1 13901895717962469695
12730499 353 16588027905297584027
14251752 14 18343018849324292681
14341114 328 8790881878738243157
14576447 43 18410577266870598598
14863182 85 16917079853474079239
15183329 4 18335415730633977029
15188451 53 14764051412292238295
15342816 4 18270127812081115926
16945 1 17970656055275722728
17134984 74 18260545658213261539
1798214 20 18411982446682965799
18222031 100 18411698768456604170
19784866 240 18130792252643544099
200 152 18335991861440999080
20369508 70 17489302044777636777
20388580 30 18411419526942216517
20567600 247 18413102884061840599
20645477 70 18334013899593106879
21285901 2 17458341901435746014
21637258 2 18131344185631376279
221357 26 18040711459750505573
221490 88 18043828686335838882
23253445 4 12391513092356927315
23559900 14 18263359347549810753
23622692 118 17898566476495470730
270888 7 10809928287827479774
2748010 2 17683562715886391848
2871803 45 18113904823429726102
29717793 49 18413673508931357453
298252 57 13118292464086224992
3004659 81 18341892995907833343
3411729 13 16055456465423648704
3472631 163 13262694650424750326
351380 3 18060418006417900663
439807 62 18269552914178322783
46194498 28 17603585265877439365
465052 167 18131354141713864855
59682541 52 18114454609456312559
960060 61 18187088359859926863

>  <PUBCHEM_SHAPE_MULTIPOLES>  (1) 
362.55
13.51
2.17
1.26
26.88
0.88
-0.57
-9.72
5.94
-2.01
0.4
0.23
0.22
-1.01

>  <PUBCHEM_SHAPE_SELFOVERLAP>  (1) 
744.059

>  <PUBCHEM_SHAPE_VOLUME>  (1) 
209.2

>  <PUBCHEM_COORDINATE_TYPE>  (1) 
2
5
10

$$$$
