26151
     RDKit          3D

 15 16  0  0  0  0  0  0  0  0999 V2000
    4.5998    0.2587    0.1919 N   0  0  0  0  0  0  0  0  0  0  0  0
    0.4022    0.3141    0.0151 C   0  0  0  0  0  0  0  0  0  0  0  0
   -1.0432    0.3399   -0.0446 C   0  0  0  0  0  0  0  0  0  0  0  0
    2.4843   -0.8909   -0.2065 C   0  0  0  0  0  0  0  0  0  0  0  0
    1.0908   -0.8664   -0.2636 C   0  0  0  0  0  0  0  0  0  0  0  0
    1.1066    1.4701    0.3508 C   0  0  0  0  0  0  0  0  0  0  0  0
    3.1890    0.2651    0.1293 C   0  0  0  0  0  0  0  0  0  0  0  0
   -1.7741   -0.8125    0.2444 C   0  0  0  0  0  0  0  0  0  0  0  0
   -3.1675   -0.7874    0.1870 C   0  0  0  0  0  0  0  0  0  0  0  0
   -1.7060    1.5175   -0.3911 C   0  0  0  0  0  0  0  0  0  0  0  0
    2.5001    1.4456    0.4079 C   0  0  0  0  0  0  0  0  0  0  0  0
    3.1978   -2.1684   -0.5101 C   0  0  0  0  0  0  0  0  0  0  0  0
   -3.8301    0.3901   -0.1595 C   0  0  0  0  0  0  0  0  0  0  0  0
   -3.0994    1.5426   -0.4485 C   0  0  0  0  0  0  0  0  0  0  0  0
   -3.9504   -2.0183    0.4976 C   0  0  0  0  0  0  0  0  0  0  0  0
  1  7  1  0
  2  3  1  0
  2  5  1  0
  2  6  2  0
  3  8  2  0
  3 10  1  0
  4  5  2  0
  4  7  1  0
  4 12  1  0
  6 11  1  0
  7 11  2  0
  8  9  1  0
  9 13  2  0
  9 15  1  0
 10 14  2  0
 13 14  1  0
M  END
>  <PUBCHEM_COMPOUND_CID>  (1) 
26151

>  <PUBCHEM_CONFORMER_RMSD>  (1) 
0.4

>  <PUBCHEM_CONFORMER_DIVERSEORDER>  (1) 
1
4
3
2

>  <PUBCHEM_MMFF94_PARTIAL_CHARGES>  (1) 
22
1 -0.9
10 -0.15
11 -0.15
12 0.14
13 -0.15
14 -0.15
15 0.14
16 0.15
17 0.15
18 0.15
19 0.15
20 0.15
24 0.15
25 0.15
29 0.4
30 0.4
4 -0.14
5 -0.15
6 -0.15
7 0.1
8 -0.15
9 -0.14

>  <PUBCHEM_EFFECTIVE_ROTOR_COUNT>  (1) 
1

>  <PUBCHEM_PHARMACOPHORE_FEATURES>  (1) 
4
1 1 cation
1 1 donor
6 2 4 5 6 7 11 rings
6 3 8 9 10 13 14 rings

>  <PUBCHEM_HEAVY_ATOM_COUNT>  (1) 
15

>  <PUBCHEM_ATOM_DEF_STEREO_COUNT>  (1) 
0

>  <PUBCHEM_ATOM_UDEF_STEREO_COUNT>  (1) 
0

>  <PUBCHEM_BOND_DEF_STEREO_COUNT>  (1) 
0

>  <PUBCHEM_BOND_UDEF_STEREO_COUNT>  (1) 
0

>  <PUBCHEM_ISOTOPIC_ATOM_COUNT>  (1) 
0

>  <PUBCHEM_COMPONENT_COUNT>  (1) 
1

>  <PUBCHEM_CACTVS_TAUTO_COUNT>  (1) 
1

>  <PUBCHEM_CONFORMER_ID>  (1) 
0000662700000001

>  <PUBCHEM_MMFF94_ENERGY>  (1) 
59.6846

>  <PUBCHEM_FEATURE_SELFOVERLAP>  (1) 
20.297

>  <PUBCHEM_SHAPE_FINGERPRINT>  (1) 
10608611 8 18410568483436008213
10922523 26 18410572872871057221
11471102 20 18343015562951507948
11615757 297 17561085834075347225
12032990 46 18411704283115360884
12500047 106 18261103024877372853
12932764 1 17561074847617679541
13296908 3 18411702058322502983
14144814 61 18341613693925858337
14252887 29 17561092401634178758
14325111 11 18410572881418916981
14866123 147 16830663440784051834
15196674 1 18410856538239026990
15219456 202 18412825767896108501
15309172 13 17418378012472529711
15375462 6 18338517550870893765
15442244 35 18126005962184007584
15536298 74 18342737377977826646
15653759 3 18335422365625135129
16945 1 18269828881850879364
17804303 29 18337961077954891231
17834074 16 18410856559729648791
18186145 218 18114180774571981615
19141452 34 18341901848542585011
200 152 17846770819919463941
20201158 50 18412544292813857338
20279233 1 18410573972277105271
20281475 54 18410583872292832071
20645477 56 18261108535494792205
20645477 70 18058725801834692510
21267235 1 18410582807088390003
21501502 16 18409735057932692221
221490 88 18410863161347778666
22943178 12 18410851045002060317
23402539 116 17822001030173784348
23402655 69 18271515391270887629
23557571 272 17967807250053823037
23559900 14 18266454318031587866
2748010 2 18411695474174477173
2871803 45 18261668259790559019
3312278 4 18412826863060197017
4214541 1 18409448059638497457
474 4 15865492755509842644
5104073 3 18412261714056919778
69090 78 18341324535843485887
7364860 26 18192715763508816700
77779 3 18410294700650389404
8809292 202 18335708195693610635
9709674 26 18408326609217943075

>  <PUBCHEM_SHAPE_MULTIPOLES>  (1) 
303.71
7.96
2.04
0.71
0.35
0.48
0.01
1.84
-0.23
-0.29
0.05
-0.04
0.01
1

>  <PUBCHEM_SHAPE_SELFOVERLAP>  (1) 
656.748

>  <PUBCHEM_SHAPE_VOLUME>  (1) 
168.1

>  <PUBCHEM_COORDINATE_TYPE>  (1) 
2
5
10

$$$$
