26167
     RDKit          3D

 24 25  0  0  0  0  0  0  0  0999 V2000
    2.4641    0.0547   -0.0119 N   0  0  0  0  0  0  0  0  0  0  0  0
    1.1879    0.1772    0.6949 C   0  0  0  0  0  0  0  0  0  0  0  0
    0.0375    0.3129   -0.3094 C   0  0  0  0  0  0  0  0  0  0  0  0
   -1.3422    0.4629    0.3837 C   0  0  0  0  0  0  0  0  0  0  0  0
    3.5682    0.4587    0.8603 C   0  0  0  0  0  0  0  0  0  0  0  0
    2.6583   -1.3097   -0.4878 C   0  0  0  0  0  0  0  0  0  0  0  0
    3.6396    1.9817    0.9554 C   0  0  0  0  0  0  0  0  0  0  0  0
    3.6467   -1.3299   -1.6526 C   0  0  0  0  0  0  0  0  0  0  0  0
   -2.3870    1.1373   -0.5005 C   0  0  0  0  0  0  0  0  0  0  0  0
   -1.8750   -0.8369    0.9733 C   0  0  0  0  0  0  0  0  0  0  0  0
    4.7741    2.4251    1.8798 C   0  0  0  0  0  0  0  0  0  0  0  0
    3.8815   -2.7554   -2.1536 C   0  0  0  0  0  0  0  0  0  0  0  0
   -3.4036    1.8979    0.0774 C   0  0  0  0  0  0  0  0  0  0  0  0
   -2.6705   -1.6802    0.1976 C   0  0  0  0  0  0  0  0  0  0  0  0
   -2.3255    0.9938   -1.8867 C   0  0  0  0  0  0  0  0  0  0  0  0
   -1.5668   -1.1842    2.2887 C   0  0  0  0  0  0  0  0  0  0  0  0
    4.8743    3.9405    1.9519 C   0  0  0  0  0  0  0  0  0  0  0  0
    4.8370   -2.7805   -3.3359 C   0  0  0  0  0  0  0  0  0  0  0  0
   -4.3586    2.5146   -0.7307 C   0  0  0  0  0  0  0  0  0  0  0  0
   -3.1582   -2.8704    0.7372 C   0  0  0  0  0  0  0  0  0  0  0  0
   -3.2805    1.6107   -2.6948 C   0  0  0  0  0  0  0  0  0  0  0  0
   -2.0543   -2.3745    2.8282 C   0  0  0  0  0  0  0  0  0  0  0  0
   -4.2971    2.3712   -2.1168 C   0  0  0  0  0  0  0  0  0  0  0  0
   -2.8501   -3.2175    2.0524 C   0  0  0  0  0  0  0  0  0  0  0  0
  1  2  1  0
  1  5  1  0
  1  6  1  0
  2  3  1  0
  3  4  1  0
  4  9  1  0
  4 10  1  0
  5  7  1  0
  6  8  1  0
  7 11  1  0
  8 12  1  0
  9 13  2  0
  9 15  1  0
 10 14  2  0
 10 16  1  0
 11 17  1  0
 12 18  1  0
 13 19  1  0
 14 20  1  0
 15 21  2  0
 16 22  2  0
 19 23  2  0
 20 24  2  0
 21 23  1  0
 22 24  1  0
M  END
>  <PUBCHEM_COMPOUND_CID>  (1) 
26167

>  <PUBCHEM_CONFORMER_RMSD>  (1) 
1

>  <PUBCHEM_CONFORMER_DIVERSEORDER>  (1) 
1
64
61
54
45
22
38
15
57
69
36
62
28
21
16
44
50
63
52
37
70
68
51
56
32
5
14
25
46
40
7
49
39
2
13
8
60
48
47
53
43
9
23
3
55
27
10
35
29
65
31
42
30
26
67
4
19
34
17
20
12
11
66
33
59
58
18
41
6
24

>  <PUBCHEM_MMFF94_PARTIAL_CHARGES>  (1) 
27
1 -0.81
10 -0.14
13 -0.15
14 -0.15
15 -0.15
16 -0.15
19 -0.15
2 0.27
20 -0.15
21 -0.15
22 -0.15
23 -0.15
24 -0.15
4 0.29
42 0.15
43 0.15
44 0.15
45 0.15
5 0.27
52 0.15
53 0.15
54 0.15
55 0.15
56 0.15
57 0.15
6 0.27
9 -0.14

>  <PUBCHEM_EFFECTIVE_ROTOR_COUNT>  (1) 
11

>  <PUBCHEM_PHARMACOPHORE_FEATURES>  (1) 
5
1 1 cation
1 17 hydrophobe
1 18 hydrophobe
6 10 14 16 20 22 24 rings
6 9 13 15 19 21 23 rings

>  <PUBCHEM_HEAVY_ATOM_COUNT>  (1) 
24

>  <PUBCHEM_ATOM_DEF_STEREO_COUNT>  (1) 
0

>  <PUBCHEM_ATOM_UDEF_STEREO_COUNT>  (1) 
0

>  <PUBCHEM_BOND_DEF_STEREO_COUNT>  (1) 
0

>  <PUBCHEM_BOND_UDEF_STEREO_COUNT>  (1) 
0

>  <PUBCHEM_ISOTOPIC_ATOM_COUNT>  (1) 
0

>  <PUBCHEM_COMPONENT_COUNT>  (1) 
1

>  <PUBCHEM_CACTVS_TAUTO_COUNT>  (1) 
1

>  <PUBCHEM_CONFORMER_ID>  (1) 
0000663700000001

>  <PUBCHEM_MMFF94_ENERGY>  (1) 
47.895

>  <PUBCHEM_FEATURE_SELFOVERLAP>  (1) 
25.372

>  <PUBCHEM_SHAPE_FINGERPRINT>  (1) 
10369192 42 17840602705843902048
107951 10 17170707413500507955
11049842 53 17096083581146028978
11578080 2 18341346564124436704
12160290 23 17749116590791651977
12342043 65 18123503624281123266
12549972 3 18339372880997193170
12553582 1 17315095465079979139
12633046 712 17985015655068888366
12788726 201 16878526625361239899
12895836 83 17169857503648407638
12930653 34 17897143905668873954
13257819 37 17532671048501466127
13540713 4 18411706499624609722
13911987 19 17700126896697195952
14178342 30 17603859044204131530
14251757 5 17678203532017560855
14468879 13 18270381884749785393
15297060 5 17246397682266158596
15842332 3 15719397260897544346
20642791 13 18189042269864567899
20693207 138 18338253603824861006
21033648 29 17896307039555141941
21304303 282 17316720479168168263
21344244 181 18272362033053140687
21756936 100 15431476904180824270
22182313 1 18411706516873011750
22620623 9 18115043947256478367
22943178 12 18411707594888684498
22956985 138 15659437897857534321
23557571 272 18261116304726399940
23559900 14 18335706001429396916
27425 322 18193532537940527677
3729539 64 17540264142105454599
4015057 19 18130224835739447080
469060 322 17768515445722516942
59554788 248 18051408767296455908
6049 1 18338817674875197930
613672 6 17755312501886848931
633830 44 18125142863121597237
7399639 24 18195813096548894426
7615 1 15791729745685074550
81228 2 17822858705531555969
9658208 31 18115029602255165617
9981440 41 18127384921611533632

>  <PUBCHEM_SHAPE_MULTIPOLES>  (1) 
488.93
10.95
4.58
3.29
9.67
0.08
-1.16
4.59
-2.92
1.79
0.91
1.31
-1.49
10.1

>  <PUBCHEM_SHAPE_SELFOVERLAP>  (1) 
989.82

>  <PUBCHEM_SHAPE_VOLUME>  (1) 
286.2

>  <PUBCHEM_COORDINATE_TYPE>  (1) 
2
5
10

$$$$
