26173
     RDKit          3D

 10 10  0  0  0  0  0  0  0  0999 V2000
   -1.5365    2.5486    0.0002 Cl  0  0  0  0  0  0  0  0  0  0  0  0
    3.3569    0.2995    0.0000 Cl  0  0  0  0  0  0  0  0  0  0  0  0
   -2.4882   -0.2926   -0.0002 O   0  0  0  0  0  0  0  0  0  0  0  0
   -0.8681   -2.5231    0.0002 O   0  0  0  0  0  0  0  0  0  0  0  0
   -1.1321   -0.1423    0.0000 C   0  0  0  0  0  0  0  0  0  0  0  0
   -0.3196   -1.2760    0.0000 C   0  0  0  0  0  0  0  0  0  0  0  0
   -0.5566    1.1284    0.0000 C   0  0  0  0  0  0  0  0  0  0  0  0
    1.0685   -1.1392   -0.0001 C   0  0  0  0  0  0  0  0  0  0  0  0
    0.8317    1.2653    0.0000 C   0  0  0  0  0  0  0  0  0  0  0  0
    1.6442    0.1314   -0.0001 C   0  0  0  0  0  0  0  0  0  0  0  0
  1  7  1  0
  2 10  1  0
  3  5  1  0
  4  6  1  0
  5  6  2  0
  5  7  1  0
  6  8  1  0
  7  9  2  0
  8 10  2  0
  9 10  1  0
M  END
>  <PUBCHEM_COMPOUND_CID>  (1) 
26173

>  <PUBCHEM_CONFORMER_RMSD>  (1) 
0.4

>  <PUBCHEM_CONFORMER_DIVERSEORDER>  (1) 
1

>  <PUBCHEM_MMFF94_PARTIAL_CHARGES>  (1) 
14
1 -0.18
10 0.18
11 0.15
12 0.15
13 0.45
14 0.45
2 -0.18
3 -0.53
4 -0.53
5 0.08
6 0.08
7 0.18
8 -0.15
9 -0.15

>  <PUBCHEM_EFFECTIVE_ROTOR_COUNT>  (1) 
0

>  <PUBCHEM_PHARMACOPHORE_FEATURES>  (1) 
3
1 3 donor
1 4 donor
6 5 6 7 8 9 10 rings

>  <PUBCHEM_HEAVY_ATOM_COUNT>  (1) 
10

>  <PUBCHEM_ATOM_DEF_STEREO_COUNT>  (1) 
0

>  <PUBCHEM_ATOM_UDEF_STEREO_COUNT>  (1) 
0

>  <PUBCHEM_BOND_DEF_STEREO_COUNT>  (1) 
0

>  <PUBCHEM_BOND_UDEF_STEREO_COUNT>  (1) 
0

>  <PUBCHEM_ISOTOPIC_ATOM_COUNT>  (1) 
0

>  <PUBCHEM_COMPONENT_COUNT>  (1) 
1

>  <PUBCHEM_CACTVS_TAUTO_COUNT>  (1) 
8

>  <PUBCHEM_CONFORMER_ID>  (1) 
0000663D00000001

>  <PUBCHEM_MMFF94_ENERGY>  (1) 
19.9022

>  <PUBCHEM_FEATURE_SELFOVERLAP>  (1) 
15.228

>  <PUBCHEM_SHAPE_FINGERPRINT>  (1) 
12423570 1 15970716687870035957
12716758 59 18341338795082050558
13380535 76 18048310055275684449
16945 1 18410856589941956964
18185500 45 18121500421088831918
193761 8 17978510828093243655
20871998 184 18200879607448626390
21040471 1 18338516322684307236
23402655 69 18195790905144167829
23552423 10 18119251653596079614
2748010 2 18194406589084931716
5084963 1 18131069307592433600

>  <PUBCHEM_SHAPE_MULTIPOLES>  (1) 
197.8
3.32
2.41
0.61
1.95
0.41
0
-1.26
0
-1.24
0
0.03
-0.04
0

>  <PUBCHEM_SHAPE_SELFOVERLAP>  (1) 
398.017

>  <PUBCHEM_SHAPE_VOLUME>  (1) 
118.5

>  <PUBCHEM_COORDINATE_TYPE>  (1) 
2
5
10

$$$$
