26178
     RDKit          3D

 21 20  0  0  0  0  0  0  0  0999 V2000
   -1.7469   -2.1628    0.4037 O   0  0  0  0  0  0  0  0  0  0  0  0
   -1.7821    1.9930   -0.0549 O   0  0  0  0  0  0  0  0  0  0  0  0
    3.6896    0.2326   -0.1854 O   0  0  0  0  0  0  0  0  0  0  0  0
   -0.9862   -0.8581   -1.3397 O   0  0  0  0  0  0  0  0  0  0  0  0
    0.0301    3.3355    0.4173 O   0  0  0  0  0  0  0  0  0  0  0  0
    2.1514   -1.3240    0.5445 O   0  0  0  0  0  0  0  0  0  0  0  0
   -0.5337   -0.2425    0.9775 C   0  0  0  0  0  0  0  0  0  0  0  0
    0.2349    0.9359    0.4427 C   0  0  0  0  0  0  0  0  0  0  0  0
    1.5445    0.9765    0.1367 C   0  0  0  0  0  0  0  0  0  0  0  0
   -1.0972   -1.0918   -0.1439 C   0  0  0  0  0  0  0  0  0  0  0  0
   -0.4851    2.2352    0.2786 C   0  0  0  0  0  0  0  0  0  0  0  0
    2.4568   -0.1923    0.2072 C   0  0  0  0  0  0  0  0  0  0  0  0
   -2.3368   -3.0698   -0.5332 C   0  0  0  0  0  0  0  0  0  0  0  0
   -2.5967    3.1526   -0.2564 C   0  0  0  0  0  0  0  0  0  0  0  0
    4.7122   -0.7692   -0.1942 C   0  0  0  0  0  0  0  0  0  0  0  0
   -3.0009   -4.1736    0.2208 C   0  0  0  0  0  0  0  0  0  0  0  0
   -3.9778    2.7127   -0.6127 C   0  0  0  0  0  0  0  0  0  0  0  0
    5.9913   -0.1453   -0.6443 C   0  0  0  0  0  0  0  0  0  0  0  0
   -4.3065   -4.4531    0.1409 C   0  0  0  0  0  0  0  0  0  0  0  0
   -5.0669    3.0191    0.1009 C   0  0  0  0  0  0  0  0  0  0  0  0
    7.1061   -0.1108    0.0940 C   0  0  0  0  0  0  0  0  0  0  0  0
  1 10  1  0
  1 13  1  0
  2 11  1  0
  2 14  1  0
  3 12  1  0
  3 15  1  0
  4 10  2  0
  5 11  2  0
  6 12  2  0
  7  8  1  0
  7 10  1  0
  8  9  2  0
  8 11  1  0
  9 12  1  0
 13 16  1  0
 14 17  1  0
 15 18  1  0
 16 19  2  0
 17 20  2  0
 18 21  2  0
M  END
>  <PUBCHEM_COMPOUND_CID>  (1) 
26178

>  <PUBCHEM_CONFORMER_RMSD>  (1) 
1

>  <PUBCHEM_CONFORMER_DIVERSEORDER>  (1) 
1
31
25
24
14
51
33
34
8
53
29
15
45
10
23
44
52
12
55
17
47
9
18
57
41
13
43
36
48
19
58
42
54
32
11
30
46
3
21
49
28
50
16
39
22
38
20
56
40
26
6
27
7
37
4
2
35
5

>  <PUBCHEM_MMFF94_PARTIAL_CHARGES>  (1) 
31
1 -0.43
10 0.66
11 0.71
12 0.71
13 0.42
14 0.42
15 0.42
16 -0.29
17 -0.29
18 -0.29
19 -0.3
2 -0.43
20 -0.3
21 -0.3
24 0.15
3 -0.43
31 0.15
32 0.15
33 0.15
34 0.15
35 0.15
36 0.15
37 0.15
38 0.15
39 0.15
4 -0.57
5 -0.57
6 -0.57
7 0.2
8 -0.12
9 -0.14

>  <PUBCHEM_EFFECTIVE_ROTOR_COUNT>  (1) 
13

>  <PUBCHEM_PHARMACOPHORE_FEATURES>  (1) 
6
1 19 hydrophobe
1 20 hydrophobe
1 21 hydrophobe
1 4 acceptor
1 5 acceptor
1 6 acceptor

>  <PUBCHEM_HEAVY_ATOM_COUNT>  (1) 
21

>  <PUBCHEM_ATOM_DEF_STEREO_COUNT>  (1) 
0

>  <PUBCHEM_ATOM_UDEF_STEREO_COUNT>  (1) 
0

>  <PUBCHEM_BOND_DEF_STEREO_COUNT>  (1) 
0

>  <PUBCHEM_BOND_UDEF_STEREO_COUNT>  (1) 
1

>  <PUBCHEM_ISOTOPIC_ATOM_COUNT>  (1) 
0

>  <PUBCHEM_COMPONENT_COUNT>  (1) 
1

>  <PUBCHEM_CACTVS_TAUTO_COUNT>  (1) 
1

>  <PUBCHEM_CONFORMER_ID>  (1) 
0000664200000001

>  <PUBCHEM_MMFF94_ENERGY>  (1) 
28.8236

>  <PUBCHEM_FEATURE_SELFOVERLAP>  (1) 
30.448

>  <PUBCHEM_SHAPE_FINGERPRINT>  (1) 
10411042 1 18122344837487740195
11578080 2 17559943501798126425
12107183 9 18198639907043877555
12645989 146 18053659455109790175
12788726 201 18333724741094575187
13052359 8 18410573951197901213
13540713 4 18130215073611548016
14866123 147 18410572877614872075
15927050 60 18266458707151268887
17539 30 18411977000817493335
1813 80 17983597456746813262
19427546 20 18336271219093798012
21426921 1 18410576197608364690
22849339 104 18268449965790083590
23557571 272 18272936016386550540
23559900 14 18271801286470383856
25147074 1 17895461537099278618
3421961 26 17908706481236426946
4409770 3 18408603652489536927
5486654 2 18268145362188110565
58779409 54 18411698781531383972
59025328 239 16981209058512232919
59755656 520 18264202517711299628
77188 2 18050288373315653429

>  <PUBCHEM_SHAPE_MULTIPOLES>  (1) 
396.95
11.9
5.66
0.81
21.39
3.67
0.06
1.22
1.47
-13.82
-0.04
-0.07
0.06
0.44

>  <PUBCHEM_SHAPE_SELFOVERLAP>  (1) 
776.945

>  <PUBCHEM_SHAPE_VOLUME>  (1) 
236

>  <PUBCHEM_COORDINATE_TYPE>  (1) 
2
5
10

$$$$
