2618
     RDKit          3D

 29 32  0  0  1  0  0  0  0  0999 V2000
    0.4414    1.2694   -1.4695 S   0  0  0  0  0  0  0  0  0  0  0  0
   -4.2460    0.3181   -1.0166 S   0  0  0  0  0  0  0  0  0  0  0  0
   -7.2706    0.5896   -1.2338 S   0  0  0  0  0  0  0  0  0  0  0  0
    1.0044   -3.2059   -0.3435 O   0  0  0  0  0  0  0  0  0  0  0  0
   -1.8875   -2.2125    1.8550 O   0  0  0  0  0  0  0  0  0  0  0  0
   -2.4196   -2.8147   -0.2861 O   0  0  0  0  0  0  0  0  0  0  0  0
    4.3585    0.8851   -0.8964 O   0  0  0  0  0  0  0  0  0  0  0  0
    0.1765   -1.0081   -0.1310 N   0  0  0  0  0  0  0  0  0  0  0  0
    3.4040   -1.0814   -0.1155 N   0  0  0  0  0  0  0  0  0  0  0  0
    6.7291    0.4402    0.4818 N   0  0  0  0  0  0  0  0  0  0  0  0
    7.6510    0.3456   -0.4714 N   0  0  0  0  0  0  0  0  0  0  0  0
   -5.9575    1.0565    0.9167 N   0  0  0  0  0  0  0  0  0  0  0  0
    8.0302    2.1135    0.8330 N   0  0  0  0  0  0  0  0  0  0  0  0
    8.4532    1.3802   -0.2526 N   0  0  0  0  0  0  0  0  0  0  0  0
   -7.2848    1.2918    1.2304 N   0  0  0  0  0  0  0  0  0  0  0  0
    1.1051    0.0998   -0.2621 C   0  0  0  0  0  0  0  0  0  0  0  0
    2.1174   -0.9374   -0.7958 C   0  0  0  0  0  0  0  0  0  0  0  0
    1.0626   -1.9988   -0.3714 C   0  0  0  0  0  0  0  0  0  0  0  0
   -1.1432   -0.8575    0.1510 C   0  0  0  0  0  0  0  0  0  0  0  0
   -1.7566    0.3452    0.0438 C   0  0  0  0  0  0  0  0  0  0  0  0
   -1.0639    1.5967   -0.4909 C   0  0  0  0  0  0  0  0  0  0  0  0
   -3.1957    0.6097    0.4163 C   0  0  0  0  0  0  0  0  0  0  0  0
   -1.8902   -2.0708    0.5149 C   0  0  0  0  0  0  0  0  0  0  0  0
    4.4294   -0.1421   -0.2269 C   0  0  0  0  0  0  0  0  0  0  0  0
    5.6498   -0.5380    0.5754 C   0  0  0  0  0  0  0  0  0  0  0  0
   -5.8326    0.6888   -0.3277 C   0  0  0  0  0  0  0  0  0  0  0  0
    6.9523    1.5057    1.2725 C   0  0  0  0  0  0  0  0  0  0  0  0
   -8.0743    1.0855    0.1982 C   0  0  0  0  0  0  0  0  0  0  0  0
   -9.5423    1.2457    0.2023 C   0  0  0  0  0  0  0  0  0  0  0  0
  1 16  1  0
  1 21  1  0
  2 22  1  0
  2 26  1  0
  3 26  1  0
  3 28  1  0
  4 18  2  0
  5 23  1  0
  6 23  2  0
  7 24  2  0
  8 16  1  0
  8 18  1  0
  8 19  1  0
  9 17  1  0
  9 24  1  0
 10 11  1  0
 10 25  1  0
 10 27  1  0
 11 14  2  0
 12 15  1  0
 12 26  2  0
 13 14  1  0
 13 27  2  0
 15 28  2  0
 16 17  1  0
 17 18  1  0
 19 20  2  0
 19 23  1  0
 20 21  1  0
 20 22  1  0
 24 25  1  0
 28 29  1  0
M  END
>  <PUBCHEM_COMPOUND_CID>  (1) 
2618

>  <PUBCHEM_CONFORMER_RMSD>  (1) 
1

>  <PUBCHEM_CONFORMER_DIVERSEORDER>  (1) 
1
184
177
171
21
246
300
92
203
86
319
252
183
320
90
305
39
310
132
91
207
280
60
266
244
37
45
67
7
178
322
219
235
223
237
163
289
321
236
112
123
170
62
209
242
245
292
117
294
88
220
272
167
311
165
2
273
317
23
312
169
190
243
202
139
225
287
109
24
214
263
291
127
89
143
192
259
283
133
150
18
199
228
6
299
309
8
303
121
93
274
94
298
5
234
70
172
308
296
57
282
129
164
276
158
288
22
98
249
157
247
160
32
189
81
27
286
138
142
50
61
198
239
34
20
154
58
176
125
213
126
295
222
248
68
224
3
140
269
293
78
188
227
77
100
179
137
85
281
261
106
187
253
306
14
240
226
229
264
193
146
74
260
275
241
97
251
124
149
155
314
206
51
115
297
141
168
174
278
204
230
208
44
315
250
101
262
80
267
16
205
120
63
217
87
195
128
17
265
55
151
211
46
104
76
254
49
66
130
75
102
144
152
301
196
30
302
26
218
166
43
284
28
96
71
35
82
175
191
304
13
79
48
64
256
181
279
255
162
145
110
180
221
147
258
277
111
29
313
290
173
215
238
72
95
212
36
38
69
105
84
9
271
15
135
156
119
285
197
161
153
59
316
83
19
136
201
194
107
113
53
99
318
56
134
103
131
12
232
307
233
54
41
186
122
118
33
257
25
42
114
216
268
40
10
182
65
108
148
31
200
185
4
116
231
52
73
47
159
11
270
210

>  <PUBCHEM_MMFF94_PARTIAL_CHARGES>  (1) 
31
1 -0.45
10 0.31
11 -0.42
12 -0.34
13 -0.34
15 -0.34
16 0.44
17 0.28
18 0.58
19 0.12
2 -0.29
20 -0.28
21 0.37
22 0.37
23 0.71
24 0.57
25 0.32
26 0.43
27 0.04
28 0.2
29 0.18
3 -0.08
34 0.37
39 0.5
4 -0.57
40 0.15
5 -0.65
6 -0.57
7 -0.57
8 -0.39
9 -0.65

>  <PUBCHEM_EFFECTIVE_ROTOR_COUNT>  (1) 
8.6

>  <PUBCHEM_PHARMACOPHORE_FEATURES>  (1) 
13
1 12 acceptor
1 15 acceptor
1 4 acceptor
1 5 acceptor
1 6 acceptor
1 7 acceptor
1 9 donor
3 10 13 27 cation
3 5 6 23 anion
4 8 16 17 18 rings
5 10 11 13 14 27 rings
5 3 12 15 26 28 rings
6 1 8 16 19 20 21 rings

>  <PUBCHEM_HEAVY_ATOM_COUNT>  (1) 
29

>  <PUBCHEM_ATOM_DEF_STEREO_COUNT>  (1) 
0

>  <PUBCHEM_ATOM_UDEF_STEREO_COUNT>  (1) 
2

>  <PUBCHEM_BOND_DEF_STEREO_COUNT>  (1) 
0

>  <PUBCHEM_BOND_UDEF_STEREO_COUNT>  (1) 
0

>  <PUBCHEM_ISOTOPIC_ATOM_COUNT>  (1) 
0

>  <PUBCHEM_COMPONENT_COUNT>  (1) 
1

>  <PUBCHEM_CACTVS_TAUTO_COUNT>  (1) 
2

>  <PUBCHEM_CONFORMER_ID>  (1) 
00000A3A00000001

>  <PUBCHEM_MMFF94_ENERGY>  (1) 
55.9873

>  <PUBCHEM_FEATURE_SELFOVERLAP>  (1) 
67.782

>  <PUBCHEM_SHAPE_FINGERPRINT>  (1) 
10 15 18040715861806906584
10076449 9 11527947859487222307
10165383 225 18342174467122151280
106641 1 17967535675108468145
10906281 52 18335999609319577015
12035758 1 17822301171479283421
12236239 1 17987801796797177773
12592606 108 8142077663785246913
12838862 33 18260818298826697061
12925494 130 18127966619482733240
13540713 5 17461455890095714799
14251764 18 18260264174571931518
14251764 46 17822010900156654845
14849402 71 18273213110397185417
15849732 13 17240484693435969519
16994733 274 17418092079462139089
17980427 23 18188490284773172262
18643901 69 10087645913616474899
19301679 30 15069169084265906728
2026 5 8069489018959727896
20554085 129 18201990024188459770
21033648 29 18200859791287025072
21150785 3 15841833347832650149
22224240 67 18410291406447351214
246663 6 9871748000946586533
24771293 8 18411984641881239861
335352 9 18335421287414433477
4340502 62 16153715289082777107
5758199 1 18343301457365040167
59682541 35 18261115175550849913
6669772 16 18187645748438251211

>  <PUBCHEM_SHAPE_MULTIPOLES>  (1) 
545.03
26.17
2.36
1.16
0.82
1.77
-0.08
-19.96
-4.99
0.91
-0.25
-0.46
-0.14
0.55

>  <PUBCHEM_SHAPE_SELFOVERLAP>  (1) 
1124.39

>  <PUBCHEM_SHAPE_VOLUME>  (1) 
315.1

>  <PUBCHEM_COORDINATE_TYPE>  (1) 
2
5
10

$$$$
