2619
     RDKit          3D

 42 45  0  0  1  0  0  0  0  0999 V2000
    2.1966   -0.9242   -1.6046 S   0  0  0  0  0  0  0  0  0  0  0  0
    6.8987   -0.0715   -1.1135 S   0  0  0  0  0  0  0  0  0  0  0  0
    0.2125    1.3678   -1.3039 O   0  0  0  0  0  0  0  0  0  0  0  0
    1.6898    2.7497    1.1997 O   0  0  0  0  0  0  0  0  0  0  0  0
   -1.7896   -0.7197   -0.7351 O   0  0  0  0  0  0  0  0  0  0  0  0
    4.2142    1.4837    2.6447 O   0  0  0  0  0  0  0  0  0  0  0  0
    5.5211    2.1588    0.8936 O   0  0  0  0  0  0  0  0  0  0  0  0
   -2.4141   -2.8679    1.4676 O   0  0  0  0  0  0  0  0  0  0  0  0
   -4.3363    1.7993    0.8711 O   0  0  0  0  0  0  0  0  0  0  0  0
   -6.0657   -1.9154   -0.1445 O   0  0  0  0  0  0  0  0  0  0  0  0
   -8.0536   -1.8591   -1.8487 O   0  0  0  0  0  0  0  0  0  0  0  0
    2.5422    0.6686    0.4913 N   0  0  0  0  0  0  0  0  0  0  0  0
   -0.5996    0.5032    0.8336 N   0  0  0  0  0  0  0  0  0  0  0  0
   -4.0269   -0.4801    0.8531 N   0  0  0  0  0  0  0  0  0  0  0  0
   -6.0077    0.4448   -0.0624 N   0  0  0  0  0  0  0  0  0  0  0  0
   -8.6356    0.2791   -1.1177 N   0  0  0  0  0  0  0  0  0  0  0  0
    9.6433   -0.2571   -1.4093 N   0  0  0  0  0  0  0  0  0  0  0  0
    8.8905   -1.4427    0.2430 N   0  0  0  0  0  0  0  0  0  0  0  0
   10.7240   -0.8419   -0.8740 N   0  0  0  0  0  0  0  0  0  0  0  0
   10.2574   -1.5654    0.1364 N   0  0  0  0  0  0  0  0  0  0  0  0
    0.5599    0.7972   -0.0265 C   0  0  0  0  0  0  0  0  0  0  0  0
    1.6127   -0.3324    0.0001 C   0  0  0  0  0  0  0  0  0  0  0  0
    1.6359    1.6464    0.7086 C   0  0  0  0  0  0  0  0  0  0  0  0
    3.8792    0.4634    0.6101 C   0  0  0  0  0  0  0  0  0  0  0  0
    4.4901   -0.5847    0.0079 C   0  0  0  0  0  0  0  0  0  0  0  0
    3.7685   -1.5549   -0.9249 C   0  0  0  0  0  0  0  0  0  0  0  0
   -1.6870   -0.2414    0.3928 C   0  0  0  0  0  0  0  0  0  0  0  0
   -2.7291   -0.4504    1.4871 C   0  0  0  0  0  0  0  0  0  0  0  0
    5.9530   -0.9264    0.1579 C   0  0  0  0  0  0  0  0  0  0  0  0
    4.6432    1.4658    1.3674 C   0  0  0  0  0  0  0  0  0  0  0  0
   -0.3201    2.6830   -1.2602 C   0  0  0  0  0  0  0  0  0  0  0  0
   -2.4396   -1.7153    2.3083 C   0  0  0  0  0  0  0  0  0  0  0  0
   -3.4854   -1.9520    3.3912 C   0  0  0  0  0  0  0  0  0  0  0  0
   -4.7553    0.6741    0.5839 C   0  0  0  0  0  0  0  0  0  0  0  0
   -6.7355    1.6337   -0.5012 C   0  0  0  0  0  0  0  0  0  0  0  0
   -8.2254    1.4293   -0.3370 C   0  0  0  0  0  0  0  0  0  0  0  0
   -6.5369   -0.8152   -0.4143 C   0  0  0  0  0  0  0  0  0  0  0  0
    8.5316   -0.6285   -0.7227 C   0  0  0  0  0  0  0  0  0  0  0  0
   -7.8236   -0.8400   -1.2072 C   0  0  0  0  0  0  0  0  0  0  0  0
   -9.9548    0.3067   -1.7267 C   0  0  0  0  0  0  0  0  0  0  0  0
  -11.0191   -0.1848   -0.7675 C   0  0  0  0  0  0  0  0  0  0  0  0
    9.7768    0.6166   -2.5475 C   0  0  0  0  0  0  0  0  0  0  0  0
  1 22  1  0
  1 26  1  0
  2 29  1  0
  2 38  1  0
  3 21  1  0
  3 31  1  0
  4 23  2  0
  5 27  2  0
  6 30  1  0
  7 30  2  0
  8 32  1  0
  9 34  2  0
 10 37  2  0
 11 39  2  0
 12 22  1  0
 12 23  1  0
 12 24  1  0
 13 21  1  0
 13 27  1  0
 14 28  1  0
 14 34  1  0
 15 34  1  0
 15 35  1  0
 15 37  1  0
 16 36  1  0
 16 39  1  0
 16 40  1  0
 17 19  1  0
 17 38  1  0
 17 42  1  0
 18 20  1  0
 18 38  2  0
 19 20  2  0
 21 22  1  0
 21 23  1  0
 24 25  2  0
 24 30  1  0
 25 26  1  0
 25 29  1  0
 27 28  1  0
 28 32  1  0
 32 33  1  0
 35 36  1  0
 37 39  1  0
 40 41  1  0
M  END
>  <PUBCHEM_COMPOUND_CID>  (1) 
2619

>  <PUBCHEM_CONFORMER_RMSD>  (1) 
1.4

>  <PUBCHEM_CONFORMER_DIVERSEORDER>  (1) 
1
23
116
5
111
105
99
65
4
15
89
104
135
120
125
107
59
31
119
18
112
63
118
140
130
80
53
40
77
79
83
2
62
68
78
95
88
98
67
109
96
139
132
138
7
14
22
108
110
117
128
47
103
66
70
106
133
74
60
39
44
27
29
35
131
122
69
72
115
9
129
73
52
100
121
97
64
32
75
124
87
24
34
114
38
6
76
71
20
136
113
54
58
51
85
17
91
134
21
90
101
12
16
45
57
93
33
36
42
56
127
123
81
126
50
30
49
84
41
94
55
37
82
102
43
92
46
28
11
137
48
3
8
25
10
86
19
61
26
13

>  <PUBCHEM_MMFF94_PARTIAL_CHARGES>  (1) 
43
1 -0.45
10 -0.57
11 -0.57
12 -0.39
13 -0.65
14 -0.73
15 -0.42
16 -0.66
17 0.31
18 -0.34
19 -0.42
2 -0.29
21 0.54
22 0.44
23 0.58
24 0.12
25 -0.28
26 0.37
27 0.57
28 0.36
29 0.37
3 -0.54
30 0.71
31 0.28
32 0.28
34 0.69
35 0.3
36 0.3
37 0.63
38 0.24
39 0.63
4 -0.57
40 0.3
42 0.26
44 0.37
5 -0.57
54 0.37
58 0.5
6 -0.65
63 0.4
7 -0.57
8 -0.68
9 -0.57

>  <PUBCHEM_EFFECTIVE_ROTOR_COUNT>  (1) 
14.4

>  <PUBCHEM_PHARMACOPHORE_FEATURES>  (1) 
18
1 10 acceptor
1 11 acceptor
1 13 donor
1 14 donor
1 3 acceptor
1 4 acceptor
1 5 acceptor
1 6 acceptor
1 7 acceptor
1 8 acceptor
1 8 donor
1 9 acceptor
3 17 18 38 cation
3 6 7 30 anion
4 12 21 22 23 rings
5 17 18 19 20 38 rings
6 1 12 22 24 25 26 rings
6 15 16 35 36 37 39 rings

>  <PUBCHEM_HEAVY_ATOM_COUNT>  (1) 
42

>  <PUBCHEM_ATOM_DEF_STEREO_COUNT>  (1) 
0

>  <PUBCHEM_ATOM_UDEF_STEREO_COUNT>  (1) 
4

>  <PUBCHEM_BOND_DEF_STEREO_COUNT>  (1) 
0

>  <PUBCHEM_BOND_UDEF_STEREO_COUNT>  (1) 
0

>  <PUBCHEM_ISOTOPIC_ATOM_COUNT>  (1) 
0

>  <PUBCHEM_COMPONENT_COUNT>  (1) 
1

>  <PUBCHEM_CACTVS_TAUTO_COUNT>  (1) 
4

>  <PUBCHEM_CONFORMER_ID>  (1) 
00000A3B00000001

>  <PUBCHEM_MMFF94_ENERGY>  (1) 
89.6497

>  <PUBCHEM_FEATURE_SELFOVERLAP>  (1) 
91.684

>  <PUBCHEM_SHAPE_FINGERPRINT>  (1) 
10076449 9 18341895169282819068
10533779 47 8502388702877645964
11135609 99 17346032380790230087
12758862 11 18114184155002095792
13150687 139 18411129256779987775
13811026 1 17775565342486165239
14040221 8 18041002808973340740
15131766 46 17556282197399157976
15183329 4 17603580825387643529
15247644 1 16702306724826671814
15461852 350 18272934925143019639
16992610 120 17385443220158447627
21895431 317 17203329970893808438
23569917 315 16343712044791730102
23576562 1 16516536654443268327
335352 9 18040152916333120749
3633792 109 17775288249003915587
4017518 198 18410294713678781463
4353968 344 17917427606263898549
45266715 3 18410011005550906387
4760202 170 17168151174147351940
58083652 198 18201166533408989632
6009941 240 17022912267185009002
6081469 158 18343581845704787340
6691757 9 18041009427543902083
9663363 56 18272647944994136010
9962374 69 17274815879357322700

>  <PUBCHEM_SHAPE_MULTIPOLES>  (1) 
774.39
36.7
2.27
2.11
7.5
0.91
-0.55
-3.62
23.06
-1.67
-0.89
0.82
0
0.75

>  <PUBCHEM_SHAPE_SELFOVERLAP>  (1) 
1602.581

>  <PUBCHEM_SHAPE_VOLUME>  (1) 
445.1

>  <PUBCHEM_COORDINATE_TYPE>  (1) 
2
5
10

$$$$
