26190
     RDKit          3D

 18 19  0  0  1  0  0  0  0  0999 V2000
    3.0468   -2.3357   -0.5966 O   0  0  0  0  0  0  0  0  0  0  0  0
   -0.3703   -0.9196   -0.2189 N   0  0  0  0  0  0  0  0  0  0  0  0
   -4.6505    0.1518   -1.0450 N   0  0  0  0  0  0  0  0  0  0  0  0
    0.7410   -1.8466    0.0287 C   0  0  0  0  0  0  0  0  0  0  0  0
    1.9722   -1.4137   -0.7987 C   0  0  0  0  0  0  0  0  0  0  0  0
    2.4989   -0.0423   -0.4333 C   0  0  0  0  0  0  0  0  0  0  0  0
    1.0191   -1.8591    1.5331 C   0  0  0  0  0  0  0  0  0  0  0  0
   -1.5571   -1.3430    0.5037 C   0  0  0  0  0  0  0  0  0  0  0  0
   -2.7194   -0.4158    0.2658 C   0  0  0  0  0  0  0  0  0  0  0  0
    2.0049    1.0688   -1.0940 C   0  0  0  0  0  0  0  0  0  0  0  0
    3.4628    0.0698    0.5531 C   0  0  0  0  0  0  0  0  0  0  0  0
    2.4905    2.3323   -0.7574 C   0  0  0  0  0  0  0  0  0  0  0  0
    3.9483    1.3333    0.8898 C   0  0  0  0  0  0  0  0  0  0  0  0
   -2.9239    0.6729    1.0905 C   0  0  0  0  0  0  0  0  0  0  0  0
    3.4621    2.4646    0.2346 C   0  0  0  0  0  0  0  0  0  0  0  0
   -3.5896   -0.6418   -0.7761 C   0  0  0  0  0  0  0  0  0  0  0  0
   -4.0049    1.5128    0.8458 C   0  0  0  0  0  0  0  0  0  0  0  0
   -4.8309    1.2113   -0.2249 C   0  0  0  0  0  0  0  0  0  0  0  0
  1  5  1  0
  2  4  1  0
  2  8  1  0
  3 16  2  0
  3 18  1  0
  4  5  1  0
  4  7  1  0
  5  6  1  0
  6 10  2  0
  6 11  1  0
  8  9  1  0
  9 14  2  0
  9 16  1  0
 10 12  1  0
 11 13  2  0
 12 15  2  0
 13 15  1  0
 14 17  1  0
 17 18  2  0
M  END
>  <PUBCHEM_COMPOUND_CID>  (1) 
26190

>  <PUBCHEM_CONFORMER_RMSD>  (1) 
0.6

>  <PUBCHEM_CONFORMER_DIVERSEORDER>  (1) 
38
26
31
79
29
101
119
76
1
84
90
72
22
8
57
46
30
128
107
48
52
27
56
20
103
96
23
69
2
73
51
33
53
108
54
127
28
71
78
19
92
91
120
97
49
47
87
74
7
55
104
126
18
70
75
6
80
50
111
9
98
5
77
105
21
83
86
110
42
11
10
12
106
121
16
85
14
36
34
95
63
113
61
25
43
62
15
67
35
114
37
58
24
124
13
82
100
4
44
81
59
68
17
117
32
64
41
118
45
39
89
125
116
40
60
123
99
3
94
115
66
102
93
88
65
122
109
112

>  <PUBCHEM_MMFF94_PARTIAL_CHARGES>  (1) 
28
1 -0.68
10 -0.15
11 -0.15
12 -0.15
13 -0.15
14 -0.15
15 -0.15
16 0.16
17 -0.15
18 0.16
2 -0.9
21 0.36
27 0.15
28 0.15
29 0.4
3 -0.62
30 0.15
31 0.15
32 0.15
33 0.15
34 0.15
35 0.15
36 0.15
4 0.27
5 0.42
6 -0.14
8 0.41
9 -0.14

>  <PUBCHEM_EFFECTIVE_ROTOR_COUNT>  (1) 
5

>  <PUBCHEM_PHARMACOPHORE_FEATURES>  (1) 
7
1 1 acceptor
1 1 donor
1 2 cation
1 2 donor
1 3 acceptor
6 3 9 14 16 17 18 rings
6 6 10 11 12 13 15 rings

>  <PUBCHEM_HEAVY_ATOM_COUNT>  (1) 
18

>  <PUBCHEM_ATOM_DEF_STEREO_COUNT>  (1) 
0

>  <PUBCHEM_ATOM_UDEF_STEREO_COUNT>  (1) 
2

>  <PUBCHEM_BOND_DEF_STEREO_COUNT>  (1) 
0

>  <PUBCHEM_BOND_UDEF_STEREO_COUNT>  (1) 
0

>  <PUBCHEM_ISOTOPIC_ATOM_COUNT>  (1) 
0

>  <PUBCHEM_COMPONENT_COUNT>  (1) 
1

>  <PUBCHEM_CACTVS_TAUTO_COUNT>  (1) 
1

>  <PUBCHEM_CONFORMER_ID>  (1) 
0000664E00000026

>  <PUBCHEM_MMFF94_ENERGY>  (1) 
46.4079

>  <PUBCHEM_FEATURE_SELFOVERLAP>  (1) 
35.52

>  <PUBCHEM_SHAPE_FINGERPRINT>  (1) 
10064457 181 15574996229900480088
10465860 228 18411706486850308678
10498660 4 18130790079131850585
11370993 70 18338514239430152345
12633257 1 17749658688605199280
13134695 92 18265341599300587062
13583140 156 17313100890989065251
14251764 30 11603080735998584936
14251764 38 18262520423919280153
14848178 96 18409169934588890052
15239191 94 9007064551908618857
18186145 218 18188217511315793435
19752476 56 18201444648776924664
20281475 54 9367358028072375618
20621476 13 18336543910341019205
20715895 44 18192419789281605829
21033648 29 17313383375567985461
21503847 285 18337957787857013482
21524375 3 18265048205551908514
21713013 43 11887415597944262720
21860390 5 18343026583964346588
21864079 5 18268998592227986977
22749437 52 18410016571601181249
231179 274 18113330907891931250
23559900 14 18272369720073986870
3472631 163 17988083284395708829
474 4 18334857242281053563
49207404 50 17969804023135642219
5895379 119 17344639127643153368
6328613 192 18261961868609258180
6786 2 12472350389800913158
84936 182 18273497892313311464
960060 61 11743843560085786609
9971528 1 18199187291813758350
9981440 41 18196085779885780290

>  <PUBCHEM_SHAPE_MULTIPOLES>  (1) 
354.6
9.62
2.6
1.19
8.11
0.13
-0.13
5.13
0.21
-2.29
-0.08
0.02
-0.06
-0.13

>  <PUBCHEM_SHAPE_SELFOVERLAP>  (1) 
745.432

>  <PUBCHEM_SHAPE_VOLUME>  (1) 
199.2

>  <PUBCHEM_COORDINATE_TYPE>  (1) 
2
5
10

$$$$
