26199
     RDKit          3D

 18 19  0  0  0  0  0  0  0  0999 V2000
    0.0910   -1.4632    2.2346 Cl  0  0  0  0  0  0  0  0  0  0  0  0
    1.5476   -2.9231    0.2708 Cl  0  0  0  0  0  0  0  0  0  0  0  0
   -1.6609   -2.8719   -0.2661 Cl  0  0  0  0  0  0  0  0  0  0  0  0
   -0.1608   -1.4605   -2.2326 Cl  0  0  0  0  0  0  0  0  0  0  0  0
    0.6314   -1.3229    0.4683 C   0  0  0  0  0  0  0  0  0  0  0  0
   -0.6650   -1.3407   -0.4716 C   0  0  0  0  0  0  0  0  0  0  0  0
    1.5472   -0.1608    0.2802 C   0  0  0  0  0  0  0  0  0  0  0  0
   -1.5706   -0.1110   -0.2765 C   0  0  0  0  0  0  0  0  0  0  0  0
    1.3609    1.0021    1.0278 C   0  0  0  0  0  0  0  0  0  0  0  0
   -1.3385    0.9959   -1.0522 C   0  0  0  0  0  0  0  0  0  0  0  0
    2.5902   -0.2369   -0.6429 C   0  0  0  0  0  0  0  0  0  0  0  0
   -2.5670   -0.1807    0.6634 C   0  0  0  0  0  0  0  0  0  0  0  0
    2.2175    2.0888    0.8521 C   0  0  0  0  0  0  0  0  0  0  0  0
   -2.1591    2.1100   -0.8758 C   0  0  0  0  0  0  0  0  0  0  0  0
    3.4468    0.8499   -0.8184 C   0  0  0  0  0  0  0  0  0  0  0  0
   -3.3875    0.9334    0.8398 C   0  0  0  0  0  0  0  0  0  0  0  0
    3.2604    2.0128   -0.0708 C   0  0  0  0  0  0  0  0  0  0  0  0
   -3.1835    2.0787    0.0701 C   0  0  0  0  0  0  0  0  0  0  0  0
  1  5  1  0
  2  5  1  0
  3  6  1  0
  4  6  1  0
  5  6  1  0
  5  7  1  0
  6  8  1  0
  7  9  2  0
  7 11  1  0
  8 10  2  0
  8 12  1  0
  9 13  1  0
 10 14  1  0
 11 15  2  0
 12 16  2  0
 13 17  2  0
 14 18  2  0
 15 17  1  0
 16 18  1  0
M  END
>  <PUBCHEM_COMPOUND_CID>  (1) 
26199

>  <PUBCHEM_CONFORMER_RMSD>  (1) 
0.6

>  <PUBCHEM_CONFORMER_DIVERSEORDER>  (1) 
1
3
2
4
6
5

>  <PUBCHEM_MMFF94_PARTIAL_CHARGES>  (1) 
28
1 -0.29
10 -0.15
11 -0.15
12 -0.15
13 -0.15
14 -0.15
15 -0.15
16 -0.15
17 -0.15
18 -0.15
19 0.15
2 -0.29
20 0.15
21 0.15
22 0.15
23 0.15
24 0.15
25 0.15
26 0.15
27 0.15
28 0.15
3 -0.29
4 -0.29
5 0.72
6 0.72
7 -0.14
8 -0.14
9 -0.15

>  <PUBCHEM_EFFECTIVE_ROTOR_COUNT>  (1) 
3

>  <PUBCHEM_PHARMACOPHORE_FEATURES>  (1) 
2
6 7 9 11 13 15 17 rings
6 8 10 12 14 16 18 rings

>  <PUBCHEM_HEAVY_ATOM_COUNT>  (1) 
18

>  <PUBCHEM_ATOM_DEF_STEREO_COUNT>  (1) 
0

>  <PUBCHEM_ATOM_UDEF_STEREO_COUNT>  (1) 
0

>  <PUBCHEM_BOND_DEF_STEREO_COUNT>  (1) 
0

>  <PUBCHEM_BOND_UDEF_STEREO_COUNT>  (1) 
0

>  <PUBCHEM_ISOTOPIC_ATOM_COUNT>  (1) 
0

>  <PUBCHEM_COMPONENT_COUNT>  (1) 
1

>  <PUBCHEM_CACTVS_TAUTO_COUNT>  (1) 
1

>  <PUBCHEM_CONFORMER_ID>  (1) 
0000665700000001

>  <PUBCHEM_MMFF94_ENERGY>  (1) 
66.8138

>  <PUBCHEM_FEATURE_SELFOVERLAP>  (1) 
10.149

>  <PUBCHEM_SHAPE_FINGERPRINT>  (1) 
10165383 225 18338251400221892277
10498660 4 18263353849501522885
10863032 1 18334584503246814931
10948715 1 18411146830714823173
12173636 292 18266458891786571652
12633257 1 17900825942519525809
12808571 1 18411702084081568800
128993 33 18408882931999935752
13134695 92 17765130796976693934
13544592 271 16395753342993939144
13764800 53 17751084819357557896
14142880 1 18124864909690800665
14223421 5 18260553286243198107
14386348 128 18410857659173029540
14648413 74 18047750391119749323
14787075 74 17462292644662687603
14817 1 11341383202700318931
14955137 171 18193831536199137530
15490181 7 18410566297160030279
15775835 57 18410579482715137604
16945 1 18410567383786873098
18186145 218 18202009828182304248
18981168 100 18266719381331384680
20510252 161 17980195606203172440
20671657 1 18340199683412732810
21041028 32 17762056540995955032
21501502 16 18410569591426826770
21524375 3 18410571786128260547
22094290 62 18340199687929226618
22802520 49 18128257985525759756
22889148 1 17058627772098737167
23175994 123 17617099105401638991
23402539 116 17692513929683403310
23419403 2 17261378708292789190
23557571 272 17182782607079312724
238 59 18050258428772498573
25 1 18410017598303891960
2637199 183 18201169753763977201
2748010 2 17691107658437412539
298252 57 18131351903698156646
350125 39 18410008840491334379
427121 178 17969807223128935849
430814 3 18409163298858694633
5939293 188 17761480400992713488
6442390 28 18264503929979289971
68419 9 17981002514557394642
7364860 26 18192429662804257682
81228 2 17831011695366867610

>  <PUBCHEM_SHAPE_MULTIPOLES>  (1) 
377.91
5.09
3.21
1.58
0.28
1.11
0
-3.77
0.01
-0.09
0
-0.03
0.56
0.04

>  <PUBCHEM_SHAPE_SELFOVERLAP>  (1) 
768.01

>  <PUBCHEM_SHAPE_VOLUME>  (1) 
216

>  <PUBCHEM_COORDINATE_TYPE>  (1) 
2
5
10

$$$$
