26201
     RDKit          3D

 15 16  0  0  0  0  0  0  0  0999 V2000
    2.4555   -3.1087    0.4189 Cl  0  0  0  0  0  0  0  0  0  0  0  0
    0.7733    0.8768   -0.3249 N   0  0  0  0  0  0  0  0  0  0  0  0
    2.6757   -0.5723   -0.1279 N   0  0  0  0  0  0  0  0  0  0  0  0
    0.4632   -1.4481    0.1816 N   0  0  0  0  0  0  0  0  0  0  0  0
    2.9950    1.7647   -0.6369 C   0  0  0  0  0  0  0  0  0  0  0  0
   -1.4037   -0.0043   -0.0159 C   0  0  0  0  0  0  0  0  0  0  0  0
    2.0904    0.6166   -0.3449 C   0  0  0  0  0  0  0  0  0  0  0  0
    0.0289   -0.2036   -0.0556 C   0  0  0  0  0  0  0  0  0  0  0  0
    3.4260    2.5020    0.6288 C   0  0  0  0  0  0  0  0  0  0  0  0
   -1.9256    1.2296    0.3729 C   0  0  0  0  0  0  0  0  0  0  0  0
   -2.2630   -1.0455   -0.3669 C   0  0  0  0  0  0  0  0  0  0  0  0
   -3.3065    1.4222    0.4109 C   0  0  0  0  0  0  0  0  0  0  0  0
   -3.6440   -0.8528   -0.3289 C   0  0  0  0  0  0  0  0  0  0  0  0
   -4.1657    0.3811    0.0600 C   0  0  0  0  0  0  0  0  0  0  0  0
    1.8005   -1.5578    0.1289 C   0  0  0  0  0  0  0  0  0  0  0  0
  1 15  1  0
  2  7  2  0
  2  8  1  0
  3  7  1  0
  3 15  2  0
  4  8  2  0
  4 15  1  0
  5  7  1  0
  5  9  1  0
  6  8  1  0
  6 10  2  0
  6 11  1  0
 10 12  1  0
 11 13  2  0
 12 14  2  0
 13 14  1  0
M  END
>  <PUBCHEM_COMPOUND_CID>  (1) 
26201

>  <PUBCHEM_CONFORMER_RMSD>  (1) 
0.6

>  <PUBCHEM_CONFORMER_DIVERSEORDER>  (1) 
1
4
2
3

>  <PUBCHEM_MMFF94_PARTIAL_CHARGES>  (1) 
18
1 -0.18
10 -0.15
11 -0.15
12 -0.15
13 -0.15
14 -0.15
15 0.8
2 -0.62
21 0.15
22 0.15
23 0.15
24 0.15
25 0.15
3 -0.62
4 -0.62
5 0.14
7 0.48
8 0.62

>  <PUBCHEM_EFFECTIVE_ROTOR_COUNT>  (1) 
2

>  <PUBCHEM_PHARMACOPHORE_FEATURES>  (1) 
6
1 9 hydrophobe
3 2 3 7 cation
3 2 4 8 cation
3 3 4 15 cation
6 2 3 4 7 8 15 rings
6 6 10 11 12 13 14 rings

>  <PUBCHEM_HEAVY_ATOM_COUNT>  (1) 
15

>  <PUBCHEM_ATOM_DEF_STEREO_COUNT>  (1) 
0

>  <PUBCHEM_ATOM_UDEF_STEREO_COUNT>  (1) 
0

>  <PUBCHEM_BOND_DEF_STEREO_COUNT>  (1) 
0

>  <PUBCHEM_BOND_UDEF_STEREO_COUNT>  (1) 
0

>  <PUBCHEM_ISOTOPIC_ATOM_COUNT>  (1) 
0

>  <PUBCHEM_COMPONENT_COUNT>  (1) 
1

>  <PUBCHEM_CACTVS_TAUTO_COUNT>  (1) 
4

>  <PUBCHEM_CONFORMER_ID>  (1) 
0000665900000001

>  <PUBCHEM_MMFF94_ENERGY>  (1) 
32.9558

>  <PUBCHEM_FEATURE_SELFOVERLAP>  (1) 
33.23

>  <PUBCHEM_SHAPE_FINGERPRINT>  (1) 
10465860 228 18410016511418735664
10608611 8 18336263457787590325
10980938 120 18408324393046154980
11715629 250 18409164428635904581
12251169 10 18339640019067341635
12346645 44 18339924921380410309
12553582 1 17902788557495233714
13380535 76 18261392325062859706
14144814 61 18410857625224247667
14325111 11 18411140242546370453
14897335 6 18410854399345222701
15442244 35 18194966227518334473
15536298 74 18342177765097826476
15669948 3 17917987313274022463
15775835 57 18342746246895538261
16945 1 18266176132419369438
17041 49 18123472674382024810
18186145 218 18408326579173861989
19050596 39 18411700984860065585
19422 9 18341333301798098147
201361 129 18411986857767385568
204376 136 18190743239906685508
20510252 161 17836374022387063840
20559304 39 18339643334977065154
20645477 70 18410008802284989391
20671657 1 18411140212513345334
20871998 22 17978790104374350566
21267235 1 18339653260783948047
212916 134 18055615455998197840
21499 59 18263080088175052628
21501502 16 18341332210781173615
21524375 3 18270401727915482796
21618674 54 18410007762944770215
221490 88 18335431152959983011
2255824 54 18335424521804712914
22854114 111 18410295817331473280
23366157 5 18113621157977619874
23402539 116 18127403673628729748
23463225 33 18339643317807966367
23559900 14 18269828735795851522
2748010 2 18118421758936059334
305870 269 18409445925277115248
3071541 12 18410297991075386086
3071541 37 18260837003293044622
3091708 16 9330894885775388994
474 4 18188495790604831308
5104073 3 18409172091342507233
57096353 35 18341891956689005725
603831 33 18129930308383647647
6333272 397 18193557993789502240
633830 44 18271530913256276324
6992083 37 17622174459612257178
7364860 26 18412544276114185430
74978 22 18338799992378834695
84936 182 18343582966802158168
9709674 26 18410016520225422259
9981440 41 18192988442618709536

>  <PUBCHEM_SHAPE_MULTIPOLES>  (1) 
295.62
7.1
2.74
0.73
3.63
0.93
0.01
-1.99
0.19
-3.49
0.49
-0.12
-0.1
-0.51

>  <PUBCHEM_SHAPE_SELFOVERLAP>  (1) 
623.27

>  <PUBCHEM_SHAPE_VOLUME>  (1) 
164.2

>  <PUBCHEM_COORDINATE_TYPE>  (1) 
2
5
10

$$$$
