26214
     RDKit          3D

 14 15  0  0  0  0  0  0  0  0999 V2000
    0.6240   -1.7902    0.1903 N   0  0  0  0  0  0  0  0  0  0  0  0
   -3.2453   -0.1697   -0.1195 N   0  0  0  0  0  0  0  0  0  0  0  0
   -0.9091   -0.2088    0.4650 C   0  0  0  0  0  0  0  0  0  0  0  0
    0.3477    0.4227    0.2489 C   0  0  0  0  0  0  0  0  0  0  0  0
    1.2924   -0.5918    0.0794 C   0  0  0  0  0  0  0  0  0  0  0  0
   -2.2035    0.4649    0.6921 C   0  0  0  0  0  0  0  0  0  0  0  0
   -0.7067   -1.5691    0.4233 C   0  0  0  0  0  0  0  0  0  0  0  0
    2.6471   -0.3308   -0.1554 C   0  0  0  0  0  0  0  0  0  0  0  0
    0.7736    1.7642    0.1810 C   0  0  0  0  0  0  0  0  0  0  0  0
    3.0461    1.0074   -0.2186 C   0  0  0  0  0  0  0  0  0  0  0  0
    2.1255    2.0403   -0.0534 C   0  0  0  0  0  0  0  0  0  0  0  0
    3.6599   -1.4113   -0.3362 C   0  0  0  0  0  0  0  0  0  0  0  0
   -2.9096   -0.0789   -1.5390 C   0  0  0  0  0  0  0  0  0  0  0  0
   -4.5422    0.4510    0.1421 C   0  0  0  0  0  0  0  0  0  0  0  0
  1  5  1  0
  1  7  1  0
  2  6  1  0
  2 13  1  0
  2 14  1  0
  3  4  1  0
  3  6  1  0
  3  7  2  0
  4  5  2  0
  4  9  1  0
  5  8  1  0
  8 10  2  0
  8 12  1  0
  9 11  2  0
 10 11  1  0
M  END
>  <PUBCHEM_COMPOUND_CID>  (1) 
26214

>  <PUBCHEM_CONFORMER_RMSD>  (1) 
0.6

>  <PUBCHEM_CONFORMER_DIVERSEORDER>  (1) 
2
3
4
1

>  <PUBCHEM_MMFF94_PARTIAL_CHARGES>  (1) 
18
1 0.03
10 -0.15
11 -0.15
12 0.14
13 0.27
14 0.27
17 0.15
18 0.27
19 0.15
2 -0.81
20 0.15
21 0.15
3 -0.18
5 -0.15
6 0.45
7 -0.3
8 -0.14
9 -0.15

>  <PUBCHEM_EFFECTIVE_ROTOR_COUNT>  (1) 
2

>  <PUBCHEM_PHARMACOPHORE_FEATURES>  (1) 
5
1 1 cation
1 1 donor
1 2 cation
5 1 3 4 5 7 rings
6 4 5 8 9 10 11 rings

>  <PUBCHEM_HEAVY_ATOM_COUNT>  (1) 
14

>  <PUBCHEM_ATOM_DEF_STEREO_COUNT>  (1) 
0

>  <PUBCHEM_ATOM_UDEF_STEREO_COUNT>  (1) 
0

>  <PUBCHEM_BOND_DEF_STEREO_COUNT>  (1) 
0

>  <PUBCHEM_BOND_UDEF_STEREO_COUNT>  (1) 
0

>  <PUBCHEM_ISOTOPIC_ATOM_COUNT>  (1) 
0

>  <PUBCHEM_COMPONENT_COUNT>  (1) 
1

>  <PUBCHEM_CACTVS_TAUTO_COUNT>  (1) 
1

>  <PUBCHEM_CONFORMER_ID>  (1) 
0000666600000002

>  <PUBCHEM_MMFF94_ENERGY>  (1) 
31.2583

>  <PUBCHEM_FEATURE_SELFOVERLAP>  (1) 
25.463

>  <PUBCHEM_SHAPE_FINGERPRINT>  (1) 
10130415 120 18334574620959590234
10608611 8 18263363753627405457
11206711 2 18190749630780891116
11401426 45 18343295951211730986
11471102 20 18409729551837249349
12654215 9 18260822674891917276
12730499 353 18040990701718527951
12932764 1 17458616826713787395
13380535 21 18118415157243933474
13380535 76 18267020733896743808
13571099 22 18413395340921124352
13690532 89 18338800013964577402
14251717 144 18412261726915446967
14325111 11 18337674217020626033
14897335 6 18268709579319758536
14911166 2 18409176489120174126
14993402 34 18341619200364147054
15219456 202 18261681479451612795
15775835 57 18411702127379557565
16945 1 18408325462682792482
18186145 218 18335414669049009071
19422 9 18060416950077154143
20606313 2 18410575089090116396
20645477 70 18412829070657692823
21119208 17 17917710180414133285
21501502 16 18192991745274576942
21639500 275 18339352071548542309
221490 88 18337398265309080755
23402539 116 18199181802803050734
23402655 69 18342738507575532533
23559900 14 18340498876290478852
25 1 18335137596329380647
2748010 2 18193568976226294650
3060560 45 18411413986413383959
528886 8 18410855498978111520
63268167 104 18412266163685411112
7364860 26 18272372005713493544
74978 22 18338520840910859410
77492 1 17775289365378862353

>  <PUBCHEM_SHAPE_MULTIPOLES>  (1) 
278.15
6.53
1.81
0.87
4.32
0.2
0.24
0.22
1.08
-1.49
-0.09
0.57
-0.03
0

>  <PUBCHEM_SHAPE_SELFOVERLAP>  (1) 
593.349

>  <PUBCHEM_SHAPE_VOLUME>  (1) 
159.5

>  <PUBCHEM_COORDINATE_TYPE>  (1) 
2
5
10

$$$$
