26225
     RDKit          3D

 40 41  0  0  0  0  0  0  0  0999 V2000
   -4.2780    1.8118   -2.4434 I   0  0  0  0  0  0  0  0  0  0  0  0
    0.9601   -0.0998   -2.1954 I   0  0  0  0  0  0  0  0  0  0  0  0
   -1.3004   -0.1170    2.5233 I   0  0  0  0  0  0  0  0  0  0  0  0
    5.8269    2.0552    0.7923 I   0  0  0  0  0  0  0  0  0  0  0  0
   -6.4685   -2.8747    0.8002 I   0  0  0  0  0  0  0  0  0  0  0  0
    5.2993   -3.9359   -0.2619 I   0  0  0  0  0  0  0  0  0  0  0  0
   -3.2958    3.5799   -0.0038 O   0  0  0  0  0  0  0  0  0  0  0  0
    2.7918    2.6154    1.4501 O   0  0  0  0  0  0  0  0  0  0  0  0
   -3.1046   -3.3007    2.2050 O   0  0  0  0  0  0  0  0  0  0  0  0
    6.3516   -1.3337    2.1092 O   0  0  0  0  0  0  0  0  0  0  0  0
   -7.2648    0.0237   -1.3292 O   0  0  0  0  0  0  0  0  0  0  0  0
    2.7681   -3.2505   -2.8051 O   0  0  0  0  0  0  0  0  0  0  0  0
   -4.2834   -1.9806    3.6314 O   0  0  0  0  0  0  0  0  0  0  0  0
    7.6194   -1.1167    0.2351 O   0  0  0  0  0  0  0  0  0  0  0  0
   -2.0633    1.5838   -0.1093 N   0  0  0  0  0  0  0  0  0  0  0  0
    3.0154    1.9500   -0.7871 N   0  0  0  0  0  0  0  0  0  0  0  0
   -6.0636   -1.4501   -2.6114 N   0  0  0  0  0  0  0  0  0  0  0  0
    1.6459   -3.4890   -0.8195 N   0  0  0  0  0  0  0  0  0  0  0  0
   -0.1407    4.0184    0.8846 C   0  0  0  0  0  0  0  0  0  0  0  0
    1.1685    4.7986    0.6919 C   0  0  0  0  0  0  0  0  0  0  0  0
   -0.9197    3.6715   -0.3820 C   0  0  0  0  0  0  0  0  0  0  0  0
    2.1670    4.1565   -0.2736 C   0  0  0  0  0  0  0  0  0  0  0  0
   -2.2434    2.9637   -0.1327 C   0  0  0  0  0  0  0  0  0  0  0  0
    2.6888    2.8216    0.2435 C   0  0  0  0  0  0  0  0  0  0  0  0
   -3.0472    0.5887    0.0942 C   0  0  0  0  0  0  0  0  0  0  0  0
    3.5256    0.6343   -0.6691 C   0  0  0  0  0  0  0  0  0  0  0  0
   -4.1215    0.4792   -0.7888 C   0  0  0  0  0  0  0  0  0  0  0  0
    2.8142   -0.4402   -1.2029 C   0  0  0  0  0  0  0  0  0  0  0  0
   -2.9434   -0.2833    1.1779 C   0  0  0  0  0  0  0  0  0  0  0  0
    4.7397    0.4128   -0.0191 C   0  0  0  0  0  0  0  0  0  0  0  0
   -5.0920   -0.5024   -0.5881 C   0  0  0  0  0  0  0  0  0  0  0  0
    3.3167   -1.7361   -1.0867 C   0  0  0  0  0  0  0  0  0  0  0  0
   -3.9139   -1.2649    1.3786 C   0  0  0  0  0  0  0  0  0  0  0  0
    5.2424   -0.8832    0.0970 C   0  0  0  0  0  0  0  0  0  0  0  0
   -4.9882   -1.3745    0.4955 C   0  0  0  0  0  0  0  0  0  0  0  0
    4.5309   -1.9576   -0.4368 C   0  0  0  0  0  0  0  0  0  0  0  0
   -6.2201   -0.6157   -1.5139 C   0  0  0  0  0  0  0  0  0  0  0  0
    2.5688   -2.8636   -1.6454 C   0  0  0  0  0  0  0  0  0  0  0  0
   -3.8050   -2.1798    2.5160 C   0  0  0  0  0  0  0  0  0  0  0  0
    6.5165   -1.1154    0.7794 C   0  0  0  0  0  0  0  0  0  0  0  0
  1 27  1  0
  2 28  1  0
  3 29  1  0
  4 30  1  0
  5 35  1  0
  6 36  1  0
  7 23  2  0
  8 24  2  0
  9 39  1  0
 10 40  1  0
 11 37  2  0
 12 38  2  0
 13 39  2  0
 14 40  2  0
 15 23  1  0
 15 25  1  0
 16 24  1  0
 16 26  1  0
 17 37  1  0
 18 38  1  0
 19 20  1  0
 19 21  1  0
 20 22  1  0
 21 23  1  0
 22 24  1  0
 25 27  2  0
 25 29  1  0
 26 28  2  0
 26 30  1  0
 27 31  1  0
 28 32  1  0
 29 33  2  0
 30 34  2  0
 31 35  2  0
 31 37  1  0
 32 36  2  0
 32 38  1  0
 33 35  1  0
 33 39  1  0
 34 36  1  0
 34 40  1  0
M  END
>  <PUBCHEM_COMPOUND_CID>  (1) 
26225

>  <PUBCHEM_CONFORMER_RMSD>  (1) 
1.2

>  <PUBCHEM_CONFORMER_DIVERSEORDER>  (1) 
1
58
83
120
45
96
82
101
62
32
57
25
119
49
3
86
90
68
122
106
64
108
52
72
99
54
9
39
40
121
2
73
85
66
110
123
91
79
21
80
117
4
130
47
92
124
74
6
50
36
27
111
41
95
67
132
116
69
100
51
42
61
5
10
65
19
87
44
71
84
23
129
34
11
81
78
8
60
98
38
33
20
131
29
89
43
7
24
53
88
105
56
113
17
93
97
37
13
112
125
18
48
46
15
104
31
118
114
127
14
55
12
28
59
102
128
126
115
16
94
76
26
107
35
133
109
77
30
63
70
75
22
103

>  <PUBCHEM_MMFF94_PARTIAL_CHARGES>  (1) 
46
1 -0.08
10 -0.65
11 -0.57
12 -0.57
13 -0.57
14 -0.57
15 -0.55
16 -0.55
17 -0.8
18 -0.8
2 -0.08
21 0.06
22 0.06
23 0.57
24 0.57
25 0.12
26 0.12
27 0.08
28 0.08
29 0.08
3 -0.08
30 0.08
31 0.09
32 0.09
33 0.09
34 0.09
35 0.08
36 0.08
37 0.54
38 0.54
39 0.63
4 -0.08
40 0.63
49 0.37
5 -0.08
50 0.37
51 0.37
52 0.37
53 0.37
54 0.37
55 0.5
56 0.5
6 -0.08
7 -0.57
8 -0.57
9 -0.65

>  <PUBCHEM_EFFECTIVE_ROTOR_COUNT>  (1) 
13

>  <PUBCHEM_PHARMACOPHORE_FEATURES>  (1) 
23
1 1 hydrophobe
1 10 acceptor
1 11 acceptor
1 12 acceptor
1 13 acceptor
1 14 acceptor
1 15 donor
1 16 donor
1 17 donor
1 18 donor
1 2 hydrophobe
1 3 hydrophobe
1 4 hydrophobe
1 5 hydrophobe
1 6 hydrophobe
1 7 acceptor
1 8 acceptor
1 9 acceptor
3 10 14 40 anion
3 9 13 39 anion
4 19 20 21 22 hydrophobe
6 25 27 29 31 33 35 rings
6 26 28 30 32 34 36 rings

>  <PUBCHEM_HEAVY_ATOM_COUNT>  (1) 
40

>  <PUBCHEM_ATOM_DEF_STEREO_COUNT>  (1) 
0

>  <PUBCHEM_ATOM_UDEF_STEREO_COUNT>  (1) 
0

>  <PUBCHEM_BOND_DEF_STEREO_COUNT>  (1) 
0

>  <PUBCHEM_BOND_UDEF_STEREO_COUNT>  (1) 
0

>  <PUBCHEM_ISOTOPIC_ATOM_COUNT>  (1) 
0

>  <PUBCHEM_COMPONENT_COUNT>  (1) 
1

>  <PUBCHEM_CACTVS_TAUTO_COUNT>  (1) 
10

>  <PUBCHEM_CONFORMER_ID>  (1) 
0000667100000001

>  <PUBCHEM_MMFF94_ENERGY>  (1) 
182.1842

>  <PUBCHEM_FEATURE_SELFOVERLAP>  (1) 
116.849

>  <PUBCHEM_SHAPE_FINGERPRINT>  (1) 
10169797 241 18270698497761332166
10838868 158 18194417597666769298
11146851 88 18410009957430803114
11204353 107 17904489846192352876
117089 54 18410860945260302330
11828532 37 17606411096898111723
12202916 173 18338223912610377034
12758862 65 18342444959867389632
1361 87 18041002885802314289
13636023 51 17749386035496765444
13782708 43 18113336427046446767
13811026 1 18411132537797060712
14040221 137 17555425673841091784
15274700 208 16915364736797197800
15351339 4 17970053457708929539
15510800 12 18262232325992366113
15781502 645 18335143137170015267
19301676 85 17906170647009006453
19315092 285 17274531131141077777
20764821 26 18193864572955533592
23559900 14 17895473747459452029
23572383 38 18261111889373230783
3044373 233 18264510484252364603
4015057 19 18411696613042475917
42626532 9 17551822230180673054
437795 96 18192712465084313475
4435113 14 18115311214987379625
469060 322 18060413616792103591
508706 21 18188503353947085994
5309563 4 18341341058060784768
613672 6 18339091410036082430

>  <PUBCHEM_SHAPE_MULTIPOLES>  (1) 
827.92
18.25
5.95
2.66
0.31
3.46
-0.42
-12.9
-0.06
-3.24
-0.59
3.1
-1.61
4.02

>  <PUBCHEM_SHAPE_SELFOVERLAP>  (1) 
1630.816

>  <PUBCHEM_SHAPE_VOLUME>  (1) 
507.9

>  <PUBCHEM_COORDINATE_TYPE>  (1) 
2
5
10

$$$$
