26221
     RDKit          3D

 18 18  0  0  0  0  0  0  0  0999 V2000
   -1.1987   -0.0571    1.1096 O   0  0  0  0  0  0  0  0  0  0  0  0
   -6.2018   -0.8524   -1.1905 N   0  0  0  0  0  0  0  0  0  0  0  0
   -2.1289    3.2342    0.0206 N   0  0  0  0  0  0  0  0  0  0  0  0
    3.6650    0.0686    0.3889 C   0  0  0  0  0  0  0  0  0  0  0  0
    4.9038   -0.5943   -0.2203 C   0  0  0  0  0  0  0  0  0  0  0  0
    2.3721   -0.7107    0.1375 C   0  0  0  0  0  0  0  0  0  0  0  0
    6.1850    0.2212   -0.0330 C   0  0  0  0  0  0  0  0  0  0  0  0
    1.1673    0.0059    0.7455 C   0  0  0  0  0  0  0  0  0  0  0  0
    7.3740   -0.4504   -0.7217 C   0  0  0  0  0  0  0  0  0  0  0  0
   -0.1187   -0.7814    0.5370 C   0  0  0  0  0  0  0  0  0  0  0  0
    8.6428    0.3737   -0.5721 C   0  0  0  0  0  0  0  0  0  0  0  0
   -2.4324   -0.2312    0.5378 C   0  0  0  0  0  0  0  0  0  0  0  0
   -3.1269    0.8435   -0.0082 C   0  0  0  0  0  0  0  0  0  0  0  0
   -2.9792   -1.5105    0.5146 C   0  0  0  0  0  0  0  0  0  0  0  0
   -4.3808    0.6371   -0.5832 C   0  0  0  0  0  0  0  0  0  0  0  0
   -4.2331   -1.7171   -0.0607 C   0  0  0  0  0  0  0  0  0  0  0  0
   -4.9339   -0.6432   -0.6095 C   0  0  0  0  0  0  0  0  0  0  0  0
   -2.5757    2.1640    0.0078 C   0  0  0  0  0  0  0  0  0  0  0  0
  1 10  1  0
  1 12  1  0
  2 17  1  0
  3 18  3  0
  4  5  1  0
  4  6  1  0
  5  7  1  0
  6  8  1  0
  7  9  1  0
  8 10  1  0
  9 11  1  0
 12 13  2  0
 12 14  1  0
 13 15  1  0
 13 18  1  0
 14 16  2  0
 15 17  2  0
 16 17  1  0
M  END
>  <PUBCHEM_COMPOUND_CID>  (1) 
26221

>  <PUBCHEM_CONFORMER_RMSD>  (1) 
0.8

>  <PUBCHEM_CONFORMER_DIVERSEORDER>  (1) 
1
396
197
20
354
466
404
453
124
372
18
429
194
60
307
87
49
417
281
129
304
427
419
374
217
387
89
147
407
243
212
120
249
379
408
146
155
344
3
377
182
220
288
218
465
115
442
98
207
409
418
45
314
316
209
165
289
357
383
438
90
336
376
378
449
446
14
411
186
279
320
142
403
455
22
303
283
185
73
267
341
97
452
21
106
415
364
40
160
250
133
116
302
144
110
143
309
99
42
130
308
426
208
305
460
202
422
346
325
358
16
91
236
33
46
50
398
61
287
256
117
12
227
2
57
406
286
28
375
362
178
273
189
340
275
82
332
205
114
385
180
37
355
25
461
339
5
327
201
30
240
464
230
322
284
29
93
251
361
44
211
177
338
58
168
215
47
152
384
451
347
174
88
179
447
213
59
335
365
35
74
253
192
214
443
300
319
127
349
216
151
24
166
401
386
421
367
457
395
463
163
164
282
8
428
83
393
170
206
467
52
15
31
135
454
161
149
183
390
424
242
388
66
75
280
72
265
380
17
109
10
391
105
458
228
345
306
172
104
4
425
439
330
196
348
176
245
101
80
276
310
239
138
297
414
331
137
63
400
23
298
190
254
193
32
235
19
113
360
263
67
184
270
86
389
402
430
210
450
175
27
219
223
371
41
204
123
156
313
43
154
434
277
351
241
84
145
148
435
70
445
456
173
77
271
291
122
188
7
6
264
38
203
444
292
301
350
416
78
399
405
48
187
226
448
337
13
53
255
103
232
199
412
225
134
167
9
290
437
69
231
39
229
141
244
153
397
85
198
269
359
181
413
238
262
95
257
392
312
54
140
334
121
64
368
112
247
62
353
381
158
431
171
81
382
315
329
274
294
252
420
260
200
157
125
96
233
295
68
94
191
139
352
11
261
118
278
224
321
246
26
100
459
36
169
55
248
159
71
237
293
150
79
299
76
108
363
272
222
285
373
132
195
356
258
266
323
342
221
131
433
111
296
440
34
234
259
136
394
51
65
432
268
119
128
126
366
318
92
311
343
328
423
436
107
324
56
370
462
441
369
317
333
410
162
326
102

>  <PUBCHEM_MMFF94_PARTIAL_CHARGES>  (1) 
16
1 -0.36
10 0.28
12 0.08
13 0.07
14 -0.15
15 -0.15
16 -0.15
17 0.1
18 0.48
2 -0.9
3 -0.56
36 0.15
37 0.15
38 0.15
39 0.4
40 0.4

>  <PUBCHEM_EFFECTIVE_ROTOR_COUNT>  (1) 
8

>  <PUBCHEM_PHARMACOPHORE_FEATURES>  (1) 
8
1 1 acceptor
1 11 hydrophobe
1 2 cation
1 2 donor
1 3 acceptor
3 4 6 8 hydrophobe
3 5 7 9 hydrophobe
6 12 13 14 15 16 17 rings

>  <PUBCHEM_HEAVY_ATOM_COUNT>  (1) 
18

>  <PUBCHEM_ATOM_DEF_STEREO_COUNT>  (1) 
0

>  <PUBCHEM_ATOM_UDEF_STEREO_COUNT>  (1) 
0

>  <PUBCHEM_BOND_DEF_STEREO_COUNT>  (1) 
0

>  <PUBCHEM_BOND_UDEF_STEREO_COUNT>  (1) 
0

>  <PUBCHEM_ISOTOPIC_ATOM_COUNT>  (1) 
0

>  <PUBCHEM_COMPONENT_COUNT>  (1) 
1

>  <PUBCHEM_CACTVS_TAUTO_COUNT>  (1) 
1

>  <PUBCHEM_CONFORMER_ID>  (1) 
0000666D00000001

>  <PUBCHEM_MMFF94_ENERGY>  (1) 
39.9851

>  <PUBCHEM_FEATURE_SELFOVERLAP>  (1) 
40.608

>  <PUBCHEM_SHAPE_FINGERPRINT>  (1) 
10299344 5 12031789172138563406
10595046 47 18335137549549204634
10670039 82 18334010567342375168
10730089 173 18407760326459135532
10968037 39 18335137600972695999
11089746 13 17023187150061639870
11315181 36 17894635872047886908
12091667 2 18260554428905069450
13288520 33 17275103942513230459
13668630 136 16917353632502397574
14123256 10 18334576849979174758
1420 363 15769777961993448822
14251718 22 18344148090399102586
14251764 18 8934998170504707968
14350574 20 17346876766959972490
14729087 3 15357691998755577110
14849402 71 11455587921755027074
15183329 4 18334296440692345962
15348495 7 7853276619892499414
15716309 27 12607404391104545330
17093844 174 12757436085435076972
19489759 90 18333734611239942674
20281389 69 16805319994912708308
20300324 65 18408884010363411089
21150785 3 18272652364141015078
21267235 1 18410012182840709715
21315763 28 18409168814757187150
2297311 6 18413107273259291769
23035841 295 10879993558521602902
23198884 109 18113339695991215386
23402539 116 18334290976591936655
23466295 7 16842736495512193615
23557571 272 18273216370123829569
23559900 14 18336821004408286033
300161 21 16588021316897132858
328310 630 17168443631312837164
335352 9 18410003339914361293
351380 3 13830130577354378662
4325135 7 17703791431207073486
58260988 114 14835827556822793741
7226269 152 11530474536659589535

>  <PUBCHEM_SHAPE_MULTIPOLES>  (1) 
354.6
20.2
1.87
0.9
44.84
1.63
-0.03
-1.99
-7.58
-3.13
0.03
-0.32
-0.11
-0.15

>  <PUBCHEM_SHAPE_SELFOVERLAP>  (1) 
703.604

>  <PUBCHEM_SHAPE_VOLUME>  (1) 
210.1

>  <PUBCHEM_COORDINATE_TYPE>  (1) 
2
5
10

$$$$
