26226
     RDKit          3D

 17 18  0  0  1  0  0  0  0  0999 V2000
   -0.8178   -3.0499    1.0141 O   0  0  0  0  0  0  0  0  0  0  0  0
   -2.6158    1.7333    1.8208 O   0  0  0  0  0  0  0  0  0  0  0  0
   -3.9623    2.0964   -0.5838 O   0  0  0  0  0  0  0  0  0  0  0  0
    1.6054   -0.7764   -0.6410 N   0  0  0  0  0  0  0  0  0  0  0  0
    2.9184   -0.2761   -0.2755 C   0  0  0  0  0  0  0  0  0  0  0  0
    3.4986    0.6730   -1.3172 C   0  0  0  0  0  0  0  0  0  0  0  0
    2.8909    0.5921    0.9767 C   0  0  0  0  0  0  0  0  0  0  0  0
    4.6056    1.4036   -0.5618 C   0  0  0  0  0  0  0  0  0  0  0  0
    4.2132    1.3523    0.9174 C   0  0  0  0  0  0  0  0  0  0  0  0
    1.0808   -1.6707    0.3839 C   0  0  0  0  0  0  0  0  0  0  0  0
   -0.3185   -2.1721    0.0060 C   0  0  0  0  0  0  0  0  0  0  0  0
   -1.2945   -1.0265   -0.1493 C   0  0  0  0  0  0  0  0  0  0  0  0
   -1.5043   -0.1687    0.9166 C   0  0  0  0  0  0  0  0  0  0  0  0
   -1.9570   -0.8611   -1.3533 C   0  0  0  0  0  0  0  0  0  0  0  0
   -2.4044    0.8872    0.7741 C   0  0  0  0  0  0  0  0  0  0  0  0
   -2.8573    0.1947   -1.4958 C   0  0  0  0  0  0  0  0  0  0  0  0
   -3.0810    1.0689   -0.4320 C   0  0  0  0  0  0  0  0  0  0  0  0
  1 11  1  0
  2 15  1  0
  3 17  1  0
  4  5  1  0
  4 10  1  0
  5  6  1  0
  5  7  1  0
  6  8  1  0
  7  9  1  0
  8  9  1  0
 10 11  1  0
 11 12  1  0
 12 13  2  0
 12 14  1  0
 13 15  1  0
 14 16  2  0
 15 17  2  0
 16 17  1  0
M  END
>  <PUBCHEM_COMPOUND_CID>  (1) 
26226

>  <PUBCHEM_CONFORMER_RMSD>  (1) 
0.6

>  <PUBCHEM_CONFORMER_DIVERSEORDER>  (1) 
2
16
72
73
50
67
26
65
10
21
29
44
63
75
19
11
74
9
3
71
66
51
64
23
4
55
31
24
30
78
13
81
77
20
57
82
34
18
5
25
1
59
28
70
12
22
37
39
27
15
6
79
41
62
46
49
58
36
69
47
42
17
33
76
80
52
40
14
61
45
43
48
56
8
35
54
38
68
60
7
32
53

>  <PUBCHEM_MMFF94_PARTIAL_CHARGES>  (1) 
20
1 -0.68
10 0.27
11 0.42
12 -0.14
13 -0.15
14 -0.15
15 0.08
16 -0.15
17 0.08
2 -0.53
27 0.36
3 -0.53
31 0.15
32 0.15
33 0.4
34 0.15
35 0.45
36 0.45
4 -0.9
5 0.27

>  <PUBCHEM_EFFECTIVE_ROTOR_COUNT>  (1) 
5

>  <PUBCHEM_PHARMACOPHORE_FEATURES>  (1) 
8
1 1 acceptor
1 1 donor
1 2 donor
1 3 donor
1 4 cation
1 4 donor
5 5 6 7 8 9 rings
6 12 13 14 15 16 17 rings

>  <PUBCHEM_HEAVY_ATOM_COUNT>  (1) 
17

>  <PUBCHEM_ATOM_DEF_STEREO_COUNT>  (1) 
0

>  <PUBCHEM_ATOM_UDEF_STEREO_COUNT>  (1) 
1

>  <PUBCHEM_BOND_DEF_STEREO_COUNT>  (1) 
0

>  <PUBCHEM_BOND_UDEF_STEREO_COUNT>  (1) 
0

>  <PUBCHEM_ISOTOPIC_ATOM_COUNT>  (1) 
0

>  <PUBCHEM_COMPONENT_COUNT>  (1) 
1

>  <PUBCHEM_CACTVS_TAUTO_COUNT>  (1) 
10

>  <PUBCHEM_CONFORMER_ID>  (1) 
0000667200000002

>  <PUBCHEM_MMFF94_ENERGY>  (1) 
30.447

>  <PUBCHEM_FEATURE_SELFOVERLAP>  (1) 
40.601

>  <PUBCHEM_SHAPE_FINGERPRINT>  (1) 
10498660 4 18272365369345800136
10968037 57 7925641019912339712
11127187 94 13470688118405085797
11370993 144 14057542558716463012
11543360 7 16343698859220959756
11640471 11 18262502754439583626
12173636 292 18412271639847925511
12403259 327 15357706262099451725
12633257 1 15140970534200633021
13583140 156 16153704375096143412
13764800 53 18337963397063469690
14123250 116 17775013349100116985
14123255 52 18408322159652559612
14123260 362 18408888468539405940
14142880 1 18187919616784332815
14787075 74 18341331176079450171
15239191 94 9727639427352384324
15342168 16 18260553294643378269
15534591 1 18201166485367562171
15775835 57 18412258402637218293
1741750 31 18409729590666249250
17780758 139 12830026921269924836
17834072 32 18335422404438687700
1798214 55 18408324367413533836
18186145 218 18339934727165222134
19765921 60 18339348683162269635
20291156 8 9295281755295394020
20361792 2 10231747894610165291
20510252 161 18119812662345985922
20671657 53 13039182589667144858
21475661 188 16954769832475218717
21524375 3 18340205189461092566
21713013 43 14620788331740908116
21731516 1 10159698005986159418
22079108 93 18340782493785554571
22182937 141 18339934817032422864
22749437 52 18339639065975193508
235170 7 15913329130389802948
23557571 272 18056484078162138966
23559900 14 18271816735657313812
27216 239 17968103069967840937
4028521 119 18202843262037879236
4072396 5 12902404370444603749
474 4 18264765471996753963
5262128 65 16486977331811985184
526903 126 18201147832324530849
59027123 10 17275392001706513076
81228 2 17971212549007887163
84936 182 18268983189926390312
85463 6 8574435283695506740
9981440 41 18199732795615389522

>  <PUBCHEM_SHAPE_MULTIPOLES>  (1) 
327.26
8.08
2.37
1.44
6.59
1.07
-0.01
-6.13
1.16
-1.28
-0.64
-0.41
-0.3
-0.12

>  <PUBCHEM_SHAPE_SELFOVERLAP>  (1) 
681.719

>  <PUBCHEM_SHAPE_VOLUME>  (1) 
187.6

>  <PUBCHEM_COORDINATE_TYPE>  (1) 
2
5
10

$$$$
