26232
     RDKit          3D

 16 17  0  0  0  0  0  0  0  0999 V2000
    2.3475   -3.0949    0.0947 Cl  0  0  0  0  0  0  0  0  0  0  0  0
    4.3811    1.4839   -1.3054 Cl  0  0  0  0  0  0  0  0  0  0  0  0
   -0.0167    1.3667    1.5881 S   0  0  0  0  0  0  0  0  0  0  0  0
    2.2145    1.2918    0.1260 N   0  0  0  0  0  0  0  0  0  0  0  0
    1.2766   -0.8203    0.7720 N   0  0  0  0  0  0  0  0  0  0  0  0
    3.2807   -0.7502   -0.5458 N   0  0  0  0  0  0  0  0  0  0  0  0
   -3.6822   -0.2275   -0.6310 C   0  0  0  0  0  0  0  0  0  0  0  0
   -1.4453    0.7451    0.7230 C   0  0  0  0  0  0  0  0  0  0  0  0
   -3.5498   -0.4418    0.7409 C   0  0  0  0  0  0  0  0  0  0  0  0
   -2.6963    0.4730   -1.3260 C   0  0  0  0  0  0  0  0  0  0  0  0
   -2.4314    0.0446    1.4179 C   0  0  0  0  0  0  0  0  0  0  0  0
   -1.5778    0.9593   -0.6490 C   0  0  0  0  0  0  0  0  0  0  0  0
   -4.8775   -0.7482   -1.3550 C   0  0  0  0  0  0  0  0  0  0  0  0
    1.3047    0.5189    0.7347 C   0  0  0  0  0  0  0  0  0  0  0  0
    2.2973   -1.3879    0.1095 C   0  0  0  0  0  0  0  0  0  0  0  0
    3.1745    0.5874   -0.4947 C   0  0  0  0  0  0  0  0  0  0  0  0
  1 15  1  0
  2 16  1  0
  3  8  1  0
  3 14  1  0
  4 14  2  0
  4 16  1  0
  5 14  1  0
  5 15  2  0
  6 15  1  0
  6 16  2  0
  7  9  2  0
  7 10  1  0
  7 13  1  0
  8 11  2  0
  8 12  1  0
  9 11  1  0
 10 12  2  0
M  END
>  <PUBCHEM_COMPOUND_CID>  (1) 
26232

>  <PUBCHEM_CONFORMER_RMSD>  (1) 
0.6

>  <PUBCHEM_CONFORMER_DIVERSEORDER>  (1) 
2
1
3
4

>  <PUBCHEM_MMFF94_PARTIAL_CHARGES>  (1) 
20
1 -0.18
10 -0.15
11 -0.15
12 -0.15
13 0.14
14 0.72
15 0.8
16 0.8
17 0.15
18 0.15
19 0.15
2 -0.18
20 0.15
3 -0.2
4 -0.62
5 -0.62
6 -0.62
7 -0.14
8 0.1
9 -0.15

>  <PUBCHEM_EFFECTIVE_ROTOR_COUNT>  (1) 
2

>  <PUBCHEM_PHARMACOPHORE_FEATURES>  (1) 
5
3 4 5 14 cation
3 4 6 16 cation
3 5 6 15 cation
6 4 5 6 14 15 16 rings
6 7 8 9 10 11 12 rings

>  <PUBCHEM_HEAVY_ATOM_COUNT>  (1) 
16

>  <PUBCHEM_ATOM_DEF_STEREO_COUNT>  (1) 
0

>  <PUBCHEM_ATOM_UDEF_STEREO_COUNT>  (1) 
0

>  <PUBCHEM_BOND_DEF_STEREO_COUNT>  (1) 
0

>  <PUBCHEM_BOND_UDEF_STEREO_COUNT>  (1) 
0

>  <PUBCHEM_ISOTOPIC_ATOM_COUNT>  (1) 
0

>  <PUBCHEM_COMPONENT_COUNT>  (1) 
1

>  <PUBCHEM_CACTVS_TAUTO_COUNT>  (1) 
1

>  <PUBCHEM_CONFORMER_ID>  (1) 
0000667800000002

>  <PUBCHEM_MMFF94_ENERGY>  (1) 
33.047

>  <PUBCHEM_FEATURE_SELFOVERLAP>  (1) 
28.155

>  <PUBCHEM_SHAPE_FINGERPRINT>  (1) 
10498660 4 16370437848337371237
11543360 7 18187361051950218477
11578080 2 17701797930711441200
11759241 127 17531533194961816342
12553582 1 17489586757864113801
12616999 72 18335975445522144638
14576447 43 18131067155866676254
15239191 94 17275103933638290359
15375358 24 17240198854661813653
15375462 189 18060424594623068963
15502722 9 18333736788820179126
15527383 91 10952053347076861534
15653759 3 13254797936385894393
16752209 62 16773509972132530245
17041 49 9079118847495988022
17804303 29 14476972198169725937
18186145 218 16733273343544245145
18522851 12 17775293733176089939
18915474 69 17988927773037732846
19422 9 17346888861582752665
19784866 135 14979135569797686772
200 152 18341611503529428153
20281475 54 18272083868999744795
20291156 8 17418089927678202801
20361792 2 17632566146075877465
20645477 70 18261108543446286747
21452121 199 18192981626732567770
21731516 1 17774999033894659977
2255824 54 17917423302078823384
22646028 28 17560795533289002735
23114952 82 18041842805290497510
23503958 8 15338572569289820863
235170 7 17894630361742282447
23557571 272 16950856902577641449
23559900 14 16660358182482772104
23598291 2 18057338201170246264
3060560 45 18335138752134779420
328317 168 16298381405029016149
3472631 163 15864066602812674887
351380 180 16443343230270540460
4028521 119 16370440060092619237
4175511 335 18410007732748039532
4409770 3 11179678483049308329
465052 167 17059774559159410567
474 4 11386362617470303937
5262128 65 17458637665626095556
57096353 35 18342751723110722444
58051976 378 18113335331929857164
603831 33 18202290177756088832
94968 8 17989199386706039653
960060 61 18340473531018117085

>  <PUBCHEM_SHAPE_MULTIPOLES>  (1) 
321.92
8.59
2.04
1.5
2.45
1.71
0.03
0.77
-4.24
-2.54
0.12
0.74
-0.42
-0.9

>  <PUBCHEM_SHAPE_SELFOVERLAP>  (1) 
652.331

>  <PUBCHEM_SHAPE_VOLUME>  (1) 
188.8

>  <PUBCHEM_COORDINATE_TYPE>  (1) 
2
5
10

$$$$
