26237
     RDKit          3D

 15 15  0  0  0  0  0  0  0  0999 V2000
    0.9258   -0.3091    0.8800 O   0  0  0  0  0  0  0  0  0  0  0  0
   -1.1194    2.8053   -0.8069 O   0  0  0  0  0  0  0  0  0  0  0  0
    0.3280    2.3826    0.8938 O   0  0  0  0  0  0  0  0  0  0  0  0
   -4.3713   -0.9565   -0.6915 N   0  0  0  0  0  0  0  0  0  0  0  0
    3.2101   -0.2180    0.1683 C   0  0  0  0  0  0  0  0  0  0  0  0
    4.3044   -0.8929   -0.6539 C   0  0  0  0  0  0  0  0  0  0  0  0
    1.9028   -0.9955    0.1099 C   0  0  0  0  0  0  0  0  0  0  0  0
   -0.3810   -0.4529    0.4916 C   0  0  0  0  0  0  0  0  0  0  0  0
    5.5955   -0.0908   -0.6279 C   0  0  0  0  0  0  0  0  0  0  0  0
   -1.1351    0.6552    0.1197 C   0  0  0  0  0  0  0  0  0  0  0  0
   -0.9394   -1.7268    0.4737 C   0  0  0  0  0  0  0  0  0  0  0  0
   -2.4626    0.4874   -0.2744 C   0  0  0  0  0  0  0  0  0  0  0  0
   -3.0284   -0.7875   -0.2946 C   0  0  0  0  0  0  0  0  0  0  0  0
   -2.2669   -1.8945    0.0795 C   0  0  0  0  0  0  0  0  0  0  0  0
   -0.5624    1.9942    0.1326 C   0  0  0  0  0  0  0  0  0  0  0  0
  1  7  1  0
  1  8  1  0
  2 15  1  0
  3 15  2  0
  4 13  1  0
  5  6  1  0
  5  7  1  0
  6  9  1  0
  8 10  2  0
  8 11  1  0
 10 12  1  0
 10 15  1  0
 11 14  2  0
 12 13  2  0
 13 14  1  0
M  END
>  <PUBCHEM_COMPOUND_CID>  (1) 
26237

>  <PUBCHEM_CONFORMER_RMSD>  (1) 
0.6

>  <PUBCHEM_CONFORMER_DIVERSEORDER>  (1) 
1
37
23
64
6
51
25
31
50
34
76
24
32
46
18
62
66
21
68
74
53
77
71
15
81
57
33
7
12
61
2
30
59
44
11
75
80
36
20
17
40
67
5
26
54
70
3
60
72
14
73
19
39
65
38
69
8
22
27
28
55
47
35
16
48
43
49
52
10
4
79
41
9
13
78
29
63
45
42
58
56

>  <PUBCHEM_MMFF94_PARTIAL_CHARGES>  (1) 
18
1 -0.36
10 0.09
11 -0.15
12 -0.15
13 0.1
14 -0.15
15 0.63
2 -0.65
25 0.15
26 0.15
27 0.15
28 0.4
29 0.4
3 -0.57
30 0.5
4 -0.9
7 0.28
8 0.08

>  <PUBCHEM_EFFECTIVE_ROTOR_COUNT>  (1) 
5

>  <PUBCHEM_PHARMACOPHORE_FEATURES>  (1) 
8
1 1 acceptor
1 2 acceptor
1 3 acceptor
1 4 cation
1 4 donor
1 9 hydrophobe
3 2 3 15 anion
6 8 10 11 12 13 14 rings

>  <PUBCHEM_HEAVY_ATOM_COUNT>  (1) 
15

>  <PUBCHEM_ATOM_DEF_STEREO_COUNT>  (1) 
0

>  <PUBCHEM_ATOM_UDEF_STEREO_COUNT>  (1) 
0

>  <PUBCHEM_BOND_DEF_STEREO_COUNT>  (1) 
0

>  <PUBCHEM_BOND_UDEF_STEREO_COUNT>  (1) 
0

>  <PUBCHEM_ISOTOPIC_ATOM_COUNT>  (1) 
0

>  <PUBCHEM_COMPONENT_COUNT>  (1) 
1

>  <PUBCHEM_CACTVS_TAUTO_COUNT>  (1) 
1

>  <PUBCHEM_CONFORMER_ID>  (1) 
0000667D00000001

>  <PUBCHEM_MMFF94_ENERGY>  (1) 
50.9126

>  <PUBCHEM_FEATURE_SELFOVERLAP>  (1) 
40.657

>  <PUBCHEM_SHAPE_FINGERPRINT>  (1) 
11680986 33 18050001387954041411
14790565 3 17908146477673457321
14911166 2 18336538396066708607
15048467 5 17022896827368137599
16945 1 18265030549315920739
17134986 127 17253991953086044788
187816 3 18187365441027402451
192875 21 17822018627166590468
20300324 65 18410860936844434516
20344682 1 17988925573988285566
20871999 31 18410849928453124797
21029758 11 18342171198150924633
21029758 27 18334019419164119915
21339142 51 18262521501866621507
21501502 16 18123469384627369874
21637258 2 16056584465875648519
22213442 358 18269555099234611194
22926399 37 17458631124707375598
2297311 6 18342470231296956318
23352939 185 18201444713428203240
23402539 116 18411696565296740998
23557571 272 18201446844085091292
23559900 14 18341045225831057178
2748010 2 18119793962295262187
68521 5 18408884014436793237
7364860 26 17982445198725537873
81228 2 18338526239521129584
84936 31 16987425615635377528

>  <PUBCHEM_SHAPE_MULTIPOLES>  (1) 
286.1
7.98
2.33
0.84
11.12
1.7
0.01
-3.02
-2.89
-1.46
0.02
0.07
0.09
0.16

>  <PUBCHEM_SHAPE_SELFOVERLAP>  (1) 
585.016

>  <PUBCHEM_SHAPE_VOLUME>  (1) 
166.2

>  <PUBCHEM_COORDINATE_TYPE>  (1) 
2
5
10

$$$$
