26230
     RDKit          3D

 11 11  0  0  0  0  0  0  0  0999 V2000
   -3.1450   -1.9088   -0.2478 Cl  0  0  0  0  0  0  0  0  0  0  0  0
   -1.3234    2.9571    0.0103 Cl  0  0  0  0  0  0  0  0  0  0  0  0
    2.0119   -1.0950    0.4384 S   0  0  0  0  0  0  0  0  0  0  0  0
    0.2218    0.8703    0.2045 N   0  0  0  0  0  0  0  0  0  0  0  0
   -0.6185   -1.3742    0.0852 N   0  0  0  0  0  0  0  0  0  0  0  0
   -2.1255    0.4830   -0.1090 N   0  0  0  0  0  0  0  0  0  0  0  0
    3.0126    0.2155   -0.3212 C   0  0  0  0  0  0  0  0  0  0  0  0
    4.4883   -0.1268   -0.2410 C   0  0  0  0  0  0  0  0  0  0  0  0
    0.3609   -0.4652    0.2185 C   0  0  0  0  0  0  0  0  0  0  0  0
   -1.8345   -0.8275   -0.0748 C   0  0  0  0  0  0  0  0  0  0  0  0
   -1.0486    1.2717    0.0367 C   0  0  0  0  0  0  0  0  0  0  0  0
  1 10  1  0
  2 11  1  0
  3  7  1  0
  3  9  1  0
  4  9  2  0
  4 11  1  0
  5  9  1  0
  5 10  2  0
  6 10  1  0
  6 11  2  0
  7  8  1  0
M  END
>  <PUBCHEM_COMPOUND_CID>  (1) 
26230

>  <PUBCHEM_CONFORMER_RMSD>  (1) 
0.4

>  <PUBCHEM_CONFORMER_DIVERSEORDER>  (1) 
1
5
9
7
3
8
4
6
2

>  <PUBCHEM_MMFF94_PARTIAL_CHARGES>  (1) 
10
1 -0.18
10 0.8
11 0.8
2 -0.18
3 -0.33
4 -0.62
5 -0.62
6 -0.62
7 0.23
9 0.72

>  <PUBCHEM_EFFECTIVE_ROTOR_COUNT>  (1) 
2

>  <PUBCHEM_PHARMACOPHORE_FEATURES>  (1) 
5
1 8 hydrophobe
3 4 5 9 cation
3 4 6 11 cation
3 5 6 10 cation
6 4 5 6 9 10 11 rings

>  <PUBCHEM_HEAVY_ATOM_COUNT>  (1) 
11

>  <PUBCHEM_ATOM_DEF_STEREO_COUNT>  (1) 
0

>  <PUBCHEM_ATOM_UDEF_STEREO_COUNT>  (1) 
0

>  <PUBCHEM_BOND_DEF_STEREO_COUNT>  (1) 
0

>  <PUBCHEM_BOND_UDEF_STEREO_COUNT>  (1) 
0

>  <PUBCHEM_ISOTOPIC_ATOM_COUNT>  (1) 
0

>  <PUBCHEM_COMPONENT_COUNT>  (1) 
1

>  <PUBCHEM_CACTVS_TAUTO_COUNT>  (1) 
1

>  <PUBCHEM_CONFORMER_ID>  (1) 
0000667600000001

>  <PUBCHEM_MMFF94_ENERGY>  (1) 
13.4594

>  <PUBCHEM_FEATURE_SELFOVERLAP>  (1) 
28.144

>  <PUBCHEM_SHAPE_FINGERPRINT>  (1) 
12032990 46 18266742561439108563
12932764 1 17489293179844000042
14325111 11 18337674114310643442
15775835 57 18117284657733403184
16945 1 18339913814705564369
20645477 70 17545584013674668783
20653085 51 17977676311694744906
20871998 184 18202002122762906327
21040471 1 17835511631519016257
21501502 16 18264485083952919202
21524375 3 17756990004115851561
23402539 116 18341044198563941742
23552423 10 18260829344933734956
23557571 272 18272098188209667766
23559900 14 17913484637645375498
2748010 2 18196351822949978665
3071541 250 18121224435243933949
7364860 26 17765150966259335913

>  <PUBCHEM_SHAPE_MULTIPOLES>  (1) 
219.02
5.78
2.46
0.66
6.4
1.78
0.01
-1.85
-0.86
-2.56
0.01
0.1
-0.04
-0.28

>  <PUBCHEM_SHAPE_SELFOVERLAP>  (1) 
409.367

>  <PUBCHEM_SHAPE_VOLUME>  (1) 
138.7

>  <PUBCHEM_COORDINATE_TYPE>  (1) 
2
5
10

$$$$
