26236
     RDKit          3D

 19 19  0  0  0  0  0  0  0  0999 V2000
    1.5935    0.6402   -0.8659 O   0  0  0  0  0  0  0  0  0  0  0  0
    3.6303    2.0453    0.4093 O   0  0  0  0  0  0  0  0  0  0  0  0
    6.2353   -1.9856    0.7460 N   0  0  0  0  0  0  0  0  0  0  0  0
   -4.6233    0.1054   -0.3304 C   0  0  0  0  0  0  0  0  0  0  0  0
   -3.3081    0.8870   -0.3109 C   0  0  0  0  0  0  0  0  0  0  0  0
   -5.8551    0.9777   -0.0695 C   0  0  0  0  0  0  0  0  0  0  0  0
   -2.1162   -0.0265   -0.6083 C   0  0  0  0  0  0  0  0  0  0  0  0
   -7.2047    0.2538   -0.0987 C   0  0  0  0  0  0  0  0  0  0  0  0
   -0.8023    0.7604   -0.6180 C   0  0  0  0  0  0  0  0  0  0  0  0
   -7.3411   -0.8237    0.9775 C   0  0  0  0  0  0  0  0  0  0  0  0
    0.4025   -0.1332   -0.8864 C   0  0  0  0  0  0  0  0  0  0  0  0
   -8.7282   -1.4479    0.9643 C   0  0  0  0  0  0  0  0  0  0  0  0
    2.7391    0.0025   -0.4652 C   0  0  0  0  0  0  0  0  0  0  0  0
    3.7578    0.7097    0.1734 C   0  0  0  0  0  0  0  0  0  0  0  0
    2.8813   -1.3650   -0.7011 C   0  0  0  0  0  0  0  0  0  0  0  0
    4.9188    0.0493    0.5760 C   0  0  0  0  0  0  0  0  0  0  0  0
    4.0424   -2.0252   -0.2988 C   0  0  0  0  0  0  0  0  0  0  0  0
    5.0611   -1.3180    0.3398 C   0  0  0  0  0  0  0  0  0  0  0  0
    4.7170    2.6939    1.0670 C   0  0  0  0  0  0  0  0  0  0  0  0
  1 11  1  0
  1 13  1  0
  2 14  1  0
  2 19  1  0
  3 18  1  0
  4  5  1  0
  4  6  1  0
  5  7  1  0
  6  8  1  0
  7  9  1  0
  8 10  1  0
  9 11  1  0
 10 12  1  0
 13 14  2  0
 13 15  1  0
 14 16  1  0
 15 17  2  0
 16 18  2  0
 17 18  1  0
M  END
>  <PUBCHEM_COMPOUND_CID>  (1) 
26236

>  <PUBCHEM_CONFORMER_RMSD>  (1) 
1

>  <PUBCHEM_CONFORMER_DIVERSEORDER>  (1) 
2
250
227
12
241
44
266
168
190
36
31
223
230
41
56
141
246
77
51
202
116
134
21
255
216
113
25
73
197
260
150
23
211
186
108
192
45
161
217
38
153
234
152
27
120
231
148
212
90
237
39
118
167
213
15
206
63
18
97
209
172
248
96
267
262
254
164
175
110
34
101
224
183
115
84
173
124
210
75
13
111
33
30
106
7
6
17
236
125
91
258
10
43
163
102
99
171
242
65
253
69
160
235
170
3
137
247
22
133
182
123
126
37
40
1
19
144
221
117
177
225
49
100
135
46
107
228
83
131
165
263
82
252
129
154
14
76
122
178
145
146
35
256
64
62
67
151
104
78
201
5
265
156
193
47
239
166
191
28
92
58
88
16
174
71
48
86
24
103
89
198
136
54
93
127
66
32
85
169
57
60
52
229
121
119
200
68
50
205
81
188
139
222
95
11
20
176
204
109
140
42
245
55
226
9
26
179
132
130
257
185
80
53
147
4
74
158
215
61
240
180
157
261
29
189
112
214
162
199
233
220
142
194
184
264
87
128
149
203
243
238
8
251
159
195
244
59
70
94
207
249
143
219
208
72
114
79
138
196
98
105
268
259
181
218
187
155
232

>  <PUBCHEM_MMFF94_PARTIAL_CHARGES>  (1) 
16
1 -0.36
11 0.28
13 0.08
14 0.08
15 -0.15
16 -0.15
17 -0.15
18 0.1
19 0.28
2 -0.36
3 -0.9
39 0.15
40 0.15
41 0.15
42 0.4
43 0.4

>  <PUBCHEM_EFFECTIVE_ROTOR_COUNT>  (1) 
10

>  <PUBCHEM_PHARMACOPHORE_FEATURES>  (1) 
6
1 1 acceptor
1 12 hydrophobe
1 2 acceptor
1 3 cation
1 3 donor
6 13 14 15 16 17 18 rings

>  <PUBCHEM_HEAVY_ATOM_COUNT>  (1) 
19

>  <PUBCHEM_ATOM_DEF_STEREO_COUNT>  (1) 
0

>  <PUBCHEM_ATOM_UDEF_STEREO_COUNT>  (1) 
0

>  <PUBCHEM_BOND_DEF_STEREO_COUNT>  (1) 
0

>  <PUBCHEM_BOND_UDEF_STEREO_COUNT>  (1) 
0

>  <PUBCHEM_ISOTOPIC_ATOM_COUNT>  (1) 
0

>  <PUBCHEM_COMPONENT_COUNT>  (1) 
1

>  <PUBCHEM_CACTVS_TAUTO_COUNT>  (1) 
1

>  <PUBCHEM_CONFORMER_ID>  (1) 
0000667C00000002

>  <PUBCHEM_MMFF94_ENERGY>  (1) 
53.5847

>  <PUBCHEM_FEATURE_SELFOVERLAP>  (1) 
30.45

>  <PUBCHEM_SHAPE_FINGERPRINT>  (1) 
10693767 8 12324512071297795312
125118 31 17846222125221591377
12596602 18 18413111650274351369
12616971 3 17917981776549663573
13167372 99 17988363672233932529
13533116 47 18411419483971230086
13668630 136 17095243627487484355
13885169 127 18186801350005195717
14251764 18 18412545418522686999
14848160 23 18260266339731398901
15348495 7 18411138069545970563
15419008 91 17822836668355879141
15475509 35 17459173111489889346
15716309 27 18341895208670338255
18222031 100 16008753506775309565
190975 80 18271807969370684015
20397935 70 18341618096330848454
21267235 1 18271526391240938038
21623969 137 18342181046938598711
23081809 10 13551185568483510877
29717793 49 11169905091846484637
3004659 81 15647059265408400135
33532 11 17822289041938284707
3663271 9 18273220803073190497
5104073 3 18058435651119040858

>  <PUBCHEM_SHAPE_MULTIPOLES>  (1) 
374.29
23.28
2.08
0.99
46.35
0.38
-0.08
-7.19
-9.02
-3.8
-0.61
0.14
0
1.66

>  <PUBCHEM_SHAPE_SELFOVERLAP>  (1) 
733.852

>  <PUBCHEM_SHAPE_VOLUME>  (1) 
226.2

>  <PUBCHEM_COORDINATE_TYPE>  (1) 
2
5
10

$$$$
