2623
     RDKit          3D

 32 35  0  0  1  0  0  0  0  0999 V2000
   -1.3122   -2.1419   -1.9406 S   0  0  0  0  0  0  0  0  0  0  0  0
    3.8808    3.4392   -0.0797 S   0  0  0  0  0  0  0  0  0  0  0  0
    0.0909   -1.9703    2.4883 O   0  0  0  0  0  0  0  0  0  0  0  0
   -2.3211    0.0760    2.7485 O   0  0  0  0  0  0  0  0  0  0  0  0
   -3.7854   -1.6729    2.5828 O   0  0  0  0  0  0  0  0  0  0  0  0
    2.6879   -1.5738   -2.1897 O   0  0  0  0  0  0  0  0  0  0  0  0
    6.4030   -0.2416   -0.6105 O   0  0  0  0  0  0  0  0  0  0  0  0
   -4.9147    1.0157   -0.2970 N   0  0  0  0  0  0  0  0  0  0  0  0
   -1.1215   -1.3145    0.5749 N   0  0  0  0  0  0  0  0  0  0  0  0
    2.0639   -1.2657    0.0521 N   0  0  0  0  0  0  0  0  0  0  0  0
    5.3152   -1.0627   -0.9384 N   0  0  0  0  0  0  0  0  0  0  0  0
    4.7713    1.2358    0.9373 N   0  0  0  0  0  0  0  0  0  0  0  0
    5.1226    3.1667    2.2559 N   0  0  0  0  0  0  0  0  0  0  0  0
   -6.3220    1.3985    0.2053 C   0  0  0  0  0  0  0  0  0  0  0  0
   -4.8408    1.5122   -1.7556 C   0  0  0  0  0  0  0  0  0  0  0  0
   -4.7194   -0.4917   -0.2413 C   0  0  0  0  0  0  0  0  0  0  0  0
   -7.0897    1.7680   -1.0485 C   0  0  0  0  0  0  0  0  0  0  0  0
   -6.0372    2.4302   -1.9101 C   0  0  0  0  0  0  0  0  0  0  0  0
   -3.8487    1.6907    0.5521 C   0  0  0  0  0  0  0  0  0  0  0  0
   -3.2656   -0.8894   -0.3310 C   0  0  0  0  0  0  0  0  0  0  0  0
   -0.4158   -1.1965   -0.6881 C   0  0  0  0  0  0  0  0  0  0  0  0
    0.7567   -1.9202    0.0096 C   0  0  0  0  0  0  0  0  0  0  0  0
   -2.4392   -1.0273    0.7332 C   0  0  0  0  0  0  0  0  0  0  0  0
   -2.8279   -1.1395   -1.7725 C   0  0  0  0  0  0  0  0  0  0  0  0
   -0.0743   -1.7438    1.3124 C   0  0  0  0  0  0  0  0  0  0  0  0
   -2.9414   -0.9371    2.1122 C   0  0  0  0  0  0  0  0  0  0  0  0
    2.8862   -1.1655   -1.0568 C   0  0  0  0  0  0  0  0  0  0  0  0
    4.1815   -0.4523   -0.7668 C   0  0  0  0  0  0  0  0  0  0  0  0
    4.1978    0.9316   -0.2818 C   0  0  0  0  0  0  0  0  0  0  0  0
    3.6627    1.9949   -0.9784 C   0  0  0  0  0  0  0  0  0  0  0  0
    4.6621    2.5289    1.1473 C   0  0  0  0  0  0  0  0  0  0  0  0
    7.5946   -0.9820   -0.8254 C   0  0  0  0  0  0  0  0  0  0  0  0
  1 21  1  0
  1 24  1  0
  2 30  1  0
  2 31  1  0
  3 25  2  0
  4 26  1  0
  5 26  2  0
  6 27  2  0
  7 11  1  0
  7 32  1  0
  8 14  1  0
  8 15  1  0
  8 16  1  0
  8 19  1  0
  9 21  1  0
  9 23  1  0
  9 25  1  0
 10 22  1  0
 10 27  1  0
 11 28  2  0
 12 29  1  0
 12 31  2  0
 13 31  1  0
 14 17  1  0
 15 18  1  0
 16 20  1  0
 17 18  1  0
 20 23  2  0
 20 24  1  0
 21 22  1  0
 22 25  1  0
 23 26  1  0
 27 28  1  0
 28 29  1  0
 29 30  2  0
M  CHG  1   8   1
M  END
>  <PUBCHEM_COMPOUND_CID>  (1) 
2623

>  <PUBCHEM_CONFORMER_RMSD>  (1) 
1

>  <PUBCHEM_CONFORMER_DIVERSEORDER>  (1) 
1
227
110
165
175
259
131
166
236
203
254
242
270
244
188
220
56
271
193
121
72
282
229
99
273
289
241
213
226
106
250
208
198
251
256
280
141
132
264
114
279
247
211
167
128
88
139
189
34
267
245
59
186
233
104
38
45
275
257
191
69
230
197
228
234
192
196
176
136
246
268
94
215
98
39
107
57
155
217
266
260
81
277
137
207
278
111
243
225
113
134
84
253
174
249
232
237
206
283
151
201
130
199
79
119
276
100
37
212
269
120
258
67
218
85
103
248
223
195
152
173
224
91
65
144
221
210
240
74
15
285
123
58
43
204
48
287
214
150
184
170
161
93
158
64
183
222
160
124
66
118
290
54
157
180
26
239
86
181
41
51
205
187
219
164
146
90
20
262
92
126
147
11
30
125
200
185
17
108
172
36
286
71
252
109
12
216
162
202
42
274
60
153
143
209
25
101
156
47
261
238
288
76
177
95
61
145
127
53
284
281
169
96
49
178
18
112
272
179
171
82
129
89
70
44
140
231
63
168
190
163
97
255
87
235
122
194
19
13
148
149
50
117
27
29
138
21
159
75
7
116
10
105
32
22
77
154
33
83
115
31
40
68
6
133
265
28
78
55
8
102
35
263
46
9
14
24
135
142
52
5
73
80
3
2
4
182
23
16
62

>  <PUBCHEM_MMFF94_PARTIAL_CHARGES>  (1) 
35
1 -0.45
10 -0.65
11 -0.51
12 -0.57
13 -0.88
14 0.5
15 0.5
16 0.64
19 0.5
2 -0.08
20 -0.28
21 0.44
22 0.28
23 0.12
24 0.37
25 0.58
26 0.71
27 0.63
28 0.54
29 0.14
3 -0.57
30 -0.11
31 0.46
32 0.28
4 -0.65
5 -0.57
50 0.37
51 0.5
52 0.15
56 0.4
57 0.4
6 -0.57
7 -0.22
8 -1.01
9 -0.39

>  <PUBCHEM_EFFECTIVE_ROTOR_COUNT>  (1) 
9.6

>  <PUBCHEM_PHARMACOPHORE_FEATURES>  (1) 
14
1 10 donor
1 11 acceptor
1 13 donor
1 3 acceptor
1 4 acceptor
1 5 acceptor
1 6 acceptor
1 8 cation
3 12 13 31 cation
3 4 5 26 anion
4 9 21 22 25 rings
5 2 12 29 30 31 rings
5 8 14 15 17 18 rings
6 1 9 20 21 23 24 rings

>  <PUBCHEM_HEAVY_ATOM_COUNT>  (1) 
32

>  <PUBCHEM_ATOM_DEF_STEREO_COUNT>  (1) 
0

>  <PUBCHEM_ATOM_UDEF_STEREO_COUNT>  (1) 
2

>  <PUBCHEM_BOND_DEF_STEREO_COUNT>  (1) 
0

>  <PUBCHEM_BOND_UDEF_STEREO_COUNT>  (1) 
1

>  <PUBCHEM_ISOTOPIC_ATOM_COUNT>  (1) 
0

>  <PUBCHEM_COMPONENT_COUNT>  (1) 
1

>  <PUBCHEM_CACTVS_TAUTO_COUNT>  (1) 
4

>  <PUBCHEM_CONFORMER_ID>  (1) 
00000A3F00000001

>  <PUBCHEM_MMFF94_ENERGY>  (1) 
95.6109

>  <PUBCHEM_FEATURE_SELFOVERLAP>  (1) 
71.363

>  <PUBCHEM_SHAPE_FINGERPRINT>  (1) 
10319926 262 17676205805610867546
10673678 19 18202280274099379973
10763959 59 18408326605618970476
12422481 6 14851872626516217179
12616971 3 17274281520737719858
12633257 1 16081374072294314207
13583140 156 18336840731204119546
14556957 393 16845574197595046521
14739800 52 18042392552894421433
14767858 380 16343981386506960095
15183329 4 17917990546914806775
15475509 35 7997097173138074853
15537594 2 12973606659819587162
16067690 210 17385993022721857093
18335252 114 18269830935114357310
19438510 23 18260828142928675649
20511986 3 17631720682327830854
20554085 129 17023177185980677781
20715895 44 18202560679312709454
21033648 144 18057328486391936198
21033648 29 18186799223225873902
21049683 271 16766744960502484647
21315763 76 17917996061969267254
21475661 188 18259704514331538940
22122407 14 18340215111035649401
22907989 373 16271935938710345991
23569914 2 17684881991932233437
249057 3 18131632266737449654
2838139 119 18340762646752528109
3459 39 16950274079979353341
3737641 26 11025784410897587394
44317340 157 18273215305050931615
508706 21 17894908555427412405
5385378 56 17095520630865579362
57724786 102 17968660557451122572
6086070 43 18409449159519644066
6371009 1 17561084675024988522
7237137 82 17274535563879656527

>  <PUBCHEM_SHAPE_MULTIPOLES>  (1) 
607.01
17.77
3.35
2.34
4.99
2.45
1.15
11.88
-4.63
1.97
0.18
-1.48
-0.54
3.68

>  <PUBCHEM_SHAPE_SELFOVERLAP>  (1) 
1263.099

>  <PUBCHEM_SHAPE_VOLUME>  (1) 
349.3

>  <PUBCHEM_COORDINATE_TYPE>  (1) 
2
5
10

$$$$
