26234
     RDKit          3D

 17 17  0  0  0  0  0  0  0  0999 V2000
   -0.9429   -3.2568    0.2929 Cl  0  0  0  0  0  0  0  0  0  0  0  0
    0.4468    1.8139    0.0115 S   0  0  0  0  0  0  0  0  0  0  0  0
    1.8893    1.0551   -2.4638 S   0  0  0  0  0  0  0  0  0  0  0  0
   -4.3056    0.3193   -0.0001 O   0  0  0  0  0  0  0  0  0  0  0  0
    2.6998    0.2771    0.0542 N   0  0  0  0  0  0  0  0  0  0  0  0
   -2.0857    0.9712    0.0085 N   0  0  0  0  0  0  0  0  0  0  0  0
   -0.3868   -0.7175    0.1492 N   0  0  0  0  0  0  0  0  0  0  0  0
   -2.7031   -1.3440    0.1371 N   0  0  0  0  0  0  0  0  0  0  0  0
    3.8571   -0.4439   -0.4803 C   0  0  0  0  0  0  0  0  0  0  0  0
    2.6120    0.2485    1.5168 C   0  0  0  0  0  0  0  0  0  0  0  0
    3.4884   -1.8879   -0.7616 C   0  0  0  0  0  0  0  0  0  0  0  0
    3.4120    1.3920    2.1105 C   0  0  0  0  0  0  0  0  0  0  0  0
    1.7917    0.9610   -0.7782 C   0  0  0  0  0  0  0  0  0  0  0  0
   -0.8158    0.5486    0.0620 C   0  0  0  0  0  0  0  0  0  0  0  0
   -2.9770   -0.0323    0.0506 C   0  0  0  0  0  0  0  0  0  0  0  0
   -1.3880   -1.6116    0.1821 C   0  0  0  0  0  0  0  0  0  0  0  0
   -4.5923    1.7074   -0.0915 C   0  0  0  0  0  0  0  0  0  0  0  0
  1 16  1  0
  2 13  1  0
  2 14  1  0
  3 13  2  0
  4 15  1  0
  4 17  1  0
  5  9  1  0
  5 10  1  0
  5 13  1  0
  6 14  2  0
  6 15  1  0
  7 14  1  0
  7 16  2  0
  8 15  2  0
  8 16  1  0
  9 11  1  0
 10 12  1  0
M  END
>  <PUBCHEM_COMPOUND_CID>  (1) 
26234

>  <PUBCHEM_CONFORMER_RMSD>  (1) 
0.8

>  <PUBCHEM_CONFORMER_DIVERSEORDER>  (1) 
1
63
110
81
101
78
102
60
34
114
25
54
70
119
42
17
75
51
118
77
27
86
112
56
37
121
107
93
6
120
100
50
57
53
104
16
31
59
30
66
68
46
126
71
22
91
123
82
83
48
2
26
116
41
99
58
94
127
106
95
36
96
15
97
117
73
11
76
79
43
89
28
35
23
49
47
5
20
62
40
122
98
105
64
3
44
7
67
88
74
24
45
108
12
19
32
125
65
52
69
103
124
38
85
13
80
129
113
18
111
90
33
8
14
39
87
109
92
55
61
128
72
9
84
115
10
29
4
21

>  <PUBCHEM_MMFF94_PARTIAL_CHARGES>  (1) 
15
1 -0.18
10 0.3
13 0.58
14 0.72
15 0.7
16 0.8
17 0.28
2 -0.24
3 -0.38
4 -0.36
5 -0.66
6 -0.62
7 -0.62
8 -0.62
9 0.3

>  <PUBCHEM_EFFECTIVE_ROTOR_COUNT>  (1) 
6

>  <PUBCHEM_PHARMACOPHORE_FEATURES>  (1) 
5
1 3 acceptor
3 6 7 14 cation
3 6 8 15 cation
3 7 8 16 cation
6 6 7 8 14 15 16 rings

>  <PUBCHEM_HEAVY_ATOM_COUNT>  (1) 
17

>  <PUBCHEM_ATOM_DEF_STEREO_COUNT>  (1) 
0

>  <PUBCHEM_ATOM_UDEF_STEREO_COUNT>  (1) 
0

>  <PUBCHEM_BOND_DEF_STEREO_COUNT>  (1) 
0

>  <PUBCHEM_BOND_UDEF_STEREO_COUNT>  (1) 
0

>  <PUBCHEM_ISOTOPIC_ATOM_COUNT>  (1) 
0

>  <PUBCHEM_COMPONENT_COUNT>  (1) 
1

>  <PUBCHEM_CACTVS_TAUTO_COUNT>  (1) 
1

>  <PUBCHEM_CONFORMER_ID>  (1) 
0000667A00000001

>  <PUBCHEM_MMFF94_ENERGY>  (1) 
39.685

>  <PUBCHEM_FEATURE_SELFOVERLAP>  (1) 
28.155

>  <PUBCHEM_SHAPE_FINGERPRINT>  (1) 
10366900 7 17775574143349103288
12500047 106 18341893030267441706
12553582 1 17400653012965353075
12592029 89 18114466665402930979
12633257 1 18196340750809010288
13544592 145 18272089366410313954
13675066 3 18411138043607446129
14115302 16 18335996315068981564
14178342 30 18192417778925402482
15375358 24 18201430428335185064
16752209 62 18262520286549106389
16945 1 18194971957300184335
18186145 218 18410849928532154949
18522853 266 18263651825552472758
20600515 1 18340475751110800176
20645476 183 17822867479691110847
20681677 155 18187369843911816650
20832881 197 17914900833441741050
21524375 3 18259703398457576247
2255824 54 16805609230441882484
22892500 29 17632289082346869960
232386 152 18264203793564557844
23557571 272 18198904910266190898
23559900 14 18342459253429210172
23598291 2 17531537605898458591
495365 180 17489294287765993778
633830 44 18058999606427105809
7364860 26 18265059218101581636
74978 22 18264495155360941517
88987 49 18266744768930615716
9709674 26 18198901590140653538

>  <PUBCHEM_SHAPE_MULTIPOLES>  (1) 
333.63
7.65
2.57
1.56
3.93
2.11
-0.19
-1.54
0.57
0.78
0
-2.35
-0.82
0.67

>  <PUBCHEM_SHAPE_SELFOVERLAP>  (1) 
632.57

>  <PUBCHEM_SHAPE_VOLUME>  (1) 
210.3

>  <PUBCHEM_COORDINATE_TYPE>  (1) 
2
5
10

$$$$
