26249
     RDKit          3D

 23 24  0  0  0  0  0  0  0  0999 V2000
   -5.4774   -1.6172   -1.1651 F   0  0  0  0  0  0  0  0  0  0  0  0
   -5.8913   -1.1516    0.9123 F   0  0  0  0  0  0  0  0  0  0  0  0
   -6.1411    0.3785   -0.6126 F   0  0  0  0  0  0  0  0  0  0  0  0
    3.4978    3.0194   -0.6166 O   0  0  0  0  0  0  0  0  0  0  0  0
    1.3505    3.0586   -0.1619 O   0  0  0  0  0  0  0  0  0  0  0  0
    4.9777   -2.9495    0.1428 O   0  0  0  0  0  0  0  0  0  0  0  0
    5.9787   -1.0766   -0.4136 O   0  0  0  0  0  0  0  0  0  0  0  0
    0.0728    1.0238    0.4818 N   0  0  0  0  0  0  0  0  0  0  0  0
    2.4355    2.4433   -0.2843 N   0  0  0  0  0  0  0  0  0  0  0  0
    4.9522   -1.7143   -0.0758 N   0  0  0  0  0  0  0  0  0  0  0  0
    1.3041    0.3555    0.3367 C   0  0  0  0  0  0  0  0  0  0  0  0
   -1.2645    0.6109    0.3079 C   0  0  0  0  0  0  0  0  0  0  0  0
    2.4621    1.0420   -0.0378 C   0  0  0  0  0  0  0  0  0  0  0  0
    1.3620   -1.0202    0.5739 C   0  0  0  0  0  0  0  0  0  0  0  0
   -3.9096   -0.2061   -0.0362 C   0  0  0  0  0  0  0  0  0  0  0  0
   -1.5728   -0.3805   -0.6238 C   0  0  0  0  0  0  0  0  0  0  0  0
   -2.2789    1.1938    1.0676 C   0  0  0  0  0  0  0  0  0  0  0  0
    3.6697    0.3573   -0.1745 C   0  0  0  0  0  0  0  0  0  0  0  0
    3.7233   -1.0163    0.0631 C   0  0  0  0  0  0  0  0  0  0  0  0
   -2.8954   -0.7889   -0.7958 C   0  0  0  0  0  0  0  0  0  0  0  0
   -3.6014    0.7852    0.8955 C   0  0  0  0  0  0  0  0  0  0  0  0
    2.5694   -1.7049    0.4373 C   0  0  0  0  0  0  0  0  0  0  0  0
   -5.3237   -0.6421   -0.2209 C   0  0  0  0  0  0  0  0  0  0  0  0
  1 23  1  0
  2 23  1  0
  3 23  1  0
  4  9  1  0
  5  9  2  0
  6 10  1  0
  7 10  2  0
  8 11  1  0
  8 12  1  0
  9 13  1  0
 10 19  1  0
 11 13  2  0
 11 14  1  0
 12 16  2  0
 12 17  1  0
 13 18  1  0
 14 22  2  0
 15 20  2  0
 15 21  1  0
 15 23  1  0
 16 20  1  0
 17 21  2  0
 18 19  2  0
 19 22  1  0
M  CHG  4   4  -1   6  -1   9   1  10   1
M  END
>  <PUBCHEM_COMPOUND_CID>  (1) 
26249

>  <PUBCHEM_CONFORMER_RMSD>  (1) 
0.8

>  <PUBCHEM_CONFORMER_DIVERSEORDER>  (1) 
2
4
3
1

>  <PUBCHEM_MMFF94_PARTIAL_CHARGES>  (1) 
31
1 -0.34
10 0.91
11 0.1
12 0.1
13 0.13
14 -0.15
15 -0.14
16 -0.15
17 -0.15
18 -0.15
19 0.13
2 -0.34
20 -0.15
21 -0.15
22 -0.15
23 1.16
24 0.4
25 0.15
26 0.15
27 0.15
28 0.15
29 0.15
3 -0.34
30 0.15
31 0.15
4 -0.52
5 -0.52
6 -0.52
7 -0.52
8 -0.6
9 0.91

>  <PUBCHEM_EFFECTIVE_ROTOR_COUNT>  (1) 
5

>  <PUBCHEM_PHARMACOPHORE_FEATURES>  (1) 
10
1 4 acceptor
1 4 anion
1 5 acceptor
1 6 acceptor
1 6 anion
1 7 acceptor
1 8 cation
1 8 donor
6 11 13 14 18 19 22 rings
6 12 15 16 17 20 21 rings

>  <PUBCHEM_HEAVY_ATOM_COUNT>  (1) 
23

>  <PUBCHEM_ATOM_DEF_STEREO_COUNT>  (1) 
0

>  <PUBCHEM_ATOM_UDEF_STEREO_COUNT>  (1) 
0

>  <PUBCHEM_BOND_DEF_STEREO_COUNT>  (1) 
0

>  <PUBCHEM_BOND_UDEF_STEREO_COUNT>  (1) 
0

>  <PUBCHEM_ISOTOPIC_ATOM_COUNT>  (1) 
0

>  <PUBCHEM_COMPONENT_COUNT>  (1) 
1

>  <PUBCHEM_CACTVS_TAUTO_COUNT>  (1) 
1

>  <PUBCHEM_CONFORMER_ID>  (1) 
0000668900000002

>  <PUBCHEM_MMFF94_ENERGY>  (1) 
83.0228

>  <PUBCHEM_FEATURE_SELFOVERLAP>  (1) 
50.909

>  <PUBCHEM_SHAPE_FINGERPRINT>  (1) 
10366900 7 17313387798724787273
12107183 9 18125729985071664201
12166972 35 18202002122958000936
12236239 1 18202566180807275305
12553582 1 18263917748901179354
12616971 3 18272654567285171047
12730499 353 18190470556511758536
12788726 201 17631748139800793993
12916754 54 18409729556438379617
13009979 54 18059866004277997448
13167823 11 18412543228305604579
13533116 47 18340487867444968361
13760787 5 18342457080317838901
13862211 1 18335421206612115714
13911852 28 18193837038089309198
13955234 65 18268709583630920872
14170010 4 18409728491555457192
14341114 176 18413673521473594979
14350574 20 18259988171151661691
14576447 43 18410292472158695722
14767858 380 18188789283891423758
14863182 85 16773805775093663622
15188451 53 15410596130819181807
17834072 33 18411701019430819903
17844677 252 18408327692266821085
17857418 61 18273211984904204535
1813 80 18269002998927463462
18222031 100 18410006599008581338
18681886 176 18272363187834476650
19784866 240 18343024358775478695
200 152 18413107251742289859
20028762 73 18272649022187902542
20388580 30 18411983546722133704
20554085 129 17913765287935988880
20612939 158 18335144215116934324
20645477 70 18261390082910615560
21267235 1 18341901774536130243
21709351 56 18409445847915028077
221357 26 18260263018999070653
221490 88 18262528107853143346
22393880 68 17822002121438596459
2255824 54 18409451405845191560
23402539 116 18267584611726832714
23559900 14 18409724084591658881
25147074 1 18200891615982312689
29717793 49 18273214184011706981
3004659 81 18411411809144234163
312423 11 18341624710812709609
314194 84 18336274444445828610
34797466 226 16588316041779087415
351380 3 18271803497334289598
4214541 1 18411981322024182361
42630746 31 18410571834111691016
46194498 28 17675925421677117796
465052 167 18341899592766766055
474 4 18117842320239568524
5104073 3 18131638893718694977
5281201 14 18187359939364207253
542803 24 12612752415261140739
559249 180 18270961220404296107
67856867 119 18272085045446646856
7970288 3 18265612083356254010
9971528 1 18411695483329037664
9981440 41 17547563138635629472

>  <PUBCHEM_SHAPE_MULTIPOLES>  (1) 
413.09
13.55
2.58
0.88
8.21
1.2
-0.04
-7.33
1.64
-3.83
0.25
0.71
-0.01
-1.03

>  <PUBCHEM_SHAPE_SELFOVERLAP>  (1) 
897.151

>  <PUBCHEM_SHAPE_VOLUME>  (1) 
225.3

>  <PUBCHEM_COORDINATE_TYPE>  (1) 
2
5
10

$$$$
