26246
     RDKit          3D

 17 17  0  0  0  0  0  0  0  0999 V2000
   -2.5437    2.6652    0.0300 Cl  0  0  0  0  0  0  0  0  0  0  0  0
   -1.3278    0.1374    1.1118 O   0  0  0  0  0  0  0  0  0  0  0  0
   -6.3455   -0.5394   -1.1929 N   0  0  0  0  0  0  0  0  0  0  0  0
    3.5374    0.1666    0.3907 C   0  0  0  0  0  0  0  0  0  0  0  0
    4.7621   -0.5177   -0.2234 C   0  0  0  0  0  0  0  0  0  0  0  0
    2.2285   -0.5837    0.1342 C   0  0  0  0  0  0  0  0  0  0  0  0
    6.0600    0.2696   -0.0307 C   0  0  0  0  0  0  0  0  0  0  0  0
    1.0390    0.1536    0.7475 C   0  0  0  0  0  0  0  0  0  0  0  0
    7.2347   -0.4219   -0.7245 C   0  0  0  0  0  0  0  0  0  0  0  0
   -0.2632   -0.6052    0.5339 C   0  0  0  0  0  0  0  0  0  0  0  0
    8.5204    0.3745   -0.5694 C   0  0  0  0  0  0  0  0  0  0  0  0
   -2.5649   -0.0069    0.5391 C   0  0  0  0  0  0  0  0  0  0  0  0
   -3.2367    1.0855    0.0006 C   0  0  0  0  0  0  0  0  0  0  0  0
   -3.1371   -1.2747    0.5077 C   0  0  0  0  0  0  0  0  0  0  0  0
   -4.4945    0.9085   -0.5758 C   0  0  0  0  0  0  0  0  0  0  0  0
   -4.3949   -1.4515   -0.0685 C   0  0  0  0  0  0  0  0  0  0  0  0
   -5.0737   -0.3599   -0.6103 C   0  0  0  0  0  0  0  0  0  0  0  0
  1 13  1  0
  2 10  1  0
  2 12  1  0
  3 17  1  0
  4  5  1  0
  4  6  1  0
  5  7  1  0
  6  8  1  0
  7  9  1  0
  8 10  1  0
  9 11  1  0
 12 13  2  0
 12 14  1  0
 13 15  1  0
 14 16  2  0
 15 17  2  0
 16 17  1  0
M  END
>  <PUBCHEM_COMPOUND_CID>  (1) 
26246

>  <PUBCHEM_CONFORMER_RMSD>  (1) 
0.8

>  <PUBCHEM_CONFORMER_DIVERSEORDER>  (1) 
1
295
417
316
229
436
146
325
286
378
260
388
430
110
421
20
10
414
241
204
397
226
174
429
213
357
33
162
4
238
156
419
170
267
95
245
251
2
327
222
425
182
394
175
101
28
127
42
307
282
407
206
236
158
11
362
18
263
361
392
71
152
332
266
15
200
415
17
342
180
52
134
54
308
5
438
315
115
312
93
431
324
150
107
24
65
197
248
166
338
401
84
299
36
13
264
171
25
365
100
64
32
296
396
422
287
385
384
48
432
43
79
141
173
443
409
118
157
60
389
68
335
395
57
412
89
138
148
53
309
356
37
339
445
372
383
210
318
249
373
196
227
70
271
371
400
131
108
147
159
301
377
186
179
192
337
145
242
143
140
72
416
424
256
39
172
214
149
44
120
358
272
69
16
265
168
369
111
257
232
391
439
413
303
355
46
67
276
370
128
21
360
59
27
302
190
387
423
189
375
6
341
209
440
220
187
252
31
344
261
97
23
135
322
202
311
113
164
30
281
444
201
109
35
88
270
235
14
80
427
426
306
294
124
26
56
114
381
3
74
319
121
350
129
78
297
435
34
442
73
122
351
279
402
208
406
62
8
374
224
376
343
405
340
231
298
137
75
250
49
217
176
133
117
333
283
177
292
273
221
345
195
408
218
418
19
441
38
144
50
348
219
269
98
382
193
364
255
346
167
225
428
259
331
29
161
386
437
328
212
178
116
91
314
51
300
87
203
317
399
410
304
398
105
199
390
216
254
194
234
185
278
160
323
40
86
207
198
12
215
90
243
165
313
434
61
366
184
96
132
9
136
326
321
112
181
47
22
223
349
420
139
7
310
284
274
94
347
353
151
211
411
285
354
277
359
41
290
45
329
102
77
275
393
262
240
63
403
237
205
99
330
66
125
123
336
76
83
404
163
154
352
368
169
188
280
191
258
289
92
305
230
246
380
268
293
104
183
253
233
130
363
334
55
85
228
433
153
239
126
103
119
247
58
106
320
155
142
244
367
82
288
81
291
379

>  <PUBCHEM_MMFF94_PARTIAL_CHARGES>  (1) 
15
1 -0.18
10 0.28
12 0.08
13 0.18
14 -0.15
15 -0.15
16 -0.15
17 0.1
2 -0.36
3 -0.9
35 0.15
36 0.15
37 0.15
38 0.4
39 0.4

>  <PUBCHEM_EFFECTIVE_ROTOR_COUNT>  (1) 
8

>  <PUBCHEM_PHARMACOPHORE_FEATURES>  (1) 
7
1 11 hydrophobe
1 2 acceptor
1 3 cation
1 3 donor
3 4 6 8 hydrophobe
3 5 7 9 hydrophobe
6 12 13 14 15 16 17 rings

>  <PUBCHEM_HEAVY_ATOM_COUNT>  (1) 
17

>  <PUBCHEM_ATOM_DEF_STEREO_COUNT>  (1) 
0

>  <PUBCHEM_ATOM_UDEF_STEREO_COUNT>  (1) 
0

>  <PUBCHEM_BOND_DEF_STEREO_COUNT>  (1) 
0

>  <PUBCHEM_BOND_UDEF_STEREO_COUNT>  (1) 
0

>  <PUBCHEM_ISOTOPIC_ATOM_COUNT>  (1) 
0

>  <PUBCHEM_COMPONENT_COUNT>  (1) 
1

>  <PUBCHEM_CACTVS_TAUTO_COUNT>  (1) 
1

>  <PUBCHEM_CONFORMER_ID>  (1) 
0000668600000001

>  <PUBCHEM_MMFF94_ENERGY>  (1) 
39.4173

>  <PUBCHEM_FEATURE_SELFOVERLAP>  (1) 
35.533

>  <PUBCHEM_SHAPE_FINGERPRINT>  (1) 
10066227 49 17916874500766196470
10299344 5 12175621785620644264
10968037 39 18335137601030594839
11089746 13 17095244739751943932
11315181 36 17967537886557572597
12091667 2 18187652409768107050
13288520 33 16702020885603608643
13631057 29 16009603506973990515
13668630 136 16845576413829241294
14123256 10 18407760339555027558
1420 363 15841552977179388814
14251718 22 18343866611048218914
14251764 18 8934995971465673664
14251764 46 16298104298556323731
14350574 20 17274819168489810283
14729087 3 15502088657460266422
14849402 71 11383529228136867074
15048467 5 15574431025152219206
15183329 4 18334013866072015322
15348495 7 10737583738766056046
15537594 2 13110963098290576924
15716309 27 12751237004575907794
17093844 174 12901551273368585952
18335252 98 17167869664784314379
19489759 90 18333734611102831600
20281389 69 16443061699780637988
20300324 65 18409165485472068505
21150785 3 18272369785278484142
21267235 1 18410293653564534171
2297311 6 18342737425364872417
23035841 295 11312056548165932036
23198884 109 18040436577342644690
23402539 116 18261108582105968382
23466295 7 16986571312491747927
23557571 272 18273216365807886689
23559900 14 18338509849984138745
246663 6 16056882454748268006
2767999 5 16732984232701056126
300161 21 16588022412029280386
328310 630 17168443631181059308
351380 3 14117798003457658582
4325135 7 17847062190004959158

>  <PUBCHEM_SHAPE_MULTIPOLES>  (1) 
340.87
20.76
1.53
0.92
41.34
0.95
-0.03
-0.93
-7.88
-2.41
0.02
-0.38
-0.05
-0.05

>  <PUBCHEM_SHAPE_SELFOVERLAP>  (1) 
662.527

>  <PUBCHEM_SHAPE_VOLUME>  (1) 
207.2

>  <PUBCHEM_COORDINATE_TYPE>  (1) 
2
5
10

$$$$
