26241
     RDKit          3D

 20 20  0  0  0  0  0  0  0  0999 V2000
    1.5926   -0.2053    1.1538 O   0  0  0  0  0  0  0  0  0  0  0  0
    3.4122    2.7661   -0.9962 O   0  0  0  0  0  0  0  0  0  0  0  0
    2.2744    2.4576    0.9471 O   0  0  0  0  0  0  0  0  0  0  0  0
    6.5094   -1.1140   -1.3032 N   0  0  0  0  0  0  0  0  0  0  0  0
   -4.5366   -0.5905   -0.0737 C   0  0  0  0  0  0  0  0  0  0  0  0
   -3.2963    0.0855    0.5144 C   0  0  0  0  0  0  0  0  0  0  0  0
   -5.8236    0.2154    0.1274 C   0  0  0  0  0  0  0  0  0  0  0  0
   -2.0373   -0.7464    0.2571 C   0  0  0  0  0  0  0  0  0  0  0  0
   -7.0967   -0.4012   -0.4603 C   0  0  0  0  0  0  0  0  0  0  0  0
   -0.7911   -0.0564    0.8197 C   0  0  0  0  0  0  0  0  0  0  0  0
   -8.3371    0.4737   -0.2779 C   0  0  0  0  0  0  0  0  0  0  0  0
    0.4724   -0.8790    0.5984 C   0  0  0  0  0  0  0  0  0  0  0  0
   -9.5526   -0.1395   -0.9565 C   0  0  0  0  0  0  0  0  0  0  0  0
    2.8040   -0.4135    0.5462 C   0  0  0  0  0  0  0  0  0  0  0  0
    3.5223    0.6498   -0.0007 C   0  0  0  0  0  0  0  0  0  0  0  0
    3.3161   -1.7092    0.4790 C   0  0  0  0  0  0  0  0  0  0  0  0
    4.7529    0.4173   -0.6148 C   0  0  0  0  0  0  0  0  0  0  0  0
    4.5467   -1.9416   -0.1352 C   0  0  0  0  0  0  0  0  0  0  0  0
    5.2651   -0.8783   -0.6822 C   0  0  0  0  0  0  0  0  0  0  0  0
    3.0032    2.0094    0.0577 C   0  0  0  0  0  0  0  0  0  0  0  0
  1 12  1  0
  1 14  1  0
  2 20  1  0
  3 20  2  0
  4 19  1  0
  5  6  1  0
  5  7  1  0
  6  8  1  0
  7  9  1  0
  8 10  1  0
  9 11  1  0
 10 12  1  0
 11 13  1  0
 14 15  2  0
 14 16  1  0
 15 17  1  0
 15 20  1  0
 16 18  2  0
 17 19  2  0
 18 19  1  0
M  END
>  <PUBCHEM_COMPOUND_CID>  (1) 
26241

>  <PUBCHEM_CONFORMER_RMSD>  (1) 
1

>  <PUBCHEM_CONFORMER_DIVERSEORDER>  (1) 
1
72
128
6
13
82
92
80
127
125
55
104
78
77
110
18
118
66
24
10
37
62
67
5
28
90
136
65
120
48
117
114
115
129
87
60
44
15
79
75
63
123
50
23
39
131
130
74
43
33
68
103
38
11
134
121
51
70
113
112
83
109
54
88
21
16
97
69
12
116
108
7
124
17
76
29
30
91
40
3
106
34
135
93
99
132
8
57
27
111
94
20
45
84
89
4
126
9
107
85
119
58
22
2
53
26
25
56
42
101
100
35
14
32
31
49
133
122
61
41
96
105
59
81
102
52
71
73
86
19
36
98
64
95
46
47

>  <PUBCHEM_MMFF94_PARTIAL_CHARGES>  (1) 
18
1 -0.36
12 0.28
14 0.08
15 0.09
16 -0.15
17 -0.15
18 -0.15
19 0.1
2 -0.65
20 0.63
3 -0.57
4 -0.9
40 0.15
41 0.15
42 0.15
43 0.4
44 0.4
45 0.5

>  <PUBCHEM_EFFECTIVE_ROTOR_COUNT>  (1) 
10

>  <PUBCHEM_PHARMACOPHORE_FEATURES>  (1) 
8
1 1 acceptor
1 13 hydrophobe
1 2 acceptor
1 3 acceptor
1 4 cation
1 4 donor
3 2 3 20 anion
6 14 15 16 17 18 19 rings

>  <PUBCHEM_HEAVY_ATOM_COUNT>  (1) 
20

>  <PUBCHEM_ATOM_DEF_STEREO_COUNT>  (1) 
0

>  <PUBCHEM_ATOM_UDEF_STEREO_COUNT>  (1) 
0

>  <PUBCHEM_BOND_DEF_STEREO_COUNT>  (1) 
0

>  <PUBCHEM_BOND_UDEF_STEREO_COUNT>  (1) 
0

>  <PUBCHEM_ISOTOPIC_ATOM_COUNT>  (1) 
0

>  <PUBCHEM_COMPONENT_COUNT>  (1) 
1

>  <PUBCHEM_CACTVS_TAUTO_COUNT>  (1) 
1

>  <PUBCHEM_CONFORMER_ID>  (1) 
0000668100000001

>  <PUBCHEM_MMFF94_ENERGY>  (1) 
50.7548

>  <PUBCHEM_FEATURE_SELFOVERLAP>  (1) 
40.657

>  <PUBCHEM_SHAPE_FINGERPRINT>  (1) 
10299344 5 18131913750683726883
11386260 185 18411416233019260277
12730499 353 17894919533142281666
13533116 47 18413388756821123361
13836976 161 18131073736115588374
14170010 4 18412262852988306016
14251764 18 11674883291110333963
14933364 13 18260267448075443731
15183329 4 18342459219079690291
16120349 18 17989483048628459904
18335252 114 18411976962621717181
20397935 70 9655584027852957561
20612939 158 18410019857382927776
21315759 40 17275105025230175723
221357 26 18408041788498482588
22224240 67 10665233661528866873
22289505 5 18333732399505949452
23559900 14 18412543249247847578
249057 3 18413389851721298879
255183 451 17984428425613608982
29717793 49 18131918160770932741
3004659 81 18272931617802235675
3663271 9 7997976791188323183
4325135 7 18202282490355414415
4340502 62 8934997066576904128
54076057 255 16226057707934341780
59521099 67 18060696204145278184
59682541 52 18409451366658002223
6438161 24 18059851736212315530

>  <PUBCHEM_SHAPE_MULTIPOLES>  (1) 
389
23.77
1.92
1
61.9
1.26
0.06
-2.31
9.75
-4.08
0.09
-0.49
0.04
0.1

>  <PUBCHEM_SHAPE_SELFOVERLAP>  (1) 
772.673

>  <PUBCHEM_SHAPE_VOLUME>  (1) 
231.7

>  <PUBCHEM_COORDINATE_TYPE>  (1) 
2
5
10

$$$$
