26240
     RDKit          3D

 19 19  0  0  0  0  0  0  0  0999 V2000
   -1.0531    0.2468   -1.1165 O   0  0  0  0  0  0  0  0  0  0  0  0
   -2.8860   -2.7922    0.9181 O   0  0  0  0  0  0  0  0  0  0  0  0
   -1.6938   -2.4314   -0.9832 O   0  0  0  0  0  0  0  0  0  0  0  0
   -6.0506    1.0348    1.1966 N   0  0  0  0  0  0  0  0  0  0  0  0
    3.8037   -0.0029   -0.3818 C   0  0  0  0  0  0  0  0  0  0  0  0
    5.0528    0.6126    0.2556 C   0  0  0  0  0  0  0  0  0  0  0  0
    2.5255    0.7928   -0.1076 C   0  0  0  0  0  0  0  0  0  0  0  0
    6.3182   -0.2214    0.0441 C   0  0  0  0  0  0  0  0  0  0  0  0
    1.3094    0.1230   -0.7457 C   0  0  0  0  0  0  0  0  0  0  0  0
    7.5172    0.4010    0.7612 C   0  0  0  0  0  0  0  0  0  0  0  0
    0.0385    0.9281   -0.5140 C   0  0  0  0  0  0  0  0  0  0  0  0
    8.7699   -0.4427    0.5869 C   0  0  0  0  0  0  0  0  0  0  0  0
   -2.2857    0.4251   -0.5436 C   0  0  0  0  0  0  0  0  0  0  0  0
   -2.9969   -0.6596   -0.0418 C   0  0  0  0  0  0  0  0  0  0  0  0
   -2.8130    1.7105   -0.4731 C   0  0  0  0  0  0  0  0  0  0  0  0
   -4.2497   -0.4569    0.5372 C   0  0  0  0  0  0  0  0  0  0  0  0
   -4.7840    0.8294    0.6111 C   0  0  0  0  0  0  0  0  0  0  0  0
   -4.0657    1.9131    0.1060 C   0  0  0  0  0  0  0  0  0  0  0  0
   -2.4567   -2.0103   -0.1092 C   0  0  0  0  0  0  0  0  0  0  0  0
  1 11  1  0
  1 13  1  0
  2 19  1  0
  3 19  2  0
  4 17  1  0
  5  6  1  0
  5  7  1  0
  6  8  1  0
  7  9  1  0
  8 10  1  0
  9 11  1  0
 10 12  1  0
 13 14  2  0
 13 15  1  0
 14 16  1  0
 14 19  1  0
 15 18  2  0
 16 17  2  0
 17 18  1  0
M  END
>  <PUBCHEM_COMPOUND_CID>  (1) 
26240

>  <PUBCHEM_CONFORMER_RMSD>  (1) 
1

>  <PUBCHEM_CONFORMER_DIVERSEORDER>  (1) 
1
679
25
514
287
103
451
573
7
611
427
2
517
44
597
496
557
12
477
83
564
610
54
646
66
152
247
36
417
360
30
173
161
429
261
51
535
375
339
577
195
512
42
576
106
499
3
22
5
15
127
139
329
218
13
350
372
266
342
131
46
137
282
553
72
277
21
115
484
6
370
59
347
43
252
117
17
82
31
198
64
259
18
158
271
290
222
383
270
104
172
98
388
510
268
73
507
686
448

>  <PUBCHEM_MMFF94_PARTIAL_CHARGES>  (1) 
18
1 -0.36
11 0.28
13 0.08
14 0.09
15 -0.15
16 -0.15
17 0.1
18 -0.15
19 0.63
2 -0.65
3 -0.57
37 0.15
38 0.15
39 0.15
4 -0.9
40 0.4
41 0.4
42 0.5

>  <PUBCHEM_EFFECTIVE_ROTOR_COUNT>  (1) 
9

>  <PUBCHEM_PHARMACOPHORE_FEATURES>  (1) 
10
1 1 acceptor
1 12 hydrophobe
1 2 acceptor
1 3 acceptor
1 4 cation
1 4 donor
3 2 3 19 anion
3 5 7 9 hydrophobe
3 6 8 10 hydrophobe
6 13 14 15 16 17 18 rings

>  <PUBCHEM_HEAVY_ATOM_COUNT>  (1) 
19

>  <PUBCHEM_ATOM_DEF_STEREO_COUNT>  (1) 
0

>  <PUBCHEM_ATOM_UDEF_STEREO_COUNT>  (1) 
0

>  <PUBCHEM_BOND_DEF_STEREO_COUNT>  (1) 
0

>  <PUBCHEM_BOND_UDEF_STEREO_COUNT>  (1) 
0

>  <PUBCHEM_ISOTOPIC_ATOM_COUNT>  (1) 
0

>  <PUBCHEM_COMPONENT_COUNT>  (1) 
1

>  <PUBCHEM_CACTVS_TAUTO_COUNT>  (1) 
1

>  <PUBCHEM_CONFORMER_ID>  (1) 
0000668000000001

>  <PUBCHEM_MMFF94_ENERGY>  (1) 
50.3794

>  <PUBCHEM_FEATURE_SELFOVERLAP>  (1) 
50.82

>  <PUBCHEM_SHAPE_FINGERPRINT>  (1) 
10087517 78 12175629477633246162
10299344 5 17967534567666028744
11089746 13 13183016333469078690
11315181 36 18411414050837626924
11405975 8 18411699932720100736
11524674 6 17918270957204267998
12091667 2 17917986183908684996
12616971 3 17313107479795873436
13288520 33 11458427938228237397
13668630 136 14490191592680288608
14251764 18 18412544323295327420
14350574 20 13840269199564460228
14420673 8 18409168805602886570
14844126 61 18337392767977990307
14849402 71 18041847346000436028
14933364 13 18413107269597794808
15348495 7 18201150066456533272
15537594 2 17603579725644089610
15716309 27 17749107790752003460
16110190 28 18408325514454833588
17093844 174 18060128860929805304
17780758 139 18335419084206953840
19427546 20 10447936053440117931
21150785 3 10665231450000465512
21315763 191 18041282153672386118
21403212 168 18334297531561233025
220451 1 18040431084759948602
23035841 295 18259984873407841752
23402539 116 18342174484476191629
23559900 14 18340198691481568048
328310 630 14117228542776883450
351380 3 17095520699879980520
4073 2 18261113019841251322
484985 159 17095809944431938427
5104073 3 18337955722315698952
5364581 5 18126555950422528416
559249 180 18334855026014690351
58260988 114 16588604109694271499
5924683 9 18058443369386327399
7226269 152 17988642960829521256
9953998 17 18410849980615218040

>  <PUBCHEM_SHAPE_MULTIPOLES>  (1) 
368.42
19.76
1.99
0.96
48.21
1.36
-0.02
-1.78
-7.65
-3.51
-0.04
-0.41
0.05
-0.14

>  <PUBCHEM_SHAPE_SELFOVERLAP>  (1) 
736.037

>  <PUBCHEM_SHAPE_VOLUME>  (1) 
218.1

>  <PUBCHEM_COORDINATE_TYPE>  (1) 
2
5
10

$$$$
