2624
     RDKit          3D

 33 36  0  0  1  0  0  0  0  0999 V2000
    0.7130    2.3546    0.9996 S   0  0  0  0  0  0  0  0  0  0  0  0
    5.1184    0.7067    0.0610 S   0  0  0  0  0  0  0  0  0  0  0  0
   -4.9429   -2.7726    1.8145 S   0  0  0  0  0  0  0  0  0  0  0  0
   -0.4863    0.1548   -2.9191 O   0  0  0  0  0  0  0  0  0  0  0  0
    1.5399   -2.0282   -1.8350 O   0  0  0  0  0  0  0  0  0  0  0  0
    3.2802   -0.6378   -2.3530 O   0  0  0  0  0  0  0  0  0  0  0  0
   -3.2689    2.4810    1.0554 O   0  0  0  0  0  0  0  0  0  0  0  0
   -7.0733    0.8189    0.1647 O   0  0  0  0  0  0  0  0  0  0  0  0
    0.5000    0.4065   -0.7920 N   0  0  0  0  0  0  0  0  0  0  0  0
   -2.6334    0.9847   -0.6382 N   0  0  0  0  0  0  0  0  0  0  0  0
   -5.9107    1.5974    0.0790 N   0  0  0  0  0  0  0  0  0  0  0  0
    7.8385    0.2366    0.2483 N   0  0  0  0  0  0  0  0  0  0  0  0
   -5.5728   -1.3835   -0.2726 N   0  0  0  0  0  0  0  0  0  0  0  0
    6.6498   -1.2734    1.2532 N   0  0  0  0  0  0  0  0  0  0  0  0
    8.7260   -0.6272    0.7607 N   0  0  0  0  0  0  0  0  0  0  0  0
    7.9932   -1.5484    1.3745 N   0  0  0  0  0  0  0  0  0  0  0  0
   -6.0996   -3.6851   -0.3993 N   0  0  0  0  0  0  0  0  0  0  0  0
   -0.2756    1.0331    0.2630 C   0  0  0  0  0  0  0  0  0  0  0  0
   -1.2652    1.4529   -0.8458 C   0  0  0  0  0  0  0  0  0  0  0  0
   -0.4171    0.5382   -1.7749 C   0  0  0  0  0  0  0  0  0  0  0  0
    1.7526   -0.0880   -0.6169 C   0  0  0  0  0  0  0  0  0  0  0  0
    2.4888    0.2222    0.4767 C   0  0  0  0  0  0  0  0  0  0  0  0
    2.0319    1.2158    1.5425 C   0  0  0  0  0  0  0  0  0  0  0  0
    3.8519   -0.3498    0.7832 C   0  0  0  0  0  0  0  0  0  0  0  0
    2.2977   -0.9222   -1.6981 C   0  0  0  0  0  0  0  0  0  0  0  0
   -3.4864    1.5530    0.2930 C   0  0  0  0  0  0  0  0  0  0  0  0
   -4.8436    0.8992    0.3266 C   0  0  0  0  0  0  0  0  0  0  0  0
    6.5771   -0.1647    0.5533 C   0  0  0  0  0  0  0  0  0  0  0  0
   -4.9964   -0.5246    0.6427 C   0  0  0  0  0  0  0  0  0  0  0  0
   -4.5920   -1.0940    1.8319 C   0  0  0  0  0  0  0  0  0  0  0  0
    8.2872    1.3843   -0.4986 C   0  0  0  0  0  0  0  0  0  0  0  0
   -5.5970   -2.5947    0.2381 C   0  0  0  0  0  0  0  0  0  0  0  0
   -8.1850    1.6545   -0.1180 C   0  0  0  0  0  0  0  0  0  0  0  0
  1 18  1  0
  1 23  1  0
  2 24  1  0
  2 28  1  0
  3 30  1  0
  3 32  1  0
  4 20  2  0
  5 25  1  0
  6 25  2  0
  7 26  2  0
  8 11  1  0
  8 33  1  0
  9 18  1  0
  9 20  1  0
  9 21  1  0
 10 19  1  0
 10 26  1  0
 11 27  2  0
 12 15  1  0
 12 28  1  0
 12 31  1  0
 13 29  1  0
 13 32  2  0
 14 16  1  0
 14 28  2  0
 15 16  2  0
 17 32  1  0
 18 19  1  0
 19 20  1  0
 21 22  2  0
 21 25  1  0
 22 23  1  0
 22 24  1  0
 26 27  1  0
 27 29  1  0
 29 30  2  0
M  END
>  <PUBCHEM_COMPOUND_CID>  (1) 
2624

>  <PUBCHEM_CONFORMER_RMSD>  (1) 
1.2

>  <PUBCHEM_CONFORMER_DIVERSEORDER>  (1) 
1
507
459
66
371
246
26
153
465
448
116
521
308
10
477
324
439
272
450
513
111
650
315
294
19
570
497
629
62
252
166
523
83
284
28
542
555
567
76
278
333
429
405
613
84
41
657
621
510
237
295
231
68
374
285
169
44
321
147
4
107
348
289
253
301
245
264
446
151
204
230
193
307
281
81
358
154
156
376
67
398
36
271
50
427
259
35
400
572
335
385
180
18
261
29
626
8
483
491
344
202
167
279
277
416
46
463
298
178
283
473
79
487
187
317
503
636
499
7
9
59
420
263
224
481
114
64
535
270
123
550
316
310
209
229
247
159
2
228
299
449
20
70
136
75
96
189
33
137
498
43
177
421
23
25
597
119
39
130
419
203
49
150
15
6
65
174
142
549
656
27
127
108
63
340
581
12
325
217
3
14
161
248
188
133
31
443
240
42
172
34
134
595
24
51
207
211
85
32
243
539
109

>  <PUBCHEM_MMFF94_PARTIAL_CHARGES>  (1) 
37
1 -0.45
10 -0.65
11 -0.51
12 0.31
13 -0.57
14 -0.34
15 -0.42
17 -0.88
18 0.44
19 0.28
2 -0.29
20 0.58
21 0.12
22 -0.28
23 0.37
24 0.37
25 0.71
26 0.63
27 0.54
28 0.24
29 0.14
3 -0.08
30 -0.11
31 0.26
32 0.46
33 0.28
38 0.37
4 -0.57
41 0.5
42 0.15
49 0.4
5 -0.65
50 0.4
6 -0.57
7 -0.57
8 -0.22
9 -0.39

>  <PUBCHEM_EFFECTIVE_ROTOR_COUNT>  (1) 
9.6

>  <PUBCHEM_PHARMACOPHORE_FEATURES>  (1) 
14
1 10 donor
1 11 acceptor
1 17 donor
1 4 acceptor
1 5 acceptor
1 6 acceptor
1 7 acceptor
3 12 14 28 cation
3 13 17 32 cation
3 5 6 25 anion
4 9 18 19 20 rings
5 12 14 15 16 28 rings
5 3 13 29 30 32 rings
6 1 9 18 21 22 23 rings

>  <PUBCHEM_HEAVY_ATOM_COUNT>  (1) 
33

>  <PUBCHEM_ATOM_DEF_STEREO_COUNT>  (1) 
0

>  <PUBCHEM_ATOM_UDEF_STEREO_COUNT>  (1) 
2

>  <PUBCHEM_BOND_DEF_STEREO_COUNT>  (1) 
0

>  <PUBCHEM_BOND_UDEF_STEREO_COUNT>  (1) 
1

>  <PUBCHEM_ISOTOPIC_ATOM_COUNT>  (1) 
0

>  <PUBCHEM_COMPONENT_COUNT>  (1) 
1

>  <PUBCHEM_CACTVS_TAUTO_COUNT>  (1) 
4

>  <PUBCHEM_CONFORMER_ID>  (1) 
00000A4000000001

>  <PUBCHEM_MMFF94_ENERGY>  (1) 
74.4777

>  <PUBCHEM_FEATURE_SELFOVERLAP>  (1) 
71.363

>  <PUBCHEM_SHAPE_FINGERPRINT>  (1) 
10 15 18131067130545297696
11135926 11 15646767886274002785
11646440 116 16487255478679515672
12082328 90 9799693696811494065
12498461 61 18410852175533806867
13782708 43 17749101167907054986
14856354 85 18060135483231377622
14955137 171 18131631201343382512
15183329 4 9223231840827699148
17324776 126 17694770123239454271
19315958 150 18263084315097903649
19611394 137 18272090525940760128
20721686 56 17632298930427252965
21223535 225 14346063201574518831
21424621 283 13110967526538729430
21756936 100 13039189221418130549
21781051 124 18130798863115431190
23559900 14 18341618135872108241
249057 3 13695880220087359321
2838139 119 11167935874995138866
3178227 256 17632860849978848624
4073 2 18271816670346574331
4173938 188 16199853069270078959
4625314 4 18334012783292383348
4760202 70 17970067953666769030
5969126 39 15864064356312605724
6691757 9 18410859833708038849
9953998 17 18407759227221996409

>  <PUBCHEM_SHAPE_MULTIPOLES>  (1) 
616.5
24.32
2.73
1.83
22.37
1.62
0.91
6.2
-6.89
-5.49
-0.6
0.61
0.46
-0.03

>  <PUBCHEM_SHAPE_SELFOVERLAP>  (1) 
1277.461

>  <PUBCHEM_SHAPE_VOLUME>  (1) 
356

>  <PUBCHEM_COORDINATE_TYPE>  (1) 
2
5
10

$$$$
