26252
     RDKit          3D

 10 10  0  0  0  0  0  0  0  0999 V2000
    0.1801    2.1040   -0.4453 O   0  0  0  0  0  0  0  0  0  0  0  0
   -1.8100   -1.4672    0.2827 C   0  0  0  0  0  0  0  0  0  0  0  0
   -0.4805   -1.4783   -0.4676 C   0  0  0  0  0  0  0  0  0  0  0  0
   -2.5782   -0.1794    0.0025 C   0  0  0  0  0  0  0  0  0  0  0  0
   -1.7856    1.0494    0.4294 C   0  0  0  0  0  0  0  0  0  0  0  0
    0.3344   -0.2553   -0.1749 C   0  0  0  0  0  0  0  0  0  0  0  0
   -0.3766    1.0560   -0.1249 C   0  0  0  0  0  0  0  0  0  0  0  0
    1.6510   -0.2704    0.0692 C   0  0  0  0  0  0  0  0  0  0  0  0
    2.4504   -1.5407    0.0416 C   0  0  0  0  0  0  0  0  0  0  0  0
    2.4150    0.9819    0.3874 C   0  0  0  0  0  0  0  0  0  0  0  0
  1  7  2  0
  2  3  1  0
  2  4  1  0
  3  6  1  0
  4  5  1  0
  5  7  1  0
  6  7  1  0
  6  8  2  3
  8  9  1  0
  8 10  1  0
M  END
>  <PUBCHEM_COMPOUND_CID>  (1) 
26252

>  <PUBCHEM_CONFORMER_RMSD>  (1) 
0.4

>  <PUBCHEM_CONFORMER_DIVERSEORDER>  (1) 
1
2

>  <PUBCHEM_MMFF94_PARTIAL_CHARGES>  (1) 
8
1 -0.57
10 0.14
3 0.14
5 0.06
6 -0.12
7 0.49
8 -0.28
9 0.14

>  <PUBCHEM_EFFECTIVE_ROTOR_COUNT>  (1) 
0.8

>  <PUBCHEM_PHARMACOPHORE_FEATURES>  (1) 
3
1 1 acceptor
3 8 9 10 hydrophobe
6 2 3 4 5 6 7 rings

>  <PUBCHEM_HEAVY_ATOM_COUNT>  (1) 
10

>  <PUBCHEM_ATOM_DEF_STEREO_COUNT>  (1) 
0

>  <PUBCHEM_ATOM_UDEF_STEREO_COUNT>  (1) 
0

>  <PUBCHEM_BOND_DEF_STEREO_COUNT>  (1) 
0

>  <PUBCHEM_BOND_UDEF_STEREO_COUNT>  (1) 
0

>  <PUBCHEM_ISOTOPIC_ATOM_COUNT>  (1) 
0

>  <PUBCHEM_COMPONENT_COUNT>  (1) 
1

>  <PUBCHEM_CACTVS_TAUTO_COUNT>  (1) 
5

>  <PUBCHEM_CONFORMER_ID>  (1) 
0000668C00000001

>  <PUBCHEM_MMFF94_ENERGY>  (1) 
17.1745

>  <PUBCHEM_FEATURE_SELFOVERLAP>  (1) 
15.223

>  <PUBCHEM_SHAPE_FINGERPRINT>  (1) 
10857977 72 18337663230267429736
12423570 1 9522821322866023637
12524768 44 18412826871671224046
16945 1 18266180719544648781
18185500 45 18124032596367697551
193761 8 14015345990849029439
21040471 1 18339930307300944061
23552423 10 18261115187976815614
241688 4 18336828593520292576
2748010 2 18411136913661736655
29004967 10 18261110841316768970
369184 2 18409162199447397675
5084963 1 18057596569075139914
66348 1 18411420587640740091

>  <PUBCHEM_SHAPE_MULTIPOLES>  (1) 
199.93
3.51
1.97
0.69
0.51
0.17
0.01
-0.56
0.48
0.14
-0.12
-0.02
0.01
0.03

>  <PUBCHEM_SHAPE_SELFOVERLAP>  (1) 
398.705

>  <PUBCHEM_SHAPE_VOLUME>  (1) 
118.8

>  <PUBCHEM_COORDINATE_TYPE>  (1) 
2
5
10

$$$$
