2625
     RDKit          3D

 30 32  0  0  1  0  0  0  0  0999 V2000
    0.5590   -0.2367   -2.1189 S   0  0  0  0  0  0  0  0  0  0  0  0
   -3.9672   -0.1668   -0.7053 S   0  0  0  0  0  0  0  0  0  0  0  0
    6.3974    1.3911   -0.4321 S   0  0  0  0  0  0  0  0  0  0  0  0
    2.3637   -2.5191   -1.2041 O   0  0  0  0  0  0  0  0  0  0  0  0
    1.3092   -2.5549    1.8426 O   0  0  0  0  0  0  0  0  0  0  0  0
    4.6147   -0.7249   -1.8574 O   0  0  0  0  0  0  0  0  0  0  0  0
   -2.0901   -1.9417    1.8273 O   0  0  0  0  0  0  0  0  0  0  0  0
   -1.3204   -0.1098    2.9610 O   0  0  0  0  0  0  0  0  0  0  0  0
    0.5172   -0.8122    0.4697 N   0  0  0  0  0  0  0  0  0  0  0  0
    3.6602   -1.0325    0.2354 N   0  0  0  0  0  0  0  0  0  0  0  0
   -6.7058    0.2276   -0.7106 N   0  0  0  0  0  0  0  0  0  0  0  0
   -5.6219    1.8464    0.2420 N   0  0  0  0  0  0  0  0  0  0  0  0
   -7.6461    1.0981   -0.3176 N   0  0  0  0  0  0  0  0  0  0  0  0
   -6.9773    2.0859    0.2648 N   0  0  0  0  0  0  0  0  0  0  0  0
    5.4541    4.8989    0.3013 N   0  0  0  0  0  0  0  0  0  0  0  0
    1.4074   -0.2436   -0.5235 C   0  0  0  0  0  0  0  0  0  0  0  0
    2.3335   -1.4481   -0.2396 C   0  0  0  0  0  0  0  0  0  0  0  0
    1.3593   -1.7587    0.9347 C   0  0  0  0  0  0  0  0  0  0  0  0
   -0.7484   -0.3796    0.7006 C   0  0  0  0  0  0  0  0  0  0  0  0
   -1.3810    0.4307   -0.1791 C   0  0  0  0  0  0  0  0  0  0  0  0
   -0.7874    0.8433   -1.5237 C   0  0  0  0  0  0  0  0  0  0  0  0
   -2.7761    0.9809    0.0047 C   0  0  0  0  0  0  0  0  0  0  0  0
    4.6963   -0.7036   -0.6302 C   0  0  0  0  0  0  0  0  0  0  0  0
   -1.4601   -0.8601    1.9602 C   0  0  0  0  0  0  0  0  0  0  0  0
    2.7791   -3.7804   -0.7025 C   0  0  0  0  0  0  0  0  0  0  0  0
    5.9619   -0.2878    0.0803 C   0  0  0  0  0  0  0  0  0  0  0  0
   -5.4765    0.6913   -0.3655 C   0  0  0  0  0  0  0  0  0  0  0  0
    5.2543    2.3027    0.6321 C   0  0  0  0  0  0  0  0  0  0  0  0
   -7.0769   -0.9868   -1.3918 C   0  0  0  0  0  0  0  0  0  0  0  0
    5.3679    3.7505    0.4451 C   0  0  0  0  0  0  0  0  0  0  0  0
  1 16  1  0
  1 21  1  0
  2 22  1  0
  2 27  1  0
  3 26  1  0
  3 28  1  0
  4 17  1  0
  4 25  1  0
  5 18  2  0
  6 23  2  0
  7 24  1  0
  8 24  2  0
  9 16  1  0
  9 18  1  0
  9 19  1  0
 10 17  1  0
 10 23  1  0
 11 13  1  0
 11 27  1  0
 11 29  1  0
 12 14  1  0
 12 27  2  0
 13 14  2  0
 15 30  3  0
 16 17  1  0
 17 18  1  0
 19 20  2  0
 19 24  1  0
 20 21  1  0
 20 22  1  0
 23 26  1  0
 28 30  1  0
M  CHG  1   7  -1
M  END
>  <PUBCHEM_COMPOUND_CID>  (1) 
2625

>  <PUBCHEM_CONFORMER_RMSD>  (1) 
1

>  <PUBCHEM_CONFORMER_DIVERSEORDER>  (1) 
1
176
86
322
60
264
15
205
287
178
227
51
267
204
96
141
269
276
114
146
68
87
110
285
154
193
318
132
170
291
75
223
196
97
120
69
156
24
254
320
218
253
174
195
133
316
257
247
143
188
234
238
81
259
317
243
38
206
95
107
314
152
151
277
297
25
251
78
148
262
306
228
35
159
263
115
219
23
130
55
220
94
65
91
286
36
244
302
165
319
149
27
64
145
126
239
134
266
123
312
212
296
231
50
20
144
98
200
83
203
274
261
18
179
292
304
161
313
46
303
66
58
288
89
128
232
47
72
311
202
13
282
283
162
101
67
44
11
22
155
310
169
76
208
17
215
166
3
224
233
305
73
201
252
308
90
294
41
172
80
289
70
295
214
237
198
284
52
74
45
301
191
147
160
192
298
273
99
125
185
249
309
173
117
102
275
270
7
315
250
157
62
153
260
88
187
182
279
150
112
43
180
321
221
30
59
199
85
124
184
222
168
207
113
210
57
230
290
21
118
167
246
216
93
61
142
236
56
268
100
293
171
37
40
241
111
164
129
242
6
189
116
163
307
84
54
175
105
137
190
197
278
106
245
16
272
213
119
225
26
280
92
256
14
255
131
138
181
10
194
32
136
79
31
240
140
229
104
258
71
9
139
271
63
217
281
121
28
82
34
19
77
158
127
5
49
2
209
48
29
177
300
186
299
103
235
4
248
183
135
33
53
265
226
12
8
211
42
109
122
39
108

>  <PUBCHEM_MMFF94_PARTIAL_CHARGES>  (1) 
30
1 -0.45
10 -0.65
11 0.31
12 -0.34
13 -0.42
15 -0.56
16 0.44
17 0.54
18 0.58
19 -0.14
2 -0.29
20 -0.28
21 0.37
22 0.37
23 0.57
24 1.05
25 0.28
26 0.29
27 0.24
28 0.43
29 0.26
3 -0.46
30 0.36
32 0.37
4 -0.54
5 -0.57
6 -0.57
7 -0.9
8 -0.9
9 -0.39

>  <PUBCHEM_EFFECTIVE_ROTOR_COUNT>  (1) 
10.6

>  <PUBCHEM_PHARMACOPHORE_FEATURES>  (1) 
12
1 10 donor
1 15 acceptor
1 4 acceptor
1 5 acceptor
1 6 acceptor
1 7 acceptor
1 8 acceptor
3 11 12 27 cation
3 7 8 24 anion
4 9 16 17 18 rings
5 11 12 13 14 27 rings
6 1 9 16 19 20 21 rings

>  <PUBCHEM_HEAVY_ATOM_COUNT>  (1) 
30

>  <PUBCHEM_ATOM_DEF_STEREO_COUNT>  (1) 
0

>  <PUBCHEM_ATOM_UDEF_STEREO_COUNT>  (1) 
2

>  <PUBCHEM_BOND_DEF_STEREO_COUNT>  (1) 
0

>  <PUBCHEM_BOND_UDEF_STEREO_COUNT>  (1) 
0

>  <PUBCHEM_ISOTOPIC_ATOM_COUNT>  (1) 
0

>  <PUBCHEM_COMPONENT_COUNT>  (1) 
1

>  <PUBCHEM_CACTVS_TAUTO_COUNT>  (1) 
2

>  <PUBCHEM_CONFORMER_ID>  (1) 
00000A4100000001

>  <PUBCHEM_MMFF94_ENERGY>  (1) 
57.3198

>  <PUBCHEM_FEATURE_SELFOVERLAP>  (1) 
61.216

>  <PUBCHEM_SHAPE_FINGERPRINT>  (1) 
10673678 19 18273215335084268564
10906281 52 17458927958234078695
11456790 92 18114177485418869992
11578080 2 18337393845929560907
12035758 1 16660366986865042213
12166972 35 10015569615492695951
12236239 1 18263083215739243581
12788726 201 16558469665468103443
12925494 130 18191586565610526640
13533116 47 17604143701973661250
13617811 41 15267346227523018760
13673619 4 11600008743285762002
14556957 393 17060070232470515689
173720 79 14779270791244270515
17980427 23 17241053222626300958
19301679 30 8069766082861496124
20554085 129 17240475922870450536
21033648 29 17895477046394846048
21049683 118 17823123675059803114
21641784 216 15698010621196714521
21781051 124 15195000626105482965
23522609 53 17417548946894328225
23559900 14 17604728668351739926
24771293 8 18113621183352103941
34797466 226 18059861648853897309
4072396 5 15864073156843266118
4340502 62 17821731593864167630
5265222 85 17917705855656730711
6299153 45 10809610481842972037

>  <PUBCHEM_SHAPE_MULTIPOLES>  (1) 
564.72
18.39
3.67
1.79
19.61
2.31
-0.63
14.63
3.88
-7.47
-0.52
0.5
-0.82
0.92

>  <PUBCHEM_SHAPE_SELFOVERLAP>  (1) 
1138.653

>  <PUBCHEM_SHAPE_VOLUME>  (1) 
332.9

>  <PUBCHEM_COORDINATE_TYPE>  (1) 
2
5
10

$$$$
