26269
     RDKit          3D

 19 21  0  0  0  0  0  0  0  0999 V2000
   -1.8697    0.3820    2.5271 Cl  0  0  0  0  0  0  0  0  0  0  0  0
    1.6975   -2.0098   -0.0075 O   0  0  0  0  0  0  0  0  0  0  0  0
   -0.2917    2.2044   -0.0803 O   0  0  0  0  0  0  0  0  0  0  0  0
   -0.5943   -2.0783   -0.0141 O   0  0  0  0  0  0  0  0  0  0  0  0
    0.5366    0.0034   -0.1435 N   0  0  0  0  0  0  0  0  0  0  0  0
    1.8997    0.2846   -0.1005 C   0  0  0  0  0  0  0  0  0  0  0  0
    2.5558   -0.9271   -0.0263 C   0  0  0  0  0  0  0  0  0  0  0  0
   -0.4651    0.9898   -0.1498 C   0  0  0  0  0  0  0  0  0  0  0  0
    0.4307   -1.4079   -0.0581 C   0  0  0  0  0  0  0  0  0  0  0  0
    2.6001    1.4764   -0.1367 C   0  0  0  0  0  0  0  0  0  0  0  0
   -1.8616    0.5226   -0.1978 C   0  0  0  0  0  0  0  0  0  0  0  0
    3.9332   -1.0164    0.0239 C   0  0  0  0  0  0  0  0  0  0  0  0
    3.9966    1.4125   -0.0864 C   0  0  0  0  0  0  0  0  0  0  0  0
    4.6587    0.1752   -0.0057 C   0  0  0  0  0  0  0  0  0  0  0  0
   -2.5783    0.2242    0.9600 C   0  0  0  0  0  0  0  0  0  0  0  0
   -2.4626    0.3843   -1.4480 C   0  0  0  0  0  0  0  0  0  0  0  0
   -3.8995   -0.2136    0.8673 C   0  0  0  0  0  0  0  0  0  0  0  0
   -3.7838   -0.0536   -1.5405 C   0  0  0  0  0  0  0  0  0  0  0  0
   -4.5022   -0.3525   -0.3830 C   0  0  0  0  0  0  0  0  0  0  0  0
  1 15  1  0
  2  7  1  0
  2  9  1  0
  3  8  2  0
  4  9  2  0
  5  6  1  0
  5  8  1  0
  5  9  1  0
  6  7  2  0
  6 10  1  0
  7 12  1  0
  8 11  1  0
 10 13  2  0
 11 15  2  0
 11 16  1  0
 12 14  2  0
 13 14  1  0
 15 17  1  0
 16 18  2  0
 17 19  2  0
 18 19  1  0
M  END
>  <PUBCHEM_COMPOUND_CID>  (1) 
26269

>  <PUBCHEM_CONFORMER_RMSD>  (1) 
0.6

>  <PUBCHEM_CONFORMER_DIVERSEORDER>  (1) 
1
8
9
3
12
6
7
10
11
5
2
4
13

>  <PUBCHEM_MMFF94_PARTIAL_CHARGES>  (1) 
27
1 -0.18
10 -0.15
11 0.09
12 -0.15
13 -0.15
14 -0.15
15 0.18
16 -0.15
17 -0.15
18 -0.15
19 -0.15
2 -0.23
20 0.15
21 0.15
22 0.15
23 0.15
24 0.15
25 0.15
26 0.15
27 0.15
3 -0.57
4 -0.57
5 -0.24
6 0.12
7 0.08
8 0.54
9 0.78

>  <PUBCHEM_EFFECTIVE_ROTOR_COUNT>  (1) 
2

>  <PUBCHEM_PHARMACOPHORE_FEATURES>  (1) 
5
1 3 acceptor
1 4 acceptor
5 2 5 6 7 9 rings
6 11 15 16 17 18 19 rings
6 6 7 10 12 13 14 rings

>  <PUBCHEM_HEAVY_ATOM_COUNT>  (1) 
19

>  <PUBCHEM_ATOM_DEF_STEREO_COUNT>  (1) 
0

>  <PUBCHEM_ATOM_UDEF_STEREO_COUNT>  (1) 
0

>  <PUBCHEM_BOND_DEF_STEREO_COUNT>  (1) 
0

>  <PUBCHEM_BOND_UDEF_STEREO_COUNT>  (1) 
0

>  <PUBCHEM_ISOTOPIC_ATOM_COUNT>  (1) 
0

>  <PUBCHEM_COMPONENT_COUNT>  (1) 
1

>  <PUBCHEM_CACTVS_TAUTO_COUNT>  (1) 
1

>  <PUBCHEM_CONFORMER_ID>  (1) 
0000669D00000001

>  <PUBCHEM_MMFF94_ENERGY>  (1) 
64.1042

>  <PUBCHEM_FEATURE_SELFOVERLAP>  (1) 
25.484

>  <PUBCHEM_SHAPE_FINGERPRINT>  (1) 
10 15 17896029001575400784
10366900 7 17821736013643529912
11132069 177 18338228362343753496
11370993 70 15936405637103552274
11471102 20 18409727370236410780
11615757 297 18273215287601991536
12236239 1 17847062181905576117
12500047 106 15863786196860736489
13140716 1 18266456697469720512
13224815 77 18412827958308388924
13583140 156 17095520729770717472
13862211 1 18410286983274945846
14289901 80 16487264252653999030
14386348 63 17822297885549616891
15196674 1 18410009918527645014
15309172 13 18411143527922123242
15375358 24 17822009808986665089
15375462 189 17917708002696902651
15852999 172 16443630090793160723
16945 1 18410296870088960806
17349148 13 18272647931339406042
18186145 218 18342178869046794540
19422 9 17560805389896062278
19489759 90 16443058400433351621
200 152 18343297059424128045
20279233 1 17676210164712392363
204376 136 18336267954665464700
20645477 70 18261670385767650582
21033648 29 18114729508363625028
21267235 1 18411143519775313398
21682296 61 18194682554373813578
22854114 59 18408042918143063456
23402539 116 17703788111133952388
23493267 7 17240759553894376056
23557571 272 16950563251326481389
23559900 14 16660642913028803938
2748010 2 18266465497799732990
3286 77 17346588669380925408
474 4 17700962491190339736
5104073 3 18337105657956201760
602551 16 15266766819111929788
69090 78 18411134762099645910
77492 1 17775286054080350893

>  <PUBCHEM_SHAPE_MULTIPOLES>  (1) 
370.29
8.54
1.68
1.34
1.79
0.2
-0.64
-0.13
0.82
1.15
0.04
-1.83
-0.2
-0.17

>  <PUBCHEM_SHAPE_SELFOVERLAP>  (1) 
817.113

>  <PUBCHEM_SHAPE_VOLUME>  (1) 
200.5

>  <PUBCHEM_COORDINATE_TYPE>  (1) 
2
5
10

$$$$
