2626
     RDKit          3D

 30 32  0  0  1  0  0  0  0  0999 V2000
    0.5764   -0.2720   -2.1499 S   0  0  0  0  0  0  0  0  0  0  0  0
   -4.0007   -0.1907   -0.6933 S   0  0  0  0  0  0  0  0  0  0  0  0
    6.3619    1.4628   -0.3964 S   0  0  0  0  0  0  0  0  0  0  0  0
    2.4109   -2.5197   -1.2213 O   0  0  0  0  0  0  0  0  0  0  0  0
    1.3307   -2.5892    1.8100 O   0  0  0  0  0  0  0  0  0  0  0  0
   -0.7819   -0.5159    2.9512 O   0  0  0  0  0  0  0  0  0  0  0  0
   -2.4376   -1.6296    1.8339 O   0  0  0  0  0  0  0  0  0  0  0  0
    4.6330   -0.6806   -1.8468 O   0  0  0  0  0  0  0  0  0  0  0  0
    0.5137   -0.8526    0.4401 N   0  0  0  0  0  0  0  0  0  0  0  0
    3.6641   -1.0140    0.2353 N   0  0  0  0  0  0  0  0  0  0  0  0
   -6.7317    0.2507   -0.6479 N   0  0  0  0  0  0  0  0  0  0  0  0
   -5.6003    1.8683    0.2498 N   0  0  0  0  0  0  0  0  0  0  0  0
   -7.6484    1.1446   -0.2519 N   0  0  0  0  0  0  0  0  0  0  0  0
   -6.9506    2.1315    0.2968 N   0  0  0  0  0  0  0  0  0  0  0  0
    5.3462    4.9496    0.3404 N   0  0  0  0  0  0  0  0  0  0  0  0
    1.4051   -0.2657   -0.5438 C   0  0  0  0  0  0  0  0  0  0  0  0
    2.3501   -1.4524   -0.2543 C   0  0  0  0  0  0  0  0  0  0  0  0
    1.3716   -1.7852    0.9081 C   0  0  0  0  0  0  0  0  0  0  0  0
   -0.7593   -0.4305    0.6523 C   0  0  0  0  0  0  0  0  0  0  0  0
   -1.3945    0.3738   -0.2332 C   0  0  0  0  0  0  0  0  0  0  0  0
   -0.7914    0.7895   -1.5731 C   0  0  0  0  0  0  0  0  0  0  0  0
   -2.7754    0.9501   -0.0310 C   0  0  0  0  0  0  0  0  0  0  0  0
   -1.4391   -0.9382    1.8532 C   0  0  0  0  0  0  0  0  0  0  0  0
    4.7022   -0.6625   -0.6188 C   0  0  0  0  0  0  0  0  0  0  0  0
    2.8460   -3.7742   -0.7188 C   0  0  0  0  0  0  0  0  0  0  0  0
    5.9529   -0.2258    0.1056 C   0  0  0  0  0  0  0  0  0  0  0  0
   -5.4875    0.6996   -0.3382 C   0  0  0  0  0  0  0  0  0  0  0  0
    5.1916    2.3490    0.6599 C   0  0  0  0  0  0  0  0  0  0  0  0
   -7.1378   -0.9700   -1.2973 C   0  0  0  0  0  0  0  0  0  0  0  0
    5.2799    3.7993    0.4793 C   0  0  0  0  0  0  0  0  0  0  0  0
  1 16  1  0
  1 21  1  0
  2 22  1  0
  2 27  1  0
  3 26  1  0
  3 28  1  0
  4 17  1  0
  4 25  1  0
  5 18  2  0
  6 23  1  0
  7 23  2  0
  8 24  2  0
  9 16  1  0
  9 18  1  0
  9 19  1  0
 10 17  1  0
 10 24  1  0
 11 13  1  0
 11 27  1  0
 11 29  1  0
 12 14  1  0
 12 27  2  0
 13 14  2  0
 15 30  3  0
 16 17  1  0
 17 18  1  0
 19 20  2  0
 19 23  1  0
 20 21  1  0
 20 22  1  0
 24 26  1  0
 28 30  1  0
M  END
>  <PUBCHEM_COMPOUND_CID>  (1) 
2626

>  <PUBCHEM_CONFORMER_RMSD>  (1) 
1

>  <PUBCHEM_CONFORMER_DIVERSEORDER>  (1) 
1
81
107
50
181
30
157
41
98
55
125
203
208
153
9
159
86
31
202
195
210
113
183
93
152
21
214
226
185
110
131
165
17
229
205
39
124
218
83
207
149
20
23
51
230
228
127
79
154
128
59
77
169
158
150
80
201
11
43
91
42
238
2
139
104
175
232
156
188
112
103
239
102
209
167
143
48
148
241
68
96
196
101
198
204
64
90
65
236
29
233
155
243
46
138
192
52
237
94
109
33
172
78
140
134
146
186
176
240
135
26
164
130
73
170
200
145
136
227
24
63
242
184
182
82
197
25
19
163
129
193
141
211
61
151
179
189
10
57
173
114
120
71
217
16
147
27
38
168
190
122
70
235
199
14
234
123
231
84
171
5
32
160
69
174
137
47
223
92
13
108
56
6
216
180
177
18
34
85
89
15
97
49
62
95
213
37
88
225
100
220
142
224
67
28
178
76
54
72
222
22
144
53
118
244
126
4
212
161
74
119
7
3
206
219
44
99
111
75
221
187
66
215
58
40
121
115
116
191
36
162
133
132
194
45
117
8
35
87
166
12
60
106
105

>  <PUBCHEM_MMFF94_PARTIAL_CHARGES>  (1) 
31
1 -0.45
10 -0.65
11 0.31
12 -0.34
13 -0.42
15 -0.56
16 0.44
17 0.54
18 0.58
19 0.12
2 -0.29
20 -0.28
21 0.37
22 0.37
23 0.71
24 0.57
25 0.28
26 0.29
27 0.24
28 0.43
29 0.26
3 -0.46
30 0.36
32 0.37
4 -0.54
42 0.5
5 -0.57
6 -0.65
7 -0.57
8 -0.57
9 -0.39

>  <PUBCHEM_EFFECTIVE_ROTOR_COUNT>  (1) 
10.6

>  <PUBCHEM_PHARMACOPHORE_FEATURES>  (1) 
12
1 10 donor
1 15 acceptor
1 4 acceptor
1 5 acceptor
1 6 acceptor
1 7 acceptor
1 8 acceptor
3 11 12 27 cation
3 6 7 23 anion
4 9 16 17 18 rings
5 11 12 13 14 27 rings
6 1 9 16 19 20 21 rings

>  <PUBCHEM_HEAVY_ATOM_COUNT>  (1) 
30

>  <PUBCHEM_ATOM_DEF_STEREO_COUNT>  (1) 
0

>  <PUBCHEM_ATOM_UDEF_STEREO_COUNT>  (1) 
2

>  <PUBCHEM_BOND_DEF_STEREO_COUNT>  (1) 
0

>  <PUBCHEM_BOND_UDEF_STEREO_COUNT>  (1) 
0

>  <PUBCHEM_ISOTOPIC_ATOM_COUNT>  (1) 
0

>  <PUBCHEM_COMPONENT_COUNT>  (1) 
1

>  <PUBCHEM_CACTVS_TAUTO_COUNT>  (1) 
2

>  <PUBCHEM_CONFORMER_ID>  (1) 
00000A4200000001

>  <PUBCHEM_MMFF94_ENERGY>  (1) 
62.6131

>  <PUBCHEM_FEATURE_SELFOVERLAP>  (1) 
61.215

>  <PUBCHEM_SHAPE_FINGERPRINT>  (1) 
10 15 15430046456189468951
10673678 19 18201720690999755420
10906281 52 17386588902020049822
11456790 92 18113896014726583624
11578080 2 18338238270896629091
12035758 1 16660365887321720493
12166972 35 10015569615487427695
12236239 1 18262801740773069453
12788726 201 16486693546385793635
12925494 130 18191868044876929832
13533116 47 17604706651906015994
13617811 41 15123512518724083120
13673619 4 11527952244533111794
14556957 393 16988575592702036425
16728300 4 11891869715169195008
173720 79 14851609860227306051
17980427 23 17241053222584115918
19301679 30 7925369424103812396
20554085 129 17385435535892204136
21033648 29 17968377970167331480
21049683 118 17823123675054580322
21641784 216 15769505261060132897
21781051 124 15195282101092743133
22224240 67 18040151816710788286
23522609 53 17417548946915401273
23559900 14 17604446093810640926
24771293 8 18113059332947201213
34797466 226 18059861653191036629
4072396 5 15864073156811630598
4340502 62 17676490510144768406
5109719 28 18339085989829949641
5265222 85 17845930840396859735
70251023 43 17978796701386283390

>  <PUBCHEM_SHAPE_MULTIPOLES>  (1) 
564.72
18.36
3.71
1.77
20.69
2.59
-0.56
14.74
3.4
-7.57
-0.55
0.29
-0.87
1

>  <PUBCHEM_SHAPE_SELFOVERLAP>  (1) 
1140.442

>  <PUBCHEM_SHAPE_VOLUME>  (1) 
332.1

>  <PUBCHEM_COORDINATE_TYPE>  (1) 
2
5
10

$$$$
