26263
     RDKit          3D

 10 10  0  0  1  0  0  0  0  0999 V2000
   -2.0357    1.6832    0.9105 Cl  0  0  0  0  0  0  0  0  0  0  0  0
   -3.4534    0.4737   -1.3642 Cl  0  0  0  0  0  0  0  0  0  0  0  0
   -0.0254   -0.5811    0.4952 O   0  0  0  0  0  0  0  0  0  0  0  0
   -1.2672   -0.8158   -0.1552 C   0  0  0  0  0  0  0  0  0  0  0  0
   -2.3553    0.2181   -0.0100 C   0  0  0  0  0  0  0  0  0  0  0  0
   -2.4522   -1.0785    0.7389 C   0  0  0  0  0  0  0  0  0  0  0  0
    1.0176   -0.3460   -0.4405 C   0  0  0  0  0  0  0  0  0  0  0  0
    2.3181   -0.1229    0.3184 C   0  0  0  0  0  0  0  0  0  0  0  0
    3.4829    0.1523   -0.6283 C   0  0  0  0  0  0  0  0  0  0  0  0
    4.7707    0.4171    0.1352 C   0  0  0  0  0  0  0  0  0  0  0  0
  1  5  1  0
  2  5  1  0
  3  4  1  0
  3  7  1  0
  4  5  1  0
  4  6  1  0
  5  6  1  0
  7  8  1  0
  8  9  1  0
  9 10  1  0
M  END
>  <PUBCHEM_COMPOUND_CID>  (1) 
26263

>  <PUBCHEM_CONFORMER_RMSD>  (1) 
0.6

>  <PUBCHEM_CONFORMER_DIVERSEORDER>  (1) 
1
17
14
50
22
51
23
19
6
16
2
38
33
35
34
47
21
37
15
49
12
32
48
30
43
9
28
27
13
40
26
45
29
41
25
46
39
42
4
5
44
24
3
11
7
18
20
31
36
8
10

>  <PUBCHEM_MMFF94_PARTIAL_CHARGES>  (1) 
10
1 -0.23
11 0.1
12 0.1
13 0.1
2 -0.23
3 -0.43
4 0.05
5 0.45
6 -0.2
7 0.28

>  <PUBCHEM_EFFECTIVE_ROTOR_COUNT>  (1) 
4.6

>  <PUBCHEM_PHARMACOPHORE_FEATURES>  (1) 
2
1 10 hydrophobe
1 3 acceptor

>  <PUBCHEM_HEAVY_ATOM_COUNT>  (1) 
10

>  <PUBCHEM_ATOM_DEF_STEREO_COUNT>  (1) 
0

>  <PUBCHEM_ATOM_UDEF_STEREO_COUNT>  (1) 
1

>  <PUBCHEM_BOND_DEF_STEREO_COUNT>  (1) 
0

>  <PUBCHEM_BOND_UDEF_STEREO_COUNT>  (1) 
0

>  <PUBCHEM_ISOTOPIC_ATOM_COUNT>  (1) 
0

>  <PUBCHEM_COMPONENT_COUNT>  (1) 
1

>  <PUBCHEM_CACTVS_TAUTO_COUNT>  (1) 
1

>  <PUBCHEM_CONFORMER_ID>  (1) 
0000669700000001

>  <PUBCHEM_MMFF94_ENERGY>  (1) 
6.8098

>  <PUBCHEM_FEATURE_SELFOVERLAP>  (1) 
10.148

>  <PUBCHEM_SHAPE_FINGERPRINT>  (1) 
12932764 1 17060618871766459378
13024252 1 13623531273116983291
14325111 11 18261114080107387786
15775835 57 17530679892297255737
18186145 218 18260840254557056614
18342897 96 18057606465107376065
190213 19 18333453149227281078
20300324 65 17846212254658400101
20645464 45 13334735708969840353
20645477 70 18201722800098028870
20828058 44 11818994097913482764
20871999 31 17773855598533192677
21293036 1 16415476064924532198
22169311 14 13984668052955369724
2306618 200 18040716952718381581
23402539 116 18202277013818268919
3248919 1 18410856525486026386
57265010 4 13406798817471898581

>  <PUBCHEM_SHAPE_MULTIPOLES>  (1) 
203.67
7.89
1.2
1.06
9.09
0.43
-0.21
1.43
-1.39
-0.95
0.33
-0.85
0.07
0.08

>  <PUBCHEM_SHAPE_SELFOVERLAP>  (1) 
365.067

>  <PUBCHEM_SHAPE_VOLUME>  (1) 
132.5

>  <PUBCHEM_COORDINATE_TYPE>  (1) 
2
5
10

$$$$
