26274
     RDKit          3D

 19 19  0  0  0  0  0  0  0  0999 V2000
   -1.2057   -0.7023    1.0687 O   0  0  0  0  0  0  0  0  0  0  0  0
   -1.8095   -0.2082   -1.1227 O   0  0  0  0  0  0  0  0  0  0  0  0
    4.8315    1.5029   -0.2817 O   0  0  0  0  0  0  0  0  0  0  0  0
    2.7105    1.8970    0.4775 O   0  0  0  0  0  0  0  0  0  0  0  0
   -3.1685    0.3373    0.6754 N   0  0  0  0  0  0  0  0  0  0  0  0
    3.3884   -0.2269   -0.2507 N   0  0  0  0  0  0  0  0  0  0  0  0
   -4.2498    0.9540   -0.0714 C   0  0  0  0  0  0  0  0  0  0  0  0
   -4.8461   -0.0728   -1.0410 C   0  0  0  0  0  0  0  0  0  0  0  0
   -5.3330    1.4288    0.9040 C   0  0  0  0  0  0  0  0  0  0  0  0
   -3.6985    2.1492   -0.8560 C   0  0  0  0  0  0  0  0  0  0  0  0
   -2.0449   -0.1898    0.0820 C   0  0  0  0  0  0  0  0  0  0  0  0
   -0.0286   -1.2643    0.5648 C   0  0  0  0  0  0  0  0  0  0  0  0
    1.0772   -0.4579    0.4158 C   0  0  0  0  0  0  0  0  0  0  0  0
    2.2512   -1.0186   -0.0872 C   0  0  0  0  0  0  0  0  0  0  0  0
   -0.0226   -2.6016    0.2377 C   0  0  0  0  0  0  0  0  0  0  0  0
    2.2884   -2.3708   -0.4277 C   0  0  0  0  0  0  0  0  0  0  0  0
    1.1514   -3.1622   -0.2652 C   0  0  0  0  0  0  0  0  0  0  0  0
    3.5513    1.1279    0.0279 C   0  0  0  0  0  0  0  0  0  0  0  0
    5.1573    2.8784   -0.0500 C   0  0  0  0  0  0  0  0  0  0  0  0
  1 11  1  0
  1 12  1  0
  2 11  2  0
  3 18  1  0
  3 19  1  0
  4 18  2  0
  5  7  1  0
  5 11  1  0
  6 14  1  0
  6 18  1  0
  7  8  1  0
  7  9  1  0
  7 10  1  0
 12 13  2  0
 12 15  1  0
 13 14  1  0
 14 16  2  0
 15 17  2  0
 16 17  1  0
M  END
>  <PUBCHEM_COMPOUND_CID>  (1) 
26274

>  <PUBCHEM_CONFORMER_RMSD>  (1) 
0.8

>  <PUBCHEM_CONFORMER_DIVERSEORDER>  (1) 
1
58
60
82
43
53
87
35
75
47
62
86
65
56
32
63
24
42
84
9
33
85
79
45
28
22
26
52
80
29
55
76
25
31
23
38
17
68
48
7
11
51
3
2
44
73
61
54
71
6
50
77
34
67
20
69
66
40
19
74
72
49
27
57
30
59
21
37
70
14
5
81
39
18
64
12
83
46
16
15
78
8
41
10
4
36
13

>  <PUBCHEM_MMFF94_PARTIAL_CHARGES>  (1) 
22
1 -0.23
11 0.78
12 0.08
13 -0.15
14 0.12
15 -0.15
16 -0.15
17 -0.15
18 0.78
19 0.28
2 -0.57
29 0.37
3 -0.43
30 0.15
31 0.15
32 0.15
33 0.15
34 0.37
4 -0.57
5 -0.73
6 -0.55
7 0.3

>  <PUBCHEM_EFFECTIVE_ROTOR_COUNT>  (1) 
7

>  <PUBCHEM_PHARMACOPHORE_FEATURES>  (1) 
6
1 2 acceptor
1 4 acceptor
1 5 donor
1 6 donor
4 7 8 9 10 hydrophobe
6 12 13 14 15 16 17 rings

>  <PUBCHEM_HEAVY_ATOM_COUNT>  (1) 
19

>  <PUBCHEM_ATOM_DEF_STEREO_COUNT>  (1) 
0

>  <PUBCHEM_ATOM_UDEF_STEREO_COUNT>  (1) 
0

>  <PUBCHEM_BOND_DEF_STEREO_COUNT>  (1) 
0

>  <PUBCHEM_BOND_UDEF_STEREO_COUNT>  (1) 
0

>  <PUBCHEM_ISOTOPIC_ATOM_COUNT>  (1) 
0

>  <PUBCHEM_COMPONENT_COUNT>  (1) 
1

>  <PUBCHEM_CACTVS_TAUTO_COUNT>  (1) 
4

>  <PUBCHEM_CONFORMER_ID>  (1) 
000066A200000001

>  <PUBCHEM_MMFF94_ENERGY>  (1) 
55.3968

>  <PUBCHEM_FEATURE_SELFOVERLAP>  (1) 
30.446

>  <PUBCHEM_SHAPE_FINGERPRINT>  (1) 
10411042 1 17690565182820931978
11543360 7 18342449306274357711
11796584 16 12823013084370633021
12293681 160 17775010111111390632
12390115 104 18267602362441395736
12403259 415 18337689601788873466
12616999 72 16774077341027005543
12730499 353 18337402568950499659
12769317 202 18341322323503195040
12788726 201 17757820500778786274
13955234 65 18263086504819867555
14123255 52 18410574015464142132
14251764 75 18264497341758362208
14774955 27 18335698359991552060
14848178 96 18412543215009629528
15342168 16 18408606976066282557
17834072 32 18265336277878168564
18186145 218 18198904708672045247
19784866 34 18413108372406987688
20645477 70 18129102217146005503
21401589 2 18188211012792794369
21709351 56 18196081158269107767
2255824 54 18197495125848682915
23402655 69 18202282511012423598
23557571 272 17532115872132927963
23559900 14 18193835929855839331
25 1 18412824690028232794
270888 7 18410575127987999872
2838139 119 18335696170064932164
43658 37 18412543227862596930
474 4 18411135827008643522
5104073 3 18187371974358046995
5281201 14 18122345679685854695
6327066 14 18263640830832282196
633830 44 18268711615440393823
77188 2 17689435984495049158
7808743 9 18191586565573284904
8272917 22 18271249296345022047
84936 182 18272086059164086208

>  <PUBCHEM_SHAPE_MULTIPOLES>  (1) 
357.57
11.03
3.29
0.92
4.2
0.54
-0.03
-10.91
-0.8
-3.99
-0.21
0.83
-0.04
0.12

>  <PUBCHEM_SHAPE_SELFOVERLAP>  (1) 
732.472

>  <PUBCHEM_SHAPE_VOLUME>  (1) 
205.8

>  <PUBCHEM_COORDINATE_TYPE>  (1) 
2
5
10

$$$$
