26273
     RDKit          3D

 14 14  0  0  0  0  0  0  0  0999 V2000
    2.0515    0.9400    0.0010 O   0  0  0  0  0  0  0  0  0  0  0  0
    2.1871   -1.3811   -0.0001 O   0  0  0  0  0  0  0  0  0  0  0  0
    4.1071   -0.0790    0.0000 N   0  0  0  0  0  0  0  0  0  0  0  0
   -4.3846   -2.0044   -0.0018 N   0  0  0  0  0  0  0  0  0  0  0  0
   -2.0869    0.6183    0.0004 C   0  0  0  0  0  0  0  0  0  0  0  0
    0.6946    0.8341    0.0006 C   0  0  0  0  0  0  0  0  0  0  0  0
   -1.3914    0.6701    1.2084 C   0  0  0  0  0  0  0  0  0  0  0  0
   -1.3916    0.6742   -1.2075 C   0  0  0  0  0  0  0  0  0  0  0  0
   -0.0006    0.7779    1.2085 C   0  0  0  0  0  0  0  0  0  0  0  0
   -0.0008    0.7821   -1.2074 C   0  0  0  0  0  0  0  0  0  0  0  0
   -3.5735    0.5021    0.0008 C   0  0  0  0  0  0  0  0  0  0  0  0
    2.7431   -0.2868   -0.0006 C   0  0  0  0  0  0  0  0  0  0  0  0
   -4.0319   -0.8989   -0.0009 C   0  0  0  0  0  0  0  0  0  0  0  0
    5.0778   -1.1486   -0.0015 C   0  0  0  0  0  0  0  0  0  0  0  0
  1  6  1  0
  1 12  1  0
  2 12  2  0
  3 12  1  0
  3 14  1  0
  4 13  3  0
  5  7  2  0
  5  8  1  0
  5 11  1  0
  6  9  2  0
  6 10  1  0
  7  9  1  0
  8 10  2  0
 11 13  1  0
M  END
>  <PUBCHEM_COMPOUND_CID>  (1) 
26273

>  <PUBCHEM_CONFORMER_RMSD>  (1) 
0.6

>  <PUBCHEM_CONFORMER_DIVERSEORDER>  (1) 
1
17
35
7
39
34
28
18
50
43
29
19
14
44
8
47
27
5
16
20
40
49
10
15
23
25
32
12
48
21
37
45
2
42
11
26
4
36
30
31
46
6
9
24
3
41
22
13
33
38

>  <PUBCHEM_MMFF94_PARTIAL_CHARGES>  (1) 
19
1 -0.23
10 -0.15
11 0.34
12 0.78
13 0.36
14 0.3
15 0.15
16 0.15
17 0.15
18 0.15
2 -0.57
21 0.37
3 -0.73
4 -0.56
5 -0.14
6 0.08
7 -0.15
8 -0.15
9 -0.15

>  <PUBCHEM_EFFECTIVE_ROTOR_COUNT>  (1) 
4

>  <PUBCHEM_PHARMACOPHORE_FEATURES>  (1) 
4
1 2 acceptor
1 3 donor
1 4 acceptor
6 5 6 7 8 9 10 rings

>  <PUBCHEM_HEAVY_ATOM_COUNT>  (1) 
14

>  <PUBCHEM_ATOM_DEF_STEREO_COUNT>  (1) 
0

>  <PUBCHEM_ATOM_UDEF_STEREO_COUNT>  (1) 
0

>  <PUBCHEM_BOND_DEF_STEREO_COUNT>  (1) 
0

>  <PUBCHEM_BOND_UDEF_STEREO_COUNT>  (1) 
0

>  <PUBCHEM_ISOTOPIC_ATOM_COUNT>  (1) 
0

>  <PUBCHEM_COMPONENT_COUNT>  (1) 
1

>  <PUBCHEM_CACTVS_TAUTO_COUNT>  (1) 
2

>  <PUBCHEM_CONFORMER_ID>  (1) 
000066A100000001

>  <PUBCHEM_MMFF94_ENERGY>  (1) 
30.6631

>  <PUBCHEM_FEATURE_SELFOVERLAP>  (1) 
20.297

>  <PUBCHEM_SHAPE_FINGERPRINT>  (1) 
10465860 250 17918274251264523625
106641 1 15482097388631356991
11046707 91 18408885144197782351
11132069 177 14908183049286163749
11206711 2 15719378530666518677
11769659 78 18410008858129678179
12251169 10 15339113546048124593
124424 183 17774999077577880513
13288520 33 18409450271388334503
13675066 3 17275102804035693036
13705890 14 18261672666094383513
14123255 352 10519991447948596043
14252887 29 16917075447111842006
14350558 41 18338241556588892399
14911166 2 15647053780872403813
14943859 89 7997966868996347372
14993402 34 14273456976492118909
15209294 21 12535637063445718131
15375462 189 17775276171155004446
17834072 33 18409454717138590796
18186145 218 15140963993313392893
187816 3 15791734091833359873
19026448 4 18411408540600678001
19026448 5 18410022056443327221
200 152 18334577927804846064
20201158 50 17386012728273423392
20871999 31 16443340953573415637
21119208 17 13045947893323591600
21256008 23 17132396120245566585
21637258 2 18339912797041323967
22485316 2 18261107439628771860
22713019 99 17458345264526753891
231179 274 10881396521835485312
23379529 103 17244439813214286723
23402539 116 16588021277851822540
23402655 69 16733533928190398853
23559900 14 18411129277215613969
26918003 58 18202561752764421929
2748010 2 15431747512806113345
3286 77 18409165532595467308
4175511 318 13045947906129411483
449060 23 17821725044460670645
76465 3 17895462653479467458

>  <PUBCHEM_SHAPE_MULTIPOLES>  (1) 
266.41
8.68
1.41
1.04
4.55
0.66
0
5.43
0.01
-0.74
0
-0.31
-0.32
0

>  <PUBCHEM_SHAPE_SELFOVERLAP>  (1) 
547.091

>  <PUBCHEM_SHAPE_VOLUME>  (1) 
149.4

>  <PUBCHEM_COORDINATE_TYPE>  (1) 
2
5
10

$$$$
