26278
     RDKit          3D

 25 28  0  0  0  0  0  0  0  0999 V2000
   -2.2486   -1.3898   -0.0548 N   0  0  0  0  0  0  0  0  0  0  0  0
    1.6941   -0.2162   -1.0650 N   0  0  0  0  0  0  0  0  0  0  0  0
   -1.1840   -0.4168   -0.2984 C   0  0  0  0  0  0  0  0  0  0  0  0
    0.0005   -0.7557    0.6497 C   0  0  0  0  0  0  0  0  0  0  0  0
   -0.6523   -0.6563   -1.7396 C   0  0  0  0  0  0  0  0  0  0  0  0
    1.2605    0.0504    0.3116 C   0  0  0  0  0  0  0  0  0  0  0  0
    0.6427    0.1155   -2.0341 C   0  0  0  0  0  0  0  0  0  0  0  0
   -3.3869   -1.1413   -0.9505 C   0  0  0  0  0  0  0  0  0  0  0  0
   -2.6641   -1.3551    1.3544 C   0  0  0  0  0  0  0  0  0  0  0  0
   -1.7647    0.9851   -0.0327 C   0  0  0  0  0  0  0  0  0  0  0  0
   -4.4897   -2.1808   -0.7430 C   0  0  0  0  0  0  0  0  0  0  0  0
   -3.7432   -2.4013    1.6374 C   0  0  0  0  0  0  0  0  0  0  0  0
   -4.9420   -2.2260    0.7120 C   0  0  0  0  0  0  0  0  0  0  0  0
    2.9238    0.5145   -1.3688 C   0  0  0  0  0  0  0  0  0  0  0  0
   -1.7125    1.5230    1.2497 C   0  0  0  0  0  0  0  0  0  0  0  0
   -2.3382    1.7046   -1.0767 C   0  0  0  0  0  0  0  0  0  0  0  0
    4.0511    0.1213   -0.4515 C   0  0  0  0  0  0  0  0  0  0  0  0
   -2.2386    2.7922    1.4904 C   0  0  0  0  0  0  0  0  0  0  0  0
   -2.8642    2.9739   -0.8361 C   0  0  0  0  0  0  0  0  0  0  0  0
   -2.8144    3.5176    0.4476 C   0  0  0  0  0  0  0  0  0  0  0  0
    4.2375    0.8126    0.7376 C   0  0  0  0  0  0  0  0  0  0  0  0
    4.8884   -0.9265   -0.8079 C   0  0  0  0  0  0  0  0  0  0  0  0
    5.2821    0.4486    1.5873 C   0  0  0  0  0  0  0  0  0  0  0  0
    5.9330   -1.2906    0.0418 C   0  0  0  0  0  0  0  0  0  0  0  0
    6.1299   -0.6030    1.2394 C   0  0  0  0  0  0  0  0  0  0  0  0
  1  3  1  0
  1  8  1  0
  1  9  1  0
  2  6  1  0
  2  7  1  0
  2 14  1  0
  3  4  1  0
  3  5  1  0
  3 10  1  0
  4  6  1  0
  5  7  1  0
  8 11  1  0
  9 12  1  0
 10 15  2  0
 10 16  1  0
 11 13  1  0
 12 13  1  0
 14 17  1  0
 15 18  1  0
 16 19  2  0
 17 21  2  0
 17 22  1  0
 18 20  2  0
 19 20  1  0
 21 23  1  0
 22 24  2  0
 23 25  2  0
 24 25  1  0
M  END
>  <PUBCHEM_COMPOUND_CID>  (1) 
26278

>  <PUBCHEM_CONFORMER_RMSD>  (1) 
0.8

>  <PUBCHEM_CONFORMER_DIVERSEORDER>  (1) 
1
23
20
26
17
15
19
28
30
18
29
24
16
7
27
13
25
14
10
11
8
6
3
9
22
5
4
21
12
2

>  <PUBCHEM_MMFF94_PARTIAL_CHARGES>  (1) 
30
1 -0.81
10 -0.14
14 0.41
15 -0.15
16 -0.15
17 -0.14
18 -0.15
19 -0.15
2 -0.81
20 -0.15
21 -0.15
22 -0.15
23 -0.15
24 -0.15
25 -0.15
3 0.41
46 0.15
47 0.15
48 0.15
49 0.15
50 0.15
51 0.15
52 0.15
53 0.15
54 0.15
55 0.15
6 0.27
7 0.27
8 0.27
9 0.27

>  <PUBCHEM_EFFECTIVE_ROTOR_COUNT>  (1) 
6.4

>  <PUBCHEM_PHARMACOPHORE_FEATURES>  (1) 
6
1 1 cation
1 2 cation
6 1 8 9 11 12 13 rings
6 10 15 16 18 19 20 rings
6 17 21 22 23 24 25 rings
6 2 3 4 5 6 7 rings

>  <PUBCHEM_HEAVY_ATOM_COUNT>  (1) 
25

>  <PUBCHEM_ATOM_DEF_STEREO_COUNT>  (1) 
0

>  <PUBCHEM_ATOM_UDEF_STEREO_COUNT>  (1) 
0

>  <PUBCHEM_BOND_DEF_STEREO_COUNT>  (1) 
0

>  <PUBCHEM_BOND_UDEF_STEREO_COUNT>  (1) 
0

>  <PUBCHEM_ISOTOPIC_ATOM_COUNT>  (1) 
0

>  <PUBCHEM_COMPONENT_COUNT>  (1) 
1

>  <PUBCHEM_CACTVS_TAUTO_COUNT>  (1) 
1

>  <PUBCHEM_CONFORMER_ID>  (1) 
000066A600000001

>  <PUBCHEM_MMFF94_ENERGY>  (1) 
74.9418

>  <PUBCHEM_FEATURE_SELFOVERLAP>  (1) 
30.449

>  <PUBCHEM_SHAPE_FINGERPRINT>  (1) 
10074138 170 18337406954570882937
10291535 26 17702942522315676176
11315181 36 17821727248042598534
11545043 162 18271526412652464306
11578080 2 17558578844848741013
12035758 1 18200896010677751601
12166972 35 17313669372823531351
12403259 415 17418382381018674556
12403814 3 17560798874472911375
12422481 6 17845953891090477281
12596602 18 18260540148307622016
12760667 363 18335702788483058187
12788726 201 18263942075110276718
12892183 10 18341890788790320550
12930653 34 18341052912984156246
13004483 165 18263651830221875887
13073987 5 18408595960477390906
131258 38 15585195424149836513
13533116 47 18041844038283753918
13583140 156 18059849533357796814
14068700 675 18115023125233662007
14178342 30 18261963946623953414
14251764 38 18060692876041326584
15131766 46 16413498159481194608
15188451 53 18260819428234440026
15420108 30 17390213841839069965
17349148 13 17676493868962109694
17844677 252 18413388752963687696
1813 80 18056779825789499023
18927931 339 18412831291266554919
200 152 17676766577805093663
20600515 1 17985566665240268187
21033648 29 17632279156840895176
21304303 282 18118388572040365821
2132832 1 18187651348584598868
22182313 1 17559973046967527268
23402539 116 18411699915598169639
23557571 272 18270694090101474181
23559900 14 17532367758588903740
283562 15 18408884044850022987
3004659 81 15140948583472037474
312423 11 18041574623528004372
3886686 26 17976260132076364370
4058900 60 8356889289221795207
4409770 3 18412536597123993959
463206 1 17899138488266060051
469060 322 18338531806067868289
497634 4 17894629262372917102
5104073 3 18411694354084630346
5924683 9 18333733507058827130
59755656 520 18190739731045037941
6913067 236 17846780740893264319
81228 2 18122376582297159573
960060 61 14490186138051028606
9981440 41 17844802586330570999

>  <PUBCHEM_SHAPE_MULTIPOLES>  (1) 
504.53
12.32
3.08
1.76
18.83
2.15
-0.1
-5.59
3.46
-6.15
0.81
0.02
-0.01
0.53

>  <PUBCHEM_SHAPE_SELFOVERLAP>  (1) 
1080.754

>  <PUBCHEM_SHAPE_VOLUME>  (1) 
274.8

>  <PUBCHEM_COORDINATE_TYPE>  (1) 
2
5
10

$$$$
