26284
     RDKit          3D

 33 37  0  0  0  0  0  0  0  0999 V2000
    3.6325   -1.8195    1.7956 S   0  0  0  0  0  0  0  0  0  0  0  0
   -3.8360    2.5658    1.8657 O   0  0  0  0  0  0  0  0  0  0  0  0
   -4.5819    0.1939   -0.3153 N   0  0  0  0  0  0  0  0  0  0  0  0
   -0.5050    1.2043    0.1854 N   0  0  0  0  0  0  0  0  0  0  0  0
   -4.7962    2.9889   -0.1821 N   0  0  0  0  0  0  0  0  0  0  0  0
    2.6222   -0.2257   -0.6752 N   0  0  0  0  0  0  0  0  0  0  0  0
   -3.4360    1.0103    0.0846 C   0  0  0  0  0  0  0  0  0  0  0  0
   -2.5934    0.2539    1.1192 C   0  0  0  0  0  0  0  0  0  0  0  0
   -2.5886    1.3572   -1.1459 C   0  0  0  0  0  0  0  0  0  0  0  0
   -1.2701    0.9692    1.4168 C   0  0  0  0  0  0  0  0  0  0  0  0
   -1.2655    2.0301   -0.7618 C   0  0  0  0  0  0  0  0  0  0  0  0
   -4.1302   -1.0253   -1.0005 C   0  0  0  0  0  0  0  0  0  0  0  0
   -5.4146   -0.1300    0.8516 C   0  0  0  0  0  0  0  0  0  0  0  0
   -5.3180   -1.8671   -1.4690 C   0  0  0  0  0  0  0  0  0  0  0  0
   -6.6446   -0.9425    0.4434 C   0  0  0  0  0  0  0  0  0  0  0  0
   -4.0258    2.2584    0.6914 C   0  0  0  0  0  0  0  0  0  0  0  0
   -6.2486   -2.2069   -0.3103 C   0  0  0  0  0  0  0  0  0  0  0  0
    0.7800    1.8318    0.4938 C   0  0  0  0  0  0  0  0  0  0  0  0
    1.6353    2.0325   -0.7611 C   0  0  0  0  0  0  0  0  0  0  0  0
    1.9401    0.7503   -1.5349 C   0  0  0  0  0  0  0  0  0  0  0  0
    3.9260    0.1012   -0.2236 C   0  0  0  0  0  0  0  0  0  0  0  0
    1.9521   -1.4480   -0.4158 C   0  0  0  0  0  0  0  0  0  0  0  0
    4.5036   -0.5684    0.8732 C   0  0  0  0  0  0  0  0  0  0  0  0
    2.3343   -2.2712    0.6619 C   0  0  0  0  0  0  0  0  0  0  0  0
    4.7166    1.0789   -0.8662 C   0  0  0  0  0  0  0  0  0  0  0  0
    0.9026   -1.9144   -1.2374 C   0  0  0  0  0  0  0  0  0  0  0  0
    6.0063    1.3927   -0.4287 C   0  0  0  0  0  0  0  0  0  0  0  0
    5.7998   -0.2453    1.3124 C   0  0  0  0  0  0  0  0  0  0  0  0
    1.6710   -3.4860    0.9103 C   0  0  0  0  0  0  0  0  0  0  0  0
    6.5472    0.7322    0.6640 C   0  0  0  0  0  0  0  0  0  0  0  0
    0.2500   -3.1250   -0.9888 C   0  0  0  0  0  0  0  0  0  0  0  0
    0.6323   -3.9100    0.0881 C   0  0  0  0  0  0  0  0  0  0  0  0
    6.8028    2.4336   -1.1410 C   0  0  0  0  0  0  0  0  0  0  0  0
  1 23  1  0
  1 24  1  0
  2 16  2  0
  3  7  1  0
  3 12  1  0
  3 13  1  0
  4 10  1  0
  4 11  1  0
  4 18  1  0
  5 16  1  0
  6 20  1  0
  6 21  1  0
  6 22  1  0
  7  8  1  0
  7  9  1  0
  7 16  1  0
  8 10  1  0
  9 11  1  0
 12 14  1  0
 13 15  1  0
 14 17  1  0
 15 17  1  0
 18 19  1  0
 19 20  1  0
 21 23  2  0
 21 25  1  0
 22 24  2  0
 22 26  1  0
 23 28  1  0
 24 29  1  0
 25 27  2  0
 26 31  2  0
 27 30  1  0
 27 33  1  0
 28 30  2  0
 29 32  2  0
 31 32  1  0
M  END
>  <PUBCHEM_COMPOUND_CID>  (1) 
26284

>  <PUBCHEM_CONFORMER_RMSD>  (1) 
1

>  <PUBCHEM_CONFORMER_DIVERSEORDER>  (1) 
3
10
50
94
41
36
112
9
72
82
37
31
122
81
106
76
119
23
16
4
67
69
42
125
90
8
27
44
12
66
55
29
97
61
107
68
83
32
39
59
87
101
89
13
52
105
22
38
56
120
73
63
86
100
2
123
121
40
30
21
113
115
77
47
62
91
48
1
20
65
95
80
54
58
110
17
34
93
49
60
33
126
46
7
51
5
75
78
96
24
88
117
99
28
108
6
114
79
53
92
98
84
15
127
118
71
109
14
11
74
70
128
45
35
129
43
102
111
116
64
103
26
18
85
19
104
124
57
25

>  <PUBCHEM_MMFF94_PARTIAL_CHARGES>  (1) 
36
1 -0.2
10 0.27
11 0.27
12 0.27
13 0.27
16 0.57
18 0.27
2 -0.57
20 0.37
21 0.1
22 0.1
23 0.1
24 0.1
25 -0.15
26 -0.15
27 -0.14
28 -0.15
29 -0.15
3 -0.81
30 -0.15
31 -0.15
32 -0.15
33 0.14
4 -0.81
5 -0.8
56 0.37
57 0.37
6 -0.57
60 0.15
61 0.15
62 0.15
63 0.15
64 0.15
65 0.15
66 0.15
7 0.33

>  <PUBCHEM_EFFECTIVE_ROTOR_COUNT>  (1) 
8.8

>  <PUBCHEM_PHARMACOPHORE_FEATURES>  (1) 
10
1 2 acceptor
1 3 cation
1 4 cation
1 5 donor
1 6 cation
6 1 6 21 22 23 24 rings
6 21 23 25 27 28 30 rings
6 22 24 26 29 31 32 rings
6 3 12 13 14 15 17 rings
6 4 7 8 9 10 11 rings

>  <PUBCHEM_HEAVY_ATOM_COUNT>  (1) 
33

>  <PUBCHEM_ATOM_DEF_STEREO_COUNT>  (1) 
0

>  <PUBCHEM_ATOM_UDEF_STEREO_COUNT>  (1) 
0

>  <PUBCHEM_BOND_DEF_STEREO_COUNT>  (1) 
0

>  <PUBCHEM_BOND_UDEF_STEREO_COUNT>  (1) 
0

>  <PUBCHEM_ISOTOPIC_ATOM_COUNT>  (1) 
0

>  <PUBCHEM_COMPONENT_COUNT>  (1) 
1

>  <PUBCHEM_CACTVS_TAUTO_COUNT>  (1) 
2

>  <PUBCHEM_CONFORMER_ID>  (1) 
000066AC00000003

>  <PUBCHEM_MMFF94_ENERGY>  (1) 
100.0081

>  <PUBCHEM_FEATURE_SELFOVERLAP>  (1) 
50.778

>  <PUBCHEM_SHAPE_FINGERPRINT>  (1) 
10290309 65 17703233919210192471
10319688 67 18198041755769483168
10842051 180 18336538430336887095
1100329 8 18195242441413562038
11007060 377 18197787802674900344
11136131 41 18188480286459202202
11513181 2 18060140907918537135
12596602 18 18201719531279405968
12788726 201 18123468547588977014
13583140 156 17845923049252623561
1361 2 18263081170723595544
13631057 29 18273209833489287431
13726171 33 17775016639498467273
14068700 675 18129094701190120565
14394314 77 18413393142373200961
1454969 45 18335420196682416644
14787075 74 18342737438281435612
14790565 3 18410013252087372732
14840074 17 18408884061639131662
15001296 14 18266734873299630875
15183329 4 9007062383118926536
15297060 5 17346609616159052391
15968369 153 17699279185789547126
16992610 120 18262256508024618332
17138139 8 18128241488198095902
17857418 61 18410292519529631113
17980427 23 17822018605153982748
19377110 9 18410295800531133171
20028762 73 18341328904000052902
20511986 3 18339348657276369169
20764821 26 18120097436464533587
21197605 99 18334299794371292410
21344244 181 17845671295586758566
22393880 68 18269565943958287015
23559900 14 17833268623398098750
23569917 315 18410859854698539394
249057 3 8142084239569905945
350125 39 18341331192710589165
392239 28 18131349734697279667
4098825 35 17749659737062490709
4258327 124 17898302847224160300
437795 51 17417525947070125584
439807 62 18042121124321742723
463206 1 18198902711886896535
550186 72 18411697686515911125

>  <PUBCHEM_SHAPE_MULTIPOLES>  (1) 
657.18
16.4
3.92
1.51
1.37
2.19
0.17
-3.85
0.57
0.51
-0.05
-0.16
0.03
-2.69

>  <PUBCHEM_SHAPE_SELFOVERLAP>  (1) 
1398.413

>  <PUBCHEM_SHAPE_VOLUME>  (1) 
366.7

>  <PUBCHEM_COORDINATE_TYPE>  (1) 
2
5
10

$$$$
