26285
     RDKit          3D

 11 11  0  0  0  0  0  0  0  0999 V2000
   -4.5417   -0.3793   -0.0090 Cl  0  0  0  0  0  0  0  0  0  0  0  0
   -1.7186   -1.3423    0.0010 S   0  0  0  0  0  0  0  0  0  0  0  0
    2.1086    1.2884    0.0063 O   0  0  0  0  0  0  0  0  0  0  0  0
    0.8173   -0.6795    0.0065 N   0  0  0  0  0  0  0  0  0  0  0  0
   -0.8253    1.0835    0.0019 N   0  0  0  0  0  0  0  0  0  0  0  0
    3.2025   -0.8542    0.0097 C   0  0  0  0  0  0  0  0  0  0  0  0
    1.9912    0.0677    0.0075 C   0  0  0  0  0  0  0  0  0  0  0  0
    4.5178   -0.0968   -0.0242 C   0  0  0  0  0  0  0  0  0  0  0  0
   -0.4831   -0.1684    0.0039 C   0  0  0  0  0  0  0  0  0  0  0  0
   -2.8636   -0.0655   -0.0019 C   0  0  0  0  0  0  0  0  0  0  0  0
   -2.2051    1.1464   -0.0017 C   0  0  0  0  0  0  0  0  0  0  0  0
  1 10  1  0
  2  9  1  0
  2 10  1  0
  3  7  2  0
  4  7  1  0
  4  9  1  0
  5  9  2  0
  5 11  1  0
  6  7  1  0
  6  8  1  0
 10 11  2  0
M  END
>  <PUBCHEM_COMPOUND_CID>  (1) 
26285

>  <PUBCHEM_CONFORMER_RMSD>  (1) 
0.6

>  <PUBCHEM_CONFORMER_DIVERSEORDER>  (1) 
1
5
4
3
2

>  <PUBCHEM_MMFF94_PARTIAL_CHARGES>  (1) 
12
1 -0.12
10 0.16
11 0.08
14 0.37
18 0.15
2 -0.08
3 -0.57
4 -0.49
5 -0.57
6 0.06
7 0.57
9 0.44

>  <PUBCHEM_EFFECTIVE_ROTOR_COUNT>  (1) 
3

>  <PUBCHEM_PHARMACOPHORE_FEATURES>  (1) 
4
1 3 acceptor
1 4 donor
1 8 hydrophobe
5 2 5 9 10 11 rings

>  <PUBCHEM_HEAVY_ATOM_COUNT>  (1) 
11

>  <PUBCHEM_ATOM_DEF_STEREO_COUNT>  (1) 
0

>  <PUBCHEM_ATOM_UDEF_STEREO_COUNT>  (1) 
0

>  <PUBCHEM_BOND_DEF_STEREO_COUNT>  (1) 
0

>  <PUBCHEM_BOND_UDEF_STEREO_COUNT>  (1) 
0

>  <PUBCHEM_ISOTOPIC_ATOM_COUNT>  (1) 
0

>  <PUBCHEM_COMPONENT_COUNT>  (1) 
1

>  <PUBCHEM_CACTVS_TAUTO_COUNT>  (1) 
3

>  <PUBCHEM_CONFORMER_ID>  (1) 
000066AD00000001

>  <PUBCHEM_MMFF94_ENERGY>  (1) 
8.4228

>  <PUBCHEM_FEATURE_SELFOVERLAP>  (1) 
20.297

>  <PUBCHEM_SHAPE_FINGERPRINT>  (1) 
11062470 55 11530483328594462603
12032990 46 18408609188454507171
12932764 1 17095791196339897402
13380535 76 18411139125596871847
13690532 89 18408039589401179122
14123238 8 18273495676083806026
14144814 61 18337389349040928546
14325111 11 18410573951023827848
17834076 25 8358257046730559914
18522853 276 18342457040956531008
200 152 18060131042614994607
20201158 50 18343023276465040022
20279233 1 18202571674355484958
20645477 70 17916872309836795270
21119208 17 18259702302507634383
23402539 116 18272643541929964733
23402655 69 18340761551308845229
69090 78 18272083916007320007

>  <PUBCHEM_SHAPE_MULTIPOLES>  (1) 
216.26
8.02
1.25
0.61
2.4
0.08
0
-0.87
-0.05
-0.24
0
-0.05
-0.03
0

>  <PUBCHEM_SHAPE_SELFOVERLAP>  (1) 
415.005

>  <PUBCHEM_SHAPE_VOLUME>  (1) 
133.6

>  <PUBCHEM_COORDINATE_TYPE>  (1) 
2
5
10

$$$$
