26282
     RDKit          3D

 33 37  0  0  0  0  0  0  0  0999 V2000
    6.9366    2.5688   -1.2229 Cl  0  0  0  0  0  0  0  0  0  0  0  0
    3.6198   -1.8454    1.7962 S   0  0  0  0  0  0  0  0  0  0  0  0
   -3.8369    2.5624    1.8768 O   0  0  0  0  0  0  0  0  0  0  0  0
   -4.5850    0.2058   -0.3199 N   0  0  0  0  0  0  0  0  0  0  0  0
   -0.5062    1.2008    0.1958 N   0  0  0  0  0  0  0  0  0  0  0  0
   -4.7912    3.0006   -0.1705 N   0  0  0  0  0  0  0  0  0  0  0  0
    2.6185   -0.2336   -0.6662 N   0  0  0  0  0  0  0  0  0  0  0  0
   -3.4376    1.0163    0.0874 C   0  0  0  0  0  0  0  0  0  0  0  0
   -2.5864    1.3679   -1.1391 C   0  0  0  0  0  0  0  0  0  0  0  0
   -2.5995    0.2512    1.1193 C   0  0  0  0  0  0  0  0  0  0  0  0
   -1.2621    2.0345   -0.7481 C   0  0  0  0  0  0  0  0  0  0  0  0
   -1.2748    0.9607    1.4241 C   0  0  0  0  0  0  0  0  0  0  0  0
   -5.4214   -0.1226    0.8432 C   0  0  0  0  0  0  0  0  0  0  0  0
   -4.1355   -1.0107   -1.0113 C   0  0  0  0  0  0  0  0  0  0  0  0
   -6.6529   -0.9289    0.4274 C   0  0  0  0  0  0  0  0  0  0  0  0
   -5.3248   -1.8461   -1.4874 C   0  0  0  0  0  0  0  0  0  0  0  0
   -4.0249    2.2625    0.7003 C   0  0  0  0  0  0  0  0  0  0  0  0
   -6.2589   -2.1899   -0.3329 C   0  0  0  0  0  0  0  0  0  0  0  0
    0.7799    1.8225    0.5108 C   0  0  0  0  0  0  0  0  0  0  0  0
    1.6387    2.0280   -0.7410 C   0  0  0  0  0  0  0  0  0  0  0  0
    1.9413    0.7496   -1.5217 C   0  0  0  0  0  0  0  0  0  0  0  0
    3.9233    0.0852   -0.2118 C   0  0  0  0  0  0  0  0  0  0  0  0
    1.9441   -1.4554   -0.4156 C   0  0  0  0  0  0  0  0  0  0  0  0
    4.4972   -0.5932    0.8816 C   0  0  0  0  0  0  0  0  0  0  0  0
    2.3222   -2.2865    0.6574 C   0  0  0  0  0  0  0  0  0  0  0  0
    4.7186    1.0632   -0.8483 C   0  0  0  0  0  0  0  0  0  0  0  0
    0.8947   -1.9134   -1.2420 C   0  0  0  0  0  0  0  0  0  0  0  0
    5.7947   -0.2785    1.3232 C   0  0  0  0  0  0  0  0  0  0  0  0
    1.6555   -3.5015    0.8965 C   0  0  0  0  0  0  0  0  0  0  0  0
    6.0095    1.3683   -0.4084 C   0  0  0  0  0  0  0  0  0  0  0  0
    0.2388   -3.1242   -1.0029 C   0  0  0  0  0  0  0  0  0  0  0  0
    6.5469    0.6991    0.6805 C   0  0  0  0  0  0  0  0  0  0  0  0
    0.6176   -3.9175    0.0693 C   0  0  0  0  0  0  0  0  0  0  0  0
  1 30  1  0
  2 24  1  0
  2 25  1  0
  3 17  2  0
  4  8  1  0
  4 13  1  0
  4 14  1  0
  5 11  1  0
  5 12  1  0
  5 19  1  0
  6 17  1  0
  7 21  1  0
  7 22  1  0
  7 23  1  0
  8  9  1  0
  8 10  1  0
  8 17  1  0
  9 11  1  0
 10 12  1  0
 13 15  1  0
 14 16  1  0
 15 18  1  0
 16 18  1  0
 19 20  1  0
 20 21  1  0
 22 24  2  0
 22 26  1  0
 23 25  2  0
 23 27  1  0
 24 28  1  0
 25 29  1  0
 26 30  2  0
 27 31  2  0
 28 32  2  0
 29 33  2  0
 30 32  1  0
 31 33  1  0
M  END
>  <PUBCHEM_COMPOUND_CID>  (1) 
26282

>  <PUBCHEM_CONFORMER_RMSD>  (1) 
1

>  <PUBCHEM_CONFORMER_DIVERSEORDER>  (1) 
3
10
51
101
53
9
25
117
89
62
91
121
24
27
108
93
50
105
44
54
74
106
8
107
30
124
88
73
94
65
64
19
48
87
100
58
82
28
33
70
77
81
36
86
123
35
85
23
76
7
113
109
59
78
2
32
52
46
56
17
38
118
131
18
13
125
34
26
14
68
66
37
134
45
15
40
111
116
84
57
16
42
135
71
4
129
126
92
12
63
5
47
29
103
49
128
99
1
130
80
22
95
112
110
98
67
72
20
83
115
120
90
31
114
69
6
96
55
102
119
122
39
75
61
97
43
11
41
133
79
127
132
60
104
21

>  <PUBCHEM_MMFF94_PARTIAL_CHARGES>  (1) 
36
1 -0.18
11 0.27
12 0.27
13 0.27
14 0.27
17 0.57
19 0.27
2 -0.2
21 0.37
22 0.1
23 0.1
24 0.1
25 0.1
26 -0.15
27 -0.15
28 -0.15
29 -0.15
3 -0.57
30 0.18
31 -0.15
32 -0.15
33 -0.15
4 -0.81
5 -0.81
56 0.37
57 0.37
6 -0.8
60 0.15
61 0.15
62 0.15
63 0.15
64 0.15
65 0.15
66 0.15
7 -0.57
8 0.33

>  <PUBCHEM_EFFECTIVE_ROTOR_COUNT>  (1) 
8.8

>  <PUBCHEM_PHARMACOPHORE_FEATURES>  (1) 
10
1 3 acceptor
1 4 cation
1 5 cation
1 6 donor
1 7 cation
6 2 7 22 23 24 25 rings
6 22 24 26 28 30 32 rings
6 23 25 27 29 31 33 rings
6 4 13 14 15 16 18 rings
6 5 8 9 10 11 12 rings

>  <PUBCHEM_HEAVY_ATOM_COUNT>  (1) 
33

>  <PUBCHEM_ATOM_DEF_STEREO_COUNT>  (1) 
0

>  <PUBCHEM_ATOM_UDEF_STEREO_COUNT>  (1) 
0

>  <PUBCHEM_BOND_DEF_STEREO_COUNT>  (1) 
0

>  <PUBCHEM_BOND_UDEF_STEREO_COUNT>  (1) 
0

>  <PUBCHEM_ISOTOPIC_ATOM_COUNT>  (1) 
0

>  <PUBCHEM_COMPONENT_COUNT>  (1) 
1

>  <PUBCHEM_CACTVS_TAUTO_COUNT>  (1) 
2

>  <PUBCHEM_CONFORMER_ID>  (1) 
000066AA00000003

>  <PUBCHEM_MMFF94_ENERGY>  (1) 
98.1961

>  <PUBCHEM_FEATURE_SELFOVERLAP>  (1) 
50.778

>  <PUBCHEM_SHAPE_FINGERPRINT>  (1) 
10290309 65 17703796869142488823
10319688 67 18198041751474502890
10842051 180 18336537330846384327
1100329 8 18195522812562604606
11007060 377 18198069277646323256
11136131 41 18188479186947580922
11513181 2 18060422382932158071
12596602 18 18201999906744475872
12788726 201 18123187072617554046
13583140 156 17845923044952388017
1361 2 18334576897213538408
13631057 29 18201152239456640727
13726171 33 17703239420920321489
14068700 675 18129093601678492789
14394314 77 18413110567874319505
1454969 45 18335701671664421540
14787075 74 18343018908957891212
14790565 3 18410013252092666972
14840074 17 18408884061623339894
15001296 14 18266733773819599683
15183329 4 8935004789075730320
15297060 5 17346609616159052399
15968369 153 17699560660766257790
16112460 7 18336262461771883204
16992610 120 18262256508024624836
17857418 61 18410573994511603545
17980427 23 17822018605164538740
19377110 9 18410577271223452027
20028762 73 18341328908279176478
20511986 3 18267572538199321177
20764821 26 18120096332657951539
208703 8 16985446533861702103
21197605 99 18334580169825825786
21344244 181 17845671291286503542
22393880 68 18269564844462515959
23559900 14 17833550098369541134
23569917 315 18411141329675256558
249057 3 8142084239564644201
392239 28 18131349734697286171
4098825 35 17749659732756980421
4258327 124 17898303946741036860
437795 51 17345748728502548792
439807 62 18042402599298446859
463206 1 18198902711892171295
550186 72 18411697686510649373

>  <PUBCHEM_SHAPE_MULTIPOLES>  (1) 
659.05
16.55
3.96
1.52
0.89
2.14
0.17
-4.36
0.28
0.29
-0.08
-0.18
0.02
-2.85

>  <PUBCHEM_SHAPE_SELFOVERLAP>  (1) 
1395.266

>  <PUBCHEM_SHAPE_VOLUME>  (1) 
369.9

>  <PUBCHEM_COORDINATE_TYPE>  (1) 
2
5
10

$$$$
