26299
     RDKit          3D

 10 10  0  0  1  0  0  0  0  0999 V2000
   -0.6007   -0.0631   -0.1751 C   0  0  0  0  0  0  0  0  0  0  0  0
   -0.1752   -1.5081    0.1355 C   0  0  0  0  0  0  0  0  0  0  0  0
   -2.0316    0.1897    0.2967 C   0  0  0  0  0  0  0  0  0  0  0  0
    0.3670    0.9463    0.4650 C   0  0  0  0  0  0  0  0  0  0  0  0
    1.2724   -1.7717   -0.2846 C   0  0  0  0  0  0  0  0  0  0  0  0
    2.2395   -0.7687    0.3442 C   0  0  0  0  0  0  0  0  0  0  0  0
    1.7910    0.6433    0.0753 C   0  0  0  0  0  0  0  0  0  0  0  0
   -2.4697    1.6090   -0.0568 C   0  0  0  0  0  0  0  0  0  0  0  0
   -2.9858   -0.8349   -0.3122 C   0  0  0  0  0  0  0  0  0  0  0  0
    2.5933    1.5581   -0.4880 C   0  0  0  0  0  0  0  0  0  0  0  0
  1  2  1  0
  1  3  1  0
  1  4  1  0
  2  5  1  0
  3  8  1  0
  3  9  1  0
  4  7  1  0
  5  6  1  0
  6  7  1  0
  7 10  2  0
M  END
>  <PUBCHEM_COMPOUND_CID>  (1) 
26299

>  <PUBCHEM_CONFORMER_RMSD>  (1) 
0.4

>  <PUBCHEM_CONFORMER_DIVERSEORDER>  (1) 
1
10
4
7
5
9
6
3
8
2

>  <PUBCHEM_MMFF94_PARTIAL_CHARGES>  (1) 
6
10 -0.3
27 0.15
28 0.15
4 0.14
6 0.14
7 -0.28

>  <PUBCHEM_EFFECTIVE_ROTOR_COUNT>  (1) 
2

>  <PUBCHEM_PHARMACOPHORE_FEATURES>  (1) 
2
3 3 8 9 hydrophobe
6 1 2 4 5 6 7 rings

>  <PUBCHEM_HEAVY_ATOM_COUNT>  (1) 
10

>  <PUBCHEM_ATOM_DEF_STEREO_COUNT>  (1) 
1

>  <PUBCHEM_ATOM_UDEF_STEREO_COUNT>  (1) 
0

>  <PUBCHEM_BOND_DEF_STEREO_COUNT>  (1) 
0

>  <PUBCHEM_BOND_UDEF_STEREO_COUNT>  (1) 
0

>  <PUBCHEM_ISOTOPIC_ATOM_COUNT>  (1) 
0

>  <PUBCHEM_COMPONENT_COUNT>  (1) 
1

>  <PUBCHEM_CACTVS_TAUTO_COUNT>  (1) 
1

>  <PUBCHEM_CONFORMER_ID>  (1) 
000066BB00000001

>  <PUBCHEM_MMFF94_ENERGY>  (1) 
13.3783

>  <PUBCHEM_FEATURE_SELFOVERLAP>  (1) 
10.148

>  <PUBCHEM_SHAPE_FINGERPRINT>  (1) 
12897270 3 18339921618824710405
12932764 1 17632290207390788113
13380535 21 18341345400694376449
13380535 76 18337106890632881490
14325111 11 18410292527439207097
15775835 57 18343027717619395161
16945 1 18267303307910438938
17990270 104 18338517421979891114
19973954 147 18338237059568307245
20653091 64 18334570201148209282
21028194 46 18411136982544841024
21040471 1 18340484581694623674
21501502 16 18410292484768940089
23235685 24 18337386170554132772
23402655 69 18197764528310258237
23552423 10 18337391535068544747
241688 4 17402619549999154442
2748010 2 18411138004567566517
3248919 1 18335129886973867185
5084963 1 18343862208137034947
528862 383 18261666043413036298

>  <PUBCHEM_SHAPE_MULTIPOLES>  (1) 
205.8
4.24
1.92
0.71
1.38
0.1
0
-0.9
-0.37
-0.37
-0.15
-0.06
-0.03
-0.23

>  <PUBCHEM_SHAPE_SELFOVERLAP>  (1) 
398.769

>  <PUBCHEM_SHAPE_VOLUME>  (1) 
125.1

>  <PUBCHEM_COORDINATE_TYPE>  (1) 
2
5
10

$$$$
