26305
     RDKit          3D

 18 20  0  0  1  0  0  0  0  0999 V2000
   -1.7850    1.0920    0.2596 O   0  0  0  0  0  0  0  0  0  0  0  0
   -3.7672    0.2376   -1.5332 O   0  0  0  0  0  0  0  0  0  0  0  0
    3.0355    1.2130   -0.0073 O   0  0  0  0  0  0  0  0  0  0  0  0
    5.3218    1.1850   -0.1349 O   0  0  0  0  0  0  0  0  0  0  0  0
   -2.6590   -0.0221    0.5806 C   0  0  0  0  0  0  0  0  0  0  0  0
   -3.9919    0.1794   -0.1215 C   0  0  0  0  0  0  0  0  0  0  0  0
   -1.9669   -1.3298    0.1665 C   0  0  0  0  0  0  0  0  0  0  0  0
   -0.5626   -0.8620    0.1587 C   0  0  0  0  0  0  0  0  0  0  0  0
   -0.5380    0.5256    0.1880 C   0  0  0  0  0  0  0  0  0  0  0  0
   -4.6533    1.4897    0.3133 C   0  0  0  0  0  0  0  0  0  0  0  0
   -4.9297   -1.0008    0.1403 C   0  0  0  0  0  0  0  0  0  0  0  0
    0.6083   -1.5981    0.0702 C   0  0  0  0  0  0  0  0  0  0  0  0
    0.6421    1.2381    0.1275 C   0  0  0  0  0  0  0  0  0  0  0  0
    1.8233   -0.9054    0.0203 C   0  0  0  0  0  0  0  0  0  0  0  0
    1.8207    0.4965    0.0481 C   0  0  0  0  0  0  0  0  0  0  0  0
    3.0982   -1.5982   -0.0680 C   0  0  0  0  0  0  0  0  0  0  0  0
    4.2396   -0.9072   -0.1188 C   0  0  0  0  0  0  0  0  0  0  0  0
    4.2641    0.5665   -0.0894 C   0  0  0  0  0  0  0  0  0  0  0  0
  1  5  1  0
  1  9  1  0
  2  6  1  0
  3 15  1  0
  3 18  1  0
  4 18  2  0
  5  6  1  0
  5  7  1  0
  6 10  1  0
  6 11  1  0
  7  8  1  0
  8  9  2  0
  8 12  1  0
  9 13  1  0
 12 14  2  0
 13 15  2  0
 14 15  1  0
 14 16  1  0
 16 17  2  0
 17 18  1  0
M  END
>  <PUBCHEM_COMPOUND_CID>  (1) 
26305

>  <PUBCHEM_CONFORMER_RMSD>  (1) 
0.6

>  <PUBCHEM_CONFORMER_DIVERSEORDER>  (1) 
1
2
3

>  <PUBCHEM_MMFF94_PARTIAL_CHARGES>  (1) 
21
1 -0.36
12 -0.15
13 -0.15
14 0.03
15 0.08
16 -0.18
17 -0.14
18 0.71
2 -0.68
28 0.15
29 0.15
3 -0.23
30 0.4
31 0.15
32 0.15
4 -0.57
5 0.28
6 0.28
7 0.14
8 -0.14
9 0.08

>  <PUBCHEM_EFFECTIVE_ROTOR_COUNT>  (1) 
1.6

>  <PUBCHEM_PHARMACOPHORE_FEATURES>  (1) 
8
1 1 acceptor
1 2 acceptor
1 2 donor
1 4 acceptor
3 6 10 11 hydrophobe
5 1 5 7 8 9 rings
6 3 14 15 16 17 18 rings
6 8 9 12 13 14 15 rings

>  <PUBCHEM_HEAVY_ATOM_COUNT>  (1) 
18

>  <PUBCHEM_ATOM_DEF_STEREO_COUNT>  (1) 
1

>  <PUBCHEM_ATOM_UDEF_STEREO_COUNT>  (1) 
0

>  <PUBCHEM_BOND_DEF_STEREO_COUNT>  (1) 
0

>  <PUBCHEM_BOND_UDEF_STEREO_COUNT>  (1) 
0

>  <PUBCHEM_ISOTOPIC_ATOM_COUNT>  (1) 
0

>  <PUBCHEM_COMPONENT_COUNT>  (1) 
1

>  <PUBCHEM_CACTVS_TAUTO_COUNT>  (1) 
1

>  <PUBCHEM_CONFORMER_ID>  (1) 
000066C100000001

>  <PUBCHEM_MMFF94_ENERGY>  (1) 
62.1675

>  <PUBCHEM_FEATURE_SELFOVERLAP>  (1) 
40.73

>  <PUBCHEM_SHAPE_FINGERPRINT>  (1) 
11401426 45 18413105065213584833
11471102 20 18411136931384963582
11543360 7 16056876970280577160
11806522 49 18411700997576240203
12236239 1 17918276437513432475
12670546 56 16081355333030124416
13583140 156 16660644089591425809
13675066 3 17967540081275318002
13760787 5 18412540977157257095
14576447 43 18058716026847855335
15196674 1 18411139117027529603
15375358 24 18334860523857867282
15536298 74 18342741797583550794
16945 1 18337961090534032794
17834072 33 18201999949409078062
18186145 218 18113898226212266387
19489759 90 16225761917741870869
200 152 18060699489846947427
20645477 70 18411984624664414814
21029758 11 18272368672107046841
21267235 1 18340216223316387554
221490 88 18192999437835440811
231179 274 17749102283981288486
23402539 116 18202279191050404013
23402655 69 18272087175676195717
23559900 14 18410294697146966322
296302 2 18410014321127625103
29717793 49 17632016347253943628
34797466 226 16486976245121961920
34934 24 18411133658519819698
3545911 37 18409452513714723274
4214541 1 18410857646725574873
4340502 62 16732704947588156298
474 4 17822579416587963516
4990 188 17989495108242265254
5104073 3 18410013212920659643
537710 114 18413111667016324648
542803 24 17561368370188502835
633830 44 18340206280604117695
69090 78 18342174470673560382
77779 3 18411140216686824427
9709674 26 18411990143270096191

>  <PUBCHEM_SHAPE_MULTIPOLES>  (1) 
346.95
10.43
1.65
0.73
0.45
0.12
-0.14
-1.72
-0.76
-0.35
0.07
0.48
-0.01
-0.02

>  <PUBCHEM_SHAPE_SELFOVERLAP>  (1) 
763.442

>  <PUBCHEM_SHAPE_VOLUME>  (1) 
188.8

>  <PUBCHEM_COORDINATE_TYPE>  (1) 
2
5
10

$$$$
