26302
     RDKit          3D

 13 13  0  0  0  0  0  0  0  0999 V2000
   -2.2562    2.9419   -0.0003 Cl  0  0  0  0  0  0  0  0  0  0  0  0
   -3.9109   -1.9910    0.0013 Cl  0  0  0  0  0  0  0  0  0  0  0  0
    0.8724   -0.8503    0.0004 O   0  0  0  0  0  0  0  0  0  0  0  0
   -1.3849   -1.3594    0.0010 N   0  0  0  0  0  0  0  0  0  0  0  0
   -0.6220    0.9156    0.0002 N   0  0  0  0  0  0  0  0  0  0  0  0
   -2.9736    0.4388    0.0014 N   0  0  0  0  0  0  0  0  0  0  0  0
    3.2453   -0.5303   -0.0201 C   0  0  0  0  0  0  0  0  0  0  0  0
    4.3822    0.4876   -0.0052 C   0  0  0  0  0  0  0  0  0  0  0  0
    1.8831    0.1484    0.0003 C   0  0  0  0  0  0  0  0  0  0  0  0
    5.7406   -0.1948    0.0180 C   0  0  0  0  0  0  0  0  0  0  0  0
   -0.4273   -0.4151    0.0004 C   0  0  0  0  0  0  0  0  0  0  0  0
   -1.9175    1.2681    0.0010 C   0  0  0  0  0  0  0  0  0  0  0  0
   -2.6313   -0.8596    0.0016 C   0  0  0  0  0  0  0  0  0  0  0  0
  1 12  1  0
  2 13  1  0
  3  9  1  0
  3 11  1  0
  4 11  2  0
  4 13  1  0
  5 11  1  0
  5 12  2  0
  6 12  1  0
  6 13  2  0
  7  8  1  0
  7  9  1  0
  8 10  1  0
M  END
>  <PUBCHEM_COMPOUND_CID>  (1) 
26302

>  <PUBCHEM_CONFORMER_RMSD>  (1) 
0.6

>  <PUBCHEM_CONFORMER_DIVERSEORDER>  (1) 
1
17
11
8
16
2
23
10
6
22
18
20
15
3
12
19
9
5
4
14
7
13
21

>  <PUBCHEM_MMFF94_PARTIAL_CHARGES>  (1) 
10
1 -0.18
11 0.7
12 0.8
13 0.8
2 -0.18
3 -0.36
4 -0.62
5 -0.62
6 -0.62
9 0.28

>  <PUBCHEM_EFFECTIVE_ROTOR_COUNT>  (1) 
4

>  <PUBCHEM_PHARMACOPHORE_FEATURES>  (1) 
5
1 10 hydrophobe
3 4 5 11 cation
3 4 6 13 cation
3 5 6 12 cation
6 4 5 6 11 12 13 rings

>  <PUBCHEM_HEAVY_ATOM_COUNT>  (1) 
13

>  <PUBCHEM_ATOM_DEF_STEREO_COUNT>  (1) 
0

>  <PUBCHEM_ATOM_UDEF_STEREO_COUNT>  (1) 
0

>  <PUBCHEM_BOND_DEF_STEREO_COUNT>  (1) 
0

>  <PUBCHEM_BOND_UDEF_STEREO_COUNT>  (1) 
0

>  <PUBCHEM_ISOTOPIC_ATOM_COUNT>  (1) 
0

>  <PUBCHEM_COMPONENT_COUNT>  (1) 
1

>  <PUBCHEM_CACTVS_TAUTO_COUNT>  (1) 
1

>  <PUBCHEM_CONFORMER_ID>  (1) 
000066BE00000001

>  <PUBCHEM_MMFF94_ENERGY>  (1) 
18.5669

>  <PUBCHEM_FEATURE_SELFOVERLAP>  (1) 
28.137

>  <PUBCHEM_SHAPE_FINGERPRINT>  (1) 
10608611 8 18342173328576152544
10680689 15 18409739447710853338
10912923 1 17894630340926594856
12032990 46 18266178512264118883
13167823 11 18335698317859900962
13214271 11 18272087197393580055
14325111 11 18410856517138548486
1741750 31 18126284147010242625
187816 3 17895470431670690475
1986462 14 18411421696259052950
200 152 18113613529662164503
20300324 65 18408886256541415090
20510252 161 18342741801477474897
20645477 56 18339084769943010629
20871998 184 18273497875291847215
21061003 4 17060337456929542027
21426921 1 18410855443043517525
2297311 6 18270975612818469742
2306618 200 18201727227718297929
23380061 127 18409727357209058022
23402539 116 18340762732393437007
23557571 272 18273221871908370612
4214541 1 18410575046657297664
5104073 3 18340484474700471098
573450 72 18261381210088294690
68521 5 18410009949125328421
77779 3 18410576159196258654

>  <PUBCHEM_SHAPE_MULTIPOLES>  (1) 
250.46
9.49
2.2
0.6
14.69
1.48
0
-1.92
0.03
-3.6
0
0.01
0.01
0

>  <PUBCHEM_SHAPE_SELFOVERLAP>  (1) 
482.112

>  <PUBCHEM_SHAPE_VOLUME>  (1) 
153.6

>  <PUBCHEM_COORDINATE_TYPE>  (1) 
2
5
10

$$$$
