26300
     RDKit          3D

 10 10  0  0  1  0  0  0  0  0999 V2000
    0.5905   -0.0321    0.3380 C   0  0  0  0  0  0  0  0  0  0  0  0
    0.1696   -1.4928    0.0981 C   0  0  0  0  0  0  0  0  0  0  0  0
   -0.3159    0.9361   -0.4422 C   0  0  0  0  0  0  0  0  0  0  0  0
   -1.3090   -1.7149    0.4256 C   0  0  0  0  0  0  0  0  0  0  0  0
   -2.2134   -0.7531   -0.3444 C   0  0  0  0  0  0  0  0  0  0  0  0
   -1.7691    0.6708   -0.1412 C   0  0  0  0  0  0  0  0  0  0  0  0
    2.0299    0.1731   -0.0296 C   0  0  0  0  0  0  0  0  0  0  0  0
    2.9426    0.5971    1.0825 C   0  0  0  0  0  0  0  0  0  0  0  0
   -2.6006    1.6284    0.2942 C   0  0  0  0  0  0  0  0  0  0  0  0
    2.4754   -0.0126   -1.2810 C   0  0  0  0  0  0  0  0  0  0  0  0
  1  2  1  0
  1  3  1  0
  1  7  1  0
  2  4  1  0
  3  6  1  0
  4  5  1  0
  5  6  1  0
  6  9  2  0
  7  8  1  0
  7 10  2  0
M  END
>  <PUBCHEM_COMPOUND_CID>  (1) 
26300

>  <PUBCHEM_CONFORMER_RMSD>  (1) 
0.4

>  <PUBCHEM_CONFORMER_DIVERSEORDER>  (1) 
1
13
12
4
9
18
3
17
11
8
6
10
2
14
16
7
19
5
15

>  <PUBCHEM_MMFF94_PARTIAL_CHARGES>  (1) 
12
1 0.14
10 -0.3
23 0.15
24 0.15
25 0.15
26 0.15
3 0.14
5 0.14
6 -0.28
7 -0.28
8 0.14
9 -0.3

>  <PUBCHEM_EFFECTIVE_ROTOR_COUNT>  (1) 
2

>  <PUBCHEM_PHARMACOPHORE_FEATURES>  (1) 
1
6 1 2 3 4 5 6 rings

>  <PUBCHEM_HEAVY_ATOM_COUNT>  (1) 
10

>  <PUBCHEM_ATOM_DEF_STEREO_COUNT>  (1) 
1

>  <PUBCHEM_ATOM_UDEF_STEREO_COUNT>  (1) 
0

>  <PUBCHEM_BOND_DEF_STEREO_COUNT>  (1) 
0

>  <PUBCHEM_BOND_UDEF_STEREO_COUNT>  (1) 
0

>  <PUBCHEM_ISOTOPIC_ATOM_COUNT>  (1) 
0

>  <PUBCHEM_COMPONENT_COUNT>  (1) 
1

>  <PUBCHEM_CACTVS_TAUTO_COUNT>  (1) 
1

>  <PUBCHEM_CONFORMER_ID>  (1) 
000066BC00000001

>  <PUBCHEM_MMFF94_ENERGY>  (1) 
11.9642

>  <PUBCHEM_FEATURE_SELFOVERLAP>  (1) 
5.074

>  <PUBCHEM_SHAPE_FINGERPRINT>  (1) 
10857977 72 18267578181553986280
12716758 59 18342181041978603102
12932741 1 17918283055884085780
12932764 1 17774730839199655486
13839132 238 18272930522775420520
14325111 11 18411415094567394656
14390081 3 18272928289260570873
15219456 202 17989207066619254824
15310529 11 15267350642659331819
15775835 57 18333729083332410544
16945 1 18337113470301161331
19837323 101 18342458132004694739
19973954 147 18342177833764867480
20645464 45 18201995542973027528
20653085 51 16916796119518747417
20871998 184 18198908195874272959
21028194 46 18338517430611711905
21040471 1 18336266743094322999
21930827 45 18411710880290674554
22802520 49 18129678408266841822
23235685 24 18335424521646087221
23402539 116 18126825287293645887
23552423 10 18041280989219498354
23559900 14 18271250409833542582
2748010 2 18264213508849322175
276578 36 18194979439159769865
29004967 10 16917353662123978586
3248919 1 18261108599523195006
369184 2 16415485973113481583
5084963 1 18201169831062449294
6333449 129 18342452664300265273
81228 2 18265617756949250235

>  <PUBCHEM_SHAPE_MULTIPOLES>  (1) 
205.8
4.21
1.63
0.97
1.3
0.31
0.08
-1.23
-0.21
-1.16
-0.2
0.68
-0.06
0.13

>  <PUBCHEM_SHAPE_SELFOVERLAP>  (1) 
403.455

>  <PUBCHEM_SHAPE_VOLUME>  (1) 
123.7

>  <PUBCHEM_COORDINATE_TYPE>  (1) 
2
5
10

$$$$
