26301
     RDKit          3D

 21 23  0  0  0  0  0  0  0  0999 V2000
    4.9686   -1.9321    0.0298 Cl  0  0  0  0  0  0  0  0  0  0  0  0
    1.9233    1.9277   -0.0596 O   0  0  0  0  0  0  0  0  0  0  0  0
    0.0367   -2.3299    0.0637 N   0  0  0  0  0  0  0  0  0  0  0  0
    0.9489   -0.1701    0.0025 N   0  0  0  0  0  0  0  0  0  0  0  0
    2.3706   -2.1026    0.0473 N   0  0  0  0  0  0  0  0  0  0  0  0
    3.3338    0.0944   -0.0147 N   0  0  0  0  0  0  0  0  0  0  0  0
   -1.3478   -2.0599    0.0623 C   0  0  0  0  0  0  0  0  0  0  0  0
   -2.2347   -2.9690   -0.5146 C   0  0  0  0  0  0  0  0  0  0  0  0
   -1.8303   -0.8848    0.6383 C   0  0  0  0  0  0  0  0  0  0  0  0
    1.1710   -1.4956    0.0364 C   0  0  0  0  0  0  0  0  0  0  0  0
    0.6353    2.4181   -0.0692 C   0  0  0  0  0  0  0  0  0  0  0  0
   -3.6039   -2.7030   -0.5153 C   0  0  0  0  0  0  0  0  0  0  0  0
   -3.1995   -0.6188    0.6376 C   0  0  0  0  0  0  0  0  0  0  0  0
   -4.0864   -1.5279    0.0609 C   0  0  0  0  0  0  0  0  0  0  0  0
    0.0035    2.6942    1.1336 C   0  0  0  0  0  0  0  0  0  0  0  0
   -0.0044    2.6262   -1.2815 C   0  0  0  0  0  0  0  0  0  0  0  0
    2.0747    0.5613   -0.0217 C   0  0  0  0  0  0  0  0  0  0  0  0
   -1.3001    3.1906    1.1238 C   0  0  0  0  0  0  0  0  0  0  0  0
   -1.3079    3.1226   -1.2911 C   0  0  0  0  0  0  0  0  0  0  0  0
   -1.9558    3.4048   -0.0885 C   0  0  0  0  0  0  0  0  0  0  0  0
    3.4045   -1.2460    0.0202 C   0  0  0  0  0  0  0  0  0  0  0  0
  1 21  1  0
  2 11  1  0
  2 17  1  0
  3  7  1  0
  3 10  1  0
  4 10  2  0
  4 17  1  0
  5 10  1  0
  5 21  2  0
  6 17  2  0
  6 21  1  0
  7  8  2  0
  7  9  1  0
  8 12  1  0
  9 13  2  0
 11 15  2  0
 11 16  1  0
 12 14  2  0
 13 14  1  0
 15 18  1  0
 16 19  2  0
 18 20  2  0
 19 20  1  0
M  END
>  <PUBCHEM_COMPOUND_CID>  (1) 
26301

>  <PUBCHEM_CONFORMER_RMSD>  (1) 
0.6

>  <PUBCHEM_CONFORMER_DIVERSEORDER>  (1) 
1
54
92
3
44
22
50
24
30
83
64
94
73
65
40
34
27
88
85
66
2
57
13
46
71
26
25
72
29
33
9
82
84
79
36
42
6
89
5
81
32
68
35
91
62
59
70
20
43
58
7
74
8
11
80
63
60
77
87
90
12
14
21
37
17
67
16
18
19
93
38
49
78
61
28
4
41
45
69
55
52
75
10
53
15
56
51
86
39
47
48
23
31
76

>  <PUBCHEM_MMFF94_PARTIAL_CHARGES>  (1) 
32
1 -0.18
10 0.72
11 0.08
12 -0.15
13 -0.15
14 -0.15
15 -0.15
16 -0.15
17 0.7
18 -0.15
19 -0.15
2 -0.17
20 -0.15
21 0.8
22 0.4
23 0.15
24 0.15
25 0.15
26 0.15
27 0.15
28 0.15
29 0.15
3 -0.6
30 0.15
31 0.15
32 0.15
4 -0.62
5 -0.62
6 -0.62
7 0.1
8 -0.15
9 -0.15

>  <PUBCHEM_EFFECTIVE_ROTOR_COUNT>  (1) 
4

>  <PUBCHEM_PHARMACOPHORE_FEATURES>  (1) 
5
1 3 donor
4 3 4 5 10 cation
6 11 15 16 18 19 20 rings
6 4 5 6 10 17 21 rings
6 7 8 9 12 13 14 rings

>  <PUBCHEM_HEAVY_ATOM_COUNT>  (1) 
21

>  <PUBCHEM_ATOM_DEF_STEREO_COUNT>  (1) 
0

>  <PUBCHEM_ATOM_UDEF_STEREO_COUNT>  (1) 
0

>  <PUBCHEM_BOND_DEF_STEREO_COUNT>  (1) 
0

>  <PUBCHEM_BOND_UDEF_STEREO_COUNT>  (1) 
0

>  <PUBCHEM_ISOTOPIC_ATOM_COUNT>  (1) 
0

>  <PUBCHEM_COMPONENT_COUNT>  (1) 
1

>  <PUBCHEM_CACTVS_TAUTO_COUNT>  (1) 
4

>  <PUBCHEM_CONFORMER_ID>  (1) 
000066BD00000001

>  <PUBCHEM_MMFF94_ENERGY>  (1) 
70.1214

>  <PUBCHEM_FEATURE_SELFOVERLAP>  (1) 
25.373

>  <PUBCHEM_SHAPE_FINGERPRINT>  (1) 
10064457 181 17838345081563706520
104564 63 18338243678007272532
10688039 33 18113905957232468557
10967382 1 18050569835048753043
11578080 2 17773857792528310040
116883 192 18341056237626278166
12035759 4 17971784243920470276
12156800 1 17830413303496463633
12403259 226 18191017014160242727
12553582 1 18338245971419809131
12788726 201 18334574616797050642
13052359 8 18048027476777228306
13140716 1 18410863191222685075
138480 1 15456777379241454865
14866123 147 17904761073002997282
15042514 8 18121215373433008874
15420108 30 17337573997131106600
17138139 8 17621270756045127613
17357779 13 18339909459614066157
19591789 44 17114672813150365470
19930381 70 17329707034421374507
20775438 99 17189763294793469191
20905425 154 18268999841683681397
21160774 45 18047473322531980300
21236236 1 18266459807242612610
21641784 216 18114762485654806732
22749437 52 16969693980713776093
23559900 14 17834668679921630347
25147074 1 17969229950224836694
2748010 2 17691143538357079955
3014063 31 18410287008896803349
352729 6 17691123730131519074
4409770 3 18192420888180927399
474 4 17615402997405282423
6438718 38 17915449507087258007
6443956 14 18266175230972232949
7164475 11 18336550426549731694
7237137 82 18264786380678305702
7364860 26 17908423898099936603
7832392 63 18268996569066314107
81228 2 18335147449100389546
84936 182 17477770551271537411

>  <PUBCHEM_SHAPE_MULTIPOLES>  (1) 
408.25
6.54
5.32
0.96
4.49
3.03
-0.06
-6.5
0.06
-3.47
-0.51
-0.39
0.74
-0.25

>  <PUBCHEM_SHAPE_SELFOVERLAP>  (1) 
880.89

>  <PUBCHEM_SHAPE_VOLUME>  (1) 
221.9

>  <PUBCHEM_COORDINATE_TYPE>  (1) 
2
5
10

$$$$
