26319
     RDKit          3D

 12 12  0  0  0  0  0  0  0  0999 V2000
    0.7946   -3.4188   -0.0008 Cl  0  0  0  0  0  0  0  0  0  0  0  0
    2.4896    1.1972   -0.0021 O   0  0  0  0  0  0  0  0  0  0  0  0
   -2.1271    0.5746    0.0036 N   0  0  0  0  0  0  0  0  0  0  0  0
    0.1913    0.9286    0.0018 N   0  0  0  0  0  0  0  0  0  0  0  0
   -0.7111   -1.2948    0.0020 N   0  0  0  0  0  0  0  0  0  0  0  0
    1.6655   -0.9647    0.0008 N   0  0  0  0  0  0  0  0  0  0  0  0
   -0.8346    0.0502    0.0023 C   0  0  0  0  0  0  0  0  0  0  0  0
   -2.3517    2.0144    0.0044 C   0  0  0  0  0  0  0  0  0  0  0  0
   -3.2914   -0.3019   -0.0100 C   0  0  0  0  0  0  0  0  0  0  0  0
    1.4042    0.3524    0.0010 C   0  0  0  0  0  0  0  0  0  0  0  0
    0.5602   -1.7270    0.0011 C   0  0  0  0  0  0  0  0  0  0  0  0
    2.2105    2.5898   -0.0042 C   0  0  0  0  0  0  0  0  0  0  0  0
  1 11  1  0
  2 10  1  0
  2 12  1  0
  3  7  1  0
  3  8  1  0
  3  9  1  0
  4  7  2  0
  4 10  1  0
  5  7  1  0
  5 11  2  0
  6 10  2  0
  6 11  1  0
M  END
>  <PUBCHEM_COMPOUND_CID>  (1) 
26319

>  <PUBCHEM_CONFORMER_RMSD>  (1) 
0.6

>  <PUBCHEM_CONFORMER_DIVERSEORDER>  (1) 
1
4
2
3

>  <PUBCHEM_MMFF94_PARTIAL_CHARGES>  (1) 
12
1 -0.18
10 0.7
11 0.8
12 0.28
2 -0.36
3 -0.84
4 -0.62
5 -0.62
6 -0.62
7 0.72
8 0.37
9 0.37

>  <PUBCHEM_EFFECTIVE_ROTOR_COUNT>  (1) 
2

>  <PUBCHEM_PHARMACOPHORE_FEATURES>  (1) 
2
4 3 4 5 7 cation
6 4 5 6 7 10 11 rings

>  <PUBCHEM_HEAVY_ATOM_COUNT>  (1) 
12

>  <PUBCHEM_ATOM_DEF_STEREO_COUNT>  (1) 
0

>  <PUBCHEM_ATOM_UDEF_STEREO_COUNT>  (1) 
0

>  <PUBCHEM_BOND_DEF_STEREO_COUNT>  (1) 
0

>  <PUBCHEM_BOND_UDEF_STEREO_COUNT>  (1) 
0

>  <PUBCHEM_ISOTOPIC_ATOM_COUNT>  (1) 
0

>  <PUBCHEM_COMPONENT_COUNT>  (1) 
1

>  <PUBCHEM_CACTVS_TAUTO_COUNT>  (1) 
1

>  <PUBCHEM_CONFORMER_ID>  (1) 
000066CF00000001

>  <PUBCHEM_MMFF94_ENERGY>  (1) 
38.9627

>  <PUBCHEM_FEATURE_SELFOVERLAP>  (1) 
10.148

>  <PUBCHEM_SHAPE_FINGERPRINT>  (1) 
1 1 18410856551171297926
13380535 76 18269272546468749830
14648413 74 18192714445195923761
16945 1 18338798914268164291
17990270 104 18193837037904244787
193761 8 18266741285923076611
19973954 147 18266741281781382465
20645477 70 18337664218970069151
20871998 184 17335353009096434686
21040471 1 18338797947990083044
21524375 3 18271524316048956300
23526114 1 18194967331346314494
23552423 10 18339924797142674943
241688 4 17402051097955185242
2748010 2 18264500657082250319
7364860 26 18268147569663533559
81228 2 17547291563178266074

>  <PUBCHEM_SHAPE_MULTIPOLES>  (1) 
223.03
3.85
3.4
0.58
3.02
0.88
0
-1.21
-0.01
-2.58
0
0.01
0.02
-0.01

>  <PUBCHEM_SHAPE_SELFOVERLAP>  (1) 
440.856

>  <PUBCHEM_SHAPE_VOLUME>  (1) 
134.7

>  <PUBCHEM_COORDINATE_TYPE>  (1) 
2
5
10

$$$$
