26320
     RDKit          3D

 12 12  0  0  0  0  0  0  0  0999 V2000
    0.6045    2.4323    0.0138 O   0  0  0  0  0  0  0  0  0  0  0  0
    1.7052   -2.0610   -0.0198 O   0  0  0  0  0  0  0  0  0  0  0  0
   -0.5291   -1.4626    0.0333 N   0  0  0  0  0  0  0  0  0  0  0  0
   -1.1001    0.8681    0.0507 N   0  0  0  0  0  0  0  0  0  0  0  0
    1.2031    0.1974   -0.0061 N   0  0  0  0  0  0  0  0  0  0  0  0
   -2.7711   -0.7771    0.0888 N   0  0  0  0  0  0  0  0  0  0  0  0
   -3.7494    0.1538   -0.1664 N   0  0  0  0  0  0  0  0  0  0  0  0
   -1.4001   -0.4409    0.0560 C   0  0  0  0  0  0  0  0  0  0  0  0
    0.2200    1.1117    0.0190 C   0  0  0  0  0  0  0  0  0  0  0  0
    0.7540   -1.0679    0.0027 C   0  0  0  0  0  0  0  0  0  0  0  0
    2.0013    2.6868   -0.0197 C   0  0  0  0  0  0  0  0  0  0  0  0
    3.0616   -1.6406   -0.0522 C   0  0  0  0  0  0  0  0  0  0  0  0
  1  9  1  0
  1 11  1  0
  2 10  1  0
  2 12  1  0
  3  8  2  0
  3 10  1  0
  4  8  1  0
  4  9  2  0
  5  9  1  0
  5 10  2  0
  6  7  1  0
  6  8  1  0
M  END
>  <PUBCHEM_COMPOUND_CID>  (1) 
26320

>  <PUBCHEM_CONFORMER_RMSD>  (1) 
0.6

>  <PUBCHEM_CONFORMER_DIVERSEORDER>  (1) 
1
2
3

>  <PUBCHEM_MMFF94_PARTIAL_CHARGES>  (1) 
15
1 -0.36
10 0.7
11 0.28
12 0.28
13 0.4
2 -0.36
20 0.36
21 0.36
3 -0.62
4 -0.62
5 -0.62
6 -0.51
7 -0.71
8 0.72
9 0.7

>  <PUBCHEM_EFFECTIVE_ROTOR_COUNT>  (1) 
3

>  <PUBCHEM_PHARMACOPHORE_FEATURES>  (1) 
4
1 6 donor
1 7 donor
4 3 4 6 8 cation
6 3 4 5 8 9 10 rings

>  <PUBCHEM_HEAVY_ATOM_COUNT>  (1) 
12

>  <PUBCHEM_ATOM_DEF_STEREO_COUNT>  (1) 
0

>  <PUBCHEM_ATOM_UDEF_STEREO_COUNT>  (1) 
0

>  <PUBCHEM_BOND_DEF_STEREO_COUNT>  (1) 
0

>  <PUBCHEM_BOND_UDEF_STEREO_COUNT>  (1) 
0

>  <PUBCHEM_ISOTOPIC_ATOM_COUNT>  (1) 
0

>  <PUBCHEM_COMPONENT_COUNT>  (1) 
1

>  <PUBCHEM_CACTVS_TAUTO_COUNT>  (1) 
3

>  <PUBCHEM_CONFORMER_ID>  (1) 
000066D000000001

>  <PUBCHEM_MMFF94_ENERGY>  (1) 
39.531

>  <PUBCHEM_FEATURE_SELFOVERLAP>  (1) 
21.833

>  <PUBCHEM_SHAPE_FINGERPRINT>  (1) 
1 1 18194401327644752484
12138202 78 18408598171531220069
13380535 76 18047745189766719331
161256 15 18335135392890066029
16945 1 18410859901145470891
19021347 4 17689434205971562410
193761 8 18122626321022516010
20645476 183 17248373921547210764
20645477 70 18338790226193299295
20871998 184 17841143355735798470
21040471 1 17690280838341090393
23552423 10 18339641264771381335
23552449 1 17978508633502092462
241688 4 18122626054728756160
2748010 2 18195517113051104572
3071541 12 18411141371827603973
3071541 158 18261110733890027661
3071541 250 18339376179421326030
3071541 37 18263648535676108701
528862 383 18264198274399674808
7364860 26 18341332287700337760
81228 2 17835531422564779570

>  <PUBCHEM_SHAPE_MULTIPOLES>  (1) 
210.31
4.17
2.76
0.56
2.75
1.48
0
-1.11
0.17
-2.65
0.01
-0.03
0
0.04

>  <PUBCHEM_SHAPE_SELFOVERLAP>  (1) 
425.744

>  <PUBCHEM_SHAPE_VOLUME>  (1) 
119.8

>  <PUBCHEM_COORDINATE_TYPE>  (1) 
2
5
10

$$$$
