26324
     RDKit          3D

 17 17  0  0  0  0  0  0  0  0999 V2000
   -2.9679    0.5329   -0.7210 O   0  0  0  0  0  0  0  0  0  0  0  0
    2.2076   -0.8299   -1.8180 O   0  0  0  0  0  0  0  0  0  0  0  0
   -3.4080   -1.7482    0.8053 O   0  0  0  0  0  0  0  0  0  0  0  0
    2.5608    0.4677    0.0941 N   0  0  0  0  0  0  0  0  0  0  0  0
    3.9263    0.8554   -0.2306 C   0  0  0  0  0  0  0  0  0  0  0  0
    2.0344    0.9969    1.3504 C   0  0  0  0  0  0  0  0  0  0  0  0
    1.7976   -0.3625   -0.7473 C   0  0  0  0  0  0  0  0  0  0  0  0
    0.4459   -0.7190   -0.3465 C   0  0  0  0  0  0  0  0  0  0  0  0
    4.9051   -0.1524    0.3409 C   0  0  0  0  0  0  0  0  0  0  0  0
    1.3571    2.3327    1.1115 C   0  0  0  0  0  0  0  0  0  0  0  0
   -0.6295    0.0835   -0.7275 C   0  0  0  0  0  0  0  0  0  0  0  0
    0.2248   -1.8638    0.4193 C   0  0  0  0  0  0  0  0  0  0  0  0
   -1.9259   -0.2587   -0.3428 C   0  0  0  0  0  0  0  0  0  0  0  0
   -2.1468   -1.4035    0.4229 C   0  0  0  0  0  0  0  0  0  0  0  0
   -1.0714   -2.2061    0.8040 C   0  0  0  0  0  0  0  0  0  0  0  0
   -2.9438    1.8897   -0.2819 C   0  0  0  0  0  0  0  0  0  0  0  0
   -4.3664    2.3852   -0.1328 C   0  0  0  0  0  0  0  0  0  0  0  0
  1 13  1  0
  1 16  1  0
  2  7  2  0
  3 14  1  0
  4  5  1  0
  4  6  1  0
  4  7  1  0
  5  9  1  0
  6 10  1  0
  7  8  1  0
  8 11  2  0
  8 12  1  0
 11 13  1  0
 12 15  2  0
 13 14  2  0
 14 15  1  0
 16 17  1  0
M  END
>  <PUBCHEM_COMPOUND_CID>  (1) 
26324

>  <PUBCHEM_CONFORMER_RMSD>  (1) 
0.8

>  <PUBCHEM_CONFORMER_DIVERSEORDER>  (1) 
1
21
13
23
20
25
16
18
3
14
17
9
24
6
11
22
19
8
12
15
5
2
7
4
10

>  <PUBCHEM_MMFF94_PARTIAL_CHARGES>  (1) 
18
1 -0.36
11 -0.15
12 -0.15
13 0.08
14 0.08
15 -0.15
16 0.28
2 -0.57
22 0.15
29 0.15
3 -0.53
30 0.15
36 0.45
4 -0.66
5 0.3
6 0.3
7 0.54
8 0.09

>  <PUBCHEM_EFFECTIVE_ROTOR_COUNT>  (1) 
6

>  <PUBCHEM_PHARMACOPHORE_FEATURES>  (1) 
4
1 1 acceptor
1 2 acceptor
1 3 donor
6 8 11 12 13 14 15 rings

>  <PUBCHEM_HEAVY_ATOM_COUNT>  (1) 
17

>  <PUBCHEM_ATOM_DEF_STEREO_COUNT>  (1) 
0

>  <PUBCHEM_ATOM_UDEF_STEREO_COUNT>  (1) 
0

>  <PUBCHEM_BOND_DEF_STEREO_COUNT>  (1) 
0

>  <PUBCHEM_BOND_UDEF_STEREO_COUNT>  (1) 
0

>  <PUBCHEM_ISOTOPIC_ATOM_COUNT>  (1) 
0

>  <PUBCHEM_COMPONENT_COUNT>  (1) 
1

>  <PUBCHEM_CACTVS_TAUTO_COUNT>  (1) 
4

>  <PUBCHEM_CONFORMER_ID>  (1) 
000066D400000001

>  <PUBCHEM_MMFF94_ENERGY>  (1) 
46.7076

>  <PUBCHEM_FEATURE_SELFOVERLAP>  (1) 
20.297

>  <PUBCHEM_SHAPE_FINGERPRINT>  (1) 
10608611 8 18341329010761720680
1100329 8 16899621507174251016
12403259 226 18126281080487839867
124424 183 18342171189845807014
12500047 106 18335695039981702198
12507560 18 18338510833937500130
12716301 132 18335695070072919048
13140716 1 17970347018951061779
13294875 104 18194667190452122739
13464514 151 18199185096547003544
13764800 53 18334301946423681433
14178342 30 18040722446150189215
14251745 187 18202279161117852848
14957384 54 17096071511718260605
15219456 202 18342746204072563582
15295992 7 18271800250386292145
15653759 3 18337105799732021138
15775835 57 18186515475589166432
16945 1 18194672885505157162
1741750 31 18336831888198038759
18186145 218 18200892689718530262
18219364 16 18340780264544859017
19049666 15 18412551993780175638
19422 9 17313384578037469510
19784866 9 18189893119807318586
20233049 118 18412258446188576680
20510252 161 18335989773865399171
21524375 3 18337100173324999783
22112679 90 17095530637864650334
23175994 123 18059307542918541896
23402539 116 18336539542754612975
23493267 7 18408601470234635816
23500284 214 18410014291221310953
23503958 8 17604147133525722466
23526113 38 18201719500918917172
23557571 272 18339643464211550263
25 1 18269550559527960965
2748010 2 18115036199425672279
5104073 3 18041272240898371480
53812653 166 18409728430850720117
7364860 26 18050843321581965751
81228 2 18115031938928617923
84936 182 17905880384656341089

>  <PUBCHEM_SHAPE_MULTIPOLES>  (1) 
327.26
7.49
2.51
1.15
1.77
0.41
-0.07
3.49
-0.1
-2.33
0.77
0.48
-0.03
1.11

>  <PUBCHEM_SHAPE_SELFOVERLAP>  (1) 
662.855

>  <PUBCHEM_SHAPE_VOLUME>  (1) 
192.1

>  <PUBCHEM_COORDINATE_TYPE>  (1) 
2
5
10

$$$$
