26334
     RDKit          3D

 10 10  0  0  0  0  0  0  0  0999 V2000
   -0.1135   -1.4487    0.2610 N   0  0  0  0  0  0  0  0  0  0  0  0
    1.1229    1.0458   -0.0786 N   0  0  0  0  0  0  0  0  0  0  0  0
   -0.8145   -0.2974    0.2714 C   0  0  0  0  0  0  0  0  0  0  0  0
   -2.2869   -0.4135    0.4717 C   0  0  0  0  0  0  0  0  0  0  0  0
   -0.2072    0.9277    0.1045 C   0  0  0  0  0  0  0  0  0  0  0  0
   -3.0435   -0.5587   -0.8465 C   0  0  0  0  0  0  0  0  0  0  0  0
    1.8238   -0.1052   -0.0891 C   0  0  0  0  0  0  0  0  0  0  0  0
   -0.9940    2.1938    0.1169 C   0  0  0  0  0  0  0  0  0  0  0  0
    1.2166   -1.3305    0.0777 C   0  0  0  0  0  0  0  0  0  0  0  0
    3.2963   -0.0132   -0.2889 C   0  0  0  0  0  0  0  0  0  0  0  0
  1  3  2  0
  1  9  1  0
  2  5  2  0
  2  7  1  0
  3  4  1  0
  3  5  1  0
  4  6  1  0
  5  8  1  0
  7  9  2  0
  7 10  1  0
M  END
>  <PUBCHEM_COMPOUND_CID>  (1) 
26334

>  <PUBCHEM_CONFORMER_RMSD>  (1) 
0.4

>  <PUBCHEM_CONFORMER_DIVERSEORDER>  (1) 
1
3
2

>  <PUBCHEM_MMFF94_PARTIAL_CHARGES>  (1) 
10
1 -0.62
10 0.14
19 0.15
2 -0.62
3 0.17
4 0.14
5 0.17
7 0.17
8 0.14
9 0.16

>  <PUBCHEM_EFFECTIVE_ROTOR_COUNT>  (1) 
1

>  <PUBCHEM_PHARMACOPHORE_FEATURES>  (1) 
4
1 1 acceptor
1 2 acceptor
1 6 hydrophobe
6 1 2 3 5 7 9 rings

>  <PUBCHEM_HEAVY_ATOM_COUNT>  (1) 
10

>  <PUBCHEM_ATOM_DEF_STEREO_COUNT>  (1) 
0

>  <PUBCHEM_ATOM_UDEF_STEREO_COUNT>  (1) 
0

>  <PUBCHEM_BOND_DEF_STEREO_COUNT>  (1) 
0

>  <PUBCHEM_BOND_UDEF_STEREO_COUNT>  (1) 
0

>  <PUBCHEM_ISOTOPIC_ATOM_COUNT>  (1) 
0

>  <PUBCHEM_COMPONENT_COUNT>  (1) 
1

>  <PUBCHEM_CACTVS_TAUTO_COUNT>  (1) 
2

>  <PUBCHEM_CONFORMER_ID>  (1) 
000066DE00000001

>  <PUBCHEM_MMFF94_ENERGY>  (1) 
21.1487

>  <PUBCHEM_FEATURE_SELFOVERLAP>  (1) 
20.301

>  <PUBCHEM_SHAPE_FINGERPRINT>  (1) 
11206711 2 18336551529570180924
12423570 1 17183062981937513753
12897270 3 18410572881397720639
14128692 85 17916860365236929767
15310529 11 14548743880571703626
16945 1 18409453595851290146
193761 8 17905609899909798410
20201158 50 18334010601290481439
21040471 1 18048880989478136192
21293036 1 18335420217914757430
21501502 16 18193839232605944842
23402655 69 18265880390495303445
23552423 10 18045507417358706586
2748010 2 18410015441834495029
29004967 10 18335708268665681395
5084963 1 18202567267570962888
528886 8 18411135844489284019

>  <PUBCHEM_SHAPE_MULTIPOLES>  (1) 
195.83
4.05
1.7
0.72
0.59
0.73
-0.05
-0.74
-0.86
-0.38
0.09
-0.26
-0.06
-0.15

>  <PUBCHEM_SHAPE_SELFOVERLAP>  (1) 
395.808

>  <PUBCHEM_SHAPE_VOLUME>  (1) 
115.2

>  <PUBCHEM_COORDINATE_TYPE>  (1) 
2
5
10

$$$$
