26331
     RDKit          3D

  8  8  0  0  0  0  0  0  0  0999 V2000
    0.0741   -1.2086    0.1480 N   0  0  0  0  0  0  0  0  0  0  0  0
    1.5221    1.1807   -0.0988 N   0  0  0  0  0  0  0  0  0  0  0  0
   -1.9735    0.0261    0.5635 C   0  0  0  0  0  0  0  0  0  0  0  0
   -0.5122   -0.0020    0.2793 C   0  0  0  0  0  0  0  0  0  0  0  0
   -2.8150    0.0571   -0.7108 C   0  0  0  0  0  0  0  0  0  0  0  0
    0.1990    1.1715    0.1580 C   0  0  0  0  0  0  0  0  0  0  0  0
    1.3972   -1.1992   -0.1091 C   0  0  0  0  0  0  0  0  0  0  0  0
    2.1083   -0.0256   -0.2302 C   0  0  0  0  0  0  0  0  0  0  0  0
  1  4  2  0
  1  7  1  0
  2  6  2  0
  2  8  1  0
  3  4  1  0
  3  5  1  0
  4  6  1  0
  7  8  2  0
M  END
>  <PUBCHEM_COMPOUND_CID>  (1) 
26331

>  <PUBCHEM_CONFORMER_RMSD>  (1) 
0.4

>  <PUBCHEM_CONFORMER_DIVERSEORDER>  (1) 
2
1
3
4

>  <PUBCHEM_MMFF94_PARTIAL_CHARGES>  (1) 
10
1 -0.62
14 0.15
15 0.15
16 0.15
2 -0.62
3 0.14
4 0.17
6 0.16
7 0.16
8 0.16

>  <PUBCHEM_EFFECTIVE_ROTOR_COUNT>  (1) 
1

>  <PUBCHEM_PHARMACOPHORE_FEATURES>  (1) 
4
1 1 acceptor
1 2 acceptor
1 5 hydrophobe
6 1 2 4 6 7 8 rings

>  <PUBCHEM_HEAVY_ATOM_COUNT>  (1) 
8

>  <PUBCHEM_ATOM_DEF_STEREO_COUNT>  (1) 
0

>  <PUBCHEM_ATOM_UDEF_STEREO_COUNT>  (1) 
0

>  <PUBCHEM_BOND_DEF_STEREO_COUNT>  (1) 
0

>  <PUBCHEM_BOND_UDEF_STEREO_COUNT>  (1) 
0

>  <PUBCHEM_ISOTOPIC_ATOM_COUNT>  (1) 
0

>  <PUBCHEM_COMPONENT_COUNT>  (1) 
1

>  <PUBCHEM_CACTVS_TAUTO_COUNT>  (1) 
2

>  <PUBCHEM_CONFORMER_ID>  (1) 
000066DB00000002

>  <PUBCHEM_MMFF94_ENERGY>  (1) 
15.915

>  <PUBCHEM_FEATURE_SELFOVERLAP>  (1) 
20.301

>  <PUBCHEM_SHAPE_FINGERPRINT>  (1) 
12897270 3 18410006650442615725
18185500 45 18272652303267713275
21040471 1 18266181827751758216
23552423 10 18119260462584624662
29004967 10 18335710420291218427

>  <PUBCHEM_SHAPE_MULTIPOLES>  (1) 
154.67
3.29
1.26
0.73
1.68
0.02
0.02
-0.07
0.63
-0.54
-0.02
0.27
0
-0.01

>  <PUBCHEM_SHAPE_SELFOVERLAP>  (1) 
311.309

>  <PUBCHEM_SHAPE_VOLUME>  (1) 
90.4

>  <PUBCHEM_COORDINATE_TYPE>  (1) 
2
5
10

$$$$
