26339
     RDKit          3D

 19 21  0  0  1  0  0  0  0  0999 V2000
   -4.7950    0.8955   -1.3790 Cl  0  0  0  0  0  0  0  0  0  0  0  0
   -1.1936    1.2660    0.3899 N   0  0  0  0  0  0  0  0  0  0  0  0
   -0.3815    0.5394   -0.5785 C   0  0  0  0  0  0  0  0  0  0  0  0
    1.0934    0.9048   -0.4829 C   0  0  0  0  0  0  0  0  0  0  0  0
   -0.3409   -0.9550   -0.2901 C   0  0  0  0  0  0  0  0  0  0  0  0
    1.8682   -0.2376   -0.1793 C   0  0  0  0  0  0  0  0  0  0  0  0
    0.9877   -1.3793   -0.0610 C   0  0  0  0  0  0  0  0  0  0  0  0
   -2.6101    0.9329    0.2282 C   0  0  0  0  0  0  0  0  0  0  0  0
   -0.7557    0.9706    1.7553 C   0  0  0  0  0  0  0  0  0  0  0  0
    1.6801    2.1513   -0.6352 C   0  0  0  0  0  0  0  0  0  0  0  0
   -1.4013   -1.8445   -0.2212 C   0  0  0  0  0  0  0  0  0  0  0  0
    3.2429   -0.1403   -0.0377 C   0  0  0  0  0  0  0  0  0  0  0  0
    1.2646   -2.7057    0.2280 C   0  0  0  0  0  0  0  0  0  0  0  0
   -3.0684    1.2795   -1.1800 C   0  0  0  0  0  0  0  0  0  0  0  0
   -1.5715    1.7483    2.7739 C   0  0  0  0  0  0  0  0  0  0  0  0
    3.0654    2.2486   -0.4927 C   0  0  0  0  0  0  0  0  0  0  0  0
   -1.1217   -3.1810    0.0697 C   0  0  0  0  0  0  0  0  0  0  0  0
    3.8393    1.1138   -0.1981 C   0  0  0  0  0  0  0  0  0  0  0  0
    0.1983   -3.6075    0.2909 C   0  0  0  0  0  0  0  0  0  0  0  0
  1 14  1  0
  2  3  1  0
  2  8  1  0
  2  9  1  0
  3  4  1  0
  3  5  1  0
  4  6  2  0
  4 10  1  0
  5  7  2  0
  5 11  1  0
  6  7  1  0
  6 12  1  0
  7 13  1  0
  8 14  1  0
  9 15  1  0
 10 16  2  0
 11 17  2  0
 12 18  2  0
 13 19  2  0
 16 18  1  0
 17 19  1  0
M  END
>  <PUBCHEM_COMPOUND_CID>  (1) 
26339

>  <PUBCHEM_CONFORMER_RMSD>  (1) 
0.6

>  <PUBCHEM_CONFORMER_DIVERSEORDER>  (1) 
1
4
5
2
7
3
6

>  <PUBCHEM_MMFF94_PARTIAL_CHARGES>  (1) 
24
1 -0.29
10 -0.15
11 -0.15
12 -0.15
13 -0.15
14 0.29
16 -0.15
17 -0.15
18 -0.15
19 -0.15
2 -0.81
25 0.15
26 0.15
27 0.15
28 0.15
3 0.56
34 0.15
35 0.15
36 0.15
37 0.15
4 -0.14
5 -0.14
8 0.27
9 0.27

>  <PUBCHEM_EFFECTIVE_ROTOR_COUNT>  (1) 
4.2

>  <PUBCHEM_PHARMACOPHORE_FEATURES>  (1) 
4
1 2 cation
5 3 4 5 6 7 rings
6 4 6 10 12 16 18 rings
6 5 7 11 13 17 19 rings

>  <PUBCHEM_HEAVY_ATOM_COUNT>  (1) 
19

>  <PUBCHEM_ATOM_DEF_STEREO_COUNT>  (1) 
0

>  <PUBCHEM_ATOM_UDEF_STEREO_COUNT>  (1) 
0

>  <PUBCHEM_BOND_DEF_STEREO_COUNT>  (1) 
0

>  <PUBCHEM_BOND_UDEF_STEREO_COUNT>  (1) 
0

>  <PUBCHEM_ISOTOPIC_ATOM_COUNT>  (1) 
0

>  <PUBCHEM_COMPONENT_COUNT>  (1) 
1

>  <PUBCHEM_CACTVS_TAUTO_COUNT>  (1) 
1

>  <PUBCHEM_CONFORMER_ID>  (1) 
000066E300000001

>  <PUBCHEM_MMFF94_ENERGY>  (1) 
67.9069

>  <PUBCHEM_FEATURE_SELFOVERLAP>  (1) 
20.459

>  <PUBCHEM_SHAPE_FINGERPRINT>  (1) 
10411042 1 17400068683128936575
10693767 8 18056466249573890198
10871710 139 16815199355052900533
10967382 1 18336542699333646022
11370993 70 18335410288303751637
11578080 2 16769289200106386459
11582403 64 17169522234507351621
11640471 11 17485946141541766073
11725454 13 17096068222100014885
12553582 1 17257102471470661699
12592029 89 18261106331711858473
12716301 132 17908113805945751483
12730499 353 18261392201141960509
13009979 54 17412738415623463667
13027679 85 17116365511332695834
13132413 78 16898790869046876142
13140716 1 18409167731713311224
13583140 156 17458063785023266281
14787075 74 17701228486708847657
14817 1 16755157172648526689
15309172 13 18337126587247464408
15420108 30 16906384642041415168
15490181 8 18057628523832210700
16752209 62 18193832871854526494
16945 1 18265626389706693580
18219364 16 18262250949007347920
19765921 60 18271514347588189549
20510252 161 17981615071809930594
20600515 1 15623365834050322377
2334 1 18265619960335726534
23419403 2 17198820001792669793
23558518 356 17986697924701553506
23559900 14 18272093846857996676
23598291 2 17626391117007010125
2748010 2 18336281079980331686
298252 57 18114170952198345753
3060560 45 18334849472701085348
352729 6 18340494451434751646
394222 165 18114731660062729643
427121 178 16476633100384438314
4340502 62 18411695496229601413
81228 2 17762084393969697858
8272917 22 18194397797746046957
84936 182 18199176296196515689

>  <PUBCHEM_SHAPE_MULTIPOLES>  (1) 
387.9
5.59
3.66
1.46
2.19
3.81
1.22
-4.09
-2.42
-0.45
0.33
1.39
-1.15
-0.39

>  <PUBCHEM_SHAPE_SELFOVERLAP>  (1) 
833.812

>  <PUBCHEM_SHAPE_VOLUME>  (1) 
215.4

>  <PUBCHEM_COORDINATE_TYPE>  (1) 
2
5
10

$$$$
