26330
     RDKit          3D

 30 34  0  0  1  0  0  0  0  0999 V2000
    0.8133    0.4034    1.1407 F   0  0  0  0  0  0  0  0  0  0  0  0
   -4.1117    1.7431    0.4973 O   0  0  0  0  0  0  0  0  0  0  0  0
    0.6846    2.6335   -0.5407 O   0  0  0  0  0  0  0  0  0  0  0  0
   -4.6746   -1.5613   -0.4379 O   0  0  0  0  0  0  0  0  0  0  0  0
   -7.0412   -0.4178   -0.9953 O   0  0  0  0  0  0  0  0  0  0  0  0
    6.1717   -0.5030    0.5777 N   0  0  0  0  0  0  0  0  0  0  0  0
    6.7398    0.7197    0.5045 N   0  0  0  0  0  0  0  0  0  0  0  0
   -2.3350    0.3438   -0.4762 C   0  0  0  0  0  0  0  0  0  0  0  0
   -1.6341   -0.9185    0.0630 C   0  0  0  0  0  0  0  0  0  0  0  0
   -0.1682   -1.0774   -0.4084 C   0  0  0  0  0  0  0  0  0  0  0  0
    0.7207    0.1881   -0.2146 C   0  0  0  0  0  0  0  0  0  0  0  0
   -3.6224    0.4148    0.4054 C   0  0  0  0  0  0  0  0  0  0  0  0
   -1.4335    1.5845   -0.2635 C   0  0  0  0  0  0  0  0  0  0  0  0
   -1.8467   -0.8259    1.5816 C   0  0  0  0  0  0  0  0  0  0  0  0
   -3.2454   -0.2127    1.7736 C   0  0  0  0  0  0  0  0  0  0  0  0
   -0.0098    1.4195   -0.8118 C   0  0  0  0  0  0  0  0  0  0  0  0
    2.2133   -0.0248   -0.7207 C   0  0  0  0  0  0  0  0  0  0  0  0
    0.4716   -2.3054    0.2535 C   0  0  0  0  0  0  0  0  0  0  0  0
   -2.6571    0.2193   -1.9809 C   0  0  0  0  0  0  0  0  0  0  0  0
    2.7578   -1.4074   -0.2081 C   0  0  0  0  0  0  0  0  0  0  0  0
    1.8388   -2.5945   -0.3416 C   0  0  0  0  0  0  0  0  0  0  0  0
    3.1118    1.2063   -0.2567 C   0  0  0  0  0  0  0  0  0  0  0  0
   -4.7739   -0.3608   -0.1885 C   0  0  0  0  0  0  0  0  0  0  0  0
   -3.2819    0.7345    2.9700 C   0  0  0  0  0  0  0  0  0  0  0  0
    2.2823   -0.0806   -2.2684 C   0  0  0  0  0  0  0  0  0  0  0  0
    4.0056   -1.6000    0.2755 C   0  0  0  0  0  0  0  0  0  0  0  0
    4.5082    0.8178    0.0422 C   0  0  0  0  0  0  0  0  0  0  0  0
    4.8425   -0.4809    0.3028 C   0  0  0  0  0  0  0  0  0  0  0  0
   -6.0425    0.4212   -0.4549 C   0  0  0  0  0  0  0  0  0  0  0  0
    5.7159    1.5218    0.1806 C   0  0  0  0  0  0  0  0  0  0  0  0
  1 11  1  0
  2 12  1  0
  3 16  1  0
  4 23  2  0
  5 29  1  0
  6  7  1  0
  6 28  1  0
  7 30  2  0
  8  9  1  0
  8 12  1  0
  8 13  1  0
  8 19  1  0
  9 10  1  0
  9 14  1  0
 10 11  1  0
 10 18  1  0
 11 16  1  0
 11 17  1  0
 12 15  1  0
 12 23  1  0
 13 16  1  0
 14 15  1  0
 15 24  1  0
 17 20  1  0
 17 22  1  0
 17 25  1  0
 18 21  1  0
 20 21  1  0
 20 26  2  0
 22 27  1  0
 23 29  1  0
 26 28  1  0
 27 28  2  0
 27 30  1  0
M  END
>  <PUBCHEM_COMPOUND_CID>  (1) 
26330

>  <PUBCHEM_CONFORMER_RMSD>  (1) 
0.8

>  <PUBCHEM_CONFORMER_DIVERSEORDER>  (1) 
1
29
15
25
45
71
70
21
49
9
22
57
31
37
56
20
41
59
69
40
8
43
35
64
36
62
26
23
32
51
33
58
30
39
34
63
4
55
68
52
27
6
50
54
74
38
67
7
47
42
48
66
72
16
13
73
53
14
3
24
19
5
65
60
18
61
44
46
2
11
28
12
10
17

>  <PUBCHEM_MMFF94_PARTIAL_CHARGES>  (1) 
26
1 -0.34
11 0.34
12 0.34
16 0.28
17 0.14
2 -0.68
20 -0.28
21 0.14
22 0.18
23 0.45
26 -0.11
27 -0.18
28 -0.2
29 0.34
3 -0.68
30 0.14
4 -0.57
5 -0.68
54 0.4
55 0.4
56 0.15
59 0.15
6 0.3
60 0.27
61 0.4
7 -0.71

>  <PUBCHEM_EFFECTIVE_ROTOR_COUNT>  (1) 
3.6

>  <PUBCHEM_PHARMACOPHORE_FEATURES>  (1) 
14
1 2 acceptor
1 2 donor
1 3 acceptor
1 3 donor
1 4 acceptor
1 5 acceptor
1 5 donor
1 6 donor
1 7 acceptor
5 6 7 27 28 30 rings
5 8 9 12 14 15 rings
6 10 11 17 18 20 21 rings
6 17 20 22 26 27 28 rings
6 8 9 10 11 13 16 rings

>  <PUBCHEM_HEAVY_ATOM_COUNT>  (1) 
30

>  <PUBCHEM_ATOM_DEF_STEREO_COUNT>  (1) 
3

>  <PUBCHEM_ATOM_UDEF_STEREO_COUNT>  (1) 
5

>  <PUBCHEM_BOND_DEF_STEREO_COUNT>  (1) 
0

>  <PUBCHEM_BOND_UDEF_STEREO_COUNT>  (1) 
0

>  <PUBCHEM_ISOTOPIC_ATOM_COUNT>  (1) 
0

>  <PUBCHEM_COMPONENT_COUNT>  (1) 
1

>  <PUBCHEM_CACTVS_TAUTO_COUNT>  (1) 
6

>  <PUBCHEM_CONFORMER_ID>  (1) 
000066DA00000001

>  <PUBCHEM_MMFF94_ENERGY>  (1) 
100.3792

>  <PUBCHEM_FEATURE_SELFOVERLAP>  (1) 
71.327

>  <PUBCHEM_SHAPE_FINGERPRINT>  (1) 
10 15 18113890612095509760
10670039 82 16128386947846905872
10906281 52 18188227436673776804
11315181 36 17895197726674261225
11405975 8 15357989991949472733
11796584 16 15502381131769003728
12035758 1 17531544117807500481
12236239 1 17847062155866870431
12516196 113 18412261739827027957
12553582 1 18190489132260884605
12596602 18 17704073971398931403
13140716 1 18192438682309419368
13224815 77 18342461404532358430
13402501 40 18187361025906296412
13583140 156 16877935058061550922
13631057 29 17916579977135417191
14341114 328 17917993863135889960
14787075 74 18343861130432630962
14790565 3 18265623250682283972
14840074 17 18411986875284839260
14856354 85 16200429212518858908
15142383 8 13984654850125765966
15163728 17 15193623852784636465
15788980 27 14201403797754391777
17349148 13 18040436572878813940
17980427 23 17703804612952601185
19489759 90 16588019104651092175
200 152 18342736313221498255
20511986 3 18201991093439649921
21033648 29 18187628224855229548
21033650 10 16414103874640096824
21267235 1 18408887305130769838
21859007 373 15864333745356905703
22182313 1 18115308856908013878
22224240 67 18343013424347801906
23402539 116 18411412929808841260
23557571 272 17168139001339388628
23559900 14 16008753558109376916
23569917 315 18272375273910482006
26918003 58 17313106358413795800
3009799 131 17967526874635933253
335352 9 18410856569379860878
34797466 226 14405185110157479120
350125 39 18342172302073609655
3633792 109 18271804559013514551
392239 28 18411705374575365056
4015057 19 17823417265944563333
4325135 7 18060697299234466990
4340502 62 18412263943324592630
474 4 18202285822954441874
5104073 3 18189622648209773065
5486654 2 18411983585439967750
58260988 393 16845298215569744859
59755656 215 18259985938127695310
6004065 56 18338793528690567509

>  <PUBCHEM_SHAPE_MULTIPOLES>  (1) 
576.67
13.64
2
1.61
1.69
0.29
-0.54
-1.57
-0.93
1.09
0.1
-1.64
-0.18
-0.15

>  <PUBCHEM_SHAPE_SELFOVERLAP>  (1) 
1270.306

>  <PUBCHEM_SHAPE_VOLUME>  (1) 
311.2

>  <PUBCHEM_COORDINATE_TYPE>  (1) 
2
5
10

$$$$
