26349
     RDKit          3D

 29 31  0  0  1  0  0  0  0  0999 V2000
    3.1163   -0.1064   -0.9458 O   0  0  0  0  0  0  0  0  0  0  0  0
    0.9934    1.3695   -1.8866 O   0  0  0  0  0  0  0  0  0  0  0  0
   -4.0500    0.7020    0.1561 N   0  0  0  0  0  0  0  0  0  0  0  0
    0.5472    2.0381    0.2958 N   0  0  0  0  0  0  0  0  0  0  0  0
   -5.4924    0.4762   -0.0797 C   0  0  0  0  0  0  0  0  0  0  0  0
   -3.2904   -0.5466    0.3885 C   0  0  0  0  0  0  0  0  0  0  0  0
   -5.6993   -0.4861   -1.2656 C   0  0  0  0  0  0  0  0  0  0  0  0
   -3.4727   -1.5094   -0.7970 C   0  0  0  0  0  0  0  0  0  0  0  0
   -4.9393   -1.7932   -1.0888 C   0  0  0  0  0  0  0  0  0  0  0  0
   -3.7820    1.6984    1.1935 C   0  0  0  0  0  0  0  0  0  0  0  0
   -6.2570    1.7740   -0.3846 C   0  0  0  0  0  0  0  0  0  0  0  0
   -3.5885   -1.2512    1.7220 C   0  0  0  0  0  0  0  0  0  0  0  0
   -2.3047    2.0950    1.2381 C   0  0  0  0  0  0  0  0  0  0  0  0
   -1.8014    2.6838   -0.0857 C   0  0  0  0  0  0  0  0  0  0  0  0
   -0.3426    3.1250   -0.0084 C   0  0  0  0  0  0  0  0  0  0  0  0
    1.1481    1.2418   -0.6740 C   0  0  0  0  0  0  0  0  0  0  0  0
    2.0260    0.1517   -0.0734 C   0  0  0  0  0  0  0  0  0  0  0  0
    1.2563   -1.1307    0.1386 C   0  0  0  0  0  0  0  0  0  0  0  0
    0.5959   -1.3562    1.3465 C   0  0  0  0  0  0  0  0  0  0  0  0
    1.2053   -2.0893   -0.8736 C   0  0  0  0  0  0  0  0  0  0  0  0
    4.3737    0.1301   -0.4528 C   0  0  0  0  0  0  0  0  0  0  0  0
   -0.1151   -2.5401    1.5423 C   0  0  0  0  0  0  0  0  0  0  0  0
    0.4942   -3.2732   -0.6777 C   0  0  0  0  0  0  0  0  0  0  0  0
   -0.1660   -3.4985    0.5303 C   0  0  0  0  0  0  0  0  0  0  0  0
    4.7265    1.4108   -0.0267 C   0  0  0  0  0  0  0  0  0  0  0  0
    5.3003   -0.9097   -0.3777 C   0  0  0  0  0  0  0  0  0  0  0  0
    6.0060    1.6515    0.4740 C   0  0  0  0  0  0  0  0  0  0  0  0
    6.5798   -0.6690    0.1233 C   0  0  0  0  0  0  0  0  0  0  0  0
    6.9325    0.6117    0.5491 C   0  0  0  0  0  0  0  0  0  0  0  0
  1 17  1  0
  1 21  1  0
  2 16  2  0
  3  5  1  0
  3  6  1  0
  3 10  1  0
  4 15  1  0
  4 16  1  0
  5  7  1  0
  5 11  1  0
  6  8  1  0
  6 12  1  0
  7  9  1  0
  8  9  1  0
 10 13  1  0
 13 14  1  0
 14 15  1  0
 16 17  1  0
 17 18  1  0
 18 19  2  0
 18 20  1  0
 19 22  1  0
 20 23  2  0
 21 25  2  0
 21 26  1  0
 22 24  2  0
 23 24  1  0
 25 27  1  0
 26 28  2  0
 27 29  2  0
 28 29  1  0
M  END
>  <PUBCHEM_COMPOUND_CID>  (1) 
26349

>  <PUBCHEM_CONFORMER_RMSD>  (1) 
1.6

>  <PUBCHEM_CONFORMER_DIVERSEORDER>  (1) 
1
32
10
33
41
28
46
42
17
26
38
31
22
2
34
25
16
15
14
18
8
21
9
47
3
5
44
19
4
13
37
20
11
7
40
6
23
12
30
24
39
43
36
35
27
45
29

>  <PUBCHEM_MMFF94_PARTIAL_CHARGES>  (1) 
33
1 -0.36
10 0.27
15 0.3
16 0.57
17 0.48
18 -0.14
19 -0.15
2 -0.57
20 -0.15
21 0.08
22 -0.15
23 -0.15
24 -0.15
25 -0.15
26 -0.15
27 -0.15
28 -0.15
29 -0.15
3 -0.81
4 -0.73
5 0.27
52 0.37
54 0.15
55 0.15
56 0.15
57 0.15
58 0.15
59 0.15
6 0.27
60 0.15
61 0.15
62 0.15
63 0.15

>  <PUBCHEM_EFFECTIVE_ROTOR_COUNT>  (1) 
11.2

>  <PUBCHEM_PHARMACOPHORE_FEATURES>  (1) 
7
1 1 acceptor
1 2 acceptor
1 3 cation
1 4 donor
6 18 19 20 22 23 24 rings
6 21 25 26 27 28 29 rings
6 3 5 6 7 8 9 rings

>  <PUBCHEM_HEAVY_ATOM_COUNT>  (1) 
29

>  <PUBCHEM_ATOM_DEF_STEREO_COUNT>  (1) 
0

>  <PUBCHEM_ATOM_UDEF_STEREO_COUNT>  (1) 
3

>  <PUBCHEM_BOND_DEF_STEREO_COUNT>  (1) 
0

>  <PUBCHEM_BOND_UDEF_STEREO_COUNT>  (1) 
0

>  <PUBCHEM_ISOTOPIC_ATOM_COUNT>  (1) 
0

>  <PUBCHEM_COMPONENT_COUNT>  (1) 
1

>  <PUBCHEM_CACTVS_TAUTO_COUNT>  (1) 
2

>  <PUBCHEM_CONFORMER_ID>  (1) 
000066ED00000001

>  <PUBCHEM_MMFF94_ENERGY>  (1) 
57.6737

>  <PUBCHEM_FEATURE_SELFOVERLAP>  (1) 
35.526

>  <PUBCHEM_SHAPE_FINGERPRINT>  (1) 
11135926 11 18336820897519140365
11513181 2 18199470965429005942
11578080 2 17316185948865457357
11646440 116 18338811090721923673
12838862 33 18338219497864155085
13402501 40 18411139147039650680
14068700 675 18202277043978582921
14394314 77 18338801118035494913
14725015 67 18044663233532468891
14787075 74 18272090496124246232
15297060 5 17418095412974529567
17980427 23 15358273563139353980
18608769 82 18336551616466766843
20028762 73 18271806792122494494
20197701 30 18335983082570089496
20511986 3 18338228255297164549
20775438 99 16618109718822050663
21236236 1 18413953884248831448
21298829 104 18340206276995290253
23402539 116 18413107285938673142
23559900 14 18201428221271296961
2838139 119 18408601491398573383
392239 28 18272095972165389968
463206 1 18410579509302514961
474229 33 18410295792015285208
5171179 24 17982181015514709526
5486654 2 18411425016274632148
59755656 215 18337957787841339006
6009941 240 16950561129786749426
6376802 137 17846504789238975097
7226269 152 18261111915533320522
9981440 41 18260556619085742083

>  <PUBCHEM_SHAPE_MULTIPOLES>  (1) 
575.11
15.32
3.64
1.32
9.32
0.85
-0.15
-4.17
1.29
-1.42
-0.33
-0.91
0.34
-0.36

>  <PUBCHEM_SHAPE_SELFOVERLAP>  (1) 
1191.359

>  <PUBCHEM_SHAPE_VOLUME>  (1) 
327.7

>  <PUBCHEM_COORDINATE_TYPE>  (1) 
2
5
10

$$$$
