26343
     RDKit          3D

 21 23  0  0  0  0  0  0  0  0999 V2000
   -1.0183    2.4148    0.5527 O   0  0  0  0  0  0  0  0  0  0  0  0
   -2.4567   -2.6393   -0.4225 O   0  0  0  0  0  0  0  0  0  0  0  0
    3.3669   -0.2221    1.0015 C   0  0  0  0  0  0  0  0  0  0  0  0
    4.2274    0.1065   -0.2321 C   0  0  0  0  0  0  0  0  0  0  0  0
    1.9436   -0.5442    0.6914 C   0  0  0  0  0  0  0  0  0  0  0  0
    5.6956    0.3661    0.1196 C   0  0  0  0  0  0  0  0  0  0  0  0
   -0.3455    0.1718    0.3657 C   0  0  0  0  0  0  0  0  0  0  0  0
   -0.7215   -1.1487    0.1108 C   0  0  0  0  0  0  0  0  0  0  0  0
    0.9903    0.4738    0.6565 C   0  0  0  0  0  0  0  0  0  0  0  0
    6.5207    0.6628   -1.1332 C   0  0  0  0  0  0  0  0  0  0  0  0
    1.5685   -1.8619    0.4370 C   0  0  0  0  0  0  0  0  0  0  0  0
   -2.7534    0.9240    0.0205 C   0  0  0  0  0  0  0  0  0  0  0  0
   -1.3478    1.2564    0.3302 C   0  0  0  0  0  0  0  0  0  0  0  0
    0.2384   -2.1673    0.1467 C   0  0  0  0  0  0  0  0  0  0  0  0
   -3.1293   -0.3966   -0.2343 C   0  0  0  0  0  0  0  0  0  0  0  0
   -2.1272   -1.4813   -0.1981 C   0  0  0  0  0  0  0  0  0  0  0  0
    7.9866    0.8833   -0.7951 C   0  0  0  0  0  0  0  0  0  0  0  0
   -3.7129    1.9427   -0.0172 C   0  0  0  0  0  0  0  0  0  0  0  0
   -4.4647   -0.6983   -0.5272 C   0  0  0  0  0  0  0  0  0  0  0  0
   -5.0426    1.6376   -0.3093 C   0  0  0  0  0  0  0  0  0  0  0  0
   -5.4177    0.3200   -0.5637 C   0  0  0  0  0  0  0  0  0  0  0  0
  1 13  2  0
  2 16  2  0
  3  4  1  0
  3  5  1  0
  4  6  1  0
  5  9  2  0
  5 11  1  0
  6 10  1  0
  7  8  2  0
  7  9  1  0
  7 13  1  0
  8 14  1  0
  8 16  1  0
 10 17  1  0
 11 14  2  0
 12 13  1  0
 12 15  2  0
 12 18  1  0
 15 16  1  0
 15 19  1  0
 18 20  2  0
 19 21  2  0
 20 21  1  0
M  END
>  <PUBCHEM_COMPOUND_CID>  (1) 
26343

>  <PUBCHEM_CONFORMER_RMSD>  (1) 
0.6

>  <PUBCHEM_CONFORMER_DIVERSEORDER>  (1) 
1
11
26
25
14
4
7
21
6
5
10
3
15
20
2
16
17
23
22
12
19
24
13
18
8
9

>  <PUBCHEM_MMFF94_PARTIAL_CHARGES>  (1) 
24
1 -0.57
11 -0.15
12 0.09
13 0.4
14 -0.15
15 0.09
16 0.4
18 -0.15
19 -0.15
2 -0.57
20 -0.15
21 -0.15
28 0.15
3 0.14
31 0.15
32 0.15
36 0.15
37 0.15
38 0.15
39 0.15
5 -0.14
7 0.09
8 0.09
9 -0.15

>  <PUBCHEM_EFFECTIVE_ROTOR_COUNT>  (1) 
4

>  <PUBCHEM_PHARMACOPHORE_FEATURES>  (1) 
7
1 1 acceptor
1 17 hydrophobe
1 2 acceptor
4 3 4 6 10 hydrophobe
6 12 15 18 19 20 21 rings
6 5 7 8 9 11 14 rings
6 7 8 12 13 15 16 rings

>  <PUBCHEM_HEAVY_ATOM_COUNT>  (1) 
21

>  <PUBCHEM_ATOM_DEF_STEREO_COUNT>  (1) 
0

>  <PUBCHEM_ATOM_UDEF_STEREO_COUNT>  (1) 
0

>  <PUBCHEM_BOND_DEF_STEREO_COUNT>  (1) 
0

>  <PUBCHEM_BOND_UDEF_STEREO_COUNT>  (1) 
0

>  <PUBCHEM_ISOTOPIC_ATOM_COUNT>  (1) 
0

>  <PUBCHEM_COMPONENT_COUNT>  (1) 
1

>  <PUBCHEM_CACTVS_TAUTO_COUNT>  (1) 
1

>  <PUBCHEM_CONFORMER_ID>  (1) 
000066E700000001

>  <PUBCHEM_MMFF94_ENERGY>  (1) 
49.5519

>  <PUBCHEM_FEATURE_SELFOVERLAP>  (1) 
35.563

>  <PUBCHEM_SHAPE_FINGERPRINT>  (1) 
10411042 1 17833833046937662075
106641 1 16877668972269192625
10670039 82 18410575055342671516
10730089 173 18411139138908495996
10759866 29 18261667061056840506
10906281 52 18341057307157316595
10967382 1 18269543954480150491
11315181 36 17917720136681218464
12011746 2 18273206496157344989
12236239 1 17967529073801607082
12390115 104 18059299747400361169
12403814 3 17604140442240715181
12670543 26 18202567255050252718
12788726 201 17917429752971950921
12954195 1 17703518692368085168
13631057 29 17096656589585816763
13668630 136 15339122351443179932
14251752 14 18411700976945507006
14790565 3 18268994193944462737
14840074 17 17530970193912087716
15048467 5 17967811643583430708
15183329 4 18342179909078129178
15196674 1 18268421352986878387
15575132 122 18040432144725918892
16087824 20 18412256252399357111
16945 1 18268696359964283379
18681886 176 18339919415754738840
19427546 20 18334857276720446079
19784866 240 13326853340396826248
200 152 14979960267943236106
21267235 1 18270118037025953591
22122407 14 16153721907538106228
22224240 67 14129060335399841784
2297311 6 17988926681984287641
23366157 5 17973443191886499362
23402539 116 18412259567158794606
23559900 14 18201995582076581104
2748010 2 17763446710878856467
2838139 119 17458626735620331020
335352 9 18413101780587009581
3472631 163 18260557757852857796
34797466 226 17846503677465242036
34934 24 18337101285721685331
4340502 62 16733552611535383747
474 4 17603590733571201296
5104073 3 18267858398712220883
5364581 5 11459293331679586158
5486654 2 18412822469540683681
59755656 215 18272653424823929070
59755656 520 17240481425214271170

>  <PUBCHEM_SHAPE_MULTIPOLES>  (1) 
420.43
14.95
2.2
0.88
26.98
0.5
0.02
-7.2
5.76
-1.91
-0.01
0.66
-0.06
-0.84

>  <PUBCHEM_SHAPE_SELFOVERLAP>  (1) 
914.827

>  <PUBCHEM_SHAPE_VOLUME>  (1) 
228.9

>  <PUBCHEM_COORDINATE_TYPE>  (1) 
2
5
10

$$$$
