26345
     RDKit          3D

 16 16  0  0  0  0  0  0  0  0999 V2000
   -4.5622   -2.3247   -0.0724 Cl  0  0  0  0  0  0  0  0  0  0  0  0
    0.0874    1.8611    0.0060 S   0  0  0  0  0  0  0  0  0  0  0  0
    3.1784   -0.5402   -0.5437 O   0  0  0  0  0  0  0  0  0  0  0  0
   -0.2257    2.9012   -0.9549 O   0  0  0  0  0  0  0  0  0  0  0  0
    0.3309    2.1939    1.3964 O   0  0  0  0  0  0  0  0  0  0  0  0
    2.0050   -0.1677    1.3951 O   0  0  0  0  0  0  0  0  0  0  0  0
    1.3844    0.9173   -0.5828 N   0  0  0  0  0  0  0  0  0  0  0  0
   -1.2273    0.6798   -0.0154 C   0  0  0  0  0  0  0  0  0  0  0  0
   -1.4548   -0.0986    1.1062 C   0  0  0  0  0  0  0  0  0  0  0  0
   -2.0041    0.5540   -1.1542 C   0  0  0  0  0  0  0  0  0  0  0  0
   -2.4912   -1.0319    1.0886 C   0  0  0  0  0  0  0  0  0  0  0  0
   -3.0407   -0.3793   -1.1718 C   0  0  0  0  0  0  0  0  0  0  0  0
   -3.2844   -1.1722   -0.0503 C   0  0  0  0  0  0  0  0  0  0  0  0
    2.1895    0.0358    0.2013 C   0  0  0  0  0  0  0  0  0  0  0  0
    4.0416   -1.4414    0.1580 C   0  0  0  0  0  0  0  0  0  0  0  0
    5.0734   -1.9871   -0.8060 C   0  0  0  0  0  0  0  0  0  0  0  0
  1 13  1  0
  2  4  2  0
  2  5  2  0
  2  7  1  0
  2  8  1  0
  3 14  1  0
  3 15  1  0
  6 14  2  0
  7 14  1  0
  8  9  2  0
  8 10  1  0
  9 11  1  0
 10 12  2  0
 11 13  2  0
 12 13  1  0
 15 16  1  0
M  END
>  <PUBCHEM_COMPOUND_CID>  (1) 
26345

>  <PUBCHEM_CONFORMER_RMSD>  (1) 
0.6

>  <PUBCHEM_CONFORMER_DIVERSEORDER>  (1) 
1
39
16
21
24
8
38
36
12
34
33
15
35
32
40
4
11
30
13
17
3
7
9
5
2
6
27
18
14
37
20
28
29
26
31
10
25
23
22
19

>  <PUBCHEM_MMFF94_PARTIAL_CHARGES>  (1) 
20
1 -0.18
10 -0.15
11 -0.15
12 -0.15
13 0.18
14 0.96
15 0.28
17 0.15
18 0.15
19 0.42
2 1.45
20 0.15
21 0.15
3 -0.43
4 -0.65
5 -0.65
6 -0.57
7 -0.79
8 -0.01
9 -0.15

>  <PUBCHEM_EFFECTIVE_ROTOR_COUNT>  (1) 
5

>  <PUBCHEM_PHARMACOPHORE_FEATURES>  (1) 
5
1 4 acceptor
1 5 acceptor
1 6 acceptor
1 7 donor
6 8 9 10 11 12 13 rings

>  <PUBCHEM_HEAVY_ATOM_COUNT>  (1) 
16

>  <PUBCHEM_ATOM_DEF_STEREO_COUNT>  (1) 
0

>  <PUBCHEM_ATOM_UDEF_STEREO_COUNT>  (1) 
0

>  <PUBCHEM_BOND_DEF_STEREO_COUNT>  (1) 
0

>  <PUBCHEM_BOND_UDEF_STEREO_COUNT>  (1) 
0

>  <PUBCHEM_ISOTOPIC_ATOM_COUNT>  (1) 
0

>  <PUBCHEM_COMPONENT_COUNT>  (1) 
1

>  <PUBCHEM_CACTVS_TAUTO_COUNT>  (1) 
2

>  <PUBCHEM_CONFORMER_ID>  (1) 
000066E900000001

>  <PUBCHEM_MMFF94_ENERGY>  (1) 
12.9532

>  <PUBCHEM_FEATURE_SELFOVERLAP>  (1) 
25.392

>  <PUBCHEM_SHAPE_FINGERPRINT>  (1) 
10465860 71 17821723944453170605
10968037 57 18341618126675577319
11046707 91 18343022147257860838
11127187 94 18040432161878946023
11132069 177 12535352324404671371
12251169 10 14405187287141401907
12363563 72 18410014338181160238
12633257 1 15051732018622085406
13296908 3 18410285930353570688
13533116 47 18055636364009835539
14123255 52 8862944974297292622
14251731 5 18410013260023218471
14251764 30 17895493500098514427
14251764 38 10811638093065491406
14252887 29 18339918345827626568
15061688 2 8502658094944781114
17834072 32 9007048067961897550
1798214 55 9295292750438441782
19765921 60 8070035441113147957
19784866 240 18342463668486902431
20112054 13 9943805590710613674
20281475 54 18411706507924406861
20361792 2 18413106186289908397
20374829 77 18335133176671175355
20388580 30 18336271248509755052
20645477 70 18045494477097029863
20671657 53 18408890667272524037
20711985 344 18191014612751245848
20871998 22 18339637944561311889
20871999 31 17749388148356657423
21061003 4 18342458149242508107
21713013 43 17967245412317583279
23403322 49 18336264557114679694
23526113 38 17968659452942738113
23557571 272 18188475969415188992
23559900 14 18336532821378396016
25 1 11025789886326840214
270888 7 8502377715159143438
27216 239 10375572811653192351
3286 77 17489585671242968298
4028521 119 12324246061548783454
5207 123 18411698820576843887
7364860 26 17975131260183787597
81228 2 18264759965727965488
90316 7 15052016771043751083

>  <PUBCHEM_SHAPE_MULTIPOLES>  (1) 
306.53
8.3
2.58
1.25
5.83
0.87
0.15
-9.43
-1.62
0.13
-0.26
-0.23
0.2
0.66

>  <PUBCHEM_SHAPE_SELFOVERLAP>  (1) 
604.274

>  <PUBCHEM_SHAPE_VOLUME>  (1) 
183.8

>  <PUBCHEM_COORDINATE_TYPE>  (1) 
2
5
10

$$$$
