26346
     RDKit          3D

 23 24  0  0  1  0  0  0  0  0999 V2000
    0.1766   -0.4291   -2.5370 O   0  0  0  0  0  0  0  0  0  0  0  0
   -1.1035    1.4193    1.6988 O   0  0  0  0  0  0  0  0  0  0  0  0
   -2.2016   -1.1326    0.5401 C   0  0  0  0  0  0  0  0  0  0  0  0
   -1.8839   -0.1077   -0.5851 C   0  0  0  0  0  0  0  0  0  0  0  0
   -3.6980   -1.4677    0.5553 C   0  0  0  0  0  0  0  0  0  0  0  0
   -4.5450   -0.2129    0.7768 C   0  0  0  0  0  0  0  0  0  0  0  0
   -2.9312    0.9803   -0.7035 C   0  0  0  0  0  0  0  0  0  0  0  0
   -0.4886    0.4853   -0.4222 C   0  0  0  0  0  0  0  0  0  0  0  0
   -4.1203    0.9524   -0.0772 C   0  0  0  0  0  0  0  0  0  0  0  0
   -1.4026   -2.3949    0.3881 C   0  0  0  0  0  0  0  0  0  0  0  0
    0.4668    0.2884   -1.4153 C   0  0  0  0  0  0  0  0  0  0  0  0
   -0.1781    1.2203    0.7184 C   0  0  0  0  0  0  0  0  0  0  0  0
   -5.1036    2.0796   -0.1931 C   0  0  0  0  0  0  0  0  0  0  0  0
   -1.6123   -3.1612   -0.8842 C   0  0  0  0  0  0  0  0  0  0  0  0
    2.0588    1.5684   -0.1255 C   0  0  0  0  0  0  0  0  0  0  0  0
    1.7430    0.8312   -1.2667 C   0  0  0  0  0  0  0  0  0  0  0  0
    1.0982    1.7630    0.8670 C   0  0  0  0  0  0  0  0  0  0  0  0
    3.4234    2.1484    0.0331 C   0  0  0  0  0  0  0  0  0  0  0  0
   -0.5501   -2.8128    1.3354 C   0  0  0  0  0  0  0  0  0  0  0  0
    4.4296    1.2228    0.7411 C   0  0  0  0  0  0  0  0  0  0  0  0
    4.6940   -0.0713   -0.0346 C   0  0  0  0  0  0  0  0  0  0  0  0
    5.7162   -0.9503    0.6871 C   0  0  0  0  0  0  0  0  0  0  0  0
    6.0120   -2.2189   -0.0970 C   0  0  0  0  0  0  0  0  0  0  0  0
  1 11  1  0
  2 12  1  0
  3  4  1  0
  3  5  1  0
  3 10  1  0
  4  7  1  0
  4  8  1  0
  5  6  1  0
  6  9  1  0
  7  9  2  0
  8 11  2  0
  8 12  1  0
  9 13  1  0
 10 14  1  0
 10 19  2  0
 11 16  1  0
 12 17  2  0
 15 16  2  0
 15 17  1  0
 15 18  1  0
 18 20  1  0
 20 21  1  0
 21 22  1  0
 22 23  1  0
M  END
>  <PUBCHEM_COMPOUND_CID>  (1) 
26346

>  <PUBCHEM_CONFORMER_RMSD>  (1) 
0.8

>  <PUBCHEM_CONFORMER_DIVERSEORDER>  (1) 
56
65
92
128
129
59
73
1
130
39
45
120
85
90
106
147
96
13
54
35
135
64
138
8
108
143
145
44
95
140
131
6
77
103
62
137
94
43
22
107
10
5
63
81
9
3
136
32
71
78
126
25
146
98
29
72
116
49
61
11
75
111
105
76
118
123
148
125
2
74
42
14
52
67
15
50
86
51
104
69
40
17
66
16
93
144
37
55
12
88
109
91
119
133
127
68
7
141
142
34
57
18
117
21
70
89
48
4
20
134
100
102
115
36
83
23
31
139
46
38
24
82
33
30
97
19
27
26
47
121
114
60
80
99
53
41
113
28
87
124
84
132
101
79
110
58
122
112

>  <PUBCHEM_MMFF94_PARTIAL_CHARGES>  (1) 
25
1 -0.53
10 -0.28
11 0.08
12 0.08
13 0.14
14 0.14
15 -0.14
16 -0.15
17 -0.15
18 0.14
19 -0.3
2 -0.53
3 0.14
30 0.15
37 0.15
38 0.15
4 0.28
41 0.15
42 0.15
47 0.45
48 0.45
6 0.14
7 -0.29
8 -0.14
9 -0.28

>  <PUBCHEM_EFFECTIVE_ROTOR_COUNT>  (1) 
6.8

>  <PUBCHEM_PHARMACOPHORE_FEATURES>  (1) 
6
1 1 donor
1 2 donor
1 23 hydrophobe
4 18 20 21 22 hydrophobe
6 3 4 5 6 7 9 rings
6 8 11 12 15 16 17 rings

>  <PUBCHEM_HEAVY_ATOM_COUNT>  (1) 
23

>  <PUBCHEM_ATOM_DEF_STEREO_COUNT>  (1) 
1

>  <PUBCHEM_ATOM_UDEF_STEREO_COUNT>  (1) 
1

>  <PUBCHEM_BOND_DEF_STEREO_COUNT>  (1) 
0

>  <PUBCHEM_BOND_UDEF_STEREO_COUNT>  (1) 
0

>  <PUBCHEM_ISOTOPIC_ATOM_COUNT>  (1) 
0

>  <PUBCHEM_COMPONENT_COUNT>  (1) 
1

>  <PUBCHEM_CACTVS_TAUTO_COUNT>  (1) 
10

>  <PUBCHEM_CONFORMER_ID>  (1) 
000066EA00000038

>  <PUBCHEM_MMFF94_ENERGY>  (1) 
44.3397

>  <PUBCHEM_FEATURE_SELFOVERLAP>  (1) 
30.447

>  <PUBCHEM_SHAPE_FINGERPRINT>  (1) 
10498660 4 11167679658647216642
10906281 52 17774179957846347337
11112241 14 17702077335966867978
11405975 8 18338514252668664064
12633257 1 17699872883693415851
12788726 201 18059584555329839296
13402501 40 18336266748292078418
13551218 46 18335987574668609555
13583140 156 17843396543135208664
14251732 17 18340769252090300229
14420673 8 18261394395554114298
15042514 8 18045226200792443907
15537594 2 17313097519745712474
16945 1 18122628516314787189
17349148 13 17918000485575007808
1813 80 16443059530479255964
21065198 57 18339078323476713216
21279426 13 18410855417473881524
21330990 113 17894624816849617974
21403212 168 18263916657915909525
23402539 116 18342451556673983061
23419403 2 17038052319525245329
23559900 14 18412542137547708272
3004659 81 18186523186115648778
404807 14 16693035423068674918
4072396 5 17489590043461770076
474 4 12967130553733304666
5104073 3 18201162155882155992
5265222 85 18190758599089141854
532947 4 18269839705269328983
559249 180 18335135375979020922
5924683 9 18056471987681520543
59755656 215 18042962073784016773
59755656 520 18410565189971085093
6138700 20 18337954463679284274
7226269 152 18131070411357324825
9709674 26 18191024706419906370

>  <PUBCHEM_SHAPE_MULTIPOLES>  (1) 
461.59
10.92
3.06
1.39
10.89
2.07
0.44
0.67
-1.69
-0.18
-0.38
-0.05
0.1
0.33

>  <PUBCHEM_SHAPE_SELFOVERLAP>  (1) 
951.798

>  <PUBCHEM_SHAPE_VOLUME>  (1) 
264.6

>  <PUBCHEM_COORDINATE_TYPE>  (1) 
2
5
10

$$$$
