26357
     RDKit          3D

 28 31  0  0  1  0  0  0  0  0999 V2000
   -1.7912   -0.0984   -1.3296 S   0  0  0  0  0  0  0  0  0  0  0  0
    2.8067   -0.9053    0.3215 O   0  0  0  0  0  0  0  0  0  0  0  0
    0.3052   -2.5203    0.1861 O   0  0  0  0  0  0  0  0  0  0  0  0
    2.5204   -3.2317   -0.1295 O   0  0  0  0  0  0  0  0  0  0  0  0
    2.8767    1.7899   -0.5005 O   0  0  0  0  0  0  0  0  0  0  0  0
   -0.6102    0.0776   -0.2072 O   0  0  0  0  0  0  0  0  0  0  0  0
    3.8995    2.8101    1.3525 O   0  0  0  0  0  0  0  0  0  0  0  0
   -1.9552   -1.5086   -1.6236 O   0  0  0  0  0  0  0  0  0  0  0  0
   -1.5510    0.8717   -2.3814 O   0  0  0  0  0  0  0  0  0  0  0  0
    1.6988   -0.0261    0.5910 C   0  0  0  0  0  0  0  0  0  0  0  0
    0.8997   -1.7117   -0.8330 C   0  0  0  0  0  0  0  0  0  0  0  0
    0.7200   -0.2409   -0.5542 C   0  0  0  0  0  0  0  0  0  0  0  0
    2.3808   -1.9051   -0.6252 C   0  0  0  0  0  0  0  0  0  0  0  0
    2.1995    1.4031    0.6985 C   0  0  0  0  0  0  0  0  0  0  0  0
    1.2467   -3.5727    0.4316 C   0  0  0  0  0  0  0  0  0  0  0  0
    3.2501    1.6061    1.7632 C   0  0  0  0  0  0  0  0  0  0  0  0
    3.8074    2.8017   -0.0817 C   0  0  0  0  0  0  0  0  0  0  0  0
    1.3946   -3.7542    1.9362 C   0  0  0  0  0  0  0  0  0  0  0  0
    0.7509   -4.8522   -0.2321 C   0  0  0  0  0  0  0  0  0  0  0  0
    5.1741    2.4782   -0.6722 C   0  0  0  0  0  0  0  0  0  0  0  0
    3.3122    4.1655   -0.5458 C   0  0  0  0  0  0  0  0  0  0  0  0
   -3.2662    0.3984   -0.4969 C   0  0  0  0  0  0  0  0  0  0  0  0
   -3.6552    1.7273   -0.5422 C   0  0  0  0  0  0  0  0  0  0  0  0
   -4.0105   -0.5481    0.1882 C   0  0  0  0  0  0  0  0  0  0  0  0
   -4.8203    2.1206    0.1161 C   0  0  0  0  0  0  0  0  0  0  0  0
   -5.1758   -0.1547    0.8463 C   0  0  0  0  0  0  0  0  0  0  0  0
   -5.5807    1.1797    0.8102 C   0  0  0  0  0  0  0  0  0  0  0  0
   -6.8270    1.5999    1.5136 C   0  0  0  0  0  0  0  0  0  0  0  0
  1  6  1  0
  1  8  2  0
  1  9  2  0
  1 22  1  0
  2 10  1  0
  2 13  1  0
  3 11  1  0
  3 15  1  0
  4 13  1  0
  4 15  1  0
  5 14  1  0
  5 17  1  0
  6 12  1  0
  7 16  1  0
  7 17  1  0
 10 12  1  0
 10 14  1  0
 11 12  1  0
 11 13  1  0
 14 16  1  0
 15 18  1  0
 15 19  1  0
 17 20  1  0
 17 21  1  0
 22 23  2  0
 22 24  1  0
 23 25  1  0
 24 26  2  0
 25 27  2  0
 26 27  1  0
 27 28  1  0
M  END
>  <PUBCHEM_COMPOUND_CID>  (1) 
26357

>  <PUBCHEM_CONFORMER_RMSD>  (1) 
0.8

>  <PUBCHEM_CONFORMER_DIVERSEORDER>  (1) 
13
63
45
139
38
55
170
143
56
141
9
71
77
96
140
147
73
124
53
120
17
102
10
171
25
121
61
74
126
99
22
110
101
150
98
62
26
59
39
42
12
104
95
40
132
157
156
27
113
129
88
47
36
159
164
127
92
90
125
51
6
72
111
131
145
118
154
14
162
1
144
35
115
60
130
82
81
29
152
87
67
166
44
153
30
128
158
65
66
50
91
100
169
52
31
15
97
168
117
46
37
105
122
69
112
24
155
148
163
8
70
93
68
123
58
94
135
21
3
165
18
33
89
78
85
114
142
7
167
84
160
34
76
146
64
86
28
5
138
75
79
116
137
108
83
16
133
48
149
54
2
136
109
23
103
161
151
4
11
119
43
106
32
19
49
20
107
41
80
57
134

>  <PUBCHEM_MMFF94_PARTIAL_CHARGES>  (1) 
28
1 1.49
10 0.28
11 0.28
12 0.28
13 0.56
14 0.28
15 0.56
16 0.28
17 0.56
2 -0.56
22 -0.01
23 -0.15
24 -0.15
25 -0.15
26 -0.15
27 -0.14
28 0.14
3 -0.56
4 -0.56
48 0.15
49 0.15
5 -0.56
50 0.15
51 0.15
6 -0.46
7 -0.56
8 -0.65
9 -0.65

>  <PUBCHEM_EFFECTIVE_ROTOR_COUNT>  (1) 
6.2

>  <PUBCHEM_PHARMACOPHORE_FEATURES>  (1) 
13
1 2 acceptor
1 3 acceptor
1 4 acceptor
1 5 acceptor
1 7 acceptor
1 8 acceptor
1 9 acceptor
3 15 18 19 hydrophobe
3 17 20 21 hydrophobe
5 2 10 11 12 13 rings
5 3 4 11 13 15 rings
5 5 7 14 16 17 rings
6 22 23 24 25 26 27 rings

>  <PUBCHEM_HEAVY_ATOM_COUNT>  (1) 
28

>  <PUBCHEM_ATOM_DEF_STEREO_COUNT>  (1) 
0

>  <PUBCHEM_ATOM_UDEF_STEREO_COUNT>  (1) 
5

>  <PUBCHEM_BOND_DEF_STEREO_COUNT>  (1) 
0

>  <PUBCHEM_BOND_UDEF_STEREO_COUNT>  (1) 
0

>  <PUBCHEM_ISOTOPIC_ATOM_COUNT>  (1) 
0

>  <PUBCHEM_COMPONENT_COUNT>  (1) 
1

>  <PUBCHEM_CACTVS_TAUTO_COUNT>  (1) 
1

>  <PUBCHEM_CONFORMER_ID>  (1) 
000066F50000000D

>  <PUBCHEM_MMFF94_ENERGY>  (1) 
71.7099

>  <PUBCHEM_FEATURE_SELFOVERLAP>  (1) 
66.787

>  <PUBCHEM_SHAPE_FINGERPRINT>  (1) 
10165383 225 18260845795159632852
11135609 201 18127965523812151665
12160290 23 17473511009024290854
12293681 160 17846506975631081992
12788726 201 16916517947789106761
12892183 10 18408893919469946353
12930653 34 18337679740681358731
13140716 1 18410563003200085442
133893 2 17979595070943757150
13533116 47 18264497187729480363
13540713 5 17987496205009882343
13583140 156 18118395151782225895
13878862 14 18196072367056907701
13955234 65 18337114453911995515
14790565 3 18194125341726592413
14849402 71 18409451371459040474
14955137 171 18196089933061788758
15142526 21 18198620123949167169
151778 21 18411695482817276029
15664445 248 17912941486773862310
15775530 1 17752183016725653661
15842332 3 17844501397797071487
16126227 98 17976828902027255564
17868525 174 17907293261081757937
18785283 64 18335698313063429402
19319366 153 18272367585722803489
1979834 28 18114472214427291845
20739085 24 18260828189809721796
21049683 271 18117010883791329958
21065198 57 18266741273613265613
21120745 212 17261891948991351638
21365058 113 17769677311711967982
21585480 29 18193295177169019899
21716022 299 17686650968749545838
21756936 100 18126279981350959732
22122407 14 17987252032209298601
2255824 54 18340197493148658694
22907989 373 17472687509222038318
23558518 356 18195230334085871294
23559900 14 18191305975348729039
23845131 108 18336262452891928107
283562 15 17908687776870338751
31174 14 18191865626456381767
3178227 256 18335986368267797418
3380486 145 17401159462882465158
3411729 13 18342463625394440829
38570 142 18200610171144167436
4058900 60 18337685181851009241
444735 79 18045515359370591483
458136 41 18409725179629087998
474 4 18410847780769081461
5104073 3 18339934714997524753
5252454 2 18202274832054555705
56616090 278 18342183219447927279
57724786 102 18200320905703469161
59444896 2 7803862144335340671
59755656 520 18263923414047315324
621550 34 18186799167201707101
6287921 2 18333735727593907949
633830 44 18200870781311867460
6442390 28 18337396057558194870
653340 110 18193563495948921147
6703917 75 18121519091602201524
7808743 9 17977665643286943744
79837 15 18048312533461134978
9555976 147 17476045383833568760
9658208 31 18126007298388568912
9841814 1 18122621660930284995
9999458 23 18410579448566357334

>  <PUBCHEM_SHAPE_MULTIPOLES>  (1) 
533.12
11.59
5.51
1.52
17.25
4.26
0.04
-12.52
3.89
-7.87
0.73
0.27
0.01
-0.66

>  <PUBCHEM_SHAPE_SELFOVERLAP>  (1) 
1129.735

>  <PUBCHEM_SHAPE_VOLUME>  (1) 
304.2

>  <PUBCHEM_COORDINATE_TYPE>  (1) 
2
5
10

$$$$
