26352
     RDKit          3D

 20 21  0  0  0  0  0  0  0  0999 V2000
    1.8359    3.3441    0.7848 Cl  0  0  0  0  0  0  0  0  0  0  0  0
    3.4235   -2.4516   -0.9162 Cl  0  0  0  0  0  0  0  0  0  0  0  0
    5.6544   -0.3474    0.1158 Cl  0  0  0  0  0  0  0  0  0  0  0  0
   -4.7180    0.9662   -0.2289 O   0  0  0  0  0  0  0  0  0  0  0  0
   -2.2371   -2.8654    0.5231 O   0  0  0  0  0  0  0  0  0  0  0  0
   -0.0651    1.1885   -0.2159 N   0  0  0  0  0  0  0  0  0  0  0  0
   -1.1223   -0.8706    0.1611 N   0  0  0  0  0  0  0  0  0  0  0  0
   -2.4091    1.1169   -0.2289 N   0  0  0  0  0  0  0  0  0  0  0  0
   -3.5195   -0.9757    0.1536 N   0  0  0  0  0  0  0  0  0  0  0  0
    1.2998    0.8309   -0.1337 C   0  0  0  0  0  0  0  0  0  0  0  0
    2.2615    1.7381    0.3110 C   0  0  0  0  0  0  0  0  0  0  0  0
    1.6780   -0.4583   -0.5086 C   0  0  0  0  0  0  0  0  0  0  0  0
   -1.2521    0.4449   -0.0888 C   0  0  0  0  0  0  0  0  0  0  0  0
    3.0178   -0.8402   -0.4388 C   0  0  0  0  0  0  0  0  0  0  0  0
    3.6012    1.3562    0.3808 C   0  0  0  0  0  0  0  0  0  0  0  0
    3.9794    0.0670    0.0061 C   0  0  0  0  0  0  0  0  0  0  0  0
   -3.4988    0.3438   -0.0951 C   0  0  0  0  0  0  0  0  0  0  0  0
   -2.2953   -1.5150    0.2695 C   0  0  0  0  0  0  0  0  0  0  0  0
   -4.6931    2.3612   -0.4942 C   0  0  0  0  0  0  0  0  0  0  0  0
   -0.9409   -3.4337    0.6432 C   0  0  0  0  0  0  0  0  0  0  0  0
  1 11  1  0
  2 14  1  0
  3 16  1  0
  4 17  1  0
  4 19  1  0
  5 18  1  0
  5 20  1  0
  6 10  1  0
  6 13  1  0
  7 13  2  0
  7 18  1  0
  8 13  1  0
  8 17  2  0
  9 17  1  0
  9 18  2  0
 10 11  2  0
 10 12  1  0
 11 15  1  0
 12 14  2  0
 14 16  1  0
 15 16  2  0
M  END
>  <PUBCHEM_COMPOUND_CID>  (1) 
26352

>  <PUBCHEM_CONFORMER_RMSD>  (1) 
0.6

>  <PUBCHEM_CONFORMER_DIVERSEORDER>  (1) 
2
30
16
40
18
12
42
21
39
17
41
13
6
38
5
8
11
37
14
15
7
19
32
3
35
20
36
1
22
34
4
33
10
24
23
29
26
25
31
9
28
27

>  <PUBCHEM_MMFF94_PARTIAL_CHARGES>  (1) 
23
1 -0.18
10 0.1
11 0.18
12 -0.15
13 0.72
14 0.18
15 -0.15
16 0.18
17 0.7
18 0.7
19 0.28
2 -0.18
20 0.28
21 0.4
22 0.15
23 0.15
3 -0.18
4 -0.36
5 -0.36
6 -0.6
7 -0.62
8 -0.62
9 -0.62

>  <PUBCHEM_EFFECTIVE_ROTOR_COUNT>  (1) 
4

>  <PUBCHEM_PHARMACOPHORE_FEATURES>  (1) 
4
1 6 donor
4 6 7 8 13 cation
6 10 11 12 14 15 16 rings
6 7 8 9 13 17 18 rings

>  <PUBCHEM_HEAVY_ATOM_COUNT>  (1) 
20

>  <PUBCHEM_ATOM_DEF_STEREO_COUNT>  (1) 
0

>  <PUBCHEM_ATOM_UDEF_STEREO_COUNT>  (1) 
0

>  <PUBCHEM_BOND_DEF_STEREO_COUNT>  (1) 
0

>  <PUBCHEM_BOND_UDEF_STEREO_COUNT>  (1) 
0

>  <PUBCHEM_ISOTOPIC_ATOM_COUNT>  (1) 
0

>  <PUBCHEM_COMPONENT_COUNT>  (1) 
1

>  <PUBCHEM_CACTVS_TAUTO_COUNT>  (1) 
3

>  <PUBCHEM_CONFORMER_ID>  (1) 
000066F000000002

>  <PUBCHEM_MMFF94_ENERGY>  (1) 
67.0173

>  <PUBCHEM_FEATURE_SELFOVERLAP>  (1) 
20.297

>  <PUBCHEM_SHAPE_FINGERPRINT>  (1) 
10608611 8 18339640169481004225
10616163 171 18049447238241007230
10906281 52 18129117661879868340
11370993 70 18411696599514119183
12500047 106 18408602586683435421
12633257 1 18411987978806422296
12788726 201 18199467650061899864
13402501 40 18411703145355657838
13544592 145 18338805502679515934
14115302 16 18260841383943506356
14178342 30 18046055218893695376
14223421 5 18123472944954271936
14866123 147 17190110327702020194
15042514 8 18044944704398925531
15099037 51 18409729517488060613
15196674 1 18410574032818084552
15375358 24 18413670210095916990
17804303 29 18409171038505982084
200 152 17561078103318986533
20645477 56 18335139804354287317
20645477 70 17846782888487344372
20832881 197 18123755253170611615
21033648 29 18335125480633736437
21065198 57 18338232786070741984
21279426 13 18122907521326769245
21421861 104 17677883531906833210
21521239 73 18200013081312836167
221490 88 18194407912420142592
23402539 116 18341885277719792357
23558518 356 17971473154648043090
23559900 14 18341890814323000936
26918003 58 18343299262837406960
3004659 81 18188495649704340878
335352 9 18410291385188864348
34934 24 18412258416049829118
4214541 1 18410011052583887189
495365 180 17703213092443852784
5104073 3 18338796818398075248
532947 4 18267586801881085567
5385378 56 18119814599966794337
59124914 9 18195245517043247449
59755656 215 18340209571250738566
69090 78 18410852174910846559
81228 2 17825670225430696627
8809292 202 18336549412436062362
9709674 26 18340771545302402798

>  <PUBCHEM_SHAPE_MULTIPOLES>  (1) 
385.54
9.88
3.54
0.78
0.67
0.9
-0.01
-1.66
-0.86
0.66
0.74
-0.17
0.09
1.62

>  <PUBCHEM_SHAPE_SELFOVERLAP>  (1) 
789.755

>  <PUBCHEM_SHAPE_VOLUME>  (1) 
224.6

>  <PUBCHEM_COORDINATE_TYPE>  (1) 
2
5
10

$$$$
