26351
     RDKit          3D

 19 20  0  0  0  0  0  0  0  0999 V2000
   -3.6826   -2.0418    0.9748 Cl  0  0  0  0  0  0  0  0  0  0  0  0
   -5.7637    0.1248   -0.2273 Cl  0  0  0  0  0  0  0  0  0  0  0  0
    2.0450   -2.8198   -0.3607 O   0  0  0  0  0  0  0  0  0  0  0  0
    4.6670    0.9564    0.1564 O   0  0  0  0  0  0  0  0  0  0  0  0
    0.0263    1.3539    0.0918 N   0  0  0  0  0  0  0  0  0  0  0  0
    2.3656    1.1940    0.1303 N   0  0  0  0  0  0  0  0  0  0  0  0
    1.0056   -0.7646   -0.1378 N   0  0  0  0  0  0  0  0  0  0  0  0
    3.3969   -0.9600   -0.1025 N   0  0  0  0  0  0  0  0  0  0  0  0
   -1.3484    1.0470    0.0219 C   0  0  0  0  0  0  0  0  0  0  0  0
   -1.8109   -0.1900    0.4713 C   0  0  0  0  0  0  0  0  0  0  0  0
   -2.2456    1.9809   -0.4962 C   0  0  0  0  0  0  0  0  0  0  0  0
    1.1862    0.5575    0.0251 C   0  0  0  0  0  0  0  0  0  0  0  0
   -3.1707   -0.4929    0.4025 C   0  0  0  0  0  0  0  0  0  0  0  0
   -3.6054    1.6778   -0.5651 C   0  0  0  0  0  0  0  0  0  0  0  0
   -4.0679    0.4409   -0.1158 C   0  0  0  0  0  0  0  0  0  0  0  0
    2.1536   -1.4590   -0.1927 C   0  0  0  0  0  0  0  0  0  0  0  0
    3.4256    0.3728    0.0580 C   0  0  0  0  0  0  0  0  0  0  0  0
    0.7288   -3.3445   -0.4580 C   0  0  0  0  0  0  0  0  0  0  0  0
    4.6944    2.3666    0.3240 C   0  0  0  0  0  0  0  0  0  0  0  0
  1 13  1  0
  2 15  1  0
  3 16  1  0
  3 18  1  0
  4 17  1  0
  4 19  1  0
  5  9  1  0
  5 12  1  0
  6 12  2  0
  6 17  1  0
  7 12  1  0
  7 16  2  0
  8 16  1  0
  8 17  2  0
  9 10  2  0
  9 11  1  0
 10 13  1  0
 11 14  2  0
 13 15  2  0
 14 15  1  0
M  END
>  <PUBCHEM_COMPOUND_CID>  (1) 
26351

>  <PUBCHEM_CONFORMER_RMSD>  (1) 
0.6

>  <PUBCHEM_CONFORMER_DIVERSEORDER>  (1) 
1
39
27
40
7
48
4
45
10
9
47
11
46
21
12
43
5
13
14
44
28
8
41
3
42
2
38
25
26
37
18
36
6
35
31
32
20
33
19
30
29
17
16
15
34
22
23
24

>  <PUBCHEM_MMFF94_PARTIAL_CHARGES>  (1) 
23
1 -0.18
10 -0.15
11 -0.15
12 0.72
13 0.18
14 -0.15
15 0.18
16 0.7
17 0.7
18 0.28
19 0.28
2 -0.18
20 0.4
21 0.15
22 0.15
23 0.15
3 -0.36
4 -0.36
5 -0.6
6 -0.62
7 -0.62
8 -0.62
9 0.1

>  <PUBCHEM_EFFECTIVE_ROTOR_COUNT>  (1) 
4

>  <PUBCHEM_PHARMACOPHORE_FEATURES>  (1) 
4
1 5 donor
4 5 6 7 12 cation
6 6 7 8 12 16 17 rings
6 9 10 11 13 14 15 rings

>  <PUBCHEM_HEAVY_ATOM_COUNT>  (1) 
19

>  <PUBCHEM_ATOM_DEF_STEREO_COUNT>  (1) 
0

>  <PUBCHEM_ATOM_UDEF_STEREO_COUNT>  (1) 
0

>  <PUBCHEM_BOND_DEF_STEREO_COUNT>  (1) 
0

>  <PUBCHEM_BOND_UDEF_STEREO_COUNT>  (1) 
0

>  <PUBCHEM_ISOTOPIC_ATOM_COUNT>  (1) 
0

>  <PUBCHEM_COMPONENT_COUNT>  (1) 
1

>  <PUBCHEM_CACTVS_TAUTO_COUNT>  (1) 
3

>  <PUBCHEM_CONFORMER_ID>  (1) 
000066EF00000001

>  <PUBCHEM_MMFF94_ENERGY>  (1) 
64.9737

>  <PUBCHEM_FEATURE_SELFOVERLAP>  (1) 
20.297

>  <PUBCHEM_SHAPE_FINGERPRINT>  (1) 
10366900 7 18202277026745687249
10608611 8 18336262327852514804
10616163 171 18408889563766817051
11370993 70 18408881832509056243
12107183 9 17408534939968638977
12553582 1 17332538873399375046
12788726 201 16988005973281238497
13533116 47 18131068187354919331
138480 1 17907579121193911750
14617045 38 18411146826968638087
14787075 74 17987232420649788456
15196674 1 18410293626935153595
15375358 24 18334575733108134915
15635459 17 18338522919823028959
17980427 23 17458911568665225348
19141452 34 18410863187819007779
200 152 18060415820543134897
20279233 1 18334862705737955929
204376 136 18341612667877125808
20645477 56 18115027386237176949
20645477 70 18130787798203360863
20693207 138 18191877716535989399
221490 88 18338806611045081846
23402539 116 17822284742828514641
23557571 272 17603867750140173069
23559900 14 18194395598385115874
239999 70 18202005378685765974
2871803 45 18409731724995892039
33824 294 18411136913788629338
34934 24 18409443700626519707
3545911 37 18335422361203859637
474229 33 18338516455912585578
5104073 3 18336547122954899689
5486654 2 18341617083109138196
58051976 378 18411139147013264004
7364860 26 18268710507122456126
9709674 26 18337957770877864247

>  <PUBCHEM_SHAPE_MULTIPOLES>  (1) 
363.09
10.36
2.98
0.74
1.56
2.13
0.04
-3.45
0.44
-1.57
-0.32
0.34
0.11
1.31

>  <PUBCHEM_SHAPE_SELFOVERLAP>  (1) 
750.353

>  <PUBCHEM_SHAPE_VOLUME>  (1) 
209

>  <PUBCHEM_COORDINATE_TYPE>  (1) 
2
5
10

$$$$
