26353
     RDKit          3D

 27 30  0  0  0  0  0  0  0  0999 V2000
    1.2131    0.6711    1.7607 N   0  0  0  0  0  0  0  0  0  0  0  0
   -1.1859    0.7180    1.7606 N   0  0  0  0  0  0  0  0  0  0  0  0
   -0.0271   -1.3831    1.7613 N   0  0  0  0  0  0  0  0  0  0  0  0
    0.0545    2.7880    1.7599 C   0  0  0  0  0  0  0  0  0  0  0  0
    2.3855   -1.4383    1.7608 C   0  0  0  0  0  0  0  0  0  0  0  0
   -2.4400   -1.3439    1.7609 C   0  0  0  0  0  0  0  0  0  0  0  0
    0.0249    1.2729    1.7605 C   0  0  0  0  0  0  0  0  0  0  0  0
    1.1092   -0.6676    1.7610 C   0  0  0  0  0  0  0  0  0  0  0  0
   -1.1345   -0.6239    1.7609 C   0  0  0  0  0  0  0  0  0  0  0  0
    0.0664    3.3923    0.3963 C   0  0  0  0  0  0  0  0  0  0  0  0
    2.9120   -1.7564    0.3756 C   0  0  0  0  0  0  0  0  0  0  0  0
   -2.9785   -1.6413    0.3756 C   0  0  0  0  0  0  0  0  0  0  0  0
   -1.1359    3.6985   -0.2414 C   0  0  0  0  0  0  0  0  0  0  0  0
    3.7702   -0.8637   -0.2401 C   0  0  0  0  0  0  0  0  0  0  0  0
   -2.6343   -2.8313   -0.2394 C   0  0  0  0  0  0  0  0  0  0  0  0
    1.2795    3.6510   -0.2414 C   0  0  0  0  0  0  0  0  0  0  0  0
    2.5213   -2.9318   -0.2395 C   0  0  0  0  0  0  0  0  0  0  0  0
   -3.8007   -0.7156   -0.2403 C   0  0  0  0  0  0  0  0  0  0  0  0
   -1.1249    4.2633   -1.5169 C   0  0  0  0  0  0  0  0  0  0  0  0
    4.2544   -1.1564   -1.5151 C   0  0  0  0  0  0  0  0  0  0  0  0
   -3.1294   -3.1049   -1.5144 C   0  0  0  0  0  0  0  0  0  0  0  0
    1.2907    4.2157   -1.5168 C   0  0  0  0  0  0  0  0  0  0  0  0
    3.0055   -3.2245   -1.5145 C   0  0  0  0  0  0  0  0  0  0  0  0
   -4.2961   -0.9892   -1.5152 C   0  0  0  0  0  0  0  0  0  0  0  0
    0.0884    4.5218   -2.1544 C   0  0  0  0  0  0  0  0  0  0  0  0
    3.8720   -2.3367   -2.1522 C   0  0  0  0  0  0  0  0  0  0  0  0
   -3.9603   -2.1838   -2.1523 C   0  0  0  0  0  0  0  0  0  0  0  0
  1  7  2  0
  1  8  1  0
  2  7  1  0
  2  9  2  0
  3  8  2  0
  3  9  1  0
  4  7  1  0
  4 10  1  0
  5  8  1  0
  5 11  1  0
  6  9  1  0
  6 12  1  0
 10 13  2  0
 10 16  1  0
 11 14  2  0
 11 17  1  0
 12 15  2  0
 12 18  1  0
 13 19  1  0
 14 20  1  0
 15 21  1  0
 16 22  2  0
 17 23  2  0
 18 24  2  0
 19 25  2  0
 20 26  2  0
 21 27  2  0
 22 25  1  0
 23 26  1  0
 24 27  1  0
M  END
>  <PUBCHEM_COMPOUND_CID>  (1) 
26353

>  <PUBCHEM_CONFORMER_RMSD>  (1) 
0.8

>  <PUBCHEM_CONFORMER_DIVERSEORDER>  (1) 
1
48
53
60
26
52
43
21
36
40
61
44
88
59
34
90
35
78
70
57
75
49
74
73
68
14
72
39
89
41
71
23
82
64
54
91
25
2
76
20
69
51
84
3
8
56
86
24
38
85
77
15
62
45
9
22
42
12
55
19
30
50
63
81
32
47
66
58
7
67
5
18
28
79
87
6
16
83
29
33
11
4
37
31
65
13
17
27
10
80
46

>  <PUBCHEM_MMFF94_PARTIAL_CHARGES>  (1) 
42
1 -0.62
10 -0.14
11 -0.14
12 -0.14
13 -0.15
14 -0.15
15 -0.15
16 -0.15
17 -0.15
18 -0.15
19 -0.15
2 -0.62
20 -0.15
21 -0.15
22 -0.15
23 -0.15
24 -0.15
25 -0.15
26 -0.15
27 -0.15
3 -0.62
34 0.15
35 0.15
36 0.15
37 0.15
38 0.15
39 0.15
4 0.29
40 0.15
41 0.15
42 0.15
43 0.15
44 0.15
45 0.15
46 0.15
47 0.15
48 0.15
5 0.29
6 0.29
7 0.48
8 0.48
9 0.48

>  <PUBCHEM_EFFECTIVE_ROTOR_COUNT>  (1) 
6

>  <PUBCHEM_PHARMACOPHORE_FEATURES>  (1) 
7
3 1 2 7 cation
3 1 3 8 cation
3 2 3 9 cation
6 1 2 3 7 8 9 rings
6 10 13 16 19 22 25 rings
6 11 14 17 20 23 26 rings
6 12 15 18 21 24 27 rings

>  <PUBCHEM_HEAVY_ATOM_COUNT>  (1) 
27

>  <PUBCHEM_ATOM_DEF_STEREO_COUNT>  (1) 
0

>  <PUBCHEM_ATOM_UDEF_STEREO_COUNT>  (1) 
0

>  <PUBCHEM_BOND_DEF_STEREO_COUNT>  (1) 
0

>  <PUBCHEM_BOND_UDEF_STEREO_COUNT>  (1) 
0

>  <PUBCHEM_ISOTOPIC_ATOM_COUNT>  (1) 
0

>  <PUBCHEM_COMPONENT_COUNT>  (1) 
1

>  <PUBCHEM_CACTVS_TAUTO_COUNT>  (1) 
1

>  <PUBCHEM_CONFORMER_ID>  (1) 
000066F100000001

>  <PUBCHEM_MMFF94_ENERGY>  (1) 
67.9843

>  <PUBCHEM_FEATURE_SELFOVERLAP>  (1) 
38.337

>  <PUBCHEM_SHAPE_FINGERPRINT>  (1) 
10985338 15 17837475367882350400
11477941 20 18049197456487052614
11763715 3 15371860215349235602
12160290 23 18050285860342996457
12788726 201 18116711811668760951
12977781 61 17195970819400274226
13681431 1 18338797947710443547
14251757 17 16733557124923733782
14863182 85 17270022162572537594
15210252 30 18410854390935026094
15484559 13 16964603198980728703
1813 80 18413389843384624091
20775438 99 17766238078311650548
21285901 2 18127664111707768923
21304303 282 17679576749453457482
21344244 181 17410482192083056469
21421566 26 18125743221954660944
21857420 4 17757225458660274805
21860390 5 17828732343237731981
22907989 373 17978241464797635768
238 59 17759802937079688634
24893989 43 16541497642526008813
26353 1 18410575088958046212
340366 18 18343012320810544047
3493558 16 12839008019465497811
35225 105 17834113043869467261
4066623 53 18051381047187040439
4280585 95 18342446067721648610
46194498 28 18120080943515518207
5081480 168 18335135423687904253
66674814 147 17765453310746356772
9981440 41 13479717398414068058

>  <PUBCHEM_SHAPE_MULTIPOLES>  (1) 
540.7
6.99
6.98
2.66
0.52
9.58
-0.04
-9.57
4.65
-0.52
4.65
0
0
0

>  <PUBCHEM_SHAPE_SELFOVERLAP>  (1) 
1182.457

>  <PUBCHEM_SHAPE_VOLUME>  (1) 
288.2

>  <PUBCHEM_COORDINATE_TYPE>  (1) 
2
5
10

$$$$
