2635
     RDKit          3D

 34 37  0  0  1  0  0  0  0  0999 V2000
   -0.3977   -1.9468    2.4224 S   0  0  0  0  0  0  0  0  0  0  0  0
   -3.9357    0.1174   -0.7763 S   0  0  0  0  0  0  0  0  0  0  0  0
    4.2591    2.4918   -1.4271 S   0  0  0  0  0  0  0  0  0  0  0  0
    0.9851   -4.1741   -1.4195 O   0  0  0  0  0  0  0  0  0  0  0  0
   -1.9812   -2.2319   -2.6778 O   0  0  0  0  0  0  0  0  0  0  0  0
   -2.4535   -4.2331   -1.6764 O   0  0  0  0  0  0  0  0  0  0  0  0
    3.4620   -1.3172    2.3394 O   0  0  0  0  0  0  0  0  0  0  0  0
   -0.2169   -2.5947   -0.1462 N   0  0  0  0  0  0  0  0  0  0  0  0
    2.9213   -2.1903    0.2587 N   0  0  0  0  0  0  0  0  0  0  0  0
   -3.6343    2.4973    0.5092 N   0  0  0  0  0  0  0  0  0  0  0  0
   -0.8440    3.8143   -1.5845 N   0  0  0  0  0  0  0  0  0  0  0  0
    5.0705    1.5005    0.8181 N   0  0  0  0  0  0  0  0  0  0  0  0
   -4.6076    0.9844    1.7202 N   0  0  0  0  0  0  0  0  0  0  0  0
   -3.8877    3.0941    1.6822 N   0  0  0  0  0  0  0  0  0  0  0  0
   -4.4834    2.1642    2.4187 N   0  0  0  0  0  0  0  0  0  0  0  0
    5.0141    3.8623    0.7236 N   0  0  0  0  0  0  0  0  0  0  0  0
    0.4960   -1.8241    0.8564 C   0  0  0  0  0  0  0  0  0  0  0  0
    1.6614   -2.8166    0.6518 C   0  0  0  0  0  0  0  0  0  0  0  0
    0.8244   -3.3587   -0.5419 C   0  0  0  0  0  0  0  0  0  0  0  0
   -1.5347   -2.4298   -0.4296 C   0  0  0  0  0  0  0  0  0  0  0  0
   -2.3548   -1.7387    0.3974 C   0  0  0  0  0  0  0  0  0  0  0  0
   -1.9095   -1.1793    1.7467 C   0  0  0  0  0  0  0  0  0  0  0  0
   -3.8077   -1.4426    0.1134 C   0  0  0  0  0  0  0  0  0  0  0  0
   -2.0443   -3.0900   -1.6406 C   0  0  0  0  0  0  0  0  0  0  0  0
    3.7284   -1.4816    1.1515 C   0  0  0  0  0  0  0  0  0  0  0  0
    4.9732   -0.9288    0.4811 C   0  0  0  0  0  0  0  0  0  0  0  0
    4.7772    0.4633   -0.0307 C   0  0  0  0  0  0  0  0  0  0  0  0
   -4.0803    1.2447    0.5792 C   0  0  0  0  0  0  0  0  0  0  0  0
   -2.9813    3.2229   -0.5509 C   0  0  0  0  0  0  0  0  0  0  0  0
   -1.4628    3.0886   -0.4824 C   0  0  0  0  0  0  0  0  0  0  0  0
    4.3272    0.7844   -1.2818 C   0  0  0  0  0  0  0  0  0  0  0  0
    4.8333    2.6275    0.1842 C   0  0  0  0  0  0  0  0  0  0  0  0
   -1.3305    3.3119   -2.8708 C   0  0  0  0  0  0  0  0  0  0  0  0
    0.6147    3.7086   -1.5177 C   0  0  0  0  0  0  0  0  0  0  0  0
  1 17  1  0
  1 22  1  0
  2 23  1  0
  2 28  1  0
  3 31  1  0
  3 32  1  0
  4 19  2  0
  5 24  1  0
  6 24  2  0
  7 25  2  0
  8 17  1  0
  8 19  1  0
  8 20  1  0
  9 18  1  0
  9 25  1  0
 10 14  1  0
 10 28  1  0
 10 29  1  0
 11 30  1  0
 11 33  1  0
 11 34  1  0
 12 27  1  0
 12 32  2  0
 13 15  1  0
 13 28  2  0
 14 15  2  0
 16 32  1  0
 17 18  1  0
 18 19  1  0
 20 21  2  0
 20 24  1  0
 21 22  1  0
 21 23  1  0
 25 26  1  0
 26 27  1  0
 27 31  2  0
 29 30  1  0
M  END
>  <PUBCHEM_COMPOUND_CID>  (1) 
2635

>  <PUBCHEM_CONFORMER_RMSD>  (1) 
1.4

>  <PUBCHEM_CONFORMER_DIVERSEORDER>  (1) 
3
103
180
232
314
165
82
189
378
149
140
244
115
188
130
331
211
457
202
401
357
14
5
151
433
98
2
166
113
249
430
62
120
19
219
64
238
395
55
301
66
70
65
388
298
58
464
441
42
34
470
138
119
156
96
116
254
88
220
157
127
6
182
390
257
8
59
297
475
129
466
86
197
80
355
162
411
141
487
174
310
233
442
206
417
402
360
194
7
208
155
29
203
248
477
178
158
94
152
225
12
273
210
41
27
84
117
268
302
30
318
205
126
399
286
90
60
112
54
106
135
169
43
333
110
24
21
160
139
193
22
45
321
69
256
449
44
274
1
237
448
171
170
102
396
236
23
212
53
337
16
89
313
11
52
20
392
57
495
10
131
316
4
61
39
153
46
196
266
32
277
499
251

>  <PUBCHEM_MMFF94_PARTIAL_CHARGES>  (1) 
38
1 -0.45
10 0.31
11 -0.81
12 -0.57
13 -0.34
14 -0.42
16 -0.88
17 0.44
18 0.28
19 0.58
2 -0.29
20 0.12
21 -0.28
22 0.37
23 0.37
24 0.71
25 0.57
26 0.24
27 0.05
28 0.24
29 0.26
3 -0.08
30 0.27
31 -0.11
32 0.46
33 0.27
34 0.27
39 0.37
4 -0.57
44 0.5
49 0.15
5 -0.65
56 0.4
57 0.4
6 -0.57
7 -0.57
8 -0.39
9 -0.65

>  <PUBCHEM_EFFECTIVE_ROTOR_COUNT>  (1) 
11.6

>  <PUBCHEM_PHARMACOPHORE_FEATURES>  (1) 
14
1 11 cation
1 16 donor
1 4 acceptor
1 5 acceptor
1 6 acceptor
1 7 acceptor
1 9 donor
3 10 13 28 cation
3 12 16 32 cation
3 5 6 24 anion
4 8 17 18 19 rings
5 10 13 14 15 28 rings
5 3 12 27 31 32 rings
6 1 8 17 20 21 22 rings

>  <PUBCHEM_HEAVY_ATOM_COUNT>  (1) 
34

>  <PUBCHEM_ATOM_DEF_STEREO_COUNT>  (1) 
0

>  <PUBCHEM_ATOM_UDEF_STEREO_COUNT>  (1) 
2

>  <PUBCHEM_BOND_DEF_STEREO_COUNT>  (1) 
0

>  <PUBCHEM_BOND_UDEF_STEREO_COUNT>  (1) 
0

>  <PUBCHEM_ISOTOPIC_ATOM_COUNT>  (1) 
0

>  <PUBCHEM_COMPONENT_COUNT>  (1) 
1

>  <PUBCHEM_CACTVS_TAUTO_COUNT>  (1) 
4

>  <PUBCHEM_CONFORMER_ID>  (1) 
00000A4B00000003

>  <PUBCHEM_MMFF94_ENERGY>  (1) 
71.3583

>  <PUBCHEM_FEATURE_SELFOVERLAP>  (1) 
71.361

>  <PUBCHEM_SHAPE_FINGERPRINT>  (1) 
11513181 2 18270412706068033542
12978246 48 18191020102051720528
13561361 72 18114186302643836776
14840074 17 18261404329512698349
14950920 106 17168424857240653290
15163728 17 18342751701514910966
15975801 100 17388840591045255532
161222 619 17831856850727004357
20764821 26 18335128839324100580
25265897 201 17843436004835503079
44426695 316 17770820984298586930
4742675 86 18115852144358677156
50677037 204 18195519522654786912
5081480 168 17196297318217851630
6287921 2 17981610364209347421
6608658 132 18192429899428477022

>  <PUBCHEM_SHAPE_MULTIPOLES>  (1) 
642.95
10.91
6.76
2.39
9.93
2.09
-0.15
7.57
3.41
-1.08
-2.83
-1.63
-0.02
-2.36

>  <PUBCHEM_SHAPE_SELFOVERLAP>  (1) 
1321.568

>  <PUBCHEM_SHAPE_VOLUME>  (1) 
374.8

>  <PUBCHEM_COORDINATE_TYPE>  (1) 
2
5
10

$$$$
