26369
     RDKit          3D

 14 14  0  0  1  0  0  0  0  0999 V2000
   -3.5379   -1.9399   -0.1114 Cl  0  0  0  0  0  0  0  0  0  0  0  0
    1.2407   -0.7007   -1.7503 O   0  0  0  0  0  0  0  0  0  0  0  0
    3.3985   -0.4230    0.0631 O   0  0  0  0  0  0  0  0  0  0  0  0
    1.1656    0.2139   -0.6362 C   0  0  0  0  0  0  0  0  0  0  0  0
    2.0375   -0.3794    0.5295 C   0  0  0  0  0  0  0  0  0  0  0  0
   -0.3131    0.3703   -0.2635 C   0  0  0  0  0  0  0  0  0  0  0  0
    1.7533    1.5282   -1.1973 C   0  0  0  0  0  0  0  0  0  0  0  0
    2.0341    0.4745    1.8056 C   0  0  0  0  0  0  0  0  0  0  0  0
    1.6577   -1.8256    0.8891 C   0  0  0  0  0  0  0  0  0  0  0  0
   -1.1318   -0.7300   -0.3539 C   0  0  0  0  0  0  0  0  0  0  0  0
   -0.7593    1.6041    0.1465 C   0  0  0  0  0  0  0  0  0  0  0  0
   -2.4772   -0.5882   -0.0138 C   0  0  0  0  0  0  0  0  0  0  0  0
   -2.1046    1.7460    0.4864 C   0  0  0  0  0  0  0  0  0  0  0  0
   -2.9635    0.6498    0.4063 C   0  0  0  0  0  0  0  0  0  0  0  0
  1 12  1  0
  2  4  1  0
  3  5  1  0
  4  5  1  0
  4  6  1  0
  4  7  1  0
  5  8  1  0
  5  9  1  0
  6 10  2  0
  6 11  1  0
 10 12  1  0
 11 13  2  0
 12 14  2  0
 13 14  1  0
M  END
>  <PUBCHEM_COMPOUND_CID>  (1) 
26369

>  <PUBCHEM_CONFORMER_RMSD>  (1) 
0.6

>  <PUBCHEM_CONFORMER_DIVERSEORDER>  (1) 
1
18
15
12
8
13
9
5
17
16
3
6
2
14
7
10
4
11

>  <PUBCHEM_MMFF94_PARTIAL_CHARGES>  (1) 
17
1 -0.18
10 -0.15
11 -0.15
12 0.18
13 -0.15
14 -0.15
2 -0.68
24 0.4
25 0.4
26 0.15
27 0.15
28 0.15
29 0.15
3 -0.68
4 0.42
5 0.28
6 -0.14

>  <PUBCHEM_EFFECTIVE_ROTOR_COUNT>  (1) 
2

>  <PUBCHEM_PHARMACOPHORE_FEATURES>  (1) 
6
1 2 acceptor
1 2 donor
1 3 acceptor
1 3 donor
3 5 8 9 hydrophobe
6 6 10 11 12 13 14 rings

>  <PUBCHEM_HEAVY_ATOM_COUNT>  (1) 
14

>  <PUBCHEM_ATOM_DEF_STEREO_COUNT>  (1) 
0

>  <PUBCHEM_ATOM_UDEF_STEREO_COUNT>  (1) 
1

>  <PUBCHEM_BOND_DEF_STEREO_COUNT>  (1) 
0

>  <PUBCHEM_BOND_UDEF_STEREO_COUNT>  (1) 
0

>  <PUBCHEM_ISOTOPIC_ATOM_COUNT>  (1) 
0

>  <PUBCHEM_COMPONENT_COUNT>  (1) 
1

>  <PUBCHEM_CACTVS_TAUTO_COUNT>  (1) 
1

>  <PUBCHEM_CONFORMER_ID>  (1) 
0000670100000001

>  <PUBCHEM_MMFF94_ENERGY>  (1) 
47.8225

>  <PUBCHEM_FEATURE_SELFOVERLAP>  (1) 
30.452

>  <PUBCHEM_SHAPE_FINGERPRINT>  (1) 
10857977 72 18131351942579559657
11031198 65 13326579617429753408
12326174 3 16515689918445943840
12423570 1 15611047309103994196
12500047 106 18193827155105368913
12932764 1 17822021890956723669
13538477 17 18336273374893229677
13571099 22 18116138992191625879
13581323 91 18202560687422777799
13705890 14 16443626934313899131
14252887 29 17987250008873538703
15219456 202 17418097568261479206
15775835 57 18269558247466504769
15852999 172 17912352144293366221
16945 1 18262227820502808036
17804303 29 18054508006627124034
18186145 218 13190324804212181687
19786989 88 15840985701687550408
20361792 2 16588583080959447826
20559304 39 18334582338688818673
20653091 64 18186802512749056764
20871998 184 18059853974169377727
21501925 9 18270110361708074235
22445834 79 18187929409051285163
23552423 10 18261117391368722621
23557571 272 18131350817266408315
2748010 2 18059306370255262063
369184 2 18200582606196626641
5084963 1 18342179942461681128
74978 22 18261957349564645341
77492 1 17968103009753837804
8030462 33 17968391120755610309
81228 2 18271535221567188913

>  <PUBCHEM_SHAPE_MULTIPOLES>  (1) 
278.24
5.02
1.92
1.27
1.81
0.08
0.01
1.58
0.55
0.81
0.1
-0.94
-0.08
-0.63

>  <PUBCHEM_SHAPE_SELFOVERLAP>  (1) 
565.521

>  <PUBCHEM_SHAPE_VOLUME>  (1) 
164

>  <PUBCHEM_COORDINATE_TYPE>  (1) 
2
5
10

$$$$
