26366
     RDKit          3D

 22 23  0  0  0  0  0  0  0  0999 V2000
    3.2184   -1.3433    1.1309 S   0  0  0  0  0  0  0  0  0  0  0  0
   -8.7236    0.0851   -0.9996 O   0  0  0  0  0  0  0  0  0  0  0  0
   -1.5206    0.6226    0.5815 N   0  0  0  0  0  0  0  0  0  0  0  0
    1.2899    0.8573    0.1283 N   0  0  0  0  0  0  0  0  0  0  0  0
   -0.5797    0.5622    1.7069 C   0  0  0  0  0  0  0  0  0  0  0  0
   -0.9083    0.0295   -0.6136 C   0  0  0  0  0  0  0  0  0  0  0  0
    0.7056    1.3300    1.3898 C   0  0  0  0  0  0  0  0  0  0  0  0
    0.3669    0.7786   -1.0080 C   0  0  0  0  0  0  0  0  0  0  0  0
   -2.7657   -0.0674    0.9164 C   0  0  0  0  0  0  0  0  0  0  0  0
   -3.9116    0.4559    0.0521 C   0  0  0  0  0  0  0  0  0  0  0  0
    2.6498    1.0982   -0.0974 C   0  0  0  0  0  0  0  0  0  0  0  0
   -5.2300   -0.2387    0.4017 C   0  0  0  0  0  0  0  0  0  0  0  0
   -6.3732    0.2590   -0.4877 C   0  0  0  0  0  0  0  0  0  0  0  0
    3.6295    0.1896    0.3031 C   0  0  0  0  0  0  0  0  0  0  0  0
    3.0163    2.2809   -0.7399 C   0  0  0  0  0  0  0  0  0  0  0  0
   -7.7037   -0.3951   -0.1358 C   0  0  0  0  0  0  0  0  0  0  0  0
    4.9756    0.4637    0.0611 C   0  0  0  0  0  0  0  0  0  0  0  0
    4.3625    2.5548   -0.9818 C   0  0  0  0  0  0  0  0  0  0  0  0
    5.3420    1.6464   -0.5814 C   0  0  0  0  0  0  0  0  0  0  0  0
    3.0191   -2.4711   -0.2753 C   0  0  0  0  0  0  0  0  0  0  0  0
    2.6577   -3.8707    0.2094 C   0  0  0  0  0  0  0  0  0  0  0  0
    2.4831   -4.8276   -0.9608 C   0  0  0  0  0  0  0  0  0  0  0  0
  1 14  1  0
  1 20  1  0
  2 16  1  0
  3  5  1  0
  3  6  1  0
  3  9  1  0
  4  7  1  0
  4  8  1  0
  4 11  1  0
  5  7  1  0
  6  8  1  0
  9 10  1  0
 10 12  1  0
 11 14  2  0
 11 15  1  0
 12 13  1  0
 13 16  1  0
 14 17  1  0
 15 18  2  0
 17 19  2  0
 18 19  1  0
 20 21  1  0
 21 22  1  0
M  END
>  <PUBCHEM_COMPOUND_CID>  (1) 
26366

>  <PUBCHEM_CONFORMER_RMSD>  (1) 
1

>  <PUBCHEM_CONFORMER_DIVERSEORDER>  (1) 
1
27
67
68
10
20
15
41
54
70
64
33
44
63
55
53
71
66
49
36
7
29
23
24
51
58
4
73
45
61
47
50
52
42
22
60
19
65
48
30
34
56
14
40
46
8
31
69
32
57
38
16
35
43
13
26
21
39
17
11
12
37
3
6
5
9
59
62
28
2
72
25
18

>  <PUBCHEM_MMFF94_PARTIAL_CHARGES>  (1) 
22
1 -0.33
11 0.1
14 0.1
15 -0.15
16 0.28
17 -0.15
18 -0.15
19 -0.15
2 -0.68
20 0.23
3 -0.81
39 0.15
4 -0.84
42 0.15
43 0.15
44 0.15
49 0.4
5 0.27
6 0.27
7 0.37
8 0.37
9 0.27

>  <PUBCHEM_EFFECTIVE_ROTOR_COUNT>  (1) 
10.2

>  <PUBCHEM_PHARMACOPHORE_FEATURES>  (1) 
7
1 2 acceptor
1 2 donor
1 22 hydrophobe
1 3 cation
1 4 cation
6 11 14 15 17 18 19 rings
6 3 4 5 6 7 8 rings

>  <PUBCHEM_HEAVY_ATOM_COUNT>  (1) 
22

>  <PUBCHEM_ATOM_DEF_STEREO_COUNT>  (1) 
0

>  <PUBCHEM_ATOM_UDEF_STEREO_COUNT>  (1) 
0

>  <PUBCHEM_BOND_DEF_STEREO_COUNT>  (1) 
0

>  <PUBCHEM_BOND_UDEF_STEREO_COUNT>  (1) 
0

>  <PUBCHEM_ISOTOPIC_ATOM_COUNT>  (1) 
0

>  <PUBCHEM_COMPONENT_COUNT>  (1) 
1

>  <PUBCHEM_CACTVS_TAUTO_COUNT>  (1) 
1

>  <PUBCHEM_CONFORMER_ID>  (1) 
000066FE00000001

>  <PUBCHEM_MMFF94_ENERGY>  (1) 
52.4732

>  <PUBCHEM_FEATURE_SELFOVERLAP>  (1) 
35.523

>  <PUBCHEM_SHAPE_FINGERPRINT>  (1) 
11069576 57 18272369715974107854
11135609 127 18264765643896536789
11181472 205 18340210679526724657
11719270 70 18410853274596788226
12107183 9 17693669116829897665
13533116 47 18271805692626723203
13540713 5 17915195515474685305
13836976 161 18335144215485829068
13968360 50 18409731777110538474
14251740 57 17845655811491249022
15183329 4 18410573986059105049
17134984 74 18342455984721896455
17138139 8 17773017877171933310
17492 89 18196373610960297250
18222031 100 16630531756157318857
19427546 62 18192434284732666532
20157964 124 18335422374383894301
20645477 70 18333450920017922290
20771845 140 17846487107603084094
21285901 2 17822008675157698764
220451 1 18131351930211622463
22224240 67 18343014528455136080
22956985 138 16842782421138242246
23081809 10 18131354082080058361
23559900 14 18261956374491466497
255183 451 18055924182273759486
3060560 45 18334587867197984692
34797466 226 17967812743791474921
3633792 109 18336266752322658705
4073 2 17240769544431126529
4340502 62 18410857702480898520
46194498 28 18187641367169818775
59682541 52 18409161083467966327
59755656 215 17894632552159707284
6025842 7 18408887338873362078
68570916 9 8213846091134809689
7164475 11 18267308629649920688
8272917 22 18408609145483605220

>  <PUBCHEM_SHAPE_MULTIPOLES>  (1) 
440.77
16.73
3.71
1.22
47.17
6.7
0.27
-2.1
-4.73
-8.26
-1.35
-0.09
-0.1
-0.58

>  <PUBCHEM_SHAPE_SELFOVERLAP>  (1) 
864.283

>  <PUBCHEM_SHAPE_VOLUME>  (1) 
265.8

>  <PUBCHEM_COORDINATE_TYPE>  (1) 
2
5
10

$$$$
