26379
     RDKit          3D

 15 15  0  0  0  0  0  0  0  0999 V2000
    0.4589    0.3971    0.2365 N   0  0  0  0  0  0  0  0  0  0  0  0
   -3.7787   -0.3023    0.2438 N   0  0  0  0  0  0  0  0  0  0  0  0
   -5.5559   -1.6552   -0.3753 N   0  0  0  0  0  0  0  0  0  0  0  0
   -5.9485    0.5878   -0.2754 N   0  0  0  0  0  0  0  0  0  0  0  0
   -0.9368    0.4043   -0.1879 C   0  0  0  0  0  0  0  0  0  0  0  0
   -1.8197    1.0043    0.9075 C   0  0  0  0  0  0  0  0  0  0  0  0
    1.3171   -0.1353   -0.8120 C   0  0  0  0  0  0  0  0  0  0  0  0
   -3.2901    1.0524    0.5055 C   0  0  0  0  0  0  0  0  0  0  0  0
    2.7652   -0.1461   -0.4000 C   0  0  0  0  0  0  0  0  0  0  0  0
    3.5597    0.9606   -0.6658 C   0  0  0  0  0  0  0  0  0  0  0  0
    3.2856   -1.2626    0.2393 C   0  0  0  0  0  0  0  0  0  0  0  0
    4.9014    0.9504   -0.2845 C   0  0  0  0  0  0  0  0  0  0  0  0
    4.6273   -1.2728    0.6208 C   0  0  0  0  0  0  0  0  0  0  0  0
    5.4351   -0.1662    0.3588 C   0  0  0  0  0  0  0  0  0  0  0  0
   -5.0205   -0.4164   -0.1114 C   0  0  0  0  0  0  0  0  0  0  0  0
  1  5  1  0
  1  7  1  0
  2  8  1  0
  2 15  2  3
  3 15  1  0
  4 15  1  0
  5  6  1  0
  6  8  1  0
  7  9  1  0
  9 10  2  0
  9 11  1  0
 10 12  1  0
 11 13  2  0
 12 14  2  0
 13 14  1  0
M  END
>  <PUBCHEM_COMPOUND_CID>  (1) 
26379

>  <PUBCHEM_CONFORMER_RMSD>  (1) 
0.8

>  <PUBCHEM_CONFORMER_DIVERSEORDER>  (1) 
1
15
52
53
18
35
22
42
3
38
32
13
37
45
16
43
20
8
25
39
7
54
55
9
40
2
31
51
10
34
47
23
26
30
21
12
46
4
28
41
29
14
24
44
19
11
33
48
36
27
49
5
6
50
17

>  <PUBCHEM_MMFF94_PARTIAL_CHARGES>  (1) 
24
1 -0.9
10 -0.15
11 -0.15
12 -0.15
13 -0.15
14 -0.15
15 0.55
2 -0.7
22 0.36
25 0.15
26 0.15
27 0.15
28 0.15
29 0.15
3 -0.85
30 0.4
31 0.4
32 0.4
33 0.4
4 -0.85
5 0.27
7 0.41
8 0.25
9 -0.14

>  <PUBCHEM_EFFECTIVE_ROTOR_COUNT>  (1) 
6

>  <PUBCHEM_PHARMACOPHORE_FEATURES>  (1) 
6
1 1 cation
1 1 donor
1 3 donor
1 4 donor
4 2 3 4 15 cation
6 9 10 11 12 13 14 rings

>  <PUBCHEM_HEAVY_ATOM_COUNT>  (1) 
15

>  <PUBCHEM_ATOM_DEF_STEREO_COUNT>  (1) 
0

>  <PUBCHEM_ATOM_UDEF_STEREO_COUNT>  (1) 
0

>  <PUBCHEM_BOND_DEF_STEREO_COUNT>  (1) 
0

>  <PUBCHEM_BOND_UDEF_STEREO_COUNT>  (1) 
0

>  <PUBCHEM_ISOTOPIC_ATOM_COUNT>  (1) 
0

>  <PUBCHEM_COMPONENT_COUNT>  (1) 
1

>  <PUBCHEM_CACTVS_TAUTO_COUNT>  (1) 
2

>  <PUBCHEM_CONFORMER_ID>  (1) 
0000670B00000001

>  <PUBCHEM_MMFF94_ENERGY>  (1) 
30.2851

>  <PUBCHEM_FEATURE_SELFOVERLAP>  (1) 
30.502

>  <PUBCHEM_SHAPE_FINGERPRINT>  (1) 
100836 57 8358259254691786259
10447042 23 18410004429649248078
10912923 1 18412833464430270872
11858739 19 18261672580079058126
12107183 9 17545320782974349960
12236239 1 18409729564521645791
12815109 37 18412263934934812489
13167823 11 18410011013728740979
13533116 47 18334292033686875642
13955234 65 13686303431523941532
14123238 8 17561365075721798257
1420 363 17060344023871240239
14251718 22 18413389860321425569
14251732 16 18271804682918946968
14251752 14 18113892720570751213
14848160 23 17821730550292259059
15242439 84 14634873049964943628
17834072 33 18410292527354622664
17834072 8 14129060313539688079
18785283 64 16199286858639518720
19489759 90 16153705414699697221
200 152 18260266343662401577
20028762 73 18337102355443745394
20279233 1 16660652842829545032
20645477 70 17968374551104539890
21065198 48 18340209583723936768
220451 1 18408895026927975995
22224240 67 14979956987136640743
23218964 4 11458418046433258016
23402539 116 18261108565427330765
23536379 177 18113616768605341977
23559900 14 18340761645998826289
32948 21 11746937590059097734
351380 180 18040155114860744556
4047638 21 13542459861469556924
42788 4 18334013891261641565
474229 33 18060420218151919919
5104073 3 16629694915828234058
5283173 99 17968367936718131261
57483677 66 18335137587755393723
7495541 125 18060415841522047720
9971528 1 16950568778880832532

>  <PUBCHEM_SHAPE_MULTIPOLES>  (1) 
288.77
15.44
1.31
0.83
12.35
0.27
0.02
2.68
-0.18
0.04
0.06
-0.17
-0.05
-0.97

>  <PUBCHEM_SHAPE_SELFOVERLAP>  (1) 
575.423

>  <PUBCHEM_SHAPE_VOLUME>  (1) 
168.3

>  <PUBCHEM_COORDINATE_TYPE>  (1) 
2
5
10

$$$$
