2637
     RDKit          3D

 28 30  0  0  1  0  0  0  0  0999 V2000
   -0.5012   -0.1318   -2.2466 S   0  0  0  0  0  0  0  0  0  0  0  0
    6.3976    1.6135    0.0984 S   0  0  0  0  0  0  0  0  0  0  0  0
    1.2932   -2.4721   -1.4682 O   0  0  0  0  0  0  0  0  0  0  0  0
   -0.1701   -3.0724    1.3414 O   0  0  0  0  0  0  0  0  0  0  0  0
   -4.2010    1.9697   -0.2193 O   0  0  0  0  0  0  0  0  0  0  0  0
    3.4994   -0.5132   -1.4760 O   0  0  0  0  0  0  0  0  0  0  0  0
   -3.5651   -2.5876    0.9281 O   0  0  0  0  0  0  0  0  0  0  0  0
   -3.0722   -0.9533    2.4512 O   0  0  0  0  0  0  0  0  0  0  0  0
   -6.5027    1.9361   -0.2506 O   0  0  0  0  0  0  0  0  0  0  0  0
   -0.8674   -1.1478    0.1757 N   0  0  0  0  0  0  0  0  0  0  0  0
    2.2851   -1.2118    0.3732 N   0  0  0  0  0  0  0  0  0  0  0  0
   -5.3511    3.8938    0.1080 N   0  0  0  0  0  0  0  0  0  0  0  0
    1.0648   -1.5861   -0.3543 C   0  0  0  0  0  0  0  0  0  0  0  0
    0.1162   -0.3845   -0.5672 C   0  0  0  0  0  0  0  0  0  0  0  0
   -0.0425   -2.1298    0.5957 C   0  0  0  0  0  0  0  0  0  0  0  0
   -2.1766   -0.8072    0.2865 C   0  0  0  0  0  0  0  0  0  0  0  0
   -2.7285    0.1200   -0.5298 C   0  0  0  0  0  0  0  0  0  0  0  0
   -1.9799    0.7801   -1.6849 C   0  0  0  0  0  0  0  0  0  0  0  0
   -4.1663    0.5799   -0.4644 C   0  0  0  0  0  0  0  0  0  0  0  0
    3.4095   -0.7014   -0.2638 C   0  0  0  0  0  0  0  0  0  0  0  0
   -3.0261   -1.5236    1.3300 C   0  0  0  0  0  0  0  0  0  0  0  0
    1.7102   -3.7856   -1.1276 C   0  0  0  0  0  0  0  0  0  0  0  0
    4.5421   -0.3704    0.6874 C   0  0  0  0  0  0  0  0  0  0  0  0
    4.8430    1.0998    0.6001 C   0  0  0  0  0  0  0  0  0  0  0  0
    4.0123    2.1628    0.8786 C   0  0  0  0  0  0  0  0  0  0  0  0
   -5.4448    2.5451   -0.1314 C   0  0  0  0  0  0  0  0  0  0  0  0
    4.6604    3.4155    0.6772 C   0  0  0  0  0  0  0  0  0  0  0  0
    5.9619    3.2623    0.2526 C   0  0  0  0  0  0  0  0  0  0  0  0
  1 14  1  0
  1 18  1  0
  2 24  1  0
  2 28  1  0
  3 13  1  0
  3 22  1  0
  4 15  2  0
  5 19  1  0
  5 26  1  0
  6 20  2  0
  7 21  1  0
  8 21  2  0
  9 26  2  0
 10 14  1  0
 10 15  1  0
 10 16  1  0
 11 13  1  0
 11 20  1  0
 12 26  1  0
 13 14  1  0
 13 15  1  0
 16 17  2  0
 16 21  1  0
 17 18  1  0
 17 19  1  0
 20 23  1  0
 23 24  1  0
 24 25  2  0
 25 27  1  0
 27 28  2  0
M  CHG  1   7  -1
M  END
>  <PUBCHEM_COMPOUND_CID>  (1) 
2637

>  <PUBCHEM_CONFORMER_RMSD>  (1) 
1

>  <PUBCHEM_CONFORMER_DIVERSEORDER>  (1) 
1
112
27
140
61
32
145
134
135
33
51
96
45
81
144
37
13
120
110
121
133
114
80
69
95
26
89
97
76
57
94
104
109
50
86
142
63
17
2
16
35
70
85
93
91
36
72
8
119
131
59
28
68
141
56
9
29
40
24
82
52
60
143
49
138
88
98
58
46
79
107
125
136
100
38
15
128
118
90
55
75
53
102
25
124
111
20
3
117
101
12
113
18
77
126
108
54
5
42
123
137
43
127
62
83
73
130
44
23
22
34
106
87
99
4
65
74
66
7
14
115
10
122
132
67
41
39
103
71
19
11
64
30
105
116
78
31
84
92
129
47
6
48
21
139

>  <PUBCHEM_MMFF94_PARTIAL_CHARGES>  (1) 
34
1 -0.45
10 -0.39
11 -0.65
12 -0.8
13 0.54
14 0.44
15 0.58
16 -0.14
17 -0.28
18 0.37
19 0.42
2 -0.08
20 0.57
21 1.05
22 0.28
23 0.24
24 -0.14
25 -0.15
26 0.78
27 -0.15
28 -0.11
3 -0.54
30 0.37
4 -0.57
40 0.15
41 0.15
42 0.15
43 0.37
44 0.37
5 -0.43
6 -0.57
7 -0.9
8 -0.9
9 -0.57

>  <PUBCHEM_EFFECTIVE_ROTOR_COUNT>  (1) 
9.6

>  <PUBCHEM_PHARMACOPHORE_FEATURES>  (1) 
12
1 11 donor
1 12 donor
1 3 acceptor
1 4 acceptor
1 6 acceptor
1 7 acceptor
1 8 acceptor
1 9 acceptor
3 7 8 21 anion
4 10 13 14 15 rings
5 2 24 25 27 28 rings
6 1 10 14 16 17 18 rings

>  <PUBCHEM_HEAVY_ATOM_COUNT>  (1) 
28

>  <PUBCHEM_ATOM_DEF_STEREO_COUNT>  (1) 
0

>  <PUBCHEM_ATOM_UDEF_STEREO_COUNT>  (1) 
2

>  <PUBCHEM_BOND_DEF_STEREO_COUNT>  (1) 
0

>  <PUBCHEM_BOND_UDEF_STEREO_COUNT>  (1) 
0

>  <PUBCHEM_ISOTOPIC_ATOM_COUNT>  (1) 
0

>  <PUBCHEM_COMPONENT_COUNT>  (1) 
1

>  <PUBCHEM_CACTVS_TAUTO_COUNT>  (1) 
4

>  <PUBCHEM_CONFORMER_ID>  (1) 
00000A4D00000001

>  <PUBCHEM_MMFF94_ENERGY>  (1) 
56.3751

>  <PUBCHEM_FEATURE_SELFOVERLAP>  (1) 
61.217

>  <PUBCHEM_SHAPE_FINGERPRINT>  (1) 
10074138 170 17095809905813493121
10693767 8 9510873961459437833
10763959 59 18412268337777691404
11578080 2 18411989035853849411
12403259 415 18338811077879537654
12633257 1 17095243639528471836
12925494 130 18337385049600057801
14251764 30 8935003672167929500
15510800 12 11242510217116836384
17980427 23 17968095369181332719
17980427 26 18265597815136916719
20642791 13 18260269685617021507
20715895 44 18341608192595375072
21033648 29 18187938291196672834
21475661 188 18411697664845402136
22122407 14 18343022177064494440
23559900 14 18267868268004240942
2838139 119 18271236227244843436
34797466 226 17846219917423206877
376196 1 18410852153309877234
474 4 18272929414884588406
5081480 168 17486809391999300332
5104073 3 17895185615330366634
56638632 10 17985553483774978681
57724786 102 18336536180185317756
633830 44 18341602699110410718
7970288 3 8430319047653489996

>  <PUBCHEM_SHAPE_MULTIPOLES>  (1) 
527.9
14.17
4.45
1.56
4.04
1.1
-0.16
18.41
2.43
-0.64
0.3
-0.81
-0.78
2.15

>  <PUBCHEM_SHAPE_SELFOVERLAP>  (1) 
1094.471

>  <PUBCHEM_SHAPE_VOLUME>  (1) 
302.7

>  <PUBCHEM_COORDINATE_TYPE>  (1) 
2
5
10

$$$$
