26377
     RDKit          3D

 26 28  0  0  0  0  0  0  0  0999 V2000
   -0.8027    0.6573   -0.6367 O   0  0  0  0  0  0  0  0  0  0  0  0
    0.9887   -0.4825    1.1989 N   0  0  0  0  0  0  0  0  0  0  0  0
   -4.3870   -0.1918   -0.5038 N   0  0  0  0  0  0  0  0  0  0  0  0
   -2.9506   -0.3938   -0.6907 C   0  0  0  0  0  0  0  0  0  0  0  0
    0.9500    0.8857    0.9903 C   0  0  0  0  0  0  0  0  0  0  0  0
    1.7740   -1.3867    0.5145 C   0  0  0  0  0  0  0  0  0  0  0  0
    0.2413   -1.1692    2.1327 C   0  0  0  0  0  0  0  0  0  0  0  0
   -2.1919    0.9037   -0.4621 C   0  0  0  0  0  0  0  0  0  0  0  0
   -4.8862    0.8201   -1.4341 C   0  0  0  0  0  0  0  0  0  0  0  0
   -5.1078   -1.4515   -0.6837 C   0  0  0  0  0  0  0  0  0  0  0  0
    0.0595    1.4457    0.0796 C   0  0  0  0  0  0  0  0  0  0  0  0
    1.5228   -2.6451    1.0148 C   0  0  0  0  0  0  0  0  0  0  0  0
    0.5532   -2.5076    2.0386 C   0  0  0  0  0  0  0  0  0  0  0  0
    2.6865   -1.0050   -0.5429 C   0  0  0  0  0  0  0  0  0  0  0  0
    1.8176    1.7101    1.7067 C   0  0  0  0  0  0  0  0  0  0  0  0
   -0.7112   -0.4903    3.0384 C   0  0  0  0  0  0  0  0  0  0  0  0
   -6.3654    1.0873   -1.2128 C   0  0  0  0  0  0  0  0  0  0  0  0
   -4.6018   -2.5155    0.2754 C   0  0  0  0  0  0  0  0  0  0  0  0
    0.0282    2.8223   -0.1217 C   0  0  0  0  0  0  0  0  0  0  0  0
    1.7905    3.0906    1.5088 C   0  0  0  0  0  0  0  0  0  0  0  0
    0.8959    3.6468    0.5946 C   0  0  0  0  0  0  0  0  0  0  0  0
    2.2428   -0.9695   -1.8621 C   0  0  0  0  0  0  0  0  0  0  0  0
    4.0037   -0.6763   -0.2343 C   0  0  0  0  0  0  0  0  0  0  0  0
    3.1228   -0.6028   -2.8803 C   0  0  0  0  0  0  0  0  0  0  0  0
    4.8838   -0.3094   -1.2524 C   0  0  0  0  0  0  0  0  0  0  0  0
    4.4432   -0.2727   -2.5754 C   0  0  0  0  0  0  0  0  0  0  0  0
  1  8  1  0
  1 11  1  0
  2  5  1  0
  2  6  1  0
  2  7  1  0
  3  4  1  0
  3  9  1  0
  3 10  1  0
  4  8  1  0
  5 11  2  0
  5 15  1  0
  6 12  2  0
  6 14  1  0
  7 13  2  0
  7 16  1  0
  9 17  1  0
 10 18  1  0
 11 19  1  0
 12 13  1  0
 14 22  2  0
 14 23  1  0
 15 20  2  0
 19 21  2  0
 20 21  1  0
 22 24  1  0
 23 25  2  0
 24 26  2  0
 25 26  1  0
M  END
>  <PUBCHEM_COMPOUND_CID>  (1) 
26377

>  <PUBCHEM_CONFORMER_RMSD>  (1) 
0.8

>  <PUBCHEM_CONFORMER_DIVERSEORDER>  (1) 
2
41
54
24
37
47
19
33
61
31
28
48
27
25
23
40
66
13
56
32
16
49
17
62
12
15
30
44
29
65
53
45
43
21
8
20
38
1
9
35
64
36
42
14
18
26
51
34
39
11
5
7
46
55
63
52
22
50
3
57
60
58
10
4
6
59

>  <PUBCHEM_MMFF94_PARTIAL_CHARGES>  (1) 
35
1 -0.36
10 0.27
11 0.08
12 -0.15
13 -0.15
14 0.05
15 -0.15
16 0.18
19 -0.15
2 0.33
20 -0.15
21 -0.15
22 -0.15
23 -0.15
24 -0.15
25 -0.15
26 -0.15
3 -0.81
35 0.15
36 0.15
37 0.15
4 0.27
47 0.15
48 0.15
49 0.15
5 -0.02
50 0.15
51 0.15
52 0.15
53 0.15
54 0.15
6 -0.2
7 -0.33
8 0.28
9 0.27

>  <PUBCHEM_EFFECTIVE_ROTOR_COUNT>  (1) 
8

>  <PUBCHEM_PHARMACOPHORE_FEATURES>  (1) 
6
1 1 acceptor
1 2 cation
1 3 cation
5 2 6 7 12 13 rings
6 14 22 23 24 25 26 rings
6 5 11 15 19 20 21 rings

>  <PUBCHEM_HEAVY_ATOM_COUNT>  (1) 
26

>  <PUBCHEM_ATOM_DEF_STEREO_COUNT>  (1) 
0

>  <PUBCHEM_ATOM_UDEF_STEREO_COUNT>  (1) 
0

>  <PUBCHEM_BOND_DEF_STEREO_COUNT>  (1) 
0

>  <PUBCHEM_BOND_UDEF_STEREO_COUNT>  (1) 
0

>  <PUBCHEM_ISOTOPIC_ATOM_COUNT>  (1) 
0

>  <PUBCHEM_COMPONENT_COUNT>  (1) 
1

>  <PUBCHEM_CACTVS_TAUTO_COUNT>  (1) 
1

>  <PUBCHEM_CONFORMER_ID>  (1) 
0000670900000002

>  <PUBCHEM_MMFF94_ENERGY>  (1) 
88.3768

>  <PUBCHEM_FEATURE_SELFOVERLAP>  (1) 
30.446

>  <PUBCHEM_SHAPE_FINGERPRINT>  (1) 
11140007 195 16701730562941728533
11421498 54 17895755084806967429
11578080 2 17607540312756764748
11961588 58 16661491877364769198
12422481 6 17629166538170018482
12617007 42 18060414711882390500
12788726 201 18195523684805118397
13009979 54 17613419065901132378
13103583 49 13326859911533499527
13149001 5 18193573361366804946
13617811 41 17385713691856247173
14251757 5 18265896857183839661
15664445 248 18201998790105674236
15848702 105 16661222467088518498
17492 54 18201449116265599380
1813 80 17632584820567027468
19319366 153 17822851958096372731
20645477 70 18058995290137863677
22182313 1 17899991717593175530
22393880 68 18336538413383598007
22907989 373 17829656904443126838
23352939 185 17561370573760244844
23419403 2 17907046167423272576
23559900 14 17846489340911614765
238 59 18198071480494768232
239999 70 18270669978571662573
2838139 119 15502378945673199038
3052486 1 17024867306291386211
46194498 28 18057890345234371119
57527585 21 17623623822845851980
58260988 114 14905403376891615022
5895379 119 15578049414497066149
6669772 16 18193263303757123616
6823239 73 18339633529840970107

>  <PUBCHEM_SHAPE_MULTIPOLES>  (1) 
519.24
10
3.31
2.68
15
2.14
-0.18
-2.64
8.71
-0.28
-1.75
-2.06
-0.75
1.49

>  <PUBCHEM_SHAPE_SELFOVERLAP>  (1) 
1104.928

>  <PUBCHEM_SHAPE_VOLUME>  (1) 
293.6

>  <PUBCHEM_COORDINATE_TYPE>  (1) 
2
5
10

$$$$
