2638
     RDKit          3D

 28 30  0  0  1  0  0  0  0  0999 V2000
   -0.5182   -0.1545   -2.2602 S   0  0  0  0  0  0  0  0  0  0  0  0
    6.3592    1.6421    0.1000 S   0  0  0  0  0  0  0  0  0  0  0  0
    1.2902   -2.4799   -1.4841 O   0  0  0  0  0  0  0  0  0  0  0  0
   -0.1666   -3.1032    1.3176 O   0  0  0  0  0  0  0  0  0  0  0  0
   -4.1649    1.9860   -0.2159 O   0  0  0  0  0  0  0  0  0  0  0  0
   -2.5084   -1.3164    2.4954 O   0  0  0  0  0  0  0  0  0  0  0  0
    3.4795   -0.5024   -1.4841 O   0  0  0  0  0  0  0  0  0  0  0  0
   -3.9494   -2.2626    0.9927 O   0  0  0  0  0  0  0  0  0  0  0  0
   -6.4664    2.0066   -0.1668 O   0  0  0  0  0  0  0  0  0  0  0  0
   -0.8852   -1.1775    0.1622 N   0  0  0  0  0  0  0  0  0  0  0  0
    2.2694   -1.2173    0.3615 N   0  0  0  0  0  0  0  0  0  0  0  0
   -5.2577    3.9416    0.1188 N   0  0  0  0  0  0  0  0  0  0  0  0
    1.0527   -1.5987   -0.3683 C   0  0  0  0  0  0  0  0  0  0  0  0
    0.0954   -0.4052   -0.5788 C   0  0  0  0  0  0  0  0  0  0  0  0
   -0.0497   -2.1541    0.5781 C   0  0  0  0  0  0  0  0  0  0  0  0
   -2.1942   -0.8325    0.2683 C   0  0  0  0  0  0  0  0  0  0  0  0
   -2.7490    0.0962   -0.5467 C   0  0  0  0  0  0  0  0  0  0  0  0
   -1.9997    0.7541   -1.7032 C   0  0  0  0  0  0  0  0  0  0  0  0
   -4.1711    0.5918   -0.4390 C   0  0  0  0  0  0  0  0  0  0  0  0
    3.3901   -0.6955   -0.2727 C   0  0  0  0  0  0  0  0  0  0  0  0
   -2.9970   -1.5589    1.2632 C   0  0  0  0  0  0  0  0  0  0  0  0
    1.7184   -3.7906   -1.1461 C   0  0  0  0  0  0  0  0  0  0  0  0
    4.5193   -0.3588    0.6805 C   0  0  0  0  0  0  0  0  0  0  0  0
    4.8084    1.1141    0.5986 C   0  0  0  0  0  0  0  0  0  0  0  0
    3.9689    2.1693    0.8802 C   0  0  0  0  0  0  0  0  0  0  0  0
   -5.3911    2.5919   -0.0945 C   0  0  0  0  0  0  0  0  0  0  0  0
    4.6072    3.4279    0.6837 C   0  0  0  0  0  0  0  0  0  0  0  0
    5.9101    3.2867    0.2596 C   0  0  0  0  0  0  0  0  0  0  0  0
  1 14  1  0
  1 18  1  0
  2 24  1  0
  2 28  1  0
  3 13  1  0
  3 22  1  0
  4 15  2  0
  5 19  1  0
  5 26  1  0
  6 21  1  0
  7 20  2  0
  8 21  2  0
  9 26  2  0
 10 14  1  0
 10 15  1  0
 10 16  1  0
 11 13  1  0
 11 20  1  0
 12 26  1  0
 13 14  1  0
 13 15  1  0
 16 17  2  0
 16 21  1  0
 17 18  1  0
 17 19  1  0
 20 23  1  0
 23 24  1  0
 24 25  2  0
 25 27  1  0
 27 28  2  0
M  END
>  <PUBCHEM_COMPOUND_CID>  (1) 
2638

>  <PUBCHEM_CONFORMER_RMSD>  (1) 
1

>  <PUBCHEM_CONFORMER_DIVERSEORDER>  (1) 
1
25
93
67
92
114
89
108
107
99
21
51
101
38
18
87
43
47
112
98
109
42
82
6
100
15
111
35
65
102
91
44
27
113
31
115
34
29
40
54
68
116
56
95
59
17
75
71
39
90
32
58
9
105
106
110
60
96
3
37
24
41
79
2
62
80
88
11
83
50
104
61
97
19
20
57
52
66
78
103
85
81
45
28
76
48
69
73
64
10
12
7
63
26
84
94
77
22
14
53
8
86
70
33
49
5
23
30
55
16
74
72
4
36
13
46

>  <PUBCHEM_MMFF94_PARTIAL_CHARGES>  (1) 
35
1 -0.45
10 -0.39
11 -0.65
12 -0.8
13 0.54
14 0.44
15 0.58
16 0.12
17 -0.28
18 0.37
19 0.42
2 -0.08
20 0.57
21 0.71
22 0.28
23 0.24
24 -0.14
25 -0.15
26 0.78
27 -0.15
28 -0.11
3 -0.54
30 0.37
4 -0.57
40 0.5
41 0.15
42 0.15
43 0.15
44 0.37
45 0.37
5 -0.43
6 -0.65
7 -0.57
8 -0.57
9 -0.57

>  <PUBCHEM_EFFECTIVE_ROTOR_COUNT>  (1) 
9.6

>  <PUBCHEM_PHARMACOPHORE_FEATURES>  (1) 
12
1 11 donor
1 12 donor
1 3 acceptor
1 4 acceptor
1 6 acceptor
1 7 acceptor
1 8 acceptor
1 9 acceptor
3 6 8 21 anion
4 10 13 14 15 rings
5 2 24 25 27 28 rings
6 1 10 14 16 17 18 rings

>  <PUBCHEM_HEAVY_ATOM_COUNT>  (1) 
28

>  <PUBCHEM_ATOM_DEF_STEREO_COUNT>  (1) 
0

>  <PUBCHEM_ATOM_UDEF_STEREO_COUNT>  (1) 
2

>  <PUBCHEM_BOND_DEF_STEREO_COUNT>  (1) 
0

>  <PUBCHEM_BOND_UDEF_STEREO_COUNT>  (1) 
0

>  <PUBCHEM_ISOTOPIC_ATOM_COUNT>  (1) 
0

>  <PUBCHEM_COMPONENT_COUNT>  (1) 
1

>  <PUBCHEM_CACTVS_TAUTO_COUNT>  (1) 
4

>  <PUBCHEM_CONFORMER_ID>  (1) 
00000A4E00000001

>  <PUBCHEM_MMFF94_ENERGY>  (1) 
61.6026

>  <PUBCHEM_FEATURE_SELFOVERLAP>  (1) 
61.215

>  <PUBCHEM_SHAPE_FINGERPRINT>  (1) 
10074138 170 17095528435115919033
10763959 59 18412831287731106228
10816530 23 18341328891035834543
11370993 144 18261105297183896298
11578080 2 18340776966262988435
12403259 415 18339091453307690782
12633257 1 17095243643876160644
12925494 130 18337385049642262321
13911852 28 8646774412644826932
14251751 18 9583529724050232608
15510800 12 11386625405161024264
17980427 23 17967814993737342343
17980427 26 18265597810884134439
20642791 13 18187931711824305251
20715895 44 18341889663250764176
21033648 29 18261120694319944398
21388113 180 18413390938406170328
21475661 188 18411697660539872336
21641784 216 15266775504306208617
22122407 14 18343022181385809488
23379529 103 10231165166828660013
23559900 14 18195529198979039838
2838139 119 18342167852055136860
34797466 226 17846219917433743389
376196 1 18410852149014870970
474 4 18272929414879307174
5081480 168 17415034376749965876
5104073 3 17967525779530030170
56638632 10 17985834963025538113
57724786 102 18336536180169467500
633830 44 18341603798595658238
7064713 232 18040721367648979831
8863177 126 8502366732906057848

>  <PUBCHEM_SHAPE_MULTIPOLES>  (1) 
527.9
13.99
4.5
1.57
4
1.35
-0.17
18.25
2.4
-0.68
0.33
-0.74
-0.86
2.13

>  <PUBCHEM_SHAPE_SELFOVERLAP>  (1) 
1096.071

>  <PUBCHEM_SHAPE_VOLUME>  (1) 
302

>  <PUBCHEM_COORDINATE_TYPE>  (1) 
2
5
10

$$$$
