26380
     RDKit          3D

 18 20  0  0  1  0  0  0  0  0999 V2000
    2.4043   -0.6540    0.9582 N   0  0  0  0  0  0  0  0  0  0  0  0
   -0.3764   -1.1139   -0.2924 N   0  0  0  0  0  0  0  0  0  0  0  0
    1.7302    0.2293   -0.0289 C   0  0  0  0  0  0  0  0  0  0  0  0
    2.2385   -0.0362   -1.4659 C   0  0  0  0  0  0  0  0  0  0  0  0
    3.7547    0.0612   -1.5612 C   0  0  0  0  0  0  0  0  0  0  0  0
    0.2075    0.0850   -0.0149 C   0  0  0  0  0  0  0  0  0  0  0  0
    3.8719   -0.5375    0.8718 C   0  0  0  0  0  0  0  0  0  0  0  0
    4.3977   -0.8490   -0.5268 C   0  0  0  0  0  0  0  0  0  0  0  0
   -0.7711    1.0036    0.2441 C   0  0  0  0  0  0  0  0  0  0  0  0
   -2.0215    0.3357    0.1197 C   0  0  0  0  0  0  0  0  0  0  0  0
    1.9912   -0.3536    2.3362 C   0  0  0  0  0  0  0  0  0  0  0  0
   -1.7455   -0.9912   -0.2173 C   0  0  0  0  0  0  0  0  0  0  0  0
   -0.5717    2.4267    0.5888 C   0  0  0  0  0  0  0  0  0  0  0  0
   -3.3655    0.7339    0.2620 C   0  0  0  0  0  0  0  0  0  0  0  0
   -2.7506   -1.9436   -0.4200 C   0  0  0  0  0  0  0  0  0  0  0  0
   -0.5359    3.3371   -0.6423 C   0  0  0  0  0  0  0  0  0  0  0  0
   -4.3814   -0.2080    0.0623 C   0  0  0  0  0  0  0  0  0  0  0  0
   -4.0764   -1.5256   -0.2734 C   0  0  0  0  0  0  0  0  0  0  0  0
  1  3  1  0
  1  7  1  0
  1 11  1  0
  2  6  1  0
  2 12  1  0
  3  4  1  0
  3  6  1  0
  4  5  1  0
  5  8  1  0
  6  9  2  0
  7  8  1  0
  9 10  1  0
  9 13  1  0
 10 12  2  0
 10 14  1  0
 12 15  1  0
 13 16  1  0
 14 17  2  0
 15 18  2  0
 17 18  1  0
M  END
>  <PUBCHEM_COMPOUND_CID>  (1) 
26380

>  <PUBCHEM_CONFORMER_RMSD>  (1) 
0.6

>  <PUBCHEM_CONFORMER_DIVERSEORDER>  (1) 
1
7
13
4
2
10
23
17
16
19
5
12
24
6
15
8
22
3
20
21
11
14
18
9

>  <PUBCHEM_MMFF94_PARTIAL_CHARGES>  (1) 
18
1 -0.81
11 0.27
12 -0.15
13 0.18
14 -0.15
15 -0.15
17 -0.15
18 -0.15
2 0.03
28 0.27
3 0.45
34 0.15
35 0.15
39 0.15
40 0.15
6 -0.33
7 0.27
9 -0.18

>  <PUBCHEM_EFFECTIVE_ROTOR_COUNT>  (1) 
3.2

>  <PUBCHEM_PHARMACOPHORE_FEATURES>  (1) 
7
1 1 cation
1 16 hydrophobe
1 2 cation
1 2 donor
5 2 6 9 10 12 rings
6 1 3 4 5 7 8 rings
6 10 12 14 15 17 18 rings

>  <PUBCHEM_HEAVY_ATOM_COUNT>  (1) 
18

>  <PUBCHEM_ATOM_DEF_STEREO_COUNT>  (1) 
0

>  <PUBCHEM_ATOM_UDEF_STEREO_COUNT>  (1) 
1

>  <PUBCHEM_BOND_DEF_STEREO_COUNT>  (1) 
0

>  <PUBCHEM_BOND_UDEF_STEREO_COUNT>  (1) 
0

>  <PUBCHEM_ISOTOPIC_ATOM_COUNT>  (1) 
0

>  <PUBCHEM_COMPONENT_COUNT>  (1) 
1

>  <PUBCHEM_CACTVS_TAUTO_COUNT>  (1) 
1

>  <PUBCHEM_CONFORMER_ID>  (1) 
0000670C00000001

>  <PUBCHEM_MMFF94_ENERGY>  (1) 
21.8504

>  <PUBCHEM_FEATURE_SELFOVERLAP>  (1) 
35.614

>  <PUBCHEM_SHAPE_FINGERPRINT>  (1) 
10465860 71 18341062903198977501
11132069 177 18201438060565675961
11543360 7 16153706578635970667
11578080 2 17678708276769878876
12236239 1 17967816033383008814
12553582 1 18408318908763262707
12788726 201 18115585937753482977
13009979 54 17825370896259158402
13140716 1 18198345242290152507
13583140 156 17698968883751943258
13760787 19 17530965795902531763
15375462 189 18113052740272153995
15848700 24 18273207629854521135
16752209 62 18263632983778929677
16945 1 18342455903080237305
17804303 29 18131353033517044843
1813 80 18341335577819398933
18175812 5 17346596391420932551
18186145 218 16226048911567102926
18222031 100 18271517697910658735
19049666 15 17201646536876053162
19141452 34 17418094351795620767
19862831 5 17967255307948411758
200 152 17458345225803404666
20510252 161 18271524174215068968
20600515 1 18270671082003809033
21029758 27 18335147518152324749
21267235 1 18340215162844541863
21285901 2 18129957663030239269
22112679 90 18408612452250084289
2297311 6 18272381849572638910
23366157 5 17973159827271592013
23402539 116 18413387613990168158
23532345 42 18273208733371017643
23557571 272 18202003188426602256
23559900 14 18130512929477065174
23598291 2 17461158743236793906
2748010 2 18270667792380769185
31174 14 16773789316668065522
350125 39 17620487808986381353
474 4 17460609249616774156
5902787 121 18338230600021922659
6442390 28 17337895728394087377
7164475 11 18188771635269404452
7364860 26 17912647105304135001
77492 1 17967254169908477370
81228 2 18270133313602062017
90316 7 18336537218955636225

>  <PUBCHEM_SHAPE_MULTIPOLES>  (1) 
360.47
7.91
2.22
1.35
0.89
2.14
0.43
-3.75
-0.89
-1.59
-0.32
1.66
-0.08
-0.45

>  <PUBCHEM_SHAPE_SELFOVERLAP>  (1) 
768.109

>  <PUBCHEM_SHAPE_VOLUME>  (1) 
202.7

>  <PUBCHEM_COORDINATE_TYPE>  (1) 
2
5
10

$$$$
