26382
     RDKit          3D

 16 16  0  0  0  0  0  0  0  0999 V2000
    0.8008   -0.7616   -1.1798 O   0  0  0  0  0  0  0  0  0  0  0  0
    3.2441   -0.0995   -0.0821 N   0  0  0  0  0  0  0  0  0  0  0  0
   -0.2194    0.7995    0.2465 N   0  0  0  0  0  0  0  0  0  0  0  0
    2.1533    0.8732   -0.0310 C   0  0  0  0  0  0  0  0  0  0  0  0
    2.9943   -1.1972    0.8514 C   0  0  0  0  0  0  0  0  0  0  0  0
    4.5204    0.5476    0.2195 C   0  0  0  0  0  0  0  0  0  0  0  0
    0.8496    0.1908   -0.4079 C   0  0  0  0  0  0  0  0  0  0  0  0
    4.1293   -2.2013    0.7926 C   0  0  0  0  0  0  0  0  0  0  0  0
    4.8015    1.6442   -0.7897 C   0  0  0  0  0  0  0  0  0  0  0  0
   -1.5905    0.4592    0.1615 C   0  0  0  0  0  0  0  0  0  0  0  0
   -2.5152    1.1862    0.8928 C   0  0  0  0  0  0  0  0  0  0  0  0
   -1.9786   -0.5931   -0.6508 C   0  0  0  0  0  0  0  0  0  0  0  0
   -4.2740   -0.2061   -0.0042 C   0  0  0  0  0  0  0  0  0  0  0  0
   -3.8667    0.8510    0.8093 C   0  0  0  0  0  0  0  0  0  0  0  0
   -3.3300   -0.9283   -0.7344 C   0  0  0  0  0  0  0  0  0  0  0  0
   -5.7191   -0.5647   -0.0937 C   0  0  0  0  0  0  0  0  0  0  0  0
  1  7  2  0
  2  4  1  0
  2  5  1  0
  2  6  1  0
  3  7  1  0
  3 10  1  0
  4  7  1  0
  5  8  1  0
  6  9  1  0
 10 11  2  0
 10 12  1  0
 11 14  1  0
 12 15  2  0
 13 14  2  0
 13 15  1  0
 13 16  1  0
M  END
>  <PUBCHEM_COMPOUND_CID>  (1) 
26382

>  <PUBCHEM_CONFORMER_RMSD>  (1) 
0.8

>  <PUBCHEM_CONFORMER_DIVERSEORDER>  (1) 
2
8
5
3
7
4
6
1

>  <PUBCHEM_MMFF94_PARTIAL_CHARGES>  (1) 
19
1 -0.57
10 0.12
11 -0.15
12 -0.15
13 -0.14
14 -0.15
15 -0.15
16 0.14
2 -0.81
29 0.37
3 -0.55
30 0.15
31 0.15
32 0.15
33 0.15
4 0.33
5 0.27
6 0.27
7 0.57

>  <PUBCHEM_EFFECTIVE_ROTOR_COUNT>  (1) 
6

>  <PUBCHEM_PHARMACOPHORE_FEATURES>  (1) 
4
1 1 acceptor
1 2 cation
1 3 donor
6 10 11 12 13 14 15 rings

>  <PUBCHEM_HEAVY_ATOM_COUNT>  (1) 
16

>  <PUBCHEM_ATOM_DEF_STEREO_COUNT>  (1) 
0

>  <PUBCHEM_ATOM_UDEF_STEREO_COUNT>  (1) 
0

>  <PUBCHEM_BOND_DEF_STEREO_COUNT>  (1) 
0

>  <PUBCHEM_BOND_UDEF_STEREO_COUNT>  (1) 
0

>  <PUBCHEM_ISOTOPIC_ATOM_COUNT>  (1) 
0

>  <PUBCHEM_COMPONENT_COUNT>  (1) 
1

>  <PUBCHEM_CACTVS_TAUTO_COUNT>  (1) 
2

>  <PUBCHEM_CONFORMER_ID>  (1) 
0000670E00000002

>  <PUBCHEM_MMFF94_ENERGY>  (1) 
40.2474

>  <PUBCHEM_FEATURE_SELFOVERLAP>  (1) 
20.297

>  <PUBCHEM_SHAPE_FINGERPRINT>  (1) 
10366900 7 17489868258711108547
10912923 1 18342461426133834761
12107183 9 17762620594645338672
12236239 1 18411138039270235125
13167823 11 18410854330615319986
13533116 47 18409726248970787619
13760787 19 18340487858638827470
13955234 65 18260263062882199616
14123238 8 18343303682263730901
14386348 63 16008748008926902960
15242433 33 18409728482263889591
15375358 24 16008749125787380392
17834072 33 18410011061226354940
19026448 5 18411982433972124368
19422 9 18412542077038104602
19433438 28 14045747010510307707
200 152 18408037421091339721
20279233 1 15719392832511988168
20281475 54 18411692197193583926
20645477 70 17967808319616710986
21065198 48 18412266103497827233
21267235 1 17988652938423216565
22485316 2 18333448746542904761
22646028 1 18412260618961564777
2297311 6 16988577821895277769
23048698 100 18335421253249639640
23175994 123 16587746430310577085
23402539 116 17988917878071321405
23532345 1 18040438828132562396
23557571 272 16343718620513402601
23559900 14 16845573162249146472
300161 21 18412256250837588244
42 15 18410011001049444043
474 4 18116437136285189092
5104073 3 18271810090388106003
5374978 207 17918269852917182771
542803 24 18342744026392106493
573450 72 18201434740635123195
90127 26 17530967934237069396

>  <PUBCHEM_SHAPE_MULTIPOLES>  (1) 
313.44
11.96
1.58
0.97
1.22
0.42
-0.01
0.67
0.43
-2.01
0.21
0
0.05
-1.54

>  <PUBCHEM_SHAPE_SELFOVERLAP>  (1) 
630.479

>  <PUBCHEM_SHAPE_VOLUME>  (1) 
186.3

>  <PUBCHEM_COORDINATE_TYPE>  (1) 
2
5
10

$$$$
