26384
     RDKit          3D

 12 13  0  0  0  0  0  0  0  0999 V2000
   -2.8867    1.3824    0.0012 O   0  0  0  0  0  0  0  0  0  0  0  0
   -0.5744    1.4327   -0.0007 N   0  0  0  0  0  0  0  0  0  0  0  0
   -0.6661   -1.3759   -0.0004 N   0  0  0  0  0  0  0  0  0  0  0  0
    0.6202    0.7050   -0.0007 C   0  0  0  0  0  0  0  0  0  0  0  0
    0.5580   -0.6903   -0.0004 C   0  0  0  0  0  0  0  0  0  0  0  0
   -1.7689   -0.6963   -0.0003 C   0  0  0  0  0  0  0  0  0  0  0  0
   -1.8036    0.8154    0.0000 C   0  0  0  0  0  0  0  0  0  0  0  0
    1.8462    1.3735   -0.0003 C   0  0  0  0  0  0  0  0  0  0  0  0
    1.7530   -1.4172    0.0002 C   0  0  0  0  0  0  0  0  0  0  0  0
    3.0294    0.6373    0.0005 C   0  0  0  0  0  0  0  0  0  0  0  0
    2.9833   -0.7564    0.0007 C   0  0  0  0  0  0  0  0  0  0  0  0
   -3.0905   -1.4103    0.0001 C   0  0  0  0  0  0  0  0  0  0  0  0
  1  7  2  0
  2  4  1  0
  2  7  1  0
  3  5  1  0
  3  6  2  0
  4  5  2  0
  4  8  1  0
  5  9  1  0
  6  7  1  0
  6 12  1  0
  8 10  2  0
  9 11  2  0
 10 11  1  0
M  END
>  <PUBCHEM_COMPOUND_CID>  (1) 
26384

>  <PUBCHEM_CONFORMER_RMSD>  (1) 
0.4

>  <PUBCHEM_CONFORMER_DIVERSEORDER>  (1) 
1

>  <PUBCHEM_MMFF94_PARTIAL_CHARGES>  (1) 
17
1 -0.57
10 -0.15
11 -0.15
12 0.06
13 0.37
14 0.15
15 0.15
16 0.15
17 0.15
2 -0.55
3 -0.63
4 0.12
5 0.18
6 0.39
7 0.63
8 -0.15
9 -0.15

>  <PUBCHEM_EFFECTIVE_ROTOR_COUNT>  (1) 
0

>  <PUBCHEM_PHARMACOPHORE_FEATURES>  (1) 
5
1 1 acceptor
1 2 donor
1 3 acceptor
6 2 3 4 5 6 7 rings
6 4 5 8 9 10 11 rings

>  <PUBCHEM_HEAVY_ATOM_COUNT>  (1) 
12

>  <PUBCHEM_ATOM_DEF_STEREO_COUNT>  (1) 
0

>  <PUBCHEM_ATOM_UDEF_STEREO_COUNT>  (1) 
0

>  <PUBCHEM_BOND_DEF_STEREO_COUNT>  (1) 
0

>  <PUBCHEM_BOND_UDEF_STEREO_COUNT>  (1) 
0

>  <PUBCHEM_ISOTOPIC_ATOM_COUNT>  (1) 
0

>  <PUBCHEM_COMPONENT_COUNT>  (1) 
1

>  <PUBCHEM_CACTVS_TAUTO_COUNT>  (1) 
4

>  <PUBCHEM_CONFORMER_ID>  (1) 
0000671000000001

>  <PUBCHEM_MMFF94_ENERGY>  (1) 
31.4034

>  <PUBCHEM_FEATURE_SELFOVERLAP>  (1) 
25.403

>  <PUBCHEM_SHAPE_FINGERPRINT>  (1) 
10608611 8 18411132545690942208
11206711 2 18408886264930896541
12032990 46 18410863191096038646
12897270 3 18410572920057616582
13380535 21 18339093600379472775
13380535 76 18339920403396548855
14144814 61 18410292518854449954
14325111 11 18410855468808001024
15775835 57 18335709303679043916
16945 1 18266741479054212610
17844478 74 18187938321293021083
17990270 104 18411983542232052566
193761 8 15528551303563775885
19973954 147 18410857659183111348
20201158 50 18340484474077991038
20871998 184 18202003248271197687
21501502 16 18409730659764601962
21501925 9 18337095848240243682
2334 1 18410575114754243239
23402655 69 18269541768273465829
23463225 33 18408039602544361962
23552423 10 18261112984584596782
23559900 14 18270684165613740358
2748010 2 18411136935110147381
5084963 1 18272373108892263242
528886 8 18411131398976482552
53812653 166 18342733014212023896
63268167 104 18339365166988074544
6333449 129 18412822482166947309

>  <PUBCHEM_SHAPE_MULTIPOLES>  (1) 
231.12
4.84
1.78
0.59
0.5
0.05
0
-0.37
0
0.36
0
-0.03
-0.01
0

>  <PUBCHEM_SHAPE_SELFOVERLAP>  (1) 
500.817

>  <PUBCHEM_SHAPE_VOLUME>  (1) 
125.9

>  <PUBCHEM_COORDINATE_TYPE>  (1) 
2
5
10

$$$$
