26395
     RDKit          3D

 17 18  0  0  0  0  0  0  0  0999 V2000
   -3.1446    2.9566   -0.4828 O   0  0  0  0  0  0  0  0  0  0  0  0
    3.2911    0.0505    0.0797 N   0  0  0  0  0  0  0  0  0  0  0  0
   -2.0364   -2.3580    0.2824 N   0  0  0  0  0  0  0  0  0  0  0  0
    1.9539   -0.4147   -0.2724 C   0  0  0  0  0  0  0  0  0  0  0  0
    1.0319   -0.4980    0.9581 C   0  0  0  0  0  0  0  0  0  0  0  0
   -0.3201   -0.9945    0.6324 C   0  0  0  0  0  0  0  0  0  0  0  0
   -1.4443   -0.2072    0.2565 C   0  0  0  0  0  0  0  0  0  0  0  0
    3.2306    1.3841    0.6799 C   0  0  0  0  0  0  0  0  0  0  0  0
    4.1589    0.0624   -1.0988 C   0  0  0  0  0  0  0  0  0  0  0  0
   -2.5077   -1.0869    0.0430 C   0  0  0  0  0  0  0  0  0  0  0  0
   -0.7153   -2.3123    0.6394 C   0  0  0  0  0  0  0  0  0  0  0  0
   -1.6598    1.1737    0.0770 C   0  0  0  0  0  0  0  0  0  0  0  0
    4.6017    1.8605    1.1128 C   0  0  0  0  0  0  0  0  0  0  0  0
    4.2406   -1.3068   -1.7415 C   0  0  0  0  0  0  0  0  0  0  0  0
   -3.7810   -0.6529   -0.3425 C   0  0  0  0  0  0  0  0  0  0  0  0
   -2.9283    1.6222   -0.3086 C   0  0  0  0  0  0  0  0  0  0  0  0
   -3.9712    0.7213   -0.5145 C   0  0  0  0  0  0  0  0  0  0  0  0
  1 16  1  0
  2  4  1  0
  2  8  1  0
  2  9  1  0
  3 10  1  0
  3 11  1  0
  4  5  1  0
  5  6  1  0
  6  7  1  0
  6 11  2  0
  7 10  2  0
  7 12  1  0
  8 13  1  0
  9 14  1  0
 10 15  1  0
 12 16  2  0
 15 17  2  0
 16 17  1  0
M  END
>  <PUBCHEM_COMPOUND_CID>  (1) 
26395

>  <PUBCHEM_CONFORMER_RMSD>  (1) 
0.6

>  <PUBCHEM_CONFORMER_DIVERSEORDER>  (1) 
1
5
9
48
34
36
37
30
45
28
27
35
47
8
32
29
49
17
44
41
31
39
25
23
21
46
38
11
43
16
3
6
10
33
22
2
24
4
42
40
7
15
26
18
14
20
19
13
12

>  <PUBCHEM_MMFF94_PARTIAL_CHARGES>  (1) 
20
1 -0.53
10 -0.15
11 -0.3
12 -0.15
15 -0.15
16 0.08
17 -0.15
2 -0.81
26 0.15
27 0.27
28 0.15
3 0.03
35 0.15
36 0.15
37 0.45
4 0.27
5 0.18
6 -0.18
8 0.27
9 0.27

>  <PUBCHEM_EFFECTIVE_ROTOR_COUNT>  (1) 
5

>  <PUBCHEM_PHARMACOPHORE_FEATURES>  (1) 
6
1 1 donor
1 2 cation
1 3 cation
1 3 donor
5 3 6 7 10 11 rings
6 7 10 12 15 16 17 rings

>  <PUBCHEM_HEAVY_ATOM_COUNT>  (1) 
17

>  <PUBCHEM_ATOM_DEF_STEREO_COUNT>  (1) 
0

>  <PUBCHEM_ATOM_UDEF_STEREO_COUNT>  (1) 
0

>  <PUBCHEM_BOND_DEF_STEREO_COUNT>  (1) 
0

>  <PUBCHEM_BOND_UDEF_STEREO_COUNT>  (1) 
0

>  <PUBCHEM_ISOTOPIC_ATOM_COUNT>  (1) 
0

>  <PUBCHEM_COMPONENT_COUNT>  (1) 
1

>  <PUBCHEM_CACTVS_TAUTO_COUNT>  (1) 
8

>  <PUBCHEM_CONFORMER_ID>  (1) 
0000671B00000001

>  <PUBCHEM_MMFF94_ENERGY>  (1) 
24.4285

>  <PUBCHEM_FEATURE_SELFOVERLAP>  (1) 
30.538

>  <PUBCHEM_SHAPE_FINGERPRINT>  (1) 
10498660 4 18334566907024681917
10608611 8 18341048605416366248
10646746 165 18408600383850632680
10670039 82 17895484613668312396
10730089 88 18197798629928153742
11715629 250 18409724071421926488
12173636 292 18335695035977067423
12390115 104 18269004081407518977
12788726 201 16519082100944511586
12916748 109 18334859432645815883
14251757 17 18343864411777388248
15961568 22 18045780345847020460
1741750 31 18335415755528042123
18186145 218 18272093759998139296
200 152 16487262045273105894
20361792 2 14692569918358647402
20510252 161 18412543228136799993
20645477 56 18411421747482162448
20645477 70 17274832354772781670
20671657 1 18118394051606303970
21065201 7 18335422396091092842
21141583 151 18343580720365704040
21524375 3 18042681715435447523
22943178 12 18272376420765891346
23366157 5 17535463726089124059
23402539 116 18265317581315628575
23526113 38 17917708028414056810
23557571 272 18194402414413877242
23559900 14 18343021095412626186
2748010 2 17977367658734931227
4028521 119 18409445886321690317
474 4 17095242505910196066
5161694 15 18271536307935302718
5281201 14 18202289099893403300
6049 1 18270418194814723578
633830 44 18200585900394494117
9709674 26 18342176721478756822

>  <PUBCHEM_SHAPE_MULTIPOLES>  (1) 
334.02
9.26
2.48
1.13
6.68
0.55
-0.21
3.27
-2.26
-1.22
0.14
1.31
-0.15
1.91

>  <PUBCHEM_SHAPE_SELFOVERLAP>  (1) 
699.067

>  <PUBCHEM_SHAPE_VOLUME>  (1) 
192.3

>  <PUBCHEM_COORDINATE_TYPE>  (1) 
2
5
10

$$$$
