26396
     RDKit          3D

 12 12  0  0  1  0  0  0  0  0999 V2000
    0.0808    1.1823    0.2995 O   0  0  0  0  0  0  0  0  0  0  0  0
   -2.6367   -1.3092   -0.0467 O   0  0  0  0  0  0  0  0  0  0  0  0
   -1.1563    0.6278   -0.1795 C   0  0  0  0  0  0  0  0  0  0  0  0
   -1.4893   -0.6989    0.5332 C   0  0  0  0  0  0  0  0  0  0  0  0
    1.2367    0.3359    0.3840 C   0  0  0  0  0  0  0  0  0  0  0  0
   -0.3162   -1.6714    0.4966 C   0  0  0  0  0  0  0  0  0  0  0  0
    0.9173   -0.9989    1.0780 C   0  0  0  0  0  0  0  0  0  0  0  0
   -2.2267    1.6751    0.1804 C   0  0  0  0  0  0  0  0  0  0  0  0
   -1.1504    0.4989   -1.7124 C   0  0  0  0  0  0  0  0  0  0  0  0
    2.2524    1.1086    1.2394 C   0  0  0  0  0  0  0  0  0  0  0  0
    1.8620    0.1477   -0.9700 C   0  0  0  0  0  0  0  0  0  0  0  0
    2.6266   -0.8978   -1.3024 C   0  0  0  0  0  0  0  0  0  0  0  0
  1  3  1  0
  1  5  1  0
  2  4  1  0
  3  4  1  0
  3  8  1  0
  3  9  1  0
  4  6  1  0
  5  7  1  0
  5 10  1  0
  5 11  1  0
  6  7  1  0
 11 12  2  0
M  END
>  <PUBCHEM_COMPOUND_CID>  (1) 
26396

>  <PUBCHEM_CONFORMER_RMSD>  (1) 
0.6

>  <PUBCHEM_CONFORMER_DIVERSEORDER>  (1) 
4
7
10
3
5
2
11
12
6
8
15
9
14
1
13

>  <PUBCHEM_MMFF94_PARTIAL_CHARGES>  (1) 
11
1 -0.56
11 -0.29
12 -0.3
2 -0.68
27 0.15
28 0.4
29 0.15
3 0.28
30 0.15
4 0.28
5 0.42

>  <PUBCHEM_EFFECTIVE_ROTOR_COUNT>  (1) 
2.2

>  <PUBCHEM_PHARMACOPHORE_FEATURES>  (1) 
6
1 1 acceptor
1 12 hydrophobe
1 2 acceptor
1 2 donor
3 3 8 9 hydrophobe
6 1 3 4 5 6 7 rings

>  <PUBCHEM_HEAVY_ATOM_COUNT>  (1) 
12

>  <PUBCHEM_ATOM_DEF_STEREO_COUNT>  (1) 
0

>  <PUBCHEM_ATOM_UDEF_STEREO_COUNT>  (1) 
2

>  <PUBCHEM_BOND_DEF_STEREO_COUNT>  (1) 
0

>  <PUBCHEM_BOND_UDEF_STEREO_COUNT>  (1) 
0

>  <PUBCHEM_ISOTOPIC_ATOM_COUNT>  (1) 
0

>  <PUBCHEM_COMPONENT_COUNT>  (1) 
1

>  <PUBCHEM_CACTVS_TAUTO_COUNT>  (1) 
1

>  <PUBCHEM_CONFORMER_ID>  (1) 
0000671C00000004

>  <PUBCHEM_MMFF94_ENERGY>  (1) 
37.7146

>  <PUBCHEM_FEATURE_SELFOVERLAP>  (1) 
30.446

>  <PUBCHEM_SHAPE_FINGERPRINT>  (1) 
10353120 184 18042420182092073315
10702982 57 17119202852901949664
12423570 1 11231363440884155554
12524768 44 17976268154990019563
12716758 59 18339369569408596010
13024252 1 12758865531870708494
13839132 238 18412259562605708552
14817 1 10517743874176878438
15219456 202 18131350830246418168
15310529 11 16773804739473710131
15775835 57 17386019338106779380
16945 1 18189343522670018955
19837323 101 17606716636306944854
20511035 2 16883829329049197133
20645464 45 18341885303568503032
20653085 51 17170715179016773630
21040471 1 18189048711777630153
21922407 69 15140961768114047664
22802520 49 18130514037077538608
23211744 41 18056177293032453512
23552423 10 17676763158921481547
23559900 14 18197785402210110190
2748010 2 18410569587205238417
29004967 10 17489878119955779586
430814 3 17752504073941465932
5084963 1 17604137151768395042
528886 8 17750253416805164428

>  <PUBCHEM_SHAPE_MULTIPOLES>  (1) 
235.22
3.46
1.66
1.39
0.21
0.19
0.39
-0.19
0.48
-0.57
-0.35
0.61
-0.09
0.46

>  <PUBCHEM_SHAPE_SELFOVERLAP>  (1) 
467.8

>  <PUBCHEM_SHAPE_VOLUME>  (1) 
140.3

>  <PUBCHEM_COORDINATE_TYPE>  (1) 
2
5
10

$$$$
