26390
     RDKit          3D

 28 31  0  0  0  0  0  0  0  0999 V2000
    5.0211   -4.0955   -1.3919 Cl  0  0  0  0  0  0  0  0  0  0  0  0
   -9.0049    0.1625   -0.9977 O   0  0  0  0  0  0  0  0  0  0  0  0
    4.3417    1.1618    1.1623 O   0  0  0  0  0  0  0  0  0  0  0  0
   -2.8556   -0.6396    0.7665 N   0  0  0  0  0  0  0  0  0  0  0  0
   -5.7078   -0.8138    0.3271 N   0  0  0  0  0  0  0  0  0  0  0  0
   -3.4200   -0.6320   -0.5888 C   0  0  0  0  0  0  0  0  0  0  0  0
   -3.7231   -1.3944    1.6791 C   0  0  0  0  0  0  0  0  0  0  0  0
   -4.8409   -0.0581   -0.5854 C   0  0  0  0  0  0  0  0  0  0  0  0
   -5.1436   -0.8193    1.6823 C   0  0  0  0  0  0  0  0  0  0  0  0
   -1.5020   -1.1908    0.7620 C   0  0  0  0  0  0  0  0  0  0  0  0
   -7.0621   -0.2644    0.3307 C   0  0  0  0  0  0  0  0  0  0  0  0
   -0.5822   -0.3297   -0.1026 C   0  0  0  0  0  0  0  0  0  0  0  0
   -7.6864   -0.3662   -1.0518 C   0  0  0  0  0  0  0  0  0  0  0  0
    0.8124   -0.8686   -0.1016 C   0  0  0  0  0  0  0  0  0  0  0  0
    1.9114   -0.0990   -0.2285 C   0  0  0  0  0  0  0  0  0  0  0  0
    1.6831    1.3569   -0.3750 C   0  0  0  0  0  0  0  0  0  0  0  0
    3.2661   -0.7088   -0.0907 C   0  0  0  0  0  0  0  0  0  0  0  0
    2.2670    2.2264    0.5605 C   0  0  0  0  0  0  0  0  0  0  0  0
    4.3465   -0.0671    0.5498 C   0  0  0  0  0  0  0  0  0  0  0  0
    3.1057    1.6572    1.6702 C   0  0  0  0  0  0  0  0  0  0  0  0
    0.9196    1.8836   -1.4273 C   0  0  0  0  0  0  0  0  0  0  0  0
    3.5153   -1.9555   -0.7051 C   0  0  0  0  0  0  0  0  0  0  0  0
    2.0763    3.6084    0.4363 C   0  0  0  0  0  0  0  0  0  0  0  0
    5.6153   -0.6721    0.5659 C   0  0  0  0  0  0  0  0  0  0  0  0
    0.7328    3.2614   -1.5401 C   0  0  0  0  0  0  0  0  0  0  0  0
    1.3094    4.1223   -0.6091 C   0  0  0  0  0  0  0  0  0  0  0  0
    4.7765   -2.5540   -0.6671 C   0  0  0  0  0  0  0  0  0  0  0  0
    5.8280   -1.9116   -0.0300 C   0  0  0  0  0  0  0  0  0  0  0  0
  1 27  1  0
  2 13  1  0
  3 19  1  0
  3 20  1  0
  4  6  1  0
  4  7  1  0
  4 10  1  0
  5  8  1  0
  5  9  1  0
  5 11  1  0
  6  8  1  0
  7  9  1  0
 10 12  1  0
 11 13  1  0
 12 14  1  0
 14 15  2  0
 15 16  1  0
 15 17  1  0
 16 18  2  0
 16 21  1  0
 17 19  2  0
 17 22  1  0
 18 20  1  0
 18 23  1  0
 19 24  1  0
 21 25  2  0
 22 27  2  0
 23 26  2  0
 24 28  2  0
 25 26  1  0
 27 28  1  0
M  END
>  <PUBCHEM_COMPOUND_CID>  (1) 
26390

>  <PUBCHEM_CONFORMER_RMSD>  (1) 
0.8

>  <PUBCHEM_CONFORMER_DIVERSEORDER>  (1) 
1
39
8
53
57
30
15
9
86
80
63
40
43
85
45
87
74
82
51
67
76
70
46
75
77
10
65
68
44
32
55
24
83
12
48
17
91
89
84
60
62
73
81
47
49
37
29
72
3
20
54
59
58
92
21
31
42
25
5
56
27
28
23
52
22
38
78
33
61
4
19
90
64
71
16
14
2
69
34
66
36
7
18
79
88
26
13
41
11
35
6
50

>  <PUBCHEM_MMFF94_PARTIAL_CHARGES>  (1) 
37
1 -0.18
10 0.27
11 0.27
12 0.14
13 0.28
14 -0.29
15 -0.06
16 0.03
17 0.03
18 -0.14
19 0.08
2 -0.68
20 0.42
21 -0.15
22 -0.15
23 -0.15
24 -0.15
25 -0.15
26 -0.15
27 0.18
28 -0.15
3 -0.36
4 -0.81
45 0.15
48 0.15
49 0.4
5 -0.81
50 0.15
51 0.15
52 0.15
53 0.15
54 0.15
55 0.15
6 0.27
7 0.27
8 0.27
9 0.27

>  <PUBCHEM_EFFECTIVE_ROTOR_COUNT>  (1) 
6.6

>  <PUBCHEM_PHARMACOPHORE_FEATURES>  (1) 
9
1 2 acceptor
1 2 donor
1 3 acceptor
1 4 cation
1 5 cation
6 16 18 21 23 25 26 rings
6 17 19 22 24 27 28 rings
6 4 5 6 7 8 9 rings
7 3 15 16 17 18 19 20 rings

>  <PUBCHEM_HEAVY_ATOM_COUNT>  (1) 
28

>  <PUBCHEM_ATOM_DEF_STEREO_COUNT>  (1) 
0

>  <PUBCHEM_ATOM_UDEF_STEREO_COUNT>  (1) 
0

>  <PUBCHEM_BOND_DEF_STEREO_COUNT>  (1) 
0

>  <PUBCHEM_BOND_UDEF_STEREO_COUNT>  (1) 
1

>  <PUBCHEM_ISOTOPIC_ATOM_COUNT>  (1) 
0

>  <PUBCHEM_COMPONENT_COUNT>  (1) 
1

>  <PUBCHEM_CACTVS_TAUTO_COUNT>  (1) 
1

>  <PUBCHEM_CONFORMER_ID>  (1) 
0000671600000001

>  <PUBCHEM_MMFF94_ENERGY>  (1) 
89.9024

>  <PUBCHEM_FEATURE_SELFOVERLAP>  (1) 
45.691

>  <PUBCHEM_SHAPE_FINGERPRINT>  (1) 
10319926 262 16877942793856736353
10673678 19 17388278976842786108
10688039 33 18335141939195392756
10763959 59 18334295383792858781
11186622 174 18342736308515405571
11386260 185 18261666056852151685
11421498 54 12973871607419232566
11545043 162 17241057603814332499
12107698 1 18412824669049281549
12166972 35 18272934925306816521
12516196 113 18408325462841340166
12788726 201 18115313255324030330
13533116 47 18202566176385909010
13540713 4 17983567504646956950
13782708 43 17896334682671294323
13878862 14 18263628719224837781
13911852 28 18270123379670227982
14170010 4 18413105078124847537
14400156 350 18118680152796269956
14790565 3 17688591985088595468
15081414 286 18336548304551121952
15183329 4 17676205745850544763
15419008 47 17967529052443114693
1813 80 18199768972055975078
18335252 114 18409439285806139853
21033648 29 18201422671566194217
21223535 225 18265615391213814253
21859007 373 17822275891528697989
23559900 14 18260832635332553099
249057 25 17846508045641895001
249057 3 18411138048187802167
3103668 31 17897723163608772485
3411729 13 17533501381507081180
4144715 1 18042135413402792523
4340502 62 10159696893431289976
437815 12 18334581204917595183
508706 21 17822561734413672549
54076057 255 14923952253794565511
58902169 19 18201991158713388661
59755656 215 17894909595015349571
6371380 46 17967532385306197931
70251023 43 18267871571620003642
9971528 1 18410858771811684696

>  <PUBCHEM_SHAPE_MULTIPOLES>  (1) 
556.4
18.21
4.09
1.43
41.13
2.77
-0.16
-12.25
1.72
-7.79
1.52
0.5
0.11
2.37

>  <PUBCHEM_SHAPE_SELFOVERLAP>  (1) 
1181.281

>  <PUBCHEM_SHAPE_VOLUME>  (1) 
310.2

>  <PUBCHEM_COORDINATE_TYPE>  (1) 
2
5
10

$$$$
