2639
     RDKit          3D

 35 39  0  0  1  0  0  0  0  0999 V2000
   -0.7603   -0.1345   -2.2763 S   0  0  0  0  0  0  0  0  0  0  0  0
    7.6970   -0.9886    0.1302 S   0  0  0  0  0  0  0  0  0  0  0  0
    1.0437   -3.2154    0.7040 O   0  0  0  0  0  0  0  0  0  0  0  0
   -2.3105   -4.0260    0.5409 O   0  0  0  0  0  0  0  0  0  0  0  0
   -2.2972   -2.5757    2.3100 O   0  0  0  0  0  0  0  0  0  0  0  0
    3.0404    1.1480   -1.7055 O   0  0  0  0  0  0  0  0  0  0  0  0
    5.5100    2.1810    1.7363 O   0  0  0  0  0  0  0  0  0  0  0  0
   -0.4473   -1.5598   -0.0616 N   0  0  0  0  0  0  0  0  0  0  0  0
    2.6092   -0.5291   -0.1206 N   0  0  0  0  0  0  0  0  0  0  0  0
   -4.7337    0.0786    0.2814 N   0  0  0  0  0  0  0  0  0  0  0  0
   -5.9908    1.8046    0.5760 N   0  0  0  0  0  0  0  0  0  0  0  0
   -7.1167    2.7151    0.3712 N   0  0  0  0  0  0  0  0  0  0  0  0
    4.3046    1.8954    1.0800 N   0  0  0  0  0  0  0  0  0  0  0  0
    6.6348    1.0437   -0.9477 N   0  0  0  0  0  0  0  0  0  0  0  0
    6.1363   -0.6457    0.6275 N   0  0  0  0  0  0  0  0  0  0  0  0
    8.8534    0.6020   -1.6925 N   0  0  0  0  0  0  0  0  0  0  0  0
    0.0909   -0.3747   -0.7005 C   0  0  0  0  0  0  0  0  0  0  0  0
    1.4365   -1.1333   -0.7515 C   0  0  0  0  0  0  0  0  0  0  0  0
    0.7258   -2.1967    0.1364 C   0  0  0  0  0  0  0  0  0  0  0  0
   -1.7678   -1.7730    0.1687 C   0  0  0  0  0  0  0  0  0  0  0  0
   -2.7134   -1.0213   -0.4405 C   0  0  0  0  0  0  0  0  0  0  0  0
   -2.3992    0.0414   -1.4907 C   0  0  0  0  0  0  0  0  0  0  0  0
   -4.2018   -1.1697   -0.2273 C   0  0  0  0  0  0  0  0  0  0  0  0
   -2.1666   -2.9095    1.1035 C   0  0  0  0  0  0  0  0  0  0  0  0
    3.2825    0.5481   -0.6705 C   0  0  0  0  0  0  0  0  0  0  0  0
   -5.8408    0.6882   -0.1310 C   0  0  0  0  0  0  0  0  0  0  0  0
   -4.1671    0.8422    1.2870 C   0  0  0  0  0  0  0  0  0  0  0  0
   -4.9710    1.9415    1.4720 C   0  0  0  0  0  0  0  0  0  0  0  0
    4.4594    0.9929    0.1588 C   0  0  0  0  0  0  0  0  0  0  0  0
   -6.8481    0.2911   -1.2085 C   0  0  0  0  0  0  0  0  0  0  0  0
   -7.9066    1.1707   -1.3833 C   0  0  0  0  0  0  0  0  0  0  0  0
    5.7973    0.4313   -0.0535 C   0  0  0  0  0  0  0  0  0  0  0  0
   -7.9846    2.3205   -0.5955 C   0  0  0  0  0  0  0  0  0  0  0  0
    7.7495    0.3462   -0.9472 C   0  0  0  0  0  0  0  0  0  0  0  0
    5.2523    3.1704    2.7206 C   0  0  0  0  0  0  0  0  0  0  0  0
  1 17  1  0
  1 22  1  0
  2 15  1  0
  2 34  1  0
  3 19  2  0
  4 24  1  0
  5 24  2  0
  6 25  2  0
  7 13  1  0
  7 35  1  0
  8 17  1  0
  8 19  1  0
  8 20  1  0
  9 18  1  0
  9 25  1  0
 10 23  1  0
 10 26  1  0
 10 27  1  0
 11 12  2  0
 11 26  1  0
 11 28  1  0
 12 33  1  0
 13 29  2  0
 14 32  1  0
 14 34  2  0
 15 32  2  0
 16 34  1  0
 17 18  1  0
 18 19  1  0
 20 21  2  0
 20 24  1  0
 21 22  1  0
 21 23  1  0
 25 29  1  0
 26 30  2  0
 27 28  2  0
 29 32  1  0
 30 31  1  0
 31 33  2  0
M  CHG  2   4  -1  11   1
M  END
>  <PUBCHEM_COMPOUND_CID>  (1) 
2639

>  <PUBCHEM_CONFORMER_RMSD>  (1) 
1.2

>  <PUBCHEM_CONFORMER_DIVERSEORDER>  (1) 
1
128
166
223
64
25
253
89
162
229
213
21
99
91
118
93
139
250
17
216
252
164
232
245
19
255
29
201
94
153
44
177
203
228
9
239
134
104
220
50
204
123
257
92
97
83
267
58
224
256
81
133
190
79
163
136
157
176
132
263
86
15
266
150
165
172
13
262
14
184
219
243
138
102
43
268
237
38
111
88
246
258
160
240
167
173
214
55
238
67
179
175
182
158
48
171
59
76
47
207
236
135
251
212
53
209
247
8
129
61
178
71
227
108
185
95
31
215
115
148
121
105
169
39
146
34
161
265
112
85
18
270
90
242
110
98
75
147
33
197
208
127
233
62
41
144
231
221
174
170
68
54
259
230
30
234
84
70
52
226
16
156
187
181
42
72
106
141
116
122
3
244
51
103
45
56
191
151
32
27
154
269
168
261
125
66
36
145
130
142
217
114
235
5
152
65
254
188
205
82
87
131
222
60
100
10
124
77
78
35
20
260
74
159
241
210
109
200
80
249
189
137
195
202
225
28
196
7
149
4
63
199
264
206
126
180
69
192
140
24
11
155
26
211
119
183
6
198
143
186
117
23
73
46
101
22
57
37
248
218
107
194
113
49
12
193
2
40
120
96

>  <PUBCHEM_MMFF94_PARTIAL_CHARGES>  (1) 
43
1 -0.45
10 -0.76
11 -0.33
12 -0.23
13 -0.51
14 -0.57
15 -0.51
16 -0.88
17 0.44
18 0.28
19 0.58
2 0.18
20 -0.14
21 -0.28
22 0.37
23 0.65
24 1.05
25 0.63
26 0.78
27 0.2
28 0.2
29 0.54
3 -0.57
30 -0.13
31 -0.15
32 0.43
33 0.16
34 0.46
35 0.28
4 -0.9
40 0.37
43 0.15
44 0.15
45 0.15
46 0.15
47 0.15
5 -0.9
51 0.4
52 0.4
6 -0.57
7 -0.22
8 -0.39
9 -0.65

>  <PUBCHEM_EFFECTIVE_ROTOR_COUNT>  (1) 
8.6

>  <PUBCHEM_PHARMACOPHORE_FEATURES>  (1) 
17
1 12 acceptor
1 13 acceptor
1 16 donor
1 3 acceptor
1 4 acceptor
1 5 acceptor
1 6 acceptor
1 9 donor
3 10 11 26 cation
3 14 15 32 cation
3 14 16 34 cation
3 4 5 24 anion
4 8 17 18 19 rings
5 10 11 26 27 28 rings
5 2 14 15 32 34 rings
6 1 8 17 20 21 22 rings
6 11 12 26 30 31 33 rings

>  <PUBCHEM_HEAVY_ATOM_COUNT>  (1) 
35

>  <PUBCHEM_ATOM_DEF_STEREO_COUNT>  (1) 
0

>  <PUBCHEM_ATOM_UDEF_STEREO_COUNT>  (1) 
2

>  <PUBCHEM_BOND_DEF_STEREO_COUNT>  (1) 
0

>  <PUBCHEM_BOND_UDEF_STEREO_COUNT>  (1) 
1

>  <PUBCHEM_ISOTOPIC_ATOM_COUNT>  (1) 
0

>  <PUBCHEM_COMPONENT_COUNT>  (1) 
1

>  <PUBCHEM_CACTVS_TAUTO_COUNT>  (1) 
6

>  <PUBCHEM_CONFORMER_ID>  (1) 
00000A4F00000001

>  <PUBCHEM_MMFF94_ENERGY>  (1) 
80.9158

>  <PUBCHEM_FEATURE_SELFOVERLAP>  (1) 
86.934

>  <PUBCHEM_SHAPE_FINGERPRINT>  (1) 
10 15 17240202118742000413
10554248 39 15553900974377814236
10670039 82 16128658505691343521
10674148 151 18335142008468673074
12422481 6 17458346346769088527
12925494 130 18409727382805308698
13248334 5 17975130934094100531
13540713 5 17025176260732815559
14068700 675 10519983759936296867
14739800 52 18271518711348711657
14767858 380 13398631653954223533
15183329 4 17918277541299045544
15289351 153 18271803476354727920
15301273 46 17168145602761923646
15320295 40 16773514383332774432
15461852 350 17988923396850972735
20105231 36 15719397214006351858
20511986 3 18337099070251641029
21033648 29 18265883822126465736
21403212 168 18335698308868864222
21792961 116 15123791781998008071
21895431 317 11671241666019824612
22122407 14 17988931088979111658
23522609 53 17387155215649912668
23929065 36 18122900091503332683
2838139 119 17989487416066964985
4144715 1 18046912851296493424
474113 269 16773243865240019222
5104073 3 17459749431296810992
5385378 56 18260545576846038682
54039377 194 9799397928864221037
57303763 176 17557997147653470064
6086070 43 18059854004097122290
6371380 46 18413389856638271168

>  <PUBCHEM_SHAPE_MULTIPOLES>  (1) 
653.81
24.93
3.33
1.85
12.72
1.14
-0.29
-18.81
4.42
-1.77
-2.45
0.8
-0.63
1.82

>  <PUBCHEM_SHAPE_SELFOVERLAP>  (1) 
1393.47

>  <PUBCHEM_SHAPE_VOLUME>  (1) 
367.3

>  <PUBCHEM_COORDINATE_TYPE>  (1) 
2
5
10

$$$$
