26392
     RDKit          3D

 11 11  0  0  0  0  0  0  0  0999 V2000
   -0.0115   -2.0178   -0.0240 O   0  0  0  0  0  0  0  0  0  0  0  0
    2.6334   -0.1720   -1.1138 O   0  0  0  0  0  0  0  0  0  0  0  0
    2.6608   -0.1973    1.1790 N   0  0  0  0  0  0  0  0  0  0  0  0
   -1.7272   -0.3573    0.0070 C   0  0  0  0  0  0  0  0  0  0  0  0
   -0.3761   -0.7032   -0.0131 C   0  0  0  0  0  0  0  0  0  0  0  0
    0.5990    0.2941   -0.0225 C   0  0  0  0  0  0  0  0  0  0  0  0
   -2.1032    0.9859    0.0176 C   0  0  0  0  0  0  0  0  0  0  0  0
    0.2231    1.6373   -0.0117 C   0  0  0  0  0  0  0  0  0  0  0  0
   -1.1280    1.9832    0.0082 C   0  0  0  0  0  0  0  0  0  0  0  0
   -2.7862   -1.4101    0.0169 C   0  0  0  0  0  0  0  0  0  0  0  0
    2.0158   -0.0429   -0.0435 C   0  0  0  0  0  0  0  0  0  0  0  0
  1  5  1  0
  2 11  2  0
  3 11  1  0
  4  5  2  0
  4  7  1  0
  4 10  1  0
  5  6  1  0
  6  8  2  0
  6 11  1  0
  7  9  2  0
  8  9  1  0
M  END
>  <PUBCHEM_COMPOUND_CID>  (1) 
26392

>  <PUBCHEM_CONFORMER_RMSD>  (1) 
0.4

>  <PUBCHEM_CONFORMER_DIVERSEORDER>  (1) 
2
3
1

>  <PUBCHEM_MMFF94_PARTIAL_CHARGES>  (1) 
17
1 -0.53
10 0.14
11 0.54
12 0.15
13 0.15
14 0.15
18 0.45
19 0.37
2 -0.57
20 0.37
3 -0.8
4 -0.14
5 0.08
6 0.09
7 -0.15
8 -0.15
9 -0.15

>  <PUBCHEM_EFFECTIVE_ROTOR_COUNT>  (1) 
1

>  <PUBCHEM_PHARMACOPHORE_FEATURES>  (1) 
4
1 1 donor
1 2 acceptor
1 3 donor
6 4 5 6 7 8 9 rings

>  <PUBCHEM_HEAVY_ATOM_COUNT>  (1) 
11

>  <PUBCHEM_ATOM_DEF_STEREO_COUNT>  (1) 
0

>  <PUBCHEM_ATOM_UDEF_STEREO_COUNT>  (1) 
0

>  <PUBCHEM_BOND_DEF_STEREO_COUNT>  (1) 
0

>  <PUBCHEM_BOND_UDEF_STEREO_COUNT>  (1) 
0

>  <PUBCHEM_ISOTOPIC_ATOM_COUNT>  (1) 
0

>  <PUBCHEM_COMPONENT_COUNT>  (1) 
1

>  <PUBCHEM_CACTVS_TAUTO_COUNT>  (1) 
7

>  <PUBCHEM_CONFORMER_ID>  (1) 
0000671800000002

>  <PUBCHEM_MMFF94_ENERGY>  (1) 
34.7749

>  <PUBCHEM_FEATURE_SELFOVERLAP>  (1) 
20.297

>  <PUBCHEM_SHAPE_FINGERPRINT>  (1) 
10857977 72 18342167895052009769
11206711 2 18408319995326529573
12524768 44 18126285487055440796
12716758 59 18198063573274983164
14128692 85 18337964509465144069
16945 1 18338798901462513605
193761 8 17906453229992560951
20645464 45 17917136239613034384
20871998 184 18272647965229470734
21040471 1 18050568447721796205
23552423 10 18115876195885533378
23559900 14 17912651203541777438
241688 4 18411138082230665785
2748010 2 18338791346725913773
29004967 10 16630526219791083784
369184 2 18270950272158118808
5084963 1 18131361820587609107

>  <PUBCHEM_SHAPE_MULTIPOLES>  (1) 
209.66
3.65
1.89
0.78
0.89
0.27
0.02
-0.93
0.07
-0.98
0
0.48
-0.03
-0.01

>  <PUBCHEM_SHAPE_SELFOVERLAP>  (1) 
440.741

>  <PUBCHEM_SHAPE_VOLUME>  (1) 
119.1

>  <PUBCHEM_COORDINATE_TYPE>  (1) 
2
5
10

$$$$
