26406
     RDKit          3D

 25 27  0  0  0  0  0  0  0  0999 V2000
    4.2933   -1.9203    1.0888 O   0  0  0  0  0  0  0  0  0  0  0  0
   -2.7555   -0.6222    1.3868 O   0  0  0  0  0  0  0  0  0  0  0  0
    2.9085   -1.4385   -1.9451 O   0  0  0  0  0  0  0  0  0  0  0  0
   -5.1105   -0.1826    0.0178 N   0  0  0  0  0  0  0  0  0  0  0  0
    4.4418    0.3625    0.6052 N   0  0  0  0  0  0  0  0  0  0  0  0
   -1.6955   -1.0846   -0.6565 N   0  0  0  0  0  0  0  0  0  0  0  0
   -7.1121    1.9470    0.0238 C   0  0  0  0  0  0  0  0  0  0  0  0
   -7.4963    0.4723   -0.0119 C   0  0  0  0  0  0  0  0  0  0  0  0
   -5.7364    2.1240    0.6567 C   0  0  0  0  0  0  0  0  0  0  0  0
   -6.3994   -0.3726   -0.6622 C   0  0  0  0  0  0  0  0  0  0  0  0
   -4.6955    1.2269   -0.0145 C   0  0  0  0  0  0  0  0  0  0  0  0
    5.8465    2.5128   -0.7129 C   0  0  0  0  0  0  0  0  0  0  0  0
    4.3750    2.2193   -1.0058 C   0  0  0  0  0  0  0  0  0  0  0  0
    6.5751    1.2553   -0.2377 C   0  0  0  0  0  0  0  0  0  0  0  0
    3.6948    1.5484    0.1850 C   0  0  0  0  0  0  0  0  0  0  0  0
    5.8499    0.6122    0.9412 C   0  0  0  0  0  0  0  0  0  0  0  0
   -4.0838   -1.0320   -0.5853 C   0  0  0  0  0  0  0  0  0  0  0  0
    3.7869   -0.8671    0.7050 C   0  0  0  0  0  0  0  0  0  0  0  0
   -2.7852   -0.8813    0.1879 C   0  0  0  0  0  0  0  0  0  0  0  0
    2.3673   -0.9276    0.3354 C   0  0  0  0  0  0  0  0  0  0  0  0
   -0.3215   -1.0318   -0.3210 C   0  0  0  0  0  0  0  0  0  0  0  0
    1.9796   -1.2108   -0.9743 C   0  0  0  0  0  0  0  0  0  0  0  0
    1.4008   -0.6968    1.3145 C   0  0  0  0  0  0  0  0  0  0  0  0
    0.6255   -1.2633   -1.3048 C   0  0  0  0  0  0  0  0  0  0  0  0
    0.0468   -0.7493    0.9838 C   0  0  0  0  0  0  0  0  0  0  0  0
  1 18  2  0
  2 19  2  0
  3 22  1  0
  4 10  1  0
  4 11  1  0
  4 17  1  0
  5 15  1  0
  5 16  1  0
  5 18  1  0
  6 19  1  0
  6 21  1  0
  7  8  1  0
  7  9  1  0
  8 10  1  0
  9 11  1  0
 12 13  1  0
 12 14  1  0
 13 15  1  0
 14 16  1  0
 17 19  1  0
 18 20  1  0
 20 22  2  0
 20 23  1  0
 21 24  2  0
 21 25  1  0
 22 24  1  0
 23 25  2  0
M  END
>  <PUBCHEM_COMPOUND_CID>  (1) 
26406

>  <PUBCHEM_CONFORMER_RMSD>  (1) 
1

>  <PUBCHEM_CONFORMER_DIVERSEORDER>  (1) 
1
21
13
6
18
22
9
11
20
16
14
5
7
2
15
19
12
17
10
4
8
3

>  <PUBCHEM_MMFF94_PARTIAL_CHARGES>  (1) 
24
1 -0.57
10 0.27
11 0.27
15 0.3
16 0.3
17 0.33
18 0.54
19 0.57
2 -0.57
20 0.09
21 0.12
22 0.08
23 -0.15
24 -0.15
25 -0.15
3 -0.53
4 -0.81
48 0.37
49 0.15
5 -0.66
50 0.15
51 0.15
52 0.45
6 -0.55

>  <PUBCHEM_EFFECTIVE_ROTOR_COUNT>  (1) 
8.4

>  <PUBCHEM_PHARMACOPHORE_FEATURES>  (1) 
8
1 1 acceptor
1 2 acceptor
1 3 donor
1 4 cation
1 6 donor
6 20 21 22 23 24 25 rings
6 4 7 8 9 10 11 rings
6 5 12 13 14 15 16 rings

>  <PUBCHEM_HEAVY_ATOM_COUNT>  (1) 
25

>  <PUBCHEM_ATOM_DEF_STEREO_COUNT>  (1) 
0

>  <PUBCHEM_ATOM_UDEF_STEREO_COUNT>  (1) 
0

>  <PUBCHEM_BOND_DEF_STEREO_COUNT>  (1) 
0

>  <PUBCHEM_BOND_UDEF_STEREO_COUNT>  (1) 
0

>  <PUBCHEM_ISOTOPIC_ATOM_COUNT>  (1) 
0

>  <PUBCHEM_COMPONENT_COUNT>  (1) 
1

>  <PUBCHEM_CACTVS_TAUTO_COUNT>  (1) 
17

>  <PUBCHEM_CONFORMER_ID>  (1) 
0000672600000001

>  <PUBCHEM_MMFF94_ENERGY>  (1) 
55.8197

>  <PUBCHEM_FEATURE_SELFOVERLAP>  (1) 
40.596

>  <PUBCHEM_SHAPE_FINGERPRINT>  (1) 
10 15 14707213231397165791
10319926 262 12035721038177345911
10554248 39 18058155151358298647
10591671 39 17846781840816107847
10595046 47 18410851071436931059
106641 1 13695587776396716132
10670039 82 17060352807285401168
10693767 8 13038917599001939108
10730089 47 9655578508598137077
10906281 52 18201169788698339139
11646440 116 15574711391557901965
11991303 11 16773789346722255685
125118 31 18337108978282685189
12596602 18 18040716966051248123
13167372 99 18410008806126087536
13533116 47 17677045729220510418
13668630 136 13470677162618922365
13685833 64 8070032163905193508
13785724 45 17906447732725495218
14251764 30 10231756673860948131
14347332 77 11311789349175535019
15183329 4 17775286058586646641
15419008 145 18042108891943602176
15961568 22 18411421704744343685
16989713 51 17273966030269151583
17134984 74 12679461989126731236
18335252 114 18343862225839487996
18335252 98 18131355241758580151
20157964 124 18408040702072113018
2026 5 11671520970919601420
20281389 69 18113898217965190757
21033648 29 17241606298787382304
21130935 74 17603303731135794147
21150785 3 13254794655115315402
21267235 1 12757142451564317674
21315764 268 18114739331074994437
21521239 73 12751240311331571540
21641784 216 16988854847444035481
21792934 111 16298381345706388317
22122407 14 18335711592802193753
221357 26 14189579641309615954
22224240 67 16588020230127975859
23559900 14 17702949114948290911
23569914 152 13394728198924567129
2838139 119 18341047514183826372
3103668 31 16484984007662778407
312425 54 16877943853795864859
33382 64 9799699198785633364
3472631 163 18409169926046045047
34797466 226 18131079225225788879
397830 11 17313960717835425049
4073 2 18113621217722586595
4325135 7 18409727361293392469
5104073 3 15503197987283177253
5718773 13 12246864611546990716
59682541 52 15554457262441015988
59755656 215 15267346223264416199
8272917 22 18335135406751056866

>  <PUBCHEM_SHAPE_MULTIPOLES>  (1) 
481.94
20.21
2.29
1.25
19.75
1.22
0.12
13.73
-0.04
-1.36
0.33
-0.94
-0.36
-1.28

>  <PUBCHEM_SHAPE_SELFOVERLAP>  (1) 
1007.987

>  <PUBCHEM_SHAPE_VOLUME>  (1) 
269.4

>  <PUBCHEM_COORDINATE_TYPE>  (1) 
2
5
10

$$$$
