2640
     RDKit          3D

 35 39  0  0  1  0  0  0  0  0999 V2000
   -0.6206   -2.1087   -2.3491 S   0  0  0  0  0  0  0  0  0  0  0  0
    4.7079    3.6038   -0.6234 S   0  0  0  0  0  0  0  0  0  0  0  0
    0.6698   -2.9596    2.0354 O   0  0  0  0  0  0  0  0  0  0  0  0
   -2.6814   -3.5350    1.8626 O   0  0  0  0  0  0  0  0  0  0  0  0
   -2.6577   -1.3965    2.6731 O   0  0  0  0  0  0  0  0  0  0  0  0
    3.2859   -1.0533   -2.2433 O   0  0  0  0  0  0  0  0  0  0  0  0
    6.7017    0.0428    0.2447 O   0  0  0  0  0  0  0  0  0  0  0  0
   -0.5773   -1.9603    0.3014 N   0  0  0  0  0  0  0  0  0  0  0  0
    2.5881   -1.4207   -0.0324 N   0  0  0  0  0  0  0  0  0  0  0  0
   -4.5682   -0.0084   -0.8622 N   0  0  0  0  0  0  0  0  0  0  0  0
   -4.9684    2.1089   -0.8235 N   0  0  0  0  0  0  0  0  0  0  0  0
   -5.1218    3.4519   -0.2649 N   0  0  0  0  0  0  0  0  0  0  0  0
    5.7114   -0.8209   -0.2437 N   0  0  0  0  0  0  0  0  0  0  0  0
    4.1575    1.7075    0.9646 N   0  0  0  0  0  0  0  0  0  0  0  0
    4.8900    2.0640   -1.2534 N   0  0  0  0  0  0  0  0  0  0  0  0
    3.8796    3.8746    1.9124 N   0  0  0  0  0  0  0  0  0  0  0  0
    0.1321   -1.4346   -0.8507 C   0  0  0  0  0  0  0  0  0  0  0  0
    1.3702   -2.1819   -0.3085 C   0  0  0  0  0  0  0  0  0  0  0  0
    0.5001   -2.4499    0.9525 C   0  0  0  0  0  0  0  0  0  0  0  0
   -1.9227   -1.8736    0.4634 C   0  0  0  0  0  0  0  0  0  0  0  0
   -2.7399   -1.5521   -0.5676 C   0  0  0  0  0  0  0  0  0  0  0  0
   -2.2488   -1.3616   -2.0010 C   0  0  0  0  0  0  0  0  0  0  0  0
   -4.2324   -1.3567   -0.4496 C   0  0  0  0  0  0  0  0  0  0  0  0
   -2.4574   -2.2080    1.7918 C   0  0  0  0  0  0  0  0  0  0  0  0
    3.4126   -0.9399   -1.0347 C   0  0  0  0  0  0  0  0  0  0  0  0
   -4.6269    1.0627   -0.0769 C   0  0  0  0  0  0  0  0  0  0  0  0
   -4.8847    0.3810   -2.1518 C   0  0  0  0  0  0  0  0  0  0  0  0
   -5.1392    1.7312   -2.1234 C   0  0  0  0  0  0  0  0  0  0  0  0
    4.6070   -0.1891   -0.5052 C   0  0  0  0  0  0  0  0  0  0  0  0
   -4.3734    1.2077    1.4223 C   0  0  0  0  0  0  0  0  0  0  0  0
   -4.5250    2.4907    1.9277 C   0  0  0  0  0  0  0  0  0  0  0  0
    4.5542    1.2568   -0.2665 C   0  0  0  0  0  0  0  0  0  0  0  0
   -4.8862    3.5312    1.0698 C   0  0  0  0  0  0  0  0  0  0  0  0
    4.1964    3.0206    0.9074 C   0  0  0  0  0  0  0  0  0  0  0  0
    7.8674   -0.7244    0.5030 C   0  0  0  0  0  0  0  0  0  0  0  0
  1 17  1  0
  1 22  1  0
  2 15  1  0
  2 34  1  0
  3 19  2  0
  4 24  1  0
  5 24  2  0
  6 25  2  0
  7 13  1  0
  7 35  1  0
  8 17  1  0
  8 19  1  0
  8 20  1  0
  9 18  1  0
  9 25  1  0
 10 23  1  0
 10 26  1  0
 10 27  1  0
 11 12  2  0
 11 26  1  0
 11 28  1  0
 12 33  1  0
 13 29  2  0
 14 32  1  0
 14 34  2  0
 15 32  2  0
 16 34  1  0
 17 18  1  0
 18 19  1  0
 20 21  2  0
 20 24  1  0
 21 22  1  0
 21 23  1  0
 25 29  1  0
 26 30  2  0
 27 28  2  0
 29 32  1  0
 30 31  1  0
 31 33  2  0
M  CHG  1  11   1
M  END
>  <PUBCHEM_COMPOUND_CID>  (1) 
2640

>  <PUBCHEM_CONFORMER_RMSD>  (1) 
1.2

>  <PUBCHEM_CONFORMER_DIVERSEORDER>  (1) 
1
35
23
210
530
134
442
38
497
57
267
419
189
114
130
413
412
340
296
169
457
397
293
330
428
155
280
290
37
434
478
483
126
494
254
124
226
390
345
375
86
450
165
279
21
516
294
455
123
116
181
528
52
367
373
208
513
395
135
28
232
391
9
411
88
49
304
138
90
415
250
78
33
337
272
348
132
188
466
17
70
50
119
459
387
529
425
87
125
355
233
91
45
97
317
512
274
178
143
303
173
10
199
421
258
93
436
96
435
31
338
297
32
153
102
405
25
18
339
236
15
73
408
247
186
309
493
48
53
46
127
365
7
386
83
41
253
14
389
381
149
341
13
288
5
115
168
12
94
6
107
403
106
308
490
71
19
58
3
42
2
29

>  <PUBCHEM_MMFF94_PARTIAL_CHARGES>  (1) 
44
1 -0.45
10 -0.76
11 -0.33
12 -0.23
13 -0.51
14 -0.57
15 -0.51
16 -0.88
17 0.44
18 0.28
19 0.58
2 0.18
20 0.12
21 -0.28
22 0.37
23 0.65
24 0.71
25 0.63
26 0.78
27 0.2
28 0.2
29 0.54
3 -0.57
30 -0.13
31 -0.15
32 0.43
33 0.16
34 0.46
35 0.28
4 -0.65
40 0.37
43 0.15
44 0.15
45 0.15
46 0.5
47 0.15
48 0.15
5 -0.57
52 0.4
53 0.4
6 -0.57
7 -0.22
8 -0.39
9 -0.65

>  <PUBCHEM_EFFECTIVE_ROTOR_COUNT>  (1) 
8.6

>  <PUBCHEM_PHARMACOPHORE_FEATURES>  (1) 
17
1 12 acceptor
1 13 acceptor
1 16 donor
1 3 acceptor
1 4 acceptor
1 5 acceptor
1 6 acceptor
1 9 donor
3 10 11 26 cation
3 14 15 32 cation
3 14 16 34 cation
3 4 5 24 anion
4 8 17 18 19 rings
5 10 11 26 27 28 rings
5 2 14 15 32 34 rings
6 1 8 17 20 21 22 rings
6 11 12 26 30 31 33 rings

>  <PUBCHEM_HEAVY_ATOM_COUNT>  (1) 
35

>  <PUBCHEM_ATOM_DEF_STEREO_COUNT>  (1) 
0

>  <PUBCHEM_ATOM_UDEF_STEREO_COUNT>  (1) 
2

>  <PUBCHEM_BOND_DEF_STEREO_COUNT>  (1) 
0

>  <PUBCHEM_BOND_UDEF_STEREO_COUNT>  (1) 
1

>  <PUBCHEM_ISOTOPIC_ATOM_COUNT>  (1) 
0

>  <PUBCHEM_COMPONENT_COUNT>  (1) 
1

>  <PUBCHEM_CACTVS_TAUTO_COUNT>  (1) 
6

>  <PUBCHEM_CONFORMER_ID>  (1) 
00000A5000000001

>  <PUBCHEM_MMFF94_ENERGY>  (1) 
86.3059

>  <PUBCHEM_FEATURE_SELFOVERLAP>  (1) 
86.932

>  <PUBCHEM_SHAPE_FINGERPRINT>  (1) 
10763959 59 18272097097894688182
12422481 6 16153709782328373007
12633257 1 16660363713857577758
14251764 38 18342182197330431300
14295345 954 17916589713920625230
14705955 166 17681836537979854602
14739800 52 18262786394306651883
14747282 140 15103528190604510257
15320291 9 18268147750111351577
16708801 149 18263067980731466404
19438510 23 18338518530434771203
21033648 29 18042676381697820014
21223535 225 18200593588538986980
21792965 106 18272363222875477080
22122407 14 18412829101065101810
25222932 49 7997963575410481600
27425 322 18125168126630272591
2838139 119 18272646848543144652
3552219 110 17917158320905358851
376196 1 18408042918275874274
4144715 1 18262529203449969194
484985 159 11170199804539987145
6086070 43 18340771455725508298

>  <PUBCHEM_SHAPE_MULTIPOLES>  (1) 
653.81
16.79
4.87
2.32
17.14
3.75
0.11
13.18
-1.02
-0.78
1.86
-2.43
-0.67
0.59

>  <PUBCHEM_SHAPE_SELFOVERLAP>  (1) 
1394.656

>  <PUBCHEM_SHAPE_VOLUME>  (1) 
367.1

>  <PUBCHEM_COORDINATE_TYPE>  (1) 
2
5
10

$$$$
