26403
     RDKit          3D

 12 12  0  0  1  0  0  0  0  0999 V2000
   -1.4009    2.0853    0.8670 O   0  0  0  0  0  0  0  0  0  0  0  0
   -2.7503    1.0211   -0.6119 O   0  0  0  0  0  0  0  0  0  0  0  0
   -2.0944   -2.4014   -0.5592 N   0  0  0  0  0  0  0  0  0  0  0  0
    0.4292   -0.1226    0.2392 C   0  0  0  0  0  0  0  0  0  0  0  0
   -1.0201   -0.2599    0.5641 C   0  0  0  0  0  0  0  0  0  0  0  0
    1.3879   -0.7059    1.0675 C   0  0  0  0  0  0  0  0  0  0  0  0
    0.8257    0.5895   -0.8927 C   0  0  0  0  0  0  0  0  0  0  0  0
    2.7433   -0.5771    0.7641 C   0  0  0  0  0  0  0  0  0  0  0  0
    2.1811    0.7182   -1.1963 C   0  0  0  0  0  0  0  0  0  0  0  0
    3.1398    0.1349   -0.3679 C   0  0  0  0  0  0  0  0  0  0  0  0
   -1.8251    0.9853    0.1893 C   0  0  0  0  0  0  0  0  0  0  0  0
   -1.6162   -1.4674   -0.0633 C   0  0  0  0  0  0  0  0  0  0  0  0
  1 11  1  0
  2 11  2  0
  3 12  3  0
  4  5  1  0
  4  6  2  0
  4  7  1  0
  5 11  1  0
  5 12  1  0
  6  8  1  0
  7  9  2  0
  8 10  2  0
  9 10  1  0
M  END
>  <PUBCHEM_COMPOUND_CID>  (1) 
26403

>  <PUBCHEM_CONFORMER_RMSD>  (1) 
0.6

>  <PUBCHEM_CONFORMER_DIVERSEORDER>  (1) 
1
4
2
5
6
3

>  <PUBCHEM_MMFF94_PARTIAL_CHARGES>  (1) 
18
1 -0.65
10 -0.15
11 0.66
12 0.36
14 0.15
15 0.15
16 0.15
17 0.15
18 0.15
19 0.5
2 -0.57
3 -0.56
4 -0.14
5 0.4
6 -0.15
7 -0.15
8 -0.15
9 -0.15

>  <PUBCHEM_EFFECTIVE_ROTOR_COUNT>  (1) 
2

>  <PUBCHEM_PHARMACOPHORE_FEATURES>  (1) 
5
1 1 acceptor
1 2 acceptor
1 3 acceptor
3 1 2 11 anion
6 4 6 7 8 9 10 rings

>  <PUBCHEM_HEAVY_ATOM_COUNT>  (1) 
12

>  <PUBCHEM_ATOM_DEF_STEREO_COUNT>  (1) 
0

>  <PUBCHEM_ATOM_UDEF_STEREO_COUNT>  (1) 
1

>  <PUBCHEM_BOND_DEF_STEREO_COUNT>  (1) 
0

>  <PUBCHEM_BOND_UDEF_STEREO_COUNT>  (1) 
0

>  <PUBCHEM_ISOTOPIC_ATOM_COUNT>  (1) 
0

>  <PUBCHEM_COMPONENT_COUNT>  (1) 
1

>  <PUBCHEM_CACTVS_TAUTO_COUNT>  (1) 
1

>  <PUBCHEM_CONFORMER_ID>  (1) 
0000672300000001

>  <PUBCHEM_MMFF94_ENERGY>  (1) 
25.0266

>  <PUBCHEM_FEATURE_SELFOVERLAP>  (1) 
25.431

>  <PUBCHEM_SHAPE_FINGERPRINT>  (1) 
12138202 97 18271523117695117335
12202030 40 17059797588109549838
12716758 59 18129952173803571258
12932764 1 18337965574785637064
14993402 34 18188768331959492821
15775835 57 18040443169774832156
15852999 172 17987795198667420311
15906896 17 18334307452577172835
16945 1 18343024354591307336
18534176 82 18060142037219595396
19837323 101 17985849058965356193
20653085 51 16081632466085244479
228727 97 17972898113143420022
23402539 116 18129931291852160269
23419403 2 16678303444460468096
23552423 10 18114463482304571862
23557571 272 17987521570859566880
305870 269 17836934390880653737
5084963 1 17822007670272267206
63268167 104 17749392533639741660
8030462 33 17968945313276158598

>  <PUBCHEM_SHAPE_MULTIPOLES>  (1) 
230.23
4.33
1.77
1.08
1.16
0.32
0.01
0.02
0.47
-1.59
0.07
0.29
-0.08
-0.85

>  <PUBCHEM_SHAPE_SELFOVERLAP>  (1) 
480.398

>  <PUBCHEM_SHAPE_VOLUME>  (1) 
128.1

>  <PUBCHEM_COORDINATE_TYPE>  (1) 
2
5
10

$$$$
