26415
     RDKit          3D

 19 19  0  0  0  0  0  0  0  0999 V2000
   -2.3449    1.3072   -0.2168 O   0  0  0  0  0  0  0  0  0  0  0  0
    3.1395   -2.4094   -0.1146 O   0  0  0  0  0  0  0  0  0  0  0  0
    4.4395    1.4708   -0.2586 O   0  0  0  0  0  0  0  0  0  0  0  0
    4.9493   -0.5386    0.7420 O   0  0  0  0  0  0  0  0  0  0  0  0
   -4.8811    0.1397    0.1628 N   0  0  0  0  0  0  0  0  0  0  0  0
   -1.3819   -0.8325   -0.3430 N   0  0  0  0  0  0  0  0  0  0  0  0
   -3.7506   -0.6127   -0.5243 C   0  0  0  0  0  0  0  0  0  0  0  0
   -4.9916    1.5384   -0.4269 C   0  0  0  0  0  0  0  0  0  0  0  0
   -6.1903   -0.6061   -0.0515 C   0  0  0  0  0  0  0  0  0  0  0  0
   -4.5918    0.2391    1.6536 C   0  0  0  0  0  0  0  0  0  0  0  0
   -2.4242    0.0895   -0.3408 C   0  0  0  0  0  0  0  0  0  0  0  0
    0.0013   -0.5707   -0.1984 C   0  0  0  0  0  0  0  0  0  0  0  0
    0.8975   -1.6263   -0.2271 C   0  0  0  0  0  0  0  0  0  0  0  0
    0.4296    0.7358   -0.0312 C   0  0  0  0  0  0  0  0  0  0  0  0
    2.2608   -1.3682   -0.0849 C   0  0  0  0  0  0  0  0  0  0  0  0
    2.7085   -0.0579    0.0841 C   0  0  0  0  0  0  0  0  0  0  0  0
    1.7929    0.9941    0.1110 C   0  0  0  0  0  0  0  0  0  0  0  0
    4.1274    0.2339    0.2341 C   0  0  0  0  0  0  0  0  0  0  0  0
    5.8103    1.8739   -0.1695 C   0  0  0  0  0  0  0  0  0  0  0  0
  1 11  2  0
  2 15  1  0
  3 18  1  0
  3 19  1  0
  4 18  2  0
  5  7  1  0
  5  8  1  0
  5  9  1  0
  5 10  1  0
  6 11  1  0
  6 12  1  0
  7 11  1  0
 12 13  2  0
 12 14  1  0
 13 15  1  0
 14 17  2  0
 15 16  2  0
 16 17  1  0
 16 18  1  0
M  CHG  1   5   1
M  END
>  <PUBCHEM_COMPOUND_CID>  (1) 
26415

>  <PUBCHEM_CONFORMER_RMSD>  (1) 
0.8

>  <PUBCHEM_CONFORMER_DIVERSEORDER>  (1) 
1
12
8
6
10
2
11
9
3
4
7
5

>  <PUBCHEM_MMFF94_PARTIAL_CHARGES>  (1) 
24
1 -0.57
10 0.5
11 0.57
12 0.12
13 -0.15
14 -0.15
15 0.08
16 0.09
17 -0.15
18 0.63
19 0.28
2 -0.53
3 -0.43
31 0.37
32 0.15
33 0.15
34 0.15
35 0.45
4 -0.57
5 -1.01
6 -0.55
7 0.56
8 0.5
9 0.5

>  <PUBCHEM_EFFECTIVE_ROTOR_COUNT>  (1) 
6

>  <PUBCHEM_PHARMACOPHORE_FEATURES>  (1) 
6
1 1 acceptor
1 2 donor
1 4 acceptor
1 5 cation
1 6 donor
6 12 13 14 15 16 17 rings

>  <PUBCHEM_HEAVY_ATOM_COUNT>  (1) 
19

>  <PUBCHEM_ATOM_DEF_STEREO_COUNT>  (1) 
0

>  <PUBCHEM_ATOM_UDEF_STEREO_COUNT>  (1) 
0

>  <PUBCHEM_BOND_DEF_STEREO_COUNT>  (1) 
0

>  <PUBCHEM_BOND_UDEF_STEREO_COUNT>  (1) 
0

>  <PUBCHEM_ISOTOPIC_ATOM_COUNT>  (1) 
0

>  <PUBCHEM_COMPONENT_COUNT>  (1) 
1

>  <PUBCHEM_CACTVS_TAUTO_COUNT>  (1) 
17

>  <PUBCHEM_CONFORMER_ID>  (1) 
0000672F00000001

>  <PUBCHEM_MMFF94_ENERGY>  (1) 
70.6142

>  <PUBCHEM_FEATURE_SELFOVERLAP>  (1) 
30.446

>  <PUBCHEM_SHAPE_FINGERPRINT>  (1) 
10 15 17968657228556094496
10354089 29 18202567284756204235
10912923 1 17988924444839134851
11089746 13 16988551412341321840
11287383 113 18113338621748185945
12107183 9 17622733020525866059
12236239 1 17917994971100341051
12507560 40 18334857169678105421
12644460 14 18408602548392967338
12916748 109 16989130855006108811
13631057 29 18128531772902108999
13955234 65 18410852132367804130
14123238 8 18272651251285477899
14251732 16 18335421326454143619
14251764 18 18336258012253927042
14341114 176 18261116265844606945
14790565 3 18267307719280325508
15183329 4 11239730660052516461
15188451 53 15719962453135105211
15196674 1 18339359669756918141
15242439 84 11743839166471256141
15475509 35 16081912760668298224
1601671 61 18342455954572482480
17834072 33 18273210924105070959
17844677 252 18337114462501955893
18222031 100 11746929868208910042
18785283 64 17605569948584947052
19489759 90 16732698338450982709
19784866 9 18410570682791131650
200 152 18201432559234770197
20281389 69 18411133662619842112
20645477 70 18341331080772817079
21065198 48 18130793322158836371
21267235 1 18340209596740941126
212847 35 18343578560539985768
23402539 116 18186514406685485735
23402655 69 18201433662566709285
23557571 272 17023179375358568308
23559900 14 18266454296071863954
239999 70 18341052909174667670
26918003 58 17821730537897805099
2916195 48 18186798097517512105
293599 30 18342176717489926524
300161 21 18060410309820357007
32948 21 11887680558676748491
335352 9 18411700998515373854
34797466 226 15195284282756728848
3545911 37 18413389851858091503
4073 2 18114467829360478883
42630746 31 18413388722529885478
42788 4 18408602565314165397
4340502 62 17022897969755390538
449060 50 18335420175007159118
5104073 3 18261676957067380337
542803 24 17275106132709083561
59682541 35 18337115687306016683
602551 16 16081662174162742347
7495541 125 14129068040112027005
77779 3 18411136896956640551
8272917 22 18342459210205321854
90127 26 18261682458936115219

>  <PUBCHEM_SHAPE_MULTIPOLES>  (1) 
357.57
14.04
1.78
0.82
5.33
0.23
0.25
-4.24
1.18
-1.76
-0.2
0.71
-0.04
-0.17

>  <PUBCHEM_SHAPE_SELFOVERLAP>  (1) 
732.857

>  <PUBCHEM_SHAPE_VOLUME>  (1) 
208.4

>  <PUBCHEM_COORDINATE_TYPE>  (1) 
2
5
10

$$$$
