26410
     RDKit          3D

 27 29  0  0  0  0  0  0  0  0999 V2000
    4.5393   -2.1962    0.5933 O   0  0  0  0  0  0  0  0  0  0  0  0
   -2.2453    1.1374    0.6005 O   0  0  0  0  0  0  0  0  0  0  0  0
    2.5368   -3.2458   -0.7987 O   0  0  0  0  0  0  0  0  0  0  0  0
   -4.8506    0.8061    0.0369 N   0  0  0  0  0  0  0  0  0  0  0  0
    4.6117    0.1166    0.4423 N   0  0  0  0  0  0  0  0  0  0  0  0
   -1.6401   -0.9418   -0.3183 N   0  0  0  0  0  0  0  0  0  0  0  0
   -6.2161    0.4950   -0.3106 C   0  0  0  0  0  0  0  0  0  0  0  0
   -7.0389    1.7777   -0.4537 C   0  0  0  0  0  0  0  0  0  0  0  0
   -6.8354   -0.4521    0.7206 C   0  0  0  0  0  0  0  0  0  0  0  0
    6.0422    0.2510    0.6063 C   0  0  0  0  0  0  0  0  0  0  0  0
   -8.5015    1.4756   -0.7696 C   0  0  0  0  0  0  0  0  0  0  0  0
   -8.2978   -0.7517    0.4016 C   0  0  0  0  0  0  0  0  0  0  0  0
   -9.1157    0.5285    0.2573 C   0  0  0  0  0  0  0  0  0  0  0  0
    6.3941    1.5586    1.3237 C   0  0  0  0  0  0  0  0  0  0  0  0
    6.7634    0.1455   -0.7416 C   0  0  0  0  0  0  0  0  0  0  0  0
    6.1745    2.7874    0.4413 C   0  0  0  0  0  0  0  0  0  0  0  0
    6.5433    1.3766   -1.6207 C   0  0  0  0  0  0  0  0  0  0  0  0
    6.9109    2.6640   -0.8891 C   0  0  0  0  0  0  0  0  0  0  0  0
   -3.9553   -0.2752   -0.3492 C   0  0  0  0  0  0  0  0  0  0  0  0
    3.9751   -1.1147    0.4502 C   0  0  0  0  0  0  0  0  0  0  0  0
   -2.5320    0.0836    0.0416 C   0  0  0  0  0  0  0  0  0  0  0  0
    2.5043   -1.0852    0.2428 C   0  0  0  0  0  0  0  0  0  0  0  0
   -0.2586   -0.9901   -0.1308 C   0  0  0  0  0  0  0  0  0  0  0  0
    1.8467   -2.1503   -0.3727 C   0  0  0  0  0  0  0  0  0  0  0  0
    1.7806    0.0275    0.6714 C   0  0  0  0  0  0  0  0  0  0  0  0
    0.4653   -2.1028   -0.5593 C   0  0  0  0  0  0  0  0  0  0  0  0
    0.3991    0.0750    0.4846 C   0  0  0  0  0  0  0  0  0  0  0  0
  1 20  2  0
  2 21  2  0
  3 24  1  0
  4  7  1  0
  4 19  1  0
  5 10  1  0
  5 20  1  0
  6 21  1  0
  6 23  1  0
  7  8  1  0
  7  9  1  0
  8 11  1  0
  9 12  1  0
 10 14  1  0
 10 15  1  0
 11 13  1  0
 12 13  1  0
 14 16  1  0
 15 17  1  0
 16 18  1  0
 17 18  1  0
 19 21  1  0
 20 22  1  0
 22 24  2  0
 22 25  1  0
 23 26  2  0
 23 27  1  0
 24 26  1  0
 25 27  2  0
M  END
>  <PUBCHEM_COMPOUND_CID>  (1) 
26410

>  <PUBCHEM_CONFORMER_RMSD>  (1) 
1

>  <PUBCHEM_CONFORMER_DIVERSEORDER>  (1) 
1
45
44
57
62
55
66
46
67
88
70
69
51
42
92
27
6
80
73
64
30
23
93
43
89
77
94
58
72
7
24
38
81
34
26
60
53
12
63
86
82
59
54
74
40
29
83
56
22
28
41
11
4
19
37
33
79
17
85
18
49
36
90
76
15
68
13
35
14
50
5
20
52
48
16
91
10
71
61
87
78
39
32
21
84
25
8
65
2
3
9
75
47
31

>  <PUBCHEM_MMFF94_PARTIAL_CHARGES>  (1) 
24
1 -0.57
10 0.3
19 0.33
2 -0.57
20 0.54
21 0.57
22 0.09
23 0.12
24 0.08
25 -0.15
26 -0.15
27 -0.15
3 -0.53
4 -0.9
5 -0.73
50 0.36
51 0.37
54 0.37
55 0.15
56 0.15
57 0.15
58 0.45
6 -0.55
7 0.27

>  <PUBCHEM_EFFECTIVE_ROTOR_COUNT>  (1) 
10.4

>  <PUBCHEM_PHARMACOPHORE_FEATURES>  (1) 
10
1 1 acceptor
1 2 acceptor
1 3 donor
1 4 cation
1 4 donor
1 5 donor
1 6 donor
6 10 14 15 16 17 18 rings
6 22 23 24 25 26 27 rings
6 7 8 9 11 12 13 rings

>  <PUBCHEM_HEAVY_ATOM_COUNT>  (1) 
27

>  <PUBCHEM_ATOM_DEF_STEREO_COUNT>  (1) 
0

>  <PUBCHEM_ATOM_UDEF_STEREO_COUNT>  (1) 
0

>  <PUBCHEM_BOND_DEF_STEREO_COUNT>  (1) 
0

>  <PUBCHEM_BOND_UDEF_STEREO_COUNT>  (1) 
0

>  <PUBCHEM_ISOTOPIC_ATOM_COUNT>  (1) 
0

>  <PUBCHEM_COMPONENT_COUNT>  (1) 
1

>  <PUBCHEM_CACTVS_TAUTO_COUNT>  (1) 
30

>  <PUBCHEM_CONFORMER_ID>  (1) 
0000672A00000001

>  <PUBCHEM_MMFF94_ENERGY>  (1) 
44.8524

>  <PUBCHEM_FEATURE_SELFOVERLAP>  (1) 
50.747

>  <PUBCHEM_SHAPE_FINGERPRINT>  (1) 
10 15 18333730217725996635
10066227 49 9943532911996107077
10411042 1 17765434250093589878
10673678 19 18411986896775480188
11181472 205 17702955704282262617
11578821 258 18260264140878066517
11638347 137 16226041172399896768
11973864 47 18118690065733308560
125118 31 18259983743146251453
12539765 74 18273220776660400023
12592606 108 9295294945039843709
12664476 115 17967532359926368564
13617811 41 15985106306170873376
13914758 101 10375881779174500367
14142895 15 18410292549504640767
14216079 64 9439406825990842609
14251757 52 18407757045146579416
14251764 18 18040714784018106613
14537116 161 17346319315034727904
1454969 45 18343584040670445857
14565420 104 18040431079816733090
14849402 71 18411139177759121129
14918687 75 18059293284519377479
15419008 91 17822561717370563925
15461852 350 17704065227815902677
1577012 14 18272360988848339327
15840311 113 18187368740326950004
16120349 18 18410006641773832597
1754908 1 16008753511461102089
1754911 235 18202281407744262917
17686467 74 17749391508013054517
17899979 19 18410016554843883601
20567600 234 17095524015541907926
21049683 271 18343581867760399193
22224240 67 16877661262475985475
28498 318 9799695896198350081
3418910 222 18409740552019634641
34797466 226 17917716777209671662
3711267 37 17989211451538986457
4073 2 18334297570206117011
4112364 45 17749679605069635940
4169191 19 18413389813826248337
4340502 62 17022616473320025058
437795 160 16153434974264233705
444735 82 18333733502817211821
45377200 153 15482097393527426543
4625314 4 18409449159150534551
49967989 163 16270778192116578327
54583773 228 18339076112322631583
5758199 1 18411982464443259227
59682541 35 18260270772353887435
59682541 52 16271937008605420652
60111433 81 18053382382406459700
636775 72 18261951827340113509

>  <PUBCHEM_SHAPE_MULTIPOLES>  (1) 
523.1
28.97
2.62
1.02
41.55
0.3
-0.09
-18.53
-1.19
-4.46
-0.5
-1.29
-0.25
0.38

>  <PUBCHEM_SHAPE_SELFOVERLAP>  (1) 
1085.237

>  <PUBCHEM_SHAPE_VOLUME>  (1) 
293.1

>  <PUBCHEM_COORDINATE_TYPE>  (1) 
2
5
10

$$$$
