26428
     RDKit          3D

 11 10  0  0  0  0  0  0  0  0999 V2000
   -0.7794    0.1049    0.1642 O   0  0  0  0  0  0  0  0  0  0  0  0
    0.2941   -1.8702   -0.3700 O   0  0  0  0  0  0  0  0  0  0  0  0
    4.8862    0.9894    0.1676 N   0  0  0  0  0  0  0  0  0  0  0  0
   -3.1627    0.4725    0.3460 C   0  0  0  0  0  0  0  0  0  0  0  0
   -2.0453   -0.5324    0.0526 C   0  0  0  0  0  0  0  0  0  0  0  0
   -3.1413    1.6357   -0.6479 C   0  0  0  0  0  0  0  0  0  0  0  0
   -4.5229   -0.2213    0.3219 C   0  0  0  0  0  0  0  0  0  0  0  0
    0.3070   -0.6858   -0.0745 C   0  0  0  0  0  0  0  0  0  0  0  0
    1.5209    0.1446    0.0867 C   0  0  0  0  0  0  0  0  0  0  0  0
    2.7284   -0.4029   -0.0964 C   0  0  0  0  0  0  0  0  0  0  0  0
    3.9150    0.3654    0.0497 C   0  0  0  0  0  0  0  0  0  0  0  0
  1  5  1  0
  1  8  1  0
  2  8  2  0
  3 11  3  0
  4  5  1  0
  4  6  1  0
  4  7  1  0
  8  9  1  0
  9 10  2  0
 10 11  1  0
M  END
>  <PUBCHEM_COMPOUND_CID>  (1) 
26428

>  <PUBCHEM_CONFORMER_RMSD>  (1) 
0.6

>  <PUBCHEM_CONFORMER_DIVERSEORDER>  (1) 
1
11
2
13
5
8
9
7
10
4
12
6
3

>  <PUBCHEM_MMFF94_PARTIAL_CHARGES>  (1) 
10
1 -0.43
10 -0.09
11 0.49
2 -0.57
21 0.15
22 0.15
3 -0.56
5 0.28
8 0.71
9 -0.14

>  <PUBCHEM_EFFECTIVE_ROTOR_COUNT>  (1) 
4

>  <PUBCHEM_PHARMACOPHORE_FEATURES>  (1) 
3
1 2 acceptor
1 3 acceptor
3 4 6 7 hydrophobe

>  <PUBCHEM_HEAVY_ATOM_COUNT>  (1) 
11

>  <PUBCHEM_ATOM_DEF_STEREO_COUNT>  (1) 
0

>  <PUBCHEM_ATOM_UDEF_STEREO_COUNT>  (1) 
0

>  <PUBCHEM_BOND_DEF_STEREO_COUNT>  (1) 
0

>  <PUBCHEM_BOND_UDEF_STEREO_COUNT>  (1) 
1

>  <PUBCHEM_ISOTOPIC_ATOM_COUNT>  (1) 
0

>  <PUBCHEM_COMPONENT_COUNT>  (1) 
1

>  <PUBCHEM_CACTVS_TAUTO_COUNT>  (1) 
1

>  <PUBCHEM_CONFORMER_ID>  (1) 
0000673C00000001

>  <PUBCHEM_MMFF94_ENERGY>  (1) 
12.403

>  <PUBCHEM_FEATURE_SELFOVERLAP>  (1) 
15.223

>  <PUBCHEM_SHAPE_FINGERPRINT>  (1) 
11062470 55 17917994983853335208
11543360 7 14548726344294100176
12346645 44 18411136905114077923
124424 183 8646768885459325219
12932764 1 14979381851981334907
13081056 2 18412547604508163532
14123238 8 18411701006081765769
14252887 29 13190334643924228000
14325111 11 18411138013252628430
15501527 16 18341049709560785736
170605 34 18410576145588975626
18186145 218 17989210334830897760
20211469 26 11746933187485458814
20281407 28 10592041353741395230
20432913 95 13695582239662002456
20645477 56 18270963552592519856
20645477 70 17489035864195564670
21119208 17 14836121056900849593
21293036 1 17846499235666827946
21499 59 18272929410152063822
22485316 2 9583515404312464060
23402539 116 17894907464858977767
23402655 69 18059569140744590693
366044 4 18342739637088666682
449060 50 18411703187925100246
81539 233 18271808986687460278

>  <PUBCHEM_SHAPE_MULTIPOLES>  (1) 
209.66
9.25
1.3
0.67
3.25
0.01
0.02
-3.2
-0.81
-0.35
0.24
-0.19
-0.04
0.42

>  <PUBCHEM_SHAPE_SELFOVERLAP>  (1) 
396.657

>  <PUBCHEM_SHAPE_VOLUME>  (1) 
127.6

>  <PUBCHEM_COORDINATE_TYPE>  (1) 
2
5
10

$$$$
