26426
     RDKit          3D

 30 32  0  0  1  0  0  0  0  0999 V2000
   -3.0712   -2.2744    2.2600 O   0  0  0  0  0  0  0  0  0  0  0  0
   -1.1328   -2.6764    0.4465 O   0  0  0  0  0  0  0  0  0  0  0  0
   -1.7314    3.2590    0.0817 N   0  0  0  0  0  0  0  0  0  0  0  0
   -0.8322   -0.3790    0.1140 N   0  0  0  0  0  0  0  0  0  0  0  0
   -1.0689    2.0426    0.5343 C   0  0  0  0  0  0  0  0  0  0  0  0
   -1.5111    0.8550   -0.3079 C   0  0  0  0  0  0  0  0  0  0  0  0
   -1.0895    3.7769   -1.1283 C   0  0  0  0  0  0  0  0  0  0  0  0
   -1.7209    4.2756    1.1356 C   0  0  0  0  0  0  0  0  0  0  0  0
    0.6148   -0.4324    0.0473 C   0  0  0  0  0  0  0  0  0  0  0  0
   -1.5287   -1.5132    0.5808 C   0  0  0  0  0  0  0  0  0  0  0  0
   -2.8837   -1.2794    1.2572 C   0  0  0  0  0  0  0  0  0  0  0  0
   -1.8118    5.0079   -1.6490 C   0  0  0  0  0  0  0  0  0  0  0  0
   -0.3012    4.6848    1.4896 C   0  0  0  0  0  0  0  0  0  0  0  0
    1.3256   -1.2254    0.9480 C   0  0  0  0  0  0  0  0  0  0  0  0
    1.2962    0.3095   -0.9176 C   0  0  0  0  0  0  0  0  0  0  0  0
   -4.0518   -1.3975    0.3049 C   0  0  0  0  0  0  0  0  0  0  0  0
    3.3996   -0.5351   -0.0811 C   0  0  0  0  0  0  0  0  0  0  0  0
    2.7180   -1.2768    0.8837 C   0  0  0  0  0  0  0  0  0  0  0  0
    2.6887    0.2582   -0.9819 C   0  0  0  0  0  0  0  0  0  0  0  0
    4.8438   -0.5885   -0.1477 C   0  0  0  0  0  0  0  0  0  0  0  0
   -5.2105   -0.6532    0.5265 C   0  0  0  0  0  0  0  0  0  0  0  0
   -3.9709   -2.2506   -0.7959 C   0  0  0  0  0  0  0  0  0  0  0  0
   -6.2882   -0.7618   -0.3522 C   0  0  0  0  0  0  0  0  0  0  0  0
   -5.0487   -2.3592   -1.6747 C   0  0  0  0  0  0  0  0  0  0  0  0
    5.6097    0.3173    0.5863 C   0  0  0  0  0  0  0  0  0  0  0  0
    5.4705   -1.5460   -0.9454 C   0  0  0  0  0  0  0  0  0  0  0  0
   -6.2074   -1.6148   -1.4527 C   0  0  0  0  0  0  0  0  0  0  0  0
    7.0022    0.2659    0.5225 C   0  0  0  0  0  0  0  0  0  0  0  0
    6.8630   -1.5974   -1.0091 C   0  0  0  0  0  0  0  0  0  0  0  0
    7.6287   -0.6915   -0.2751 C   0  0  0  0  0  0  0  0  0  0  0  0
  1 11  1  0
  2 10  2  0
  3  5  1  0
  3  7  1  0
  3  8  1  0
  4  6  1  0
  4  9  1  0
  4 10  1  0
  5  6  1  0
  7 12  1  0
  8 13  1  0
  9 14  2  0
  9 15  1  0
 10 11  1  0
 11 16  1  0
 14 18  1  0
 15 19  2  0
 16 21  2  0
 16 22  1  0
 17 18  2  0
 17 19  1  0
 17 20  1  0
 20 25  2  0
 20 26  1  0
 21 23  1  0
 22 24  2  0
 23 27  2  0
 24 27  1  0
 25 28  1  0
 26 29  2  0
 28 30  2  0
 29 30  1  0
M  END
>  <PUBCHEM_COMPOUND_CID>  (1) 
26426

>  <PUBCHEM_CONFORMER_RMSD>  (1) 
1

>  <PUBCHEM_CONFORMER_DIVERSEORDER>  (1) 
1
27
64
141
115
43
83
105
59
120
125
73
92
63
51
129
159
80
150
132
79
82
145
89
149
151
158
106
74
99
119
38
121
54
139
130
118
110
100
57
25
34
68
72
32
108
77
155
111
71
116
112
70
142
123
6
114
154
131
96
28
103
81
95
146
12
93
102
135
56
128
23
122
143
75
37
9
86
157
78
140
148
4
20
60
113
40
109
58
133
87
144
11
153
7
52
50
2
36
44
41
35
46
15
147
30
76
65
55
137
98
53
69
107
138
48
16
14
97
39
21
47
117
90
126
10
3
22
33
62
5
94
66
31
136
104
42
13
127
85
67
156
19
152
24
8
29
88
124
18
91
45
101
84
49
17
61
134
26

>  <PUBCHEM_MMFF94_PARTIAL_CHARGES>  (1) 
41
1 -0.68
10 0.57
11 0.48
14 -0.15
15 -0.15
16 -0.14
18 -0.15
19 -0.15
2 -0.57
21 -0.15
22 -0.15
23 -0.15
24 -0.15
25 -0.15
26 -0.15
27 -0.15
28 -0.15
29 -0.15
3 -0.81
30 -0.15
4 -0.48
46 0.15
47 0.15
48 0.15
49 0.15
5 0.27
50 0.15
51 0.15
52 0.4
53 0.15
54 0.15
55 0.15
56 0.15
57 0.15
58 0.15
59 0.15
6 0.3
60 0.15
7 0.27
8 0.27
9 0.12

>  <PUBCHEM_EFFECTIVE_ROTOR_COUNT>  (1) 
10

>  <PUBCHEM_PHARMACOPHORE_FEATURES>  (1) 
7
1 1 acceptor
1 1 donor
1 2 acceptor
1 3 cation
6 16 21 22 23 24 27 rings
6 20 25 26 28 29 30 rings
6 9 14 15 17 18 19 rings

>  <PUBCHEM_HEAVY_ATOM_COUNT>  (1) 
30

>  <PUBCHEM_ATOM_DEF_STEREO_COUNT>  (1) 
0

>  <PUBCHEM_ATOM_UDEF_STEREO_COUNT>  (1) 
1

>  <PUBCHEM_BOND_DEF_STEREO_COUNT>  (1) 
0

>  <PUBCHEM_BOND_UDEF_STEREO_COUNT>  (1) 
0

>  <PUBCHEM_ISOTOPIC_ATOM_COUNT>  (1) 
0

>  <PUBCHEM_COMPONENT_COUNT>  (1) 
1

>  <PUBCHEM_CACTVS_TAUTO_COUNT>  (1) 
1

>  <PUBCHEM_CONFORMER_ID>  (1) 
0000673A00000001

>  <PUBCHEM_MMFF94_ENERGY>  (1) 
97.5781

>  <PUBCHEM_FEATURE_SELFOVERLAP>  (1) 
35.529

>  <PUBCHEM_SHAPE_FINGERPRINT>  (1) 
102385 1 17906169551645484115
10930396 42 18194655259681867056
11331351 85 18059864978160504457
11445158 3 16200143352771104368
11607047 74 17196269152634408203
12107698 1 18411981369342357420
12160290 23 18049188595537542293
12440605 4 17973167223120659715
12516196 113 18340767134439574459
12788726 201 18261948553482198931
12977781 61 17415013348194004462
13540713 4 17682392904281875315
13540713 5 17825096005388522314
13782708 43 17917716773506139190
14068700 675 18334009514700711892
14118638 360 18260549979762432522
14294032 229 18192153689897658569
14347332 77 18341328877903045286
14394314 77 18410859824659343513
14508225 48 18408884061792502349
14556957 393 18114476603503801212
15183329 4 17095517409376356542
15198563 99 18335699403959314909
15439362 3 17978221992223719277
16087824 20 18264487296710851117
16993089 31 16486151509096966926
17844677 252 18411709764622518464
17980427 23 17560254634072147945
18681886 176 18199739409706983715
21236236 1 18339646646133067385
21304303 172 18202567263956958401
2132832 1 18113626698512189660
21424621 283 11314297335072125806
21583282 1 17983011443151478084
22122407 14 14490486270255066694
23559900 14 17969222411565007086
23929065 36 18339346479812638832
255183 313 18054532235070735793
266924 87 18263919939308360215
27425 322 17406836185497721645
283562 15 18337108964864656867
497634 4 17632865200358830298
5171179 24 18200017564969341441
5969126 39 18342453737968333957
59755656 215 18334012783450931058
6004065 56 18197492037840718999
7226269 152 18187362121497425235

>  <PUBCHEM_SHAPE_MULTIPOLES>  (1) 
595.69
16.64
5.14
1.49
21.01
10.76
0.04
-13.53
-4.09
-6.57
-0.23
-1.21
0.24
0.27

>  <PUBCHEM_SHAPE_SELFOVERLAP>  (1) 
1263.473

>  <PUBCHEM_SHAPE_VOLUME>  (1) 
333.7

>  <PUBCHEM_COORDINATE_TYPE>  (1) 
2
5
10

$$$$
