26422
     RDKit          3D

 15 15  0  0  0  0  0  0  0  0999 V2000
    2.4145   -1.6184    0.0015 O   0  0  0  0  0  0  0  0  0  0  0  0
   -2.5698   -1.7178    0.0835 O   0  0  0  0  0  0  0  0  0  0  0  0
   -3.3302    0.9528   -0.0302 O   0  0  0  0  0  0  0  0  0  0  0  0
    3.1635    0.6671   -0.1343 C   0  0  0  0  0  0  0  0  0  0  0  0
    2.1028   -0.4298   -0.0618 C   0  0  0  0  0  0  0  0  0  0  0  0
    0.6554   -0.0652   -0.0526 C   0  0  0  0  0  0  0  0  0  0  0  0
    3.5669    1.0874    1.2756 C   0  0  0  0  0  0  0  0  0  0  0  0
    4.3818    0.1683   -0.9130 C   0  0  0  0  0  0  0  0  0  0  0  0
   -0.2784   -1.0739    0.0127 C   0  0  0  0  0  0  0  0  0  0  0  0
    0.3109    1.2659   -0.1105 C   0  0  0  0  0  0  0  0  0  0  0  0
   -1.6309   -0.7329    0.0206 C   0  0  0  0  0  0  0  0  0  0  0  0
   -2.0124    0.6075   -0.0371 C   0  0  0  0  0  0  0  0  0  0  0  0
   -1.0415    1.6068   -0.1026 C   0  0  0  0  0  0  0  0  0  0  0  0
   -2.0964   -3.0620    0.1399 C   0  0  0  0  0  0  0  0  0  0  0  0
   -3.6360    2.3445   -0.0917 C   0  0  0  0  0  0  0  0  0  0  0  0
  1  5  2  0
  2 11  1  0
  2 14  1  0
  3 12  1  0
  3 15  1  0
  4  5  1  0
  4  7  1  0
  4  8  1  0
  5  6  1  0
  6  9  2  0
  6 10  1  0
  9 11  1  0
 10 13  2  0
 11 12  2  0
 12 13  1  0
M  END
>  <PUBCHEM_COMPOUND_CID>  (1) 
26422

>  <PUBCHEM_CONFORMER_RMSD>  (1) 
0.6

>  <PUBCHEM_CONFORMER_DIVERSEORDER>  (1) 
35
32
18
33
40
19
3
38
30
14
34
6
39
31
13
37
36
29
24
12
25
20
16
22
21
7
2
27
5
10
15
23
17
8
28
4
11
1
26
9

>  <PUBCHEM_MMFF94_PARTIAL_CHARGES>  (1) 
16
1 -0.57
10 -0.15
11 0.08
12 0.08
13 -0.15
14 0.28
15 0.28
2 -0.36
23 0.15
24 0.15
25 0.15
3 -0.36
4 0.06
5 0.42
6 0.09
9 -0.15

>  <PUBCHEM_EFFECTIVE_ROTOR_COUNT>  (1) 
4

>  <PUBCHEM_PHARMACOPHORE_FEATURES>  (1) 
5
1 1 acceptor
1 2 acceptor
1 3 acceptor
3 4 7 8 hydrophobe
6 6 9 10 11 12 13 rings

>  <PUBCHEM_HEAVY_ATOM_COUNT>  (1) 
15

>  <PUBCHEM_ATOM_DEF_STEREO_COUNT>  (1) 
0

>  <PUBCHEM_ATOM_UDEF_STEREO_COUNT>  (1) 
0

>  <PUBCHEM_BOND_DEF_STEREO_COUNT>  (1) 
0

>  <PUBCHEM_BOND_UDEF_STEREO_COUNT>  (1) 
0

>  <PUBCHEM_ISOTOPIC_ATOM_COUNT>  (1) 
0

>  <PUBCHEM_COMPONENT_COUNT>  (1) 
1

>  <PUBCHEM_CACTVS_TAUTO_COUNT>  (1) 
2

>  <PUBCHEM_CONFORMER_ID>  (1) 
0000673600000023

>  <PUBCHEM_MMFF94_ENERGY>  (1) 
58.736

>  <PUBCHEM_FEATURE_SELFOVERLAP>  (1) 
25.376

>  <PUBCHEM_SHAPE_FINGERPRINT>  (1) 
10608611 8 18342453768344549112
10967382 1 18338235938349585021
11132069 177 18409726283509763336
11543360 7 16199849727084097085
12173636 292 18338229354544899053
12382932 28 18412259553804478720
12500047 106 18410854335005109308
12553582 1 18048605012223854699
12932764 1 17775283910876001918
13140716 1 18336540500062769658
13214271 11 18270954752088654812
13296908 3 18130228254564998366
13380535 21 18411143506668767822
13380535 76 18341610361173765423
14178342 30 18335408106428710258
14897335 6 18410006598549645085
15219456 202 18059573628885058216
15669948 3 18407755945534594746
15775835 57 18334299721324718764
16945 1 18337390542767445629
1741750 31 18341330002909605313
18175812 5 18201720669588014684
18186145 218 18196935474398113381
193761 8 18121782991699259301
20510252 161 18271247238955194433
20528008 55 18341608183456710004
20602899 9 15769769152677753199
20645476 183 18115043925691594663
20645477 56 18410013217242207561
20715346 28 17917149511019754728
20871998 184 18200879585973874431
21501502 16 18408879616538183002
21524375 3 18055066558771242173
22943178 12 18131070476271839912
23557571 272 18270974525912182118
23559900 14 18342177735713440030
2748010 2 18412271622546815215
3071541 12 17474672750517510429
3312278 4 18411986870720690352
495365 180 17488444322422859008
5104073 3 18411980278389016506
6049 1 17988086711357105008
6333449 129 18412824698354247789
633830 44 17912926085142243389
69090 78 18337948996259366709
7364860 26 18197775497519575138
77492 1 17458339775743146096
81228 2 18261954167136277779
9709674 26 18343303656367606294

>  <PUBCHEM_SHAPE_MULTIPOLES>  (1) 
291.09
6.9
2.55
0.78
3.86
1.23
-0.09
-2.02
0.24
-3.06
-0.13
0.68
-0.13
0.45

>  <PUBCHEM_SHAPE_SELFOVERLAP>  (1) 
598.463

>  <PUBCHEM_SHAPE_VOLUME>  (1) 
169.5

>  <PUBCHEM_COORDINATE_TYPE>  (1) 
2
5
10

$$$$
