26423
     RDKit          3D

 18 19  0  0  0  0  0  0  0  0999 V2000
   -4.5503   -2.4403   -0.0643 Cl  0  0  0  0  0  0  0  0  0  0  0  0
    4.5494   -2.4404    0.0645 Cl  0  0  0  0  0  0  0  0  0  0  0  0
   -6.1517    0.3633   -0.2952 Cl  0  0  0  0  0  0  0  0  0  0  0  0
    6.1508    0.3632    0.2960 Cl  0  0  0  0  0  0  0  0  0  0  0  0
   -0.2971    0.2964    0.5515 N   0  0  0  0  0  0  0  0  0  0  0  0
    0.2964    0.2965   -0.5527 N   0  0  0  0  0  0  0  0  0  0  0  0
   -1.6809    0.2966    0.3510 C   0  0  0  0  0  0  0  0  0  0  0  0
    1.6872    0.2966   -0.3505 C   0  0  0  0  0  0  0  0  0  0  0  0
   -2.3713   -0.9113    0.2510 C   0  0  0  0  0  0  0  0  0  0  0  0
    2.3706   -0.9114   -0.2515 C   0  0  0  0  0  0  0  0  0  0  0  0
   -2.3711    1.5047    0.2510 C   0  0  0  0  0  0  0  0  0  0  0  0
    2.3704    1.5047   -0.2513 C   0  0  0  0  0  0  0  0  0  0  0  0
   -3.7518   -0.9112    0.0510 C   0  0  0  0  0  0  0  0  0  0  0  0
    3.7510   -0.9113   -0.0510 C   0  0  0  0  0  0  0  0  0  0  0  0
   -3.7514    1.5049    0.0511 C   0  0  0  0  0  0  0  0  0  0  0  0
    3.7507    1.5049   -0.0510 C   0  0  0  0  0  0  0  0  0  0  0  0
   -4.4419    0.2971   -0.0487 C   0  0  0  0  0  0  0  0  0  0  0  0
    4.4410    0.2970    0.0490 C   0  0  0  0  0  0  0  0  0  0  0  0
  1 13  1  0
  2 14  1  0
  3 17  1  0
  4 18  1  0
  5  6  2  0
  5  7  1  0
  6  8  1  0
  7  9  2  0
  7 11  1  0
  8 10  2  0
  8 12  1  0
  9 13  1  0
 10 14  1  0
 11 15  2  0
 12 16  2  0
 13 17  2  0
 14 18  2  0
 15 17  1  0
 16 18  1  0
M  END
>  <PUBCHEM_COMPOUND_CID>  (1) 
26423

>  <PUBCHEM_CONFORMER_RMSD>  (1) 
0.6

>  <PUBCHEM_CONFORMER_DIVERSEORDER>  (1) 
1
6
4
3
5
2

>  <PUBCHEM_MMFF94_PARTIAL_CHARGES>  (1) 
24
1 -0.18
10 -0.15
11 -0.15
12 -0.15
13 0.18
14 0.18
15 -0.15
16 -0.15
17 0.18
18 0.18
19 0.15
2 -0.18
20 0.15
21 0.15
22 0.15
23 0.15
24 0.15
3 -0.18
4 -0.18
5 -0.18
6 -0.18
7 0.18
8 0.18
9 -0.15

>  <PUBCHEM_EFFECTIVE_ROTOR_COUNT>  (1) 
2

>  <PUBCHEM_PHARMACOPHORE_FEATURES>  (1) 
2
6 7 9 11 13 15 17 rings
6 8 10 12 14 16 18 rings

>  <PUBCHEM_HEAVY_ATOM_COUNT>  (1) 
18

>  <PUBCHEM_ATOM_DEF_STEREO_COUNT>  (1) 
0

>  <PUBCHEM_ATOM_UDEF_STEREO_COUNT>  (1) 
0

>  <PUBCHEM_BOND_DEF_STEREO_COUNT>  (1) 
0

>  <PUBCHEM_BOND_UDEF_STEREO_COUNT>  (1) 
0

>  <PUBCHEM_ISOTOPIC_ATOM_COUNT>  (1) 
0

>  <PUBCHEM_COMPONENT_COUNT>  (1) 
1

>  <PUBCHEM_CACTVS_TAUTO_COUNT>  (1) 
1

>  <PUBCHEM_CONFORMER_ID>  (1) 
0000673700000001

>  <PUBCHEM_MMFF94_ENERGY>  (1) 
44.1947

>  <PUBCHEM_FEATURE_SELFOVERLAP>  (1) 
10.149

>  <PUBCHEM_SHAPE_FINGERPRINT>  (1) 
10 15 18201426035422418224
10595046 47 18410857697816925909
11315181 36 18412830208808234552
11405975 8 18412549781998469721
12107183 9 17762903164981076104
13073987 5 18340207388494631593
13167823 11 18410854364911852103
13533116 47 18342454799036466946
13583140 156 17917703625861574776
14341114 176 18412269406496346246
15196674 1 18410857659151872071
15788980 27 18260269659055225449
17492 89 18410577300877610651
17834072 33 18408606985046607108
17857418 61 18410289211666510298
1813 80 17022908917442470284
19489759 90 18408039623966645961
200 152 18202844348875426233
20645477 70 18339644434758069174
21065198 48 18272092647796944304
21065198 57 18410856542465487484
21267235 1 18410583885051081411
21709351 56 18334853948252361996
220451 1 18411428309986520610
22224240 67 18337945784457214544
23402539 116 18335698381930436885
23557571 272 18060143102593686977
23559900 14 18411975892768782529
239999 70 18201728345153586766
26918003 58 18413107272911255505
300161 21 18408599266562965232
3004659 81 18335140843794434154
3421961 26 18267864978929509250
351380 180 18410292514474989033
3545911 37 18410856559655919156
4073 2 18114750424959585474
4214541 1 18410293601386804869
5104073 3 18342741797119308507
542803 24 17385728001610973684
559249 180 18264486174863971883
573450 72 18408599241009426649
59755656 520 16443061721128867915
633830 44 16805329894037066677
67856867 119 18263926699344271636
7495541 125 17774719869615765920
77779 3 18410577287981451169
9709674 26 18335429001144347011
9971528 1 17895197692757472572

>  <PUBCHEM_SHAPE_MULTIPOLES>  (1) 
367.95
14.7
2.08
0.68
0.01
1.07
0
2.03
0
0
0
0
-0.01
-0.07

>  <PUBCHEM_SHAPE_SELFOVERLAP>  (1) 
754.594

>  <PUBCHEM_SHAPE_VOLUME>  (1) 
213.9

>  <PUBCHEM_COORDINATE_TYPE>  (1) 
2
5
10

$$$$
