2643
     RDKit          3D

 34 38  0  0  1  0  0  0  0  0999 V2000
   -0.7700    1.1468   -2.5337 S   0  0  0  0  0  0  0  0  0  0  0  0
    4.6306   -2.9675    1.5187 S   0  0  0  0  0  0  0  0  0  0  0  0
    0.0216    2.9888    1.6604 O   0  0  0  0  0  0  0  0  0  0  0  0
   -3.3450    2.7814    1.2757 O   0  0  0  0  0  0  0  0  0  0  0  0
   -2.9532    0.8762    2.4785 O   0  0  0  0  0  0  0  0  0  0  0  0
    3.1970    0.9422   -2.1697 O   0  0  0  0  0  0  0  0  0  0  0  0
    6.5820    0.7249    0.5789 O   0  0  0  0  0  0  0  0  0  0  0  0
   -0.8639    1.4538    0.1034 N   0  0  0  0  0  0  0  0  0  0  0  0
   -4.1449   -0.0226   -0.5430 N   0  0  0  0  0  0  0  0  0  0  0  0
    2.3201    1.4873   -0.0613 N   0  0  0  0  0  0  0  0  0  0  0  0
    5.5061    1.3532   -0.0638 N   0  0  0  0  0  0  0  0  0  0  0  0
    5.1998   -1.7792   -0.7053 N   0  0  0  0  0  0  0  0  0  0  0  0
    5.6929   -4.0908   -0.6449 N   0  0  0  0  0  0  0  0  0  0  0  0
    0.0153    0.9194   -0.9208 C   0  0  0  0  0  0  0  0  0  0  0  0
    1.0219    2.0083   -0.4891 C   0  0  0  0  0  0  0  0  0  0  0  0
    0.0345    2.2807    0.6812 C   0  0  0  0  0  0  0  0  0  0  0  0
   -2.1656    1.0940    0.2438 C   0  0  0  0  0  0  0  0  0  0  0  0
   -2.8220    0.4276   -0.7388 C   0  0  0  0  0  0  0  0  0  0  0  0
   -2.2100    0.1106   -2.1023 C   0  0  0  0  0  0  0  0  0  0  0  0
   -4.3844   -1.2362   -0.0489 C   0  0  0  0  0  0  0  0  0  0  0  0
   -3.3582   -2.2257    0.3909 C   0  0  0  0  0  0  0  0  0  0  0  0
   -5.6790   -1.6930    0.1483 C   0  0  0  0  0  0  0  0  0  0  0  0
   -4.2170   -3.5010    0.4508 C   0  0  0  0  0  0  0  0  0  0  0  0
   -5.6639   -3.0596    0.7490 C   0  0  0  0  0  0  0  0  0  0  0  0
   -5.1572    0.7958   -0.8739 C   0  0  0  0  0  0  0  0  0  0  0  0
   -2.8543    1.5406    1.4659 C   0  0  0  0  0  0  0  0  0  0  0  0
   -6.7485   -0.8796   -0.1670 C   0  0  0  0  0  0  0  0  0  0  0  0
   -6.4806    0.3851   -0.6929 C   0  0  0  0  0  0  0  0  0  0  0  0
    3.2665    1.0105   -0.9531 C   0  0  0  0  0  0  0  0  0  0  0  0
    4.5246    0.5297   -0.2775 C   0  0  0  0  0  0  0  0  0  0  0  0
    4.6713   -0.8626    0.1588 C   0  0  0  0  0  0  0  0  0  0  0  0
    4.3013   -1.2888    1.3987 C   0  0  0  0  0  0  0  0  0  0  0  0
    5.2279   -2.9404   -0.0898 C   0  0  0  0  0  0  0  0  0  0  0  0
    7.6042    1.6901    0.7728 C   0  0  0  0  0  0  0  0  0  0  0  0
  1 14  1  0
  1 19  1  0
  2 32  1  0
  2 33  1  0
  3 16  2  0
  4 26  1  0
  5 26  2  0
  6 29  2  0
  7 11  1  0
  7 34  1  0
  8 14  1  0
  8 16  1  0
  8 17  1  0
  9 18  1  0
  9 20  2  0
  9 25  1  0
 10 15  1  0
 10 29  1  0
 11 30  2  0
 12 31  1  0
 12 33  2  0
 13 33  1  0
 14 15  1  0
 15 16  1  0
 17 18  2  0
 17 26  1  0
 18 19  1  0
 20 21  1  0
 20 22  1  0
 21 23  1  0
 22 24  1  0
 22 27  2  0
 23 24  1  0
 25 28  2  0
 27 28  1  0
 29 30  1  0
 30 31  1  0
 31 32  2  0
M  CHG  1   9   1
M  END
>  <PUBCHEM_COMPOUND_CID>  (1) 
2643

>  <PUBCHEM_CONFORMER_RMSD>  (1) 
1

>  <PUBCHEM_CONFORMER_DIVERSEORDER>  (1) 
1
87
18
61
32
75
88
76
46
86
97
56
5
58
6
100
15
108
60
98
19
99
66
80
84
20
103
13
96
43
111
16
102
27
59
85
35
77
107
91
67
14
70
109
62
3
55
23
11
92
63
21
72
17
73
69
8
53
37
30
47
78
45
10
48
42
105
12
31
110
38
83
82
106
74
89
65
26
7
71
44
94
64
2
101
95
33
9
25
39
49
52
57
40
50
36
51
28
81
22
68
41
104
90
4
79
54
24
93
29
34

>  <PUBCHEM_MMFF94_PARTIAL_CHARGES>  (1) 
41
1 -0.45
10 -0.65
11 -0.51
12 -0.57
13 -0.88
14 0.44
15 0.28
16 0.58
17 0.12
18 0.21
19 0.37
2 -0.08
20 0.22
21 0.14
22 -0.14
24 0.14
25 0.21
26 0.71
27 -0.15
28 -0.15
29 0.63
3 -0.57
30 0.54
31 0.14
32 -0.11
33 0.46
34 0.28
4 -0.65
45 0.37
46 0.15
47 0.15
48 0.15
49 0.5
5 -0.57
50 0.15
54 0.4
55 0.4
6 -0.57
7 -0.22
8 -0.39
9 -0.07

>  <PUBCHEM_EFFECTIVE_ROTOR_COUNT>  (1) 
8.2

>  <PUBCHEM_PHARMACOPHORE_FEATURES>  (1) 
14
1 10 donor
1 11 acceptor
1 13 donor
1 3 acceptor
1 4 acceptor
1 5 acceptor
1 6 acceptor
3 12 13 33 cation
3 4 5 26 anion
4 8 14 15 16 rings
5 2 12 31 32 33 rings
5 20 21 22 23 24 rings
6 1 8 14 17 18 19 rings
6 9 20 22 25 27 28 rings

>  <PUBCHEM_HEAVY_ATOM_COUNT>  (1) 
34

>  <PUBCHEM_ATOM_DEF_STEREO_COUNT>  (1) 
0

>  <PUBCHEM_ATOM_UDEF_STEREO_COUNT>  (1) 
2

>  <PUBCHEM_BOND_DEF_STEREO_COUNT>  (1) 
0

>  <PUBCHEM_BOND_UDEF_STEREO_COUNT>  (1) 
1

>  <PUBCHEM_ISOTOPIC_ATOM_COUNT>  (1) 
0

>  <PUBCHEM_COMPONENT_COUNT>  (1) 
1

>  <PUBCHEM_CACTVS_TAUTO_COUNT>  (1) 
4

>  <PUBCHEM_CONFORMER_ID>  (1) 
00000A5300000001

>  <PUBCHEM_MMFF94_ENERGY>  (1) 
115.7961

>  <PUBCHEM_FEATURE_SELFOVERLAP>  (1) 
71.455

>  <PUBCHEM_SHAPE_FINGERPRINT>  (1) 
10074138 170 17700983141240131497
10305334 12 17911525285726895987
10677351 27 18042430021730662806
10928967 22 17753338565382882578
117089 54 17317623316044722435
11796584 16 18260541221273894669
12596602 18 18202004313671039544
13383661 66 17245291938909790227
13533116 47 18413384328746355152
1361 4 18408321090285103574
13782708 43 18335978766397307495
13911987 19 12757414091303167049
14118638 360 18059858355226157424
14211702 104 18411707577371575615
14910302 57 18113606907196939461
15001296 14 18261107465725948394
15183329 4 15140950790167485761
15352257 5 18260826029203509087
15475509 35 18195810888956699315
15475509 8 16877940500096741957
15575132 122 8862938386154979747
16728300 4 18272086042348525863
18393751 57 10663819702824829149
19841028 212 18334853879565007834
19958102 18 18113890598730384599
21033648 29 15410896210750472449
21223535 225 15213282124272735135
21315764 119 18040710368965787077
23559900 14 18337383955147839885
25222932 49 18198620128555215166
2838139 119 9655583997708844211
3004659 81 18186801366124722566
373842 8 18342178825834326039
3886686 26 17120867483331076198
394071 54 16558472006177774368
404807 14 18042966467551202719
4073 2 18115870869978270064
474113 269 18059562565423909455
5104073 3 17988649549646748920
5326457 24 18260268564065587175
7970288 3 18264769849096494846

>  <PUBCHEM_SHAPE_MULTIPOLES>  (1) 
648.17
18.82
3.99
1.75
11.53
3.71
0.17
10.38
-1.46
2.06
-0.97
-0.17
-0.83
0.25

>  <PUBCHEM_SHAPE_SELFOVERLAP>  (1) 
1394.284

>  <PUBCHEM_SHAPE_VOLUME>  (1) 
362.4

>  <PUBCHEM_COORDINATE_TYPE>  (1) 
2
5
10

$$$$
