26439
     RDKit          3D

 13 13  0  0  0  0  0  0  0  0999 V2000
   -2.2028    1.2217   -1.6722 Cl  0  0  0  0  0  0  0  0  0  0  0  0
    3.8792    0.0791    0.4403 O   0  0  0  0  0  0  0  0  0  0  0  0
   -4.8658   -0.8854    0.8557 O   0  0  0  0  0  0  0  0  0  0  0  0
   -0.2302    0.2040   -0.1304 C   0  0  0  0  0  0  0  0  0  0  0  0
    2.5318    0.1197    0.2534 C   0  0  0  0  0  0  0  0  0  0  0  0
    0.5319   -0.7795   -0.7608 C   0  0  0  0  0  0  0  0  0  0  0  0
    0.3887    1.1456    0.6918 C   0  0  0  0  0  0  0  0  0  0  0  0
    1.9129   -0.8218   -0.5689 C   0  0  0  0  0  0  0  0  0  0  0  0
    1.7697    1.1035    0.8836 C   0  0  0  0  0  0  0  0  0  0  0  0
   -1.6698    0.2484   -0.3313 C   0  0  0  0  0  0  0  0  0  0  0  0
   -2.5945   -0.3855    0.4169 C   0  0  0  0  0  0  0  0  0  0  0  0
    4.5977   -0.9526   -0.2345 C   0  0  0  0  0  0  0  0  0  0  0  0
   -4.0488   -0.2971    0.1563 C   0  0  0  0  0  0  0  0  0  0  0  0
  1 10  1  0
  2  5  1  0
  2 12  1  0
  3 13  2  0
  4  6  2  0
  4  7  1  0
  4 10  1  0
  5  8  2  0
  5  9  1  0
  6  8  1  0
  7  9  2  0
 10 11  2  0
 11 13  1  0
M  END
>  <PUBCHEM_COMPOUND_CID>  (1) 
26439

>  <PUBCHEM_CONFORMER_RMSD>  (1) 
0.6

>  <PUBCHEM_CONFORMER_DIVERSEORDER>  (1) 
1
3
4
2
5

>  <PUBCHEM_MMFF94_PARTIAL_CHARGES>  (1) 
19
1 -0.14
10 0.11
11 -0.14
12 0.28
13 0.5
14 0.15
15 0.15
16 0.15
17 0.15
18 0.15
2 -0.36
22 0.06
3 -0.57
4 0.03
5 0.08
6 -0.15
7 -0.15
8 -0.15
9 -0.15

>  <PUBCHEM_EFFECTIVE_ROTOR_COUNT>  (1) 
3

>  <PUBCHEM_PHARMACOPHORE_FEATURES>  (1) 
3
1 2 acceptor
1 3 acceptor
6 4 5 6 7 8 9 rings

>  <PUBCHEM_HEAVY_ATOM_COUNT>  (1) 
13

>  <PUBCHEM_ATOM_DEF_STEREO_COUNT>  (1) 
0

>  <PUBCHEM_ATOM_UDEF_STEREO_COUNT>  (1) 
0

>  <PUBCHEM_BOND_DEF_STEREO_COUNT>  (1) 
0

>  <PUBCHEM_BOND_UDEF_STEREO_COUNT>  (1) 
1

>  <PUBCHEM_ISOTOPIC_ATOM_COUNT>  (1) 
0

>  <PUBCHEM_COMPONENT_COUNT>  (1) 
1

>  <PUBCHEM_CACTVS_TAUTO_COUNT>  (1) 
1

>  <PUBCHEM_CONFORMER_ID>  (1) 
0000674700000001

>  <PUBCHEM_MMFF94_ENERGY>  (1) 
44.8075

>  <PUBCHEM_FEATURE_SELFOVERLAP>  (1) 
15.223

>  <PUBCHEM_SHAPE_FINGERPRINT>  (1) 
10219947 1 17918274255469624928
11062470 55 9871751295017444154
11543360 7 17313114038084417982
12032990 46 18272935981968802750
12186901 62 17676762085416638133
12236239 1 16200425880140980581
12251169 10 17846782927252975095
12932764 1 18336528482696360535
13581323 91 17675919902259071642
13675066 3 16845855684870524362
13760787 5 17846771915088781572
14252887 29 17632306648467860902
14943859 89 12895354395489977791
15653759 3 18260541216979037657
15775835 57 14836406930229948487
16945 1 17917698094355141196
17844478 74 18410571777833998077
18186145 218 17417801877243926288
19026448 4 18040988519400426860
19026448 5 16588017958079583168
200 152 17632563960401416253
20645477 70 17844799287811746343
20871998 22 17488195806983057966
21061003 4 18343860026526075313
21119208 17 14273736274289740675
21256008 61 14851606600125439550
21501502 16 17914326037810268294
22094290 60 17603585205478923085
23402539 116 17095237021294922831
23557571 272 17968659319782986405
26918003 58 18202288017904549291
2748010 2 17414717571071220572
276578 36 14117533029750574301
4047638 21 11743845767445716811
42 15 17918279748685382411
53655031 270 17132120125699879938
77492 1 16200141123566753597

>  <PUBCHEM_SHAPE_MULTIPOLES>  (1) 
257.67
8.09
1.18
1.11
1.11
0.17
0.34
-2.79
-1.38
-0.12
0.03
0.68
0.26
1.03

>  <PUBCHEM_SHAPE_SELFOVERLAP>  (1) 
523.172

>  <PUBCHEM_SHAPE_VOLUME>  (1) 
150.3

>  <PUBCHEM_COORDINATE_TYPE>  (1) 
2
5
10

$$$$
