2644
     RDKit          3D

 38 40  0  0  1  0  0  0  0  0999 V2000
   -0.5014   -4.2313   -0.0533 S   0  0  0  0  0  0  0  0  0  0  0  0
    4.1137    1.6218   -2.4851 S   0  0  0  0  0  0  0  0  0  0  0  0
   -0.7694   -0.4884    2.6911 O   0  0  0  0  0  0  0  0  0  0  0  0
   -3.4903    0.1819    0.1725 O   0  0  0  0  0  0  0  0  0  0  0  0
   -4.1564   -2.7141   -2.5833 O   0  0  0  0  0  0  0  0  0  0  0  0
   -4.0640   -1.1717    1.9624 O   0  0  0  0  0  0  0  0  0  0  0  0
    3.3356   -2.9946    0.3134 O   0  0  0  0  0  0  0  0  0  0  0  0
   -4.0294    2.4896   -0.0161 O   0  0  0  0  0  0  0  0  0  0  0  0
   -2.6463    4.1679   -0.3742 O   0  0  0  0  0  0  0  0  0  0  0  0
    6.0284    0.2821    1.3487 O   0  0  0  0  0  0  0  0  0  0  0  0
   -1.9752    2.4681    1.0301 O   0  0  0  0  0  0  0  0  0  0  0  0
   -1.2032   -1.8134    0.7893 N   0  0  0  0  0  0  0  0  0  0  0  0
    1.9589   -1.3185    1.2110 N   0  0  0  0  0  0  0  0  0  0  0  0
    5.0594   -0.6966    1.6107 N   0  0  0  0  0  0  0  0  0  0  0  0
    5.6304   -0.1003   -1.2948 N   0  0  0  0  0  0  0  0  0  0  0  0
    6.5662    0.9032   -3.2203 N   0  0  0  0  0  0  0  0  0  0  0  0
   -0.0905   -2.4820    0.1398 C   0  0  0  0  0  0  0  0  0  0  0  0
    0.7388   -2.1053    1.3870 C   0  0  0  0  0  0  0  0  0  0  0  0
   -0.4986   -1.2577    1.7988 C   0  0  0  0  0  0  0  0  0  0  0  0
   -2.4837   -1.8700    0.3407 C   0  0  0  0  0  0  0  0  0  0  0  0
   -2.8721   -2.7885   -0.5756 C   0  0  0  0  0  0  0  0  0  0  0  0
   -1.9541   -3.8888   -1.1034 C   0  0  0  0  0  0  0  0  0  0  0  0
   -4.2526   -2.8630   -1.1825 C   0  0  0  0  0  0  0  0  0  0  0  0
   -3.4432   -0.9321    0.9425 C   0  0  0  0  0  0  0  0  0  0  0  0
    3.1251   -1.8535    0.6919 C   0  0  0  0  0  0  0  0  0  0  0  0
    4.2471   -0.8510    0.6090 C   0  0  0  0  0  0  0  0  0  0  0  0
   -4.3829    1.2315    0.5963 C   0  0  0  0  0  0  0  0  0  0  0  0
   -5.4328   -2.7763   -3.2129 C   0  0  0  0  0  0  0  0  0  0  0  0
    4.4463   -0.0268   -0.5874 C   0  0  0  0  0  0  0  0  0  0  0  0
   -5.7956    0.8941    0.1408 C   0  0  0  0  0  0  0  0  0  0  0  0
   -1.3980    4.8369   -0.1661 C   0  0  0  0  0  0  0  0  0  0  0  0
    3.5036    0.8513   -1.0796 C   0  0  0  0  0  0  0  0  0  0  0  0
   -2.7989    2.9880    0.2896 C   0  0  0  0  0  0  0  0  0  0  0  0
   -1.2603    5.1583    1.3214 C   0  0  0  0  0  0  0  0  0  0  0  0
   -1.4205    6.1206   -0.9930 C   0  0  0  0  0  0  0  0  0  0  0  0
   -0.2701    3.9171   -0.6314 C   0  0  0  0  0  0  0  0  0  0  0  0
    5.5673    0.7256   -2.3156 C   0  0  0  0  0  0  0  0  0  0  0  0
    6.8689    0.3861    2.4875 C   0  0  0  0  0  0  0  0  0  0  0  0
  1 17  1  0
  1 22  1  0
  2 32  1  0
  2 37  1  0
  3 19  2  0
  4 24  1  0
  4 27  1  0
  5 23  1  0
  5 28  1  0
  6 24  2  0
  7 25  2  0
  8 27  1  0
  8 33  1  0
  9 31  1  0
  9 33  1  0
 10 14  1  0
 10 38  1  0
 11 33  2  0
 12 17  1  0
 12 19  1  0
 12 20  1  0
 13 18  1  0
 13 25  1  0
 14 26  2  0
 15 29  1  0
 15 37  2  0
 16 37  1  0
 17 18  1  0
 18 19  1  0
 20 21  2  0
 20 24  1  0
 21 22  1  0
 21 23  1  0
 25 26  1  0
 26 29  1  0
 27 30  1  0
 29 32  2  0
 31 34  1  0
 31 35  1  0
 31 36  1  0
M  END
>  <PUBCHEM_COMPOUND_CID>  (1) 
2644

>  <PUBCHEM_CONFORMER_RMSD>  (1) 
1.4

>  <PUBCHEM_CONFORMER_DIVERSEORDER>  (1) 
1
69
117
4
124
66
106
143
59
17
144
163
102
47
79
56
37
154
78
136
38
94
44
112
150
108
28
142
91
120
90
134
55
18
104
25
126
53
100
107
116
111
140
60
161
137
152
103
85
139
52
151
10
80
46
29
114
160
61
9
65
88
70
133
73
64
26
57
20
123
162
16
145
99
21
92
8
115
27
63
93
82
138
98
75
141
110
19
158
96
147
131
23
49
121
149
3
155
35
76
74
36
12
83
22
71
81
127
95
34
130
105
39
122
101
77
67
86
40
132
87
33
89
135
128
45
48
6
119
118
5
62
13
24
50
58
51
153
14
97
148
31
113
15
125
159
42
41
11
109
129
54
7
43
68
72
30
32
2
146
164
84
156
157

>  <PUBCHEM_MMFF94_PARTIAL_CHARGES>  (1) 
38
1 -0.45
10 -0.22
11 -0.57
12 -0.39
13 -0.65
14 -0.51
15 -0.57
16 -0.88
17 0.44
18 0.28
19 0.58
2 -0.08
20 0.12
21 -0.28
22 0.37
23 0.42
24 0.71
25 0.63
26 0.54
27 0.56
28 0.28
29 0.14
3 -0.57
31 0.28
32 -0.11
33 0.87
37 0.46
38 0.28
4 -0.43
43 0.37
5 -0.56
53 0.15
6 -0.57
66 0.4
67 0.4
7 -0.57
8 -0.43
9 -0.43

>  <PUBCHEM_EFFECTIVE_ROTOR_COUNT>  (1) 
14.6

>  <PUBCHEM_PHARMACOPHORE_FEATURES>  (1) 
12
1 13 donor
1 14 acceptor
1 16 donor
1 3 acceptor
1 5 acceptor
1 6 acceptor
1 7 acceptor
3 15 16 37 cation
4 12 17 18 19 rings
4 31 34 35 36 hydrophobe
5 2 15 29 32 37 rings
6 1 12 17 20 21 22 rings

>  <PUBCHEM_HEAVY_ATOM_COUNT>  (1) 
38

>  <PUBCHEM_ATOM_DEF_STEREO_COUNT>  (1) 
0

>  <PUBCHEM_ATOM_UDEF_STEREO_COUNT>  (1) 
3

>  <PUBCHEM_BOND_DEF_STEREO_COUNT>  (1) 
0

>  <PUBCHEM_BOND_UDEF_STEREO_COUNT>  (1) 
1

>  <PUBCHEM_ISOTOPIC_ATOM_COUNT>  (1) 
0

>  <PUBCHEM_COMPONENT_COUNT>  (1) 
1

>  <PUBCHEM_CACTVS_TAUTO_COUNT>  (1) 
4

>  <PUBCHEM_CONFORMER_ID>  (1) 
00000A5400000001

>  <PUBCHEM_MMFF94_ENERGY>  (1) 
99.1698

>  <PUBCHEM_FEATURE_SELFOVERLAP>  (1) 
61.158

>  <PUBCHEM_SHAPE_FINGERPRINT>  (1) 
10771551 21 17900829554287101716
11513181 2 18124043325243677886
12788726 201 18262252070410705976
13165054 235 17970626286641727917
13617811 41 18197199542289650471
13761468 95 17983607158887491400
15320291 9 17471853597855661264
15968369 153 18410296916911855208
16067690 210 18194143982290099388
20764821 26 18336266859380856080
21641784 216 18342172306263517351
4066623 53 18125417929442307389
44249763 50 18059275639796011810
53794403 172 17182507196386064261
550186 7 18271815561965411860
6036956 94 17969799492167717565
6608658 132 18409453621568405182
6700243 42 17985572154018998070

>  <PUBCHEM_SHAPE_MULTIPOLES>  (1) 
711.99
14.17
7.47
2.66
18.3
11.18
-1.35
-1.99
-4.63
-9.19
-1.5
2.26
-0.77
-4.04

>  <PUBCHEM_SHAPE_SELFOVERLAP>  (1) 
1459.654

>  <PUBCHEM_SHAPE_VOLUME>  (1) 
415.6

>  <PUBCHEM_COORDINATE_TYPE>  (1) 
2
5
10

$$$$
