26449
     RDKit          3D

 18 18  0  0  0  0  0  0  0  0999 V2000
   -3.8361    0.5894    0.0121 S   0  0  0  0  0  0  0  0  0  0  0  0
    3.0848    0.1748    0.4564 P   0  0  0  0  0  0  0  0  0  0  0  0
    1.8739   -0.8769    0.2630 O   0  0  0  0  0  0  0  0  0  0  0  0
   -4.5863   -0.3401    0.8422 O   0  0  0  0  0  0  0  0  0  0  0  0
   -3.9410    2.0215    0.2487 O   0  0  0  0  0  0  0  0  0  0  0  0
    3.0788    1.0416   -0.9131 O   0  0  0  0  0  0  0  0  0  0  0  0
    4.4110   -0.7502    0.3306 O   0  0  0  0  0  0  0  0  0  0  0  0
    3.0314    0.9788    1.7250 O   0  0  0  0  0  0  0  0  0  0  0  0
   -2.1491    0.1294    0.0846 C   0  0  0  0  0  0  0  0  0  0  0  0
   -1.7583   -1.2051   -0.0270 C   0  0  0  0  0  0  0  0  0  0  0  0
   -1.1877    1.1254    0.2569 C   0  0  0  0  0  0  0  0  0  0  0  0
   -0.4063   -1.5432    0.0335 C   0  0  0  0  0  0  0  0  0  0  0  0
    0.5473   -0.5452    0.2053 C   0  0  0  0  0  0  0  0  0  0  0  0
    0.1641    0.7873    0.3173 C   0  0  0  0  0  0  0  0  0  0  0  0
   -2.7623   -2.2957   -0.2110 C   0  0  0  0  0  0  0  0  0  0  0  0
   -4.2942    0.3064   -1.6819 C   0  0  0  0  0  0  0  0  0  0  0  0
    4.1290    1.9677   -1.1297 C   0  0  0  0  0  0  0  0  0  0  0  0
    4.6012   -1.5659   -0.8129 C   0  0  0  0  0  0  0  0  0  0  0  0
  1  4  2  0
  1  5  2  0
  1  9  1  0
  1 16  1  0
  2  3  1  0
  2  6  1  0
  2  7  1  0
  2  8  2  0
  3 13  1  0
  6 17  1  0
  7 18  1  0
  9 10  2  0
  9 11  1  0
 10 12  1  0
 10 15  1  0
 11 14  2  0
 12 13  2  0
 13 14  1  0
M  END
>  <PUBCHEM_COMPOUND_CID>  (1) 
26449

>  <PUBCHEM_CONFORMER_RMSD>  (1) 
0.6

>  <PUBCHEM_CONFORMER_DIVERSEORDER>  (1) 
9
12
60
44
83
90
35
7
50
10
43
74
79
75
68
66
76
24
40
30
53
89
58
92
15
87
84
29
65
57
8
73
82
52
49
31
77
94
27
39
2
46
23
88
85
20
86
3
95
42
81
93
47
70
14
78
26
28
63
36
1
55
56
48
18
45
41
59
4
51
19
64
25
71
80
69
67
17
13
32
6
5
11
62
54
16
61
37
91
38
22
33
72
34
21

>  <PUBCHEM_MMFF94_PARTIAL_CHARGES>  (1) 
21
1 1.2
10 -0.14
11 -0.15
12 -0.15
13 0.08
14 -0.15
15 0.14
16 0.11
17 0.28
18 0.28
19 0.15
2 1.51
20 0.15
21 0.15
3 -0.35
4 -0.65
5 -0.65
6 -0.55
7 -0.55
8 -0.7
9 -0.01

>  <PUBCHEM_EFFECTIVE_ROTOR_COUNT>  (1) 
5

>  <PUBCHEM_PHARMACOPHORE_FEATURES>  (1) 
4
1 4 acceptor
1 5 acceptor
1 8 acceptor
6 9 10 11 12 13 14 rings

>  <PUBCHEM_HEAVY_ATOM_COUNT>  (1) 
18

>  <PUBCHEM_ATOM_DEF_STEREO_COUNT>  (1) 
0

>  <PUBCHEM_ATOM_UDEF_STEREO_COUNT>  (1) 
0

>  <PUBCHEM_BOND_DEF_STEREO_COUNT>  (1) 
0

>  <PUBCHEM_BOND_UDEF_STEREO_COUNT>  (1) 
0

>  <PUBCHEM_ISOTOPIC_ATOM_COUNT>  (1) 
0

>  <PUBCHEM_COMPONENT_COUNT>  (1) 
1

>  <PUBCHEM_CACTVS_TAUTO_COUNT>  (1) 
1

>  <PUBCHEM_CONFORMER_ID>  (1) 
0000675100000009

>  <PUBCHEM_MMFF94_ENERGY>  (1) 
38.8873

>  <PUBCHEM_FEATURE_SELFOVERLAP>  (1) 
20.315

>  <PUBCHEM_SHAPE_FINGERPRINT>  (1) 
10498660 4 18337955700635140308
11132069 177 18410282631771078379
11405975 8 18408039619845895106
12403814 3 17749103409658430653
13675066 3 18409728482226895130
13760787 5 18411702088714224277
14115302 16 18341616997240960080
14252887 29 8069741936085872312
15196674 1 18409451409565119894
15239154 128 17967250909796470829
16945 1 18341606032352970779
18186145 218 17240759618645725122
200 152 16773789290407930323
20279233 1 16845292752497996294
20281475 54 18341612667502605415
20645477 56 18412257376182278048
20645477 70 18411707577904273614
21267235 1 18409740546911634507
21503847 285 17676490545005406892
23402539 116 18059566941204305461
23402655 69 18335144202495568780
23559900 14 18342175575165671798
2748010 2 17982156023078031353
2838139 119 16662581339470635301
3286 77 17703784787272519944
474 4 17168996745411595508
4990 188 17131830954078601013
5104073 3 18336265729798533698
58051976 100 18335143081192989654
633830 44 17894347795743547530
90127 26 17458067062167663293
9709674 26 18059859424129779830

>  <PUBCHEM_SHAPE_MULTIPOLES>  (1) 
342.91
10.11
2.01
1.11
2.82
0.21
0.15
-1.28
1.88
0.15
0.29
0.2
-0.3
-0.14

>  <PUBCHEM_SHAPE_SELFOVERLAP>  (1) 
671.859

>  <PUBCHEM_SHAPE_VOLUME>  (1) 
207.8

>  <PUBCHEM_COORDINATE_TYPE>  (1) 
2
5
10

$$$$
