26445
     RDKit          3D

  8  8  0  0  0  0  0  0  0  0999 V2000
    0.9186    0.0060   -0.0021 C   0  0  0  0  0  0  0  0  0  0  0  0
    0.1305   -1.1915    0.5758 C   0  0  0  0  0  0  0  0  0  0  0  0
    0.1374    1.3152    0.2777 C   0  0  0  0  0  0  0  0  0  0  0  0
   -1.3000   -1.2888    0.0324 C   0  0  0  0  0  0  0  0  0  0  0  0
    2.2977    0.0836    0.6765 C   0  0  0  0  0  0  0  0  0  0  0  0
    1.1412   -0.1733   -1.5179 C   0  0  0  0  0  0  0  0  0  0  0  0
   -1.3412    1.2091    0.0382 C   0  0  0  0  0  0  0  0  0  0  0  0
   -1.9842    0.0398   -0.0806 C   0  0  0  0  0  0  0  0  0  0  0  0
  1  2  1  0
  1  3  1  0
  1  5  1  0
  1  6  1  0
  2  4  1  0
  3  7  1  0
  4  8  1  0
  7  8  2  0
M  END
>  <PUBCHEM_COMPOUND_CID>  (1) 
26445

>  <PUBCHEM_CONFORMER_RMSD>  (1) 
0.4

>  <PUBCHEM_CONFORMER_DIVERSEORDER>  (1) 
1

>  <PUBCHEM_MMFF94_PARTIAL_CHARGES>  (1) 
6
21 0.15
22 0.15
3 0.14
4 0.14
7 -0.29
8 -0.29

>  <PUBCHEM_EFFECTIVE_ROTOR_COUNT>  (1) 
0.8

>  <PUBCHEM_PHARMACOPHORE_FEATURES>  (1) 
2
3 1 5 6 hydrophobe
6 1 2 3 4 7 8 rings

>  <PUBCHEM_HEAVY_ATOM_COUNT>  (1) 
8

>  <PUBCHEM_ATOM_DEF_STEREO_COUNT>  (1) 
0

>  <PUBCHEM_ATOM_UDEF_STEREO_COUNT>  (1) 
0

>  <PUBCHEM_BOND_DEF_STEREO_COUNT>  (1) 
0

>  <PUBCHEM_BOND_UDEF_STEREO_COUNT>  (1) 
0

>  <PUBCHEM_ISOTOPIC_ATOM_COUNT>  (1) 
0

>  <PUBCHEM_COMPONENT_COUNT>  (1) 
1

>  <PUBCHEM_CACTVS_TAUTO_COUNT>  (1) 
1

>  <PUBCHEM_CONFORMER_ID>  (1) 
0000674D00000001

>  <PUBCHEM_MMFF94_ENERGY>  (1) 
10.5539

>  <PUBCHEM_FEATURE_SELFOVERLAP>  (1) 
10.148

>  <PUBCHEM_SHAPE_FINGERPRINT>  (1) 
12423570 1 11205427614931141814
137420 1 12204973947807358502
16945 1 18340759420625141104
18185500 45 18259980461785429795
21040471 1 18264776449970020737
23552423 10 18187367584495658018
24536 1 17774736336578303249
29004967 10 16988850479224547186
5084963 1 17240759614150252339

>  <PUBCHEM_SHAPE_MULTIPOLES>  (1) 
164.64
2.48
1.41
1.01
0.25
0.03
-0.37
0.05
0.18
-0.46
0.17
0.46
-0.08
0.05

>  <PUBCHEM_SHAPE_SELFOVERLAP>  (1) 
320.695

>  <PUBCHEM_SHAPE_VOLUME>  (1) 
99.4

>  <PUBCHEM_COORDINATE_TYPE>  (1) 
2
5
10

$$$$
