26440
     RDKit          3D

 15 16  0  0  0  0  0  0  0  0999 V2000
    1.5669   -0.5372   -0.0176 C   0  0  0  0  0  0  0  0  0  0  0  0
    3.5596    0.8490    0.1654 C   0  0  0  0  0  0  0  0  0  0  0  0
    2.1732    0.7076    0.2243 C   0  0  0  0  0  0  0  0  0  0  0  0
    0.1423   -0.6834    0.0437 C   0  0  0  0  0  0  0  0  0  0  0  0
    2.3891   -1.6363   -0.3204 C   0  0  0  0  0  0  0  0  0  0  0  0
   -2.1813    0.2138   -0.0251 C   0  0  0  0  0  0  0  0  0  0  0  0
    4.3607   -0.2523   -0.1364 C   0  0  0  0  0  0  0  0  0  0  0  0
   -0.7331    0.3457   -0.0598 C   0  0  0  0  0  0  0  0  0  0  0  0
    3.7754   -1.4949   -0.3794 C   0  0  0  0  0  0  0  0  0  0  0  0
    4.1858    2.1769    0.4270 C   0  0  0  0  0  0  0  0  0  0  0  0
   -2.7646   -0.9267    0.5268 C   0  0  0  0  0  0  0  0  0  0  0  0
   -2.9866    1.2280   -0.5430 C   0  0  0  0  0  0  0  0  0  0  0  0
   -4.1534   -1.0531    0.5607 C   0  0  0  0  0  0  0  0  0  0  0  0
   -4.3754    1.1018   -0.5091 C   0  0  0  0  0  0  0  0  0  0  0  0
   -4.9587   -0.0388    0.0428 C   0  0  0  0  0  0  0  0  0  0  0  0
  1  3  1  0
  1  4  1  0
  1  5  2  0
  2  3  2  0
  2  7  1  0
  2 10  1  0
  4  8  2  0
  5  9  1  0
  6  8  1  0
  6 11  2  0
  6 12  1  0
  7  9  2  0
 11 13  1  0
 12 14  2  0
 13 15  2  0
 14 15  1  0
M  END
>  <PUBCHEM_COMPOUND_CID>  (1) 
26440

>  <PUBCHEM_CONFORMER_RMSD>  (1) 
0.6

>  <PUBCHEM_CONFORMER_DIVERSEORDER>  (1) 
1
2

>  <PUBCHEM_MMFF94_PARTIAL_CHARGES>  (1) 
26
1 0.03
10 0.14
11 -0.15
12 -0.15
13 -0.15
14 -0.15
15 -0.15
16 0.15
17 0.15
18 0.15
19 0.15
2 -0.14
20 0.15
21 0.15
25 0.15
26 0.15
27 0.15
28 0.15
29 0.15
3 -0.15
4 -0.18
5 -0.15
6 0.03
7 -0.15
8 -0.18
9 -0.15

>  <PUBCHEM_EFFECTIVE_ROTOR_COUNT>  (1) 
2

>  <PUBCHEM_PHARMACOPHORE_FEATURES>  (1) 
2
6 1 2 3 5 7 9 rings
6 6 11 12 13 14 15 rings

>  <PUBCHEM_HEAVY_ATOM_COUNT>  (1) 
15

>  <PUBCHEM_ATOM_DEF_STEREO_COUNT>  (1) 
0

>  <PUBCHEM_ATOM_UDEF_STEREO_COUNT>  (1) 
0

>  <PUBCHEM_BOND_DEF_STEREO_COUNT>  (1) 
0

>  <PUBCHEM_BOND_UDEF_STEREO_COUNT>  (1) 
1

>  <PUBCHEM_ISOTOPIC_ATOM_COUNT>  (1) 
0

>  <PUBCHEM_COMPONENT_COUNT>  (1) 
1

>  <PUBCHEM_CACTVS_TAUTO_COUNT>  (1) 
1

>  <PUBCHEM_CONFORMER_ID>  (1) 
0000674800000001

>  <PUBCHEM_MMFF94_ENERGY>  (1) 
46.1895

>  <PUBCHEM_FEATURE_SELFOVERLAP>  (1) 
10.149

>  <PUBCHEM_SHAPE_FINGERPRINT>  (1) 
10014705 185 18186796968484380533
10608611 8 18408882927794275508
10680689 15 17967821526798998881
10912923 1 17561366184234947315
11128504 68 15698000786011697928
11132069 177 17894348882554824893
11287383 113 18410575106217114795
11405975 8 18336547114380509539
11471102 20 18343019978441502294
11615757 297 17775288269972233051
12236239 1 16702303438226798290
12507560 40 18409167714201191093
13081056 2 18409448080981523677
13167823 11 18343861113137048663
13237642 15 18334579091762011153
13675066 3 18260833717305459283
13760787 5 17632858616110486061
15196674 1 18410011048093487713
15219456 202 18410011035203343567
15242439 84 18335140851782826279
15375358 24 18334858324729129611
15961568 22 17531532095925689876
17834072 33 18201997754986816519
17844677 252 18412833460356946729
18186145 218 18040432157409827351
19026448 4 18335422361235235251
19433438 28 18187085048593102721
200 152 17917707981401479107
20279233 1 18334582330041024323
20645477 56 18114463345525248477
20645477 70 18201158758821812142
21065198 57 18409167679846785775
21065201 7 17603585201278933835
21079973 296 18114185267424401371
22485316 2 18411136935432238379
22854114 59 18411419531163044960
23402539 116 18040428897550865727
23402655 69 18272652342106963908
23557571 272 17749390325905161445
23559900 14 18337668603514486746
26918003 58 18411698768377502450
312423 11 17631468799190408616
3268164 11 17240474802432391631
3545911 37 18408888438147528589
4214541 1 18337110073177150565
449060 50 18411419539774201965
5104073 3 18335422344224146049
522135 26 18272933804378192158
5281201 14 18340773650110359780
542803 24 17275108327548102721
633830 44 18409442570554326831
69090 78 18411698798695864143
77779 3 18411139125765072711
90127 26 18334864900318616257
9709674 26 18335145318786593731

>  <PUBCHEM_SHAPE_MULTIPOLES>  (1) 
308.69
11.23
1.72
0.73
3.53
0.29
0
1.5
-0.05
-1.48
-0.01
0.15
0.01
1.1

>  <PUBCHEM_SHAPE_SELFOVERLAP>  (1) 
660.158

>  <PUBCHEM_SHAPE_VOLUME>  (1) 
159.6

>  <PUBCHEM_COORDINATE_TYPE>  (1) 
2
5
10

$$$$
