26462
     RDKit          3D

 33 36  0  0  0  0  0  0  0  0999 V2000
    5.3462    1.3704   -0.4540 O   0  0  0  0  0  0  0  0  0  0  0  0
    5.2668    0.2622   -2.4794 O   0  0  0  0  0  0  0  0  0  0  0  0
    0.7247   -0.5972   -1.3061 N   0  0  0  0  0  0  0  0  0  0  0  0
    3.6325   -0.2119   -0.7564 C   0  0  0  0  0  0  0  0  0  0  0  0
    3.0641   -1.1835   -1.8252 C   0  0  0  0  0  0  0  0  0  0  0  0
    2.5583    0.8890   -0.5469 C   0  0  0  0  0  0  0  0  0  0  0  0
    1.6715   -1.7068   -1.4616 C   0  0  0  0  0  0  0  0  0  0  0  0
    1.1602    0.3282   -0.2544 C   0  0  0  0  0  0  0  0  0  0  0  0
    4.1038   -0.9434    0.5091 C   0  0  0  0  0  0  0  0  0  0  0  0
   -0.6183   -1.1024   -1.0232 C   0  0  0  0  0  0  0  0  0  0  0  0
    4.8370    0.4830   -1.3553 C   0  0  0  0  0  0  0  0  0  0  0  0
   -1.6698   -0.0826   -1.4587 C   0  0  0  0  0  0  0  0  0  0  0  0
    3.5480   -0.6232    1.7478 C   0  0  0  0  0  0  0  0  0  0  0  0
    5.0883   -1.9275    0.4198 C   0  0  0  0  0  0  0  0  0  0  0  0
    3.9766   -1.2875    2.8971 C   0  0  0  0  0  0  0  0  0  0  0  0
    5.5167   -2.5918    1.5692 C   0  0  0  0  0  0  0  0  0  0  0  0
   -3.0620   -0.5902   -1.1820 C   0  0  0  0  0  0  0  0  0  0  0  0
    4.9609   -2.2717    2.8077 C   0  0  0  0  0  0  0  0  0  0  0  0
    6.4957    2.1012   -0.8927 C   0  0  0  0  0  0  0  0  0  0  0  0
   -4.0061   -0.0408   -0.3860 C   0  0  0  0  0  0  0  0  0  0  0  0
    6.9367    3.0368    0.2126 C   0  0  0  0  0  0  0  0  0  0  0  0
   -3.6666    1.2271    0.3117 C   0  0  0  0  0  0  0  0  0  0  0  0
   -5.3280   -0.6901   -0.2372 C   0  0  0  0  0  0  0  0  0  0  0  0
   -3.0916    1.1916    1.5821 C   0  0  0  0  0  0  0  0  0  0  0  0
   -6.4860   -0.0082   -0.6112 C   0  0  0  0  0  0  0  0  0  0  0  0
   -3.9231    2.4523   -0.3038 C   0  0  0  0  0  0  0  0  0  0  0  0
   -5.4158   -1.9839    0.2769 C   0  0  0  0  0  0  0  0  0  0  0  0
   -2.7734    2.3814    2.2371 C   0  0  0  0  0  0  0  0  0  0  0  0
   -7.7318   -0.6200   -0.4708 C   0  0  0  0  0  0  0  0  0  0  0  0
   -3.6047    3.6420    0.3513 C   0  0  0  0  0  0  0  0  0  0  0  0
   -6.6615   -2.5955    0.4172 C   0  0  0  0  0  0  0  0  0  0  0  0
   -3.0298    3.6064    1.6218 C   0  0  0  0  0  0  0  0  0  0  0  0
   -7.8195   -1.9134    0.0434 C   0  0  0  0  0  0  0  0  0  0  0  0
  1 11  1  0
  1 19  1  0
  2 11  2  0
  3  7  1  0
  3  8  1  0
  3 10  1  0
  4  5  1  0
  4  6  1  0
  4  9  1  0
  4 11  1  0
  5  7  1  0
  6  8  1  0
  9 13  2  0
  9 14  1  0
 10 12  1  0
 12 17  1  0
 13 15  1  0
 14 16  2  0
 15 18  2  0
 16 18  1  0
 17 20  2  3
 19 21  1  0
 20 22  1  0
 20 23  1  0
 22 24  2  0
 22 26  1  0
 23 25  2  0
 23 27  1  0
 24 28  1  0
 25 29  1  0
 26 30  2  0
 27 31  2  0
 28 32  2  0
 29 33  2  0
 30 32  1  0
 31 33  1  0
M  END
>  <PUBCHEM_COMPOUND_CID>  (1) 
26462

>  <PUBCHEM_CONFORMER_RMSD>  (1) 
1

>  <PUBCHEM_CONFORMER_DIVERSEORDER>  (1) 
1
40
19
90
24
78
25
54
62
5
63
85
48
4
49
64
57
61
56
8
93
27
20
51
39
89
21
72
7
50
94
70
58
41
79
38
87
12
47
52
13
73
65
36
18
43
10
45
29
91
22
46
30
84
80
77
26
11
67
74
16
66
83
92
88
60
55
68
32
69
53
81
14
96
34
9
82
35
59
15
33
42
23
2
71
31
3
75
86
76
95
28
44
37
17
6

>  <PUBCHEM_MMFF94_PARTIAL_CHARGES>  (1) 
46
1 -0.43
10 0.27
11 0.66
12 0.14
13 -0.15
14 -0.15
15 -0.15
16 -0.15
17 -0.29
18 -0.15
19 0.28
2 -0.57
20 -0.06
22 0.03
23 0.03
24 -0.15
25 -0.15
26 -0.15
27 -0.15
28 -0.15
29 -0.15
3 -0.81
30 -0.15
31 -0.15
32 -0.15
33 -0.15
4 0.2
46 0.15
47 0.15
48 0.15
49 0.15
50 0.15
51 0.15
57 0.15
58 0.15
59 0.15
60 0.15
61 0.15
62 0.15
63 0.15
64 0.15
65 0.15
66 0.15
7 0.27
8 0.27
9 -0.14

>  <PUBCHEM_EFFECTIVE_ROTOR_COUNT>  (1) 
10.2

>  <PUBCHEM_PHARMACOPHORE_FEATURES>  (1) 
6
1 2 acceptor
1 3 cation
6 22 24 26 28 30 32 rings
6 23 25 27 29 31 33 rings
6 3 4 5 6 7 8 rings
6 9 13 14 15 16 18 rings

>  <PUBCHEM_HEAVY_ATOM_COUNT>  (1) 
33

>  <PUBCHEM_ATOM_DEF_STEREO_COUNT>  (1) 
0

>  <PUBCHEM_ATOM_UDEF_STEREO_COUNT>  (1) 
0

>  <PUBCHEM_BOND_DEF_STEREO_COUNT>  (1) 
0

>  <PUBCHEM_BOND_UDEF_STEREO_COUNT>  (1) 
0

>  <PUBCHEM_ISOTOPIC_ATOM_COUNT>  (1) 
0

>  <PUBCHEM_COMPONENT_COUNT>  (1) 
1

>  <PUBCHEM_CACTVS_TAUTO_COUNT>  (1) 
1

>  <PUBCHEM_CONFORMER_ID>  (1) 
0000675E00000001

>  <PUBCHEM_MMFF94_ENERGY>  (1) 
93.9696

>  <PUBCHEM_FEATURE_SELFOVERLAP>  (1) 
30.448

>  <PUBCHEM_SHAPE_FINGERPRINT>  (1) 
10 15 18202559609623571367
10670039 82 18059588957396874620
11135609 201 18059006311219084572
12166972 35 17894348891429596405
12596602 18 18261108573610953459
12664476 115 16630527328077191040
13073987 5 18334010588400123196
13533116 47 17530961384411975351
13560911 23 18261954038145061800
13560911 43 18341330080230112089
13835254 42 17240755151927425884
14068700 686 18058743411896750183
14118638 360 18408889542239174884
14190465 44 18127968599557627793
14347329 18 17846787278371402496
15419008 47 17131835360783619233
15721738 202 18131637815313099257
1577012 14 18335704918987004701
16112460 7 18040150717421168178
18608769 82 17917433184824939023
19841028 212 17749102283828847491
21033648 29 17274816909542851121
21779490 81 18343026596859603371
3663271 9 18260265243987146087
3886686 26 17619905059672160363
3918712 181 18272932700318987085
4015057 19 15285652040312095191
4173938 188 17677896931840617632
4340502 62 17531521079697928414
469060 322 18201174186950591833
5104073 3 18334852780026538332
6523845 18 16343709837194090622

>  <PUBCHEM_SHAPE_MULTIPOLES>  (1) 
662.4
21.59
3.62
2.26
9.88
2.78
-1.14
-4.62
-1
0.81
-1.83
-3.54
-0.53
-3.71

>  <PUBCHEM_SHAPE_SELFOVERLAP>  (1) 
1416.954

>  <PUBCHEM_SHAPE_VOLUME>  (1) 
365

>  <PUBCHEM_COORDINATE_TYPE>  (1) 
2
5
10

$$$$
