2646
     RDKit          3D

 27 29  0  0  1  0  0  0  0  0999 V2000
    1.9308   -1.9576   -1.5813 S   0  0  0  0  0  0  0  0  0  0  0  0
    0.9336    2.3654   -0.1892 O   0  0  0  0  0  0  0  0  0  0  0  0
   -1.8437   -2.1566   -0.3880 O   0  0  0  0  0  0  0  0  0  0  0  0
    4.2471    2.3414   -0.9634 O   0  0  0  0  0  0  0  0  0  0  0  0
    4.3211    2.0239    1.3001 O   0  0  0  0  0  0  0  0  0  0  0  0
   -7.4884    1.5797   -1.1388 O   0  0  0  0  0  0  0  0  0  0  0  0
    2.0899    0.3091   -0.2087 N   0  0  0  0  0  0  0  0  0  0  0  0
   -1.0702   -0.0893    0.3220 N   0  0  0  0  0  0  0  0  0  0  0  0
   -3.4557   -2.3033    1.8507 N   0  0  0  0  0  0  0  0  0  0  0  0
    1.3167   -0.9196   -0.2365 C   0  0  0  0  0  0  0  0  0  0  0  0
    0.0955   -0.0313   -0.5582 C   0  0  0  0  0  0  0  0  0  0  0  0
    1.0449    1.1639   -0.2611 C   0  0  0  0  0  0  0  0  0  0  0  0
    3.4471    0.3474   -0.1406 C   0  0  0  0  0  0  0  0  0  0  0  0
    3.6053   -2.0854   -0.8626 C   0  0  0  0  0  0  0  0  0  0  0  0
    4.1932   -0.7550   -0.3955 C   0  0  0  0  0  0  0  0  0  0  0  0
   -1.9581   -1.1669    0.3333 C   0  0  0  0  0  0  0  0  0  0  0  0
    4.0517    1.6526    0.1772 C   0  0  0  0  0  0  0  0  0  0  0  0
   -3.1048   -0.9824    1.3213 C   0  0  0  0  0  0  0  0  0  0  0  0
    5.6385   -0.8137   -0.2802 C   0  0  0  0  0  0  0  0  0  0  0  0
   -4.2813   -0.2944    0.6606 C   0  0  0  0  0  0  0  0  0  0  0  0
    6.3096   -0.2231    0.7062 C   0  0  0  0  0  0  0  0  0  0  0  0
   -4.7307    0.9106    1.1701 C   0  0  0  0  0  0  0  0  0  0  0  0
   -4.8795   -0.8876   -0.4365 C   0  0  0  0  0  0  0  0  0  0  0  0
    7.7970   -0.2776    0.8273 C   0  0  0  0  0  0  0  0  0  0  0  0
   -5.8149    1.5435    0.5620 C   0  0  0  0  0  0  0  0  0  0  0  0
   -5.9636   -0.2547   -1.0447 C   0  0  0  0  0  0  0  0  0  0  0  0
   -6.4312    0.9609   -0.5455 C   0  0  0  0  0  0  0  0  0  0  0  0
  1 10  1  0
  1 14  1  0
  2 12  2  0
  3 16  2  0
  4 17  1  0
  5 17  2  0
  6 27  1  0
  7 10  1  0
  7 12  1  0
  7 13  1  0
  8 11  1  0
  8 16  1  0
  9 18  1  0
 10 11  1  0
 11 12  1  0
 13 15  2  0
 13 17  1  0
 14 15  1  0
 15 19  1  0
 16 18  1  0
 18 20  1  0
 19 21  2  0
 20 22  2  0
 20 23  1  0
 21 24  1  0
 22 25  1  0
 23 26  2  0
 25 27  2  0
 26 27  1  0
M  END
>  <PUBCHEM_COMPOUND_CID>  (1) 
2646

>  <PUBCHEM_CONFORMER_RMSD>  (1) 
0.8

>  <PUBCHEM_CONFORMER_DIVERSEORDER>  (1) 
1
10
38
99
118
115
95
8
31
93
85
36
86
71
48
125
46
66
92
79
119
47
62
56
44
83
102
113
124
108
117
12
105
89
94
4
24
123
72
29
90
27
126
28
74
35
81
25
106
87
70
45
52
69
97
2
11
61
77
51
116
40
41
54
104
120
127
121
103
9
107
55
20
5
57
59
22
110
7
32
50
76
26
18
109
33
23
58
6
30
88
101
78
60
114
15
53
3
100
82
19
67
43
84
42
63
17
65
37
91
68
96
122
14
73
75
49
80
34
98
64
111
16
21
112
39
13

>  <PUBCHEM_MMFF94_PARTIAL_CHARGES>  (1) 
38
1 -0.45
10 0.44
11 0.28
12 0.58
13 0.12
14 0.37
15 -0.14
16 0.57
17 0.71
18 0.47
19 -0.15
2 -0.57
20 -0.14
21 -0.29
22 -0.15
23 -0.15
24 0.14
25 -0.15
26 -0.15
27 0.08
3 -0.57
30 0.37
34 0.15
35 0.15
36 0.36
37 0.36
38 0.5
39 0.15
4 -0.65
40 0.15
44 0.15
45 0.15
46 0.45
5 -0.57
6 -0.53
7 -0.39
8 -0.65
9 -0.99

>  <PUBCHEM_EFFECTIVE_ROTOR_COUNT>  (1) 
6.6

>  <PUBCHEM_PHARMACOPHORE_FEATURES>  (1) 
13
1 2 acceptor
1 24 hydrophobe
1 3 acceptor
1 4 acceptor
1 5 acceptor
1 6 donor
1 8 donor
1 9 cation
1 9 donor
3 4 5 17 anion
4 7 10 11 12 rings
6 1 7 10 13 14 15 rings
6 20 22 23 25 26 27 rings

>  <PUBCHEM_HEAVY_ATOM_COUNT>  (1) 
27

>  <PUBCHEM_ATOM_DEF_STEREO_COUNT>  (1) 
0

>  <PUBCHEM_ATOM_UDEF_STEREO_COUNT>  (1) 
3

>  <PUBCHEM_BOND_DEF_STEREO_COUNT>  (1) 
0

>  <PUBCHEM_BOND_UDEF_STEREO_COUNT>  (1) 
1

>  <PUBCHEM_ISOTOPIC_ATOM_COUNT>  (1) 
0

>  <PUBCHEM_COMPONENT_COUNT>  (1) 
1

>  <PUBCHEM_CACTVS_TAUTO_COUNT>  (1) 
4

>  <PUBCHEM_CONFORMER_ID>  (1) 
00000A5600000001

>  <PUBCHEM_MMFF94_ENERGY>  (1) 
78.8008

>  <PUBCHEM_FEATURE_SELFOVERLAP>  (1) 
66.285

>  <PUBCHEM_SHAPE_FINGERPRINT>  (1) 
10299344 5 11818998470042510153
10591671 39 12103843475503737626
11089746 13 17846779619927664832
11315181 36 18202003239891999761
11719270 70 18202281390643735766
11796584 16 17385448726248726578
12236239 1 16917350303280523662
13140716 1 18198901608349196790
13402501 40 18335700521030326997
14117953 113 18342461418113567238
14856354 85 13479141194365372073
15142383 8 18259983765348483876
15183329 4 18411703162545719021
15238133 3 16732991907686262573
15301273 46 18343587322721792230
15461852 350 17060336357549847828
17349148 13 14836412445157906139
18335252 98 10952047874798351381
20105231 36 11891336409412412640
20157964 124 18202003196889826135
20511986 3 17917699206330080663
21150785 3 14261345864723627434
21298829 104 18059861614895098313
21859007 373 18041552525683980757
22224240 67 17846491535719303202
22950370 63 11458425743542212175
23559900 14 18411141346104870544
2838139 119 18342737399801069689
335352 9 18342178860889571766
350125 39 18413392051662419524
3633792 109 17775006726466157343
4017518 198 17418380182022547574
4073 2 18114186388205494826
4258327 124 13038323966244974378
5104073 3 18335991977009477858
5385378 56 17314227766302071883
59755656 215 18341619179300832406
59755656 520 17822006524260330523
6009941 240 17967254204088978731
6086070 43 17489300957908343752
6328613 192 18261402182034247564
7226269 152 17894632539501704137
7495541 125 8502374403743840406
9995097 60 18411419501108790996

>  <PUBCHEM_SHAPE_MULTIPOLES>  (1) 
515.21
19.36
2.3
1.26
5.61
0.22
-0.19
4.75
-0.71
-0.69
0.19
0.77
-0.3
1.15

>  <PUBCHEM_SHAPE_SELFOVERLAP>  (1) 
1089.79

>  <PUBCHEM_SHAPE_VOLUME>  (1) 
289.9

>  <PUBCHEM_COORDINATE_TYPE>  (1) 
2
5
10

$$$$
