26468
     RDKit          3D

 34 38  0  0  0  0  0  0  0  0999 V2000
    4.5396    1.6467    0.2980 O   0  0  0  0  0  0  0  0  0  0  0  0
    2.8374    1.6112   -1.2632 O   0  0  0  0  0  0  0  0  0  0  0  0
    0.4987   -0.4467    1.0474 N   0  0  0  0  0  0  0  0  0  0  0  0
    3.3160   -0.3513    0.0753 C   0  0  0  0  0  0  0  0  0  0  0  0
    2.1512   -0.9989   -0.7166 C   0  0  0  0  0  0  0  0  0  0  0  0
    2.9082   -0.3005    1.5702 C   0  0  0  0  0  0  0  0  0  0  0  0
    0.7795   -0.3957   -0.3899 C   0  0  0  0  0  0  0  0  0  0  0  0
    1.5143    0.2944    1.8014 C   0  0  0  0  0  0  0  0  0  0  0  0
   -0.8359    0.0817    1.3285 C   0  0  0  0  0  0  0  0  0  0  0  0
   -1.8784   -0.7234    0.5680 C   0  0  0  0  0  0  0  0  0  0  0  0
   -3.2899   -0.1769    0.8326 C   0  0  0  0  0  0  0  0  0  0  0  0
    4.6300   -1.1048   -0.1916 C   0  0  0  0  0  0  0  0  0  0  0  0
    3.5122    1.0767   -0.3939 C   0  0  0  0  0  0  0  0  0  0  0  0
   -4.3662   -1.1785    0.4244 C   0  0  0  0  0  0  0  0  0  0  0  0
   -3.4447    1.2606    0.3657 C   0  0  0  0  0  0  0  0  0  0  0  0
   -5.0615   -1.2160   -0.8007 C   0  0  0  0  0  0  0  0  0  0  0  0
   -3.5666    1.6183   -0.9863 C   0  0  0  0  0  0  0  0  0  0  0  0
    5.3245   -1.6823    0.8680 C   0  0  0  0  0  0  0  0  0  0  0  0
    5.1187   -1.2051   -1.4915 C   0  0  0  0  0  0  0  0  0  0  0  0
   -4.9298   -0.2365   -1.9457 C   0  0  0  0  0  0  0  0  0  0  0  0
   -3.6477    0.5743   -2.0629 C   0  0  0  0  0  0  0  0  0  0  0  0
   -4.6508   -2.1847    1.3823 C   0  0  0  0  0  0  0  0  0  0  0  0
   -3.4110    2.2873    1.3311 C   0  0  0  0  0  0  0  0  0  0  0  0
    6.5164   -2.3653    0.6257 C   0  0  0  0  0  0  0  0  0  0  0  0
    6.3105   -1.8881   -1.7336 C   0  0  0  0  0  0  0  0  0  0  0  0
   -6.0337   -2.2266   -0.9979 C   0  0  0  0  0  0  0  0  0  0  0  0
   -3.6535    2.9763   -1.3427 C   0  0  0  0  0  0  0  0  0  0  0  0
    7.0093   -2.4681   -0.6751 C   0  0  0  0  0  0  0  0  0  0  0  0
    4.8354    3.0037   -0.0473 C   0  0  0  0  0  0  0  0  0  0  0  0
   -5.6019   -3.1786    1.1592 C   0  0  0  0  0  0  0  0  0  0  0  0
   -3.5008    3.6305    0.9665 C   0  0  0  0  0  0  0  0  0  0  0  0
   -6.2997   -3.1972   -0.0352 C   0  0  0  0  0  0  0  0  0  0  0  0
   -3.6206    3.9756   -0.3728 C   0  0  0  0  0  0  0  0  0  0  0  0
    5.9909    3.4881    0.8024 C   0  0  0  0  0  0  0  0  0  0  0  0
  1 13  1  0
  1 29  1  0
  2 13  2  0
  3  7  1  0
  3  8  1  0
  3  9  1  0
  4  5  1  0
  4  6  1  0
  4 12  1  0
  4 13  1  0
  5  7  1  0
  6  8  1  0
  9 10  1  0
 10 11  1  0
 11 14  1  0
 11 15  1  0
 12 18  2  0
 12 19  1  0
 14 16  2  0
 14 22  1  0
 15 17  2  0
 15 23  1  0
 16 20  1  0
 16 26  1  0
 17 21  1  0
 17 27  1  0
 18 24  1  0
 19 25  2  0
 20 21  1  0
 22 30  2  0
 23 31  2  0
 24 28  2  0
 25 28  1  0
 26 32  2  0
 27 33  2  0
 29 34  1  0
 30 32  1  0
 31 33  1  0
M  END
>  <PUBCHEM_COMPOUND_CID>  (1) 
26468

>  <PUBCHEM_CONFORMER_RMSD>  (1) 
1

>  <PUBCHEM_CONFORMER_DIVERSEORDER>  (1) 
1
17
4
38
78
18
61
41
37
33
58
48
24
64
62
97
43
55
92
81
20
66
89
42
95
22
82
77
50
13
69
80
65
72
57
83
25
86
67
56
8
51
23
73
27
79
9
59
63
76
47
96
12
14
6
7
2
75
34
46
39
15
88
91
84
10
29
30
54
98
74
32
45
68
11
90
60
28
94
49
36
5
19
87
26
3
53
85
70
44
21
35
16
71
93
40
31
52

>  <PUBCHEM_MMFF94_PARTIAL_CHARGES>  (1) 
43
1 -0.43
11 0.29
12 -0.14
13 0.66
14 -0.14
15 -0.14
16 -0.14
17 -0.14
18 -0.15
19 -0.15
2 -0.57
20 0.14
21 0.14
22 -0.15
23 -0.15
24 -0.15
25 -0.15
26 -0.15
27 -0.15
28 -0.15
29 0.28
3 -0.81
30 -0.15
31 -0.15
32 -0.15
33 -0.15
4 0.2
48 0.15
49 0.15
54 0.15
55 0.15
56 0.15
57 0.15
58 0.15
59 0.15
60 0.15
61 0.15
62 0.15
65 0.15
66 0.15
7 0.27
8 0.27
9 0.27

>  <PUBCHEM_EFFECTIVE_ROTOR_COUNT>  (1) 
8.8

>  <PUBCHEM_PHARMACOPHORE_FEATURES>  (1) 
7
1 2 acceptor
1 3 cation
6 12 18 19 24 25 28 rings
6 14 16 22 26 30 32 rings
6 15 17 23 27 31 33 rings
6 3 4 5 6 7 8 rings
7 11 14 15 16 17 20 21 rings

>  <PUBCHEM_HEAVY_ATOM_COUNT>  (1) 
34

>  <PUBCHEM_ATOM_DEF_STEREO_COUNT>  (1) 
0

>  <PUBCHEM_ATOM_UDEF_STEREO_COUNT>  (1) 
0

>  <PUBCHEM_BOND_DEF_STEREO_COUNT>  (1) 
0

>  <PUBCHEM_BOND_UDEF_STEREO_COUNT>  (1) 
0

>  <PUBCHEM_ISOTOPIC_ATOM_COUNT>  (1) 
0

>  <PUBCHEM_COMPONENT_COUNT>  (1) 
1

>  <PUBCHEM_CACTVS_TAUTO_COUNT>  (1) 
1

>  <PUBCHEM_CONFORMER_ID>  (1) 
0000676400000001

>  <PUBCHEM_MMFF94_ENERGY>  (1) 
102.8989

>  <PUBCHEM_FEATURE_SELFOVERLAP>  (1) 
35.538

>  <PUBCHEM_SHAPE_FINGERPRINT>  (1) 
11101153 10 18338519750031727953
11545043 162 18272649013359753122
12166972 35 18412831300146405656
12342043 65 18059854012829761379
12616971 3 14979953674946936410
1361 4 18199751521240523310
13782708 43 18341615910430286998
14068700 675 18333732451230420559
14118638 360 18411140277180571240
14347332 77 18410013238970290747
15064981 194 18336274427567191885
15064986 266 18411140225957539981
15183329 4 17822858576683101846
15439362 3 17548698483190677877
15876981 60 18187376389273541725
16990350 14 16681752161387192696
16992828 155 16735230388812308013
17844677 252 18410576180190956266
19311894 1 18265337213732977769
19377110 9 11599707494221442322
19958102 18 18187082875245485083
21709351 56 18270399387026229868
22393880 68 18260827068601087754
23522609 53 17272603721537996553
3388396 114 17898594195645090541
3610482 184 17679046840387752900
4169191 19 16227200105306765510
44317340 157 18202002152896632456
497634 4 18113053818715185767
6081469 158 18202560710106033143
6086070 43 17894900803127208036

>  <PUBCHEM_SHAPE_MULTIPOLES>  (1) 
682.98
19.53
4.51
1.75
14.54
3.18
-0.27
-10.91
-3.29
-2.63
0.36
-0.67
-0.09
1.82

>  <PUBCHEM_SHAPE_SELFOVERLAP>  (1) 
1477.969

>  <PUBCHEM_SHAPE_VOLUME>  (1) 
370

>  <PUBCHEM_COORDINATE_TYPE>  (1) 
2
5
10

$$$$
