26464
     RDKit          3D

 11 10  0  0  0  0  0  0  0  0999 V2000
   -3.8109    1.3762    0.0817 O   0  0  0  0  0  0  0  0  0  0  0  0
    4.9688   -0.5914    0.0508 O   0  0  0  0  0  0  0  0  0  0  0  0
    3.8164    1.3635   -0.0750 O   0  0  0  0  0  0  0  0  0  0  0  0
    0.0072   -0.7019    0.0013 C   0  0  0  0  0  0  0  0  0  0  0  0
   -1.2569    0.1637   -0.0308 C   0  0  0  0  0  0  0  0  0  0  0  0
    1.3050    0.1147    0.0135 C   0  0  0  0  0  0  0  0  0  0  0  0
   -2.5343   -0.6759   -0.0457 C   0  0  0  0  0  0  0  0  0  0  0  0
    2.5871   -0.7127    0.0283 C   0  0  0  0  0  0  0  0  0  0  0  0
   -3.8101    0.1489    0.0006 C   0  0  0  0  0  0  0  0  0  0  0  0
    3.8292    0.1416   -0.0027 C   0  0  0  0  0  0  0  0  0  0  0  0
   -5.1016   -0.6267   -0.0221 C   0  0  0  0  0  0  0  0  0  0  0  0
  1  9  2  0
  2 10  1  0
  3 10  2  0
  4  5  1  0
  4  6  1  0
  5  7  1  0
  6  8  1  0
  7  9  1  0
  8 10  1  0
  9 11  1  0
M  END
>  <PUBCHEM_COMPOUND_CID>  (1) 
26464

>  <PUBCHEM_CONFORMER_RMSD>  (1) 
0.6

>  <PUBCHEM_CONFORMER_DIVERSEORDER>  (1) 
1
237
200
5
228
68
173
226
12
236
91
7
31
230
23
179
147
69
180
10
239
44
194
208
171
231
64
118
197
4
151
19
184
238
35
189
140
213
145
225
15
21
203
172
48
137
198
149
219
210
60
159
41
204
52
30
138
218
190
29
227
26
61
87
233
108
13
161
234
131
63
170
130
201
187
143
148
168
111
185
178
217
34
193
83
205
153
46
164
207
202
232
82
132
47
112
216
45
92
221
175
58
134
229
120
212
165
6
66
99
100
14
96
75
94
55
37
51
220
136
224
156
22
8
215
139
223
141
209
85
36
109
135
105
169
222
11
174
160
40
71
32
95
199
117
20
128
49
88
206
65
122
110
167
56
195
127
133
183
38
191
70
43
181
182
62
98
54
211
9
17
188
106
157
152
154
163
24
142
90
104
76
67
235
214
114
196
192
93
73
150
18
27
103
166
89
115
25
33
3
119
59
126
77
155
101
176
121
57
81
16
123
107
86
102
39
125
186
80
116
74
53
124
42
78
28
50
97
113
79
2
162
146
129
72
84
177
144
158

>  <PUBCHEM_MMFF94_PARTIAL_CHARGES>  (1) 
9
1 -0.57
10 0.66
11 0.06
2 -0.65
25 0.5
3 -0.57
7 0.06
8 0.06
9 0.45

>  <PUBCHEM_EFFECTIVE_ROTOR_COUNT>  (1) 
6

>  <PUBCHEM_PHARMACOPHORE_FEATURES>  (1) 
5
1 1 acceptor
1 2 acceptor
1 3 acceptor
3 2 3 10 anion
5 4 5 6 7 8 hydrophobe

>  <PUBCHEM_HEAVY_ATOM_COUNT>  (1) 
11

>  <PUBCHEM_ATOM_DEF_STEREO_COUNT>  (1) 
0

>  <PUBCHEM_ATOM_UDEF_STEREO_COUNT>  (1) 
0

>  <PUBCHEM_BOND_DEF_STEREO_COUNT>  (1) 
0

>  <PUBCHEM_BOND_UDEF_STEREO_COUNT>  (1) 
0

>  <PUBCHEM_ISOTOPIC_ATOM_COUNT>  (1) 
0

>  <PUBCHEM_COMPONENT_COUNT>  (1) 
1

>  <PUBCHEM_CACTVS_TAUTO_COUNT>  (1) 
3

>  <PUBCHEM_CONFORMER_ID>  (1) 
0000676000000001

>  <PUBCHEM_MMFF94_ENERGY>  (1) 
5.225

>  <PUBCHEM_FEATURE_SELFOVERLAP>  (1) 
25.43

>  <PUBCHEM_SHAPE_FINGERPRINT>  (1) 
11062470 55 18410856559639874018
114248 4 17846498149230103523
13081056 2 18410855473076653076
14123238 8 18186521016302680471
17834072 33 18341047510099504999
17834076 25 17676490553531966382
20645477 70 18129947775984472606
20719005 15 18410573989478183879
23402539 116 18412538826111826111
23402655 69 18272652350844688996
42788 4 18410855464428429831
449060 50 18411421713222832671
77779 3 18410856559687385775

>  <PUBCHEM_SHAPE_MULTIPOLES>  (1) 
208.77
11.42
1.07
0.59
0.19
0.25
0
0.39
0.04
-0.05
0
-0.05
-0.02
-0.09

>  <PUBCHEM_SHAPE_SELFOVERLAP>  (1) 
385.383

>  <PUBCHEM_SHAPE_VOLUME>  (1) 
131.2

>  <PUBCHEM_COORDINATE_TYPE>  (1) 
2
5
10

$$$$
