26470
     RDKit          3D

 36 40  0  0  0  0  0  0  0  0999 V2000
    5.9011    1.2930    1.0235 O   0  0  0  0  0  0  0  0  0  0  0  0
    5.3412    2.4122   -0.9183 O   0  0  0  0  0  0  0  0  0  0  0  0
   -2.6168   -1.7690   -0.6123 O   0  0  0  0  0  0  0  0  0  0  0  0
    1.1933    0.0938   -0.5107 N   0  0  0  0  0  0  0  0  0  0  0  0
    4.1519    0.4038   -0.2731 C   0  0  0  0  0  0  0  0  0  0  0  0
    3.1653    0.5750    0.9131 C   0  0  0  0  0  0  0  0  0  0  0  0
    3.3415    0.6937   -1.5648 C   0  0  0  0  0  0  0  0  0  0  0  0
    1.8700   -0.2316    0.7495 C   0  0  0  0  0  0  0  0  0  0  0  0
    2.0687   -0.1525   -1.6617 C   0  0  0  0  0  0  0  0  0  0  0  0
    4.9007   -0.9355   -0.3391 C   0  0  0  0  0  0  0  0  0  0  0  0
   -0.0500   -0.6656   -0.6379 C   0  0  0  0  0  0  0  0  0  0  0  0
    5.1882    1.4970   -0.1206 C   0  0  0  0  0  0  0  0  0  0  0  0
   -1.1676    0.0118    0.1483 C   0  0  0  0  0  0  0  0  0  0  0  0
   -3.6580   -0.1093    0.7402 C   0  0  0  0  0  0  0  0  0  0  0  0
   -2.4901   -0.7257    0.0269 C   0  0  0  0  0  0  0  0  0  0  0  0
    4.6526   -1.9212    0.6164 C   0  0  0  0  0  0  0  0  0  0  0  0
    5.8291   -1.1662   -1.3543 C   0  0  0  0  0  0  0  0  0  0  0  0
   -4.8875   -1.0024    0.6816 C   0  0  0  0  0  0  0  0  0  0  0  0
   -3.8436    1.3460    0.3585 C   0  0  0  0  0  0  0  0  0  0  0  0
   -5.8752   -0.9888   -0.3247 C   0  0  0  0  0  0  0  0  0  0  0  0
   -4.2977    1.7349   -0.9126 C   0  0  0  0  0  0  0  0  0  0  0  0
   -5.9486   -0.0456   -1.5071 C   0  0  0  0  0  0  0  0  0  0  0  0
   -4.6939    0.7061   -1.9341 C   0  0  0  0  0  0  0  0  0  0  0  0
    5.3332   -3.1374    0.5564 C   0  0  0  0  0  0  0  0  0  0  0  0
    6.5094   -2.3825   -1.4141 C   0  0  0  0  0  0  0  0  0  0  0  0
    6.2615   -3.3679   -0.4589 C   0  0  0  0  0  0  0  0  0  0  0  0
    6.9217    2.2595    1.2926 C   0  0  0  0  0  0  0  0  0  0  0  0
   -5.0015   -1.9594    1.7195 C   0  0  0  0  0  0  0  0  0  0  0  0
   -3.5146    2.3460    1.2931 C   0  0  0  0  0  0  0  0  0  0  0  0
   -6.9526   -1.9011   -0.2274 C   0  0  0  0  0  0  0  0  0  0  0  0
   -4.4144    3.1003   -1.2231 C   0  0  0  0  0  0  0  0  0  0  0  0
   -6.0659   -2.8565    1.7863 C   0  0  0  0  0  0  0  0  0  0  0  0
   -3.6357    3.6986    0.9749 C   0  0  0  0  0  0  0  0  0  0  0  0
   -7.0477   -2.8247    0.8111 C   0  0  0  0  0  0  0  0  0  0  0  0
   -4.0845    4.0760   -0.2847 C   0  0  0  0  0  0  0  0  0  0  0  0
    7.6165    1.8954    2.5875 C   0  0  0  0  0  0  0  0  0  0  0  0
  1 12  1  0
  1 27  1  0
  2 12  2  0
  3 15  2  0
  4  8  1  0
  4  9  1  0
  4 11  1  0
  5  6  1  0
  5  7  1  0
  5 10  1  0
  5 12  1  0
  6  8  1  0
  7  9  1  0
 10 16  2  0
 10 17  1  0
 11 13  1  0
 13 15  1  0
 14 15  1  0
 14 18  1  0
 14 19  1  0
 16 24  1  0
 17 25  2  0
 18 20  2  0
 18 28  1  0
 19 21  2  0
 19 29  1  0
 20 22  1  0
 20 30  1  0
 21 23  1  0
 21 31  1  0
 22 23  1  0
 24 26  2  0
 25 26  1  0
 27 36  1  0
 28 32  2  0
 29 33  2  0
 30 34  2  0
 31 35  2  0
 32 34  1  0
 33 35  1  0
M  END
>  <PUBCHEM_COMPOUND_CID>  (1) 
26470

>  <PUBCHEM_CONFORMER_RMSD>  (1) 
1

>  <PUBCHEM_CONFORMER_DIVERSEORDER>  (1) 
1
330
130
189
251
290
181
115
155
95
246
75
122
186
231
148
53
314
236
19
29
276
253
172
224
201
139
300
233
202
217
162
214
117
188
329
229
126
66
91
149
247
271
282
281
60
47
242
308
240
287
156
65
78
40
80
118
166
174
234
64
72
232
279
146
167
317
140
274
106
241
212
313
137
7
170
215
320
322
15
94
71
141
198
108
46
280
131
178
227
289
93
226
133
113
81
237
147
299
255
285
185
124
35
153
323
228
177
154
89
303
196
22
193
54
328
222
239
74
120
165
277
142
150
77
160
58
92
79
270
14
48
25
9
102
256
220
97
82
312
269
195
17
61
116
84
230
179
63
129
264
316
296
301
158
96
168
218
309
135
216
11
263
183
238
101
57
45
302
297
267
209
161
284
180
105
262
305
275
243
171
125
51
100
70
182
291
204
268
112
38
315
69
62
258
13
206
23
324
163
207
292
321
210
319
326
123
173
83
43
56
298
4
119
98
2
103
265
10
273
138
278
39
252
110
55
293
176
24
286
259
199
197
219
59
73
327
283
164
307
244
90
211
8
12
310
294
34
175
67
318
151
225
325
114
144
249
121
41
266
36
221
261
208
111
85
37
109
187
157
27
87
203
26
272
127
194
3
257
311
169
143
145
223
200
134
21
306
205
192
44
128
68
152
99
159
213
136
16
50
250
52
31
235
132
5
28
191
76
254
248
33
260
20
42
304
190
30
245
288
104
32
295
88
107
86
184
6
49
18

>  <PUBCHEM_MMFF94_PARTIAL_CHARGES>  (1) 
46
1 -0.43
10 -0.14
11 0.27
12 0.66
13 0.06
14 0.35
15 0.45
16 -0.15
17 -0.15
18 -0.14
19 -0.14
2 -0.57
20 -0.14
21 -0.14
22 0.14
23 0.14
24 -0.15
25 -0.15
26 -0.15
27 0.28
28 -0.15
29 -0.15
3 -0.57
30 -0.15
31 -0.15
32 -0.15
33 -0.15
34 -0.15
35 -0.15
4 -0.81
5 0.2
50 0.15
51 0.15
56 0.15
57 0.15
58 0.15
61 0.15
62 0.15
63 0.15
64 0.15
65 0.15
66 0.15
67 0.15
68 0.15
8 0.27
9 0.27

>  <PUBCHEM_EFFECTIVE_ROTOR_COUNT>  (1) 
9.8

>  <PUBCHEM_PHARMACOPHORE_FEATURES>  (1) 
8
1 2 acceptor
1 3 acceptor
1 4 cation
6 10 16 17 24 25 26 rings
6 18 20 28 30 32 34 rings
6 19 21 29 31 33 35 rings
6 4 5 6 7 8 9 rings
7 14 18 19 20 21 22 23 rings

>  <PUBCHEM_HEAVY_ATOM_COUNT>  (1) 
36

>  <PUBCHEM_ATOM_DEF_STEREO_COUNT>  (1) 
0

>  <PUBCHEM_ATOM_UDEF_STEREO_COUNT>  (1) 
0

>  <PUBCHEM_BOND_DEF_STEREO_COUNT>  (1) 
0

>  <PUBCHEM_BOND_UDEF_STEREO_COUNT>  (1) 
0

>  <PUBCHEM_ISOTOPIC_ATOM_COUNT>  (1) 
0

>  <PUBCHEM_COMPONENT_COUNT>  (1) 
1

>  <PUBCHEM_CACTVS_TAUTO_COUNT>  (1) 
3

>  <PUBCHEM_CONFORMER_ID>  (1) 
0000676600000001

>  <PUBCHEM_MMFF94_ENERGY>  (1) 
100.9356

>  <PUBCHEM_FEATURE_SELFOVERLAP>  (1) 
40.613

>  <PUBCHEM_SHAPE_FINGERPRINT>  (1) 
11545043 162 18341051826362224467
12128747 34 18410013238859644314
12166972 35 18333456447403858517
12655364 131 16154531117677872793
13073987 5 18413671305433870744
13782708 43 18343588416809837974
13811026 1 18410288112471198732
13835254 42 18341898476724609280
14040222 383 18260267452481967426
14118638 360 18413393150630475040
14347332 77 18409453587768017583
15064986 266 18410296874848392173
15131766 46 16627976607546982169
15183329 4 17822296726009128550
15439362 3 17618506481007710125
17844677 252 18409175397966222916
21814621 53 18340202995270309738
21927370 108 18187944897884905641
23081809 10 16415761929231465670
23569943 247 17533771603680156442
249057 25 17385726923674812212
3418910 222 18189344622314516236
4144715 1 18336271167132314136
4197921 191 18334021622123660076
4918590 53 18411696565565682064
497634 4 17967251979907881495
5104073 3 18341335504926222648
5109719 28 18057320802928313040
531348 171 18200306616236213719
6698420 124 18123470480488258361
77296 10 18409170978476634186

>  <PUBCHEM_SHAPE_MULTIPOLES>  (1) 
718.27
23.85
4.32
1.79
13.85
1.36
0.23
-6.75
3.68
-1.99
0.96
0.68
0.3
4.28

>  <PUBCHEM_SHAPE_SELFOVERLAP>  (1) 
1554.201

>  <PUBCHEM_SHAPE_VOLUME>  (1) 
388.8

>  <PUBCHEM_COORDINATE_TYPE>  (1) 
2
5
10

$$$$
