2647
     RDKit          3D

 25 27  0  0  1  0  0  0  0  0999 V2000
    1.9620    1.9929    1.3506 S   0  0  0  0  0  0  0  0  0  0  0  0
    1.0067   -2.4543    0.3019 O   0  0  0  0  0  0  0  0  0  0  0  0
    5.5797    0.7082    0.0991 O   0  0  0  0  0  0  0  0  0  0  0  0
   -1.8463    2.0310    0.2917 O   0  0  0  0  0  0  0  0  0  0  0  0
    3.3572   -2.4743   -0.9179 O   0  0  0  0  0  0  0  0  0  0  0  0
    5.2500   -1.9606    0.2584 O   0  0  0  0  0  0  0  0  0  0  0  0
    2.1207   -0.3830    0.1575 N   0  0  0  0  0  0  0  0  0  0  0  0
   -1.0626   -0.0701   -0.2992 N   0  0  0  0  0  0  0  0  0  0  0  0
   -3.5415    2.0355   -1.8373 N   0  0  0  0  0  0  0  0  0  0  0  0
    1.3271    0.8333    0.1144 C   0  0  0  0  0  0  0  0  0  0  0  0
    0.1335   -0.0488    0.5421 C   0  0  0  0  0  0  0  0  0  0  0  0
    1.0946   -1.2489    0.2932 C   0  0  0  0  0  0  0  0  0  0  0  0
    3.4720   -0.3954    0.0610 C   0  0  0  0  0  0  0  0  0  0  0  0
    3.6235    2.0831    0.5890 C   0  0  0  0  0  0  0  0  0  0  0  0
    4.2001    0.7290    0.2205 C   0  0  0  0  0  0  0  0  0  0  0  0
   -1.9672    0.9904   -0.3541 C   0  0  0  0  0  0  0  0  0  0  0  0
   -3.1356    0.7407   -1.2981 C   0  0  0  0  0  0  0  0  0  0  0  0
   -4.2307    0.0749   -0.5330 C   0  0  0  0  0  0  0  0  0  0  0  0
    4.1472   -1.6784   -0.1691 C   0  0  0  0  0  0  0  0  0  0  0  0
   -4.7639    0.8339    0.6589 C   0  0  0  0  0  0  0  0  0  0  0  0
   -4.7138   -1.1300   -0.8845 C   0  0  0  0  0  0  0  0  0  0  0  0
   -5.8131   -1.8344   -0.1429 C   0  0  0  0  0  0  0  0  0  0  0  0
   -5.8633    0.1280    1.3981 C   0  0  0  0  0  0  0  0  0  0  0  0
   -6.3359   -1.0729    1.0377 C   0  0  0  0  0  0  0  0  0  0  0  0
    5.9999    1.5700   -0.9381 C   0  0  0  0  0  0  0  0  0  0  0  0
  1 10  1  0
  1 14  1  0
  2 12  2  0
  3 15  1  0
  3 25  1  0
  4 16  2  0
  5 19  1  0
  6 19  2  0
  7 10  1  0
  7 12  1  0
  7 13  1  0
  8 11  1  0
  8 16  1  0
  9 17  1  0
 10 11  1  0
 11 12  1  0
 13 15  2  0
 13 19  1  0
 14 15  1  0
 16 17  1  0
 17 18  1  0
 18 20  1  0
 18 21  2  0
 20 23  1  0
 21 22  1  0
 22 24  1  0
 23 24  2  0
M  END
>  <PUBCHEM_COMPOUND_CID>  (1) 
2647

>  <PUBCHEM_CONFORMER_RMSD>  (1) 
0.8

>  <PUBCHEM_CONFORMER_DIVERSEORDER>  (1) 
1
44
55
65
92
60
124
90
2
57
67
115
29
116
20
84
121
81
85
112
97
58
19
56
21
69
72
28
63
111
108
11
107
91
78
53
32
62
16
101
51
24
73
42
83
31
120
114
48
17
100
99
71
8
59
30
87
117
6
46
74
22
82
40
88
109
27
4
23
3
105
110
103
45
26
89
34
79
66
123
25
54
37
33
36
49
95
98
35
113
106
39
9
75
13
104
119
12
10
15
118
5
80
38
122
50
76
64
43
93
94
77
52
102
70
61
7
86
47
18
96
68
41
14

>  <PUBCHEM_MMFF94_PARTIAL_CHARGES>  (1) 
32
1 -0.45
10 0.44
11 0.28
12 0.58
13 0.12
14 0.37
15 -0.06
16 0.57
17 0.47
18 -0.28
19 0.71
2 -0.57
20 0.28
21 -0.29
22 0.28
23 -0.29
24 -0.29
25 0.28
28 0.37
3 -0.36
34 0.15
35 0.36
36 0.36
39 0.15
4 -0.57
40 0.15
44 0.5
5 -0.65
6 -0.57
7 -0.39
8 -0.65
9 -0.99

>  <PUBCHEM_EFFECTIVE_ROTOR_COUNT>  (1) 
7

>  <PUBCHEM_PHARMACOPHORE_FEATURES>  (1) 
12
1 2 acceptor
1 3 acceptor
1 4 acceptor
1 5 acceptor
1 6 acceptor
1 8 donor
1 9 cation
1 9 donor
3 5 6 19 anion
4 7 10 11 12 rings
6 1 7 10 13 14 15 rings
6 18 20 21 22 23 24 rings

>  <PUBCHEM_HEAVY_ATOM_COUNT>  (1) 
25

>  <PUBCHEM_ATOM_DEF_STEREO_COUNT>  (1) 
0

>  <PUBCHEM_ATOM_UDEF_STEREO_COUNT>  (1) 
3

>  <PUBCHEM_BOND_DEF_STEREO_COUNT>  (1) 
0

>  <PUBCHEM_BOND_UDEF_STEREO_COUNT>  (1) 
0

>  <PUBCHEM_ISOTOPIC_ATOM_COUNT>  (1) 
0

>  <PUBCHEM_COMPONENT_COUNT>  (1) 
1

>  <PUBCHEM_CACTVS_TAUTO_COUNT>  (1) 
2

>  <PUBCHEM_CONFORMER_ID>  (1) 
00000A5700000001

>  <PUBCHEM_MMFF94_ENERGY>  (1) 
56.1443

>  <PUBCHEM_FEATURE_SELFOVERLAP>  (1) 
61.224

>  <PUBCHEM_SHAPE_FINGERPRINT>  (1) 
11089746 13 8718833071876452573
11370993 144 18343025463394346803
11552529 35 17416112009793217247
11578080 2 16484703640903615274
12107183 9 17626963975850871667
12166972 35 17967255291143381692
12236239 1 17203612600783905424
12403259 415 18186799140994014301
12596602 18 17846222189724786987
12616971 3 17561357379214315445
12730499 353 18411702123411520840
12788726 201 16630257917584630883
12916748 109 17676207970189923204
13402501 40 18335143115763672787
13782708 43 17895192139280791370
14251758 9 13614525147203107265
14341114 176 18342462521582577457
14849402 71 18058166309683931296
15142383 8 16702307823541512265
15183329 4 17775284967126649061
15250474 111 17703494584790889495
15537594 2 17989201564201796221
15799311 1 18270413783656697479
15880784 105 18342460370252504907
17349148 13 15936414420696702893
17844677 252 18411140195333586613
18222031 100 16515402967085322183
18335252 98 18260837037141352899
18608769 82 18337110197615164250
19489759 90 13117993410177331517
20645477 70 18342177726865484230
21267235 1 18271812272870035326
21623969 137 18410299111560898547
221490 88 18340482283554810837
22393880 68 18115014191653999207
22950370 63 18273496775811711777
23522609 53 18127157296893173177
23559900 14 18266161860364506985
34797466 226 17023192646839271404
350125 39 18411702109867365833
3545911 37 18409449215369802492
3737641 26 18342179916923946983
4073 2 18260274053334647699
4093350 32 16200155443652740104
4325135 7 18333733554525091717
46194498 28 18040715909194621812
484989 97 18336838550004278922
5104073 3 18341605967279901384
5281201 14 18334009471640398876
5312625 73 18410009961614500362
59755656 215 18411423950927284402
7495541 125 18413666920045362760
9996256 80 18411698811554164915

>  <PUBCHEM_SHAPE_MULTIPOLES>  (1) 
474.05
16.01
2.46
1.18
7.32
0.59
-0.14
2.26
0.6
-1.88
-0.09
1.14
-0.45
0.61

>  <PUBCHEM_SHAPE_SELFOVERLAP>  (1) 
993.883

>  <PUBCHEM_SHAPE_VOLUME>  (1) 
268.8

>  <PUBCHEM_COORDINATE_TYPE>  (1) 
2
5
10

$$$$
