26486
     RDKit          3D

 20 20  0  0  1  0  0  0  0  0999 V2000
    1.5003   -0.6722    2.6787 S   0  0  0  0  0  0  0  0  0  0  0  0
    1.4454    0.0354    0.8513 P   0  0  0  0  0  0  0  0  0  0  0  0
   -0.0002    0.6648    0.4478 O   0  0  0  0  0  0  0  0  0  0  0  0
    2.3495    1.3869    0.6785 O   0  0  0  0  0  0  0  0  0  0  0  0
   -3.4395    2.6254   -0.5384 O   0  0  0  0  0  0  0  0  0  0  0  0
   -1.3126    2.7095   -0.0016 O   0  0  0  0  0  0  0  0  0  0  0  0
    1.9013   -0.9608   -0.4051 N   0  0  0  0  0  0  0  0  0  0  0  0
   -2.3616    2.0627   -0.2323 N   0  0  0  0  0  0  0  0  0  0  0  0
    3.1644   -1.6816   -0.3491 C   0  0  0  0  0  0  0  0  0  0  0  0
    4.3277   -0.7326   -0.6228 C   0  0  0  0  0  0  0  0  0  0  0  0
    3.1415   -2.8257   -1.3577 C   0  0  0  0  0  0  0  0  0  0  0  0
   -1.1553   -0.0257    0.1932 C   0  0  0  0  0  0  0  0  0  0  0  0
   -2.3280    0.6439   -0.1432 C   0  0  0  0  0  0  0  0  0  0  0  0
   -1.1359   -1.4149    0.2771 C   0  0  0  0  0  0  0  0  0  0  0  0
   -2.2994   -2.1406    0.0222 C   0  0  0  0  0  0  0  0  0  0  0  0
    2.2581    2.1647   -0.5042 C   0  0  0  0  0  0  0  0  0  0  0  0
   -3.4916   -0.0819   -0.3981 C   0  0  0  0  0  0  0  0  0  0  0  0
   -3.4773   -1.4742   -0.3154 C   0  0  0  0  0  0  0  0  0  0  0  0
   -2.2845   -3.6294    0.1103 C   0  0  0  0  0  0  0  0  0  0  0  0
    3.1977    3.3462   -0.3913 C   0  0  0  0  0  0  0  0  0  0  0  0
  1  2  2  0
  2  3  1  0
  2  4  1  0
  2  7  1  0
  3 12  1  0
  4 16  1  0
  5  8  1  0
  6  8  2  0
  7  9  1  0
  8 13  1  0
  9 10  1  0
  9 11  1  0
 12 13  2  0
 12 14  1  0
 13 17  1  0
 14 15  2  0
 15 18  1  0
 15 19  1  0
 16 20  1  0
 17 18  2  0
M  CHG  2   5  -1   8   1
M  END
>  <PUBCHEM_COMPOUND_CID>  (1) 
26486

>  <PUBCHEM_CONFORMER_RMSD>  (1) 
0.8

>  <PUBCHEM_CONFORMER_DIVERSEORDER>  (1) 
1
29
39
17
22
31
20
26
42
49
32
15
25
50
18
48
23
12
33
19
30
45
43
52
34
28
7
37
13
8
3
47
40
51
11
24
21
46
4
44
41
14
36
6
2
9
10
16
5
27
38
35

>  <PUBCHEM_MMFF94_PARTIAL_CHARGES>  (1) 
21
1 -0.68
12 0.08
13 0.13
14 -0.15
15 -0.14
16 0.28
17 -0.15
18 -0.15
19 0.14
2 1.49
22 0.36
29 0.15
3 -0.35
32 0.15
33 0.15
4 -0.55
5 -0.52
6 -0.52
7 -0.9
8 0.91
9 0.27

>  <PUBCHEM_EFFECTIVE_ROTOR_COUNT>  (1) 
7

>  <PUBCHEM_PHARMACOPHORE_FEATURES>  (1) 
5
1 5 acceptor
1 5 anion
1 6 acceptor
3 9 10 11 hydrophobe
6 12 13 14 15 17 18 rings

>  <PUBCHEM_HEAVY_ATOM_COUNT>  (1) 
20

>  <PUBCHEM_ATOM_DEF_STEREO_COUNT>  (1) 
0

>  <PUBCHEM_ATOM_UDEF_STEREO_COUNT>  (1) 
1

>  <PUBCHEM_BOND_DEF_STEREO_COUNT>  (1) 
0

>  <PUBCHEM_BOND_UDEF_STEREO_COUNT>  (1) 
0

>  <PUBCHEM_ISOTOPIC_ATOM_COUNT>  (1) 
0

>  <PUBCHEM_COMPONENT_COUNT>  (1) 
1

>  <PUBCHEM_CACTVS_TAUTO_COUNT>  (1) 
2

>  <PUBCHEM_CONFORMER_ID>  (1) 
0000677600000001

>  <PUBCHEM_MMFF94_ENERGY>  (1) 
35.746

>  <PUBCHEM_FEATURE_SELFOVERLAP>  (1) 
25.453

>  <PUBCHEM_SHAPE_FINGERPRINT>  (1) 
10616163 171 18194965364272099580
10756046 5 18409736153270782668
14251745 187 18127684929261226302
14787075 74 17176020571238337259
14790565 3 17763756390226285856
15375462 6 18268431415556981518
16752209 62 18264471928652681899
16945 1 18336532833967970363
19591789 44 17618507584244293807
19930381 70 17906738359754514052
20344682 6 17906739459323806688
20600515 1 18051385411147931520
20871999 31 18339083674873894070
221490 88 18338807835305836150
22802520 49 18341615940283593867
23419403 2 15042750379434726018
23526113 38 17558541401192336490
23557571 272 18199446896389353673
23558518 356 18115030821741222912
23559900 14 18341607135837766860
2748010 2 18267857457929902195
3060560 45 17975967670662474541
34934 24 18120085345835351579
350125 39 18339370656473464209
4280585 95 18195815068651293422
5262128 65 18408889550812986138
58051976 378 18338508772173895014
59755656 215 18336826506741472516
7364860 26 18340769342490406564
74978 22 18336259055108137993
81228 2 18340190995290174083
9709674 26 18412827992721232302

>  <PUBCHEM_SHAPE_MULTIPOLES>  (1) 
385.85
7.15
4.08
1.31
0.95
0.77
1.07
-0.6
-2.13
0.26
-1.2
1.12
-0.56
0.73

>  <PUBCHEM_SHAPE_SELFOVERLAP>  (1) 
751.689

>  <PUBCHEM_SHAPE_VOLUME>  (1) 
236

>  <PUBCHEM_COORDINATE_TYPE>  (1) 
2
5
10

$$$$
