26490
     RDKit          3D

 14 14  0  0  1  0  0  0  0  0999 V2000
   -0.8929    0.4401   -0.3772 N   0  0  0  0  0  0  0  0  0  0  0  0
    2.6098    0.0476   -0.4816 N   0  0  0  0  0  0  0  0  0  0  0  0
    4.0818   -1.7379   -0.3517 N   0  0  0  0  0  0  0  0  0  0  0  0
    3.6640   -0.5988    1.5778 N   0  0  0  0  0  0  0  0  0  0  0  0
   -2.7224   -1.1698    0.0972 C   0  0  0  0  0  0  0  0  0  0  0  0
   -1.8454   -0.5059   -0.9777 C   0  0  0  0  0  0  0  0  0  0  0  0
   -3.4487   -0.1088    0.9312 C   0  0  0  0  0  0  0  0  0  0  0  0
   -2.4566    0.9123    1.4778 C   0  0  0  0  0  0  0  0  0  0  0  0
   -1.5915    1.4994    0.3628 C   0  0  0  0  0  0  0  0  0  0  0  0
   -0.0291    1.0192   -1.4059 C   0  0  0  0  0  0  0  0  0  0  0  0
   -3.7226   -2.1335   -0.5387 C   0  0  0  0  0  0  0  0  0  0  0  0
    1.0404    1.9033   -0.7624 C   0  0  0  0  0  0  0  0  0  0  0  0
    1.9179    1.1315    0.2177 C   0  0  0  0  0  0  0  0  0  0  0  0
    3.3954   -0.6986    0.2308 C   0  0  0  0  0  0  0  0  0  0  0  0
  1  6  1  0
  1  9  1  0
  1 10  1  0
  2 13  1  0
  2 14  2  3
  3 14  1  0
  4 14  1  0
  5  6  1  0
  5  7  1  0
  5 11  1  0
  7  8  1  0
  8  9  1  0
 10 12  1  0
 12 13  1  0
M  END
>  <PUBCHEM_COMPOUND_CID>  (1) 
26490

>  <PUBCHEM_CONFORMER_RMSD>  (1) 
0.6

>  <PUBCHEM_CONFORMER_DIVERSEORDER>  (1) 
2
4
177
180
147
158
139
154
102
178
132
94
195
191
7
159
16
137
99
72
188
82
101
123
28
208
18
70
57
153
63
157
30
181
162
202
196
11
156
165
80
10
146
1
151
15
164
97
38
198
190
53
163
204
89
35
133
170
3
14
187
149
77
56
128
34
155
90
174
171
115
173
200
95
25
194
86
52
44
104
205
75
186
93
26
184
113
33
143
150
78
92
192
98
84
71
79
117
140
42
118
83
121
148
207
20
136
189
111
134
182
69
100
23
54
144
65
107
183
45
103
114
199
127
74
6
125
161
85
201
67
203
131
108
172
96
145
142
206
40
55
27
9
135
120
50
176
175
17
105
36
168
5
73
29
41
112
129
87
193
109
119
167
21
31
32
81
13
141
179
12
64
197
124
46
166
130
106
76
19
8
138
185
88
160
152
62
37
68
24
66
22
49
122
51
48
169
39
58
126
61
116
91
47
110
59
43
60

>  <PUBCHEM_MMFF94_PARTIAL_CHARGES>  (1) 
13
1 -0.81
10 0.27
13 0.25
14 0.55
2 -0.7
3 -0.85
33 0.4
34 0.4
35 0.4
36 0.4
4 -0.85
6 0.27
9 0.27

>  <PUBCHEM_EFFECTIVE_ROTOR_COUNT>  (1) 
5.2

>  <PUBCHEM_PHARMACOPHORE_FEATURES>  (1) 
5
1 1 cation
1 3 donor
1 4 donor
4 2 3 4 14 cation
6 1 5 6 7 8 9 rings

>  <PUBCHEM_HEAVY_ATOM_COUNT>  (1) 
14

>  <PUBCHEM_ATOM_DEF_STEREO_COUNT>  (1) 
0

>  <PUBCHEM_ATOM_UDEF_STEREO_COUNT>  (1) 
1

>  <PUBCHEM_BOND_DEF_STEREO_COUNT>  (1) 
0

>  <PUBCHEM_BOND_UDEF_STEREO_COUNT>  (1) 
0

>  <PUBCHEM_ISOTOPIC_ATOM_COUNT>  (1) 
0

>  <PUBCHEM_COMPONENT_COUNT>  (1) 
1

>  <PUBCHEM_CACTVS_TAUTO_COUNT>  (1) 
2

>  <PUBCHEM_CONFORMER_ID>  (1) 
0000677A00000002

>  <PUBCHEM_MMFF94_ENERGY>  (1) 
20.8011

>  <PUBCHEM_FEATURE_SELFOVERLAP>  (1) 
25.428

>  <PUBCHEM_SHAPE_FINGERPRINT>  (1) 
10149128 111 11527945664431827882
10857977 72 16772692060035529485
11127187 94 15285359535316003153
11137873 295 17748821930149310663
11715629 250 9151179726946709058
11769659 78 18337389447809287045
12006461 19 18411140233919519014
12186901 62 12685088185967548099
12553582 1 18040157292725499482
12596599 1 18410856538386941362
12824470 246 18193556890373180315
12892183 10 17561078112093498546
13296909 8 17847058874575029861
14123260 362 10879986990925926266
15239191 94 18259987054808272466
18186145 218 14201390608068101125
19107657 9 11671779407748816082
19766037 51 16732991924396853912
20281407 28 18187362087106064348
20281475 54 18409731738350039206
20291156 8 18408044004822601874
20361792 2 17748829613576985924
20645477 70 17969213606887552791
20671657 53 17821997757371716685
20711985 344 16661468637175801605
20828058 19 18334292110737544477
21524375 3 11600002128988698980
21713013 43 14924240325408278978
22169311 14 17561083553748341432
22445834 79 18340775952012454597
22485316 2 18186518795904958124
23500284 214 12031786993667108526
23503958 8 18202285779519901194
4072396 5 17703240611069698279
449060 23 18333732403389512002
528716 315 11386374754921333929
90316 7 18060149738576544689

>  <PUBCHEM_SHAPE_MULTIPOLES>  (1) 
268.19
7.47
2
1.31
3.75
0.27
-0.19
4.97
-1.81
-0.2
0.29
-0.09
-0.21
-0.95

>  <PUBCHEM_SHAPE_SELFOVERLAP>  (1) 
517.434

>  <PUBCHEM_SHAPE_VOLUME>  (1) 
158.4

>  <PUBCHEM_COORDINATE_TYPE>  (1) 
2
5
10

$$$$
