26508
     RDKit          3D

 15 15  0  0  1  0  0  0  0  0999 V2000
    0.0517   -1.0920   -0.4996 N   0  0  0  0  0  0  0  0  0  0  0  0
   -3.5821   -0.4674    0.0347 N   0  0  0  0  0  0  0  0  0  0  0  0
   -5.7604    0.2759    0.3020 N   0  0  0  0  0  0  0  0  0  0  0  0
   -4.1552    1.8650   -0.0030 N   0  0  0  0  0  0  0  0  0  0  0  0
    0.5810   -0.2456    0.5691 C   0  0  0  0  0  0  0  0  0  0  0  0
   -1.3569   -1.4013   -0.2565 C   0  0  0  0  0  0  0  0  0  0  0  0
    2.0142    0.1424    0.3197 C   0  0  0  0  0  0  0  0  0  0  0  0
   -2.1755   -0.1204   -0.1796 C   0  0  0  0  0  0  0  0  0  0  0  0
    0.8334   -2.3229   -0.6112 C   0  0  0  0  0  0  0  0  0  0  0  0
    3.0346   -0.6655    0.8019 C   0  0  0  0  0  0  0  0  0  0  0  0
    2.2949    1.3021   -0.3894 C   0  0  0  0  0  0  0  0  0  0  0  0
    4.3625   -0.3063    0.5706 C   0  0  0  0  0  0  0  0  0  0  0  0
    3.6228    1.6611   -0.6206 C   0  0  0  0  0  0  0  0  0  0  0  0
    4.6566    0.8568   -0.1406 C   0  0  0  0  0  0  0  0  0  0  0  0
   -4.4216    0.5180    0.1024 C   0  0  0  0  0  0  0  0  0  0  0  0
  1  5  1  0
  1  6  1  0
  1  9  1  0
  2  8  1  0
  2 15  2  3
  3 15  1  0
  4 15  1  0
  5  7  1  0
  6  8  1  0
  7 10  2  0
  7 11  1  0
 10 12  1  0
 11 13  2  0
 12 14  2  0
 13 14  1  0
M  END
>  <PUBCHEM_COMPOUND_CID>  (1) 
26508

>  <PUBCHEM_CONFORMER_RMSD>  (1) 
0.6

>  <PUBCHEM_CONFORMER_DIVERSEORDER>  (1) 
5
78
76
48
3
68
57
13
52
10
80
71
50
63
23
72
51
1
65
9
84
7
73
79
54
46
17
81
44
62
75
21
18
16
38
8
33
31
60
45
49
39
19
59
69
20
47
26
82
30
11
36
55
40
41
35
4
67
6
43
74
2
85
24
27
58
64
66
70
34
53
28
77
61
37
25
56
83
15
42
12
22
14
29
32

>  <PUBCHEM_MMFF94_PARTIAL_CHARGES>  (1) 
24
1 -0.81
10 -0.15
11 -0.15
12 -0.15
13 -0.15
14 -0.15
15 0.55
2 -0.7
25 0.15
26 0.15
27 0.15
28 0.15
29 0.15
3 -0.85
30 0.4
31 0.4
32 0.4
33 0.4
4 -0.85
5 0.41
6 0.27
7 -0.14
8 0.25
9 0.27

>  <PUBCHEM_EFFECTIVE_ROTOR_COUNT>  (1) 
5

>  <PUBCHEM_PHARMACOPHORE_FEATURES>  (1) 
5
1 1 cation
1 3 donor
1 4 donor
4 2 3 4 15 cation
6 7 10 11 12 13 14 rings

>  <PUBCHEM_HEAVY_ATOM_COUNT>  (1) 
15

>  <PUBCHEM_ATOM_DEF_STEREO_COUNT>  (1) 
0

>  <PUBCHEM_ATOM_UDEF_STEREO_COUNT>  (1) 
0

>  <PUBCHEM_BOND_DEF_STEREO_COUNT>  (1) 
0

>  <PUBCHEM_BOND_UDEF_STEREO_COUNT>  (1) 
0

>  <PUBCHEM_ISOTOPIC_ATOM_COUNT>  (1) 
0

>  <PUBCHEM_COMPONENT_COUNT>  (1) 
1

>  <PUBCHEM_CACTVS_TAUTO_COUNT>  (1) 
2

>  <PUBCHEM_CONFORMER_ID>  (1) 
0000678C00000005

>  <PUBCHEM_MMFF94_ENERGY>  (1) 
45.6121

>  <PUBCHEM_FEATURE_SELFOVERLAP>  (1) 
25.428

>  <PUBCHEM_SHAPE_FINGERPRINT>  (1) 
100836 57 18413394241351565241
10354089 29 18113338621859040176
11458722 120 18409443679257035434
122479 349 18335140933387419259
12815109 37 8646771092951163465
14123255 352 18334288739388924245
14252887 29 13407071470891335642
14341114 176 17967257494287108641
14415576 193 18411420587725006295
15188451 53 15358269307195963697
17834072 32 18340771545397140261
17834072 8 18130797745996360862
18186145 218 17821998853000041426
18222031 100 12757150186141047659
19784866 9 18412260605981996938
20233049 118 18201997737801802728
20374829 77 9583516504245935525
20645477 70 16773528680719987086
20711983 171 18340766052355482622
212847 35 18341893000165819128
21524375 3 18413387644255691167
21652331 79 18259702307014027149
231179 274 18334856095456278751
23402539 116 17989199374032316492
23402655 69 18337109072734574852
2871803 45 11455897957371886940
293599 30 18340487859029100428
4921388 177 15267048294790481253
4990 188 16415761946342568271
5104073 3 18115016550055197648
522135 26 18187081754764617314
54446538 1 18334856121400551985
633830 44 18334010609959842846
6430166 295 18412822499478711248
76465 3 12678923189995519292
7832392 63 18265611177323012372
81539 233 18342458105955771023
8272917 22 18334012753243495138

>  <PUBCHEM_SHAPE_MULTIPOLES>  (1) 
288.77
11.05
1.82
0.79
10.58
0.27
0.02
-5.03
1.07
-0.22
-0.43
-0.4
0.08
-0.58

>  <PUBCHEM_SHAPE_SELFOVERLAP>  (1) 
580.892

>  <PUBCHEM_SHAPE_VOLUME>  (1) 
169.2

>  <PUBCHEM_COORDINATE_TYPE>  (1) 
2
5
10

$$$$
