26515
     RDKit          3D

 24 25  0  0  0  0  0  0  0  0999 V2000
   -0.9491    1.2772    0.6959 O   0  0  0  0  0  0  0  0  0  0  0  0
    0.9491    1.2771   -0.6958 O   0  0  0  0  0  0  0  0  0  0  0  0
   -3.3605   -3.0693   -1.2158 O   0  0  0  0  0  0  0  0  0  0  0  0
    3.3604   -3.0693    1.2157 O   0  0  0  0  0  0  0  0  0  0  0  0
   -3.7393    1.4776    0.4036 C   0  0  0  0  0  0  0  0  0  0  0  0
    3.7393    1.4776   -0.4036 C   0  0  0  0  0  0  0  0  0  0  0  0
   -2.9737    0.2394    0.0494 C   0  0  0  0  0  0  0  0  0  0  0  0
    2.9737    0.2393   -0.0494 C   0  0  0  0  0  0  0  0  0  0  0  0
   -3.2294    2.6517   -0.4466 C   0  0  0  0  0  0  0  0  0  0  0  0
   -3.5438    1.8035    1.8937 C   0  0  0  0  0  0  0  0  0  0  0  0
   -5.2369    1.2613    0.1293 C   0  0  0  0  0  0  0  0  0  0  0  0
    3.2294    2.6517    0.4466 C   0  0  0  0  0  0  0  0  0  0  0  0
    3.5438    1.8036   -1.8936 C   0  0  0  0  0  0  0  0  0  0  0  0
    5.2369    1.2613   -0.1293 C   0  0  0  0  0  0  0  0  0  0  0  0
   -0.7153   -0.9521   -0.0939 C   0  0  0  0  0  0  0  0  0  0  0  0
    0.7153   -0.9522    0.0939 C   0  0  0  0  0  0  0  0  0  0  0  0
   -1.4978    0.2706    0.2538 C   0  0  0  0  0  0  0  0  0  0  0  0
    1.4978    0.2706   -0.2539 C   0  0  0  0  0  0  0  0  0  0  0  0
   -3.5681   -0.8577   -0.4320 C   0  0  0  0  0  0  0  0  0  0  0  0
    3.5681   -0.8577    0.4321 C   0  0  0  0  0  0  0  0  0  0  0  0
   -1.3430   -2.0332   -0.5732 C   0  0  0  0  0  0  0  0  0  0  0  0
    1.3430   -2.0332    0.5731 C   0  0  0  0  0  0  0  0  0  0  0  0
   -2.8035   -2.0689   -0.7770 C   0  0  0  0  0  0  0  0  0  0  0  0
    2.8034   -2.0690    0.7770 C   0  0  0  0  0  0  0  0  0  0  0  0
  1 17  2  0
  2 18  2  0
  3 23  2  0
  4 24  2  0
  5  7  1  0
  5  9  1  0
  5 10  1  0
  5 11  1  0
  6  8  1  0
  6 12  1  0
  6 13  1  0
  6 14  1  0
  7 17  1  0
  7 19  2  0
  8 18  1  0
  8 20  2  0
 15 16  1  0
 15 17  1  0
 15 21  2  0
 16 18  1  0
 16 22  2  0
 19 23  1  0
 20 24  1  0
 21 23  1  0
 22 24  1  0
M  END
>  <PUBCHEM_COMPOUND_CID>  (1) 
26515

>  <PUBCHEM_CONFORMER_RMSD>  (1) 
0.6

>  <PUBCHEM_CONFORMER_DIVERSEORDER>  (1) 
1
2
3

>  <PUBCHEM_MMFF94_PARTIAL_CHARGES>  (1) 
22
1 -0.57
15 0.01
16 0.01
17 0.54
18 0.54
19 -0.14
2 -0.57
20 -0.14
21 -0.14
22 -0.14
23 0.54
24 0.54
3 -0.57
4 -0.57
43 0.15
44 0.15
45 0.15
46 0.15
5 0.14
6 0.14
7 -0.12
8 -0.12

>  <PUBCHEM_EFFECTIVE_ROTOR_COUNT>  (1) 
3

>  <PUBCHEM_PHARMACOPHORE_FEATURES>  (1) 
8
1 1 acceptor
1 2 acceptor
1 3 acceptor
1 4 acceptor
4 5 9 10 11 hydrophobe
4 6 12 13 14 hydrophobe
6 7 15 17 19 21 23 rings
6 8 16 18 20 22 24 rings

>  <PUBCHEM_HEAVY_ATOM_COUNT>  (1) 
24

>  <PUBCHEM_ATOM_DEF_STEREO_COUNT>  (1) 
0

>  <PUBCHEM_ATOM_UDEF_STEREO_COUNT>  (1) 
0

>  <PUBCHEM_BOND_DEF_STEREO_COUNT>  (1) 
0

>  <PUBCHEM_BOND_UDEF_STEREO_COUNT>  (1) 
0

>  <PUBCHEM_ISOTOPIC_ATOM_COUNT>  (1) 
0

>  <PUBCHEM_COMPONENT_COUNT>  (1) 
1

>  <PUBCHEM_CACTVS_TAUTO_COUNT>  (1) 
1

>  <PUBCHEM_CONFORMER_ID>  (1) 
0000679300000001

>  <PUBCHEM_MMFF94_ENERGY>  (1) 
84.3711

>  <PUBCHEM_FEATURE_SELFOVERLAP>  (1) 
40.637

>  <PUBCHEM_SHAPE_FINGERPRINT>  (1) 
10369192 42 14974866453978719746
10616163 171 18342175608840036951
10646746 165 18201721799143450708
10759866 29 18409452487623049158
1100329 8 18337950069875077690
11640471 11 18338811060229955553
12107183 9 17977943488498675547
12173636 292 18342170098634132919
12236239 1 18410572889945535054
12403260 363 18193829577915277676
12403814 3 18260831475870899829
12422481 6 18044348592986726608
12553582 1 17912631708094753815
12644460 14 18114185190378669490
12788726 201 18200587129098603887
13140716 1 18336827498414830635
13224815 77 18334012821572061978
13540713 5 18410565189059065538
13583140 156 17968952881119174563
13631057 29 18198620140928439503
13760787 19 18412263951745475086
14117953 113 17764867992297211557
14178342 30 18191858131949102448
14466204 15 18338506543598286336
14739800 52 17988062470746459368
14955137 171 18047482118994592698
15196674 1 18410573985151626534
15238133 3 17488462966601792889
15442244 35 18337383838529549714
16752209 62 17988352767238089103
17492 89 18410572881514739539
17818456 19 18128534864681735690
17980427 23 18057012789021268106
1813 80 17902519186216274494
20511986 3 18338779178687593920
20691752 17 17676203576776197518
20715895 44 17762051048171464785
20739085 24 17894632535370046540
21033648 29 17552043257169851496
21421861 104 17968930882634294600
21501502 16 18410849966870706702
21781055 127 17058944233879248899
22393880 68 18342178903475319092
23227448 37 18413388748236307965
23557571 272 17845378902005945997
23558518 356 18050573137900027492
23559900 14 17917718946590376654
23598288 3 18130498717204027183
25147074 1 18410564093842281635
266924 1 18338507638245071895
2748010 2 17114096669036169031
283562 15 17978227484653051538
2838139 119 17681260080845670853
312423 11 18409450292921745359
335352 9 18267302032537416862
34934 24 18410854364911566273
350125 39 18409728447835345523
352729 6 18129662985361288379
38570 142 18118153370729864412
4214541 1 18342740749242434436
469060 322 17973180688243695257
474 4 17968380138582315036
5048184 11 18410299111555597625
5104073 3 18408322181069420139
53777708 50 18411132545675351882
543358 83 18409730630238141474
59554788 62 17967803959913585132
6034566 193 17244163818309513788
633830 44 17967538982101423602
7097593 13 18265042531879414450
7615 1 18410844469307234599
7832392 63 18411416194205616426
84936 182 18340202003117234984
9981440 41 18047183331141199848

>  <PUBCHEM_SHAPE_MULTIPOLES>  (1) 
470.43
9.97
3.41
1.17
0
1.05
0
-4.28
0
0
0
0
-0.15
-2.45

>  <PUBCHEM_SHAPE_SELFOVERLAP>  (1) 
1013.938

>  <PUBCHEM_SHAPE_VOLUME>  (1) 
258.7

>  <PUBCHEM_COORDINATE_TYPE>  (1) 
2
5
10

$$$$
