26512
     RDKit          3D

 13 12  0  0  1  0  0  0  0  0999 V2000
    1.2332   -0.2942    0.4348 N   0  0  0  0  0  0  0  0  0  0  0  0
   -2.4251   -0.5147   -0.2423 N   0  0  0  0  0  0  0  0  0  0  0  0
   -4.7162   -0.3103   -0.5213 N   0  0  0  0  0  0  0  0  0  0  0  0
   -3.6530    1.3802    0.5773 N   0  0  0  0  0  0  0  0  0  0  0  0
    2.3395   -1.2151    0.1678 C   0  0  0  0  0  0  0  0  0  0  0  0
    1.4855    1.0034   -0.1805 C   0  0  0  0  0  0  0  0  0  0  0  0
   -0.0265   -0.8594   -0.0520 C   0  0  0  0  0  0  0  0  0  0  0  0
    2.8003    1.5861    0.3319 C   0  0  0  0  0  0  0  0  0  0  0  0
    2.5085   -1.4173   -1.3354 C   0  0  0  0  0  0  0  0  0  0  0  0
    2.0772   -2.5419    0.8731 C   0  0  0  0  0  0  0  0  0  0  0  0
   -1.1875    0.0658    0.2835 C   0  0  0  0  0  0  0  0  0  0  0  0
    3.0765    2.9511   -0.2792 C   0  0  0  0  0  0  0  0  0  0  0  0
   -3.5126    0.1663   -0.0577 C   0  0  0  0  0  0  0  0  0  0  0  0
  1  5  1  0
  1  6  1  0
  1  7  1  0
  2 11  1  0
  2 13  2  3
  3 13  1  0
  4 13  1  0
  5  9  1  0
  5 10  1  0
  6  8  1  0
  7 11  1  0
  8 12  1  0
M  END
>  <PUBCHEM_COMPOUND_CID>  (1) 
26512

>  <PUBCHEM_CONFORMER_RMSD>  (1) 
0.6

>  <PUBCHEM_CONFORMER_DIVERSEORDER>  (1) 
2
53
24
11
35
4
51
50
48
8
3
38
19
45
54
46
1
42
52
39
23
29
5
34
33
49
28
12
47
37
10
18
27
15
43
41
25
31
44
14
20
26
9
7
30
22
32
40
16
6
36
17
21
13

>  <PUBCHEM_MMFF94_PARTIAL_CHARGES>  (1) 
13
1 -0.81
11 0.25
13 0.55
2 -0.7
3 -0.85
32 0.4
33 0.4
34 0.4
35 0.4
4 -0.85
5 0.27
6 0.27
7 0.27

>  <PUBCHEM_EFFECTIVE_ROTOR_COUNT>  (1) 
6

>  <PUBCHEM_PHARMACOPHORE_FEATURES>  (1) 
6
1 1 cation
1 12 hydrophobe
1 3 donor
1 4 donor
3 5 9 10 hydrophobe
4 2 3 4 13 cation

>  <PUBCHEM_HEAVY_ATOM_COUNT>  (1) 
13

>  <PUBCHEM_ATOM_DEF_STEREO_COUNT>  (1) 
0

>  <PUBCHEM_ATOM_UDEF_STEREO_COUNT>  (1) 
0

>  <PUBCHEM_BOND_DEF_STEREO_COUNT>  (1) 
0

>  <PUBCHEM_BOND_UDEF_STEREO_COUNT>  (1) 
0

>  <PUBCHEM_ISOTOPIC_ATOM_COUNT>  (1) 
0

>  <PUBCHEM_COMPONENT_COUNT>  (1) 
1

>  <PUBCHEM_CACTVS_TAUTO_COUNT>  (1) 
2

>  <PUBCHEM_CONFORMER_ID>  (1) 
0000679000000002

>  <PUBCHEM_MMFF94_ENERGY>  (1) 
30.1461

>  <PUBCHEM_FEATURE_SELFOVERLAP>  (1) 
30.502

>  <PUBCHEM_SHAPE_FINGERPRINT>  (1) 
10465860 228 18410577288161072232
10980938 120 18343301491514087281
12162725 195 18271805688305089617
12346645 6 18341609334839982028
12616999 72 17346320435640779791
12932764 1 18041278768911037599
13380536 305 18411424985993472718
14123255 52 18195526123972125992
14344429 50 18336548227056906110
14415576 193 18340488962445597836
14897335 6 18340202006868694507
15442244 35 18195809561600879793
17041 49 18194399987619997115
17041 50 18198067966994917780
170605 34 18338797922093711256
18186145 218 18336829697822740011
20645477 70 18342455937434915623
20671657 1 18409731772393298774
20671657 53 18196656202876580518
20871998 22 18053660279273537626
21499 59 18192708062584507948
21524375 3 18196367246277856320
22096605 113 18410292553356671657
2255824 54 18410856538344716938
23380061 81 18410297990758881633
23532345 1 18334857251161320497
23532345 12 17916866803202891915
23598291 2 18130239150707462145
449060 62 18340206392125645545
474 4 18262798596034589056
58051976 378 18195526119650544687
7364860 26 18342739615713654252
81539 233 18335699511401535556
84936 182 18272088339797488936

>  <PUBCHEM_SHAPE_MULTIPOLES>  (1) 
247.61
7.36
2.65
0.88
10.19
0.78
0.14
2.25
0.66
-3.89
-0.23
-0.39
-0.32
-0.34

>  <PUBCHEM_SHAPE_SELFOVERLAP>  (1) 
460.289

>  <PUBCHEM_SHAPE_VOLUME>  (1) 
156.7

>  <PUBCHEM_COORDINATE_TYPE>  (1) 
2
5
10

$$$$
