26514
     RDKit          3D

 16 16  0  0  1  0  0  0  0  0999 V2000
    0.6783   -0.9234    0.6664 N   0  0  0  0  0  0  0  0  0  0  0  0
   -2.6649    0.7199    0.5973 N   0  0  0  0  0  0  0  0  0  0  0  0
   -4.7095    1.7296    0.1863 N   0  0  0  0  0  0  0  0  0  0  0  0
   -3.3790    1.3156   -1.6175 N   0  0  0  0  0  0  0  0  0  0  0  0
    1.4710    0.1151    0.0111 C   0  0  0  0  0  0  0  0  0  0  0  0
    1.7540    1.2541    0.9970 C   0  0  0  0  0  0  0  0  0  0  0  0
    2.7737   -0.4860   -0.5277 C   0  0  0  0  0  0  0  0  0  0  0  0
    2.6463    2.3240    0.3700 C   0  0  0  0  0  0  0  0  0  0  0  0
    3.6642    0.5862   -1.1533 C   0  0  0  0  0  0  0  0  0  0  0  0
    3.9395    1.7278   -0.1788 C   0  0  0  0  0  0  0  0  0  0  0  0
    0.4001   -2.0180   -0.2630 C   0  0  0  0  0  0  0  0  0  0  0  0
   -0.5699   -0.3640    1.1847 C   0  0  0  0  0  0  0  0  0  0  0  0
   -0.3980   -3.1162    0.4352 C   0  0  0  0  0  0  0  0  0  0  0  0
   -1.4128    0.1956    0.0475 C   0  0  0  0  0  0  0  0  0  0  0  0
   -0.6823   -4.2773   -0.5050 C   0  0  0  0  0  0  0  0  0  0  0  0
   -3.5106    1.2170   -0.2501 C   0  0  0  0  0  0  0  0  0  0  0  0
  1  5  1  0
  1 11  1  0
  1 12  1  0
  2 14  1  0
  2 16  2  3
  3 16  1  0
  4 16  1  0
  5  6  1  0
  5  7  1  0
  6  8  1  0
  7  9  1  0
  8 10  1  0
  9 10  1  0
 11 13  1  0
 12 14  1  0
 13 15  1  0
M  END
>  <PUBCHEM_COMPOUND_CID>  (1) 
26514

>  <PUBCHEM_CONFORMER_RMSD>  (1) 
0.8

>  <PUBCHEM_CONFORMER_DIVERSEORDER>  (1) 
1
20
27
40
37
4
31
3
38
42
35
29
10
30
6
34
14
22
36
2
41
16
13
7
32
26
11
15
25
39
8
17
5
23
19
9
43
12
18
28
33
24
21

>  <PUBCHEM_MMFF94_PARTIAL_CHARGES>  (1) 
13
1 -0.81
11 0.27
12 0.27
14 0.25
16 0.55
2 -0.7
3 -0.85
39 0.4
4 -0.85
40 0.4
41 0.4
42 0.4
5 0.27

>  <PUBCHEM_EFFECTIVE_ROTOR_COUNT>  (1) 
7.2

>  <PUBCHEM_PHARMACOPHORE_FEATURES>  (1) 
6
1 1 cation
1 15 hydrophobe
1 3 donor
1 4 donor
4 2 3 4 16 cation
6 5 6 7 8 9 10 rings

>  <PUBCHEM_HEAVY_ATOM_COUNT>  (1) 
16

>  <PUBCHEM_ATOM_DEF_STEREO_COUNT>  (1) 
0

>  <PUBCHEM_ATOM_UDEF_STEREO_COUNT>  (1) 
0

>  <PUBCHEM_BOND_DEF_STEREO_COUNT>  (1) 
0

>  <PUBCHEM_BOND_UDEF_STEREO_COUNT>  (1) 
0

>  <PUBCHEM_ISOTOPIC_ATOM_COUNT>  (1) 
0

>  <PUBCHEM_COMPONENT_COUNT>  (1) 
1

>  <PUBCHEM_CACTVS_TAUTO_COUNT>  (1) 
2

>  <PUBCHEM_CONFORMER_ID>  (1) 
0000679200000001

>  <PUBCHEM_MMFF94_ENERGY>  (1) 
32.5251

>  <PUBCHEM_FEATURE_SELFOVERLAP>  (1) 
30.502

>  <PUBCHEM_SHAPE_FINGERPRINT>  (1) 
116883 192 17836366321162847622
11833330 49 17759518163779422555
12138202 97 18339931531704272450
12500047 106 18338521949397355276
12532896 13 18410290354238639254
12730499 353 18336839585122376881
12824470 246 12823029568555302940
13294875 104 18338785776458870776
14178000 15 17547004135476953915
14178000 22 18337100254697178664
15279308 100 18339369668504249032
15502722 9 18194403290840399951
17134986 127 18408882927788851348
17539 30 17981884460321987166
18186145 218 18343309162420656040
19784866 34 18341896255862020249
20645477 56 18267031746124656944
20711985 344 17975970187524074010
21285901 2 17697891606278977639
21499 59 18409727340097825557
21524375 3 18259983768810034066
2255824 54 18125436415398391147
23382010 3 18130498729703274065
23402655 69 18060142033083526632
23558518 356 17901945571647469704
23598291 2 17341547241085109369
25 1 18412267207415204896
2748010 2 18337126629949042242
3060560 45 18339640027577992814
458136 41 18338806598339196867
57100710 29 17678751252386124812
58779409 8 18338804519047719430
6025842 7 18267018350553969439
633830 44 18202005391391527317
6442390 28 18410018766682851931
68521 5 17834395996326041783
7364860 26 18121780526171662667
81228 2 17831299771682269915
81539 233 18262237703539041295

>  <PUBCHEM_SHAPE_MULTIPOLES>  (1) 
309.35
6.94
3.83
1.08
1.77
5.21
-0.14
-7.29
-1.83
2.4
-0.34
0.1
-0.2
0.54

>  <PUBCHEM_SHAPE_SELFOVERLAP>  (1) 
598.611

>  <PUBCHEM_SHAPE_VOLUME>  (1) 
186.2

>  <PUBCHEM_COORDINATE_TYPE>  (1) 
2
5
10

$$$$
