2651
     RDKit          3D

 37 40  0  0  1  0  0  0  0  0999 V2000
   -2.4231   -0.3561    2.9324 S   0  0  0  0  0  0  0  0  0  0  0  0
    3.1001    3.8548   -0.4746 S   0  0  0  0  0  0  0  0  0  0  0  0
   -1.2130   -3.3521   -0.4133 O   0  0  0  0  0  0  0  0  0  0  0  0
   -3.6172   -1.9763   -1.9540 O   0  0  0  0  0  0  0  0  0  0  0  0
   -5.0890   -3.0632   -0.5819 O   0  0  0  0  0  0  0  0  0  0  0  0
    1.5157    0.1559    2.6197 O   0  0  0  0  0  0  0  0  0  0  0  0
    4.8286   -0.2911   -0.3514 O   0  0  0  0  0  0  0  0  0  0  0  0
    7.7281   -1.6010   -1.9854 O   0  0  0  0  0  0  0  0  0  0  0  0
    6.9833    0.5033   -1.6169 O   0  0  0  0  0  0  0  0  0  0  0  0
   -2.3351   -1.5119    0.5436 N   0  0  0  0  0  0  0  0  0  0  0  0
    0.8232   -1.1338    0.7845 N   0  0  0  0  0  0  0  0  0  0  0  0
   -5.9934    0.8960   -0.3045 N   0  0  0  0  0  0  0  0  0  0  0  0
    3.7350   -0.8357    0.3362 N   0  0  0  0  0  0  0  0  0  0  0  0
    4.3795    2.0607    0.8768 N   0  0  0  0  0  0  0  0  0  0  0  0
    5.4417    4.1690    0.7459 N   0  0  0  0  0  0  0  0  0  0  0  0
   -1.5730   -0.5787    1.3531 C   0  0  0  0  0  0  0  0  0  0  0  0
   -0.4406   -1.6283    1.3253 C   0  0  0  0  0  0  0  0  0  0  0  0
   -1.3263   -2.3723    0.2855 C   0  0  0  0  0  0  0  0  0  0  0  0
   -3.6559   -1.3658    0.2640 C   0  0  0  0  0  0  0  0  0  0  0  0
   -4.4329   -0.4971    0.9538 C   0  0  0  0  0  0  0  0  0  0  0  0
   -3.9335    0.3075    2.1517 C   0  0  0  0  0  0  0  0  0  0  0  0
   -5.8853   -0.2183    0.6503 C   0  0  0  0  0  0  0  0  0  0  0  0
   -4.2182   -2.2393   -0.7768 C   0  0  0  0  0  0  0  0  0  0  0  0
    1.6642   -0.2933    1.4946 C   0  0  0  0  0  0  0  0  0  0  0  0
    2.9058    0.0839    0.7288 C   0  0  0  0  0  0  0  0  0  0  0  0
   -6.0815    2.1462    0.1693 C   0  0  0  0  0  0  0  0  0  0  0  0
   -6.0003    0.6241   -1.6166 C   0  0  0  0  0  0  0  0  0  0  0  0
    3.2127    1.4832    0.4155 C   0  0  0  0  0  0  0  0  0  0  0  0
   -6.1844    3.2166   -0.7077 C   0  0  0  0  0  0  0  0  0  0  0  0
   -6.1017    1.6547   -2.5400 C   0  0  0  0  0  0  0  0  0  0  0  0
   -6.1944    2.9634   -2.0761 C   0  0  0  0  0  0  0  0  0  0  0  0
    5.6791   -1.3579   -0.7422 C   0  0  0  0  0  0  0  0  0  0  0  0
    2.3920    2.2991   -0.3347 C   0  0  0  0  0  0  0  0  0  0  0  0
    6.1554   -2.0696    0.5207 C   0  0  0  0  0  0  0  0  0  0  0  0
    4.8870   -2.2801   -1.6643 C   0  0  0  0  0  0  0  0  0  0  0  0
    4.4260    3.3093    0.4683 C   0  0  0  0  0  0  0  0  0  0  0  0
    6.8412   -0.7059   -1.4799 C   0  0  0  0  0  0  0  0  0  0  0  0
  1 16  1  0
  1 21  1  0
  2 33  1  0
  2 36  1  0
  3 18  2  0
  4 23  1  0
  5 23  2  0
  6 24  2  0
  7 13  1  0
  7 32  1  0
  8 37  1  0
  9 37  2  0
 10 16  1  0
 10 18  1  0
 10 19  1  0
 11 17  1  0
 11 24  1  0
 12 22  1  0
 12 26  2  0
 12 27  1  0
 13 25  2  0
 14 28  1  0
 14 36  2  0
 15 36  1  0
 16 17  1  0
 17 18  1  0
 19 20  2  0
 19 23  1  0
 20 21  1  0
 20 22  1  0
 24 25  1  0
 25 28  1  0
 26 29  1  0
 27 30  2  0
 28 33  2  0
 29 31  2  0
 30 31  1  0
 32 34  1  0
 32 35  1  0
 32 37  1  0
M  CHG  1  12   1
M  END
>  <PUBCHEM_COMPOUND_CID>  (1) 
2651

>  <PUBCHEM_CONFORMER_RMSD>  (1) 
1.2

>  <PUBCHEM_CONFORMER_DIVERSEORDER>  (1) 
1
45
55
15
41
12
21
6
63
60
48
7
69
47
17
20
62
71
2
53
42
67
57
33
37
70
5
50
52
72
36
35
46
66
64
56
23
49
26
28
40
24
9
16
19
39
14
68
10
58
32
31
38
65
30
44
11
4
59
34
61
18
51
54
29
22
8
25
43
3
13
27

>  <PUBCHEM_MMFF94_PARTIAL_CHARGES>  (1) 
46
1 -0.45
10 -0.39
11 -0.65
12 -0.21
13 -0.51
14 -0.57
15 -0.88
16 0.44
17 0.28
18 0.58
19 0.12
2 -0.08
20 -0.28
21 0.37
22 0.63
23 0.71
24 0.63
25 0.54
26 0.21
27 0.21
28 0.14
29 -0.15
3 -0.57
30 -0.15
31 -0.15
32 0.34
33 -0.11
36 0.46
37 0.66
4 -0.65
42 0.37
45 0.15
46 0.15
47 0.5
48 0.15
49 0.15
5 -0.57
50 0.15
51 0.15
58 0.4
59 0.4
6 -0.57
60 0.5
7 -0.22
8 -0.65
9 -0.57

>  <PUBCHEM_EFFECTIVE_ROTOR_COUNT>  (1) 
10.6

>  <PUBCHEM_PHARMACOPHORE_FEATURES>  (1) 
17
1 11 donor
1 13 acceptor
1 15 donor
1 3 acceptor
1 4 acceptor
1 5 acceptor
1 6 acceptor
1 8 acceptor
1 9 acceptor
3 14 15 36 cation
3 32 34 35 hydrophobe
3 4 5 23 anion
3 8 9 37 anion
4 10 16 17 18 rings
5 2 14 28 33 36 rings
6 1 10 16 19 20 21 rings
6 12 26 27 29 30 31 rings

>  <PUBCHEM_HEAVY_ATOM_COUNT>  (1) 
37

>  <PUBCHEM_ATOM_DEF_STEREO_COUNT>  (1) 
0

>  <PUBCHEM_ATOM_UDEF_STEREO_COUNT>  (1) 
2

>  <PUBCHEM_BOND_DEF_STEREO_COUNT>  (1) 
0

>  <PUBCHEM_BOND_UDEF_STEREO_COUNT>  (1) 
1

>  <PUBCHEM_ISOTOPIC_ATOM_COUNT>  (1) 
0

>  <PUBCHEM_COMPONENT_COUNT>  (1) 
1

>  <PUBCHEM_CACTVS_TAUTO_COUNT>  (1) 
4

>  <PUBCHEM_CONFORMER_ID>  (1) 
00000A5B00000001

>  <PUBCHEM_MMFF94_ENERGY>  (1) 
100.6619

>  <PUBCHEM_FEATURE_SELFOVERLAP>  (1) 
86.65

>  <PUBCHEM_SHAPE_FINGERPRINT>  (1) 
10763959 59 18260270728518192312
10864689 126 18043516223497707189
10985338 8 17902787802319760536
12633046 712 17632294622643614001
12664476 115 18113626664463427233
12728209 76 18337942489484322339
13782708 43 13973676222195936659
14068700 675 17845667967292428834
14415361 349 16916802743149622662
14904525 67 17022908985967281932
15064981 113 17131558249641841717
15183329 4 18272658921960451410
15297060 5 16443351962123500250
15347590 135 10809635804516455646
15361156 5 18113905969711715373
15439362 3 18193846066722124912
15510800 12 12679167363318810805
15530120 55 17985814050734640429
18365409 1 17127067711242634552
19304144 158 17980190104761861160
21033648 29 17676486189423070808
21223535 225 18187638115800674980
21859007 373 18187635878196742140
23559900 14 17418086658886877234
23576562 1 18336272335236675526
2747138 104 17605002584275245875
2838139 119 18188478091756410217
3004659 81 18060144262767529210
4173938 77 18187087277850655757
4394409 98 18060423495101561358
508180 173 18408322159626699785
6086070 43 18410286991321366898
6376802 90 18191023619967513986

>  <PUBCHEM_SHAPE_MULTIPOLES>  (1) 
698.17
21.28
4.44
2.3
7.58
3.62
0.2
6.47
-12.3
1.01
-1.07
-1.3
-0.15
3.62

>  <PUBCHEM_SHAPE_SELFOVERLAP>  (1) 
1476.013

>  <PUBCHEM_SHAPE_VOLUME>  (1) 
395.3

>  <PUBCHEM_COORDINATE_TYPE>  (1) 
2
5
10

$$$$
