2652
     RDKit          3D

 40 43  0  0  1  0  0  0  0  0999 V2000
   -0.4631    3.2900    1.4813 S   0  0  0  0  0  0  0  0  0  0  0  0
   -4.5324   -1.4218   -3.2956 S   0  0  0  0  0  0  0  0  0  0  0  0
   -0.9314   -1.1430    2.8016 O   0  0  0  0  0  0  0  0  0  0  0  0
    1.6766   -1.5082    1.0471 O   0  0  0  0  0  0  0  0  0  0  0  0
    2.8940   -0.4388    2.7009 O   0  0  0  0  0  0  0  0  0  0  0  0
   -4.3450    2.4334    0.7178 O   0  0  0  0  0  0  0  0  0  0  0  0
    3.7624   -2.6954    1.1640 O   0  0  0  0  0  0  0  0  0  0  0  0
   -7.5018   -0.2877   -0.1194 O   0  0  0  0  0  0  0  0  0  0  0  0
    3.5253   -2.1742   -1.0646 O   0  0  0  0  0  0  0  0  0  0  0  0
   -0.0578    0.6675    1.5688 N   0  0  0  0  0  0  0  0  0  0  0  0
   -3.2582    0.4160    1.2270 N   0  0  0  0  0  0  0  0  0  0  0  0
    3.6133    2.2794   -0.7501 N   0  0  0  0  0  0  0  0  0  0  0  0
    3.7648    1.3312   -1.6855 N   0  0  0  0  0  0  0  0  0  0  0  0
    3.6956    3.5472   -1.1770 N   0  0  0  0  0  0  0  0  0  0  0  0
   -6.5984    0.5278    0.5764 N   0  0  0  0  0  0  0  0  0  0  0  0
    3.9157    3.4456   -2.4820 N   0  0  0  0  0  0  0  0  0  0  0  0
   -5.4419   -1.8279   -0.9101 N   0  0  0  0  0  0  0  0  0  0  0  0
   -5.3082   -3.7526   -2.2770 N   0  0  0  0  0  0  0  0  0  0  0  0
   -0.9826    1.6285    0.9957 C   0  0  0  0  0  0  0  0  0  0  0  0
   -2.0662    0.9642    1.8731 C   0  0  0  0  0  0  0  0  0  0  0  0
   -0.9787   -0.1023    2.1884 C   0  0  0  0  0  0  0  0  0  0  0  0
    1.2887    0.7236    1.4018 C   0  0  0  0  0  0  0  0  0  0  0  0
    1.8974    1.8395    0.9345 C   0  0  0  0  0  0  0  0  0  0  0  0
    1.1574    3.1455    0.6544 C   0  0  0  0  0  0  0  0  0  0  0  0
    3.3750    1.9524    0.6451 C   0  0  0  0  0  0  0  0  0  0  0  0
    2.0587   -0.4540    1.8111 C   0  0  0  0  0  0  0  0  0  0  0  0
   -4.2679    1.2154    0.7198 C   0  0  0  0  0  0  0  0  0  0  0  0
   -5.3927    0.4237    0.1044 C   0  0  0  0  0  0  0  0  0  0  0  0
    2.3351   -2.7566    1.3190 C   0  0  0  0  0  0  0  0  0  0  0  0
    5.7589   -2.3776   -0.0950 C   0  0  0  0  0  0  0  0  0  0  0  0
   -5.1591   -0.4810   -1.0258 C   0  0  0  0  0  0  0  0  0  0  0  0
    3.9516    2.1102   -2.7539 C   0  0  0  0  0  0  0  0  0  0  0  0
    4.2272   -2.3930   -0.0848 C   0  0  0  0  0  0  0  0  0  0  0  0
    6.2533   -2.0065   -1.4996 C   0  0  0  0  0  0  0  0  0  0  0  0
    6.2681   -1.3294    0.9075 C   0  0  0  0  0  0  0  0  0  0  0  0
    6.2912   -3.7575    0.3135 C   0  0  0  0  0  0  0  0  0  0  0  0
   -4.6585   -0.0727   -2.2443 C   0  0  0  0  0  0  0  0  0  0  0  0
    4.1707    1.5752   -4.0999 C   0  0  0  0  0  0  0  0  0  0  0  0
   -5.1505   -2.4223   -2.0458 C   0  0  0  0  0  0  0  0  0  0  0  0
   -8.7867   -0.1140    0.4573 C   0  0  0  0  0  0  0  0  0  0  0  0
  1 19  1  0
  1 24  1  0
  2 37  1  0
  2 39  1  0
  3 21  2  0
  4 26  1  0
  4 29  1  0
  5 26  2  0
  6 27  2  0
  7 29  1  0
  7 33  1  0
  8 15  1  0
  8 40  1  0
  9 33  2  0
 10 19  1  0
 10 21  1  0
 10 22  1  0
 11 20  1  0
 11 27  1  0
 12 13  1  0
 12 14  1  0
 12 25  1  0
 13 32  2  0
 14 16  2  0
 15 28  2  0
 16 32  1  0
 17 31  1  0
 17 39  2  0
 18 39  1  0
 19 20  1  0
 20 21  1  0
 22 23  2  0
 22 26  1  0
 23 24  1  0
 23 25  1  0
 27 28  1  0
 28 31  1  0
 30 33  1  0
 30 34  1  0
 30 35  1  0
 30 36  1  0
 31 37  2  0
 32 38  1  0
M  END
>  <PUBCHEM_COMPOUND_CID>  (1) 
2652

>  <PUBCHEM_CONFORMER_RMSD>  (1) 
1.4

>  <PUBCHEM_CONFORMER_DIVERSEORDER>  (1) 
1
62
184
15
38
126
47
44
127
55
53
130
150
48
215
181
112
218
224
113
35
75
207
134
168
60
46
202
199
114
188
85
54
80
213
200
99
118
110
209
197
93
104
214
116
187
226
41
203
225
36
95
20
90
191
137
106
125
91
145
132
123
227
115
119
42
170
87
185
179
102
33
97
121
152
220
193
40
49
58
158
86
173
79
171
8
180
65
154
148
198
136
167
66
2
107
131
140
216
208
56
223
12
27
144
128
175
88
166
70
120
174
163
81
57
52
6
133
211
156
162
103
69
61
183
74
94
146
25
73
212
164
151
165
59
219
108
83
89
64
186
135
82
182
105
194
14
143
101
98
28
222
30
122
63
111
176
172
34
117
76
10
189
195
192
13
17
24
51
178
71
217
139
43
29
72
50
206
129
84
177
21
160
100
77
221
190
196
4
141
11
18
169
109
201
31
204
32
157
37
7
68
159
45
22
153
161
147
205
138
96
124
26
155
39
67
142
92
78
5
210
23
149
19
9
3
16

>  <PUBCHEM_MMFF94_PARTIAL_CHARGES>  (1) 
41
1 -0.45
10 -0.39
11 -0.65
12 0.58
13 -0.71
14 -0.42
15 -0.51
16 -0.23
17 -0.57
18 -0.88
19 0.44
2 -0.08
20 0.28
21 0.58
22 0.12
23 -0.28
24 0.37
25 0.39
26 0.71
27 0.63
28 0.54
29 0.56
3 -0.57
30 0.06
31 0.14
32 0.34
33 0.66
37 -0.11
38 0.18
39 0.46
4 -0.43
40 0.28
45 0.37
5 -0.57
59 0.15
6 -0.57
66 0.4
67 0.4
7 -0.43
8 -0.22
9 -0.57

>  <PUBCHEM_EFFECTIVE_ROTOR_COUNT>  (1) 
13.6

>  <PUBCHEM_PHARMACOPHORE_FEATURES>  (1) 
14
1 11 donor
1 15 acceptor
1 18 donor
1 3 acceptor
1 5 acceptor
1 6 acceptor
1 9 acceptor
3 13 16 32 cation
3 17 18 39 cation
4 10 19 20 21 rings
4 30 34 35 36 hydrophobe
5 12 13 14 16 32 rings
5 2 17 31 37 39 rings
6 1 10 19 22 23 24 rings

>  <PUBCHEM_HEAVY_ATOM_COUNT>  (1) 
40

>  <PUBCHEM_ATOM_DEF_STEREO_COUNT>  (1) 
0

>  <PUBCHEM_ATOM_UDEF_STEREO_COUNT>  (1) 
2

>  <PUBCHEM_BOND_DEF_STEREO_COUNT>  (1) 
0

>  <PUBCHEM_BOND_UDEF_STEREO_COUNT>  (1) 
1

>  <PUBCHEM_ISOTOPIC_ATOM_COUNT>  (1) 
0

>  <PUBCHEM_COMPONENT_COUNT>  (1) 
1

>  <PUBCHEM_CACTVS_TAUTO_COUNT>  (1) 
4

>  <PUBCHEM_CONFORMER_ID>  (1) 
00000A5C00000001

>  <PUBCHEM_MMFF94_ENERGY>  (1) 
88.544

>  <PUBCHEM_FEATURE_SELFOVERLAP>  (1) 
71.309

>  <PUBCHEM_SHAPE_FINGERPRINT>  (1) 
10928967 22 17129004265130950975
11227688 84 18266754656446511067
11315621 136 18342164609597739787
117089 54 18056749044113466343
11796584 16 17203325667594812481
12047536 79 12103576216848067675
12422481 6 15841253913826376502
13690498 29 18265045847968401313
13751561 76 14979962441207153790
14068700 675 18267584607521569176
14295343 760 16773805774977891790
15001296 14 17845937450203912821
15289351 153 11963389627121219650
15336146 87 14274028778515770233
15799311 1 18060144258361506059
19303781 99 18336821992430651314
21223535 225 17532079506460307677
23559900 14 18114756962232087248
3459 39 13695865947752740142
4066623 53 17095525059377639076
437795 139 17846493733914208366
5081480 168 17458625575266816012
5104073 3 11671515438948093019
54039377 194 18272931597140022923
58902169 19 18336270024697783398

>  <PUBCHEM_SHAPE_MULTIPOLES>  (1) 
744.97
19.06
4.56
3.39
22.6
0.47
-3.07
13.2
-6.91
-4.76
-1.35
-2.09
-0.51
-6.23

>  <PUBCHEM_SHAPE_SELFOVERLAP>  (1) 
1550.321

>  <PUBCHEM_SHAPE_VOLUME>  (1) 
429.1

>  <PUBCHEM_COORDINATE_TYPE>  (1) 
2
5
10

$$$$
