26520
     RDKit          3D

 20 21  0  0  1  0  0  0  0  0999 V2000
    0.8896    0.1688   -2.1351 O   0  0  0  0  0  0  0  0  0  0  0  0
   -0.7949    2.4270    1.5361 O   0  0  0  0  0  0  0  0  0  0  0  0
    2.2952   -0.8715    2.1726 O   0  0  0  0  0  0  0  0  0  0  0  0
    1.5400   -0.4946   -0.0032 N   0  0  0  0  0  0  0  0  0  0  0  0
    0.6698    0.6957    1.8393 N   0  0  0  0  0  0  0  0  0  0  0  0
   -0.5330    0.8398   -0.2924 C   0  0  0  0  0  0  0  0  0  0  0  0
   -0.9336    2.0033   -1.2334 C   0  0  0  0  0  0  0  0  0  0  0  0
   -1.7268   -0.1366   -0.1840 C   0  0  0  0  0  0  0  0  0  0  0  0
    0.7018    0.1676   -0.9159 C   0  0  0  0  0  0  0  0  0  0  0  0
   -0.2379    1.4238    1.0911 C   0  0  0  0  0  0  0  0  0  0  0  0
    0.2086    2.9805   -1.4076 C   0  0  0  0  0  0  0  0  0  0  0  0
    1.5448   -0.2860    1.3875 C   0  0  0  0  0  0  0  0  0  0  0  0
   -2.9555    0.3302    0.2650 C   0  0  0  0  0  0  0  0  0  0  0  0
   -1.5566   -1.4691   -0.5365 C   0  0  0  0  0  0  0  0  0  0  0  0
    2.5653   -1.3778   -0.5476 C   0  0  0  0  0  0  0  0  0  0  0  0
   -4.0325   -0.5508    0.3630 C   0  0  0  0  0  0  0  0  0  0  0  0
   -2.6336   -2.3501   -0.4385 C   0  0  0  0  0  0  0  0  0  0  0  0
   -3.8716   -1.8909    0.0112 C   0  0  0  0  0  0  0  0  0  0  0  0
    3.8523   -0.6489   -0.7841 C   0  0  0  0  0  0  0  0  0  0  0  0
    5.0086   -0.9603   -0.1875 C   0  0  0  0  0  0  0  0  0  0  0  0
  1  9  2  0
  2 10  2  0
  3 12  2  0
  4  9  1  0
  4 12  1  0
  4 15  1  0
  5 10  1  0
  5 12  1  0
  6  7  1  0
  6  8  1  0
  6  9  1  0
  6 10  1  0
  7 11  1  0
  8 13  2  0
  8 14  1  0
 13 16  1  0
 14 17  2  0
 15 19  1  0
 16 18  2  0
 17 18  1  0
 19 20  2  0
M  END
>  <PUBCHEM_COMPOUND_CID>  (1) 
26520

>  <PUBCHEM_CONFORMER_RMSD>  (1) 
0.6

>  <PUBCHEM_CONFORMER_DIVERSEORDER>  (1) 
1
18
7
9
31
25
10
3
8
21
27
20
26
30
29
23
15
6
28
11
22
4
12
17
16
32
19
24
2
5
13
14

>  <PUBCHEM_MMFF94_PARTIAL_CHARGES>  (1) 
27
1 -0.57
10 0.57
12 0.69
13 -0.15
14 -0.15
15 0.44
16 -0.15
17 -0.15
18 -0.15
19 -0.29
2 -0.57
20 -0.3
26 0.37
27 0.15
28 0.15
3 -0.57
31 0.15
32 0.15
33 0.15
34 0.15
35 0.15
36 0.15
4 -0.42
5 -0.49
6 0.27
8 -0.14
9 0.57

>  <PUBCHEM_EFFECTIVE_ROTOR_COUNT>  (1) 
4.6

>  <PUBCHEM_PHARMACOPHORE_FEATURES>  (1) 
8
1 1 acceptor
1 11 hydrophobe
1 2 acceptor
1 20 hydrophobe
1 3 acceptor
1 5 donor
6 4 5 6 9 10 12 rings
6 8 13 14 16 17 18 rings

>  <PUBCHEM_HEAVY_ATOM_COUNT>  (1) 
20

>  <PUBCHEM_ATOM_DEF_STEREO_COUNT>  (1) 
0

>  <PUBCHEM_ATOM_UDEF_STEREO_COUNT>  (1) 
1

>  <PUBCHEM_BOND_DEF_STEREO_COUNT>  (1) 
0

>  <PUBCHEM_BOND_UDEF_STEREO_COUNT>  (1) 
0

>  <PUBCHEM_ISOTOPIC_ATOM_COUNT>  (1) 
0

>  <PUBCHEM_COMPONENT_COUNT>  (1) 
1

>  <PUBCHEM_CACTVS_TAUTO_COUNT>  (1) 
3

>  <PUBCHEM_CONFORMER_ID>  (1) 
0000679800000001

>  <PUBCHEM_MMFF94_ENERGY>  (1) 
55.4692

>  <PUBCHEM_FEATURE_SELFOVERLAP>  (1) 
40.596

>  <PUBCHEM_SHAPE_FINGERPRINT>  (1) 
11578080 2 17678711575120003044
12011746 2 17560799892548887503
12173636 292 17768537084205818024
12553582 1 18186791500590352363
12592029 89 12540692626605934744
12633257 1 16200160923313727619
12714826 92 18338786832398475723
12788726 201 17823131220816577377
13583140 156 17909794736561860226
14817 1 10446773963611402977
16945 1 18190160313864788965
17349148 13 15719387292584249722
17804303 29 18201441406582972595
1813 80 18261668263636698240
19010151 120 18187658993752615660
192875 21 16805612464815734556
200 152 17168147814939196994
20361792 2 18114449154615646743
20600515 1 18270977794435191437
20645477 70 17828478399788061039
21452121 71 18262252117396429116
21731516 1 17895460501669170835
22112679 90 18190485816472571581
232386 152 18342462598850024927
23402539 116 17603587400740149598
23419403 2 18200857556833678269
23557571 272 18270690766424281332
23559900 14 18129664072230724590
23598288 3 17388528324867880001
34934 24 17313946286355258037
568465 68 16559039293662893262
5845 1 12289511102110924493
7364860 26 18123191478847265693

>  <PUBCHEM_SHAPE_MULTIPOLES>  (1) 
384.02
6.48
2.52
1.67
2.89
1.4
0.5
-5.19
-0.32
-1.1
-0.57
0.82
0.57
-0.31

>  <PUBCHEM_SHAPE_SELFOVERLAP>  (1) 
817.241

>  <PUBCHEM_SHAPE_VOLUME>  (1) 
210.5

>  <PUBCHEM_COORDINATE_TYPE>  (1) 
2
5
10

$$$$
