26528
     RDKit          3D

 36 39  0  0  0  0  0  0  0  0999 V2000
    5.4050    1.0567    0.1209 O   0  0  0  0  0  0  0  0  0  0  0  0
    4.1116    2.0060   -1.5413 O   0  0  0  0  0  0  0  0  0  0  0  0
   -1.9475    1.8852    0.5022 O   0  0  0  0  0  0  0  0  0  0  0  0
   -4.5006    1.1499    1.6496 O   0  0  0  0  0  0  0  0  0  0  0  0
   -3.6345    2.4181   -0.9668 O   0  0  0  0  0  0  0  0  0  0  0  0
    0.8821    1.8230    0.5989 N   0  0  0  0  0  0  0  0  0  0  0  0
    3.2424    0.1851   -0.1992 C   0  0  0  0  0  0  0  0  0  0  0  0
    2.8643    0.5105    1.2686 C   0  0  0  0  0  0  0  0  0  0  0  0
    1.9682    0.3434   -1.0679 C   0  0  0  0  0  0  0  0  0  0  0  0
    2.0953    1.8279    1.4217 C   0  0  0  0  0  0  0  0  0  0  0  0
    1.2166    1.6568   -0.8182 C   0  0  0  0  0  0  0  0  0  0  0  0
    3.8544   -1.2122   -0.3945 C   0  0  0  0  0  0  0  0  0  0  0  0
    4.2816    1.1975   -0.6388 C   0  0  0  0  0  0  0  0  0  0  0  0
    0.1179    3.0532    0.8046 C   0  0  0  0  0  0  0  0  0  0  0  0
    4.0037   -2.0618    0.6983 C   0  0  0  0  0  0  0  0  0  0  0  0
    4.2567   -1.6204   -1.6635 C   0  0  0  0  0  0  0  0  0  0  0  0
   -1.1971    3.0018    0.0431 C   0  0  0  0  0  0  0  0  0  0  0  0
    4.5591   -3.3290    0.5209 C   0  0  0  0  0  0  0  0  0  0  0  0
    4.8121   -2.8876   -1.8409 C   0  0  0  0  0  0  0  0  0  0  0  0
    4.9633   -3.7419   -0.7487 C   0  0  0  0  0  0  0  0  0  0  0  0
    6.4741    1.9559   -0.1900 C   0  0  0  0  0  0  0  0  0  0  0  0
   -3.1725    1.6963   -0.0912 C   0  0  0  0  0  0  0  0  0  0  0  0
   -3.8921    0.4912    0.5201 C   0  0  0  0  0  0  0  0  0  0  0  0
    7.6398    1.6742    0.7339 C   0  0  0  0  0  0  0  0  0  0  0  0
   -2.9523   -0.6185    0.9975 C   0  0  0  0  0  0  0  0  0  0  0  0
   -4.9816   -0.0725   -0.3950 C   0  0  0  0  0  0  0  0  0  0  0  0
   -1.8390   -0.9083    0.2429 C   0  0  0  0  0  0  0  0  0  0  0  0
   -6.1596   -0.5026    0.1712 C   0  0  0  0  0  0  0  0  0  0  0  0
   -3.2568   -1.2832    2.1631 C   0  0  0  0  0  0  0  0  0  0  0  0
   -4.7416   -0.1271   -1.7487 C   0  0  0  0  0  0  0  0  0  0  0  0
   -0.9823   -1.9193    0.6781 C   0  0  0  0  0  0  0  0  0  0  0  0
   -7.1527   -1.0162   -0.6627 C   0  0  0  0  0  0  0  0  0  0  0  0
   -2.4000   -2.2943    2.5981 C   0  0  0  0  0  0  0  0  0  0  0  0
   -5.7350   -0.6406   -2.5825 C   0  0  0  0  0  0  0  0  0  0  0  0
   -1.2628   -2.6123    1.8555 C   0  0  0  0  0  0  0  0  0  0  0  0
   -6.9405   -1.0851   -2.0395 C   0  0  0  0  0  0  0  0  0  0  0  0
  1 13  1  0
  1 21  1  0
  2 13  2  0
  3 17  1  0
  3 22  1  0
  4 23  1  0
  5 22  2  0
  6 10  1  0
  6 11  1  0
  6 14  1  0
  7  8  1  0
  7  9  1  0
  7 12  1  0
  7 13  1  0
  8 10  1  0
  9 11  1  0
 12 15  2  0
 12 16  1  0
 14 17  1  0
 15 18  1  0
 16 19  2  0
 18 20  2  0
 19 20  1  0
 21 24  1  0
 22 23  1  0
 23 25  1  0
 23 26  1  0
 25 27  2  0
 25 29  1  0
 26 28  2  0
 26 30  1  0
 27 31  1  0
 28 32  1  0
 29 33  2  0
 30 34  2  0
 31 35  2  0
 32 36  2  0
 33 35  1  0
 34 36  1  0
M  END
>  <PUBCHEM_COMPOUND_CID>  (1) 
26528

>  <PUBCHEM_CONFORMER_RMSD>  (1) 
1.2

>  <PUBCHEM_CONFORMER_DIVERSEORDER>  (1) 
1
13
18
3
10
46
59
25
98
30
51
78
99
11
24
14
29
74
36
86
42
100
84
96
67
26
92
62
57
54
12
77
80
72
52
94
21
2
27
88
61
31
28
17
56
55
19
83
43
64
23
90
71
73
44
70
63
8
69
5
53
50
87
7
41
89
35
82
9
48
15
20
6
97
37
65
60
66
38
85
76
33
16
91
34
39
45
93
32
68
58
79
75
81
49
4
40
95
47
22

>  <PUBCHEM_MMFF94_PARTIAL_CHARGES>  (1) 
49
1 -0.43
10 0.27
11 0.27
12 -0.14
13 0.66
14 0.27
15 -0.15
16 -0.15
17 0.28
18 -0.15
19 -0.15
2 -0.57
20 -0.15
21 0.28
22 0.66
23 0.63
25 -0.14
26 -0.14
27 -0.15
28 -0.15
29 -0.15
3 -0.43
30 -0.15
31 -0.15
32 -0.15
33 -0.15
34 -0.15
35 -0.15
36 -0.15
4 -0.68
47 0.15
48 0.15
5 -0.57
51 0.15
52 0.15
53 0.15
59 0.4
6 -0.81
60 0.15
61 0.15
62 0.15
63 0.15
64 0.15
65 0.15
66 0.15
67 0.15
68 0.15
69 0.15
7 0.2

>  <PUBCHEM_EFFECTIVE_ROTOR_COUNT>  (1) 
12.2

>  <PUBCHEM_PHARMACOPHORE_FEATURES>  (1) 
9
1 2 acceptor
1 4 acceptor
1 4 donor
1 5 acceptor
1 6 cation
6 12 15 16 18 19 20 rings
6 25 27 29 31 33 35 rings
6 26 28 30 32 34 36 rings
6 6 7 8 9 10 11 rings

>  <PUBCHEM_HEAVY_ATOM_COUNT>  (1) 
36

>  <PUBCHEM_ATOM_DEF_STEREO_COUNT>  (1) 
0

>  <PUBCHEM_ATOM_UDEF_STEREO_COUNT>  (1) 
0

>  <PUBCHEM_BOND_DEF_STEREO_COUNT>  (1) 
0

>  <PUBCHEM_BOND_UDEF_STEREO_COUNT>  (1) 
0

>  <PUBCHEM_ISOTOPIC_ATOM_COUNT>  (1) 
0

>  <PUBCHEM_COMPONENT_COUNT>  (1) 
1

>  <PUBCHEM_CACTVS_TAUTO_COUNT>  (1) 
1

>  <PUBCHEM_CONFORMER_ID>  (1) 
000067A000000001

>  <PUBCHEM_MMFF94_ENERGY>  (1) 
99.9639

>  <PUBCHEM_FEATURE_SELFOVERLAP>  (1) 
45.673

>  <PUBCHEM_SHAPE_FINGERPRINT>  (1) 
10693767 8 18199168733745356439
11135926 11 18190480401009454156
12166972 35 17418372471796399898
12645989 146 18200036127285387774
13533116 47 18342172267344697143
13560911 43 17203607120658609825
1361 2 18273212010669143191
1361 4 18201434809434566135
13782708 43 16917056777380013015
13811026 1 18409165510972827315
14040221 126 17619599803688995967
14118638 360 18342738507380236852
14347332 77 18130783422269839821
15361156 5 18196957499111616444
16067689 302 18337961194547580859
19315092 285 17275094024938144955
19958102 18 17822292344894378199
20721686 56 18410298003981673018
20775438 99 17838867659336482399
21033648 29 17022902324747207551
23559900 14 18260275169493010851
23572383 38 18261116296199677890
24771750 20 17610636584276412701
25222932 49 17917708016004382812
354706 35 18339363067008030030
3729539 64 18186794752386991211
4173938 188 17560226072450237794
4173938 306 18044349799382432332
4403749 210 17904482158427590392
45266715 3 18335971051918820235
508706 21 18114185181793976615
613672 6 18261116295999425792

>  <PUBCHEM_SHAPE_MULTIPOLES>  (1) 
706.54
18.08
3.89
2.08
2.13
0.98
-0.01
3.2
-7.05
-5.26
0.37
2.2
1.15
1.16

>  <PUBCHEM_SHAPE_SELFOVERLAP>  (1) 
1522.121

>  <PUBCHEM_SHAPE_VOLUME>  (1) 
384.9

>  <PUBCHEM_COORDINATE_TYPE>  (1) 
2
5
10

$$$$
