26536
     RDKit          3D

 20 21  0  0  0  0  0  0  0  0999 V2000
    0.3771   -1.0451   -0.1016 O   0  0  0  0  0  0  0  0  0  0  0  0
    4.1049   -1.0069    0.0671 N   0  0  0  0  0  0  0  0  0  0  0  0
    2.7248   -1.4457   -0.4008 C   0  0  0  0  0  0  0  0  0  0  0  0
    1.6701   -0.6158    0.3041 C   0  0  0  0  0  0  0  0  0  0  0  0
    4.2079   -1.1799    1.5757 C   0  0  0  0  0  0  0  0  0  0  0  0
    5.1660   -1.8586   -0.6148 C   0  0  0  0  0  0  0  0  0  0  0  0
    4.3210    0.4562   -0.2915 C   0  0  0  0  0  0  0  0  0  0  0  0
   -0.6461   -0.2927    0.5360 C   0  0  0  0  0  0  0  0  0  0  0  0
   -0.5068    1.1748    0.1880 C   0  0  0  0  0  0  0  0  0  0  0  0
   -2.0248   -0.8439    0.2279 C   0  0  0  0  0  0  0  0  0  0  0  0
   -0.9238    2.1269    1.1012 C   0  0  0  0  0  0  0  0  0  0  0  0
   -3.0313   -0.7000    1.1648 C   0  0  0  0  0  0  0  0  0  0  0  0
    0.0347    1.5296   -1.0347 C   0  0  0  0  0  0  0  0  0  0  0  0
   -2.2413   -1.4762   -0.9824 C   0  0  0  0  0  0  0  0  0  0  0  0
   -0.7954    3.4784    0.7809 C   0  0  0  0  0  0  0  0  0  0  0  0
   -4.2996   -1.2068    0.8814 C   0  0  0  0  0  0  0  0  0  0  0  0
    0.1632    2.8811   -1.3548 C   0  0  0  0  0  0  0  0  0  0  0  0
   -3.5097   -1.9829   -1.2658 C   0  0  0  0  0  0  0  0  0  0  0  0
   -0.2519    3.8555   -0.4470 C   0  0  0  0  0  0  0  0  0  0  0  0
   -4.5389   -1.8481   -0.3337 C   0  0  0  0  0  0  0  0  0  0  0  0
  1  4  1  0
  1  8  1  0
  2  3  1  0
  2  5  1  0
  2  6  1  0
  2  7  1  0
  3  4  1  0
  8  9  1  0
  8 10  1  0
  9 11  2  0
  9 13  1  0
 10 12  2  0
 10 14  1  0
 11 15  1  0
 12 16  1  0
 13 17  2  0
 14 18  2  0
 15 19  2  0
 16 20  2  0
 17 19  1  0
 18 20  1  0
M  CHG  1   2   1
M  END
>  <PUBCHEM_COMPOUND_CID>  (1) 
26536

>  <PUBCHEM_CONFORMER_RMSD>  (1) 
0.8

>  <PUBCHEM_CONFORMER_DIVERSEORDER>  (1) 
1
7
5
9
2
4
3
6
8

>  <PUBCHEM_MMFF94_PARTIAL_CHARGES>  (1) 
30
1 -0.56
10 -0.14
11 -0.15
12 -0.15
13 -0.15
14 -0.15
15 -0.15
16 -0.15
17 -0.15
18 -0.15
19 -0.15
2 -1.01
20 -0.15
3 0.5
35 0.15
36 0.15
37 0.15
38 0.15
39 0.15
4 0.28
40 0.15
41 0.15
42 0.15
43 0.15
44 0.15
5 0.5
6 0.5
7 0.5
8 0.57
9 -0.14

>  <PUBCHEM_EFFECTIVE_ROTOR_COUNT>  (1) 
6

>  <PUBCHEM_PHARMACOPHORE_FEATURES>  (1) 
4
1 1 acceptor
1 2 cation
6 10 12 14 16 18 20 rings
6 9 11 13 15 17 19 rings

>  <PUBCHEM_HEAVY_ATOM_COUNT>  (1) 
20

>  <PUBCHEM_ATOM_DEF_STEREO_COUNT>  (1) 
0

>  <PUBCHEM_ATOM_UDEF_STEREO_COUNT>  (1) 
0

>  <PUBCHEM_BOND_DEF_STEREO_COUNT>  (1) 
0

>  <PUBCHEM_BOND_UDEF_STEREO_COUNT>  (1) 
0

>  <PUBCHEM_ISOTOPIC_ATOM_COUNT>  (1) 
0

>  <PUBCHEM_COMPONENT_COUNT>  (1) 
1

>  <PUBCHEM_CACTVS_TAUTO_COUNT>  (1) 
1

>  <PUBCHEM_CONFORMER_ID>  (1) 
000067A800000001

>  <PUBCHEM_MMFF94_ENERGY>  (1) 
72.8481

>  <PUBCHEM_FEATURE_SELFOVERLAP>  (1) 
20.297

>  <PUBCHEM_SHAPE_FINGERPRINT>  (1) 
10369192 42 16915075560732667528
10670039 82 18261693519268577300
10764073 3 16844462535156364145
10989021 7 18336270114923413580
11045515 52 18333447659821331149
11101153 10 18335148605311982948
11265709 11 18410018740527620897
12553582 1 18409727374215503570
12643181 29 17332530073819215766
12788726 201 18189609445575464795
13004483 165 18411129217059457390
13009979 54 17916318293346550291
13134695 92 18267862964083062229
13149001 5 17824263928135996899
13294875 104 17552925435126693825
13544653 18 18408886269199606586
13681431 1 18263640839136970569
13911987 19 18041853916587865342
14178342 30 18120642536422680978
14251757 17 16588291834921459926
14347332 77 18338237038690148046
14910302 57 17773894003856869134
14955137 171 18268728241090277579
15309172 13 10231761088892272787
15842332 3 17627805420263928295
15849732 13 18130791144895494039
17357779 13 18268973376063347061
17539 30 18265886973910047573
17980427 23 17203332243268720945
1813 80 18410290349827426107
18222031 100 18341607161302187255
18785283 64 17537165018268716253
200 152 17894909616273895066
20600515 1 18342468078859159102
20671657 1 17980764058500329711
21029758 11 18408602599758312803
21033650 10 13046779025657958302
21041028 32 18336839657978734017
21202864 24 18054522309000225377
21304303 282 17179072420485820436
21339142 126 18342176609562018507
21524375 3 17397831176564764736
22112679 90 18266767747058740989
23175994 123 18260551151681634855
23402539 116 18409448063944397554
23419403 2 18127382709677313697
23557571 272 18340774736737274190
23558518 356 17900263009503770002
283562 15 18335137540679812202
312423 11 18114472146008274210
314173 85 18412259540856611010
44062 13 17907586822550484054
532947 4 17908143531636667168
6049 1 17845360086524446858
621550 34 18059565911092733866
6786 2 17334503696456811065
68521 5 18336827494145873045
7164475 11 18336544907268647910
7364860 26 18051975015531202033
7399639 24 18130212810295586298
81228 2 18264219006069597627

>  <PUBCHEM_SHAPE_MULTIPOLES>  (1) 
400.74
8.73
3.94
1.29
6.36
5.19
0.06
-9.81
0.33
-0.86
-0.63
-0.18
0.08
-0.71

>  <PUBCHEM_SHAPE_SELFOVERLAP>  (1) 
833.208

>  <PUBCHEM_SHAPE_VOLUME>  (1) 
230.1

>  <PUBCHEM_COORDINATE_TYPE>  (1) 
2
5
10

$$$$
