26532
     RDKit          3D

 14 14  0  0  1  0  0  0  0  0999 V2000
    5.1840   -0.3246   -0.5136 Cl  0  0  0  0  0  0  0  0  0  0  0  0
   -3.1468   -1.1655   -0.0860 O   0  0  0  0  0  0  0  0  0  0  0  0
   -3.8801    1.0205   -0.0930 O   0  0  0  0  0  0  0  0  0  0  0  0
   -1.4229    1.9544   -0.6039 N   0  0  0  0  0  0  0  0  0  0  0  0
   -0.6599    0.0905    0.7919 C   0  0  0  0  0  0  0  0  0  0  0  0
   -1.5184    0.5064   -0.4103 C   0  0  0  0  0  0  0  0  0  0  0  0
    0.8106   -0.0138    0.4625 C   0  0  0  0  0  0  0  0  0  0  0  0
    1.3226   -1.2225    0.0197 C   0  0  0  0  0  0  0  0  0  0  0  0
    1.6196    1.1012    0.6102 C   0  0  0  0  0  0  0  0  0  0  0  0
   -2.9846    0.1889   -0.1701 C   0  0  0  0  0  0  0  0  0  0  0  0
    2.6807   -1.3191   -0.2835 C   0  0  0  0  0  0  0  0  0  0  0  0
    2.9778    1.0048    0.3070 C   0  0  0  0  0  0  0  0  0  0  0  0
    3.5083   -0.2054   -0.1399 C   0  0  0  0  0  0  0  0  0  0  0  0
   -4.4910   -1.6159    0.1090 C   0  0  0  0  0  0  0  0  0  0  0  0
  1 13  1  0
  2 10  1  0
  2 14  1  0
  3 10  2  0
  4  6  1  0
  5  6  1  0
  5  7  1  0
  6 10  1  0
  7  8  2  0
  7  9  1  0
  8 11  1  0
  9 12  2  0
 11 13  2  0
 12 13  1  0
M  END
>  <PUBCHEM_COMPOUND_CID>  (1) 
26532

>  <PUBCHEM_CONFORMER_RMSD>  (1) 
0.6

>  <PUBCHEM_CONFORMER_DIVERSEORDER>  (1) 
1
16
17
6
14
18
2
15
9
13
5
4
19
10
7
8
12
3
11

>  <PUBCHEM_MMFF94_PARTIAL_CHARGES>  (1) 
20
1 -0.18
10 0.66
11 -0.15
12 -0.15
13 0.18
14 0.28
18 0.15
19 0.15
2 -0.43
20 0.36
21 0.36
22 0.15
23 0.15
3 -0.57
4 -0.99
5 0.14
6 0.33
7 -0.14
8 -0.15
9 -0.15

>  <PUBCHEM_EFFECTIVE_ROTOR_COUNT>  (1) 
4

>  <PUBCHEM_PHARMACOPHORE_FEATURES>  (1) 
4
1 3 acceptor
1 4 cation
1 4 donor
6 7 8 9 11 12 13 rings

>  <PUBCHEM_HEAVY_ATOM_COUNT>  (1) 
14

>  <PUBCHEM_ATOM_DEF_STEREO_COUNT>  (1) 
0

>  <PUBCHEM_ATOM_UDEF_STEREO_COUNT>  (1) 
1

>  <PUBCHEM_BOND_DEF_STEREO_COUNT>  (1) 
0

>  <PUBCHEM_BOND_UDEF_STEREO_COUNT>  (1) 
0

>  <PUBCHEM_ISOTOPIC_ATOM_COUNT>  (1) 
0

>  <PUBCHEM_COMPONENT_COUNT>  (1) 
1

>  <PUBCHEM_CACTVS_TAUTO_COUNT>  (1) 
1

>  <PUBCHEM_CONFORMER_ID>  (1) 
000067A400000001

>  <PUBCHEM_MMFF94_ENERGY>  (1) 
27.3206

>  <PUBCHEM_FEATURE_SELFOVERLAP>  (1) 
20.297

>  <PUBCHEM_SHAPE_FINGERPRINT>  (1) 
12032990 46 18341613736875511752
124424 183 8286199448418854694
12715332 25 17489586792361554910
12932764 1 17822283536032342809
13296908 3 18410852174931867531
13705890 14 18201719540122216514
14252887 29 16988850462577506134
14350574 20 18202008746119265782
14911166 2 18342746204678763630
14993402 34 15936408961561303878
15477762 27 18342459244638536182
17834074 16 18342175578880624287
18186145 218 18334006185889943465
19422 9 18272937137072386289
1986462 14 18409166606273630525
200 152 17988925569671946162
20281475 54 18411699842140490411
20645477 70 18059570231138912999
20871999 31 18113890564380896887
21267235 1 18411708715685536927
221490 88 18268152131156347818
22485316 2 18410291384983122651
23402539 116 17894345571018884638
23402655 69 18335419006786870316
23557571 272 18408325462656529333
23559900 14 18339074874902687754
25610 137 18272089430602766945
265663 24 17676483939414284042
2871803 45 18335692875803923455
3268164 11 17313376816751932935
4990 188 18273221885104268598
5104073 3 18412823585999917096
58051976 378 18341047428437162654
77779 3 18413108359696178409

>  <PUBCHEM_SHAPE_MULTIPOLES>  (1) 
273.26
9.13
1.59
0.76
0.67
0.03
-0.03
-2.49
1.25
0.82
0.11
-0.12
0.08
0.5

>  <PUBCHEM_SHAPE_SELFOVERLAP>  (1) 
549.386

>  <PUBCHEM_SHAPE_VOLUME>  (1) 
161.3

>  <PUBCHEM_COORDINATE_TYPE>  (1) 
2
5
10

$$$$
