26547
     RDKit          3D

 23 24  0  0  0  0  0  0  0  0999 V2000
   -1.9681   -1.2229   -0.8020 S   0  0  0  0  0  0  0  0  0  0  0  0
   -0.1550    1.8417   -0.1878 O   0  0  0  0  0  0  0  0  0  0  0  0
   -1.2181    2.0393   -2.2201 O   0  0  0  0  0  0  0  0  0  0  0  0
    4.5638    2.4246    0.7358 N   0  0  0  0  0  0  0  0  0  0  0  0
    3.5451    2.4681   -0.3061 C   0  0  0  0  0  0  0  0  0  0  0  0
    2.1743    2.1459    0.2799 C   0  0  0  0  0  0  0  0  0  0  0  0
    1.0912    2.1623   -0.7903 C   0  0  0  0  0  0  0  0  0  0  0  0
    4.5582    1.1244    1.4088 C   0  0  0  0  0  0  0  0  0  0  0  0
    5.8877    2.6995    0.1745 C   0  0  0  0  0  0  0  0  0  0  0  0
   -2.4681    1.4704   -0.2710 C   0  0  0  0  0  0  0  0  0  0  0  0
   -2.8762    0.1596   -0.1197 C   0  0  0  0  0  0  0  0  0  0  0  0
   -1.2330    1.8147   -1.0198 C   0  0  0  0  0  0  0  0  0  0  0  0
   -0.8405   -1.6233    0.5610 C   0  0  0  0  0  0  0  0  0  0  0  0
    0.0573   -2.7842    0.2323 C   0  0  0  0  0  0  0  0  0  0  0  0
   -3.1850    2.5248    0.2644 C   0  0  0  0  0  0  0  0  0  0  0  0
   -4.0447   -0.1086    0.5936 C   0  0  0  0  0  0  0  0  0  0  0  0
   -4.3535    2.2565    0.9775 C   0  0  0  0  0  0  0  0  0  0  0  0
   -4.7832    0.9399    1.1420 C   0  0  0  0  0  0  0  0  0  0  0  0
    1.2859   -2.5505   -0.3716 C   0  0  0  0  0  0  0  0  0  0  0  0
   -0.3530   -4.0754    0.5371 C   0  0  0  0  0  0  0  0  0  0  0  0
    2.1188   -3.6270   -0.6764 C   0  0  0  0  0  0  0  0  0  0  0  0
    0.4800   -5.1520    0.2323 C   0  0  0  0  0  0  0  0  0  0  0  0
    1.7159   -4.9277   -0.3744 C   0  0  0  0  0  0  0  0  0  0  0  0
  1 11  1  0
  1 13  1  0
  2  7  1  0
  2 12  1  0
  3 12  2  0
  4  5  1  0
  4  8  1  0
  4  9  1  0
  5  6  1  0
  6  7  1  0
 10 11  2  0
 10 12  1  0
 10 15  1  0
 11 16  1  0
 13 14  1  0
 14 19  2  0
 14 20  1  0
 15 17  2  0
 16 18  2  0
 17 18  1  0
 19 21  1  0
 20 22  2  0
 21 23  2  0
 22 23  1  0
M  END
>  <PUBCHEM_COMPOUND_CID>  (1) 
26547

>  <PUBCHEM_CONFORMER_RMSD>  (1) 
1

>  <PUBCHEM_CONFORMER_DIVERSEORDER>  (1) 
1
39
101
201
153
223
96
214
99
80
140
118
234
179
4
180
204
187
196
105
146
51
83
222
183
17
168
23
19
143
169
20
199
176
7
63
236
31
5
33
82
175
171
154
142
93
191
112
10
229
57
6
72
205
95
182
13
102
178
50
174
90
49
195
103
94
97
188
91
132
88
42
9
224
128
47
18
184
200
202
106
89
61
216
139
149
87
68
54
28
157
158
218
144
44
213
198
160
147
67
116
110
48
8
108
138
21
164
76
192
151
173
64
65
137
14
75
159
235
11
226
2
211
27
219
210
227
16
69
55
41
35
220
30
163
114
53
86
130
36
232
233
73
22
100
152
136
12
170
212
162
98
123
66
133
127
237
85
81
186
156
190
129
34
92
217
134
104
78
74
60
52
194
161
131
29
38
25
119
3
125
185
121
197
155
181
203
32
126
206
109
113
24
26
215
56
148
15
43
70
77
150
145
45
193
62
124
135
71
58
40
225
209
59
221
37
207
167
115
165
177
166
208
107
122
46
111
79
172
120
230
228
141
189
238
117
231
84

>  <PUBCHEM_MMFF94_PARTIAL_CHARGES>  (1) 
31
1 -0.33
10 0.09
11 0.1
12 0.63
13 0.37
14 -0.14
15 -0.15
16 -0.15
17 -0.15
18 -0.15
19 -0.15
2 -0.43
20 -0.15
21 -0.15
22 -0.15
23 -0.15
3 -0.57
38 0.15
39 0.15
4 -0.81
40 0.15
41 0.15
42 0.15
43 0.15
44 0.15
45 0.15
46 0.15
5 0.27
7 0.28
8 0.27
9 0.27

>  <PUBCHEM_EFFECTIVE_ROTOR_COUNT>  (1) 
9

>  <PUBCHEM_PHARMACOPHORE_FEATURES>  (1) 
4
1 3 acceptor
1 4 cation
6 10 11 15 16 17 18 rings
6 14 19 20 21 22 23 rings

>  <PUBCHEM_HEAVY_ATOM_COUNT>  (1) 
23

>  <PUBCHEM_ATOM_DEF_STEREO_COUNT>  (1) 
0

>  <PUBCHEM_ATOM_UDEF_STEREO_COUNT>  (1) 
0

>  <PUBCHEM_BOND_DEF_STEREO_COUNT>  (1) 
0

>  <PUBCHEM_BOND_UDEF_STEREO_COUNT>  (1) 
0

>  <PUBCHEM_ISOTOPIC_ATOM_COUNT>  (1) 
0

>  <PUBCHEM_COMPONENT_COUNT>  (1) 
1

>  <PUBCHEM_CACTVS_TAUTO_COUNT>  (1) 
1

>  <PUBCHEM_CONFORMER_ID>  (1) 
000067B300000001

>  <PUBCHEM_MMFF94_ENERGY>  (1) 
62.1655

>  <PUBCHEM_FEATURE_SELFOVERLAP>  (1) 
20.297

>  <PUBCHEM_SHAPE_FINGERPRINT>  (1) 
11552529 35 17761768872893285404
12788726 201 17325503584050705774
13540713 4 17970353612374863085
138480 1 17978513027158755722
14100547 121 18193268818125996192
14363568 33 18122917420941659962
14844126 61 17832422373191080656
14866123 147 18195528331490279810
14932702 115 17691177877474992748
15230672 131 18409173225899538630
15927050 60 18342462534662820855
16719943 64 18340205305968164976
18785283 64 18266173933750022946
19930381 70 18193840344970793610
20028762 73 17983023533642606447
21304253 13 17331687847489579329
229767 44 18337094762056415426
23728640 28 18121501516321336457
5171179 24 17687456867865340333
5265222 85 18337966687615502156
532947 4 18266171743210966285
5385378 56 18339934706054999945
58807428 26 18411427236645928593
6287921 2 18340200783009010195
653340 110 17764578116939392120
79837 15 18266743673804022538
9981440 41 18337957891110426019

>  <PUBCHEM_SHAPE_MULTIPOLES>  (1) 
460.46
9.09
7.34
1.18
4.2
11.05
0.23
-11.96
-3.6
7.3
0.11
-0.24
-0.56
0.71

>  <PUBCHEM_SHAPE_SELFOVERLAP>  (1) 
940.22

>  <PUBCHEM_SHAPE_VOLUME>  (1) 
268.3

>  <PUBCHEM_COORDINATE_TYPE>  (1) 
2
5
10

$$$$
