26543
     RDKit          3D

 22 23  0  0  0  0  0  0  0  0999 V2000
   -0.8286   -1.7235   -0.0086 O   0  0  0  0  0  0  0  0  0  0  0  0
   -1.4566   -1.2571    2.1565 O   0  0  0  0  0  0  0  0  0  0  0  0
    1.8863   -4.1981   -0.3106 N   0  0  0  0  0  0  0  0  0  0  0  0
   -0.8308    1.6852    0.4362 C   0  0  0  0  0  0  0  0  0  0  0  0
    0.1977    1.5488   -0.7023 C   0  0  0  0  0  0  0  0  0  0  0  0
   -2.1853    1.1530    0.0971 C   0  0  0  0  0  0  0  0  0  0  0  0
   -2.5392   -0.1594    0.3378 C   0  0  0  0  0  0  0  0  0  0  0  0
    1.5685    2.0598   -0.3309 C   0  0  0  0  0  0  0  0  0  0  0  0
   -3.1211    2.0107   -0.4809 C   0  0  0  0  0  0  0  0  0  0  0  0
    0.8608   -3.2493   -0.7430 C   0  0  0  0  0  0  0  0  0  0  0  0
    0.1444   -2.6495    0.4565 C   0  0  0  0  0  0  0  0  0  0  0  0
   -3.7920   -0.6497    0.0235 C   0  0  0  0  0  0  0  0  0  0  0  0
   -1.5626   -1.0947    0.9508 C   0  0  0  0  0  0  0  0  0  0  0  0
    1.8856    3.3883   -0.5668 C   0  0  0  0  0  0  0  0  0  0  0  0
    2.4861    1.1914    0.2393 C   0  0  0  0  0  0  0  0  0  0  0  0
   -4.3925    1.5383   -0.8066 C   0  0  0  0  0  0  0  0  0  0  0  0
   -4.7279    0.2082   -0.5544 C   0  0  0  0  0  0  0  0  0  0  0  0
    3.1527    3.8605   -0.2239 C   0  0  0  0  0  0  0  0  0  0  0  0
    3.7530    1.6635    0.5824 C   0  0  0  0  0  0  0  0  0  0  0  0
    2.8547   -3.5398    0.5655 C   0  0  0  0  0  0  0  0  0  0  0  0
    2.5604   -4.7848   -1.4682 C   0  0  0  0  0  0  0  0  0  0  0  0
    4.0863    2.9982    0.3505 C   0  0  0  0  0  0  0  0  0  0  0  0
  1 11  1  0
  1 13  1  0
  2 13  2  0
  3 10  1  0
  3 20  1  0
  3 21  1  0
  4  5  1  0
  4  6  1  0
  5  8  1  0
  6  7  2  0
  6  9  1  0
  7 12  1  0
  7 13  1  0
  8 14  2  0
  8 15  1  0
  9 16  2  0
 10 11  1  0
 12 17  2  0
 14 18  1  0
 15 19  2  0
 16 17  1  0
 18 22  2  0
 19 22  1  0
M  END
>  <PUBCHEM_COMPOUND_CID>  (1) 
26543

>  <PUBCHEM_CONFORMER_RMSD>  (1) 
0.8

>  <PUBCHEM_CONFORMER_DIVERSEORDER>  (1) 
1
128
195
151
34
168
51
186
90
10
44
178
191
27
204
248
91
258
72
173
136
85
102
66
114
137
250
71
254
111
176
213
133
223
93
264
32
205
24
92
74
135
121
119
189
200
171
55
177
123
232
33
99
239
244
221
231
26
235
50
150
67
198
126
201
9
37
224
236
96
206
31
75
215
82
30
245
110
122
134
83
19
106
4
60
218
70
125
81
188
100
207
238
243
117
165
181
251
148
58
185
226
230
98
210
17
21
86
131
153
163
147
45
260
103
113
89
25
179
255
242
47
124
39
18
145
193
142
212
41
14
197
104
11
5
23
112
259
63
57
140
61
149
95
240
211
69
2
15
88
169
202
49
175
208
52
152
22
237
42
146
225
38
28
196
252
107
233
62
97
261
115
116
241
73
35
16
182
162
180
77
129
203
209
78
144
256
219
132
166
40
249
76
158
13
56
105
139
154
234
59
12
3
87
46
130
199
246
79
194
54
101
8
172
229
109
68
48
127
36
192
174
216
108
257
65
183
156
138
247
118
253
262
170
167
217
157
160
29
222
43
120
220
155
94
64
214
164
141
227
161
184
6
80
7
263
84
20
190
143
187
53
228
159

>  <PUBCHEM_MMFF94_PARTIAL_CHARGES>  (1) 
31
1 -0.43
10 0.27
11 0.28
12 -0.15
13 0.63
14 -0.15
15 -0.15
16 -0.15
17 -0.15
18 -0.15
19 -0.15
2 -0.57
20 0.27
21 0.27
22 -0.15
27 0.15
3 -0.81
32 0.15
33 0.15
34 0.15
35 0.15
36 0.15
37 0.15
38 0.15
4 0.14
45 0.15
5 0.14
6 -0.14
7 0.09
8 -0.14
9 -0.15

>  <PUBCHEM_EFFECTIVE_ROTOR_COUNT>  (1) 
8

>  <PUBCHEM_PHARMACOPHORE_FEATURES>  (1) 
4
1 2 acceptor
1 3 cation
6 6 7 9 12 16 17 rings
6 8 14 15 18 19 22 rings

>  <PUBCHEM_HEAVY_ATOM_COUNT>  (1) 
22

>  <PUBCHEM_ATOM_DEF_STEREO_COUNT>  (1) 
0

>  <PUBCHEM_ATOM_UDEF_STEREO_COUNT>  (1) 
0

>  <PUBCHEM_BOND_DEF_STEREO_COUNT>  (1) 
0

>  <PUBCHEM_BOND_UDEF_STEREO_COUNT>  (1) 
0

>  <PUBCHEM_ISOTOPIC_ATOM_COUNT>  (1) 
0

>  <PUBCHEM_COMPONENT_COUNT>  (1) 
1

>  <PUBCHEM_CACTVS_TAUTO_COUNT>  (1) 
1

>  <PUBCHEM_CONFORMER_ID>  (1) 
000067AF00000001

>  <PUBCHEM_MMFF94_ENERGY>  (1) 
61.1967

>  <PUBCHEM_FEATURE_SELFOVERLAP>  (1) 
20.297

>  <PUBCHEM_SHAPE_FINGERPRINT>  (1) 
10050765 1 18337951187637277677
107951 10 17604709013757727146
1100329 8 17474672745679912761
11045515 52 17692814787547022355
11315621 246 17042067113188867580
11370993 70 18337386170480721468
12293681 160 17105376472955606819
12500047 106 18050281763076862880
12523318 42 17621584439066097088
12788726 201 17400908091468188418
133893 2 18128837273292253755
13402501 40 18265045830941643090
13540713 4 18114185190953792301
138480 1 18194681462828874574
13931106 250 17762328523994844553
14508225 48 17764297350130813391
14844126 61 17615680078545924008
14955137 171 17402916431435187953
15006816 218 18409729551636672320
15475509 8 17191783784869253677
15961568 22 18122903128161326498
167882 2 18409725140916269015
19930381 70 18410570660857346023
21344244 246 18339344319565239519
23419403 2 17754495337413688433
23559900 14 18410285891894492224
23728640 28 17976819010268082201
3027735 51 17912078657581650223
3298306 158 18408886243577509212
4017518 198 18272363222911678806
5265222 85 18191880130867311428
532947 4 18411419471292134654
6443956 14 18120370952185823644
9709674 26 18190745421370406617
9981440 41 18337950224493569249

>  <PUBCHEM_SHAPE_MULTIPOLES>  (1) 
436.03
7.84
6.64
1.1
3.65
7.85
0.2
-5.39
-0.65
-9.69
-2
0.11
0.68
1.28

>  <PUBCHEM_SHAPE_SELFOVERLAP>  (1) 
909.116

>  <PUBCHEM_SHAPE_VOLUME>  (1) 
248.4

>  <PUBCHEM_COORDINATE_TYPE>  (1) 
2
5
10

$$$$
