26540
     RDKit          3D

 35 39  0  0  0  0  0  0  0  0999 V2000
    4.5466    1.6175    0.2321 O   0  0  0  0  0  0  0  0  0  0  0  0
    4.0280    1.5463   -2.0180 O   0  0  0  0  0  0  0  0  0  0  0  0
    0.1962   -0.9047   -0.5846 N   0  0  0  0  0  0  0  0  0  0  0  0
   -3.2044    0.0856   -0.7551 N   0  0  0  0  0  0  0  0  0  0  0  0
    3.0549   -0.0543   -0.4832 C   0  0  0  0  0  0  0  0  0  0  0  0
    1.9490    0.5135    0.4466 C   0  0  0  0  0  0  0  0  0  0  0  0
    2.3366   -0.5615   -1.7622 C   0  0  0  0  0  0  0  0  0  0  0  0
    0.7901   -0.4643    0.6825 C   0  0  0  0  0  0  0  0  0  0  0  0
    1.1987   -1.5374   -1.4486 C   0  0  0  0  0  0  0  0  0  0  0  0
   -0.9211   -1.8161   -0.3397 C   0  0  0  0  0  0  0  0  0  0  0  0
    3.9739   -1.1186    0.1343 C   0  0  0  0  0  0  0  0  0  0  0  0
    3.9220    1.1235   -0.8746 C   0  0  0  0  0  0  0  0  0  0  0  0
   -1.8938   -1.8603   -1.5223 C   0  0  0  0  0  0  0  0  0  0  0  0
   -2.4967   -0.5080   -1.9009 C   0  0  0  0  0  0  0  0  0  0  0  0
    3.7687   -1.5403    1.4480 C   0  0  0  0  0  0  0  0  0  0  0  0
    5.0142   -1.6633   -0.6185 C   0  0  0  0  0  0  0  0  0  0  0  0
   -2.7364    1.3770   -0.3989 C   0  0  0  0  0  0  0  0  0  0  0  0
   -4.3346   -0.6110   -0.2451 C   0  0  0  0  0  0  0  0  0  0  0  0
    4.6037   -2.5069    2.0087 C   0  0  0  0  0  0  0  0  0  0  0  0
    5.8491   -2.6299   -0.0578 C   0  0  0  0  0  0  0  0  0  0  0  0
   -2.5315    1.7438    0.9416 C   0  0  0  0  0  0  0  0  0  0  0  0
   -4.8713   -0.4186    1.0514 C   0  0  0  0  0  0  0  0  0  0  0  0
   -2.8092    0.7642    2.0451 C   0  0  0  0  0  0  0  0  0  0  0  0
   -4.3013    0.4852    2.1240 C   0  0  0  0  0  0  0  0  0  0  0  0
    5.6439   -3.0516    1.2557 C   0  0  0  0  0  0  0  0  0  0  0  0
    5.4040    2.7405    0.0046 C   0  0  0  0  0  0  0  0  0  0  0  0
   -2.4502    2.3381   -1.3928 C   0  0  0  0  0  0  0  0  0  0  0  0
   -5.0206   -1.5313   -1.0827 C   0  0  0  0  0  0  0  0  0  0  0  0
   -2.0547    3.0274    1.2621 C   0  0  0  0  0  0  0  0  0  0  0  0
   -6.0507   -1.1062    1.4321 C   0  0  0  0  0  0  0  0  0  0  0  0
    6.0174    3.1673    1.3211 C   0  0  0  0  0  0  0  0  0  0  0  0
   -1.9791    3.6114   -1.0674 C   0  0  0  0  0  0  0  0  0  0  0  0
   -6.1705   -2.2152   -0.6805 C   0  0  0  0  0  0  0  0  0  0  0  0
   -1.7800    3.9560    0.2622 C   0  0  0  0  0  0  0  0  0  0  0  0
   -6.6911   -1.9980    0.5806 C   0  0  0  0  0  0  0  0  0  0  0  0
  1 12  1  0
  1 26  1  0
  2 12  2  0
  3  8  1  0
  3  9  1  0
  3 10  1  0
  4 14  1  0
  4 17  1  0
  4 18  1  0
  5  6  1  0
  5  7  1  0
  5 11  1  0
  5 12  1  0
  6  8  1  0
  7  9  1  0
 10 13  1  0
 11 15  2  0
 11 16  1  0
 13 14  1  0
 15 19  1  0
 16 20  2  0
 17 21  2  0
 17 27  1  0
 18 22  2  0
 18 28  1  0
 19 25  2  0
 20 25  1  0
 21 23  1  0
 21 29  1  0
 22 24  1  0
 22 30  1  0
 23 24  1  0
 26 31  1  0
 27 32  2  0
 28 33  2  0
 29 34  2  0
 30 35  2  0
 32 34  1  0
 33 35  1  0
M  END
>  <PUBCHEM_COMPOUND_CID>  (1) 
26540

>  <PUBCHEM_CONFORMER_RMSD>  (1) 
1

>  <PUBCHEM_CONFORMER_DIVERSEORDER>  (1) 
1
119
205
41
123
190
181
78
62
213
221
74
171
216
168
64
180
48
106
96
211
7
36
175
53
185
218
86
109
140
184
155
132
51
187
206
115
101
194
33
128
45
71
208
220
198
16
113
138
133
188
207
35
230
94
193
3
108
186
200
22
66
47
105
204
219
201
156
127
17
59
107
182
27
11
226
146
195
52
202
189
224
31
76
197
110
144
103
179
112
212
145
217
25
203
160
227
122
164
111
42
38
225
231
131
32
21
73
90
136
19
214
5
67
135
215
163
192
20
85
167
176
174
165
57
29
229
172
153
55
93
68
129
196
114
169
75
81
134
91
152
84
50
4
70
61
223
151
24
56
147
157
141
148
120
14
116
40
10
166
191
72
170
80
69
77
104
118
49
150
130
2
210
9
97
30
54
95
15
26
177
39
65
23
46
8
139
83
183
34
137
209
63
92
82
154
28
121
60
99
6
161
37
162
124
58
159
228
89
13
79
43
117
222
44
98
149
178
142
88
12
199
173
125
158
18
102
100
126
87
143

>  <PUBCHEM_MMFF94_PARTIAL_CHARGES>  (1) 
44
1 -0.43
10 0.27
11 -0.14
12 0.66
14 0.37
15 -0.15
16 -0.15
17 0.1
18 0.1
19 -0.15
2 -0.57
20 -0.15
21 -0.14
22 -0.14
23 0.14
24 0.14
25 -0.15
26 0.28
27 -0.15
28 -0.15
29 -0.15
3 -0.81
30 -0.15
32 -0.15
33 -0.15
34 -0.15
35 -0.15
4 -0.57
5 0.2
50 0.15
51 0.15
52 0.15
53 0.15
58 0.15
61 0.15
62 0.15
63 0.15
64 0.15
68 0.15
69 0.15
70 0.15
71 0.15
8 0.27
9 0.27

>  <PUBCHEM_EFFECTIVE_ROTOR_COUNT>  (1) 
9.8

>  <PUBCHEM_PHARMACOPHORE_FEATURES>  (1) 
8
1 2 acceptor
1 3 cation
1 4 cation
6 11 15 16 19 20 25 rings
6 17 21 27 29 32 34 rings
6 18 22 28 30 33 35 rings
6 3 5 6 7 8 9 rings
7 4 17 18 21 22 23 24 rings

>  <PUBCHEM_HEAVY_ATOM_COUNT>  (1) 
35

>  <PUBCHEM_ATOM_DEF_STEREO_COUNT>  (1) 
0

>  <PUBCHEM_ATOM_UDEF_STEREO_COUNT>  (1) 
0

>  <PUBCHEM_BOND_DEF_STEREO_COUNT>  (1) 
0

>  <PUBCHEM_BOND_UDEF_STEREO_COUNT>  (1) 
0

>  <PUBCHEM_ISOTOPIC_ATOM_COUNT>  (1) 
0

>  <PUBCHEM_COMPONENT_COUNT>  (1) 
1

>  <PUBCHEM_CACTVS_TAUTO_COUNT>  (1) 
1

>  <PUBCHEM_CONFORMER_ID>  (1) 
000067AC00000001

>  <PUBCHEM_MMFF94_ENERGY>  (1) 
119.1751

>  <PUBCHEM_FEATURE_SELFOVERLAP>  (1) 
40.613

>  <PUBCHEM_SHAPE_FINGERPRINT>  (1) 
10366900 7 13695872510478398063
11135609 201 17346029099888805288
12107698 1 18261676978109680074
12166972 35 17894354393066567751
12422481 6 17917155996389035167
13533116 47 18187367636109216090
13560911 43 18409164416061901328
13583140 156 17970630684207540768
13782708 43 17676485016808192250
14118638 360 18334858308076495316
14347332 77 18336263444728511139
14394314 77 18272378611310684201
14840074 17 18270134525131206949
14950920 106 18187655664957789011
15484559 13 13032205994852057026
17349148 13 18336267855581043126
17844677 252 18335699395590444622
1813 80 18339933709774963749
19319366 153 18189333653157036646
19377110 9 18272083929013145058
23559900 14 14490485200565525479
392239 28 18339091401984224739
4015057 19 14563111229393571015
460360 51 18052258397130988398
469060 322 18341624685427722515
5104073 3 18410855430121796608
57527293 21 18339377270628148281
5912855 24 18195242449872550438
6081469 158 18411698765227396655

>  <PUBCHEM_SHAPE_MULTIPOLES>  (1) 
698.58
16.32
4.26
1.96
3.11
3.37
0.2
-7.55
4.49
2.48
0.45
-0.37
-0.13
-1.18

>  <PUBCHEM_SHAPE_SELFOVERLAP>  (1) 
1505.739

>  <PUBCHEM_SHAPE_VOLUME>  (1) 
381.2

>  <PUBCHEM_COORDINATE_TYPE>  (1) 
2
5
10

$$$$
