26545
     RDKit          3D

 23 24  0  0  0  0  0  0  0  0999 V2000
   -0.2533   -1.7527   -0.2323 O   0  0  0  0  0  0  0  0  0  0  0  0
    0.7608   -1.7942   -2.2985 O   0  0  0  0  0  0  0  0  0  0  0  0
   -5.0022   -1.6425    0.7149 N   0  0  0  0  0  0  0  0  0  0  0  0
    2.1227    0.7307   -0.3560 C   0  0  0  0  0  0  0  0  0  0  0  0
    1.1605    1.3138    0.6961 C   0  0  0  0  0  0  0  0  0  0  0  0
    2.7013   -0.5946    0.0194 C   0  0  0  0  0  0  0  0  0  0  0  0
   -2.6004   -1.7162    0.2442 C   0  0  0  0  0  0  0  0  0  0  0  0
   -4.0058   -1.6909   -0.3482 C   0  0  0  0  0  0  0  0  0  0  0  0
    2.0890   -1.7851   -0.3184 C   0  0  0  0  0  0  0  0  0  0  0  0
   -1.5358   -1.7449   -0.8442 C   0  0  0  0  0  0  0  0  0  0  0  0
    0.5592    2.6358    0.2853 C   0  0  0  0  0  0  0  0  0  0  0  0
    3.8991   -0.6292    0.7335 C   0  0  0  0  0  0  0  0  0  0  0  0
    0.8136   -1.7780   -1.0785 C   0  0  0  0  0  0  0  0  0  0  0  0
    2.6263   -3.0096    0.0290 C   0  0  0  0  0  0  0  0  0  0  0  0
    4.4606   -1.8539    1.0952 C   0  0  0  0  0  0  0  0  0  0  0  0
    1.2107    3.8123    0.6210 C   0  0  0  0  0  0  0  0  0  0  0  0
   -0.6335    2.6500   -0.4209 C   0  0  0  0  0  0  0  0  0  0  0  0
   -6.3529   -1.5835    0.1534 C   0  0  0  0  0  0  0  0  0  0  0  0
   -4.7664   -0.4934    1.5910 C   0  0  0  0  0  0  0  0  0  0  0  0
    3.8241   -3.0439    0.7430 C   0  0  0  0  0  0  0  0  0  0  0  0
    0.6553    5.0341    0.2412 C   0  0  0  0  0  0  0  0  0  0  0  0
   -1.1888    3.8719   -0.8007 C   0  0  0  0  0  0  0  0  0  0  0  0
   -0.5443    5.0640   -0.4696 C   0  0  0  0  0  0  0  0  0  0  0  0
  1 10  1  0
  1 13  1  0
  2 13  2  0
  3  8  1  0
  3 18  1  0
  3 19  1  0
  4  5  1  0
  4  6  1  0
  5 11  1  0
  6  9  2  0
  6 12  1  0
  7  8  1  0
  7 10  1  0
  9 13  1  0
  9 14  1  0
 11 16  2  0
 11 17  1  0
 12 15  2  0
 14 20  2  0
 15 20  1  0
 16 21  1  0
 17 22  2  0
 21 23  2  0
 22 23  1  0
M  END
>  <PUBCHEM_COMPOUND_CID>  (1) 
26545

>  <PUBCHEM_CONFORMER_RMSD>  (1) 
1

>  <PUBCHEM_CONFORMER_DIVERSEORDER>  (1) 
1
135
164
70
161
25
2
106
157
168
100
3
96
65
21
93
143
165
12
111
142
28
101
48
154
34
110
137
180
82
4
40
81
177
42
149
115
123
13
151
103
72
152
19
97
63
146
145
23
36
66
27
32
98
85
125
11
33
175
8
52
172
95
156
148
79
171
140
144
10
67
141
107
112
53
127
167
46
126
158
69
45
113
58
41
122
102
104
132
71
169
18
50
6
15
16
64
130
118
134
61
173
84
73
90
117
78
108
147
133
24
68
121
139
179
22
44
166
56
129
136
54
120
88
20
138
51
57
83
30
155
87
105
43
38
17
116
80
62
37
162
174
60
5
29
26
128
76
114
178
14
163
92
109
31
89
47
39
119
7
86
77
75
35
170
74
9
176
124
150
49
59
159
99
91
94
55
131
160
153

>  <PUBCHEM_MMFF94_PARTIAL_CHARGES>  (1) 
31
1 -0.43
10 0.28
11 -0.14
12 -0.15
13 0.63
14 -0.15
15 -0.15
16 -0.15
17 -0.15
18 0.27
19 0.27
2 -0.57
20 -0.15
21 -0.15
22 -0.15
23 -0.15
3 -0.81
34 0.15
35 0.15
36 0.15
37 0.15
38 0.15
4 0.14
45 0.15
46 0.15
47 0.15
48 0.15
5 0.14
6 -0.14
8 0.27
9 0.09

>  <PUBCHEM_EFFECTIVE_ROTOR_COUNT>  (1) 
9

>  <PUBCHEM_PHARMACOPHORE_FEATURES>  (1) 
4
1 2 acceptor
1 3 cation
6 11 16 17 21 22 23 rings
6 6 9 12 14 15 20 rings

>  <PUBCHEM_HEAVY_ATOM_COUNT>  (1) 
23

>  <PUBCHEM_ATOM_DEF_STEREO_COUNT>  (1) 
0

>  <PUBCHEM_ATOM_UDEF_STEREO_COUNT>  (1) 
0

>  <PUBCHEM_BOND_DEF_STEREO_COUNT>  (1) 
0

>  <PUBCHEM_BOND_UDEF_STEREO_COUNT>  (1) 
0

>  <PUBCHEM_ISOTOPIC_ATOM_COUNT>  (1) 
0

>  <PUBCHEM_COMPONENT_COUNT>  (1) 
1

>  <PUBCHEM_CACTVS_TAUTO_COUNT>  (1) 
1

>  <PUBCHEM_CONFORMER_ID>  (1) 
000067B100000001

>  <PUBCHEM_MMFF94_ENERGY>  (1) 
61.6963

>  <PUBCHEM_FEATURE_SELFOVERLAP>  (1) 
20.297

>  <PUBCHEM_SHAPE_FINGERPRINT>  (1) 
10074138 170 17470976239638199458
10688039 33 18334293137071217295
108634 29 17908700627343410167
10937287 8 17258214597696785481
11370993 70 17187553954788723668
12107183 9 17184446155219554856
12293681 4 18122331390292581943
12788726 201 18261111812444017650
13052359 8 17760922940223339082
13134695 92 18337103557458828135
13540713 4 17769927988502136486
13583140 156 18189622829279855379
138480 1 14664139408160064457
14363568 33 18265052620514798092
14790565 3 17832708246352367836
15420108 30 17771896405829637414
15475509 84 18263636291030387330
18785283 64 18120937471446881027
20739085 24 18341897441124839450
21041028 32 18336819814950362174
21860390 5 18271256031180764303
345986 75 17824242844136415834
4409770 3 17976252444242282797
474 4 18052537969996017875
5283268 108 18411706447858434634
5939293 188 18269280229970284574
79837 15 17546441181044209160
9709674 26 16832612892386163492
9777508 108 17691406313045911131

>  <PUBCHEM_SHAPE_MULTIPOLES>  (1) 
456.61
9.02
7.08
1.21
12.25
12.74
0.22
-12.56
-3.84
-0.02
0.41
0.14
-0.48
0.35

>  <PUBCHEM_SHAPE_SELFOVERLAP>  (1) 
947.19

>  <PUBCHEM_SHAPE_VOLUME>  (1) 
261.4

>  <PUBCHEM_COORDINATE_TYPE>  (1) 
2
5
10

$$$$
