26553
     RDKit          3D

 29 31  0  0  0  0  0  0  0  0999 V2000
    7.6144   -3.9114   -0.8284 Br  0  0  0  0  0  0  0  0  0  0  0  0
    4.5282    1.4538    0.8982 S   0  0  0  0  0  0  0  0  0  0  0  0
    5.1614    2.5710    0.2117 O   0  0  0  0  0  0  0  0  0  0  0  0
    4.5016    1.4207    2.3547 O   0  0  0  0  0  0  0  0  0  0  0  0
   -3.2588    0.7898   -1.3776 O   0  0  0  0  0  0  0  0  0  0  0  0
   -2.2219    0.1370    0.5883 O   0  0  0  0  0  0  0  0  0  0  0  0
   -8.7623   -0.4035    1.3918 O   0  0  0  0  0  0  0  0  0  0  0  0
   -8.3389   -2.3715    0.5158 O   0  0  0  0  0  0  0  0  0  0  0  0
   -1.0308    1.1679   -1.1498 N   0  0  0  0  0  0  0  0  0  0  0  0
   -8.0293   -1.1735    0.7250 N   0  0  0  0  0  0  0  0  0  0  0  0
    2.8916    1.3696    0.2951 C   0  0  0  0  0  0  0  0  0  0  0  0
    5.3795   -0.0262    0.4217 C   0  0  0  0  0  0  0  0  0  0  0  0
    2.5885    1.8682   -0.9718 C   0  0  0  0  0  0  0  0  0  0  0  0
    1.8874    0.8039    1.0805 C   0  0  0  0  0  0  0  0  0  0  0  0
    0.2769    1.2348   -0.6681 C   0  0  0  0  0  0  0  0  0  0  0  0
    1.2811    1.8008   -1.4534 C   0  0  0  0  0  0  0  0  0  0  0  0
    0.5800    0.7364    0.5989 C   0  0  0  0  0  0  0  0  0  0  0  0
    6.0527   -0.0544   -0.7848 C   0  0  0  0  0  0  0  0  0  0  0  0
    5.3510   -1.1185    1.2675 C   0  0  0  0  0  0  0  0  0  0  0  0
    6.7225   -1.2191   -1.1595 C   0  0  0  0  0  0  0  0  0  0  0  0
    6.0208   -2.2832    0.8927 C   0  0  0  0  0  0  0  0  0  0  0  0
    6.7065   -2.3335   -0.3208 C   0  0  0  0  0  0  0  0  0  0  0  0
   -2.1614    0.6463   -0.5249 C   0  0  0  0  0  0  0  0  0  0  0  0
   -4.4560    0.2966   -0.8485 C   0  0  0  0  0  0  0  0  0  0  0  0
   -5.2538    1.1464   -0.1166 C   0  0  0  0  0  0  0  0  0  0  0  0
   -4.7879   -1.0187   -1.0821 C   0  0  0  0  0  0  0  0  0  0  0  0
   -6.8126   -0.6738    0.1904 C   0  0  0  0  0  0  0  0  0  0  0  0
   -6.4483    0.6546    0.4098 C   0  0  0  0  0  0  0  0  0  0  0  0
   -5.9824   -1.5104   -0.5555 C   0  0  0  0  0  0  0  0  0  0  0  0
  1 22  1  0
  2  3  2  0
  2  4  2  0
  2 11  1  0
  2 12  1  0
  5 23  1  0
  5 24  1  0
  6 23  2  0
  7 10  1  0
  8 10  2  0
  9 15  1  0
  9 23  1  0
 10 27  1  0
 11 13  2  0
 11 14  1  0
 12 18  2  0
 12 19  1  0
 13 16  1  0
 14 17  2  0
 15 16  2  0
 15 17  1  0
 18 20  1  0
 19 21  2  0
 20 22  2  0
 21 22  1  0
 24 25  2  0
 24 26  1  0
 25 28  1  0
 26 29  2  0
 27 28  2  0
 27 29  1  0
M  CHG  2   7  -1  10   1
M  END
>  <PUBCHEM_COMPOUND_CID>  (1) 
26553

>  <PUBCHEM_CONFORMER_RMSD>  (1) 
0.8

>  <PUBCHEM_CONFORMER_DIVERSEORDER>  (1) 
1
28
35
13
29
20
6
27
36
30
33
31
2
14
5
34
10
32
26
25
4
16
18
23
8
21
15
24
3
9
7
12
17
22
19
11

>  <PUBCHEM_MMFF94_PARTIAL_CHARGES>  (1) 
42
1 -0.11
10 0.91
11 -0.01
12 -0.01
13 -0.15
14 -0.15
15 0.12
16 -0.15
17 -0.15
18 -0.15
19 -0.15
2 1.32
20 -0.15
21 -0.15
22 0.11
23 0.78
24 0.08
25 -0.15
26 -0.15
27 0.13
28 -0.15
29 -0.15
3 -0.65
30 0.15
31 0.15
32 0.15
33 0.15
34 0.15
35 0.15
36 0.15
37 0.15
38 0.37
39 0.15
4 -0.65
40 0.15
41 0.15
42 0.15
5 -0.23
6 -0.57
7 -0.52
8 -0.52
9 -0.55

>  <PUBCHEM_EFFECTIVE_ROTOR_COUNT>  (1) 
7

>  <PUBCHEM_PHARMACOPHORE_FEATURES>  (1) 
11
1 1 hydrophobe
1 3 acceptor
1 4 acceptor
1 6 acceptor
1 7 acceptor
1 7 anion
1 8 acceptor
1 9 donor
6 11 13 14 15 16 17 rings
6 12 18 19 20 21 22 rings
6 24 25 26 27 28 29 rings

>  <PUBCHEM_HEAVY_ATOM_COUNT>  (1) 
29

>  <PUBCHEM_ATOM_DEF_STEREO_COUNT>  (1) 
0

>  <PUBCHEM_ATOM_UDEF_STEREO_COUNT>  (1) 
0

>  <PUBCHEM_BOND_DEF_STEREO_COUNT>  (1) 
0

>  <PUBCHEM_BOND_UDEF_STEREO_COUNT>  (1) 
0

>  <PUBCHEM_ISOTOPIC_ATOM_COUNT>  (1) 
0

>  <PUBCHEM_COMPONENT_COUNT>  (1) 
1

>  <PUBCHEM_CACTVS_TAUTO_COUNT>  (1) 
2

>  <PUBCHEM_CONFORMER_ID>  (1) 
000067B900000001

>  <PUBCHEM_MMFF94_ENERGY>  (1) 
76.9638

>  <PUBCHEM_FEATURE_SELFOVERLAP>  (1) 
55.921

>  <PUBCHEM_SHAPE_FINGERPRINT>  (1) 
10 15 15123507029813465952
10280341 67 13469862347383825371
10299344 5 18408325492847692765
10316853 100 18335137588309827466
10740516 88 18339934697270256694
11135609 127 8286200531436324516
11211813 74 9655586197228413507
11408170 108 18410293645371070127
117089 54 17842283558812938198
11719270 70 16845575309542650684
11761917 87 18341903943510854947
11991303 11 14779554525658538835
12166972 35 18408604777070180048
125118 31 11167942476275489378
12661589 4 17895745215663283146
13533116 47 18343577465355227176
1361 4 18268143330589302654
13668630 136 17749385997200391233
13685833 64 18408040706087239093
13782708 43 18410281515074326020
13835254 42 18408598150563857732
14347424 109 17346308311459897128
14400156 162 18343310232669437787
14565420 104 11095880454791086964
14675020 138 15410898444518283500
15183329 4 16950281810493217825
15350500 55 9439101171361599222
15352257 5 18335138691488454079
15475509 35 18201430351838117858
1577012 14 16343695586150282177
16994733 274 8934705683231857174
17134984 74 18113899309420322770
1818759 1 17386012793452320283
18335252 98 18335980948145851784
20105231 36 17530688710577661547
2026 5 18189896418802209570
20554085 129 13398630537289029311
20609170 94 8068581874489413369
20715895 44 10303803311954073774
20721686 146 9799105480731749610
21130935 74 18271523203853068635
21150785 3 13406792242419910317
21267235 1 17894632569761693189
21344244 181 18260831501329799282
21641784 216 15213573447831053668
21781051 124 17168439241476692835
21792934 111 14620524384815655313
21814621 53 18201707432098330601
2303208 19 18261100864218887140
23081809 10 17274811506411228789
23522609 53 17751382606779347700
23569943 247 17972031444836755946
27425 322 8790878588973506824
2748736 6 11023819583054444270
33532 11 18409448089756178519
34797466 226 17530965813214426004
3504750 166 18341890793333253637
3918712 181 9439399112430825670
397638 26 15267342916334842255
397638 5 14764349289406459587
45377200 153 17677626405131827315
465052 167 18201434749879140252
5104073 3 15912467151505812861
5265222 85 8430308040343458889
54076057 127 18340484560826962040
57634706 306 9223220832932241764
58260988 647 18340491067564973290
5937810 71 11170181048497751935
70634741 139 8069729803310371341
9831232 110 18334852763094745030

>  <PUBCHEM_SHAPE_MULTIPOLES>  (1) 
561.42
27.57
2.99
1.44
32.23
2.09
0.2
23.77
4.15
-6.09
-0.3
-0.79
-0.27
1.84

>  <PUBCHEM_SHAPE_SELFOVERLAP>  (1) 
1194.056

>  <PUBCHEM_SHAPE_VOLUME>  (1) 
318.8

>  <PUBCHEM_COORDINATE_TYPE>  (1) 
2
5
10

$$$$
