26555
     RDKit          3D

 28 30  0  0  0  0  0  0  0  0999 V2000
    4.7873   -1.0870    0.6559 S   0  0  0  0  0  0  0  0  0  0  0  0
    5.5501   -2.0363   -0.1441 O   0  0  0  0  0  0  0  0  0  0  0  0
    4.7902   -1.1981    2.1078 O   0  0  0  0  0  0  0  0  0  0  0  0
   -3.1647   -1.1121   -1.0831 O   0  0  0  0  0  0  0  0  0  0  0  0
   -2.0675   -0.4823    0.8575 O   0  0  0  0  0  0  0  0  0  0  0  0
   -7.6444    2.4173    0.5497 O   0  0  0  0  0  0  0  0  0  0  0  0
   -5.9317    2.9996   -0.6939 O   0  0  0  0  0  0  0  0  0  0  0  0
   -0.8994   -1.2649   -1.0202 N   0  0  0  0  0  0  0  0  0  0  0  0
   -6.5653    2.1446   -0.0294 N   0  0  0  0  0  0  0  0  0  0  0  0
    3.1131   -1.1395    0.1623 C   0  0  0  0  0  0  0  0  0  0  0  0
    5.4479    0.5030    0.2343 C   0  0  0  0  0  0  0  0  0  0  0  0
    2.7762   -1.5850   -1.1158 C   0  0  0  0  0  0  0  0  0  0  0  0
    2.1126   -0.7357    1.0463 C   0  0  0  0  0  0  0  0  0  0  0  0
    0.4382   -1.2233   -0.6257 C   0  0  0  0  0  0  0  0  0  0  0  0
    1.4388   -1.6269   -1.5098 C   0  0  0  0  0  0  0  0  0  0  0  0
    0.7751   -0.7777    0.6524 C   0  0  0  0  0  0  0  0  0  0  0  0
    5.3660    1.5295    1.1556 C   0  0  0  0  0  0  0  0  0  0  0  0
    6.0292    0.6802   -1.0066 C   0  0  0  0  0  0  0  0  0  0  0  0
    5.8853    2.7807    0.8236 C   0  0  0  0  0  0  0  0  0  0  0  0
    6.5485    1.9316   -1.3387 C   0  0  0  0  0  0  0  0  0  0  0  0
    6.4766    2.9819   -0.4237 C   0  0  0  0  0  0  0  0  0  0  0  0
   -2.0318   -0.9082   -0.2913 C   0  0  0  0  0  0  0  0  0  0  0  0
   -4.3668   -0.7844   -0.4474 C   0  0  0  0  0  0  0  0  0  0  0  0
   -4.8461    0.5005   -0.5638 C   0  0  0  0  0  0  0  0  0  0  0  0
   -6.0446    0.8270    0.0707 C   0  0  0  0  0  0  0  0  0  0  0  0
   -5.0213   -1.7605    0.2691 C   0  0  0  0  0  0  0  0  0  0  0  0
   -6.7315   -0.1401    0.8046 C   0  0  0  0  0  0  0  0  0  0  0  0
   -6.2197   -1.4339    0.9037 C   0  0  0  0  0  0  0  0  0  0  0  0
  1  2  2  0
  1  3  2  0
  1 10  1  0
  1 11  1  0
  4 22  1  0
  4 23  1  0
  5 22  2  0
  6  9  1  0
  7  9  2  0
  8 14  1  0
  8 22  1  0
  9 25  1  0
 10 12  2  0
 10 13  1  0
 11 17  2  0
 11 18  1  0
 12 15  1  0
 13 16  2  0
 14 15  2  0
 14 16  1  0
 17 19  1  0
 18 20  2  0
 19 21  2  0
 20 21  1  0
 23 24  2  0
 23 26  1  0
 24 25  1  0
 25 27  2  0
 26 28  2  0
 27 28  1  0
M  CHG  2   6  -1   9   1
M  END
>  <PUBCHEM_COMPOUND_CID>  (1) 
26555

>  <PUBCHEM_CONFORMER_RMSD>  (1) 
0.8

>  <PUBCHEM_CONFORMER_DIVERSEORDER>  (1) 
4
88
47
80
38
34
86
73
48
12
77
81
57
95
79
13
92
17
94
10
78
32
74
54
37
27
91
83
33
96
53
9
18
82
85
66
75
14
5
63
84
58
93
62
67
3
97
2
64
39
19
11
68
61
20
6
72
90
35
87
30
76
31
40
49
25
65
71
89
50
21
26
15
28
70
69
1
46
22
43
16
36
41
29
45
51
60
42
44
52
8
55
56
7
59
24
23

>  <PUBCHEM_MMFF94_PARTIAL_CHARGES>  (1) 
42
1 1.32
10 -0.01
11 -0.01
12 -0.15
13 -0.15
14 0.12
15 -0.15
16 -0.15
17 -0.15
18 -0.15
19 -0.15
2 -0.65
20 -0.15
21 -0.15
22 0.78
23 0.08
24 -0.15
25 0.13
26 -0.15
27 -0.15
28 -0.15
29 0.15
3 -0.65
30 0.15
31 0.15
32 0.15
33 0.15
34 0.15
35 0.15
36 0.15
37 0.37
38 0.15
39 0.15
4 -0.23
40 0.15
41 0.15
42 0.15
5 -0.57
6 -0.52
7 -0.52
8 -0.55
9 0.91

>  <PUBCHEM_EFFECTIVE_ROTOR_COUNT>  (1) 
7

>  <PUBCHEM_PHARMACOPHORE_FEATURES>  (1) 
10
1 2 acceptor
1 3 acceptor
1 5 acceptor
1 6 acceptor
1 6 anion
1 7 acceptor
1 8 donor
6 10 12 13 14 15 16 rings
6 11 17 18 19 20 21 rings
6 23 24 25 26 27 28 rings

>  <PUBCHEM_HEAVY_ATOM_COUNT>  (1) 
28

>  <PUBCHEM_ATOM_DEF_STEREO_COUNT>  (1) 
0

>  <PUBCHEM_ATOM_UDEF_STEREO_COUNT>  (1) 
0

>  <PUBCHEM_BOND_DEF_STEREO_COUNT>  (1) 
0

>  <PUBCHEM_BOND_UDEF_STEREO_COUNT>  (1) 
0

>  <PUBCHEM_ISOTOPIC_ATOM_COUNT>  (1) 
0

>  <PUBCHEM_COMPONENT_COUNT>  (1) 
1

>  <PUBCHEM_CACTVS_TAUTO_COUNT>  (1) 
2

>  <PUBCHEM_CONFORMER_ID>  (1) 
000067BB00000004

>  <PUBCHEM_MMFF94_ENERGY>  (1) 
75.9467

>  <PUBCHEM_FEATURE_SELFOVERLAP>  (1) 
50.847

>  <PUBCHEM_SHAPE_FINGERPRINT>  (1) 
10 15 18409733967738954011
10066227 112 18343584023543207197
10554248 39 17774434984503802374
10673678 19 18271531995935849852
10693767 8 11671795844947731212
10730089 47 9511463320712230750
10883706 163 18264770957351473381
10883706 17 10447637015957642556
10906281 52 17703804625494708715
11646440 116 15213019340872207678
11991303 11 16988558052186981471
125118 31 18410856538165303953
12596602 18 18187082849617502299
12661589 4 9150880660011145732
13533116 47 17458338590549003170
13782708 43 8790885185646861115
14211702 104 7997693129182228113
14251757 52 18412263952083195648
14347332 77 10087654692762353250
14461889 52 17386289917057753434
14849402 71 17895483647084802053
14933364 13 18410013242853671379
15183329 4 17203896274789055385
15188451 53 8502114932791740684
15475509 35 10881398760162533804
1577012 14 18343298193037135463
16994733 274 18334856142727709065
17686467 74 18336827615560336051
19377110 9 16588022403127972815
1979834 28 15357689774284238962
19841028 212 9582981046774731284
19958102 18 12679456486993828925
20058555 10 18341895164998667289
2026 5 10807673167861858188
20281389 69 18410572873219190643
20567600 234 16878222078020480086
20567600 247 10663829576495446964
21130935 74 17822010895814637891
21136928 126 15167136316946290804
21424621 283 18187085048719918027
21521239 73 11743838062501306588
21585482 111 18335419058633186932
21641784 216 16916799465314011632
22061861 79 11312065356838070074
23081809 10 18341882013428875647
23559900 14 8934705683717725495
29717793 49 12607407702245054690
312425 54 17530683199712529979
328310 630 17989211438917243417
3663271 9 18040151820958465075
394071 54 16443068335457547068
397830 11 18115314495831061619
4058900 60 17917441903477109519
4073 2 18259990396420046827
4093350 32 18411422808977777870
4144715 1 18335711550226904579
4169191 19 18409727391637842749
4340502 62 17458619060650942370
44317340 157 18412261723221840510
444735 82 18335707169207262492
465052 167 11746935382762613594
504579 68 14405186140986364593
5104073 3 15792556475038710828
531348 171 10519717687255193259
5364581 5 18335423512914490897
5718773 13 8502653697241265397
59682541 52 14620524419491820588
6328613 192 18342176669965880401
6441014 3 10669943913646153952
68570916 9 18335698390236255746
9689198 14 18340775922206075100
9831232 110 10159714481734194224

>  <PUBCHEM_SHAPE_MULTIPOLES>  (1) 
534.9
23.95
2.95
1.33
16.89
2.45
-0.09
16.91
-2.12
-0.8
0.24
-1.38
-0.23
-0.07

>  <PUBCHEM_SHAPE_SELFOVERLAP>  (1) 
1152.445

>  <PUBCHEM_SHAPE_VOLUME>  (1) 
293.6

>  <PUBCHEM_COORDINATE_TYPE>  (1) 
2
5
10

$$$$
