26558
     RDKit          3D

 23 24  0  0  0  0  0  0  0  0999 V2000
   -1.5315   -1.4596    1.0242 S   0  0  0  0  0  0  0  0  0  0  0  0
    0.4776    2.0805    0.6151 O   0  0  0  0  0  0  0  0  0  0  0  0
   -0.9897    2.2668   -1.1549 O   0  0  0  0  0  0  0  0  0  0  0  0
    3.9934    2.7464   -0.2693 N   0  0  0  0  0  0  0  0  0  0  0  0
   -2.9441    0.8835    0.4920 C   0  0  0  0  0  0  0  0  0  0  0  0
    2.8452    2.4186    0.5753 C   0  0  0  0  0  0  0  0  0  0  0  0
   -1.7910    1.6677    1.0631 C   0  0  0  0  0  0  0  0  0  0  0  0
    1.5617    2.4198   -0.2396 C   0  0  0  0  0  0  0  0  0  0  0  0
   -2.9227   -0.5040    0.4319 C   0  0  0  0  0  0  0  0  0  0  0  0
   -4.0394    1.5992    0.0240 C   0  0  0  0  0  0  0  0  0  0  0  0
   -0.7590    2.0387    0.0248 C   0  0  0  0  0  0  0  0  0  0  0  0
   -0.5072   -1.5723   -0.4685 C   0  0  0  0  0  0  0  0  0  0  0  0
   -4.0140   -1.1873   -0.1046 C   0  0  0  0  0  0  0  0  0  0  0  0
    0.7583   -2.3492   -0.2309 C   0  0  0  0  0  0  0  0  0  0  0  0
    5.2228    2.7609    0.5225 C   0  0  0  0  0  0  0  0  0  0  0  0
    4.1063    1.7915   -1.3712 C   0  0  0  0  0  0  0  0  0  0  0  0
   -5.1306    0.9157   -0.5127 C   0  0  0  0  0  0  0  0  0  0  0  0
   -5.1178   -0.4775   -0.5771 C   0  0  0  0  0  0  0  0  0  0  0  0
    0.7672   -3.7230   -0.4351 C   0  0  0  0  0  0  0  0  0  0  0  0
    1.9024   -1.6836    0.1894 C   0  0  0  0  0  0  0  0  0  0  0  0
    1.9409   -4.4438   -0.2149 C   0  0  0  0  0  0  0  0  0  0  0  0
    3.0761   -2.4045    0.4094 C   0  0  0  0  0  0  0  0  0  0  0  0
    3.0953   -3.7846    0.2073 C   0  0  0  0  0  0  0  0  0  0  0  0
  1  9  1  0
  1 12  1  0
  2  8  1  0
  2 11  1  0
  3 11  2  0
  4  6  1  0
  4 15  1  0
  4 16  1  0
  5  7  1  0
  5  9  2  0
  5 10  1  0
  6  8  1  0
  7 11  1  0
  9 13  1  0
 10 17  2  0
 12 14  1  0
 13 18  2  0
 14 19  2  0
 14 20  1  0
 17 18  1  0
 19 21  1  0
 20 22  2  0
 21 23  2  0
 22 23  1  0
M  END
>  <PUBCHEM_COMPOUND_CID>  (1) 
26558

>  <PUBCHEM_CONFORMER_RMSD>  (1) 
1

>  <PUBCHEM_CONFORMER_DIVERSEORDER>  (1) 
1
77
114
78
83
108
156
51
80
125
36
72
177
157
79
29
150
149
35
120
47
99
28
164
171
86
33
26
145
129
118
57
88
197
167
27
104
224
50
181
201
111
42
60
136
213
70
98
56
199
75
8
215
165
106
2
46
170
103
116
18
22
223
87
38
16
40
43
39
89
160
186
195
179
32
173
208
10
151
172
19
24
159
82
53
81
187
123
76
92
221
203
20
143
140
14
7
95
112
117
211
107
91
193
184
163
122
85
168
25
162
147
220
202
59
102
189
205
21
133
3
31
190
97
5
9
152
68
45
219
154
41
49
138
183
146
44
175
194
15
139
23
84
161
200
71
96
55
52
12
48
166
191
73
212
67
109
153
134
222
37
6
90
121
141
62
13
128
137
69
101
93
61
30
115
124
65
54
17
66
130
206
214
188
204
178
132
105
4
74
198
210
100
113
180
110
119
185
11
216
63
182
217
158
135
155
196
226
126
127
209
227
176
169
142
64
58
34
192
131
225
207
174
94
148
218
144

>  <PUBCHEM_MMFF94_PARTIAL_CHARGES>  (1) 
32
1 -0.33
10 -0.15
11 0.66
12 0.37
13 -0.15
14 -0.14
15 0.27
16 0.27
17 -0.15
18 -0.15
19 -0.15
2 -0.43
20 -0.15
21 -0.15
22 -0.15
23 -0.15
3 -0.57
30 0.15
33 0.15
4 -0.81
40 0.15
41 0.15
42 0.15
43 0.15
44 0.15
45 0.15
46 0.15
5 -0.14
6 0.27
7 0.2
8 0.28
9 0.1

>  <PUBCHEM_EFFECTIVE_ROTOR_COUNT>  (1) 
9

>  <PUBCHEM_PHARMACOPHORE_FEATURES>  (1) 
4
1 3 acceptor
1 4 cation
6 14 19 20 21 22 23 rings
6 5 9 10 13 17 18 rings

>  <PUBCHEM_HEAVY_ATOM_COUNT>  (1) 
23

>  <PUBCHEM_ATOM_DEF_STEREO_COUNT>  (1) 
0

>  <PUBCHEM_ATOM_UDEF_STEREO_COUNT>  (1) 
0

>  <PUBCHEM_BOND_DEF_STEREO_COUNT>  (1) 
0

>  <PUBCHEM_BOND_UDEF_STEREO_COUNT>  (1) 
0

>  <PUBCHEM_ISOTOPIC_ATOM_COUNT>  (1) 
0

>  <PUBCHEM_COMPONENT_COUNT>  (1) 
1

>  <PUBCHEM_CACTVS_TAUTO_COUNT>  (1) 
1

>  <PUBCHEM_CONFORMER_ID>  (1) 
000067BE00000001

>  <PUBCHEM_MMFF94_ENERGY>  (1) 
55.6668

>  <PUBCHEM_FEATURE_SELFOVERLAP>  (1) 
20.297

>  <PUBCHEM_SHAPE_FINGERPRINT>  (1) 
107951 10 17604989406392188267
1100329 8 17763469417896840033
138480 1 18267022743756873914
14028597 1 17702125710352165777
14251757 5 17472439006741407556
14790565 3 18266178512201055660
14866123 147 18051970617817195298
15927050 60 18269836578865356014
15961568 22 18052257298347542494
16120349 306 18193821851353522072
16719943 64 18194680599914929632
167882 2 18409728435140575113
19591789 44 18339084912161779854
19930381 70 18410572847027400306
20600515 1 17120859782391670460
21344244 246 18338222865281889991
23402539 116 17910101414238072575
23419403 2 18042669620860043255
23559900 14 18267576910428653411
3298306 158 18339080496418727316
338550 245 18335701706578392092
5265222 85 18048888686192348116
532947 4 18412550928849683062
5385378 56 18411991264799554977
59755656 215 18266455598243020239
67856867 119 18410290272597519287
9981440 41 18264490753009011635

>  <PUBCHEM_SHAPE_MULTIPOLES>  (1) 
460.46
9.73
5.74
0.97
3.55
3.86
-0.04
-5.07
-1.04
-8.7
-0.22
-0.09
-0.28
-0.17

>  <PUBCHEM_SHAPE_SELFOVERLAP>  (1) 
939.188

>  <PUBCHEM_SHAPE_VOLUME>  (1) 
268.1

>  <PUBCHEM_COORDINATE_TYPE>  (1) 
2
5
10

$$$$
