26569
     RDKit          3D

 19 20  0  0  0  0  0  0  0  0999 V2000
    1.1343   -0.8077    0.0004 O   0  0  0  0  0  0  0  0  0  0  0  0
    0.1793   -2.9022   -0.0001 O   0  0  0  0  0  0  0  0  0  0  0  0
   -4.9396    2.5232   -0.0007 N   0  0  0  0  0  0  0  0  0  0  0  0
   -6.0287    0.4556    0.0032 N   0  0  0  0  0  0  0  0  0  0  0  0
    3.4676   -0.2989    0.0001 C   0  0  0  0  0  0  0  0  0  0  0  0
   -1.1958   -0.9544   -0.0007 C   0  0  0  0  0  0  0  0  0  0  0  0
    2.4409   -1.3930    0.0000 C   0  0  0  0  0  0  0  0  0  0  0  0
   -3.6259    0.4158   -0.0002 C   0  0  0  0  0  0  0  0  0  0  0  0
   -1.2102    0.4405   -0.0001 C   0  0  0  0  0  0  0  0  0  0  0  0
   -2.3966   -1.6642   -0.0011 C   0  0  0  0  0  0  0  0  0  0  0  0
   -2.4252    1.1255    0.0002 C   0  0  0  0  0  0  0  0  0  0  0  0
   -3.6116   -0.9791   -0.0010 C   0  0  0  0  0  0  0  0  0  0  0  0
    0.0708   -1.6686    0.0003 C   0  0  0  0  0  0  0  0  0  0  0  0
    3.9382    0.2038   -1.2079 C   0  0  0  0  0  0  0  0  0  0  0  0
    3.9391    0.2029    1.2082 C   0  0  0  0  0  0  0  0  0  0  0  0
    4.8925    1.2211   -1.2079 C   0  0  0  0  0  0  0  0  0  0  0  0
    4.8933    1.2203    1.2081 C   0  0  0  0  0  0  0  0  0  0  0  0
    5.3700    1.7294    0.0000 C   0  0  0  0  0  0  0  0  0  0  0  0
   -4.8923    1.1300   -0.0007 C   0  0  0  0  0  0  0  0  0  0  0  0
  1  7  1  0
  1 13  1  0
  2 13  2  0
  3 19  1  0
  4 19  2  0
  5  7  1  0
  5 14  2  0
  5 15  1  0
  6  9  2  0
  6 10  1  0
  6 13  1  0
  8 11  2  0
  8 12  1  0
  8 19  1  0
  9 11  1  0
 10 12  2  0
 14 16  1  0
 15 17  2  0
 16 18  2  0
 17 18  1  0
M  END
>  <PUBCHEM_COMPOUND_CID>  (1) 
26569

>  <PUBCHEM_CONFORMER_RMSD>  (1) 
0.6

>  <PUBCHEM_CONFORMER_DIVERSEORDER>  (1) 
1
18
24
29
5
10
23
21
4
22
27
2
28
26
8
20
19
3
16
25
9
15
17
7
13
11
14
6
12

>  <PUBCHEM_MMFF94_PARTIAL_CHARGES>  (1) 
31
1 -0.43
10 -0.15
11 -0.15
12 -0.15
13 0.63
14 -0.15
15 -0.15
16 -0.15
17 -0.15
18 -0.15
19 0.41
2 -0.57
22 0.15
23 0.15
24 0.15
25 0.15
26 0.15
27 0.15
28 0.15
29 0.15
3 -0.85
30 0.15
31 0.4
32 0.4
33 0.4
4 -0.85
5 -0.14
6 0.09
7 0.42
8 0.09
9 -0.15

>  <PUBCHEM_EFFECTIVE_ROTOR_COUNT>  (1) 
5

>  <PUBCHEM_PHARMACOPHORE_FEATURES>  (1) 
6
1 2 acceptor
1 3 donor
1 4 donor
3 3 4 19 cation
6 5 14 15 16 17 18 rings
6 6 8 9 10 11 12 rings

>  <PUBCHEM_HEAVY_ATOM_COUNT>  (1) 
19

>  <PUBCHEM_ATOM_DEF_STEREO_COUNT>  (1) 
0

>  <PUBCHEM_ATOM_UDEF_STEREO_COUNT>  (1) 
0

>  <PUBCHEM_BOND_DEF_STEREO_COUNT>  (1) 
0

>  <PUBCHEM_BOND_UDEF_STEREO_COUNT>  (1) 
0

>  <PUBCHEM_ISOTOPIC_ATOM_COUNT>  (1) 
0

>  <PUBCHEM_COMPONENT_COUNT>  (1) 
1

>  <PUBCHEM_CACTVS_TAUTO_COUNT>  (1) 
1

>  <PUBCHEM_CONFORMER_ID>  (1) 
000067C900000001

>  <PUBCHEM_MMFF94_ENERGY>  (1) 
57.9575

>  <PUBCHEM_FEATURE_SELFOVERLAP>  (1) 
30.489

>  <PUBCHEM_SHAPE_FINGERPRINT>  (1) 
10014705 185 18411134732298339527
10378564 45 18060147496956465894
10411042 1 17617660299078212547
10498660 4 18272092712332249544
10670039 82 18337686213271037732
12390115 104 18272102586477737931
12596602 18 16950565514399992232
12633257 1 15864075407453342044
12730499 353 18131642179015799958
12788726 201 17318465554403730314
12969540 114 17632569448947607933
13955234 65 18192434065225630947
1420 369 8862943874917338748
14341114 328 17313104172238570960
14528608 73 18273210893924222901
15196674 1 18410855460233936166
15238133 3 18336260228620958960
15342168 16 18333171673881487614
15885798 251 8935001468892196974
17834072 32 18410014359782486740
18222031 100 8862940589167195506
20388580 30 10952043472789305906
20645477 70 16486712341589578886
212847 35 18411698777668855634
221357 26 17060624386736706480
22289505 5 17846782919074731168
23016692 55 8718547259246465474
23227448 37 18200589336125367646
23403322 49 9439407929865944555
23557571 272 18128549325784283118
23559900 14 18127126373081136366
245318 6 17460616941486697684
2767999 5 18335132098776737645
2838139 119 18272078383841379908
2916195 48 18201151161124580424
3472631 163 18338239379214839356
34797466 226 17275106162800436429
3545911 37 18410578374935211830
3680242 22 18334295323325979736
4028521 119 18131636711769851714
4340502 62 16805609140347653667
474 4 18113344097852684678
5104073 3 18261678065211309755
59682541 35 18262248802683840955
59682541 52 16629966508005913284
633830 44 18411133606706386654
67856867 119 18265607697825028899
7064713 232 18334012800350764660
7808743 9 18265051517451709144
8863177 126 11527077097892011173
960060 61 13470687062038303400
9981440 41 18334014999406006843

>  <PUBCHEM_SHAPE_MULTIPOLES>  (1) 
369.31
13.81
2.26
0.92
0.57
0.45
0
-9.56
0
1.02
0
-1.44
-0.2
0

>  <PUBCHEM_SHAPE_SELFOVERLAP>  (1) 
791.618

>  <PUBCHEM_SHAPE_VOLUME>  (1) 
203.2

>  <PUBCHEM_COORDINATE_TYPE>  (1) 
2
5
10

$$$$
