26568
     RDKit          3D

 16 18  0  0  0  0  0  0  0  0999 V2000
   -6.4675   -0.7632   -0.0142 O   0  0  0  0  0  0  0  0  0  0  0  0
   -3.0713    0.6538    0.0051 N   0  0  0  0  0  0  0  0  0  0  0  0
    0.7264    0.5241    0.0001 C   0  0  0  0  0  0  0  0  0  0  0  0
    2.3336   -0.9892    1.2457 C   0  0  0  0  0  0  0  0  0  0  0  0
    2.3459   -0.9518   -1.2741 C   0  0  0  0  0  0  0  0  0  0  0  0
    3.2100    1.0307    0.0197 C   0  0  0  0  0  0  0  0  0  0  0  0
    0.9233   -0.3738    1.2446 C   0  0  0  0  0  0  0  0  0  0  0  0
    0.9356   -0.3366   -1.2683 C   0  0  0  0  0  0  0  0  0  0  0  0
    1.7972    1.6405    0.0217 C   0  0  0  0  0  0  0  0  0  0  0  0
    2.5185   -1.8335   -0.0261 C   0  0  0  0  0  0  0  0  0  0  0  0
    3.3782    0.1392    1.2612 C   0  0  0  0  0  0  0  0  0  0  0  0
    3.3904    0.1763   -1.2460 C   0  0  0  0  0  0  0  0  0  0  0  0
   -0.6776    1.1345    0.0023 C   0  0  0  0  0  0  0  0  0  0  0  0
   -1.7450    0.0484    0.0217 C   0  0  0  0  0  0  0  0  0  0  0  0
   -4.1089   -0.3673    0.0339 C   0  0  0  0  0  0  0  0  0  0  0  0
   -5.4889    0.2679   -0.0273 C   0  0  0  0  0  0  0  0  0  0  0  0
  1 16  1  0
  2 14  1  0
  2 15  1  0
  3  7  1  0
  3  8  1  0
  3  9  1  0
  3 13  1  0
  4  7  1  0
  4 10  1  0
  4 11  1  0
  5  8  1  0
  5 10  1  0
  5 12  1  0
  6  9  1  0
  6 11  1  0
  6 12  1  0
 13 14  1  0
 15 16  1  0
M  END
>  <PUBCHEM_COMPOUND_CID>  (1) 
26568

>  <PUBCHEM_CONFORMER_RMSD>  (1) 
0.8

>  <PUBCHEM_CONFORMER_DIVERSEORDER>  (1) 
1
6
5
2
3
4

>  <PUBCHEM_MMFF94_PARTIAL_CHARGES>  (1) 
7
1 -0.68
14 0.27
15 0.27
16 0.28
2 -0.9
36 0.36
41 0.4

>  <PUBCHEM_EFFECTIVE_ROTOR_COUNT>  (1) 
6.2

>  <PUBCHEM_PHARMACOPHORE_FEATURES>  (1) 
8
1 1 acceptor
1 1 donor
1 2 cation
1 2 donor
6 3 4 5 7 8 10 rings
6 3 4 6 7 9 11 rings
6 3 5 6 8 9 12 rings
6 4 5 6 10 11 12 rings

>  <PUBCHEM_HEAVY_ATOM_COUNT>  (1) 
16

>  <PUBCHEM_ATOM_DEF_STEREO_COUNT>  (1) 
0

>  <PUBCHEM_ATOM_UDEF_STEREO_COUNT>  (1) 
0

>  <PUBCHEM_BOND_DEF_STEREO_COUNT>  (1) 
0

>  <PUBCHEM_BOND_UDEF_STEREO_COUNT>  (1) 
0

>  <PUBCHEM_ISOTOPIC_ATOM_COUNT>  (1) 
0

>  <PUBCHEM_COMPONENT_COUNT>  (1) 
1

>  <PUBCHEM_CACTVS_TAUTO_COUNT>  (1) 
1

>  <PUBCHEM_CONFORMER_ID>  (1) 
000067C800000001

>  <PUBCHEM_MMFF94_ENERGY>  (1) 
29.8873

>  <PUBCHEM_FEATURE_SELFOVERLAP>  (1) 
53.111

>  <PUBCHEM_SHAPE_FINGERPRINT>  (1) 
12423570 1 11725659738660651432
12616999 72 18334022682954299134
13464513 79 18202284710241453148
14252887 29 18343867710153658449
15061688 2 14202552839541157310
16945 1 18411411813745201892
18186145 218 11891333132257088205
20645477 70 18335138666040286751
23402655 69 12973608832956942359
23557571 272 17095514076666059117
239999 70 18343308088583704766
3060560 45 18412833499190656654
427121 178 17060041671417622106
522135 26 18335139782657592875
5281201 14 15502648261713480095
5374978 207 16415760812887901155
54040823 5 18413673508715033898
7164475 11 17096078061680251053

>  <PUBCHEM_SHAPE_MULTIPOLES>  (1) 
318.42
9.86
1.37
1.22
23.57
0.06
-0.01
1.4
-0.05
-0.96
0.01
-1.31
0.23
0

>  <PUBCHEM_SHAPE_SELFOVERLAP>  (1) 
664.528

>  <PUBCHEM_SHAPE_VOLUME>  (1) 
175.6

>  <PUBCHEM_COORDINATE_TYPE>  (1) 
2
5
10

$$$$
