26564
     RDKit          3D

 23 26  0  0  1  0  0  0  0  0999 V2000
   -7.3995    1.4658   -0.8661 F   0  0  0  0  0  0  0  0  0  0  0  0
   -2.1501   -0.5709    1.9001 O   0  0  0  0  0  0  0  0  0  0  0  0
    1.7045   -0.5716   -0.1261 N   0  0  0  0  0  0  0  0  0  0  0  0
    3.9955   -0.8839   -0.6089 C   0  0  0  0  0  0  0  0  0  0  0  0
    3.7760   -0.4450    0.8620 C   0  0  0  0  0  0  0  0  0  0  0  0
    4.9079    0.1536   -1.3216 C   0  0  0  0  0  0  0  0  0  0  0  0
    4.5807    0.8433    1.1633 C   0  0  0  0  0  0  0  0  0  0  0  0
    4.2892    1.5695   -1.2451 C   0  0  0  0  0  0  0  0  0  0  0  0
    4.1147    1.9900    0.2323 C   0  0  0  0  0  0  0  0  0  0  0  0
    2.6004   -1.0549   -1.2012 C   0  0  0  0  0  0  0  0  0  0  0  0
    2.3000   -0.2550    0.9628 C   0  0  0  0  0  0  0  0  0  0  0  0
    6.1915    0.2029   -0.5079 C   0  0  0  0  0  0  0  0  0  0  0  0
    6.0204    0.5510    0.7797 C   0  0  0  0  0  0  0  0  0  0  0  0
    0.2515   -0.4919   -0.3418 C   0  0  0  0  0  0  0  0  0  0  0  0
   -0.3740   -1.8351    0.0162 C   0  0  0  0  0  0  0  0  0  0  0  0
   -1.8959   -1.8242   -0.1466 C   0  0  0  0  0  0  0  0  0  0  0  0
   -2.5964   -0.8497    0.7898 C   0  0  0  0  0  0  0  0  0  0  0  0
   -3.8789   -0.2316    0.3476 C   0  0  0  0  0  0  0  0  0  0  0  0
   -4.6961   -0.9416   -0.5030 C   0  0  0  0  0  0  0  0  0  0  0  0
   -4.1987    1.0267    0.8066 C   0  0  0  0  0  0  0  0  0  0  0  0
   -5.8961   -0.3631   -0.9167 C   0  0  0  0  0  0  0  0  0  0  0  0
   -5.3988    1.6053    0.3932 C   0  0  0  0  0  0  0  0  0  0  0  0
   -6.2476    0.9103   -0.4685 C   0  0  0  0  0  0  0  0  0  0  0  0
  1 23  1  0
  2 17  2  0
  3 10  1  0
  3 11  2  0
  3 14  1  0
  4  5  1  0
  4  6  1  0
  4 10  1  0
  5  7  1  0
  5 11  1  0
  6  8  1  0
  6 12  1  0
  7  9  1  0
  7 13  1  0
  8  9  1  0
 12 13  2  0
 14 15  1  0
 15 16  1  0
 16 17  1  0
 17 18  1  0
 18 19  2  0
 18 20  1  0
 19 21  1  0
 20 22  2  0
 21 23  2  0
 22 23  1  0
M  CHG  1   3   1
M  END
>  <PUBCHEM_COMPOUND_CID>  (1) 
26564

>  <PUBCHEM_CONFORMER_RMSD>  (1) 
0.8

>  <PUBCHEM_CONFORMER_DIVERSEORDER>  (1) 
1
73
121
14
117
34
2
100
102
130
6
96
50
20
119
137
52
58
3
85
125
94
62
9
98
132
92
42
86
39
81
30
26
110
114
74
122
106
44
19
69
91
78
48
25
103
32
113
66
33
24
70
45
87
27
12
17
21
97
82
29
131
51
64
5
139
88
4
72
95
120
15
84
133
28
79
108
101
140
77
134
128
71
115
53
111
136
127
67
8
68
109
37
83
65
57
126
129
38
54
31
47
43
141
18
90
35
135
46
105
13
7
59
93
23
89
104
107
63
76
41
10
99
116
56
49
118
61
60
112
55
40
11
80
138
36
22
124
16
123
75

>  <PUBCHEM_MMFF94_PARTIAL_CHARGES>  (1) 
26
1 -0.19
10 0.35
11 0.28
12 -0.29
13 -0.29
14 0.35
16 0.06
17 0.42
18 0.09
19 -0.15
2 -0.57
20 -0.15
21 -0.15
22 -0.15
23 0.19
3 -0.09
34 0.06
35 0.15
36 0.15
43 0.15
44 0.15
45 0.15
46 0.15
5 0.06
6 0.14
7 0.14

>  <PUBCHEM_EFFECTIVE_ROTOR_COUNT>  (1) 
5.6

>  <PUBCHEM_PHARMACOPHORE_FEATURES>  (1) 
4
1 2 acceptor
5 3 4 5 10 11 rings
6 18 19 20 21 22 23 rings
8 4 5 6 7 8 9 12 13 rings

>  <PUBCHEM_HEAVY_ATOM_COUNT>  (1) 
23

>  <PUBCHEM_ATOM_DEF_STEREO_COUNT>  (1) 
0

>  <PUBCHEM_ATOM_UDEF_STEREO_COUNT>  (1) 
4

>  <PUBCHEM_BOND_DEF_STEREO_COUNT>  (1) 
0

>  <PUBCHEM_BOND_UDEF_STEREO_COUNT>  (1) 
0

>  <PUBCHEM_ISOTOPIC_ATOM_COUNT>  (1) 
0

>  <PUBCHEM_COMPONENT_COUNT>  (1) 
1

>  <PUBCHEM_CACTVS_TAUTO_COUNT>  (1) 
2

>  <PUBCHEM_CONFORMER_ID>  (1) 
000067C400000001

>  <PUBCHEM_MMFF94_ENERGY>  (1) 
66.023

>  <PUBCHEM_FEATURE_SELFOVERLAP>  (1) 
20.385

>  <PUBCHEM_SHAPE_FINGERPRINT>  (1) 
10 15 14996290218960182863
10299344 5 10303812107640751445
10591671 39 18341615953785849503
10670039 82 18201446835136960888
11089746 13 18409164437394306226
11524674 6 13406796627835208705
12236239 1 17748826340885856690
12596602 18 16298393482577630209
12616971 3 13695874761094307098
12633257 1 15502380057900948867
12778500 126 17458620087037005400
13402501 40 18412823581832173089
13533116 47 17458616766573806746
13668630 136 13830131698019265197
13673619 4 10807929371704146587
13685833 64 9151167667058148727
14251764 18 15357703002725494315
14251764 30 11239992361363728269
14341114 176 13334735734724196702
14347332 77 12607417558867756475
14528608 73 18131632287705649415
14556957 393 16343713140272478809
15003188 100 17775560974515208928
15142383 8 14634858747882168982
15183329 4 17704354342758821283
15238133 3 17313110751996547798
15348495 7 14273749481192954013
15352257 5 10231754500665759013
15537594 2 11963385275986890384
15799311 1 10447649157697883941
16110190 28 12540705833398092635
17349148 13 12175629485669032406
17780758 139 11818992981411909711
1813 80 11024105464937100787
1979834 28 14707207682267979050
20157964 124 18272933795382439551
20281389 69 18113896035931867869
21033648 29 18337104674129011888
21150785 3 13758353397483666746
21267235 1 11819267842254866578
21298829 104 18337673006526358981
21623969 137 11818990773091961248
22061861 79 15841556270796884357
221357 26 16773795887503935032
22950370 63 9223229659100746867
23503953 91 15936415575689796074
23522609 53 10014740707984271595
23559900 14 16988551451059714539
239999 70 11674877793378017928
2767999 5 18334574633786476093
2838139 119 18408879633981744341
29717793 49 15195294114089622482
300161 21 18410854360669684387
312425 54 15213301958220990216
33382 64 8862950476208258844
34797466 226 16559034929986481497
351380 3 10879992454287752909
439807 62 11527955538641113629
465052 167 11169905087968060616
5104073 3 15285928047210121688
5283173 99 18201158763238020777
5385378 56 17095518431900054035
542803 24 18040998453179838403
5924683 9 15068920714791625971
59682541 52 16916789530901661695
6328613 192 18261119629416423516
7495541 125 7925910366297149486
8863177 126 8502356837665320349
999808 66 12175613032530407245

>  <PUBCHEM_SHAPE_MULTIPOLES>  (1) 
455.21
18.96
1.72
1.29
14.13
0.22
-0.08
8.26
3.6
0.64
0.12
-0.56
0.07
0.3

>  <PUBCHEM_SHAPE_SELFOVERLAP>  (1) 
989.55

>  <PUBCHEM_SHAPE_VOLUME>  (1) 
254.1

>  <PUBCHEM_COORDINATE_TYPE>  (1) 
2
5
10

$$$$
