26560
     RDKit          3D

 25 26  0  0  0  0  0  0  0  0999 V2000
    1.6663    1.1276    1.1779 S   0  0  0  0  0  0  0  0  0  0  0  0
   -0.2363   -2.2457   -0.1690 O   0  0  0  0  0  0  0  0  0  0  0  0
    1.5198   -2.1696   -1.6627 O   0  0  0  0  0  0  0  0  0  0  0  0
   -4.3623   -1.4058    0.6157 N   0  0  0  0  0  0  0  0  0  0  0  0
   -2.9318   -1.2691    0.1148 C   0  0  0  0  0  0  0  0  0  0  0  0
   -2.5612   -2.5105   -0.6783 C   0  0  0  0  0  0  0  0  0  0  0  0
   -5.3068   -1.5216   -0.5720 C   0  0  0  0  0  0  0  0  0  0  0  0
   -4.4798   -2.6524    1.4808 C   0  0  0  0  0  0  0  0  0  0  0  0
   -4.7310   -0.1801    1.4392 C   0  0  0  0  0  0  0  0  0  0  0  0
   -1.1520   -2.4077   -1.2434 C   0  0  0  0  0  0  0  0  0  0  0  0
    1.0849   -2.1374   -0.5195 C   0  0  0  0  0  0  0  0  0  0  0  0
    1.9175   -1.9736    0.7298 C   0  0  0  0  0  0  0  0  0  0  0  0
    3.1499   -1.1350    0.5094 C   0  0  0  0  0  0  0  0  0  0  0  0
    3.1434    0.2492    0.6820 C   0  0  0  0  0  0  0  0  0  0  0  0
    4.3224   -1.7838    0.1218 C   0  0  0  0  0  0  0  0  0  0  0  0
    4.3093    0.9843    0.4672 C   0  0  0  0  0  0  0  0  0  0  0  0
    1.4276    2.2553   -0.2225 C   0  0  0  0  0  0  0  0  0  0  0  0
    5.4882   -1.0485   -0.0931 C   0  0  0  0  0  0  0  0  0  0  0  0
    5.4815    0.3355    0.0794 C   0  0  0  0  0  0  0  0  0  0  0  0
    0.0168    2.7702   -0.3021 C   0  0  0  0  0  0  0  0  0  0  0  0
   -0.3355    3.9447    0.3629 C   0  0  0  0  0  0  0  0  0  0  0  0
   -0.9394    2.0737   -1.0414 C   0  0  0  0  0  0  0  0  0  0  0  0
   -1.6439    4.4226    0.2889 C   0  0  0  0  0  0  0  0  0  0  0  0
   -2.2477    2.5518   -1.1155 C   0  0  0  0  0  0  0  0  0  0  0  0
   -2.6000    3.7262   -0.4502 C   0  0  0  0  0  0  0  0  0  0  0  0
  1 14  1  0
  1 17  1  0
  2 10  1  0
  2 11  1  0
  3 11  2  0
  4  5  1  0
  4  7  1  0
  4  8  1  0
  4  9  1  0
  5  6  1  0
  6 10  1  0
 11 12  1  0
 12 13  1  0
 13 14  2  0
 13 15  1  0
 14 16  1  0
 15 18  2  0
 16 19  2  0
 17 20  1  0
 18 19  1  0
 20 21  2  0
 20 22  1  0
 21 23  1  0
 22 24  2  0
 23 25  2  0
 24 25  1  0
M  CHG  1   4   1
M  END
>  <PUBCHEM_COMPOUND_CID>  (1) 
26560

>  <PUBCHEM_CONFORMER_RMSD>  (1) 
1.2

>  <PUBCHEM_CONFORMER_DIVERSEORDER>  (1) 
2
99
54
69
57
66
105
19
20
1
78
75
79
29
5
43
107
58
93
49
68
16
56
85
108
71
28
31
23
12
7
30
102
70
65
4
40
97
96
88
83
22
110
33
74
13
50
45
10
60
86
64
89
104
41
48
27
24
15
34
109
11
94
95
61
18
82
81
42
72
67
53
47
39
103
26
14
76
44
6
35
3
8
80
91
59
77
84
38
63
92
21
46
17
55
62
101
73
106
36
25
52
32
98
51
90
9
100
37
87

>  <PUBCHEM_MMFF94_PARTIAL_CHARGES>  (1) 
33
1 -0.33
10 0.28
11 0.66
12 0.2
13 -0.14
14 0.1
15 -0.15
16 -0.15
17 0.37
18 -0.15
19 -0.15
2 -0.43
20 -0.14
21 -0.15
22 -0.15
23 -0.15
24 -0.15
25 -0.15
3 -0.57
4 -1.01
43 0.15
44 0.15
47 0.15
48 0.15
49 0.15
5 0.5
50 0.15
51 0.15
52 0.15
53 0.15
7 0.5
8 0.5
9 0.5

>  <PUBCHEM_EFFECTIVE_ROTOR_COUNT>  (1) 
10

>  <PUBCHEM_PHARMACOPHORE_FEATURES>  (1) 
4
1 3 acceptor
1 4 cation
6 13 14 15 16 18 19 rings
6 20 21 22 23 24 25 rings

>  <PUBCHEM_HEAVY_ATOM_COUNT>  (1) 
25

>  <PUBCHEM_ATOM_DEF_STEREO_COUNT>  (1) 
0

>  <PUBCHEM_ATOM_UDEF_STEREO_COUNT>  (1) 
0

>  <PUBCHEM_BOND_DEF_STEREO_COUNT>  (1) 
0

>  <PUBCHEM_BOND_UDEF_STEREO_COUNT>  (1) 
0

>  <PUBCHEM_ISOTOPIC_ATOM_COUNT>  (1) 
0

>  <PUBCHEM_COMPONENT_COUNT>  (1) 
1

>  <PUBCHEM_CACTVS_TAUTO_COUNT>  (1) 
1

>  <PUBCHEM_CONFORMER_ID>  (1) 
000067C000000002

>  <PUBCHEM_MMFF94_ENERGY>  (1) 
68.0587

>  <PUBCHEM_FEATURE_SELFOVERLAP>  (1) 
20.297

>  <PUBCHEM_SHAPE_FINGERPRINT>  (1) 
10006869 2 18192419776428118535
10316853 100 17833842569101268153
10616163 171 18267016163920120204
10688039 33 18333449863012901222
11014199 57 18051408771116747467
12156800 1 18194712309294655412
12166972 35 18057600078781293723
12293681 4 18114748234674139746
12422481 6 18271817803986066107
12553582 1 18265881630922952984
12788726 201 18260540126252433050
13075007 39 17825684501796753827
13402501 40 18411412882980971229
138480 1 15962582449244909300
14363568 33 18048322433376933697
14790565 3 17183342258008117500
14955137 171 18265061416766108323
15081414 286 18267303329849654992
16993438 75 18265609893006490857
20621476 7 18410858793249695275
21641784 216 18113912558782014660
21796203 349 17975170752339607257
3052486 1 18261961734942409142
469060 322 16805319960078145172
5309563 4 18337669836481083619

>  <PUBCHEM_SHAPE_MULTIPOLES>  (1) 
501.62
10.71
5.56
1.23
2.47
5.64
0.03
-6.8
2.38
-4.98
-0.59
-0.84
-0.4
1.03

>  <PUBCHEM_SHAPE_SELFOVERLAP>  (1) 
1014.555

>  <PUBCHEM_SHAPE_VOLUME>  (1) 
295

>  <PUBCHEM_COORDINATE_TYPE>  (1) 
2
5
10

$$$$
