26578
     RDKit          3D

 15 15  0  0  0  0  0  0  0  0999 V2000
    0.5604    0.3989    0.8804 O   0  0  0  0  0  0  0  0  0  0  0  0
    2.7458    0.2471    0.3637 O   0  0  0  0  0  0  0  0  0  0  0  0
   -1.5837   -2.6605   -0.7909 O   0  0  0  0  0  0  0  0  0  0  0  0
   -0.1341   -2.2697    0.9157 O   0  0  0  0  0  0  0  0  0  0  0  0
    1.2400    0.6291   -1.3393 O   0  0  0  0  0  0  0  0  0  0  0  0
   -0.7284    0.5841    0.4772 C   0  0  0  0  0  0  0  0  0  0  0  0
   -1.5257   -0.4992    0.1077 C   0  0  0  0  0  0  0  0  0  0  0  0
   -1.2483    1.8780    0.4386 C   0  0  0  0  0  0  0  0  0  0  0  0
   -2.8429   -0.2885   -0.3005 C   0  0  0  0  0  0  0  0  0  0  0  0
   -2.5654    2.0886    0.0305 C   0  0  0  0  0  0  0  0  0  0  0  0
   -3.3626    1.0054   -0.3390 C   0  0  0  0  0  0  0  0  0  0  0  0
    3.8211    0.2660   -0.5808 C   0  0  0  0  0  0  0  0  0  0  0  0
   -1.0032   -1.8580    0.1420 C   0  0  0  0  0  0  0  0  0  0  0  0
    5.1254    0.0353    0.1523 C   0  0  0  0  0  0  0  0  0  0  0  0
    1.5016    0.4432   -0.1575 C   0  0  0  0  0  0  0  0  0  0  0  0
  1  6  1  0
  1 15  1  0
  2 12  1  0
  2 15  1  0
  3 13  1  0
  4 13  2  0
  5 15  2  0
  6  7  2  0
  6  8  1  0
  7  9  1  0
  7 13  1  0
  8 10  2  0
  9 11  2  0
 10 11  1  0
 12 14  1  0
M  END
>  <PUBCHEM_COMPOUND_CID>  (1) 
26578

>  <PUBCHEM_CONFORMER_RMSD>  (1) 
0.6

>  <PUBCHEM_CONFORMER_DIVERSEORDER>  (1) 
1
88
74
26
84
81
48
63
72
22
67
77
49
32
70
78
23
69
25
94
98
73
52
66
45
40
24
47
83
61
31
64
5
20
68
43
18
75
90
76
86
60
57
21
97
99
51
15
36
16
91
17
79
27
54
95
82
71
41
11
6
46
10
87
4
8
7
3
55
38
89
2
96
19
58
29
13
50
53
62
33
14
59
37
93
80
44
28
30
65
56
92
34
12
35
85
39
42
9

>  <PUBCHEM_MMFF94_PARTIAL_CHARGES>  (1) 
19
1 -0.23
10 -0.15
11 -0.15
12 0.28
13 0.63
15 0.87
16 0.15
17 0.15
18 0.15
19 0.15
2 -0.43
25 0.5
3 -0.65
4 -0.57
5 -0.57
6 0.08
7 0.09
8 -0.15
9 -0.15

>  <PUBCHEM_EFFECTIVE_ROTOR_COUNT>  (1) 
5

>  <PUBCHEM_PHARMACOPHORE_FEATURES>  (1) 
4
1 3 acceptor
1 4 acceptor
3 3 4 13 anion
6 6 7 8 9 10 11 rings

>  <PUBCHEM_HEAVY_ATOM_COUNT>  (1) 
15

>  <PUBCHEM_ATOM_DEF_STEREO_COUNT>  (1) 
0

>  <PUBCHEM_ATOM_UDEF_STEREO_COUNT>  (1) 
0

>  <PUBCHEM_BOND_DEF_STEREO_COUNT>  (1) 
0

>  <PUBCHEM_BOND_UDEF_STEREO_COUNT>  (1) 
0

>  <PUBCHEM_ISOTOPIC_ATOM_COUNT>  (1) 
0

>  <PUBCHEM_COMPONENT_COUNT>  (1) 
1

>  <PUBCHEM_CACTVS_TAUTO_COUNT>  (1) 
1

>  <PUBCHEM_CONFORMER_ID>  (1) 
000067D200000001

>  <PUBCHEM_MMFF94_ENERGY>  (1) 
42.6

>  <PUBCHEM_FEATURE_SELFOVERLAP>  (1) 
20.355

>  <PUBCHEM_SHAPE_FINGERPRINT>  (1) 
10726558 24 18338798892914686141
12138202 97 18343303656235373686
12500047 106 18412822469783270268
12716758 59 18340201994020852601
13024252 1 12324238386615902225
13380535 76 18341334401082801342
14993402 34 18113896052600274612
15207287 21 17703790322952393942
15669948 3 18410007771371096546
15775835 57 18336548205344647241
16945 1 18342450469846257673
17870717 6 18129680637898070878
187816 3 18201717336493153545
200 152 14405182846398542364
20279233 1 17846786204602977612
20524608 308 18343584057481024006
20645476 183 17822006523473989795
20645477 56 18410859854296898280
21524375 3 18261676969715002129
23402539 116 18343013389640274533
23419403 2 16413774128156973659
23559900 14 18272649048516024400
257057 1 17694496348800234367
2748010 2 18194977253021227663
305870 269 18118686517583334941
366044 4 18410575050672703217
4175511 318 18113334197858135301
53812653 8 18337949000554334177
559249 180 18263922151590843250
5706482 22 18409169879007048595
573450 72 18334845122558577898
69090 78 18409448063980905036
7364860 26 17837773322784789399
81228 2 18121774199837537521
9709674 26 18272657839918674486

>  <PUBCHEM_SHAPE_MULTIPOLES>  (1) 
279.35
6.7
2.23
0.88
9.92
1.3
0.08
-1.86
0.72
-2.04
-0.06
0.12
0.06
-0.26

>  <PUBCHEM_SHAPE_SELFOVERLAP>  (1) 
580.749

>  <PUBCHEM_SHAPE_VOLUME>  (1) 
156.7

>  <PUBCHEM_COORDINATE_TYPE>  (1) 
2
5
10

$$$$
