26571
     RDKit          3D

  8  7  0  0  0  0  0  0  0  0999 V2000
   -2.8932   -0.3515   -0.0150 Cl  0  0  0  0  0  0  0  0  0  0  0  0
    2.8867   -0.3788   -0.0180 Cl  0  0  0  0  0  0  0  0  0  0  0  0
   -0.0032   -0.3749   -0.0702 P   0  0  0  0  0  0  0  0  0  0  0  0
   -0.0240    1.0826   -0.7755 O   0  0  0  0  0  0  0  0  0  0  0  0
    0.0016   -1.4976   -1.0701 O   0  0  0  0  0  0  0  0  0  0  0  0
   -1.4343   -0.3858    0.9869 C   0  0  0  0  0  0  0  0  0  0  0  0
    1.4291   -0.3739    0.9850 C   0  0  0  0  0  0  0  0  0  0  0  0
    0.0372    2.2800   -0.0231 C   0  0  0  0  0  0  0  0  0  0  0  0
  1  6  1  0
  2  7  1  0
  3  4  1  0
  3  5  2  0
  3  6  1  0
  3  7  1  0
  4  8  1  0
M  END
>  <PUBCHEM_COMPOUND_CID>  (1) 
26571

>  <PUBCHEM_CONFORMER_RMSD>  (1) 
0.6

>  <PUBCHEM_CONFORMER_DIVERSEORDER>  (1) 
1
8
4
7
9
6
5
2
3

>  <PUBCHEM_MMFF94_PARTIAL_CHARGES>  (1) 
8
1 -0.29
2 -0.29
3 0.97
4 -0.55
5 -0.7
6 0.29
7 0.29
8 0.28

>  <PUBCHEM_EFFECTIVE_ROTOR_COUNT>  (1) 
3

>  <PUBCHEM_PHARMACOPHORE_FEATURES>  (1) 
0

>  <PUBCHEM_HEAVY_ATOM_COUNT>  (1) 
8

>  <PUBCHEM_ATOM_DEF_STEREO_COUNT>  (1) 
0

>  <PUBCHEM_ATOM_UDEF_STEREO_COUNT>  (1) 
0

>  <PUBCHEM_BOND_DEF_STEREO_COUNT>  (1) 
0

>  <PUBCHEM_BOND_UDEF_STEREO_COUNT>  (1) 
0

>  <PUBCHEM_ISOTOPIC_ATOM_COUNT>  (1) 
0

>  <PUBCHEM_COMPONENT_COUNT>  (1) 
1

>  <PUBCHEM_CACTVS_TAUTO_COUNT>  (1) 
1

>  <PUBCHEM_CONFORMER_ID>  (1) 
000067CB00000001

>  <PUBCHEM_MMFF94_ENERGY>  (1) 
5.4668

>  <PUBCHEM_FEATURE_SELFOVERLAP>  (1) 
0

>  <PUBCHEM_SHAPE_FINGERPRINT>  (1) 
10219947 1 18341898497729174083
14993402 34 18342176716867421519
16714656 1 18413387622833387810
23552333 60 16298375825982387536
23552449 11 18262238940568581579
29004967 10 18114181951435368362
5084963 1 15482671277418069275
5943 1 12913660550927475262
68250623 7 17830168009203083866

>  <PUBCHEM_SHAPE_MULTIPOLES>  (1) 
160.49
3.48
1.69
1.02
0.03
1.33
-0.05
-1.06
-0.27
-0.03
0.27
0
-0.22
0.01

>  <PUBCHEM_SHAPE_SELFOVERLAP>  (1) 
257.853

>  <PUBCHEM_SHAPE_VOLUME>  (1) 
114.6

>  <PUBCHEM_COORDINATE_TYPE>  (1) 
2
5
10

$$$$
