26570
     RDKit          3D

 20 20  0  0  1  0  0  0  0  0999 V2000
    0.4168    1.7328    0.1934 S   0  0  0  0  0  0  0  0  0  0  0  0
    2.8869    0.5194   -1.9983 S   0  0  0  0  0  0  0  0  0  0  0  0
    2.4256    1.1519   -0.1991 P   0  0  0  0  0  0  0  0  0  0  0  0
   -0.2661   -1.9697   -0.6040 O   0  0  0  0  0  0  0  0  0  0  0  0
    2.8447    0.0733    0.9563 O   0  0  0  0  0  0  0  0  0  0  0  0
    3.3809    2.3868    0.2875 O   0  0  0  0  0  0  0  0  0  0  0  0
    0.2885   -1.0602    1.4378 O   0  0  0  0  0  0  0  0  0  0  0  0
   -0.5991    0.3469   -0.3564 C   0  0  0  0  0  0  0  0  0  0  0  0
   -2.0703    0.6235   -0.1353 C   0  0  0  0  0  0  0  0  0  0  0  0
    0.1367   -3.2600   -0.1337 C   0  0  0  0  0  0  0  0  0  0  0  0
   -0.1361   -0.9452    0.2956 C   0  0  0  0  0  0  0  0  0  0  0  0
   -2.7768    1.3295   -1.0937 C   0  0  0  0  0  0  0  0  0  0  0  0
   -2.6779    0.1649    1.0207 C   0  0  0  0  0  0  0  0  0  0  0  0
    1.5968   -3.2055    0.2893 C   0  0  0  0  0  0  0  0  0  0  0  0
   -0.0978   -4.2880   -1.2299 C   0  0  0  0  0  0  0  0  0  0  0  0
   -4.1329    1.5849   -0.8896 C   0  0  0  0  0  0  0  0  0  0  0  0
   -4.0339    0.4201    1.2247 C   0  0  0  0  0  0  0  0  0  0  0  0
   -4.7614    1.1302    0.2696 C   0  0  0  0  0  0  0  0  0  0  0  0
    4.1918   -0.3496    1.0878 C   0  0  0  0  0  0  0  0  0  0  0  0
    3.3835    3.6140   -0.4227 C   0  0  0  0  0  0  0  0  0  0  0  0
  1  3  1  0
  1  8  1  0
  2  3  2  0
  3  5  1  0
  3  6  1  0
  4 10  1  0
  4 11  1  0
  5 19  1  0
  6 20  1  0
  7 11  2  0
  8  9  1  0
  8 11  1  0
  9 12  2  0
  9 13  1  0
 10 14  1  0
 10 15  1  0
 12 16  1  0
 13 17  2  0
 16 18  2  0
 17 18  1  0
M  END
>  <PUBCHEM_COMPOUND_CID>  (1) 
26570

>  <PUBCHEM_CONFORMER_RMSD>  (1) 
0.8

>  <PUBCHEM_CONFORMER_DIVERSEORDER>  (1) 
1
60
78
135
126
82
103
128
134
21
148
149
58
110
51
80
97
14
26
146
115
27
66
138
94
127
10
133
63
36
145
42
140
67
32
47
150
98
37
74
119
19
50
33
81
69
40
137
152
92
22
90
91
13
144
104
62
136
23
76
123
83
15
71
120
85
111
132
39
89
65
7
109
49
88
12
72
105
25
102
35
6
141
54
53
57
107
29
106
79
113
41
143
108
34
75
9
28
56
55
73
96
68
112
52
3
101
64
61
16
46
151
5
93
84
20
139
121
17
70
24
116
30
95
8
131
48
142
2
31
100
4
44
130
43
45
125
86
118
129
114
38
122
77
87
147
11
117
99
59
124
18

>  <PUBCHEM_MMFF94_PARTIAL_CHARGES>  (1) 
23
1 -0.48
10 0.28
11 0.66
12 -0.15
13 -0.15
16 -0.15
17 -0.15
18 -0.15
19 0.28
2 -0.68
20 0.28
23 0.15
24 0.15
3 1.47
31 0.15
32 0.15
33 0.15
4 -0.43
5 -0.55
6 -0.55
7 -0.57
8 0.43
9 -0.14

>  <PUBCHEM_EFFECTIVE_ROTOR_COUNT>  (1) 
8

>  <PUBCHEM_PHARMACOPHORE_FEATURES>  (1) 
3
1 7 acceptor
3 10 14 15 hydrophobe
6 9 12 13 16 17 18 rings

>  <PUBCHEM_HEAVY_ATOM_COUNT>  (1) 
20

>  <PUBCHEM_ATOM_DEF_STEREO_COUNT>  (1) 
0

>  <PUBCHEM_ATOM_UDEF_STEREO_COUNT>  (1) 
1

>  <PUBCHEM_BOND_DEF_STEREO_COUNT>  (1) 
0

>  <PUBCHEM_BOND_UDEF_STEREO_COUNT>  (1) 
0

>  <PUBCHEM_ISOTOPIC_ATOM_COUNT>  (1) 
0

>  <PUBCHEM_COMPONENT_COUNT>  (1) 
1

>  <PUBCHEM_CACTVS_TAUTO_COUNT>  (1) 
1

>  <PUBCHEM_CONFORMER_ID>  (1) 
000067CA00000001

>  <PUBCHEM_MMFF94_ENERGY>  (1) 
38.0959

>  <PUBCHEM_FEATURE_SELFOVERLAP>  (1) 
15.223

>  <PUBCHEM_SHAPE_FINGERPRINT>  (1) 
10871710 139 17253162324439703276
12592029 89 18411421683247622003
12788726 201 17838046370703849806
13004483 165 17188966260120458198
13140716 1 18335982060046067928
13583140 156 17096623492377376760
13681431 1 17833841468850843999
15309172 13 18410858784739128953
15502722 9 18267305335551792519
17134986 127 18410294722388885686
1813 80 17124527792053025783
18186145 218 18341904003634998724
19591789 44 18339642355740625179
204376 136 18411701023615309721
21054139 6 18129075940904970895
21524375 3 18261392269001373099
23419403 2 16527578864531033106
23526113 38 17983331203276111566
23558518 356 17545038663768992077
23559900 14 18118963590487651187
3060560 45 18341044108585776230
3729539 64 18051725203375457238
474 4 18341892965753300657
633830 44 18059309698660367325
6443956 14 17976818688435789180
7364860 26 18194681467060648775
81228 2 17617665791976419387
81539 233 18334016051582783615
84936 31 18127121979376610839
9925002 15 17469052510853900717

>  <PUBCHEM_SHAPE_MULTIPOLES>  (1) 
399.66
7.74
4.35
1.38
4.23
4.31
-0.26
-6.39
0.84
-3.49
-1.31
-0.36
0.14
-0.08

>  <PUBCHEM_SHAPE_SELFOVERLAP>  (1) 
761.272

>  <PUBCHEM_SHAPE_VOLUME>  (1) 
248.6

>  <PUBCHEM_COORDINATE_TYPE>  (1) 
2
5
10

$$$$
