26573
     RDKit          3D

 13 13  0  0  0  0  0  0  0  0999 V2000
    2.9355   -2.4835    0.4695 Cl  0  0  0  0  0  0  0  0  0  0  0  0
    3.1985    2.3209   -0.5902 Cl  0  0  0  0  0  0  0  0  0  0  0  0
    1.5764    0.0507    0.1621 P   0  0  0  0  0  0  0  0  0  0  0  0
    0.2724   -0.7363   -0.3863 O   0  0  0  0  0  0  0  0  0  0  0  0
    1.6123    0.2586    1.6491 O   0  0  0  0  0  0  0  0  0  0  0  0
    2.9160   -0.9634   -0.4363 C   0  0  0  0  0  0  0  0  0  0  0  0
    1.6250    1.5407   -0.8090 C   0  0  0  0  0  0  0  0  0  0  0  0
   -1.0257   -0.3716   -0.2004 C   0  0  0  0  0  0  0  0  0  0  0  0
   -1.3294    0.7812    0.5237 C   0  0  0  0  0  0  0  0  0  0  0  0
   -2.0523   -1.1509   -0.7337 C   0  0  0  0  0  0  0  0  0  0  0  0
   -2.6597    1.1549    0.7142 C   0  0  0  0  0  0  0  0  0  0  0  0
   -3.3826   -0.7771   -0.5432 C   0  0  0  0  0  0  0  0  0  0  0  0
   -3.6863    0.3758    0.1807 C   0  0  0  0  0  0  0  0  0  0  0  0
  1  6  1  0
  2  7  1  0
  3  4  1  0
  3  5  2  0
  3  6  1  0
  3  7  1  0
  4  8  1  0
  8  9  2  0
  8 10  1  0
  9 11  1  0
 10 12  2  0
 11 13  2  0
 12 13  1  0
M  END
>  <PUBCHEM_COMPOUND_CID>  (1) 
26573

>  <PUBCHEM_CONFORMER_RMSD>  (1) 
0.6

>  <PUBCHEM_CONFORMER_DIVERSEORDER>  (1) 
1
24
32
3
19
28
21
8
22
29
30
16
37
14
2
20
5
27
6
25
9
15
26
35
18
34
7
13
11
31
10
12
4
23
36
17
33

>  <PUBCHEM_MMFF94_PARTIAL_CHARGES>  (1) 
18
1 -0.29
10 -0.15
11 -0.15
12 -0.15
13 -0.15
18 0.15
19 0.15
2 -0.29
20 0.15
21 0.15
22 0.15
3 0.97
4 -0.35
5 -0.7
6 0.29
7 0.29
8 0.08
9 -0.15

>  <PUBCHEM_EFFECTIVE_ROTOR_COUNT>  (1) 
4

>  <PUBCHEM_PHARMACOPHORE_FEATURES>  (1) 
1
6 8 9 10 11 12 13 rings

>  <PUBCHEM_HEAVY_ATOM_COUNT>  (1) 
13

>  <PUBCHEM_ATOM_DEF_STEREO_COUNT>  (1) 
0

>  <PUBCHEM_ATOM_UDEF_STEREO_COUNT>  (1) 
0

>  <PUBCHEM_BOND_DEF_STEREO_COUNT>  (1) 
0

>  <PUBCHEM_BOND_UDEF_STEREO_COUNT>  (1) 
0

>  <PUBCHEM_ISOTOPIC_ATOM_COUNT>  (1) 
0

>  <PUBCHEM_COMPONENT_COUNT>  (1) 
1

>  <PUBCHEM_CACTVS_TAUTO_COUNT>  (1) 
1

>  <PUBCHEM_CONFORMER_ID>  (1) 
000067CD00000001

>  <PUBCHEM_MMFF94_ENERGY>  (1) 
26.113

>  <PUBCHEM_FEATURE_SELFOVERLAP>  (1) 
5.074

>  <PUBCHEM_SHAPE_FINGERPRINT>  (1) 
12326174 3 17677038127481323672
12932764 1 16950276308787830491
14144814 61 18341895138880262131
15279307 12 18268431402719877278
15442244 35 18267306434910439436
15536298 74 18343025510296355604
15669948 3 17846497097100312031
15775835 57 18341622558875936021
170605 34 18041561472116655932
18186145 218 17458339737114755765
18511873 20 18269839705226494155
19422 9 18413111662679120267
20233049 118 17632861919256945432
20279233 1 15647043911016419625
20339313 130 18335988549805124250
20559304 39 18343017809082247216
20645464 45 15719666675521886589
20645476 183 18270403913779504319
20645477 70 18260540134900681751
20671657 1 18412546543793471356
207724 885 18264211322362698370
21501502 16 18272654549630483231
21524375 3 17536030309637378196
2255824 54 18408605851217711734
23463225 33 18342176622436208583
23552423 10 18411416228322865687
23557571 272 14548729604306094667
23598291 2 18269569272779558580
305870 269 18335988687428778644
3248919 1 18336536213859130379
474 4 18043254741640906964
5084963 1 18341891861946478083
603831 33 18057596762433188167
6992083 37 17981055106611035744
7364860 26 18411138052313405628
74978 22 18334859406992368255
8030462 33 18130221665837233517
9939556 21 18413390916872739951

>  <PUBCHEM_SHAPE_MULTIPOLES>  (1) 
263.38
6.53
2.22
1.02
1.91
0.07
0.21
0.06
-0.31
-2.82
-0.16
-0.15
-0.08
-1.1

>  <PUBCHEM_SHAPE_SELFOVERLAP>  (1) 
498.027

>  <PUBCHEM_SHAPE_VOLUME>  (1) 
164.8

>  <PUBCHEM_COORDINATE_TYPE>  (1) 
2
5
10

$$$$
