26572
     RDKit          3D

 10  9  0  0  0  0  0  0  0  0999 V2000
   -0.4650   -2.9881    0.0396 Cl  0  0  0  0  0  0  0  0  0  0  0  0
   -1.8332    2.6276    0.0619 Cl  0  0  0  0  0  0  0  0  0  0  0  0
   -1.1483   -0.1802    0.1054 P   0  0  0  0  0  0  0  0  0  0  0  0
    0.3801    0.1625    0.5160 O   0  0  0  0  0  0  0  0  0  0  0  0
   -2.0326   -0.3894    1.3031 O   0  0  0  0  0  0  0  0  0  0  0  0
   -1.0253   -1.6195   -0.9333 C   0  0  0  0  0  0  0  0  0  0  0  0
   -1.6787    1.1685   -0.9268 C   0  0  0  0  0  0  0  0  0  0  0  0
    1.3669    0.4635   -0.4532 C   0  0  0  0  0  0  0  0  0  0  0  0
    2.6590    0.7305    0.2447 C   0  0  0  0  0  0  0  0  0  0  0  0
    3.7770    0.0246    0.0427 C   0  0  0  0  0  0  0  0  0  0  0  0
  1  6  1  0
  2  7  1  0
  3  4  1  0
  3  5  2  0
  3  6  1  0
  3  7  1  0
  4  8  1  0
  8  9  1  0
  9 10  2  0
M  END
>  <PUBCHEM_COMPOUND_CID>  (1) 
26572

>  <PUBCHEM_CONFORMER_RMSD>  (1) 
0.6

>  <PUBCHEM_CONFORMER_DIVERSEORDER>  (1) 
1
42
49
8
14
9
43
47
2
40
18
33
48
12
32
23
51
52
36
25
41
31
11
44
4
16
5
30
7
50
26
37
27
28
10
15
24
34
13
39
29
38
3
21
20
19
35
17
22
6
46
45

>  <PUBCHEM_MMFF94_PARTIAL_CHARGES>  (1) 
13
1 -0.29
10 -0.3
17 0.15
18 0.15
19 0.15
2 -0.29
3 0.97
4 -0.55
5 -0.7
6 0.29
7 0.29
8 0.42
9 -0.29

>  <PUBCHEM_EFFECTIVE_ROTOR_COUNT>  (1) 
5

>  <PUBCHEM_PHARMACOPHORE_FEATURES>  (1) 
1
1 10 hydrophobe

>  <PUBCHEM_HEAVY_ATOM_COUNT>  (1) 
10

>  <PUBCHEM_ATOM_DEF_STEREO_COUNT>  (1) 
0

>  <PUBCHEM_ATOM_UDEF_STEREO_COUNT>  (1) 
0

>  <PUBCHEM_BOND_DEF_STEREO_COUNT>  (1) 
0

>  <PUBCHEM_BOND_UDEF_STEREO_COUNT>  (1) 
0

>  <PUBCHEM_ISOTOPIC_ATOM_COUNT>  (1) 
0

>  <PUBCHEM_COMPONENT_COUNT>  (1) 
1

>  <PUBCHEM_CACTVS_TAUTO_COUNT>  (1) 
1

>  <PUBCHEM_CONFORMER_ID>  (1) 
000067CC00000001

>  <PUBCHEM_MMFF94_ENERGY>  (1) 
5.0155

>  <PUBCHEM_FEATURE_SELFOVERLAP>  (1) 
5.074

>  <PUBCHEM_SHAPE_FINGERPRINT>  (1) 
1 1 18050846615578671654
12716758 59 18342726425790045072
12932764 1 18339363067281914040
14577589 140 18334292029307206566
19021347 4 18338515231519956015
19837323 101 18339923714647808261
20711985 344 18197196243274030419
20871998 184 18335428984069465989
21524375 3 18118674418645112173
23402539 116 18270664437900522317
23552449 1 18195519522454138508
305870 269 18051409561274464548
3250762 1 17904215736931151779
81228 2 18196641011423981633

>  <PUBCHEM_SHAPE_MULTIPOLES>  (1) 
201.65
4.25
2.88
0.96
5.35
1.43
-0.04
-1.96
-0.24
-2.06
0.11
-0.45
0.09
0.09

>  <PUBCHEM_SHAPE_SELFOVERLAP>  (1) 
338.107

>  <PUBCHEM_SHAPE_VOLUME>  (1) 
138.4

>  <PUBCHEM_COORDINATE_TYPE>  (1) 
2
5
10

$$$$
