26584
     RDKit          3D

 16 16  0  0  0  0  0  0  0  0999 V2000
   -6.2080   -2.4822    0.0462 I   0  0  0  0  0  0  0  0  0  0  0  0
    6.3897   -0.3579    0.0044 Cl  0  0  0  0  0  0  0  0  0  0  0  0
   -1.6713    0.3537   -0.0061 O   0  0  0  0  0  0  0  0  0  0  0  0
   -0.0619    1.9785    0.0181 O   0  0  0  0  0  0  0  0  0  0  0  0
    0.4841   -0.3024   -0.0082 N   0  0  0  0  0  0  0  0  0  0  0  0
    1.8792   -0.3155   -0.0047 C   0  0  0  0  0  0  0  0  0  0  0  0
    2.5653   -1.5298   -0.0172 C   0  0  0  0  0  0  0  0  0  0  0  0
    2.5880    0.8858    0.0108 C   0  0  0  0  0  0  0  0  0  0  0  0
    3.9600   -1.5430   -0.0143 C   0  0  0  0  0  0  0  0  0  0  0  0
    3.9829    0.8726    0.0137 C   0  0  0  0  0  0  0  0  0  0  0  0
    4.6689   -0.3418    0.0012 C   0  0  0  0  0  0  0  0  0  0  0  0
   -0.3746    0.7942    0.0025 C   0  0  0  0  0  0  0  0  0  0  0  0
   -2.6806    1.3701    0.0041 C   0  0  0  0  0  0  0  0  0  0  0  0
   -4.0047    0.7496   -0.0069 C   0  0  0  0  0  0  0  0  0  0  0  0
   -5.0923    0.2396   -0.0160 C   0  0  0  0  0  0  0  0  0  0  0  0
   -6.4245   -0.3714   -0.0277 C   0  0  0  0  0  0  0  0  0  0  0  0
  1 16  1  0
  2 11  1  0
  3 12  1  0
  3 13  1  0
  4 12  2  0
  5  6  1  0
  5 12  1  0
  6  7  2  0
  6  8  1  0
  7  9  1  0
  8 10  2  0
  9 11  2  0
 10 11  1  0
 13 14  1  0
 14 15  3  0
 15 16  1  0
M  END
>  <PUBCHEM_COMPOUND_CID>  (1) 
26584

>  <PUBCHEM_CONFORMER_RMSD>  (1) 
0.6

>  <PUBCHEM_CONFORMER_DIVERSEORDER>  (1) 
1
32
13
41
12
29
15
10
42
16
11
39
22
8
35
20
21
9
40
27
23
36
18
28
19
24
6
4
30
17
25
7
5
31
14
26
3
37
34
2
38
33

>  <PUBCHEM_MMFF94_PARTIAL_CHARGES>  (1) 
21
1 -0.19
10 -0.15
11 0.18
12 0.78
13 0.48
14 -0.2
15 -0.2
16 0.39
17 0.15
18 0.15
19 0.37
2 -0.18
20 0.15
21 0.15
3 -0.43
4 -0.57
5 -0.55
6 0.12
7 -0.15
8 -0.15
9 -0.15

>  <PUBCHEM_EFFECTIVE_ROTOR_COUNT>  (1) 
4

>  <PUBCHEM_PHARMACOPHORE_FEATURES>  (1) 
4
1 1 hydrophobe
1 4 acceptor
1 5 donor
6 6 7 8 9 10 11 rings

>  <PUBCHEM_HEAVY_ATOM_COUNT>  (1) 
16

>  <PUBCHEM_ATOM_DEF_STEREO_COUNT>  (1) 
0

>  <PUBCHEM_ATOM_UDEF_STEREO_COUNT>  (1) 
0

>  <PUBCHEM_BOND_DEF_STEREO_COUNT>  (1) 
0

>  <PUBCHEM_BOND_UDEF_STEREO_COUNT>  (1) 
0

>  <PUBCHEM_ISOTOPIC_ATOM_COUNT>  (1) 
0

>  <PUBCHEM_COMPONENT_COUNT>  (1) 
1

>  <PUBCHEM_CACTVS_TAUTO_COUNT>  (1) 
2

>  <PUBCHEM_CONFORMER_ID>  (1) 
000067D800000001

>  <PUBCHEM_MMFF94_ENERGY>  (1) 
29.4573

>  <PUBCHEM_FEATURE_SELFOVERLAP>  (1) 
20.297

>  <PUBCHEM_SHAPE_FINGERPRINT>  (1) 
11089746 13 11891339767712587215
12091667 2 17240204314140370013
12596602 18 17561086912397073099
13167823 11 18412823569268589319
13288520 33 18410856569163478781
13533116 47 16805593725799692768
13740256 8 18411138061108971033
13862211 1 18334856095788588194
13911882 115 17917722279242665223
1420 363 18412829083958988135
14251718 22 18334576832424616201
14251732 16 18340767134397051713
14461889 52 18339354288147222098
14729087 3 8214145135778301487
17834072 33 18410012152264125237
17834072 8 10809343325728069416
200 152 18271523104810377560
20621476 66 9511464437694118315
20645477 70 18338235938872311710
21054139 6 18040432209166239291
21150785 3 17967541185662012798
21267235 1 18342743992422440068
22896161 15 18410856585610040438
23402539 116 16587740919914872453
23559900 14 18338227289356738961
2838139 119 8070027749285883939
314194 84 18131344220397322727
3545911 37 18413107247600303126
4214541 1 18410855422154373349
4325135 7 18334296469902451415
465052 167 18130792256527016134
474229 33 18342175566275433831
5104073 3 18128531574689314672
57483677 66 18408321086380246979
59682541 35 18201427100584675338
7062679 117 18408324397937227675
7495541 125 18060415854565153105

>  <PUBCHEM_SHAPE_MULTIPOLES>  (1) 
326.36
17.54
2.01
0.63
12.32
0.73
0
8.57
0.02
2.13
0.02
0.11
0.06
0.07

>  <PUBCHEM_SHAPE_SELFOVERLAP>  (1) 
633.71

>  <PUBCHEM_SHAPE_VOLUME>  (1) 
199.6

>  <PUBCHEM_COORDINATE_TYPE>  (1) 
2
5
10

$$$$
