26583
     RDKit          3D

 17 16  0  0  0  0  0  0  0  0999 V2000
   -5.1590    3.6072   -1.5532 I   0  0  0  0  0  0  0  0  0  0  0  0
   -2.4972   -0.7641    0.0064 O   0  0  0  0  0  0  0  0  0  0  0  0
   -1.7391   -2.6761    1.0284 O   0  0  0  0  0  0  0  0  0  0  0  0
   -0.6944   -1.8052   -0.8524 N   0  0  0  0  0  0  0  0  0  0  0  0
    3.5242   -0.7259    0.0119 C   0  0  0  0  0  0  0  0  0  0  0  0
    4.1426    0.6227   -0.3691 C   0  0  0  0  0  0  0  0  0  0  0  0
    2.2215   -1.0931   -0.7068 C   0  0  0  0  0  0  0  0  0  0  0  0
    5.4044    0.9617    0.4269 C   0  0  0  0  0  0  0  0  0  0  0  0
    1.6092   -2.4111   -0.2219 C   0  0  0  0  0  0  0  0  0  0  0  0
    6.0292    2.2709   -0.0571 C   0  0  0  0  0  0  0  0  0  0  0  0
    0.3459   -2.7866   -0.9909 C   0  0  0  0  0  0  0  0  0  0  0  0
    7.2652    2.6304    0.7518 C   0  0  0  0  0  0  0  0  0  0  0  0
   -1.6524   -1.8292    0.1454 C   0  0  0  0  0  0  0  0  0  0  0  0
   -3.5433   -0.6658    0.9795 C   0  0  0  0  0  0  0  0  0  0  0  0
   -4.3619    0.5146    0.7055 C   0  0  0  0  0  0  0  0  0  0  0  0
   -5.0339    1.4843    0.4801 C   0  0  0  0  0  0  0  0  0  0  0  0
   -5.8608    2.6653    0.2155 C   0  0  0  0  0  0  0  0  0  0  0  0
  1 17  1  0
  2 13  1  0
  2 14  1  0
  3 13  2  0
  4 11  1  0
  4 13  1  0
  5  6  1  0
  5  7  1  0
  6  8  1  0
  7  9  1  0
  8 10  1  0
  9 11  1  0
 10 12  1  0
 14 15  1  0
 15 16  3  0
 16 17  1  0
M  END
>  <PUBCHEM_COMPOUND_CID>  (1) 
26583

>  <PUBCHEM_CONFORMER_RMSD>  (1) 
1.2

>  <PUBCHEM_CONFORMER_DIVERSEORDER>  (1) 
1
337
64
150
70
273
420
34
311
333
98
7
389
360
510
312
258
6
216
379
19
261
154
213
290
254
483
5
12
124
158
32
300
506
244
2
365
303
28
66
52
280
152
515
94
147
211
14
205
512
45
185
394
39
78
95
107
53
376
212
87
372
188
260
67
3
357
431
126
90
278
373
141
218
4
41
447
368
328
63
40
31
215
159
110
23
465
460
91
396
117
29
346
239
513
38
9
108
20
155
10
202
503

>  <PUBCHEM_MMFF94_PARTIAL_CHARGES>  (1) 
11
1 -0.19
11 0.3
13 0.78
14 0.48
15 -0.2
16 -0.2
17 0.39
2 -0.43
3 -0.57
35 0.37
4 -0.73

>  <PUBCHEM_EFFECTIVE_ROTOR_COUNT>  (1) 
10

>  <PUBCHEM_PHARMACOPHORE_FEATURES>  (1) 
6
1 1 hydrophobe
1 12 hydrophobe
1 3 acceptor
1 4 donor
3 5 7 9 hydrophobe
3 6 8 10 hydrophobe

>  <PUBCHEM_HEAVY_ATOM_COUNT>  (1) 
17

>  <PUBCHEM_ATOM_DEF_STEREO_COUNT>  (1) 
0

>  <PUBCHEM_ATOM_UDEF_STEREO_COUNT>  (1) 
0

>  <PUBCHEM_BOND_DEF_STEREO_COUNT>  (1) 
0

>  <PUBCHEM_BOND_UDEF_STEREO_COUNT>  (1) 
0

>  <PUBCHEM_ISOTOPIC_ATOM_COUNT>  (1) 
0

>  <PUBCHEM_COMPONENT_COUNT>  (1) 
1

>  <PUBCHEM_CACTVS_TAUTO_COUNT>  (1) 
2

>  <PUBCHEM_CONFORMER_ID>  (1) 
000067D700000001

>  <PUBCHEM_MMFF94_ENERGY>  (1) 
1.7041

>  <PUBCHEM_FEATURE_SELFOVERLAP>  (1) 
30.461

>  <PUBCHEM_SHAPE_FINGERPRINT>  (1) 
12633257 1 16371010775473830346
133061 13 17606950707883552845
13911852 28 8285898161433072121
14251764 30 9367336046651482669
14428016 30 18187642466782472621
14429114 114 18197218049240445049
14647877 103 18113904870854215316
14774955 27 18270963440844430847
16120349 189 18410288116439235917
1768 210 18337660928988398933
17859628 70 10916024016928831402
193927 3 11963384150769028242
20398071 356 8646766711821303665
20621476 21 9367341539782779085
21196832 93 10375578339978085704
21307412 95 9943529566717075057
21344244 246 10159684829992418594
21388113 180 18264485096769515829
21401589 2 18339375118791602147
22765269 38 18338796719903814573
270888 7 18413671305233332696
2748736 6 18341604902239099440
2838139 119 18338231553483596095
2916195 48 18334863762743080947
60123966 16 17988371347677860870
6327066 14 18342737424853195469
636775 8 10665494199215717568
8217 86 9295286149490114514

>  <PUBCHEM_SHAPE_MULTIPOLES>  (1) 
345.07
18.47
4.75
1.16
12.31
1.31
-0.2
27.53
2.81
-1.15
-1.05
-1.1
0.24
3.23

>  <PUBCHEM_SHAPE_SELFOVERLAP>  (1) 
619.702

>  <PUBCHEM_SHAPE_VOLUME>  (1) 
222.8

>  <PUBCHEM_COORDINATE_TYPE>  (1) 
2
5
10

$$$$
