26582
     RDKit          3D

 18 18  0  0  0  0  0  0  0  0999 V2000
    7.5169   -0.8012    0.1207 Br  0  0  0  0  0  0  0  0  0  0  0  0
   -5.8145   -1.0092    0.6919 S   0  0  0  0  0  0  0  0  0  0  0  0
   -0.6196    0.6078   -0.1144 O   0  0  0  0  0  0  0  0  0  0  0  0
    1.1081    2.0651    0.2343 O   0  0  0  0  0  0  0  0  0  0  0  0
    1.4750   -0.2221   -0.1332 N   0  0  0  0  0  0  0  0  0  0  0  0
   -8.5174   -1.4554   -0.0958 N   0  0  0  0  0  0  0  0  0  0  0  0
    2.8625   -0.3552   -0.0749 C   0  0  0  0  0  0  0  0  0  0  0  0
    3.4512   -1.6069   -0.2530 C   0  0  0  0  0  0  0  0  0  0  0  0
    3.6610    0.7639    0.1615 C   0  0  0  0  0  0  0  0  0  0  0  0
    4.8384   -1.7399   -0.1947 C   0  0  0  0  0  0  0  0  0  0  0  0
    5.0484    0.6311    0.2198 C   0  0  0  0  0  0  0  0  0  0  0  0
    5.6372   -0.6209    0.0416 C   0  0  0  0  0  0  0  0  0  0  0  0
    0.7052    0.9288    0.0173 C   0  0  0  0  0  0  0  0  0  0  0  0
   -1.5456    1.6927    0.0167 C   0  0  0  0  0  0  0  0  0  0  0  0
   -2.9192    1.2160   -0.1445 C   0  0  0  0  0  0  0  0  0  0  0  0
   -5.4233    0.3519   -0.4404 C   0  0  0  0  0  0  0  0  0  0  0  0
   -4.0471    0.8246   -0.2754 C   0  0  0  0  0  0  0  0  0  0  0  0
   -7.4172   -1.2712    0.2226 C   0  0  0  0  0  0  0  0  0  0  0  0
  1 12  1  0
  2 16  1  0
  2 18  1  0
  3 13  1  0
  3 14  1  0
  4 13  2  0
  5  7  1  0
  5 13  1  0
  6 18  3  0
  7  8  2  0
  7  9  1  0
  8 10  1  0
  9 11  2  0
 10 12  2  0
 11 12  1  0
 14 15  1  0
 15 17  3  0
 16 17  1  0
M  END
>  <PUBCHEM_COMPOUND_CID>  (1) 
26582

>  <PUBCHEM_CONFORMER_RMSD>  (1) 
0.6

>  <PUBCHEM_CONFORMER_DIVERSEORDER>  (1) 
1
137
83
116
105
33
115
46
108
64
109
130
120
40
106
62
122
72
133
85
6
110
129
31
140
100
20
88
12
38
90
114
29
134
123
69
68
36
124
5
49
82
119
139
73
67
10
93
126
42
24
60
98
30
121
78
95
47
9
84
16
99
39
26
59
91
45
75
76
52
56
2
102
22
55
101
11
51
53
57
111
37
74
80
14
81
50
70
44
66
118
104
8
94
34
18
25
138
77
32
65
28
87
35
48
127
43
3
107
41
86
21
113
4
97
125
58
7
63
23
79
117
13
61
71
136
96
17
15
141
128
103
132
19
54
135
89
131
112
27
92

>  <PUBCHEM_MMFF94_PARTIAL_CHARGES>  (1) 
23
1 -0.11
10 -0.15
11 -0.15
12 0.11
13 0.78
14 0.48
15 -0.2
16 0.43
17 -0.2
18 0.59
19 0.15
2 -0.27
20 0.15
21 0.37
22 0.15
23 0.15
3 -0.43
4 -0.57
5 -0.55
6 -0.56
7 0.12
8 -0.15
9 -0.15

>  <PUBCHEM_EFFECTIVE_ROTOR_COUNT>  (1) 
5

>  <PUBCHEM_PHARMACOPHORE_FEATURES>  (1) 
5
1 1 hydrophobe
1 4 acceptor
1 5 donor
1 6 acceptor
6 7 8 9 10 11 12 rings

>  <PUBCHEM_HEAVY_ATOM_COUNT>  (1) 
18

>  <PUBCHEM_ATOM_DEF_STEREO_COUNT>  (1) 
0

>  <PUBCHEM_ATOM_UDEF_STEREO_COUNT>  (1) 
0

>  <PUBCHEM_BOND_DEF_STEREO_COUNT>  (1) 
0

>  <PUBCHEM_BOND_UDEF_STEREO_COUNT>  (1) 
0

>  <PUBCHEM_ISOTOPIC_ATOM_COUNT>  (1) 
0

>  <PUBCHEM_COMPONENT_COUNT>  (1) 
1

>  <PUBCHEM_CACTVS_TAUTO_COUNT>  (1) 
2

>  <PUBCHEM_CONFORMER_ID>  (1) 
000067D600000001

>  <PUBCHEM_MMFF94_ENERGY>  (1) 
30.3153

>  <PUBCHEM_FEATURE_SELFOVERLAP>  (1) 
25.371

>  <PUBCHEM_SHAPE_FINGERPRINT>  (1) 
106641 1 17846494850964167850
13668630 136 18408886209049056550
13685833 64 18411138048202963681
13885169 127 18410011006373364717
13968360 50 14923935739302304377
14178184 131 18128256886774943919
1420 363 18412547599991474757
14251764 18 17846779637566495967
14350574 20 18334575750599493741
14729087 3 9367344825611868175
15048467 5 9583518715885158569
15142383 8 9871747988678733174
15183329 4 14923942349631329747
155225 1 9295297136723787499
15690457 1 18131066070131688943
15706992 2 17060329765935507642
15716309 27 18202001049690767703
18335252 114 10881395461174066851
18335252 98 18343022177718368398
20281389 69 11600014236875773219
20621476 66 10591755493634678378
21049683 271 18411703214423904552
21054139 6 17748827401737458938
21150785 3 16877664569231420990
21267235 1 18272091574376782636
21623969 137 18202286887969603751
22224240 67 16343699941832163655
22288116 15 12613044937674472425
22896161 15 18409730660128670340
246663 6 18272373074421761543
28498 318 18409164421179697359
3004659 81 17894346705259704137
465052 167 18202283576644374316
5104073 3 18129940066227681992
5385378 56 13254808914417781917
59682541 35 18201148932363419808

>  <PUBCHEM_SHAPE_MULTIPOLES>  (1) 
358.52
23.39
1.85
0.68
25.73
0.05
-0.03
-14.41
-0.97
0.73
-0.03
0.16
-0.04
0.66

>  <PUBCHEM_SHAPE_SELFOVERLAP>  (1) 
701.625

>  <PUBCHEM_SHAPE_VOLUME>  (1) 
216.7

>  <PUBCHEM_COORDINATE_TYPE>  (1) 
2
5
10

$$$$
