26590
     RDKit          3D

 25 25  0  0  0  0  0  0  0  0999 V2000
    2.3473    1.7975    0.8484 O   0  0  0  0  0  0  0  0  0  0  0  0
   -3.6313    0.3593   -0.2647 O   0  0  0  0  0  0  0  0  0  0  0  0
   -3.7076    2.5071   -1.0895 O   0  0  0  0  0  0  0  0  0  0  0  0
   -6.8408   -1.4480   -0.4561 N   0  0  0  0  0  0  0  0  0  0  0  0
    6.8413   -0.0766    0.1534 C   0  0  0  0  0  0  0  0  0  0  0  0
    7.7248   -1.3227    0.0453 C   0  0  0  0  0  0  0  0  0  0  0  0
    5.3691   -0.3958    0.4232 C   0  0  0  0  0  0  0  0  0  0  0  0
    9.1825   -1.0077   -0.2975 C   0  0  0  0  0  0  0  0  0  0  0  0
    4.5313    0.8797    0.4983 C   0  0  0  0  0  0  0  0  0  0  0  0
   10.0010   -2.2890   -0.4641 C   0  0  0  0  0  0  0  0  0  0  0  0
    3.0721    0.5761    0.8074 C   0  0  0  0  0  0  0  0  0  0  0  0
   -5.4316   -1.2248   -0.1695 C   0  0  0  0  0  0  0  0  0  0  0  0
   11.4416   -1.9844   -0.8423 C   0  0  0  0  0  0  0  0  0  0  0  0
   -7.6832   -0.8157    0.5621 C   0  0  0  0  0  0  0  0  0  0  0  0
   -7.1333   -2.8812   -0.5350 C   0  0  0  0  0  0  0  0  0  0  0  0
   -5.0161    0.1789   -0.5799 C   0  0  0  0  0  0  0  0  0  0  0  0
   -9.1577   -0.9830    0.2362 C   0  0  0  0  0  0  0  0  0  0  0  0
   -6.8702   -3.5691    0.7939 C   0  0  0  0  0  0  0  0  0  0  0  0
    1.0224    1.7426    0.5011 C   0  0  0  0  0  0  0  0  0  0  0  0
   -1.6751    1.6321   -0.2017 C   0  0  0  0  0  0  0  0  0  0  0  0
    0.4082    2.8500   -0.0839 C   0  0  0  0  0  0  0  0  0  0  0  0
    0.2878    0.5800    0.7347 C   0  0  0  0  0  0  0  0  0  0  0  0
   -3.0814    1.5751   -0.5676 C   0  0  0  0  0  0  0  0  0  0  0  0
   -0.9405    2.7947   -0.4353 C   0  0  0  0  0  0  0  0  0  0  0  0
   -1.0608    0.5249    0.3834 C   0  0  0  0  0  0  0  0  0  0  0  0
  1 11  1  0
  1 19  1  0
  2 16  1  0
  2 23  1  0
  3 23  2  0
  4 12  1  0
  4 14  1  0
  4 15  1  0
  5  6  1  0
  5  7  1  0
  6  8  1  0
  7  9  1  0
  8 10  1  0
  9 11  1  0
 10 13  1  0
 12 16  1  0
 14 17  1  0
 15 18  1  0
 19 21  2  0
 19 22  1  0
 20 23  1  0
 20 24  2  0
 20 25  1  0
 21 24  1  0
 22 25  2  0
M  END
>  <PUBCHEM_COMPOUND_CID>  (1) 
26590

>  <PUBCHEM_CONFORMER_RMSD>  (1) 
1.4

>  <PUBCHEM_CONFORMER_DIVERSEORDER>  (1) 
1
15
31
12
25
22
17
19
32
6
8
26
11
27
29
21
9
23
13
33
2
16
7
18
24
10
3
34
20
5
28
30
14
4

>  <PUBCHEM_MMFF94_PARTIAL_CHARGES>  (1) 
20
1 -0.36
11 0.28
12 0.27
14 0.27
15 0.27
16 0.28
19 0.08
2 -0.43
20 0.09
21 -0.15
22 -0.15
23 0.63
24 -0.15
25 -0.15
3 -0.57
4 -0.81
57 0.15
58 0.15
59 0.15
60 0.15

>  <PUBCHEM_EFFECTIVE_ROTOR_COUNT>  (1) 
15

>  <PUBCHEM_PHARMACOPHORE_FEATURES>  (1) 
7
1 1 acceptor
1 13 hydrophobe
1 3 acceptor
1 4 cation
3 5 7 9 hydrophobe
3 6 8 10 hydrophobe
6 19 20 21 22 24 25 rings

>  <PUBCHEM_HEAVY_ATOM_COUNT>  (1) 
25

>  <PUBCHEM_ATOM_DEF_STEREO_COUNT>  (1) 
0

>  <PUBCHEM_ATOM_UDEF_STEREO_COUNT>  (1) 
0

>  <PUBCHEM_BOND_DEF_STEREO_COUNT>  (1) 
0

>  <PUBCHEM_BOND_UDEF_STEREO_COUNT>  (1) 
0

>  <PUBCHEM_ISOTOPIC_ATOM_COUNT>  (1) 
0

>  <PUBCHEM_COMPONENT_COUNT>  (1) 
1

>  <PUBCHEM_CACTVS_TAUTO_COUNT>  (1) 
1

>  <PUBCHEM_CONFORMER_ID>  (1) 
000067DE00000001

>  <PUBCHEM_MMFF94_ENERGY>  (1) 
46.0545

>  <PUBCHEM_FEATURE_SELFOVERLAP>  (1) 
35.533

>  <PUBCHEM_SHAPE_FINGERPRINT>  (1) 
10280341 67 10735612284184754699
10411042 1 18411135861638368497
10740516 88 18339652221085955442
11061554 47 9367350327824346474
12539745 222 17775289330924647073
14178184 131 18059569256192523207
14251920 17 8358257039174652147
15274700 232 18409737278801173210
15461852 350 18261678087171059134
155225 1 7925912577952027710
15773216 30 18193560189299239932
16120349 21 18413108386125267859
1818759 1 18273216387820695966
18643901 69 18333449842070879773
195137 95 9655580703769861730
2026 5 18341895131198137382
20771845 65 18202002157593033464
21130935 74 18126282189448959681
21130971 5 18041569152167561243
21130990 3 18410014377158100019
21150785 3 14996277029205385169
21267235 1 18409164424341015121
21585481 151 18343582966950006843
21781055 127 12679181657586831728
21792965 96 17967808316334769909
246663 6 18411982468152482160
255183 451 18260545666528954709
2835820 83 18339360872507023455
2851757 41 18410859892540660547
306946 40 12252188489834966198
44802255 64 13118004396614420545
5283384 27 11602823489079446736
54039377 194 18411419510089057420
5470011 282 17385441037840080190
54728670 133 15984830260059738865
5719381 82 18411700980977015970
58260988 521 17847062169115581564
5937810 71 12468903275109519663
636775 72 9295289447703751031
636775 8 18411421692280778702
9995097 26 18411138048456288156
999808 66 18272365386562066799

>  <PUBCHEM_SHAPE_MULTIPOLES>  (1) 
491.9
36.17
3.56
0.89
61.67
0.65
0
45.1
5.41
-3.68
0.33
-0.04
-0.02
2.36

>  <PUBCHEM_SHAPE_SELFOVERLAP>  (1) 
963.843

>  <PUBCHEM_SHAPE_VOLUME>  (1) 
297.5

>  <PUBCHEM_COORDINATE_TYPE>  (1) 
2
5
10

$$$$
