2659
     RDKit          3D

 29 31  0  0  1  0  0  0  0  0999 V2000
   -1.3444   -0.5127    2.5444 S   0  0  0  0  0  0  0  0  0  0  0  0
   -0.2585   -3.0361   -1.2088 O   0  0  0  0  0  0  0  0  0  0  0  0
   -4.8475    1.5618    0.1919 O   0  0  0  0  0  0  0  0  0  0  0  0
   -2.5665   -1.3147   -2.5341 O   0  0  0  0  0  0  0  0  0  0  0  0
   -4.1109   -2.5118   -1.3460 O   0  0  0  0  0  0  0  0  0  0  0  0
    2.6183   -0.1783    2.3268 O   0  0  0  0  0  0  0  0  0  0  0  0
    4.8633    1.4023   -1.2839 O   0  0  0  0  0  0  0  0  0  0  0  0
    6.1440   -0.2728   -0.2353 O   0  0  0  0  0  0  0  0  0  0  0  0
   -7.1159    1.4224   -0.1753 O   0  0  0  0  0  0  0  0  0  0  0  0
   -1.2908   -1.3009    0.0094 N   0  0  0  0  0  0  0  0  0  0  0  0
    1.8803   -1.1380    0.3156 N   0  0  0  0  0  0  0  0  0  0  0  0
    5.0632   -0.8414    0.4529 N   0  0  0  0  0  0  0  0  0  0  0  0
   -6.0456    3.4569   -0.1300 N   0  0  0  0  0  0  0  0  0  0  0  0
   -0.4890   -0.5429    0.9527 C   0  0  0  0  0  0  0  0  0  0  0  0
    0.5853   -1.6374    0.7716 C   0  0  0  0  0  0  0  0  0  0  0  0
   -0.3270   -2.1673   -0.3713 C   0  0  0  0  0  0  0  0  0  0  0  0
   -2.5984   -1.0419   -0.2498 C   0  0  0  0  0  0  0  0  0  0  0  0
   -3.3354   -0.2448    0.5599 C   0  0  0  0  0  0  0  0  0  0  0  0
   -2.8074    0.3426    1.8668 C   0  0  0  0  0  0  0  0  0  0  0  0
   -4.7669    0.1560    0.2965 C   0  0  0  0  0  0  0  0  0  0  0  0
   -3.1947   -1.7174   -1.4118 C   0  0  0  0  0  0  0  0  0  0  0  0
    2.7573   -0.4608    1.1473 C   0  0  0  0  0  0  0  0  0  0  0  0
    4.0310   -0.0538    0.4578 C   0  0  0  0  0  0  0  0  0  0  0  0
    4.0630    1.2546   -0.1958 C   0  0  0  0  0  0  0  0  0  0  0  0
   -6.0931    2.0872   -0.0488 C   0  0  0  0  0  0  0  0  0  0  0  0
    3.4085    2.4313    0.0857 C   0  0  0  0  0  0  0  0  0  0  0  0
    3.8341    3.3617   -0.8922 C   0  0  0  0  0  0  0  0  0  0  0  0
    4.7182    2.6873   -1.7017 C   0  0  0  0  0  0  0  0  0  0  0  0
    7.2252   -1.1913   -0.1946 C   0  0  0  0  0  0  0  0  0  0  0  0
  1 14  1  0
  1 19  1  0
  2 16  2  0
  3 20  1  0
  3 25  1  0
  4 21  1  0
  5 21  2  0
  6 22  2  0
  7 24  1  0
  7 28  1  0
  8 12  1  0
  8 29  1  0
  9 25  2  0
 10 14  1  0
 10 16  1  0
 10 17  1  0
 11 15  1  0
 11 22  1  0
 12 23  2  0
 13 25  1  0
 14 15  1  0
 15 16  1  0
 17 18  2  0
 17 21  1  0
 18 19  1  0
 18 20  1  0
 22 23  1  0
 23 24  1  0
 24 26  2  0
 26 27  1  0
 27 28  2  0
M  END
>  <PUBCHEM_COMPOUND_CID>  (1) 
2659

>  <PUBCHEM_CONFORMER_RMSD>  (1) 
1

>  <PUBCHEM_CONFORMER_DIVERSEORDER>  (1) 
1
93
25
122
109
24
120
110
69
99
64
112
73
81
66
34
101
11
92
21
12
26
116
87
108
71
84
103
70
111
13
91
29
59
107
79
14
27
42
55
35
68
119
104
46
50
78
106
85
47
61
114
98
65
58
9
67
44
15
115
62
10
76
105
7
56
45
37
97
6
36
90
48
121
95
117
4
3
41
60
18
83
75
89
82
22
74
72
8
113
28
94
38
118
102
49
86
23
32
30
16
20
51
52
63
100
96
88
5
43
33
77
53
40
17
57
39
54
31
2
19
80

>  <PUBCHEM_MMFF94_PARTIAL_CHARGES>  (1) 
36
1 -0.45
10 -0.39
11 -0.65
12 -0.51
13 -0.8
14 0.44
15 0.28
16 0.58
17 0.12
18 -0.28
19 0.37
2 -0.57
20 0.42
21 0.71
22 0.63
23 0.53
24 0.05
25 0.78
26 -0.15
27 -0.15
28 -0.01
29 0.28
3 -0.43
34 0.37
37 0.5
38 0.15
39 0.15
4 -0.65
40 0.15
41 0.37
42 0.37
5 -0.57
6 -0.57
7 -0.28
8 -0.22
9 -0.57

>  <PUBCHEM_EFFECTIVE_ROTOR_COUNT>  (1) 
9.6

>  <PUBCHEM_PHARMACOPHORE_FEATURES>  (1) 
13
1 11 donor
1 12 acceptor
1 13 donor
1 2 acceptor
1 4 acceptor
1 5 acceptor
1 6 acceptor
1 7 acceptor
1 9 acceptor
3 4 5 21 anion
4 10 14 15 16 rings
5 7 24 26 27 28 rings
6 1 10 14 17 18 19 rings

>  <PUBCHEM_HEAVY_ATOM_COUNT>  (1) 
29

>  <PUBCHEM_ATOM_DEF_STEREO_COUNT>  (1) 
0

>  <PUBCHEM_ATOM_UDEF_STEREO_COUNT>  (1) 
2

>  <PUBCHEM_BOND_DEF_STEREO_COUNT>  (1) 
0

>  <PUBCHEM_BOND_UDEF_STEREO_COUNT>  (1) 
1

>  <PUBCHEM_ISOTOPIC_ATOM_COUNT>  (1) 
0

>  <PUBCHEM_COMPONENT_COUNT>  (1) 
1

>  <PUBCHEM_CACTVS_TAUTO_COUNT>  (1) 
4

>  <PUBCHEM_CONFORMER_ID>  (1) 
00000A6300000001

>  <PUBCHEM_MMFF94_ENERGY>  (1) 
66.8538

>  <PUBCHEM_FEATURE_SELFOVERLAP>  (1) 
66.293

>  <PUBCHEM_SHAPE_FINGERPRINT>  (1) 
10763959 59 18261680277061275216
12633257 1 15647344094928700701
14117953 113 18341614750641236036
15064981 113 17274554126565123828
15510800 12 14261356889989345812
15575132 122 18340493373835699845
18335252 114 18335696101018141532
19377110 9 8141812638849382094
20511986 3 18059850719058862456
20567600 247 10519691281564343809
20567600 70 8718528524488635893
21033648 29 15574981884498421975
21315764 119 18060139804200806398
21344244 181 14979667819815669365
22122407 14 18114755853671965545
23559900 14 16701726242152154930
268830 7 17821998822560542497
2838139 119 18334857195537969533
33382 64 11095880462726516617
57724786 102 17749958868322921788
613672 6 15195573428771617018
633830 44 18259700112011380506

>  <PUBCHEM_SHAPE_MULTIPOLES>  (1) 
533.78
16.37
3.4
1.84
1.33
2.51
0.26
10.47
-3.2
-0.64
-1.59
-0.68
-0.66
-2.33

>  <PUBCHEM_SHAPE_SELFOVERLAP>  (1) 
1125.267

>  <PUBCHEM_SHAPE_VOLUME>  (1) 
301.3

>  <PUBCHEM_COORDINATE_TYPE>  (1) 
2
5
10

$$$$
