26592
     RDKit          3D

 18 20  0  0  0  0  0  0  0  0999 V2000
    5.0920   -0.2408    0.0005 O   0  0  0  0  0  0  0  0  0  0  0  0
    4.3150    1.8123   -0.0002 O   0  0  0  0  0  0  0  0  0  0  0  0
   -0.6092    1.3790   -0.0001 N   0  0  0  0  0  0  0  0  0  0  0  0
   -1.4032   -2.7367   -0.0002 N   0  0  0  0  0  0  0  0  0  0  0  0
    4.1348    0.5705    0.0003 N   0  0  0  0  0  0  0  0  0  0  0  0
    0.1900   -0.8904   -0.0001 C   0  0  0  0  0  0  0  0  0  0  0  0
   -2.1953   -0.4302    0.0000 C   0  0  0  0  0  0  0  0  0  0  0  0
   -1.1340   -1.3410    0.0000 C   0  0  0  0  0  0  0  0  0  0  0  0
    0.4094    0.4975   -0.0002 C   0  0  0  0  0  0  0  0  0  0  0  0
   -1.8825    0.9396    0.0000 C   0  0  0  0  0  0  0  0  0  0  0  0
    1.2758   -1.7832    0.0000 C   0  0  0  0  0  0  0  0  0  0  0  0
    1.7254    0.9523   -0.0002 C   0  0  0  0  0  0  0  0  0  0  0  0
   -3.5354   -0.8549    0.0002 C   0  0  0  0  0  0  0  0  0  0  0  0
    2.8068    0.0679   -0.0002 C   0  0  0  0  0  0  0  0  0  0  0  0
    2.5820   -1.3029   -0.0001 C   0  0  0  0  0  0  0  0  0  0  0  0
   -2.9348    1.8515    0.0000 C   0  0  0  0  0  0  0  0  0  0  0  0
   -4.5690    0.0769    0.0002 C   0  0  0  0  0  0  0  0  0  0  0  0
   -4.2678    1.4328    0.0000 C   0  0  0  0  0  0  0  0  0  0  0  0
  1  5  1  0
  2  5  2  0
  3  9  2  0
  3 10  1  0
  4  8  1  0
  5 14  1  0
  6  8  2  0
  6  9  1  0
  6 11  1  0
  7  8  1  0
  7 10  2  0
  7 13  1  0
  9 12  1  0
 10 16  1  0
 11 15  2  0
 12 14  2  0
 13 17  2  0
 14 15  1  0
 16 18  2  0
 17 18  1  0
M  CHG  2   1  -1   5   1
M  END
>  <PUBCHEM_COMPOUND_CID>  (1) 
26592

>  <PUBCHEM_CONFORMER_RMSD>  (1) 
0.6

>  <PUBCHEM_CONFORMER_DIVERSEORDER>  (1) 
1

>  <PUBCHEM_MMFF94_PARTIAL_CHARGES>  (1) 
25
1 -0.52
10 0.31
11 -0.15
12 -0.15
13 -0.15
14 0.13
15 -0.15
16 -0.15
17 -0.15
18 -0.15
19 0.15
2 -0.52
20 0.15
21 0.15
22 0.15
23 0.15
24 0.15
25 0.15
26 0.4
27 0.4
3 -0.62
4 -0.9
5 0.91
8 0.1
9 0.31

>  <PUBCHEM_EFFECTIVE_ROTOR_COUNT>  (1) 
1

>  <PUBCHEM_PHARMACOPHORE_FEATURES>  (1) 
9
1 1 acceptor
1 1 anion
1 2 acceptor
1 3 acceptor
1 4 cation
1 4 donor
6 3 6 7 8 9 10 rings
6 6 9 11 12 14 15 rings
6 7 10 13 16 17 18 rings

>  <PUBCHEM_HEAVY_ATOM_COUNT>  (1) 
18

>  <PUBCHEM_ATOM_DEF_STEREO_COUNT>  (1) 
0

>  <PUBCHEM_ATOM_UDEF_STEREO_COUNT>  (1) 
0

>  <PUBCHEM_BOND_DEF_STEREO_COUNT>  (1) 
0

>  <PUBCHEM_BOND_UDEF_STEREO_COUNT>  (1) 
0

>  <PUBCHEM_ISOTOPIC_ATOM_COUNT>  (1) 
0

>  <PUBCHEM_COMPONENT_COUNT>  (1) 
1

>  <PUBCHEM_CACTVS_TAUTO_COUNT>  (1) 
2

>  <PUBCHEM_CONFORMER_ID>  (1) 
000067E000000001

>  <PUBCHEM_MMFF94_ENERGY>  (1) 
76.8503

>  <PUBCHEM_FEATURE_SELFOVERLAP>  (1) 
45.812

>  <PUBCHEM_SHAPE_FINGERPRINT>  (1) 
10411042 1 17185876632652902350
10608611 8 18410572859944132461
10616163 171 18339644541641835991
10967382 1 18410573950960602275
11132069 177 18410854360616566529
11471102 20 18411415077218655519
12236239 1 17821728351791171204
12390115 104 18200331926199173697
12403814 3 17676482848197107445
13140716 1 18050013491177019947
13214271 11 18409449198184613199
13380535 76 18411702075502560566
13583140 156 16805317803962591425
138480 1 17618221711100603715
14897335 6 18410855451633335182
15042514 8 18265057014873204827
15196674 1 18410856525586123235
15375358 24 18413390934010573542
15442244 35 18122624946558823114
15536298 74 18341896238460351350
16945 1 18338799030406276647
18186145 218 18268997483704255821
200 152 17917989473436713621
20510252 161 18272091556875387673
20602899 9 15913328009102567927
20645477 56 18410014342407334828
20645477 70 18200313204051550279
21267235 1 18410302405784990019
23227448 37 18339923839074980364
2334 1 18410573946939876611
23366157 5 17897733067602701194
23402539 116 18342450456987703893
23402655 69 18271801273110585365
23463225 33 18335701577280681295
23559900 14 18271525278633775398
2748010 2 18337677399812996967
296302 2 18409168800922790893
335352 9 18410573947098210558
34934 24 18409725175070467363
3545911 37 18410014316563632509
4214541 1 18410855447343714052
474 4 17386574699164595252
474229 33 18411419523127258103
4990 188 17989213620612787380
5104073 3 18409167679730651251
58051976 378 18341048519253484213
633830 44 18128818534687402085
69090 78 18412260636167996023
7364860 26 18196653999685315574
77779 3 18411420587635315916
9709674 26 18413113861380960438

>  <PUBCHEM_SHAPE_MULTIPOLES>  (1) 
343.75
8.69
2.12
0.59
3.51
0.57
0
-3.03
0
-0.35
0
-0.06
0.01
0

>  <PUBCHEM_SHAPE_SELFOVERLAP>  (1) 
778.672

>  <PUBCHEM_SHAPE_VOLUME>  (1) 
180.3

>  <PUBCHEM_COORDINATE_TYPE>  (1) 
2
5
10

$$$$
