2660
     RDKit          3D

 35 37  0  0  1  0  0  0  0  0999 V2000
   -0.3078    2.8437   -1.8377 S   0  0  0  0  0  0  0  0  0  0  0  0
   -0.0285   -1.7737   -2.2996 O   0  0  0  0  0  0  0  0  0  0  0  0
   -2.4931   -1.7028   -0.3107 O   0  0  0  0  0  0  0  0  0  0  0  0
   -4.1583    2.4070    0.8166 O   0  0  0  0  0  0  0  0  0  0  0  0
   -3.8197   -0.9350   -2.0474 O   0  0  0  0  0  0  0  0  0  0  0  0
    3.6071    2.0211   -1.2198 O   0  0  0  0  0  0  0  0  0  0  0  0
   -2.9534   -3.6257    1.0070 O   0  0  0  0  0  0  0  0  0  0  0  0
    5.1271    1.0002    3.2161 O   0  0  0  0  0  0  0  0  0  0  0  0
    6.3003   -1.3804   -0.1157 O   0  0  0  0  0  0  0  0  0  0  0  0
   -6.4575    2.4289    0.7018 O   0  0  0  0  0  0  0  0  0  0  0  0
   -3.9836   -1.8979    2.1433 O   0  0  0  0  0  0  0  0  0  0  0  0
   -0.7662    0.2689   -1.3808 N   0  0  0  0  0  0  0  0  0  0  0  0
    2.4463   -0.0190   -1.2414 N   0  0  0  0  0  0  0  0  0  0  0  0
    5.2571   -0.8619   -0.8955 N   0  0  0  0  0  0  0  0  0  0  0  0
   -5.3558    3.2337    2.5525 N   0  0  0  0  0  0  0  0  0  0  0  0
    0.2193    1.2908   -1.0783 C   0  0  0  0  0  0  0  0  0  0  0  0
    1.2157    0.4337   -1.8894 C   0  0  0  0  0  0  0  0  0  0  0  0
    0.0873   -0.6365   -1.9067 C   0  0  0  0  0  0  0  0  0  0  0  0
   -2.0934    0.4011   -1.1259 C   0  0  0  0  0  0  0  0  0  0  0  0
   -2.6419    1.6060   -0.8402 C   0  0  0  0  0  0  0  0  0  0  0  0
   -1.8582    2.9160   -0.8775 C   0  0  0  0  0  0  0  0  0  0  0  0
   -4.0888    1.8221   -0.4666 C   0  0  0  0  0  0  0  0  0  0  0  0
   -2.9182   -0.8110   -1.2380 C   0  0  0  0  0  0  0  0  0  0  0  0
    3.5081    0.8289   -0.9783 C   0  0  0  0  0  0  0  0  0  0  0  0
    4.6647    0.1336   -0.3079 C   0  0  0  0  0  0  0  0  0  0  0  0
   -3.1819   -2.9680   -0.2570 C   0  0  0  0  0  0  0  0  0  0  0  0
    5.1433    0.5515    1.0137 C   0  0  0  0  0  0  0  0  0  0  0  0
   -5.4156    2.6683    1.3029 C   0  0  0  0  0  0  0  0  0  0  0  0
   -2.6282   -3.8807   -1.3421 C   0  0  0  0  0  0  0  0  0  0  0  0
    6.4264    1.0217    1.3822 C   0  0  0  0  0  0  0  0  0  0  0  0
    4.3896    0.5569    2.1644 C   0  0  0  0  0  0  0  0  0  0  0  0
    6.3654    1.2810    2.7316 C   0  0  0  0  0  0  0  0  0  0  0  0
   -3.4065   -2.9763    2.1169 C   0  0  0  0  0  0  0  0  0  0  0  0
   -3.0906   -3.7890    3.3356 C   0  0  0  0  0  0  0  0  0  0  0  0
    6.8895   -2.4574   -0.8279 C   0  0  0  0  0  0  0  0  0  0  0  0
  1 16  1  0
  1 21  1  0
  2 18  2  0
  3 23  1  0
  3 26  1  0
  4 22  1  0
  4 28  1  0
  5 23  2  0
  6 24  2  0
  7 26  1  0
  7 33  1  0
  8 31  1  0
  8 32  1  0
  9 14  1  0
  9 35  1  0
 10 28  2  0
 11 33  2  0
 12 16  1  0
 12 18  1  0
 12 19  1  0
 13 17  1  0
 13 24  1  0
 14 25  2  0
 15 28  1  0
 16 17  1  0
 17 18  1  0
 19 20  2  0
 19 23  1  0
 20 21  1  0
 20 22  1  0
 24 25  1  0
 25 27  1  0
 26 29  1  0
 27 30  1  0
 27 31  2  0
 30 32  2  0
 33 34  1  0
M  END
>  <PUBCHEM_COMPOUND_CID>  (1) 
2660

>  <PUBCHEM_CONFORMER_RMSD>  (1) 
1.2

>  <PUBCHEM_CONFORMER_DIVERSEORDER>  (1) 
1
10
218
239
81
52
43
130
121
73
211
123
92
255
26
184
269
42
153
194
171
95
179
93
222
136
12
6
30
213
97
241
98
149
201
264
166
148
237
126
94
221
178
5
84
29
177
217
28
53
252
156
232
224
152
21
266
72
243
185
54
250
265
61
119
125
3
62
238
45
208
173
164
34
76
146
40
4
207
111
25
251
254
118
271
75
204
220
91
69
18
196
161
140
14
257
187
272
234
273
122
106
210
82
242
268
67
15
199
141
71
120
77
172
169
9
63
180
32
113
87
262
129
24
112
109
31
231
90
247
143
147
228
159
145
267
209
138
11
229
19
110
100
182
181
57
8
20
2
190
51
261
202
13
96
128
230
60
151
133
105
142
104
78
46
192
102
139
116
195
245
244
168
56
240
115
55
132
174
103
137
225
49
36
70
107
260
80
183
83
59
44
135
131
163
157
216
206
16
175
258
154
23
223
205
41
253
227
165
85
233
7
219
68
64
200
193
170
235
58
197
236
155
114
248
117
158
27
134
186
198
88
212
101
35
246
37
203
214
256
191
160
79
17
263
124
259
226
108
215
270
127
74
167
39
144
189
188
48
176
65
33
249
99
66
162
38
50
47
89
22
150
86

>  <PUBCHEM_MMFF94_PARTIAL_CHARGES>  (1) 
40
1 -0.45
10 -0.57
11 -0.57
12 -0.39
13 -0.65
14 -0.51
15 -0.8
16 0.44
17 0.28
18 0.58
19 0.12
2 -0.57
20 -0.28
21 0.37
22 0.42
23 0.71
24 0.63
25 0.54
26 0.56
27 -0.09
28 0.78
3 -0.43
30 -0.15
31 -0.01
32 -0.01
33 0.66
34 0.06
35 0.28
4 -0.43
40 0.37
47 0.15
48 0.15
49 0.15
5 -0.57
50 0.37
51 0.37
6 -0.57
7 -0.43
8 -0.28
9 -0.22

>  <PUBCHEM_EFFECTIVE_ROTOR_COUNT>  (1) 
13.6

>  <PUBCHEM_PHARMACOPHORE_FEATURES>  (1) 
12
1 10 acceptor
1 11 acceptor
1 13 donor
1 14 acceptor
1 15 donor
1 2 acceptor
1 5 acceptor
1 6 acceptor
1 8 acceptor
4 12 16 17 18 rings
5 8 27 30 31 32 rings
6 1 12 16 19 20 21 rings

>  <PUBCHEM_HEAVY_ATOM_COUNT>  (1) 
35

>  <PUBCHEM_ATOM_DEF_STEREO_COUNT>  (1) 
0

>  <PUBCHEM_ATOM_UDEF_STEREO_COUNT>  (1) 
3

>  <PUBCHEM_BOND_DEF_STEREO_COUNT>  (1) 
0

>  <PUBCHEM_BOND_UDEF_STEREO_COUNT>  (1) 
1

>  <PUBCHEM_ISOTOPIC_ATOM_COUNT>  (1) 
0

>  <PUBCHEM_COMPONENT_COUNT>  (1) 
1

>  <PUBCHEM_CACTVS_TAUTO_COUNT>  (1) 
4

>  <PUBCHEM_CONFORMER_ID>  (1) 
00000A6400000001

>  <PUBCHEM_MMFF94_ENERGY>  (1) 
76.3062

>  <PUBCHEM_FEATURE_SELFOVERLAP>  (1) 
61.163

>  <PUBCHEM_SHAPE_FINGERPRINT>  (1) 
10074138 170 18407759244528453105
10319688 67 18410576176497629593
10319926 262 18341892983344386444
10928967 22 16660913405979828322
11387372 6 17896610496290394222
12422481 6 18341345443179916918
12717326 150 15430855640907897369
13383661 66 13697580202903814465
14020679 6 18343298159089230985
14705955 166 18130786798087729193
14844126 61 18265040500565559823
15537594 2 16588024593946447946
18603816 31 16010122398699084536
19303781 99 14780646229594966000
21033648 29 17846216687328523996
22122407 14 16630243632592209568
2838139 119 16701449057705717525
312425 54 18341604889939123266
3383291 50 18336537331100052855
4073 2 18271800242634691992
484985 159 17385719257812297091
5104073 3 18272639135546745814
563151 248 17749685021123408273
613672 6 18115014342347672046
9981440 41 18060702762986788199

>  <PUBCHEM_SHAPE_MULTIPOLES>  (1) 
645.52
16.43
4.74
3.16
21.82
3.36
-2.4
-1.63
-11.13
-8.99
-1.74
0.24
0.67
1.1

>  <PUBCHEM_SHAPE_SELFOVERLAP>  (1) 
1345.635

>  <PUBCHEM_SHAPE_VOLUME>  (1) 
368.5

>  <PUBCHEM_COORDINATE_TYPE>  (1) 
2
5
10

$$$$
