26604
     RDKit          3D

 14 14  0  0  0  0  0  0  0  0999 V2000
    0.6601   -2.5915   -0.0620 Cl  0  0  0  0  0  0  0  0  0  0  0  0
   -3.0722    0.0725   -0.3620 O   0  0  0  0  0  0  0  0  0  0  0  0
   -1.4976    0.4480    1.2812 O   0  0  0  0  0  0  0  0  0  0  0  0
    2.6147   -0.9357    0.2465 N   0  0  0  0  0  0  0  0  0  0  0  0
    2.5513    1.4289   -0.2139 N   0  0  0  0  0  0  0  0  0  0  0  0
   -0.8253   -0.0077   -1.0125 C   0  0  0  0  0  0  0  0  0  0  0  0
    0.6139    0.0784   -0.5741 C   0  0  0  0  0  0  0  0  0  0  0  0
   -1.8004    0.2018    0.1215 C   0  0  0  0  0  0  0  0  0  0  0  0
    1.3261   -1.0090   -0.1467 C   0  0  0  0  0  0  0  0  0  0  0  0
    1.2647    1.2829   -0.5929 C   0  0  0  0  0  0  0  0  0  0  0  0
   -4.1179    0.2462    0.5997 C   0  0  0  0  0  0  0  0  0  0  0  0
    3.1572    0.2955    0.1884 C   0  0  0  0  0  0  0  0  0  0  0  0
   -5.4548    0.0730   -0.0888 C   0  0  0  0  0  0  0  0  0  0  0  0
    4.5803    0.4167    0.6155 C   0  0  0  0  0  0  0  0  0  0  0  0
  1  9  1  0
  2  8  1  0
  2 11  1  0
  3  8  2  0
  4  9  2  0
  4 12  1  0
  5 10  1  0
  5 12  2  0
  6  7  1  0
  6  8  1  0
  7  9  1  0
  7 10  2  0
 11 13  1  0
 12 14  1  0
M  END
>  <PUBCHEM_COMPOUND_CID>  (1) 
26604

>  <PUBCHEM_CONFORMER_RMSD>  (1) 
0.6

>  <PUBCHEM_CONFORMER_DIVERSEORDER>  (1) 
1
37
29
7
49
33
3
31
50
8
13
5
41
30
47
46
24
36
10
43
38
51
32
44
48
4
35
6
27
17
53
26
52
15
2
42
11
25
16
40
55
28
19
39
54
34
14
45
9
56
21
23
22
18
12
20

>  <PUBCHEM_MMFF94_PARTIAL_CHARGES>  (1) 
14
1 -0.18
10 0.16
11 0.28
12 0.48
14 0.14
17 0.15
2 -0.43
3 -0.57
4 -0.62
5 -0.62
6 0.2
7 -0.14
8 0.66
9 0.49

>  <PUBCHEM_EFFECTIVE_ROTOR_COUNT>  (1) 
4

>  <PUBCHEM_PHARMACOPHORE_FEATURES>  (1) 
4
1 3 acceptor
1 4 acceptor
3 4 5 12 cation
6 4 5 7 9 10 12 rings

>  <PUBCHEM_HEAVY_ATOM_COUNT>  (1) 
14

>  <PUBCHEM_ATOM_DEF_STEREO_COUNT>  (1) 
0

>  <PUBCHEM_ATOM_UDEF_STEREO_COUNT>  (1) 
0

>  <PUBCHEM_BOND_DEF_STEREO_COUNT>  (1) 
0

>  <PUBCHEM_BOND_UDEF_STEREO_COUNT>  (1) 
0

>  <PUBCHEM_ISOTOPIC_ATOM_COUNT>  (1) 
0

>  <PUBCHEM_COMPONENT_COUNT>  (1) 
1

>  <PUBCHEM_CACTVS_TAUTO_COUNT>  (1) 
1

>  <PUBCHEM_CONFORMER_ID>  (1) 
000067EC00000001

>  <PUBCHEM_MMFF94_ENERGY>  (1) 
23.0496

>  <PUBCHEM_FEATURE_SELFOVERLAP>  (1) 
20.297

>  <PUBCHEM_SHAPE_FINGERPRINT>  (1) 
10219947 1 18334577932168339668
12119455 92 18187639223743754374
12236239 1 17917990577132513101
12251169 10 18259703419204367022
12346645 6 18410294692081645014
13380535 76 18335706061137270419
14251717 144 18409167697211355775
14252887 29 18187088308257106554
15207287 21 17530966873501395427
15775835 57 17917710210114978888
16945 1 18334847338761669892
200 152 18341608214159537805
20279233 1 17676494934498789771
204376 136 18410576231651565954
20645477 70 18336543812094386935
21119208 17 10737285744722801273
21637258 2 14779531388806851656
23402539 116 15769768061439879452
26918003 58 18186802491627557457
33824 294 18334857186436442467
4047638 21 16128656370844521104
465052 167 17748828514276328850
69090 78 18113899386117330027
7364860 26 18059018263417010294
8272917 22 18340211778394222151

>  <PUBCHEM_SHAPE_MULTIPOLES>  (1) 
268.28
8.59
1.57
0.89
8.11
1.16
0.04
-1.89
1.75
-1.11
-0.1
0.14
-0.09
-0.12

>  <PUBCHEM_SHAPE_SELFOVERLAP>  (1) 
536.482

>  <PUBCHEM_SHAPE_VOLUME>  (1) 
159.7

>  <PUBCHEM_COORDINATE_TYPE>  (1) 
2
5
10

$$$$
