26608
     RDKit          3D

  8  7  0  0  1  0  0  0  0  0999 V2000
    1.4861   -1.4977   -0.2974 O   0  0  0  0  0  0  0  0  0  0  0  0
    1.7477    0.3030    1.0506 O   0  0  0  0  0  0  0  0  0  0  0  0
   -1.3773    0.0541   -0.2099 C   0  0  0  0  0  0  0  0  0  0  0  0
    0.0543    0.3734   -0.7136 C   0  0  0  0  0  0  0  0  0  0  0  0
   -1.6888   -1.4436   -0.2991 C   0  0  0  0  0  0  0  0  0  0  0  0
   -1.7047    0.5812    1.1898 C   0  0  0  0  0  0  0  0  0  0  0  0
    0.3140    1.8736   -0.8430 C   0  0  0  0  0  0  0  0  0  0  0  0
    1.1687   -0.2440    0.1225 C   0  0  0  0  0  0  0  0  0  0  0  0
  1  8  1  0
  2  8  2  0
  3  4  1  0
  3  5  1  0
  3  6  1  0
  4  7  1  0
  4  8  1  0
M  END
>  <PUBCHEM_COMPOUND_CID>  (1) 
26608

>  <PUBCHEM_CONFORMER_RMSD>  (1) 
0.4

>  <PUBCHEM_CONFORMER_DIVERSEORDER>  (1) 
1
10
4
3
7
2
5
8
9
6

>  <PUBCHEM_MMFF94_PARTIAL_CHARGES>  (1) 
5
1 -0.65
2 -0.57
20 0.5
4 0.06
8 0.66

>  <PUBCHEM_EFFECTIVE_ROTOR_COUNT>  (1) 
2

>  <PUBCHEM_PHARMACOPHORE_FEATURES>  (1) 
5
1 1 acceptor
1 2 acceptor
1 7 hydrophobe
3 1 2 8 anion
3 3 5 6 hydrophobe

>  <PUBCHEM_HEAVY_ATOM_COUNT>  (1) 
8

>  <PUBCHEM_ATOM_DEF_STEREO_COUNT>  (1) 
0

>  <PUBCHEM_ATOM_UDEF_STEREO_COUNT>  (1) 
1

>  <PUBCHEM_BOND_DEF_STEREO_COUNT>  (1) 
0

>  <PUBCHEM_BOND_UDEF_STEREO_COUNT>  (1) 
0

>  <PUBCHEM_ISOTOPIC_ATOM_COUNT>  (1) 
0

>  <PUBCHEM_COMPONENT_COUNT>  (1) 
1

>  <PUBCHEM_CACTVS_TAUTO_COUNT>  (1) 
1

>  <PUBCHEM_CONFORMER_ID>  (1) 
000067F000000001

>  <PUBCHEM_MMFF94_ENERGY>  (1) 
9.9387

>  <PUBCHEM_FEATURE_SELFOVERLAP>  (1) 
25.432

>  <PUBCHEM_SHAPE_FINGERPRINT>  (1) 
18185500 45 18267588081654193503
20711978 78 17679614343191143427
21040471 1 17844272677776971905
21922407 69 18124896782648002441
23552333 60 17975137853084719803
23552449 11 17751345399371062161
24536 1 18339367469180189727
29004967 10 17967543354082550088
5943 1 8386540939883818477

>  <PUBCHEM_SHAPE_MULTIPOLES>  (1) 
152.9
2.32
1.63
1.08
0.36
0.11
-0.24
-0.56
-0.49
-0.21
0.43
0.06
0.24
-0.35

>  <PUBCHEM_SHAPE_SELFOVERLAP>  (1) 
280.646

>  <PUBCHEM_SHAPE_VOLUME>  (1) 
98

>  <PUBCHEM_COORDINATE_TYPE>  (1) 
2
5
10

$$$$
