26616
     RDKit          3D

 29 32  0  0  0  0  0  0  0  0999 V2000
    2.9694   -1.4235   -0.9967 O   0  0  0  0  0  0  0  0  0  0  0  0
   -4.3069    0.7217    0.3380 N   0  0  0  0  0  0  0  0  0  0  0  0
    6.1912   -0.2270    0.3300 N   0  0  0  0  0  0  0  0  0  0  0  0
   -2.4449   -0.4226   -0.0496 C   0  0  0  0  0  0  0  0  0  0  0  0
   -3.5224   -1.3468    0.0497 C   0  0  0  0  0  0  0  0  0  0  0  0
   -2.9586    0.8407    0.1320 C   0  0  0  0  0  0  0  0  0  0  0  0
   -4.6790   -0.6030    0.2931 C   0  0  0  0  0  0  0  0  0  0  0  0
   -1.0519   -0.6805   -0.2933 C   0  0  0  0  0  0  0  0  0  0  0  0
    5.2213   -0.6785   -0.6565 C   0  0  0  0  0  0  0  0  0  0  0  0
   -2.3154    2.1357    0.1319 C   0  0  0  0  0  0  0  0  0  0  0  0
   -3.6249   -2.7488   -0.0446 C   0  0  0  0  0  0  0  0  0  0  0  0
    7.4591    0.1256   -0.3136 C   0  0  0  0  0  0  0  0  0  0  0  0
    6.4111   -1.2558    1.3495 C   0  0  0  0  0  0  0  0  0  0  0  0
    3.8922   -1.0028    0.0069 C   0  0  0  0  0  0  0  0  0  0  0  0
   -5.9381   -1.1937    0.4476 C   0  0  0  0  0  0  0  0  0  0  0  0
   -0.1870   -0.8998    0.7779 C   0  0  0  0  0  0  0  0  0  0  0  0
   -0.5682   -0.7108   -1.6004 C   0  0  0  0  0  0  0  0  0  0  0  0
    1.6501   -1.1805   -0.7659 C   0  0  0  0  0  0  0  0  0  0  0  0
   -4.8780   -3.3535    0.1077 C   0  0  0  0  0  0  0  0  0  0  0  0
    1.1648   -1.1498    0.5413 C   0  0  0  0  0  0  0  0  0  0  0  0
    0.7837   -0.9610   -1.8368 C   0  0  0  0  0  0  0  0  0  0  0  0
   -6.0155   -2.5859    0.3500 C   0  0  0  0  0  0  0  0  0  0  0  0
   -1.8164    2.6621    1.3214 C   0  0  0  0  0  0  0  0  0  0  0  0
   -2.1954    2.8520   -1.0570 C   0  0  0  0  0  0  0  0  0  0  0  0
    7.2308    1.1906   -1.3689 C   0  0  0  0  0  0  0  0  0  0  0  0
    7.3704   -0.7457    2.4077 C   0  0  0  0  0  0  0  0  0  0  0  0
   -1.1947    3.9107    1.3220 C   0  0  0  0  0  0  0  0  0  0  0  0
   -1.5737    4.1007   -1.0565 C   0  0  0  0  0  0  0  0  0  0  0  0
   -1.0733    4.6300    0.1330 C   0  0  0  0  0  0  0  0  0  0  0  0
  1 14  1  0
  1 18  1  0
  2  6  1  0
  2  7  1  0
  3  9  1  0
  3 12  1  0
  3 13  1  0
  4  5  1  0
  4  6  2  0
  4  8  1  0
  5  7  2  0
  5 11  1  0
  6 10  1  0
  7 15  1  0
  8 16  2  0
  8 17  1  0
  9 14  1  0
 10 23  2  0
 10 24  1  0
 11 19  2  0
 12 25  1  0
 13 26  1  0
 15 22  2  0
 16 20  1  0
 17 21  2  0
 18 20  2  0
 18 21  1  0
 19 22  1  0
 23 27  1  0
 24 28  2  0
 27 29  2  0
 28 29  1  0
M  END
>  <PUBCHEM_COMPOUND_CID>  (1) 
26616

>  <PUBCHEM_CONFORMER_RMSD>  (1) 
1

>  <PUBCHEM_CONFORMER_DIVERSEORDER>  (1) 
1
19
5
18
11
20
10
9
12
6
17
3
8
15
13
14
7
16
2
4

>  <PUBCHEM_MMFF94_PARTIAL_CHARGES>  (1) 
40
1 -0.36
10 0.05
11 -0.15
12 0.27
13 0.27
14 0.28
15 -0.15
16 -0.15
17 -0.15
18 0.08
19 -0.15
2 0.03
20 -0.15
21 -0.15
22 -0.15
23 -0.15
24 -0.15
27 -0.15
28 -0.15
29 -0.15
3 -0.81
30 0.27
33 0.15
4 -0.05
40 0.15
41 0.15
42 0.15
43 0.15
44 0.15
45 0.15
46 0.15
47 0.15
48 0.15
55 0.15
56 0.15
57 0.15
6 -0.2
7 -0.15
8 0.05
9 0.27

>  <PUBCHEM_EFFECTIVE_ROTOR_COUNT>  (1) 
8

>  <PUBCHEM_PHARMACOPHORE_FEATURES>  (1) 
8
1 1 acceptor
1 2 cation
1 2 donor
1 3 cation
5 2 4 5 6 7 rings
6 10 23 24 27 28 29 rings
6 5 7 11 15 19 22 rings
6 8 16 17 18 20 21 rings

>  <PUBCHEM_HEAVY_ATOM_COUNT>  (1) 
29

>  <PUBCHEM_ATOM_DEF_STEREO_COUNT>  (1) 
0

>  <PUBCHEM_ATOM_UDEF_STEREO_COUNT>  (1) 
0

>  <PUBCHEM_BOND_DEF_STEREO_COUNT>  (1) 
0

>  <PUBCHEM_BOND_UDEF_STEREO_COUNT>  (1) 
0

>  <PUBCHEM_ISOTOPIC_ATOM_COUNT>  (1) 
0

>  <PUBCHEM_COMPONENT_COUNT>  (1) 
1

>  <PUBCHEM_CACTVS_TAUTO_COUNT>  (1) 
1

>  <PUBCHEM_CONFORMER_ID>  (1) 
000067F800000001

>  <PUBCHEM_MMFF94_ENERGY>  (1) 
80.7437

>  <PUBCHEM_FEATURE_SELFOVERLAP>  (1) 
40.689

>  <PUBCHEM_SHAPE_FINGERPRINT>  (1) 
10 15 18059849606631191074
10165383 225 16469291378484921205
10290309 65 17916867903079212246
10369192 42 16774082877777868148
11101153 10 18336271240516478124
11963148 33 16828686021363575447
12107183 9 17469314843303999290
12107698 1 18335699464484033888
12166972 35 17676770975824926244
12596602 18 17894628141618392368
12788726 201 18261672576306506211
13560911 43 18335701689462177488
14068700 675 18187648041369544764
14068700 686 18129673997451889590
14394314 77 18408610249739041835
14856354 85 18411420652340284046
15328684 2 17968647221925815344
15419008 47 17988923392635341232
15876981 60 18334579048649107077
18603816 31 12180126540299092152
20600515 1 18200334155877543717
21796203 349 17904233604048585331
22956985 138 17760084416852987635
23366157 5 17974576007565420229
23559900 14 18195242450779054091
24771293 8 18059585633973096985
249057 25 17894919508216054660
25019877 29 16702307896745867671
283562 15 18334860476734715291
3504750 166 18262786368621900226
392239 28 18336275590758679617
4015057 19 14346089649603358447
4144715 1 18124881153784875274
4197921 191 18259989276007822028
4280585 95 18410569626556451575
4409770 3 18261947428828586173
469060 322 18339094708513028641
5219985 9 18337954592902706515
57527585 21 17129006171437553501
6057620 51 18187651362218320030
7399639 24 17916876715977297527
9555976 147 18122330299676915914
9962374 69 18055075617744447687

>  <PUBCHEM_SHAPE_MULTIPOLES>  (1) 
580.98
17.51
4.7
1.48
37.12
6.78
0.17
-10.79
4.14
-7.19
0.33
2.26
0.21
-0.78

>  <PUBCHEM_SHAPE_SELFOVERLAP>  (1) 
1264.159

>  <PUBCHEM_SHAPE_VOLUME>  (1) 
321

>  <PUBCHEM_COORDINATE_TYPE>  (1) 
2
5
10

$$$$
