26612
     RDKit          3D

 13 12  0  0  1  0  0  0  0  0999 V2000
   -2.0560   -1.2383   -0.7301 O   0  0  0  0  0  0  0  0  0  0  0  0
   -5.5303    0.9431   -0.0552 O   0  0  0  0  0  0  0  0  0  0  0  0
   -4.6482   -1.0970    0.4334 O   0  0  0  0  0  0  0  0  0  0  0  0
    0.5621   -0.2678    0.1374 C   0  0  0  0  0  0  0  0  0  0  0  0
    1.8604    0.5060   -0.1065 C   0  0  0  0  0  0  0  0  0  0  0  0
   -0.6659    0.6176   -0.1032 C   0  0  0  0  0  0  0  0  0  0  0  0
    3.0850   -0.3862    0.1056 C   0  0  0  0  0  0  0  0  0  0  0  0
   -1.9794   -0.1281    0.1635 C   0  0  0  0  0  0  0  0  0  0  0  0
    4.4150    0.3442   -0.1040 C   0  0  0  0  0  0  0  0  0  0  0  0
    5.6760   -0.4766    0.1771 C   0  0  0  0  0  0  0  0  0  0  0  0
   -3.1832    0.7901   -0.0708 C   0  0  0  0  0  0  0  0  0  0  0  0
    6.9649    0.3138    0.0152 C   0  0  0  0  0  0  0  0  0  0  0  0
   -4.5002    0.0791    0.1377 C   0  0  0  0  0  0  0  0  0  0  0  0
  1  8  1  0
  2 13  1  0
  3 13  2  0
  4  5  1  0
  4  6  1  0
  5  7  1  0
  6  8  1  0
  7  9  1  0
  8 11  1  0
  9 10  1  0
 10 12  1  0
 11 13  1  0
M  END
>  <PUBCHEM_COMPOUND_CID>  (1) 
26612

>  <PUBCHEM_CONFORMER_RMSD>  (1) 
0.8

>  <PUBCHEM_CONFORMER_DIVERSEORDER>  (1) 
1
273
90
42
256
274
84
139
5
92
77
275
208
117
128
276
266
141
160
157
17
198
78
2
82
227
209
267
88
212
18
277
258
271
74
87
114
207
60
176
236
265
132
252
220
65
43
241
193
36
145
95
119
268
230
20
81
243
79
61
130
261
9
250
205
101
4
159
120
218
107
195
233
189
103
41
269
91
134
168
137
35
44
206
264
93
229
45
26
201
219
58
67
133
200
111
192
203
99
39
148
171
80
70
76
226
136
263
242
34
72
260
22
15
16
270
40
146
202
138
228
104
204
102
51
31
10
53
225
122
129
249
49
83
113
257
183
178
272
97
231
110
248
254
52
21
190
239
73
123
255
211
259
131
19
115
142
112
56
167
186
144
217
13
196
245
89
85
199
165
14
124
154
156
140
172
161
98
46
251
69
37
223
7
71
30
147
24
162
57
153
32
222
47
240
48
118
215
150
188
108
173
246
62
177
216
234
59
109
155
6
64
12
214
11
213
185
106
158
235
164
23
262
224
116
169
38
50
238
3
75
29
194
253
151
28
143
221
180
27
149
166
152
184
125
55
105
8
127
68
191
126
181
232
163
63
244
33
96
86
179
66
54
182
94
25
175
197
100
135
187
170
247
174
210
121
237

>  <PUBCHEM_MMFF94_PARTIAL_CHARGES>  (1) 
8
1 -0.68
11 0.06
13 0.66
2 -0.65
3 -0.57
32 0.4
33 0.5
8 0.28

>  <PUBCHEM_EFFECTIVE_ROTOR_COUNT>  (1) 
8

>  <PUBCHEM_PHARMACOPHORE_FEATURES>  (1) 
8
1 1 acceptor
1 1 donor
1 12 hydrophobe
1 2 acceptor
1 3 acceptor
3 2 3 13 anion
3 4 5 6 hydrophobe
3 7 9 10 hydrophobe

>  <PUBCHEM_HEAVY_ATOM_COUNT>  (1) 
13

>  <PUBCHEM_ATOM_DEF_STEREO_COUNT>  (1) 
0

>  <PUBCHEM_ATOM_UDEF_STEREO_COUNT>  (1) 
1

>  <PUBCHEM_BOND_DEF_STEREO_COUNT>  (1) 
0

>  <PUBCHEM_BOND_UDEF_STEREO_COUNT>  (1) 
0

>  <PUBCHEM_ISOTOPIC_ATOM_COUNT>  (1) 
0

>  <PUBCHEM_COMPONENT_COUNT>  (1) 
1

>  <PUBCHEM_CACTVS_TAUTO_COUNT>  (1) 
1

>  <PUBCHEM_CONFORMER_ID>  (1) 
000067F400000001

>  <PUBCHEM_MMFF94_ENERGY>  (1) 
4.9014

>  <PUBCHEM_FEATURE_SELFOVERLAP>  (1) 
40.666

>  <PUBCHEM_SHAPE_FINGERPRINT>  (1) 
10968037 39 18335422374167609964
12091667 2 17917991680954951781
12815109 37 18202845448492451600
13533116 47 15123236482014453942
14123238 8 18113054935079504648
1420 363 18342462543157614730
14251718 22 18333169475074295178
14251731 8 18201718461510529159
14251764 46 18410854364911501326
15242439 84 17275101743510956994
17834072 33 18335704979000326884
17834076 25 15482671277765942548
20279233 1 16630252471534307614
20645477 56 18131628984728014836
20645477 70 17916309351372502118
20767249 213 17847059991124192904
23402539 116 18131626790379658333
23521765 1 18341894087082493696
42788 4 18408323289698326880
4463277 17 18408041814700790060
8209 1 18409448081377026092

>  <PUBCHEM_SHAPE_MULTIPOLES>  (1) 
249.93
16.04
0.97
0.65
12.66
0.09
0.01
-0.72
-0.8
-0.71
0.04
-0.03
0.04
-0.03

>  <PUBCHEM_SHAPE_SELFOVERLAP>  (1) 
457.905

>  <PUBCHEM_SHAPE_VOLUME>  (1) 
158.5

>  <PUBCHEM_COORDINATE_TYPE>  (1) 
2
5
10

$$$$
