26614
     RDKit          3D

 22 23  0  0  1  0  0  0  0  0999 V2000
   -0.6447   -1.5256   -0.9280 S   0  0  0  0  0  0  0  0  0  0  0  0
    5.1795    0.9917   -0.4973 F   0  0  0  0  0  0  0  0  0  0  0  0
   -0.6720   -0.7998   -2.1657 O   0  0  0  0  0  0  0  0  0  0  0  0
    0.2139   -2.6521   -0.6975 O   0  0  0  0  0  0  0  0  0  0  0  0
   -0.4395   -2.2840    1.8209 O   0  0  0  0  0  0  0  0  0  0  0  0
   -0.1499   -0.2551    2.8326 N   0  0  0  0  0  0  0  0  0  0  0  0
   -0.2222   -0.3021    0.3607 C   0  0  0  0  0  0  0  0  0  0  0  0
    1.2815    0.0581    0.1217 C   0  0  0  0  0  0  0  0  0  0  0  0
   -1.2409    0.7701    0.1684 C   0  0  0  0  0  0  0  0  0  0  0  0
   -2.2955   -1.9553   -0.4740 C   0  0  0  0  0  0  0  0  0  0  0  0
   -0.3076   -1.0643    1.7249 C   0  0  0  0  0  0  0  0  0  0  0  0
    1.5660    1.3349   -0.2487 C   0  0  0  0  0  0  0  0  0  0  0  0
    2.1963   -0.9315    0.3015 C   0  0  0  0  0  0  0  0  0  0  0  0
   -1.3747    1.3906   -1.0735 C   0  0  0  0  0  0  0  0  0  0  0  0
   -2.0596    1.1527    1.2310 C   0  0  0  0  0  0  0  0  0  0  0  0
   -2.8805   -2.9826   -1.4172 C   0  0  0  0  0  0  0  0  0  0  0  0
    2.9066    1.6560   -0.4619 C   0  0  0  0  0  0  0  0  0  0  0  0
    3.5368   -0.6104    0.0883 C   0  0  0  0  0  0  0  0  0  0  0  0
   -2.3273    2.3936   -1.2532 C   0  0  0  0  0  0  0  0  0  0  0  0
   -3.0123    2.1556    1.0514 C   0  0  0  0  0  0  0  0  0  0  0  0
    3.8920    0.6833   -0.2935 C   0  0  0  0  0  0  0  0  0  0  0  0
   -3.1461    2.7760   -0.1907 C   0  0  0  0  0  0  0  0  0  0  0  0
  1  3  2  0
  1  4  2  0
  1  7  1  0
  1 10  1  0
  2 21  1  0
  5 11  2  0
  6 11  1  0
  7  8  1  0
  7  9  1  0
  7 11  1  0
  8 12  2  0
  8 13  1  0
  9 14  2  0
  9 15  1  0
 10 16  1  0
 12 17  1  0
 13 18  2  0
 14 19  1  0
 15 20  2  0
 17 21  2  0
 18 21  1  0
 19 22  2  0
 20 22  1  0
M  END
>  <PUBCHEM_COMPOUND_CID>  (1) 
26614

>  <PUBCHEM_CONFORMER_RMSD>  (1) 
0.8

>  <PUBCHEM_CONFORMER_DIVERSEORDER>  (1) 
1
5
6
2
8
7
4
3

>  <PUBCHEM_MMFF94_PARTIAL_CHARGES>  (1) 
32
1 1.09
10 0.11
11 0.57
12 -0.15
13 -0.15
14 -0.15
15 -0.15
17 -0.15
18 -0.15
19 -0.15
2 -0.19
20 -0.15
21 0.19
22 -0.15
25 0.15
26 0.15
27 0.15
28 0.15
3 -0.65
32 0.37
33 0.37
34 0.15
35 0.15
36 0.15
37 0.15
38 0.15
4 -0.65
5 -0.57
6 -0.8
7 0.45
8 -0.14
9 -0.14

>  <PUBCHEM_EFFECTIVE_ROTOR_COUNT>  (1) 
5

>  <PUBCHEM_PHARMACOPHORE_FEATURES>  (1) 
6
1 3 acceptor
1 4 acceptor
1 5 acceptor
1 6 donor
6 8 12 13 17 18 21 rings
6 9 14 15 19 20 22 rings

>  <PUBCHEM_HEAVY_ATOM_COUNT>  (1) 
22

>  <PUBCHEM_ATOM_DEF_STEREO_COUNT>  (1) 
0

>  <PUBCHEM_ATOM_UDEF_STEREO_COUNT>  (1) 
1

>  <PUBCHEM_BOND_DEF_STEREO_COUNT>  (1) 
0

>  <PUBCHEM_BOND_UDEF_STEREO_COUNT>  (1) 
0

>  <PUBCHEM_ISOTOPIC_ATOM_COUNT>  (1) 
0

>  <PUBCHEM_COMPONENT_COUNT>  (1) 
1

>  <PUBCHEM_CACTVS_TAUTO_COUNT>  (1) 
2

>  <PUBCHEM_CONFORMER_ID>  (1) 
000067F600000001

>  <PUBCHEM_MMFF94_ENERGY>  (1) 
92.2578

>  <PUBCHEM_FEATURE_SELFOVERLAP>  (1) 
30.473

>  <PUBCHEM_SHAPE_FINGERPRINT>  (1) 
10863032 1 18343016658052097910
10948715 1 18263648359587698241
11315181 36 17605269783033994700
12035759 4 18116970283248968871
12592029 89 18197785392580458115
12714826 92 17560516325817836086
12788726 201 18338225089267996562
14142880 1 18260260893159233108
14251751 93 18408882906203290536
14713325 29 18343304785748715902
14817 1 12986505360999886995
15534591 1 18334294258120952768
15906896 17 18336274512816963611
16752209 62 18201140139895841478
16945 1 18052540976024465908
17980427 23 15358283506199802725
20473742 2 17833269718583117551
20600515 1 16983231064258072335
21330990 113 17632030752896338751
21524375 3 18335707083212886289
21731228 192 18188219710122745264
21756936 100 17749683943387537148
22907989 373 18201998884320882493
23402539 116 18262521532073603195
23419403 2 16700879691170532283
23558518 356 18334292101984021110
23559900 14 17846496994812192274
238 59 17248607730507424525
25 1 18191308178435220084
298252 57 18270676459392579648
3060560 45 17764015875138207125
350125 39 18341053016179233828
3729539 64 17478362758585086214
394222 165 17901101919405562065
4340502 62 17630912421080386489
59755656 520 17344938263430147033
68419 9 17901346140067600579
70251023 43 18053666051593311686
7164475 11 18340757234629517798
81228 2 18118115007623254641
8272917 22 17622727518894909525

>  <PUBCHEM_SHAPE_MULTIPOLES>  (1) 
426.74
5.86
3.24
1.78
6.3
1.02
-0.84
-3.25
1.25
-3.3
0.89
-0.87
0.54
-0.91

>  <PUBCHEM_SHAPE_SELFOVERLAP>  (1) 
913.364

>  <PUBCHEM_SHAPE_VOLUME>  (1) 
238.4

>  <PUBCHEM_COORDINATE_TYPE>  (1) 
2
5
10

$$$$
