26613
     RDKit          3D

 11 10  0  0  1  0  0  0  0  0999 V2000
    0.9992   -1.7356    0.7452 O   0  0  0  0  0  0  0  0  0  0  0  0
    3.6779    1.4318   -0.4636 O   0  0  0  0  0  0  0  0  0  0  0  0
    2.5753    0.6053    1.3458 O   0  0  0  0  0  0  0  0  0  0  0  0
   -0.1629   -0.0014   -0.4350 C   0  0  0  0  0  0  0  0  0  0  0  0
   -1.5385   -0.6060   -0.1522 C   0  0  0  0  0  0  0  0  0  0  0  0
    0.9637   -1.0401   -0.5016 C   0  0  0  0  0  0  0  0  0  0  0  0
   -2.6227    0.4735   -0.1225 C   0  0  0  0  0  0  0  0  0  0  0  0
   -4.0034   -0.1321    0.1283 C   0  0  0  0  0  0  0  0  0  0  0  0
    2.3555   -0.4858   -0.8239 C   0  0  0  0  0  0  0  0  0  0  0  0
   -5.0881    0.9332    0.1247 C   0  0  0  0  0  0  0  0  0  0  0  0
    2.8440    0.5572    0.1548 C   0  0  0  0  0  0  0  0  0  0  0  0
  1  6  1  0
  2 11  1  0
  3 11  2  0
  4  5  1  0
  4  6  1  0
  5  7  1  0
  6  9  1  0
  7  8  1  0
  8 10  1  0
  9 11  1  0
M  END
>  <PUBCHEM_COMPOUND_CID>  (1) 
26613

>  <PUBCHEM_CONFORMER_RMSD>  (1) 
0.6

>  <PUBCHEM_CONFORMER_DIVERSEORDER>  (1) 
2
260
58
191
246
220
244
77
134
240
208
237
15
112
203
243
185
205
190
165
239
98
3
192
75
74
241
135
187
213
198
52
127
231
130
242
13
87
139
19
253
247
211
214
201
238
227
171
24
178
249
4
210
121
55
33
255
223
179
160
47
258
96
245
132
39
97
204
36
73
196
155
225
173
61
76
197
16
26
188
122
259
233
8
195
170
90
45
89
248
250
234
119
186
22
151
224
168
17
150
42
177
216
144
161
117
209
50
60
229
20
62
207
159
189
35
143
199
124
54
182
149
118
226
69
128
108
109
125
6
162
145
7
29
21
104
43
56
167
100
84
120
14
1
46
256
86
71
169
164
10
126
154
206
78
137
193
175
219
93
70
72
9
44
152
5
218
129
163
157
99
230
146
228
116
133
11
131
64
23
147
184
53
236
172
156
107
27
34
254
48
176
215
142
12
37
66
95
67
153
235
252
18
68
63
30
83
91
92
222
106
183
40
25
221
103
257
174
51
202
49
148
38
81
180
85
217
251
59
158
123
101
32
80
65
212
194
82
28
181
136
114
115
105
200
113
110
31
111
140
41
102
232
141
57
138
79
94
166
88

>  <PUBCHEM_MMFF94_PARTIAL_CHARGES>  (1) 
8
1 -0.68
11 0.66
2 -0.65
26 0.4
27 0.5
3 -0.57
6 0.28
9 0.06

>  <PUBCHEM_EFFECTIVE_ROTOR_COUNT>  (1) 
6

>  <PUBCHEM_PHARMACOPHORE_FEATURES>  (1) 
7
1 1 acceptor
1 1 donor
1 10 hydrophobe
1 2 acceptor
1 3 acceptor
3 2 3 11 anion
4 4 5 7 8 hydrophobe

>  <PUBCHEM_HEAVY_ATOM_COUNT>  (1) 
11

>  <PUBCHEM_ATOM_DEF_STEREO_COUNT>  (1) 
0

>  <PUBCHEM_ATOM_UDEF_STEREO_COUNT>  (1) 
1

>  <PUBCHEM_BOND_DEF_STEREO_COUNT>  (1) 
0

>  <PUBCHEM_BOND_UDEF_STEREO_COUNT>  (1) 
0

>  <PUBCHEM_ISOTOPIC_ATOM_COUNT>  (1) 
0

>  <PUBCHEM_COMPONENT_COUNT>  (1) 
1

>  <PUBCHEM_CACTVS_TAUTO_COUNT>  (1) 
1

>  <PUBCHEM_CONFORMER_ID>  (1) 
000067F500000002

>  <PUBCHEM_MMFF94_ENERGY>  (1) 
4.6772

>  <PUBCHEM_FEATURE_SELFOVERLAP>  (1) 
35.58

>  <PUBCHEM_SHAPE_FINGERPRINT>  (1) 
11062470 55 18410295796436599791
11987891 27 14129346217171045595
12932764 1 18339354172183104687
13690532 89 9439406817754407501
14252887 29 13045937993408481364
14350558 41 11674882173495631835
15775835 57 18341894121014866814
170605 34 18413109459012815862
177051 138 11746938681138903477
17834072 33 17561075922140095717
18186145 218 18340489959167823159
1986462 14 10447933858732688243
20606313 2 18060701697328587056
20645477 70 17774445971394200687
20871998 22 12540958678349420968
21119208 17 15698005145097444036
212847 35 18273215278933046160
21293036 1 13398629463236000494
21501925 9 12468635040688124759
23402655 69 17489871522807060573
3060560 45 16415483752995432124
42 15 12324241659523335269
449060 50 18335425668834729053
449060 62 18342178851666595021
522135 26 15626224589651287311
94968 8 9295291651074344676

>  <PUBCHEM_SHAPE_MULTIPOLES>  (1) 
208.77
8.53
1.28
0.89
8.62
0.11
0.13
-3.8
0.19
-0.73
0.09
-0.58
0.01
0.04

>  <PUBCHEM_SHAPE_SELFOVERLAP>  (1) 
382.944

>  <PUBCHEM_SHAPE_VOLUME>  (1) 
132.2

>  <PUBCHEM_COORDINATE_TYPE>  (1) 
2
5
10

$$$$
