26628
     RDKit          3D

 17 17  0  0  0  0  0  0  0  0999 V2000
   -0.3184   -0.3796    0.0440 O   0  0  0  0  0  0  0  0  0  0  0  0
   -1.3501   -2.4213    0.3017 O   0  0  0  0  0  0  0  0  0  0  0  0
   -6.2267    1.7042   -0.1848 N   0  0  0  0  0  0  0  0  0  0  0  0
    4.5070    0.5660   -0.0387 C   0  0  0  0  0  0  0  0  0  0  0  0
    3.4369   -0.5234    0.0587 C   0  0  0  0  0  0  0  0  0  0  0  0
    5.9372    0.0210    0.0153 C   0  0  0  0  0  0  0  0  0  0  0  0
    2.0322    0.0723   -0.0238 C   0  0  0  0  0  0  0  0  0  0  0  0
    7.0063    1.1009   -0.1561 C   0  0  0  0  0  0  0  0  0  0  0  0
    0.9589   -0.9982    0.1141 C   0  0  0  0  0  0  0  0  0  0  0  0
    8.4039    0.5003   -0.1670 C   0  0  0  0  0  0  0  0  0  0  0  0
   -1.3925   -1.2100    0.1522 C   0  0  0  0  0  0  0  0  0  0  0  0
   -2.6615   -0.4445    0.0624 C   0  0  0  0  0  0  0  0  0  0  0  0
   -3.7771   -1.0618   -0.4655 C   0  0  0  0  0  0  0  0  0  0  0  0
   -2.6867    0.8604    0.5108 C   0  0  0  0  0  0  0  0  0  0  0  0
   -5.0207    0.9775   -0.1021 C   0  0  0  0  0  0  0  0  0  0  0  0
   -4.9695   -0.3429   -0.5487 C   0  0  0  0  0  0  0  0  0  0  0  0
   -3.8792    1.5791    0.4277 C   0  0  0  0  0  0  0  0  0  0  0  0
  1  9  1  0
  1 11  1  0
  2 11  2  0
  3 15  1  0
  4  5  1  0
  4  6  1  0
  5  7  1  0
  6  8  1  0
  7  9  1  0
  8 10  1  0
 11 12  1  0
 12 13  2  0
 12 14  1  0
 13 16  1  0
 14 17  2  0
 15 16  2  0
 15 17  1  0
M  END
>  <PUBCHEM_COMPOUND_CID>  (1) 
26628

>  <PUBCHEM_CONFORMER_RMSD>  (1) 
0.8

>  <PUBCHEM_CONFORMER_DIVERSEORDER>  (1) 
1
122
185
187
143
163
144
22
78
8
164
151
23
190
166
17
244
212
95
83
97
129
169
121
20
172
12
7
72
228
142
118
119
34
76
13
141
92
225
60
230
26
94
108
188
237
39
150
40
82
146
236
3
222
186
210
19
11
218
174
123
2
167
106
182
184
238
201
154
197
10
107
61
5
147
6
32
239
25
67
49
242
233
15
179
175
86
243
110
4
18
199
196
14
45
153
48
136
99
102
215
74
134
111
55
104
27
89
96
101
213
84
194
221
176
46
149
204
24
38
105
211
98
161
62
116
193
227
148
173
81
206
65
42
54
191
135
112
79
80
132
177
214
192
124
103
140
47
30
180
127
37
52
224
219
226
43
152
31
59
216
207
117
189
131
70
66
178
220
158
44
139
137
160
56
109
50
155
57
16
209
115
21
130
217
90
51
75
85
234
53
69
9
157
232
203
241
100
113
77
88
125
138
229
208
156
91
231
195
120
240
114
64
181
162
71
145
200
58
28
133
87
202
41
183
159
205
235
29
126
93
33
171
128
170
63
36
198
223
73
68
168
35
165

>  <PUBCHEM_MMFF94_PARTIAL_CHARGES>  (1) 
17
1 -0.43
11 0.63
12 0.09
13 -0.15
14 -0.15
15 0.1
16 -0.15
17 -0.15
2 -0.57
3 -0.9
33 0.15
34 0.15
35 0.15
36 0.15
37 0.4
38 0.4
9 0.28

>  <PUBCHEM_EFFECTIVE_ROTOR_COUNT>  (1) 
8

>  <PUBCHEM_PHARMACOPHORE_FEATURES>  (1) 
6
1 10 hydrophobe
1 2 acceptor
1 3 cation
1 3 donor
5 4 5 6 7 8 hydrophobe
6 12 13 14 15 16 17 rings

>  <PUBCHEM_HEAVY_ATOM_COUNT>  (1) 
17

>  <PUBCHEM_ATOM_DEF_STEREO_COUNT>  (1) 
0

>  <PUBCHEM_ATOM_UDEF_STEREO_COUNT>  (1) 
0

>  <PUBCHEM_BOND_DEF_STEREO_COUNT>  (1) 
0

>  <PUBCHEM_BOND_UDEF_STEREO_COUNT>  (1) 
0

>  <PUBCHEM_ISOTOPIC_ATOM_COUNT>  (1) 
0

>  <PUBCHEM_COMPONENT_COUNT>  (1) 
1

>  <PUBCHEM_CACTVS_TAUTO_COUNT>  (1) 
2

>  <PUBCHEM_CONFORMER_ID>  (1) 
0000680400000001

>  <PUBCHEM_MMFF94_ENERGY>  (1) 
37.3217

>  <PUBCHEM_FEATURE_SELFOVERLAP>  (1) 
30.446

>  <PUBCHEM_SHAPE_FINGERPRINT>  (1) 
10411042 1 17906733953983913487
106641 1 17530690918253829897
10730089 173 18343021086010600584
10968037 39 18202002135579177585
11089746 13 18411134766848144444
11315181 36 18040718116385233446
117890 112 18409730669093001886
12091667 2 18413389864590226890
12236239 1 18187361026138470034
13288520 33 9655576309891490027
13533116 47 17385994041614381288
13668630 136 14117519852891481180
1420 363 10953456328440992576
14251764 18 18260263058318401386
14251764 46 18186801388074020295
14556957 393 15195297468549032144
14729087 3 18412541025103627736
15048467 5 18335138691968073244
15183329 4 18271810099542393000
15348495 7 14273749494468330556
15716309 27 10665228159781184120
15778101 99 18409168822218487299
167882 2 18059018255054384086
17780758 139 11891328742884940631
17834072 8 17917712414050510264
18335252 98 18341900710202230123
18643901 69 16128366134735855925
19489759 90 18202002144432706946
20281389 69 18113897152792416748
20526848 3 18335706022340120332
20621476 66 18409171004299308876
20621476 8 18261111847309644670
20645477 56 18410573993778497475
20645477 70 16988574451010511486
21150785 3 14476959000462991744
22224240 67 14996285833545541928
22288116 15 17916852617527209943
23035841 295 9727635012152312684
23198884 109 18341896294558533850
23402539 116 18343295977097637991
23559900 14 18059849597360384904
300161 21 18410291411359659378
3545911 37 18342739623923897698
4073 2 18041565849485046042
441001 317 18342739623944905905
59755656 520 18187358848569361018
6328613 192 18261960751743668460
7062679 6 18334862714533917804

>  <PUBCHEM_SHAPE_MULTIPOLES>  (1) 
333.13
20.25
1.63
0.67
36.35
0.23
0.01
-9.6
2.32
-2.01
-0.12
-0.18
-0.01
-0.31

>  <PUBCHEM_SHAPE_SELFOVERLAP>  (1) 
663.769

>  <PUBCHEM_SHAPE_VOLUME>  (1) 
197.8

>  <PUBCHEM_COORDINATE_TYPE>  (1) 
2
5
10

$$$$
