26620
     RDKit          3D

 12 12  0  0  1  0  0  0  0  0999 V2000
   -3.7695    0.1079    0.7058 Cl  0  0  0  0  0  0  0  0  0  0  0  0
   -2.2963    1.6401   -0.8856 O   0  0  0  0  0  0  0  0  0  0  0  0
   -0.4934   -1.0032    0.0316 C   0  0  0  0  0  0  0  0  0  0  0  0
    0.1384    0.3134   -0.2669 C   0  0  0  0  0  0  0  0  0  0  0  0
   -1.0951    0.2620    0.5693 C   0  0  0  0  0  0  0  0  0  0  0  0
   -1.1641   -1.6998   -1.1044 C   0  0  0  0  0  0  0  0  0  0  0  0
    0.1330   -1.9352    1.0149 C   0  0  0  0  0  0  0  0  0  0  0  0
    1.4047    0.6839    0.3932 C   0  0  0  0  0  0  0  0  0  0  0  0
   -2.3459    0.7948   -0.0008 C   0  0  0  0  0  0  0  0  0  0  0  0
    2.6577    0.3899   -0.0038 C   0  0  0  0  0  0  0  0  0  0  0  0
    3.8517    0.8458    0.7879 C   0  0  0  0  0  0  0  0  0  0  0  0
    2.9785   -0.3996   -1.2412 C   0  0  0  0  0  0  0  0  0  0  0  0
  1  9  1  0
  2  9  2  0
  3  4  1  0
  3  5  1  0
  3  6  1  0
  3  7  1  0
  4  5  1  0
  4  8  1  0
  5  9  1  0
  8 10  2  3
 10 11  1  0
 10 12  1  0
M  END
>  <PUBCHEM_COMPOUND_CID>  (1) 
26620

>  <PUBCHEM_CONFORMER_RMSD>  (1) 
0.6

>  <PUBCHEM_CONFORMER_DIVERSEORDER>  (1) 
1
6
25
16
21
17
15
14
3
13
8
11
22
7
5
4
2
19
23
20
12
24
18
9
10

>  <PUBCHEM_MMFF94_PARTIAL_CHARGES>  (1) 
15
1 -0.21
10 -0.28
11 0.14
12 0.14
13 0.1
14 0.1
2 -0.57
21 0.15
3 -0.19
4 -0.06
5 -0.1
6 0.09
7 0.09
8 -0.19
9 0.78

>  <PUBCHEM_EFFECTIVE_ROTOR_COUNT>  (1) 
2.6

>  <PUBCHEM_PHARMACOPHORE_FEATURES>  (1) 
2
3 10 11 12 hydrophobe
3 3 6 7 hydrophobe

>  <PUBCHEM_HEAVY_ATOM_COUNT>  (1) 
12

>  <PUBCHEM_ATOM_DEF_STEREO_COUNT>  (1) 
0

>  <PUBCHEM_ATOM_UDEF_STEREO_COUNT>  (1) 
2

>  <PUBCHEM_BOND_DEF_STEREO_COUNT>  (1) 
0

>  <PUBCHEM_BOND_UDEF_STEREO_COUNT>  (1) 
0

>  <PUBCHEM_ISOTOPIC_ATOM_COUNT>  (1) 
0

>  <PUBCHEM_COMPONENT_COUNT>  (1) 
1

>  <PUBCHEM_CACTVS_TAUTO_COUNT>  (1) 
1

>  <PUBCHEM_CONFORMER_ID>  (1) 
000067FC00000001

>  <PUBCHEM_MMFF94_ENERGY>  (1) 
20.8016

>  <PUBCHEM_FEATURE_SELFOVERLAP>  (1) 
10.149

>  <PUBCHEM_SHAPE_FINGERPRINT>  (1) 
10922049 32 18341623594110481019
11062470 55 14908183049111928208
11132069 177 18410863191544087475
12138202 97 18131059467991085822
12423570 1 8118571105488555435
12716758 59 18130786767521959590
12932764 1 18410853265700605904
13024252 1 17822565122530523003
13538477 17 17314240027821576826
13581323 91 18261110798551751120
14325111 11 18410856533912404761
14713566 1 17988921175820234138
14993402 34 17603878822391379271
15219456 202 18042405716884735537
15775835 57 18411134731791995961
16945 1 18187368739862589331
18186145 218 18059862714090338032
19873495 37 18409171017047236103
20645464 45 18341891922302951608
20645476 183 17749688349707439054
20645477 56 18271524290501010552
20653085 51 18273223005505222193
20711983 171 16950569830826183381
21028194 46 18335144158949731680
21501502 16 18054503887800998912
23402539 116 17703782613591942957
2748010 2 18118967992560000365
276578 36 18334581200401127354
305870 269 18042111081795992170
366044 4 18273217499531306387
369184 2 16917077688968784066
5084963 1 18337405875974843617
528862 383 17822562790358260418
528886 8 17132114628220868507
6333449 129 18059567048488674118
69090 78 18059853986711420607
81228 2 18050845816889295595

>  <PUBCHEM_SHAPE_MULTIPOLES>  (1) 
242.95
5.73
1.62
1.12
1.59
0.63
0.09
-2.11
-0.44
-0.49
0.07
0.14
0.24
0.4

>  <PUBCHEM_SHAPE_SELFOVERLAP>  (1) 
473.614

>  <PUBCHEM_SHAPE_VOLUME>  (1) 
149.2

>  <PUBCHEM_COORDINATE_TYPE>  (1) 
2
5
10

$$$$
