26629
     RDKit          3D

 18 18  0  0  0  0  0  0  0  0999 V2000
   -0.8617   -0.4355    0.0607 O   0  0  0  0  0  0  0  0  0  0  0  0
   -1.9672   -2.4466    0.2437 O   0  0  0  0  0  0  0  0  0  0  0  0
   -6.6906    1.8595   -0.1849 N   0  0  0  0  0  0  0  0  0  0  0  0
    3.9954    0.3385    0.0389 C   0  0  0  0  0  0  0  0  0  0  0  0
    5.4047   -0.2603    0.0646 C   0  0  0  0  0  0  0  0  0  0  0  0
    2.8858   -0.7143    0.0897 C   0  0  0  0  0  0  0  0  0  0  0  0
    6.5134    0.7869   -0.0605 C   0  0  0  0  0  0  0  0  0  0  0  0
    1.5039   -0.0645    0.0379 C   0  0  0  0  0  0  0  0  0  0  0  0
    7.8936    0.1289   -0.1021 C   0  0  0  0  0  0  0  0  0  0  0  0
    0.3922   -1.1002    0.1294 C   0  0  0  0  0  0  0  0  0  0  0  0
    8.9980    1.1611   -0.2646 C   0  0  0  0  0  0  0  0  0  0  0  0
   -1.9655   -1.2307    0.1297 C   0  0  0  0  0  0  0  0  0  0  0  0
   -3.2059   -0.4189    0.0458 C   0  0  0  0  0  0  0  0  0  0  0  0
   -4.3343   -0.9811   -0.5151 C   0  0  0  0  0  0  0  0  0  0  0  0
   -3.1923    0.8724    0.5325 C   0  0  0  0  0  0  0  0  0  0  0  0
   -5.4999   -0.2187   -0.5929 C   0  0  0  0  0  0  0  0  0  0  0  0
   -4.3579    1.6345    0.4549 C   0  0  0  0  0  0  0  0  0  0  0  0
   -5.5117    1.0891   -0.1079 C   0  0  0  0  0  0  0  0  0  0  0  0
  1 10  1  0
  1 12  1  0
  2 12  2  0
  3 18  1  0
  4  5  1  0
  4  6  1  0
  5  7  1  0
  6  8  1  0
  7  9  1  0
  8 10  1  0
  9 11  1  0
 12 13  1  0
 13 14  2  0
 13 15  1  0
 14 16  1  0
 15 17  2  0
 16 18  2  0
 17 18  1  0
M  END
>  <PUBCHEM_COMPOUND_CID>  (1) 
26629

>  <PUBCHEM_CONFORMER_RMSD>  (1) 
1

>  <PUBCHEM_CONFORMER_DIVERSEORDER>  (1) 
1
323
193
353
14
288
556
511
222
19
33
99
30
365
67
209
557
9
3
544
529
142
10
89
330
382
24
63
542
45
389
270
13
37
460
188
472
73
16
48
26
12
88
403
8
21
143
277
11
243
79
41
284
140
334
49
512
133
456
397
421
296
244
72
358
149
368
202
283
123
104
458
307
317
68
475
422
162
147
54
84
121
468
164
534
58
419
51

>  <PUBCHEM_MMFF94_PARTIAL_CHARGES>  (1) 
17
1 -0.43
10 0.28
12 0.63
13 0.09
14 -0.15
15 -0.15
16 -0.15
17 -0.15
18 0.1
2 -0.57
3 -0.9
36 0.15
37 0.15
38 0.15
39 0.15
40 0.4
41 0.4

>  <PUBCHEM_EFFECTIVE_ROTOR_COUNT>  (1) 
9

>  <PUBCHEM_PHARMACOPHORE_FEATURES>  (1) 
7
1 11 hydrophobe
1 2 acceptor
1 3 cation
1 3 donor
3 4 6 8 hydrophobe
3 5 7 9 hydrophobe
6 13 14 15 16 17 18 rings

>  <PUBCHEM_HEAVY_ATOM_COUNT>  (1) 
18

>  <PUBCHEM_ATOM_DEF_STEREO_COUNT>  (1) 
0

>  <PUBCHEM_ATOM_UDEF_STEREO_COUNT>  (1) 
0

>  <PUBCHEM_BOND_DEF_STEREO_COUNT>  (1) 
0

>  <PUBCHEM_BOND_UDEF_STEREO_COUNT>  (1) 
0

>  <PUBCHEM_ISOTOPIC_ATOM_COUNT>  (1) 
0

>  <PUBCHEM_COMPONENT_COUNT>  (1) 
1

>  <PUBCHEM_CACTVS_TAUTO_COUNT>  (1) 
2

>  <PUBCHEM_CONFORMER_ID>  (1) 
0000680500000001

>  <PUBCHEM_MMFF94_ENERGY>  (1) 
37.1302

>  <PUBCHEM_FEATURE_SELFOVERLAP>  (1) 
35.533

>  <PUBCHEM_SHAPE_FINGERPRINT>  (1) 
10066227 49 16845021109318826526
10411042 1 17978791548095720439
106641 1 17603592928721567553
10730089 173 18343021086010574641
10968037 39 18202565085606309049
11315181 36 18187083996199605499
11719270 70 17703508814771921358
12091667 2 18341332270462686658
12166972 35 10447927283349534162
125118 31 18336828702171744224
13288520 33 9655574111105643787
13533116 47 17458333110560545578
13668630 136 13398628355546037876
13964095 4 18343303674058788246
1420 363 11386365937748938778
14251764 18 18260826008282359194
14251764 46 18040434400079094543
14556957 393 15195014893923472216
14729087 3 18410853266006716896
15048467 5 18335138687620247992
15183329 4 18273215279560547104
15461852 350 17989205992671807134
155225 1 18336544929097399477
15690457 1 10375869663372568628
15716309 27 7997969068573283016
15778101 99 18408042931160172090
17093844 174 18261674865465773130
17780758 139 12035443931140177023
18643901 69 16128365031003048909
19489759 90 18202565085490329531
195137 175 18335147518622109220
20281389 69 18113897144096889668
20621476 66 18259989284238988926
20621476 8 18261111847225313590
21150785 3 15554446302037864716
220451 1 16950277434760469434
22224240 67 15213020461879862104
22288116 15 17917416666939621903
23402539 116 18343576344268211327
23559900 14 18059848489132072601
246663 6 8502655918187685304
28498 318 18201442455383077294
300161 21 18410292506449836250
33532 11 10303826371934666500
4073 2 18114186376196513706
5283156 175 11095883774288668082
5758199 1 17748826328723375242
59567204 34 18411981338782610529
59682541 35 11314317161479524692
6328613 192 18334581291360831556
636775 72 18412261740244441696

>  <PUBCHEM_SHAPE_MULTIPOLES>  (1) 
353.71
23.95
1.66
0.68
45.2
0.13
0.01
-12.16
2.93
-2.28
-0.1
-0.21
-0.02
-0.39

>  <PUBCHEM_SHAPE_SELFOVERLAP>  (1) 
701.626

>  <PUBCHEM_SHAPE_VOLUME>  (1) 
210.7

>  <PUBCHEM_COORDINATE_TYPE>  (1) 
2
5
10

$$$$
