26636
     RDKit          3D

 11 10  0  0  1  0  0  0  0  0999 V2000
   -0.9018    1.6749    0.0678 N   0  0  0  0  0  0  0  0  0  0  0  0
    1.6741   -2.4159    0.7887 N   0  0  0  0  0  0  0  0  0  0  0  0
   -0.5307    0.2746    0.2989 C   0  0  0  0  0  0  0  0  0  0  0  0
    1.0167    0.1038    0.3409 C   0  0  0  0  0  0  0  0  0  0  0  0
   -1.1686   -0.5884   -0.8180 C   0  0  0  0  0  0  0  0  0  0  0  0
    1.7580    0.6051   -0.9211 C   0  0  0  0  0  0  0  0  0  0  0  0
   -2.6957   -0.4866   -0.9412 C   0  0  0  0  0  0  0  0  0  0  0  0
    3.2800    0.5947   -0.8245 C   0  0  0  0  0  0  0  0  0  0  0  0
   -3.4383   -0.9755    0.2927 C   0  0  0  0  0  0  0  0  0  0  0  0
    1.3860   -1.3094    0.5898 C   0  0  0  0  0  0  0  0  0  0  0  0
   -0.3797    2.5226    1.1260 C   0  0  0  0  0  0  0  0  0  0  0  0
  1  3  1  0
  1 11  1  0
  2 10  3  0
  3  4  1  0
  3  5  1  0
  4  6  1  0
  4 10  1  0
  5  7  1  0
  6  8  1  0
  7  9  1  0
M  END
>  <PUBCHEM_COMPOUND_CID>  (1) 
26636

>  <PUBCHEM_CONFORMER_RMSD>  (1) 
0.6

>  <PUBCHEM_CONFORMER_DIVERSEORDER>  (1) 
2
1
50
46
36
25
48
22
7
40
45
33
27
47
17
30
20
41
4
19
32
51
53
21
43
39
18
28
34
26
23
35
49
52
38
12
13
31
24
11
44
14
3
6
15
42
9
16
54
29
37
8
10
5

>  <PUBCHEM_MMFF94_PARTIAL_CHARGES>  (1) 
7
1 -0.9
10 0.36
11 0.27
2 -0.56
20 0.36
3 0.27
4 0.2

>  <PUBCHEM_EFFECTIVE_ROTOR_COUNT>  (1) 
5

>  <PUBCHEM_PHARMACOPHORE_FEATURES>  (1) 
5
1 1 cation
1 1 donor
1 2 acceptor
1 8 hydrophobe
1 9 hydrophobe

>  <PUBCHEM_HEAVY_ATOM_COUNT>  (1) 
11

>  <PUBCHEM_ATOM_DEF_STEREO_COUNT>  (1) 
0

>  <PUBCHEM_ATOM_UDEF_STEREO_COUNT>  (1) 
2

>  <PUBCHEM_BOND_DEF_STEREO_COUNT>  (1) 
0

>  <PUBCHEM_BOND_UDEF_STEREO_COUNT>  (1) 
0

>  <PUBCHEM_ISOTOPIC_ATOM_COUNT>  (1) 
0

>  <PUBCHEM_COMPONENT_COUNT>  (1) 
1

>  <PUBCHEM_CACTVS_TAUTO_COUNT>  (1) 
1

>  <PUBCHEM_CONFORMER_ID>  (1) 
0000680C00000002

>  <PUBCHEM_MMFF94_ENERGY>  (1) 
8.4993

>  <PUBCHEM_FEATURE_SELFOVERLAP>  (1) 
25.371

>  <PUBCHEM_SHAPE_FINGERPRINT>  (1) 
12423570 1 13095938280201725713
12897270 3 18113334249397554431
12932764 1 18270105933581046071
16945 1 18188201104318832477
187816 3 18266189498895820972
20711985 344 17774164491874439713
20820808 20 18043814401221942637
228727 97 18339936977627962332
23380061 451 18334863848463286475
23402539 116 18342458188155839500
23552333 60 18187638085640692026
23552423 10 18189047590812420659
23595355 12 17616809272497736937
23598294 1 18059018267679932689
353137 74 18410298016523410668
4369600 1 18269549610329444086
68250623 7 18193569860593821323

>  <PUBCHEM_SHAPE_MULTIPOLES>  (1) 
216.41
4.45
2.21
1.12
1.39
0.57
0.06
-1.27
1.19
-0.41
-1.14
-0.15
0.05
-0.65

>  <PUBCHEM_SHAPE_SELFOVERLAP>  (1) 
394.374

>  <PUBCHEM_SHAPE_VOLUME>  (1) 
137.1

>  <PUBCHEM_COORDINATE_TYPE>  (1) 
2
5
10

$$$$
