26632
     RDKit          3D

 16 16  0  0  1  0  0  0  0  0999 V2000
   -0.2176   -1.2856    1.9849 O   0  0  0  0  0  0  0  0  0  0  0  0
   -0.8004    1.1314   -1.9987 O   0  0  0  0  0  0  0  0  0  0  0  0
    2.6381    2.1293    0.8712 O   0  0  0  0  0  0  0  0  0  0  0  0
    1.2663    0.3555    1.3783 N   0  0  0  0  0  0  0  0  0  0  0  0
    0.9747    1.5632   -0.6113 N   0  0  0  0  0  0  0  0  0  0  0  0
   -2.5273    1.3446    0.0069 N   0  0  0  0  0  0  0  0  0  0  0  0
   -0.2640   -0.5346   -0.3203 C   0  0  0  0  0  0  0  0  0  0  0  0
   -1.7405   -0.9549   -0.3592 C   0  0  0  0  0  0  0  0  0  0  0  0
    0.5812   -1.5757   -1.0759 C   0  0  0  0  0  0  0  0  0  0  0  0
   -2.6306   -0.0218    0.4630 C   0  0  0  0  0  0  0  0  0  0  0  0
    0.2256   -0.5253    1.1244 C   0  0  0  0  0  0  0  0  0  0  0  0
   -0.0928    0.7941   -1.0499 C   0  0  0  0  0  0  0  0  0  0  0  0
   -4.0841   -0.4788    0.3965 C   0  0  0  0  0  0  0  0  0  0  0  0
    2.0353   -1.2575   -0.9664 C   0  0  0  0  0  0  0  0  0  0  0  0
    1.7030    1.3900    0.5596 C   0  0  0  0  0  0  0  0  0  0  0  0
    2.9330   -2.0739   -0.4032 C   0  0  0  0  0  0  0  0  0  0  0  0
  1 11  2  0
  2 12  2  0
  3 15  2  0
  4 11  1  0
  4 15  1  0
  5 12  1  0
  5 15  1  0
  6 10  1  0
  7  8  1  0
  7  9  1  0
  7 11  1  0
  7 12  1  0
  8 10  1  0
  9 14  1  0
 10 13  1  0
 14 16  2  0
M  END
>  <PUBCHEM_COMPOUND_CID>  (1) 
26632

>  <PUBCHEM_CONFORMER_RMSD>  (1) 
0.6

>  <PUBCHEM_CONFORMER_DIVERSEORDER>  (1) 
1
11
7
8
12
9
4
5
10
2
3
6

>  <PUBCHEM_MMFF94_PARTIAL_CHARGES>  (1) 
21
1 -0.57
10 0.27
11 0.57
12 0.57
14 -0.29
15 0.69
16 -0.3
2 -0.57
25 0.37
26 0.37
27 0.15
28 0.36
29 0.36
3 -0.57
30 0.15
31 0.15
4 -0.49
5 -0.49
6 -0.99
7 0.12
9 0.14

>  <PUBCHEM_EFFECTIVE_ROTOR_COUNT>  (1) 
4.6

>  <PUBCHEM_PHARMACOPHORE_FEATURES>  (1) 
9
1 1 acceptor
1 16 hydrophobe
1 2 acceptor
1 3 acceptor
1 4 donor
1 5 donor
1 6 cation
1 6 donor
6 4 5 7 11 12 15 rings

>  <PUBCHEM_HEAVY_ATOM_COUNT>  (1) 
16

>  <PUBCHEM_ATOM_DEF_STEREO_COUNT>  (1) 
0

>  <PUBCHEM_ATOM_UDEF_STEREO_COUNT>  (1) 
1

>  <PUBCHEM_BOND_DEF_STEREO_COUNT>  (1) 
0

>  <PUBCHEM_BOND_UDEF_STEREO_COUNT>  (1) 
0

>  <PUBCHEM_ISOTOPIC_ATOM_COUNT>  (1) 
0

>  <PUBCHEM_COMPONENT_COUNT>  (1) 
1

>  <PUBCHEM_CACTVS_TAUTO_COUNT>  (1) 
5

>  <PUBCHEM_CONFORMER_ID>  (1) 
0000680800000001

>  <PUBCHEM_MMFF94_ENERGY>  (1) 
44.996

>  <PUBCHEM_FEATURE_SELFOVERLAP>  (1) 
45.712

>  <PUBCHEM_SHAPE_FINGERPRINT>  (1) 
10863032 1 17916871347215032871
12173636 292 17266646705062483344
12592029 89 18271809081450624946
12716301 132 17534329051247240029
13024252 1 15724123026282514552
13132413 78 17413890729288786113
14181834 199 18130519582001669902
14817 1 12432760192856746318
15219456 202 18412539894772744485
15775835 57 17417534742983526065
161256 15 18260544493996711317
16945 1 18265895950343891997
19765921 60 16557052592252457656
20473742 2 18343864398591558782
21501502 16 17845928640988605335
22344851 12 14507687407494324446
22344851 262 18197497548156626575
23419403 2 18264192639661123652
2748010 2 18115288008630350285
305870 269 18129659836812448928
3286 77 18411986823328558559
7364860 26 18201442492708207275

>  <PUBCHEM_SHAPE_MULTIPOLES>  (1) 
296.72
4.4
2.05
1.51
3.17
0.34
-0.09
-0.7
-0.51
-1.8
0.09
-0.07
0.06
0.67

>  <PUBCHEM_SHAPE_SELFOVERLAP>  (1) 
612.094

>  <PUBCHEM_SHAPE_VOLUME>  (1) 
166.8

>  <PUBCHEM_COORDINATE_TYPE>  (1) 
2
5
10

$$$$
