2663
     RDKit          3D

 27 27  0  0  1  0  0  0  0  0999 V2000
    2.2472    1.7855   -0.0563 O   0  0  0  0  0  0  0  0  0  0  0  0
    4.9917    2.2178   -0.1686 O   0  0  0  0  0  0  0  0  0  0  0  0
   -3.9408    0.2241   -1.5792 O   0  0  0  0  0  0  0  0  0  0  0  0
    1.8337    1.1403   -2.6272 O   0  0  0  0  0  0  0  0  0  0  0  0
    3.9244   -1.0673    1.1562 N   0  0  0  0  0  0  0  0  0  0  0  0
   -5.1226   -0.5602    0.2502 N   0  0  0  0  0  0  0  0  0  0  0  0
   -3.1711    0.7624    0.5543 N   0  0  0  0  0  0  0  0  0  0  0  0
    4.0026   -2.4168    0.5872 C   0  0  0  0  0  0  0  0  0  0  0  0
    4.5009   -0.0942    0.2439 C   0  0  0  0  0  0  0  0  0  0  0  0
    4.4408    1.3279    0.8065 C   0  0  0  0  0  0  0  0  0  0  0  0
    3.3744   -3.4021    1.5785 C   0  0  0  0  0  0  0  0  0  0  0  0
    3.2277   -2.4347   -0.7347 C   0  0  0  0  0  0  0  0  0  0  0  0
    5.4716   -2.7811    0.3418 C   0  0  0  0  0  0  0  0  0  0  0  0
    3.0229    1.7876    1.1383 C   0  0  0  0  0  0  0  0  0  0  0  0
    0.9093    1.5276    0.0794 C   0  0  0  0  0  0  0  0  0  0  0  0
    0.1999    0.9040   -0.9425 C   0  0  0  0  0  0  0  0  0  0  0  0
   -1.8088    1.0182    0.3952 C   0  0  0  0  0  0  0  0  0  0  0  0
    0.2690    1.8983    1.2582 C   0  0  0  0  0  0  0  0  0  0  0  0
   -1.1624    0.6487   -0.7844 C   0  0  0  0  0  0  0  0  0  0  0  0
   -1.0932    1.6430    1.4165 C   0  0  0  0  0  0  0  0  0  0  0  0
   -5.2673   -0.6561    1.7013 C   0  0  0  0  0  0  0  0  0  0  0  0
   -6.1457   -1.2396   -0.5345 C   0  0  0  0  0  0  0  0  0  0  0  0
   -4.0574    0.1468   -0.3542 C   0  0  0  0  0  0  0  0  0  0  0  0
    0.8564    0.5089   -2.1809 C   0  0  0  0  0  0  0  0  0  0  0  0
   -6.1018    0.4818    2.2521 C   0  0  0  0  0  0  0  0  0  0  0  0
   -5.7557   -2.6725   -0.8331 C   0  0  0  0  0  0  0  0  0  0  0  0
    0.3540   -0.6981   -2.9638 C   0  0  0  0  0  0  0  0  0  0  0  0
  1 14  1  0
  1 15  1  0
  2 10  1  0
  3 23  2  0
  4 24  2  0
  5  8  1  0
  5  9  1  0
  6 21  1  0
  6 22  1  0
  6 23  1  0
  7 17  1  0
  7 23  1  0
  8 11  1  0
  8 12  1  0
  8 13  1  0
  9 10  1  0
 10 14  1  0
 15 16  2  0
 15 18  1  0
 16 19  1  0
 16 24  1  0
 17 19  2  0
 17 20  1  0
 18 20  2  0
 21 25  1  0
 22 26  1  0
 24 27  1  0
M  END
>  <PUBCHEM_COMPOUND_CID>  (1) 
2663

>  <PUBCHEM_CONFORMER_RMSD>  (1) 
1

>  <PUBCHEM_CONFORMER_DIVERSEORDER>  (1) 
1
158
47
42
194
89
181
157
9
113
126
110
119
124
152
185
5
192
36
193
60
72
138
55
97
40
143
128
52
69
178
34
67
196
105
180
153
101
29
100
172
39
118
90
195
122
146
45
25
188
141
171
134
166
117
84
187
175
179
102
112
140
37
186
116
197
104
68
163
30
38
70
103
99
61
177
176
151
125
162
159
65
170
189
154
169
81
41
121
174
147
63
115
165
43
7
184
145
79
46
80
22
139
136
62
18
120
148
108
75
33
26
168
135
130
83
98
58
87
24
57
71
44
155
56
96
82
149
11
160
164
27
8
183
92
167
50
94
114
132
161
123
173
129
182
150
16
91
49
51
17
85
6
109
28
19
127
111
77
74
53
144
73
35
78
21
142
59
191
190
14
88
32
20
23
66
133
93
3
31
107
86
64
137
131
15
76
48
54
13
10
198
95
156
4
12
2
106

>  <PUBCHEM_MMFF94_PARTIAL_CHARGES>  (1) 
28
1 -0.36
10 0.28
14 0.28
15 0.08
16 0.09
17 0.12
18 -0.15
19 -0.15
2 -0.68
20 -0.15
21 0.3
22 0.3
23 0.69
24 0.42
27 0.06
28 0.36
3 -0.57
4 -0.57
43 0.4
44 0.15
45 0.15
46 0.15
5 -0.9
51 0.37
6 -0.66
7 -0.55
8 0.27
9 0.27

>  <PUBCHEM_EFFECTIVE_ROTOR_COUNT>  (1) 
12

>  <PUBCHEM_PHARMACOPHORE_FEATURES>  (1) 
10
1 1 acceptor
1 2 acceptor
1 2 donor
1 3 acceptor
1 4 acceptor
1 5 cation
1 5 donor
1 7 donor
4 8 11 12 13 hydrophobe
6 15 16 17 18 19 20 rings

>  <PUBCHEM_HEAVY_ATOM_COUNT>  (1) 
27

>  <PUBCHEM_ATOM_DEF_STEREO_COUNT>  (1) 
0

>  <PUBCHEM_ATOM_UDEF_STEREO_COUNT>  (1) 
1

>  <PUBCHEM_BOND_DEF_STEREO_COUNT>  (1) 
0

>  <PUBCHEM_BOND_UDEF_STEREO_COUNT>  (1) 
0

>  <PUBCHEM_ISOTOPIC_ATOM_COUNT>  (1) 
0

>  <PUBCHEM_COMPONENT_COUNT>  (1) 
1

>  <PUBCHEM_CACTVS_TAUTO_COUNT>  (1) 
4

>  <PUBCHEM_CONFORMER_ID>  (1) 
00000A6700000001

>  <PUBCHEM_MMFF94_ENERGY>  (1) 
72.1871

>  <PUBCHEM_FEATURE_SELFOVERLAP>  (1) 
50.758

>  <PUBCHEM_SHAPE_FINGERPRINT>  (1) 
11089746 13 11671790334035198177
11763715 3 18116734923373636388
12422481 6 16916789535375983157
12596602 18 17489309727877913986
12839892 36 17203885249755615485
13533116 47 18412262843796978376
13583140 156 18341314652744592372
13782708 43 17604703357992965754
15664445 248 16588025684989597172
1813 80 16877942724235523668
19319366 153 18127965511623763592
20567600 247 18339353175787738651
21421861 104 18059586753793509248
25222932 49 18057598978699837215
2838139 119 9655584015105264187
33382 64 18410008866566729769
3459 39 15410892951281393777
34797466 226 17313099791483056093
392239 28 18271524191506201403
4340502 62 18338513149189051720
465052 167 17988925616985424348
5104073 3 17775574160876885859
7064713 232 16056588842235962551
7970288 3 17907291053896420346

>  <PUBCHEM_SHAPE_MULTIPOLES>  (1) 
517.23
14.56
3.19
2.24
14.39
2.25
-1.15
8.74
5.44
-4.02
0.96
0.7
0.13
-1.85

>  <PUBCHEM_SHAPE_SELFOVERLAP>  (1) 
1038.768

>  <PUBCHEM_SHAPE_VOLUME>  (1) 
306

>  <PUBCHEM_COORDINATE_TYPE>  (1) 
2
5
10

$$$$
