26635
     RDKit          3D

 11 10  0  0  1  0  0  0  0  0999 V2000
   -0.4696   -1.7285    0.4142 N   0  0  0  0  0  0  0  0  0  0  0  0
    3.1491   -0.2404   -1.4225 N   0  0  0  0  0  0  0  0  0  0  0  0
    1.1764    0.1478    0.1095 C   0  0  0  0  0  0  0  0  0  0  0  0
   -0.2904   -0.2723    0.4499 C   0  0  0  0  0  0  0  0  0  0  0  0
   -1.3758    0.3582   -0.4494 C   0  0  0  0  0  0  0  0  0  0  0  0
    1.3506    1.6849    0.2229 C   0  0  0  0  0  0  0  0  0  0  0  0
    1.7174   -0.4280   -1.2219 C   0  0  0  0  0  0  0  0  0  0  0  0
   -2.8014   -0.0628   -0.0826 C   0  0  0  0  0  0  0  0  0  0  0  0
    0.9292    2.2498    1.5733 C   0  0  0  0  0  0  0  0  0  0  0  0
    0.4454   -2.3775    1.3373 C   0  0  0  0  0  0  0  0  0  0  0  0
   -3.8310    0.6689   -0.9308 C   0  0  0  0  0  0  0  0  0  0  0  0
  1  4  1  0
  1 10  1  0
  2  7  1  0
  3  4  1  0
  3  6  1  0
  3  7  1  0
  4  5  1  0
  5  8  1  0
  6  9  1  0
  8 11  1  0
M  END
>  <PUBCHEM_COMPOUND_CID>  (1) 
26635

>  <PUBCHEM_CONFORMER_RMSD>  (1) 
0.6

>  <PUBCHEM_CONFORMER_DIVERSEORDER>  (1) 
2
20
13
29
54
66
68
57
33
45
69
55
17
50
51
64
28
63
30
48
61
16
34
44
70
9
58
10
18
41
39
59
65
19
56
14
62
60
42
40
37
26
31
53
67
24
36
35
32
11
43
23
27
8
25
22
5
3
49
6
47
12
46
52
7
21
4
15
38
1

>  <PUBCHEM_MMFF94_PARTIAL_CHARGES>  (1) 
8
1 -0.9
10 0.27
2 -0.99
20 0.36
32 0.36
33 0.36
4 0.27
7 0.27

>  <PUBCHEM_EFFECTIVE_ROTOR_COUNT>  (1) 
6

>  <PUBCHEM_PHARMACOPHORE_FEATURES>  (1) 
6
1 1 cation
1 1 donor
1 11 hydrophobe
1 2 cation
1 2 donor
1 9 hydrophobe

>  <PUBCHEM_HEAVY_ATOM_COUNT>  (1) 
11

>  <PUBCHEM_ATOM_DEF_STEREO_COUNT>  (1) 
0

>  <PUBCHEM_ATOM_UDEF_STEREO_COUNT>  (1) 
2

>  <PUBCHEM_BOND_DEF_STEREO_COUNT>  (1) 
0

>  <PUBCHEM_BOND_UDEF_STEREO_COUNT>  (1) 
0

>  <PUBCHEM_ISOTOPIC_ATOM_COUNT>  (1) 
0

>  <PUBCHEM_COMPONENT_COUNT>  (1) 
1

>  <PUBCHEM_CACTVS_TAUTO_COUNT>  (1) 
1

>  <PUBCHEM_CONFORMER_ID>  (1) 
0000680B00000002

>  <PUBCHEM_MMFF94_ENERGY>  (1) 
8.6541

>  <PUBCHEM_FEATURE_SELFOVERLAP>  (1) 
30.446

>  <PUBCHEM_SHAPE_FINGERPRINT>  (1) 
12138202 97 18193277631235233892
12423570 1 16553445940567889240
12932764 1 18337659842313712749
13380536 167 17545611045464729640
13380536 261 17979929215330972698
14817 1 12633628408582360298
16945 1 18202009819233355255
170605 34 18057304279745538529
18380122 1 17332536077385578546
187816 3 18339373972071932134
20511035 2 17765697402132472440
20671657 53 16916799452307932756
20711985 344 17391080604714695410
21040471 1 18042118920047912747
21524375 3 17695877279739139705
21930827 45 18043814409848462530
21947302 44 18200023091927184153
22112679 90 17769377119404567043
23211744 41 17909533288220831553
23526113 38 18341062868965910910
2748010 2 18192713569017203555
298252 57 17023201443201143646
3250762 1 17979642560686980562
430814 3 15719396182591623604
4369600 1 18270967829973842826
68419 9 17403470576219907282
76951 1 18410567353964663002
81228 2 17540542743880562467

>  <PUBCHEM_SHAPE_MULTIPOLES>  (1) 
216.41
4.35
2.19
1.43
4.14
0.22
0.03
-0.96
-2.45
-0.96
1.49
-0.86
0.03
0.63

>  <PUBCHEM_SHAPE_SELFOVERLAP>  (1) 
386.648

>  <PUBCHEM_SHAPE_VOLUME>  (1) 
139.5

>  <PUBCHEM_COORDINATE_TYPE>  (1) 
2
5
10

$$$$
