26644
     RDKit          3D

 31 37  0  0  1  0  0  0  0  0999 V2000
    2.5768    0.8964    0.8991 O   0  0  0  0  0  0  0  0  0  0  0  0
    0.9940    3.3185    0.4457 O   0  0  0  0  0  0  0  0  0  0  0  0
   -1.8367    2.9271   -1.5818 O   0  0  0  0  0  0  0  0  0  0  0  0
    5.1668   -0.0932    0.0333 O   0  0  0  0  0  0  0  0  0  0  0  0
   -1.4707   -2.5654    0.6322 N   0  0  0  0  0  0  0  0  0  0  0  0
   -0.5955   -0.3377   -0.3027 C   0  0  0  0  0  0  0  0  0  0  0  0
    0.5033   -0.3925    0.7813 C   0  0  0  0  0  0  0  0  0  0  0  0
    0.4398    2.0393    0.1759 C   0  0  0  0  0  0  0  0  0  0  0  0
    1.1268    0.9795    1.0830 C   0  0  0  0  0  0  0  0  0  0  0  0
   -0.9860   -1.8374   -0.5569 C   0  0  0  0  0  0  0  0  0  0  0  0
   -1.7008    0.6292    0.2019 C   0  0  0  0  0  0  0  0  0  0  0  0
   -1.0855    2.0271    0.5138 C   0  0  0  0  0  0  0  0  0  0  0  0
   -0.0833    0.3560   -1.6202 C   0  0  0  0  0  0  0  0  0  0  0  0
    0.6235    1.6826   -1.3065 C   0  0  0  0  0  0  0  0  0  0  0  0
    0.0185   -1.1032    2.0635 C   0  0  0  0  0  0  0  0  0  0  0  0
    1.6697   -1.0822    0.1860 C   0  0  0  0  0  0  0  0  0  0  0  0
    0.2484   -2.6742   -1.1061 C   0  0  0  0  0  0  0  0  0  0  0  0
   -0.5941   -2.4847    1.8006 C   0  0  0  0  0  0  0  0  0  0  0  0
    1.6075   -2.1971   -0.6352 C   0  0  0  0  0  0  0  0  0  0  0  0
   -1.8830    3.1407   -0.1714 C   0  0  0  0  0  0  0  0  0  0  0  0
    2.8156   -0.3404    0.3542 C   0  0  0  0  0  0  0  0  0  0  0  0
   -2.8797   -2.4019    0.9450 C   0  0  0  0  0  0  0  0  0  0  0  0
   -3.7315   -2.4614   -0.3116 C   0  0  0  0  0  0  0  0  0  0  0  0
    2.8165   -2.6863   -1.1285 C   0  0  0  0  0  0  0  0  0  0  0  0
   -1.2778    4.5084    0.1359 C   0  0  0  0  0  0  0  0  0  0  0  0
   -3.3471    3.0896    0.2561 C   0  0  0  0  0  0  0  0  0  0  0  0
    4.0206   -0.7985   -0.1323 C   0  0  0  0  0  0  0  0  0  0  0  0
   -5.1978   -2.2877   -0.1688 C   0  0  0  0  0  0  0  0  0  0  0  0
   -4.3618   -1.2054   -0.7868 C   0  0  0  0  0  0  0  0  0  0  0  0
    2.3846    3.3578    0.1535 C   0  0  0  0  0  0  0  0  0  0  0  0
    4.0188   -2.0027   -0.8523 C   0  0  0  0  0  0  0  0  0  0  0  0
  1  9  1  0
  1 21  1  0
  2  8  1  0
  2 30  1  0
  3 20  1  0
  4 27  1  0
  5 10  1  0
  5 18  1  0
  5 22  1  0
  6  7  1  0
  6 10  1  0
  6 11  1  0
  6 13  1  0
  7  9  1  0
  7 15  1  0
  7 16  1  0
  8  9  1  0
  8 12  1  0
  8 14  1  0
 10 17  1  0
 11 12  1  0
 12 20  1  0
 13 14  1  0
 15 18  1  0
 16 19  2  0
 16 21  1  0
 17 19  1  0
 19 24  1  0
 20 25  1  0
 20 26  1  0
 21 27  2  0
 22 23  1  0
 23 28  1  0
 23 29  1  0
 24 31  2  0
 27 31  1  0
 28 29  1  0
M  END
>  <PUBCHEM_COMPOUND_CID>  (1) 
26644

>  <PUBCHEM_CONFORMER_RMSD>  (1) 
0.8

>  <PUBCHEM_CONFORMER_DIVERSEORDER>  (1) 
1
5
3
6
4
2

>  <PUBCHEM_MMFF94_PARTIAL_CHARGES>  (1) 
32
1 -0.36
10 0.27
16 -0.14
17 0.14
18 0.27
19 -0.14
2 -0.56
20 0.28
21 0.08
22 0.37
23 -0.19
24 -0.15
27 0.08
28 -0.2
29 -0.2
3 -0.68
30 0.28
31 -0.15
4 -0.53
49 0.1
5 -0.81
50 0.15
57 0.1
58 0.1
59 0.1
60 0.1
61 0.4
65 0.15
66 0.45
7 0.14
8 0.28
9 0.28

>  <PUBCHEM_EFFECTIVE_ROTOR_COUNT>  (1) 
6.4

>  <PUBCHEM_PHARMACOPHORE_FEATURES>  (1) 
12
1 1 acceptor
1 2 acceptor
1 3 acceptor
1 3 donor
1 4 donor
1 5 cation
3 20 25 26 hydrophobe
5 1 7 9 16 21 rings
6 16 19 21 24 27 31 rings
6 5 6 7 10 15 18 rings
6 6 7 10 16 17 19 rings
8 6 7 8 9 11 12 13 14 rings

>  <PUBCHEM_HEAVY_ATOM_COUNT>  (1) 
31

>  <PUBCHEM_ATOM_DEF_STEREO_COUNT>  (1) 
3

>  <PUBCHEM_ATOM_UDEF_STEREO_COUNT>  (1) 
3

>  <PUBCHEM_BOND_DEF_STEREO_COUNT>  (1) 
0

>  <PUBCHEM_BOND_UDEF_STEREO_COUNT>  (1) 
0

>  <PUBCHEM_ISOTOPIC_ATOM_COUNT>  (1) 
0

>  <PUBCHEM_COMPONENT_COUNT>  (1) 
1

>  <PUBCHEM_CACTVS_TAUTO_COUNT>  (1) 
3

>  <PUBCHEM_CONFORMER_ID>  (1) 
0000681400000001

>  <PUBCHEM_MMFF94_ENERGY>  (1) 
169.7841

>  <PUBCHEM_FEATURE_SELFOVERLAP>  (1) 
62.836

>  <PUBCHEM_SHAPE_FINGERPRINT>  (1) 
10411042 1 18411701014672350014
10863032 1 18054789481788230230
10906281 52 18191036792209743186
10948715 1 17905050257413426380
1100329 8 18338518526103218225
11513181 2 18129665343398230247
11578080 2 16484202069710226084
116883 192 18411420630690750259
12156800 1 18119500220754707497
12293681 4 18261395597854878515
12422481 6 18128841697694319755
12788726 201 18334294266822066650
13134695 92 18265333004859894511
13140716 1 18264777729759408059
140371 6 18263933300497469738
14790565 3 17328869206266110349
14955137 171 17254290432165074608
15081414 286 18192997251944708161
15420108 30 17045119356844769384
1601671 61 17831575749174687849
16945 1 18410854356527288698
17357779 13 18412255147321403695
19591789 44 17762621685793767601
20600515 1 17316178522608357232
20642791 13 18410572877324299426
20739085 24 18050305930994253835
20775438 99 17695882463912275247
21285901 2 18343869913303752159
22182313 1 18130777933328321074
229495 10 17631999936194545778
23419403 2 18044070549018894558
23558518 356 18335425603819421220
23559900 14 18194399124289372538
238 59 16890589053469709493
2748010 2 18272360945993299706
3052486 1 18188774933746356151
3380486 145 18195832707153238624
3493558 16 17242747629809742788
350125 39 18341612672124880312
404807 78 17677909933556455241
469060 322 17096100078236075887
5171179 24 18272089422397895880
6443956 14 18265614471056604143
70251023 43 18411140246894689699

>  <PUBCHEM_SHAPE_MULTIPOLES>  (1) 
609.51
6.69
5.25
1.37
0.43
4.47
-0.17
-4.15
1.04
3.01
0.23
0.01
-0.45
0.82

>  <PUBCHEM_SHAPE_SELFOVERLAP>  (1) 
1374.923

>  <PUBCHEM_SHAPE_VOLUME>  (1) 
315.7

>  <PUBCHEM_COORDINATE_TYPE>  (1) 
2
5
10

$$$$
