26643
     RDKit          3D

 23 23  0  0  1  0  0  0  0  0999 V2000
    3.6327   -0.1011    0.7824 S   0  0  0  0  0  0  0  0  0  0  0  0
    0.9648   -0.0441    1.0495 O   0  0  0  0  0  0  0  0  0  0  0  0
   -0.7950    3.6144    0.8303 O   0  0  0  0  0  0  0  0  0  0  0  0
    0.9359    2.3858    1.3905 O   0  0  0  0  0  0  0  0  0  0  0  0
   -4.7625   -0.5655   -1.4681 O   0  0  0  0  0  0  0  0  0  0  0  0
   -4.6938    1.6015   -1.1236 O   0  0  0  0  0  0  0  0  0  0  0  0
    1.8194    0.2686   -1.0880 O   0  0  0  0  0  0  0  0  0  0  0  0
   -0.2181    2.5046    0.9152 N   0  0  0  0  0  0  0  0  0  0  0  0
   -4.1683    0.4636   -1.0652 N   0  0  0  0  0  0  0  0  0  0  0  0
   -0.3427   -2.3961    0.1506 C   0  0  0  0  0  0  0  0  0  0  0  0
   -0.9831   -1.0205    0.0774 C   0  0  0  0  0  0  0  0  0  0  0  0
   -1.1347   -3.3916    1.0227 C   0  0  0  0  0  0  0  0  0  0  0  0
   -0.1469   -2.9747   -1.2560 C   0  0  0  0  0  0  0  0  0  0  0  0
   -0.2919    0.0861    0.5327 C   0  0  0  0  0  0  0  0  0  0  0  0
   -2.2567   -0.9186   -0.4509 C   0  0  0  0  0  0  0  0  0  0  0  0
   -1.3448   -2.9009    2.4500 C   0  0  0  0  0  0  0  0  0  0  0  0
   -0.8960    1.3411    0.4575 C   0  0  0  0  0  0  0  0  0  0  0  0
   -2.8607    0.3363   -0.5261 C   0  0  0  0  0  0  0  0  0  0  0  0
   -2.1804    1.4663   -0.0720 C   0  0  0  0  0  0  0  0  0  0  0  0
    2.0050    0.0690    0.1075 C   0  0  0  0  0  0  0  0  0  0  0  0
    4.6330    0.1012   -0.7078 C   0  0  0  0  0  0  0  0  0  0  0  0
    6.1148   -0.0449   -0.3804 C   0  0  0  0  0  0  0  0  0  0  0  0
    6.9702    0.1195   -1.6281 C   0  0  0  0  0  0  0  0  0  0  0  0
  1 20  1  0
  1 21  1  0
  2 14  1  0
  2 20  1  0
  3  8  1  0
  4  8  2  0
  5  9  1  0
  6  9  2  0
  7 20  2  0
  8 17  1  0
  9 18  1  0
 10 11  1  0
 10 12  1  0
 10 13  1  0
 11 14  2  0
 11 15  1  0
 12 16  1  0
 14 17  1  0
 15 18  2  0
 17 19  2  0
 18 19  1  0
 21 22  1  0
 22 23  1  0
M  CHG  4   3  -1   5  -1   8   1   9   1
M  END
>  <PUBCHEM_COMPOUND_CID>  (1) 
26643

>  <PUBCHEM_CONFORMER_RMSD>  (1) 
0.8

>  <PUBCHEM_CONFORMER_DIVERSEORDER>  (1) 
3
42
41
52
26
44
64
60
50
18
65
54
30
39
49
35
62
48
28
36
10
51
53
16
58
32
12
57
31
24
29
47
21
63
59
38
43
45
9
13
15
55
40
6
61
46
27
11
23
22
20
19
2
5
25
7
1
14
56
33
8
37
4
17
34

>  <PUBCHEM_MMFF94_PARTIAL_CHARGES>  (1) 
20
1 -0.37
10 0.14
11 -0.14
14 0.08
15 -0.15
17 0.13
18 0.13
19 -0.15
2 -0.23
20 0.86
21 0.23
3 -0.52
30 0.15
34 0.15
4 -0.52
5 -0.52
6 -0.52
7 -0.57
8 0.91
9 0.91

>  <PUBCHEM_EFFECTIVE_ROTOR_COUNT>  (1) 
9

>  <PUBCHEM_PHARMACOPHORE_FEATURES>  (1) 
10
1 13 hydrophobe
1 16 hydrophobe
1 23 hydrophobe
1 3 acceptor
1 3 anion
1 4 acceptor
1 5 acceptor
1 5 anion
1 6 acceptor
6 11 14 15 17 18 19 rings

>  <PUBCHEM_HEAVY_ATOM_COUNT>  (1) 
23

>  <PUBCHEM_ATOM_DEF_STEREO_COUNT>  (1) 
0

>  <PUBCHEM_ATOM_UDEF_STEREO_COUNT>  (1) 
1

>  <PUBCHEM_BOND_DEF_STEREO_COUNT>  (1) 
0

>  <PUBCHEM_BOND_UDEF_STEREO_COUNT>  (1) 
0

>  <PUBCHEM_ISOTOPIC_ATOM_COUNT>  (1) 
0

>  <PUBCHEM_COMPONENT_COUNT>  (1) 
1

>  <PUBCHEM_CACTVS_TAUTO_COUNT>  (1) 
1

>  <PUBCHEM_CONFORMER_ID>  (1) 
0000681300000003

>  <PUBCHEM_MMFF94_ENERGY>  (1) 
66.0171

>  <PUBCHEM_FEATURE_SELFOVERLAP>  (1) 
50.91

>  <PUBCHEM_SHAPE_FINGERPRINT>  (1) 
10366900 7 18060422400617492842
107951 10 18113339712887014570
10906281 52 18201736058350646280
11315181 36 18202570596935488684
11680986 33 18054218010393054961
12236239 1 17894908512656625806
12293681 160 18341325587604539153
12788726 201 18270679766939384528
13149001 5 18267010846644924341
13583140 156 16877954849049558448
13941206 138 18187085001486255930
14251757 5 18335706074380517606
14790565 3 18341898450670021025
15163728 17 17533211964586506461
16945 1 18273206492041608827
17492 54 18337378379821107103
187816 3 18413386527437385924
20602899 9 17060338552088966310
20645476 183 17967246520403294987
20871999 31 18343585110091052208
20905425 154 17912349940869492207
21421861 104 17760078524363177273
21637258 2 14476666499450794356
22182313 1 17981601877533513896
229495 10 16955669554919271361
23402539 116 18201434757715090388
23558518 356 17834956369404165258
23559900 14 18342173419277024016
23598288 3 18118698835681889694
266924 87 18127128576340596636
2748010 2 18051403269663918339
283562 15 18270683052109701249
3250762 1 17834383906319729169
3759504 43 17967248710815608011
4058900 60 17969501494450961089
4409770 3 18187374280408097875
484989 97 18044094777483837719
56616090 284 18272651259638061918
81228 2 18201169758185630048
9981440 41 18341056212009877274

>  <PUBCHEM_SHAPE_MULTIPOLES>  (1) 
432
10.07
3.47
1.59
18.77
1.02
-0.27
-2.26
6.79
-3.09
-1.65
-0.31
0.56
0.8

>  <PUBCHEM_SHAPE_SELFOVERLAP>  (1) 
873.844

>  <PUBCHEM_SHAPE_VOLUME>  (1) 
255

>  <PUBCHEM_COORDINATE_TYPE>  (1) 
2
5
10

$$$$
