26645
     RDKit          3D

 15 15  0  0  0  0  0  0  0  0999 V2000
    0.2025   -2.6857    0.3415 Cl  0  0  0  0  0  0  0  0  0  0  0  0
    0.9908    0.1311    1.0293 O   0  0  0  0  0  0  0  0  0  0  0  0
    1.6442    0.4608   -1.1784 O   0  0  0  0  0  0  0  0  0  0  0  0
    4.9534   -0.4371   -0.6511 O   0  0  0  0  0  0  0  0  0  0  0  0
    3.1968    0.5259    0.5424 N   0  0  0  0  0  0  0  0  0  0  0  0
   -2.4294    0.9725    0.0689 C   0  0  0  0  0  0  0  0  0  0  0  0
   -2.9272   -0.2820   -0.2833 C   0  0  0  0  0  0  0  0  0  0  0  0
   -1.1120    1.1015    0.5089 C   0  0  0  0  0  0  0  0  0  0  0  0
   -0.2925   -0.0238    0.5966 C   0  0  0  0  0  0  0  0  0  0  0  0
   -2.1078   -1.4074   -0.1955 C   0  0  0  0  0  0  0  0  0  0  0  0
   -0.7904   -1.2782    0.2443 C   0  0  0  0  0  0  0  0  0  0  0  0
   -3.2885    2.1911   -0.0147 C   0  0  0  0  0  0  0  0  0  0  0  0
   -4.3342   -0.4445   -0.7570 C   0  0  0  0  0  0  0  0  0  0  0  0
    1.9303    0.3836    0.0129 C   0  0  0  0  0  0  0  0  0  0  0  0
    4.3641    0.7921   -0.2648 C   0  0  0  0  0  0  0  0  0  0  0  0
  1 11  1  0
  2  9  1  0
  2 14  1  0
  3 14  2  0
  4 15  1  0
  5 14  1  0
  5 15  1  0
  6  7  2  0
  6  8  1  0
  6 12  1  0
  7 10  1  0
  7 13  1  0
  8  9  2  0
  9 11  1  0
 10 11  2  0
M  END
>  <PUBCHEM_COMPOUND_CID>  (1) 
26645

>  <PUBCHEM_CONFORMER_RMSD>  (1) 
0.6

>  <PUBCHEM_CONFORMER_DIVERSEORDER>  (1) 
1
24
48
26
43
44
27
32
49
40
29
41
25
38
33
5
20
4
28
42
14
31
22
18
12
37
11
17
2
45
15
16
46
47
10
34
19
13
21
6
23
36
7
35
39
3
30
9
8

>  <PUBCHEM_MMFF94_PARTIAL_CHARGES>  (1) 
19
1 -0.18
10 -0.15
11 0.18
12 0.14
13 0.14
14 0.78
15 0.58
16 0.15
17 0.15
2 -0.23
24 0.37
27 0.4
3 -0.57
4 -0.68
5 -0.73
6 -0.14
7 -0.14
8 -0.15
9 0.08

>  <PUBCHEM_EFFECTIVE_ROTOR_COUNT>  (1) 
4

>  <PUBCHEM_PHARMACOPHORE_FEATURES>  (1) 
5
1 3 acceptor
1 4 acceptor
1 4 donor
1 5 donor
6 6 7 8 9 10 11 rings

>  <PUBCHEM_HEAVY_ATOM_COUNT>  (1) 
15

>  <PUBCHEM_ATOM_DEF_STEREO_COUNT>  (1) 
0

>  <PUBCHEM_ATOM_UDEF_STEREO_COUNT>  (1) 
0

>  <PUBCHEM_BOND_DEF_STEREO_COUNT>  (1) 
0

>  <PUBCHEM_BOND_UDEF_STEREO_COUNT>  (1) 
0

>  <PUBCHEM_ISOTOPIC_ATOM_COUNT>  (1) 
0

>  <PUBCHEM_COMPONENT_COUNT>  (1) 
1

>  <PUBCHEM_CACTVS_TAUTO_COUNT>  (1) 
2

>  <PUBCHEM_CONFORMER_ID>  (1) 
0000681500000001

>  <PUBCHEM_MMFF94_ENERGY>  (1) 
35.6552

>  <PUBCHEM_FEATURE_SELFOVERLAP>  (1) 
25.415

>  <PUBCHEM_SHAPE_FINGERPRINT>  (1) 
10726558 24 18338519642409125563
10756046 5 18198619926391071423
12119455 92 14056986248460448907
12251169 10 8646773309006692639
12500047 106 18411981386511683458
13024252 1 11819265681443230891
13214271 11 10809343355840306929
13380535 21 18269837511183884721
14614273 12 18261383413353925717
14911166 2 18340759438411580847
14993402 34 18113894983179590204
15775835 57 18334012752953104265
16945 1 18340192073369026755
17870717 6 18059031526739731062
18186145 218 18131911555053502008
187816 3 18342738550224161275
200 152 15626226810049178352
20201158 50 17703795850670294566
20300324 65 18273213123112632125
20645476 183 17822566217847806691
20645477 56 18338233890130596768
20645477 70 17132124537464762452
20871999 31 18342177795025759184
21501502 16 18196080059205521755
21524375 3 18113898264608411883
21637258 2 15267048290526889575
23366157 5 17898006824264744347
23402539 116 18343578542711451981
23419403 2 14043749343896339270
23552423 10 18120645843499895915
23557571 272 18060143136937380205
23559900 14 18272086154339201192
25147074 1 18198048185172137171
2748010 2 18196362625204061295
2838139 119 16299760141360706551
305870 269 18261955128813397515
53812653 8 18410003334854580691
559249 180 18338795599128697610
69090 78 17989203784647361358
7364860 26 18125437510324979291
9709674 26 18271815644103066262

>  <PUBCHEM_SHAPE_MULTIPOLES>  (1) 
287.97
7.78
2.02
0.87
6.96
0.83
0.04
-2.14
2.24
-1.17
-0.2
0.14
-0.01
-0.22

>  <PUBCHEM_SHAPE_SELFOVERLAP>  (1) 
584.355

>  <PUBCHEM_SHAPE_VOLUME>  (1) 
169.2

>  <PUBCHEM_COORDINATE_TYPE>  (1) 
2
5
10

$$$$
