26648
     RDKit          3D

 24 25  0  0  1  0  0  0  0  0999 V2000
    1.7360   -0.6911    2.1584 O   0  0  0  0  0  0  0  0  0  0  0  0
   -4.0082    0.9434   -0.0657 O   0  0  0  0  0  0  0  0  0  0  0  0
    5.5210    1.8699   -0.2294 O   0  0  0  0  0  0  0  0  0  0  0  0
    6.9871   -0.3113   -1.1350 O   0  0  0  0  0  0  0  0  0  0  0  0
   -0.6527   -0.3965    0.6237 N   0  0  0  0  0  0  0  0  0  0  0  0
    0.6704   -0.1768    0.0262 C   0  0  0  0  0  0  0  0  0  0  0  0
    1.7234   -1.0298    0.7688 C   0  0  0  0  0  0  0  0  0  0  0  0
   -1.6447    0.4566   -0.0071 C   0  0  0  0  0  0  0  0  0  0  0  0
    0.5793   -0.5205   -1.4618 C   0  0  0  0  0  0  0  0  0  0  0  0
    3.1350   -0.8334    0.2585 C   0  0  0  0  0  0  0  0  0  0  0  0
   -3.0228    0.1444    0.5774 C   0  0  0  0  0  0  0  0  0  0  0  0
   -1.2679    1.9265    0.1798 C   0  0  0  0  0  0  0  0  0  0  0  0
    3.6791    0.4389    0.2506 C   0  0  0  0  0  0  0  0  0  0  0  0
    3.8497   -1.9308   -0.1884 C   0  0  0  0  0  0  0  0  0  0  0  0
    4.9799    0.6197   -0.2193 C   0  0  0  0  0  0  0  0  0  0  0  0
    5.1505   -1.7499   -0.6586 C   0  0  0  0  0  0  0  0  0  0  0  0
    5.7157   -0.4747   -0.6739 C   0  0  0  0  0  0  0  0  0  0  0  0
   -5.2763    0.4283   -0.1272 C   0  0  0  0  0  0  0  0  0  0  0  0
   -5.7223   -0.4250    0.8757 C   0  0  0  0  0  0  0  0  0  0  0  0
   -6.1038    0.7632   -1.1931 C   0  0  0  0  0  0  0  0  0  0  0  0
   -7.0130   -0.9502    0.8119 C   0  0  0  0  0  0  0  0  0  0  0  0
   -7.3945    0.2381   -1.2567 C   0  0  0  0  0  0  0  0  0  0  0  0
    6.2281    2.2795    0.9395 C   0  0  0  0  0  0  0  0  0  0  0  0
   -7.8492   -0.6186   -0.2542 C   0  0  0  0  0  0  0  0  0  0  0  0
  1  7  1  0
  2 11  1  0
  2 18  1  0
  3 15  1  0
  3 23  1  0
  4 17  1  0
  5  6  1  0
  5  8  1  0
  6  7  1  0
  6  9  1  0
  7 10  1  0
  8 11  1  0
  8 12  1  0
 10 13  2  0
 10 14  1  0
 13 15  1  0
 14 16  2  0
 15 17  2  0
 16 17  1  0
 18 19  2  0
 18 20  1  0
 19 21  1  0
 20 22  2  0
 21 24  2  0
 22 24  1  0
M  END
>  <PUBCHEM_COMPOUND_CID>  (1) 
26648

>  <PUBCHEM_CONFORMER_RMSD>  (1) 
1

>  <PUBCHEM_CONFORMER_DIVERSEORDER>  (1) 
2
222
78
289
179
37
26
213
277
113
19
560
33
551
53
585
536
387
240
306
281
3
10
625
160
63
419
57
150
7
628
465
24
146
23
357
575
433
236
148
120
74
400
220
407
13
427
417
30
437
271
75
314
62
15
126
11
141
565
330
80
629
182
535
154
101
339
516
44
347
367
615
303
632
211
413
43
234
168
163
46
178
523
45
243
95
1
58
81
209
256
50
121
105
70
47
250
191
144
4
489
343
368
129
137
186
249
188
278
34
124
79
8
83
381
20
205
604
426
529
392
111
263
290
360
285
184
35
556
397
547
614
410
185
358
197
447
269
383
28
117
486
245
192
514
41
177
25
524
48
12
393
180
304
143
139
169
315
386
69
159
96
112
84
132
261
100
316
391
29
170
242
379
109
430
472
328
342
199
183
9
6
93
190
308
174
64
51
161
61
119
459
445
440
36
31
244
555
87
173
171
22
196
140
571
534

>  <PUBCHEM_MMFF94_PARTIAL_CHARGES>  (1) 
33
1 -0.68
10 -0.14
11 0.28
13 -0.15
14 -0.15
15 0.08
16 -0.15
17 0.08
18 0.08
19 -0.15
2 -0.36
20 -0.15
21 -0.15
22 -0.15
23 0.28
24 -0.15
28 0.36
3 -0.36
37 0.15
38 0.15
39 0.4
4 -0.53
40 0.15
41 0.15
42 0.15
43 0.45
44 0.15
45 0.15
49 0.15
5 -0.9
6 0.27
7 0.42
8 0.27

>  <PUBCHEM_EFFECTIVE_ROTOR_COUNT>  (1) 
8

>  <PUBCHEM_PHARMACOPHORE_FEATURES>  (1) 
9
1 1 acceptor
1 1 donor
1 2 acceptor
1 3 acceptor
1 4 donor
1 5 cation
1 5 donor
6 10 13 14 15 16 17 rings
6 18 19 20 21 22 24 rings

>  <PUBCHEM_HEAVY_ATOM_COUNT>  (1) 
24

>  <PUBCHEM_ATOM_DEF_STEREO_COUNT>  (1) 
0

>  <PUBCHEM_ATOM_UDEF_STEREO_COUNT>  (1) 
3

>  <PUBCHEM_BOND_DEF_STEREO_COUNT>  (1) 
0

>  <PUBCHEM_BOND_UDEF_STEREO_COUNT>  (1) 
0

>  <PUBCHEM_ISOTOPIC_ATOM_COUNT>  (1) 
0

>  <PUBCHEM_COMPONENT_COUNT>  (1) 
1

>  <PUBCHEM_CACTVS_TAUTO_COUNT>  (1) 
3

>  <PUBCHEM_CONFORMER_ID>  (1) 
0000681800000002

>  <PUBCHEM_MMFF94_ENERGY>  (1) 
75.6444

>  <PUBCHEM_FEATURE_SELFOVERLAP>  (1) 
45.674

>  <PUBCHEM_SHAPE_FINGERPRINT>  (1) 
10087517 78 14418127384472035103
10299344 5 17060340721426576415
10638233 991 17489870466139877833
11101153 10 18272654558527308913
11315181 36 18334860507627407809
11524674 6 14045734937995750757
11719270 70 15574711387289231034
12166972 35 17346596387548316465
12236239 1 17748826281056903963
12516196 113 18335420166955541261
12730499 353 18410296908949570370
13533116 47 18130788919459168270
13685833 64 11312060946080678276
13899415 154 16917068875648511505
14123256 10 18413389834583218317
14170010 4 18261112997395996724
14251764 18 14548730720649432147
14461889 52 18114181985911249266
14856354 85 16486972921497685765
14933364 13 18410295792041548549
15142383 8 9439404614146151110
15183329 4 16773794797073014311
15348495 7 11167639011477569623
15419008 47 17967527978775695909
15716309 27 17846780694349970655
15849732 13 18186523211331935495
19141452 34 10303517399648697624
20157964 124 18342176683267305644
20511986 3 17022889152208851643
20554085 129 17022895770305283072
21150785 3 17847058908792427817
21315759 40 16773801376540820990
21521721 280 18201723976348939843
21774942 28 13407337548843489263
21781051 124 15554449647179118372
220451 1 16917348134817703535
221357 26 18341333314909996320
22224240 67 16660363705784061602
23035841 295 16487254370456451631
23081809 10 17988647363339337065
23424782 7 18334860562818580075
23522609 53 17059798687795407385
23559900 14 18113898304102180001
246663 6 16630810993207862534
300161 21 16443062777711934331
3009799 131 17530684303851271549
335352 9 18341058450520743062
34797466 226 18060144245302414092
4072396 5 14634867548538988730
4325135 7 18412545409953734533
4339292 15 15069198891987957457

>  <PUBCHEM_SHAPE_MULTIPOLES>  (1) 
465.45
23.23
1.69
1.22
21.73
0.49
-0.11
0.47
4.12
-2.99
-0.12
0.31
-0.14
1.29

>  <PUBCHEM_SHAPE_SELFOVERLAP>  (1) 
969.659

>  <PUBCHEM_SHAPE_VOLUME>  (1) 
266.1

>  <PUBCHEM_COORDINATE_TYPE>  (1) 
2
5
10

$$$$
