26653
     RDKit          3D

 22 22  0  0  0  0  0  0  0  0999 V2000
   -2.9763   -1.3869    0.4485 F   0  0  0  0  0  0  0  0  0  0  0  0
   -2.2909   -1.2485   -1.6197 F   0  0  0  0  0  0  0  0  0  0  0  0
   -1.1045   -2.3395   -0.1472 F   0  0  0  0  0  0  0  0  0  0  0  0
   -1.2781    2.3531   -0.1439 F   0  0  0  0  0  0  0  0  0  0  0  0
   -2.3801    1.1793   -1.6184 F   0  0  0  0  0  0  0  0  0  0  0  0
   -3.0744    1.2637    0.4496 F   0  0  0  0  0  0  0  0  0  0  0  0
    1.3407   -2.3369    0.0406 F   0  0  0  0  0  0  0  0  0  0  0  0
    2.6260   -1.2371   -1.3395 F   0  0  0  0  0  0  0  0  0  0  0  0
    3.0989   -1.2830    0.7913 F   0  0  0  0  0  0  0  0  0  0  0  0
    3.0974    1.3285    0.7602 F   0  0  0  0  0  0  0  0  0  0  0  0
    2.6209    1.2359   -1.3683 F   0  0  0  0  0  0  0  0  0  0  0  0
    1.3357    2.3623   -0.0100 F   0  0  0  0  0  0  0  0  0  0  0  0
    0.1051    0.0279   -0.8246 N   0  0  0  0  0  0  0  0  0  0  0  0
   -1.5488    0.0261    2.4703 N   0  0  0  0  0  0  0  0  0  0  0  0
   -1.1357    0.0087   -0.0004 C   0  0  0  0  0  0  0  0  0  0  0  0
    1.2575    0.0137    0.1096 C   0  0  0  0  0  0  0  0  0  0  0  0
   -0.6706    0.0239    1.4355 C   0  0  0  0  0  0  0  0  0  0  0  0
    0.6639    0.0260    1.4835 C   0  0  0  0  0  0  0  0  0  0  0  0
   -1.8987   -1.2783   -0.3394 C   0  0  0  0  0  0  0  0  0  0  0  0
   -1.9926    1.2379   -0.3385 C   0  0  0  0  0  0  0  0  0  0  0  0
    2.1041   -1.2457   -0.1055 C   0  0  0  0  0  0  0  0  0  0  0  0
    2.1005    1.2687   -0.1337 C   0  0  0  0  0  0  0  0  0  0  0  0
  1 19  1  0
  2 19  1  0
  3 19  1  0
  4 20  1  0
  5 20  1  0
  6 20  1  0
  7 21  1  0
  8 21  1  0
  9 21  1  0
 10 22  1  0
 11 22  1  0
 12 22  1  0
 13 15  1  0
 13 16  1  0
 14 17  1  0
 15 17  1  0
 15 19  1  0
 15 20  1  0
 16 18  1  0
 16 21  1  0
 16 22  1  0
 17 18  2  0
M  END
>  <PUBCHEM_COMPOUND_CID>  (1) 
26653

>  <PUBCHEM_CONFORMER_RMSD>  (1) 
0.8

>  <PUBCHEM_CONFORMER_DIVERSEORDER>  (1) 
1

>  <PUBCHEM_MMFF94_PARTIAL_CHARGES>  (1) 
26
1 -0.34
10 -0.34
11 -0.34
12 -0.34
13 -0.9
14 -0.9
15 0.41
16 0.41
17 -0.04
18 -0.29
19 1.02
2 -0.34
20 1.02
21 1.02
22 1.02
23 0.36
24 0.15
25 0.4
26 0.4
3 -0.34
4 -0.34
5 -0.34
6 -0.34
7 -0.34
8 -0.34
9 -0.34

>  <PUBCHEM_EFFECTIVE_ROTOR_COUNT>  (1) 
4.6

>  <PUBCHEM_PHARMACOPHORE_FEATURES>  (1) 
5
1 13 cation
1 13 donor
1 14 cation
1 14 donor
5 13 15 16 17 18 rings

>  <PUBCHEM_HEAVY_ATOM_COUNT>  (1) 
22

>  <PUBCHEM_ATOM_DEF_STEREO_COUNT>  (1) 
0

>  <PUBCHEM_ATOM_UDEF_STEREO_COUNT>  (1) 
0

>  <PUBCHEM_BOND_DEF_STEREO_COUNT>  (1) 
0

>  <PUBCHEM_BOND_UDEF_STEREO_COUNT>  (1) 
0

>  <PUBCHEM_ISOTOPIC_ATOM_COUNT>  (1) 
0

>  <PUBCHEM_COMPONENT_COUNT>  (1) 
1

>  <PUBCHEM_CACTVS_TAUTO_COUNT>  (1) 
2

>  <PUBCHEM_CONFORMER_ID>  (1) 
0000681D00000001

>  <PUBCHEM_MMFF94_ENERGY>  (1) 
39.2543

>  <PUBCHEM_FEATURE_SELFOVERLAP>  (1) 
25.372

>  <PUBCHEM_SHAPE_FINGERPRINT>  (1) 
10863032 1 18413111666995063169
11578080 2 17774142609158778177
12423570 1 12605961779618297009
12491281 212 18334860497829632905
12654903 92 18192984920444800124
13140716 1 18410571747494602266
13172582 1 18126288532213685994
13299463 15 18200311168252395152
13538477 17 17416991498102656483
14115302 16 17846495894356396963
14614273 12 18269552904400678576
15775835 57 18340498836511951852
16945 1 18192990409386546201
17492 54 17036683907899225653
20082192 1 18271816708843135018
20525323 117 18268702977759917101
21501502 16 18410290324041661588
22344851 262 18266727000745955146
22802520 49 18342174457883337749
2334 1 18410290345548153190
23419403 2 13857890020366646905
23559900 14 18198054773921644138
2748010 2 18410009935728606740
296302 2 17417230049461047354
3060560 45 17614814359268301685
353137 74 18189884491075719179
74978 22 18201446822204020732
81228 2 15648487612638385369

>  <PUBCHEM_SHAPE_MULTIPOLES>  (1) 
355.5
4.38
2.21
1.49
0.7
0.02
-0.43
-0.07
0.56
0.13
0.38
-0.44
-0.01
-0.02

>  <PUBCHEM_SHAPE_SELFOVERLAP>  (1) 
781.914

>  <PUBCHEM_SHAPE_VOLUME>  (1) 
192.2

>  <PUBCHEM_COORDINATE_TYPE>  (1) 
2
5
10

$$$$
