26652
     RDKit          3D

 20 21  0  0  0  0  0  0  0  0999 V2000
    0.0069   -3.0575    0.7119 O   0  0  0  0  0  0  0  0  0  0  0  0
    2.2634    2.1275    1.1209 O   0  0  0  0  0  0  0  0  0  0  0  0
   -3.8697    0.5127   -0.7993 N   0  0  0  0  0  0  0  0  0  0  0  0
    0.6418    2.0286   -0.5384 N   0  0  0  0  0  0  0  0  0  0  0  0
    5.9493   -1.1444   -0.4106 N   0  0  0  0  0  0  0  0  0  0  0  0
   -2.1801    1.3921    0.2939 C   0  0  0  0  0  0  0  0  0  0  0  0
   -1.2862    2.3933    0.9672 C   0  0  0  0  0  0  0  0  0  0  0  0
   -1.9316    0.0103    0.1848 C   0  0  0  0  0  0  0  0  0  0  0  0
   -0.2546    3.0115    0.0253 C   0  0  0  0  0  0  0  0  0  0  0  0
   -3.0157   -0.5280   -0.5118 C   0  0  0  0  0  0  0  0  0  0  0  0
   -3.3643    1.6872   -0.3100 C   0  0  0  0  0  0  0  0  0  0  0  0
   -0.8986   -0.8519    0.6031 C   0  0  0  0  0  0  0  0  0  0  0  0
    2.5908    0.6364   -0.7596 C   0  0  0  0  0  0  0  0  0  0  0  0
   -3.1188   -1.8910   -0.8121 C   0  0  0  0  0  0  0  0  0  0  0  0
    3.9186    0.2017   -0.1395 C   0  0  0  0  0  0  0  0  0  0  0  0
    1.8376    1.6671    0.0652 C   0  0  0  0  0  0  0  0  0  0  0  0
   -0.9882   -2.2174    0.3097 C   0  0  0  0  0  0  0  0  0  0  0  0
   -2.0821   -2.7269   -0.3871 C   0  0  0  0  0  0  0  0  0  0  0  0
    4.6829   -0.7762   -1.0339 C   0  0  0  0  0  0  0  0  0  0  0  0
    1.0987   -2.4752    1.4205 C   0  0  0  0  0  0  0  0  0  0  0  0
  1 17  1  0
  1 20  1  0
  2 16  2  0
  3 10  1  0
  3 11  1  0
  4  9  1  0
  4 16  1  0
  5 19  1  0
  6  7  1  0
  6  8  1  0
  6 11  2  0
  7  9  1  0
  8 10  2  0
  8 12  1  0
 10 14  1  0
 12 17  2  0
 13 15  1  0
 13 16  1  0
 14 18  2  0
 15 19  1  0
 17 18  1  0
M  END
>  <PUBCHEM_COMPOUND_CID>  (1) 
26652

>  <PUBCHEM_CONFORMER_RMSD>  (1) 
0.8

>  <PUBCHEM_CONFORMER_DIVERSEORDER>  (1) 
1
99
211
82
261
126
31
112
210
47
124
36
13
195
42
12
131
192
94
141
198
160
6
140
143
223
25
190
62
93
96
150
255
80
139
273
200
53
236
138
7
148
165
197
180
206
128
9
262
199
178
117
5
110
213
177
79
57
121
134
245
8
84
196
260
4
76
215
176
228
54
189
37
32
103
241
170
18
183
87
137
203
154
182
11
142
39
188
186
33
115
114
171
173
123
205
67
24
111
202
97
135
179
265
264
218
259
233
86
16
56
29
43
145
92
147
26
269
163
219
55
105
68
162
271
207
74
89
125
85
220
38
268
20
81
168
133
172
113
44
19
159
244
253
17
263
41
77
27
118
193
231
132
73
250
235
40
246
65
161
267
136
238
185
157
69
108
224
100
214
48
212
252
51
106
225
201
144
129
257
78
64
10
21
91
46
243
3
209
70
270
45
229
187
22
88
28
151
239
232
155
2
256
158
167
60
59
153
58
15
166
50
226
23
152
156
101
237
119
83
184
120
174
217
52
116
71
90
222
181
72
242
234
127
204
66
240
164
49
227
102
249
251
149
35
14
95
208
254
194
272
109
247
130
216
122
107
61
230
104
221
169
30
146
175
258
191
266
34
63
75
98
248

>  <PUBCHEM_MMFF94_PARTIAL_CHARGES>  (1) 
26
1 -0.36
10 -0.15
11 -0.3
12 -0.15
13 0.06
14 -0.15
16 0.57
17 0.08
18 -0.15
19 0.27
2 -0.57
20 0.28
25 0.15
26 0.27
27 0.15
28 0.37
3 0.03
31 0.15
34 0.15
37 0.36
38 0.36
4 -0.73
5 -0.99
6 -0.18
7 0.18
9 0.3

>  <PUBCHEM_EFFECTIVE_ROTOR_COUNT>  (1) 
8

>  <PUBCHEM_PHARMACOPHORE_FEATURES>  (1) 
9
1 1 acceptor
1 2 acceptor
1 3 cation
1 3 donor
1 4 donor
1 5 cation
1 5 donor
5 3 6 8 10 11 rings
6 8 10 12 14 17 18 rings

>  <PUBCHEM_HEAVY_ATOM_COUNT>  (1) 
20

>  <PUBCHEM_ATOM_DEF_STEREO_COUNT>  (1) 
0

>  <PUBCHEM_ATOM_UDEF_STEREO_COUNT>  (1) 
0

>  <PUBCHEM_BOND_DEF_STEREO_COUNT>  (1) 
0

>  <PUBCHEM_BOND_UDEF_STEREO_COUNT>  (1) 
0

>  <PUBCHEM_ISOTOPIC_ATOM_COUNT>  (1) 
0

>  <PUBCHEM_COMPONENT_COUNT>  (1) 
1

>  <PUBCHEM_CACTVS_TAUTO_COUNT>  (1) 
2

>  <PUBCHEM_CONFORMER_ID>  (1) 
0000681C00000001

>  <PUBCHEM_MMFF94_ENERGY>  (1) 
29.9684

>  <PUBCHEM_FEATURE_SELFOVERLAP>  (1) 
45.763

>  <PUBCHEM_SHAPE_FINGERPRINT>  (1) 
10693767 8 17626083606477531735
10764073 3 17826551917982032427
11458722 379 18409168779495407758
1420 336 18265335177933563056
14251740 79 18338527326833611774
14251745 187 18342738499101285210
14790565 3 17837218077692279553
14931854 50 18337670819654198230
17977361 122 18335699399779747982
19591789 44 18120653798006207355
19930381 70 17331114408661733046
20775438 99 16904930494854090175
20905425 154 18269273448063774582
23559900 14 18271520992251288720
5282940 2 18044376015809884586
8809292 202 18412831304293855324
9709674 26 18196650920045648980

>  <PUBCHEM_SHAPE_MULTIPOLES>  (1) 
384.91
7.93
3.84
1.05
11.42
0.43
-0.14
1.74
2.96
-1.18
-0.84
0.21
0.22
-0.16

>  <PUBCHEM_SHAPE_SELFOVERLAP>  (1) 
802.528

>  <PUBCHEM_SHAPE_VOLUME>  (1) 
220

>  <PUBCHEM_COORDINATE_TYPE>  (1) 
2
5
10

$$$$
