26664
     RDKit          3D

 15 15  0  0  0  0  0  0  0  0999 V2000
   -4.3131   -2.2726   -0.3073 Cl  0  0  0  0  0  0  0  0  0  0  0  0
   -1.3249    3.9523   -0.6892 Cl  0  0  0  0  0  0  0  0  0  0  0  0
    0.3224    0.3684    2.7769 S   0  0  0  0  0  0  0  0  0  0  0  0
    0.4171   -0.0560    0.8732 P   0  0  0  0  0  0  0  0  0  0  0  0
    1.0406   -1.5342    0.5959 O   0  0  0  0  0  0  0  0  0  0  0  0
    1.4376    0.9000    0.0393 O   0  0  0  0  0  0  0  0  0  0  0  0
   -1.0055    0.0009    0.0176 N   0  0  0  0  0  0  0  0  0  0  0  0
    3.0016   -1.6319   -0.8027 C   0  0  0  0  0  0  0  0  0  0  0  0
    3.3632   -0.1498   -0.9543 C   0  0  0  0  0  0  0  0  0  0  0  0
    1.5062   -1.9019   -0.6956 C   0  0  0  0  0  0  0  0  0  0  0  0
    2.8436    0.7366    0.1697 C   0  0  0  0  0  0  0  0  0  0  0  0
   -2.0205   -0.9900    0.3685 C   0  0  0  0  0  0  0  0  0  0  0  0
   -1.6272    1.3148   -0.1322 C   0  0  0  0  0  0  0  0  0  0  0  0
   -3.0620   -1.0815   -0.7359 C   0  0  0  0  0  0  0  0  0  0  0  0
   -0.5790    2.3448   -0.5237 C   0  0  0  0  0  0  0  0  0  0  0  0
  1 14  1  0
  2 15  1  0
  3  4  2  0
  4  5  1  0
  4  6  1  0
  4  7  1  0
  5 10  1  0
  6 11  1  0
  7 12  1  0
  7 13  1  0
  8  9  1  0
  8 10  1  0
  9 11  1  0
 12 14  1  0
 13 15  1  0
M  END
>  <PUBCHEM_COMPOUND_CID>  (1) 
26664

>  <PUBCHEM_CONFORMER_RMSD>  (1) 
0.8

>  <PUBCHEM_CONFORMER_DIVERSEORDER>  (1) 
2
10
16
3
4
15
9
1
5
12
14
6
7
8
13
11

>  <PUBCHEM_MMFF94_PARTIAL_CHARGES>  (1) 
13
1 -0.29
10 0.28
11 0.28
12 0.27
13 0.27
14 0.29
15 0.29
2 -0.29
3 -0.68
4 1.49
5 -0.55
6 -0.55
7 -0.81

>  <PUBCHEM_EFFECTIVE_ROTOR_COUNT>  (1) 
6.2

>  <PUBCHEM_PHARMACOPHORE_FEATURES>  (1) 
1
7 4 5 6 8 9 10 11 rings

>  <PUBCHEM_HEAVY_ATOM_COUNT>  (1) 
15

>  <PUBCHEM_ATOM_DEF_STEREO_COUNT>  (1) 
0

>  <PUBCHEM_ATOM_UDEF_STEREO_COUNT>  (1) 
0

>  <PUBCHEM_BOND_DEF_STEREO_COUNT>  (1) 
0

>  <PUBCHEM_BOND_UDEF_STEREO_COUNT>  (1) 
0

>  <PUBCHEM_ISOTOPIC_ATOM_COUNT>  (1) 
0

>  <PUBCHEM_COMPONENT_COUNT>  (1) 
1

>  <PUBCHEM_CACTVS_TAUTO_COUNT>  (1) 
1

>  <PUBCHEM_CONFORMER_ID>  (1) 
0000682800000002

>  <PUBCHEM_MMFF94_ENERGY>  (1) 
19.1881

>  <PUBCHEM_FEATURE_SELFOVERLAP>  (1) 
5.074

>  <PUBCHEM_SHAPE_FINGERPRINT>  (1) 
10062212 137 17680426646335623498
11578080 2 17917699184881696569
14817 1 12088309179910432665
15502708 8 18266178340301786445
15775835 57 17175197694439087532
16945 1 18194961829572076112
17134986 127 17396416109358277117
20231682 184 12396565365139594099
20344682 6 18337964488190553342
20645476 183 17615126581667593671
20645477 70 17759227884800490727
20671657 53 18339931527393578599
20711985 344 18262230007068286753
20871999 31 18334289869123461871
21501502 16 18263084314681321526
21524375 3 17248933130146240973
22802520 49 18270393893388687189
23402539 116 18261386767454241470
23557571 272 18265876030148559552
23559900 14 17694778524833027942
2748010 2 18265041625483007269
298252 57 17396708583751156608
5845 1 13828984817070464586
59915604 170 17895482543214279146
68419 9 17534321367576887601
7364860 26 17906169908396203973
81228 2 18333733490074734457

>  <PUBCHEM_SHAPE_MULTIPOLES>  (1) 
303.41
5.54
3.42
1.56
2.04
3.61
-1.57
-4.46
2.13
2.41
1.46
-0.47
0.19
0.49

>  <PUBCHEM_SHAPE_SELFOVERLAP>  (1) 
541.043

>  <PUBCHEM_SHAPE_VOLUME>  (1) 
198.7

>  <PUBCHEM_COORDINATE_TYPE>  (1) 
2
5
10

$$$$
