26669
     RDKit          3D

 30 32  0  0  1  0  0  0  0  0999 V2000
   -3.4604    1.9238   -0.5775 O   0  0  0  0  0  0  0  0  0  0  0  0
    2.7076    1.0807   -1.7104 O   0  0  0  0  0  0  0  0  0  0  0  0
   -6.5151    0.4914    0.9066 N   0  0  0  0  0  0  0  0  0  0  0  0
    3.9997   -0.6220   -0.1069 N   0  0  0  0  0  0  0  0  0  0  0  0
   -5.6772    1.1785   -0.0754 C   0  0  0  0  0  0  0  0  0  0  0  0
    2.5669   -0.5182    0.0993 C   0  0  0  0  0  0  0  0  0  0  0  0
   -7.9239    0.8240    0.6987 C   0  0  0  0  0  0  0  0  0  0  0  0
   -6.3143   -0.9550    0.8269 C   0  0  0  0  0  0  0  0  0  0  0  0
   -4.2400    1.2660    0.4127 C   0  0  0  0  0  0  0  0  0  0  0  0
    1.9437   -1.8859   -0.0726 C   0  0  0  0  0  0  0  0  0  0  0  0
    1.9717    0.5338   -0.8637 C   0  0  0  0  0  0  0  0  0  0  0  0
    0.5643    0.8929   -0.7900 C   0  0  0  0  0  0  0  0  0  0  0  0
   -8.4031    0.3557   -0.6648 C   0  0  0  0  0  0  0  0  0  0  0  0
   -7.1313   -1.6817    1.8818 C   0  0  0  0  0  0  0  0  0  0  0  0
   -2.1349    1.5829   -0.6478 C   0  0  0  0  0  0  0  0  0  0  0  0
    4.9050    0.3159    0.3509 C   0  0  0  0  0  0  0  0  0  0  0  0
   -0.1121    1.3036   -1.9387 C   0  0  0  0  0  0  0  0  0  0  0  0
   -0.1090    0.8273    0.4299 C   0  0  0  0  0  0  0  0  0  0  0  0
    1.8542   -2.7535    1.0160 C   0  0  0  0  0  0  0  0  0  0  0  0
    1.4588   -2.2796   -1.3198 C   0  0  0  0  0  0  0  0  0  0  0  0
   -1.4617    1.6485   -1.8676 C   0  0  0  0  0  0  0  0  0  0  0  0
   -1.4586    1.1723    0.5011 C   0  0  0  0  0  0  0  0  0  0  0  0
    1.2800   -4.0148    0.8575 C   0  0  0  0  0  0  0  0  0  0  0  0
    0.8843   -3.5408   -1.4784 C   0  0  0  0  0  0  0  0  0  0  0  0
    6.2686    0.1429    0.1131 C   0  0  0  0  0  0  0  0  0  0  0  0
    4.4557    1.4361    1.0499 C   0  0  0  0  0  0  0  0  0  0  0  0
    0.7950   -4.4084   -0.3897 C   0  0  0  0  0  0  0  0  0  0  0  0
    7.1827    1.0900    0.5744 C   0  0  0  0  0  0  0  0  0  0  0  0
    5.3699    2.3834    1.5111 C   0  0  0  0  0  0  0  0  0  0  0  0
    6.7334    2.2102    1.2734 C   0  0  0  0  0  0  0  0  0  0  0  0
  1  9  1  0
  1 15  1  0
  2 11  2  0
  3  5  1  0
  3  7  1  0
  3  8  1  0
  4  6  1  0
  4 16  1  0
  5  9  1  0
  6 10  1  0
  6 11  1  0
  7 13  1  0
  8 14  1  0
 10 19  2  0
 10 20  1  0
 11 12  1  0
 12 17  2  0
 12 18  1  0
 15 21  2  0
 15 22  1  0
 16 25  2  0
 16 26  1  0
 17 21  1  0
 18 22  2  0
 19 23  1  0
 20 24  2  0
 23 27  2  0
 24 27  1  0
 25 28  1  0
 26 29  2  0
 28 30  2  0
 29 30  1  0
M  END
>  <PUBCHEM_COMPOUND_CID>  (1) 
26669

>  <PUBCHEM_CONFORMER_RMSD>  (1) 
1.4

>  <PUBCHEM_CONFORMER_DIVERSEORDER>  (1) 
1
3
32
39
17
14
12
21
37
13
28
45
19
41
27
29
36
38
22
26
5
8
9
10
6
34
33
15
30
25
42
4
31
24
40
7
20
18
43
44
11
16
35
23
2

>  <PUBCHEM_MMFF94_PARTIAL_CHARGES>  (1) 
43
1 -0.36
10 -0.14
11 0.42
12 0.09
15 0.08
16 0.1
17 -0.15
18 -0.15
19 -0.15
2 -0.57
20 -0.15
21 -0.15
22 -0.15
23 -0.15
24 -0.15
25 -0.15
26 -0.15
27 -0.15
28 -0.15
29 -0.15
3 -0.81
30 -0.15
4 -0.87
40 0.4
47 0.15
48 0.15
49 0.15
5 0.27
50 0.15
51 0.15
52 0.15
53 0.15
54 0.15
55 0.15
56 0.15
57 0.15
58 0.15
59 0.15
6 0.57
60 0.15
7 0.27
8 0.27
9 0.28

>  <PUBCHEM_EFFECTIVE_ROTOR_COUNT>  (1) 
11

>  <PUBCHEM_PHARMACOPHORE_FEATURES>  (1) 
8
1 1 acceptor
1 2 acceptor
1 3 cation
1 4 cation
1 4 donor
6 10 19 20 23 24 27 rings
6 12 15 17 18 21 22 rings
6 16 25 26 28 29 30 rings

>  <PUBCHEM_HEAVY_ATOM_COUNT>  (1) 
30

>  <PUBCHEM_ATOM_DEF_STEREO_COUNT>  (1) 
0

>  <PUBCHEM_ATOM_UDEF_STEREO_COUNT>  (1) 
1

>  <PUBCHEM_BOND_DEF_STEREO_COUNT>  (1) 
0

>  <PUBCHEM_BOND_UDEF_STEREO_COUNT>  (1) 
0

>  <PUBCHEM_ISOTOPIC_ATOM_COUNT>  (1) 
0

>  <PUBCHEM_COMPONENT_COUNT>  (1) 
1

>  <PUBCHEM_CACTVS_TAUTO_COUNT>  (1) 
3

>  <PUBCHEM_CONFORMER_ID>  (1) 
0000682D00000001

>  <PUBCHEM_MMFF94_ENERGY>  (1) 
99.071

>  <PUBCHEM_FEATURE_SELFOVERLAP>  (1) 
40.596

>  <PUBCHEM_SHAPE_FINGERPRINT>  (1) 
10165383 225 18410011049275532448
10258939 38 17749383724393422329
10674148 151 13542463159883146844
11136131 41 18260261911310011251
11421498 54 17274262725759970082
11719270 70 18333453144494522421
11828422 8 13264973993906092551
12440610 7 17317587800078599421
12596602 18 17775010046792323769
12788726 201 17906141274213654066
12977781 61 16228832724648308175
13692114 37 18337111266830353955
14068700 686 18337389318792177821
14394314 77 18342739612083793169
14565420 104 18342734113823729160
15183329 4 8935009174127050557
16992610 120 18337401543513859788
19315958 150 18341899537997437689
21033648 29 18270667797208669144
21049683 118 18055320709572094626
21197605 99 18408327695987360283
21521721 280 18272930544329404712
21781051 124 18334301938303504994
22149856 69 18265073379030665673
22224240 67 18412823598858613180
22956985 138 17534897477912081818
23572383 38 18113346284851018171
255183 313 18338225072609976926
3178227 256 18412262852455900312
340366 18 11098150966949112137
4173938 188 17987793146670279691
4173938 306 18041262332414217325
4258327 124 18116158955981073788
4339292 15 11531026445629258360
4340502 62 18342740710603462236
437795 51 18059855086217819456
4874694 18 18334852798076715445
508180 173 10231757790673927287
54076057 255 14764623122881833939
59755656 520 18341319060134652108
6081469 158 11963384134121824784
6086070 43 10735866288339273645
6523845 18 18408888400458051310
7399639 24 18261947432490732780

>  <PUBCHEM_SHAPE_MULTIPOLES>  (1) 
595.69
20.42
4.07
1.61
30
6.26
-0.3
-10.88
10.12
-3.06
-0.01
0.28
-0.09
2.5

>  <PUBCHEM_SHAPE_SELFOVERLAP>  (1) 
1260.771

>  <PUBCHEM_SHAPE_VOLUME>  (1) 
333.1

>  <PUBCHEM_COORDINATE_TYPE>  (1) 
2
5
10

$$$$
