2666
     RDKit          3D

 24 26  0  0  1  0  0  0  0  0999 V2000
   -1.6544    1.5233    1.9046 S   0  0  0  0  0  0  0  0  0  0  0  0
   -2.2527   -2.5773   -0.2076 O   0  0  0  0  0  0  0  0  0  0  0  0
    2.0813   -0.7991    1.8220 O   0  0  0  0  0  0  0  0  0  0  0  0
   -4.5848   -0.3578   -2.1544 O   0  0  0  0  0  0  0  0  0  0  0  0
   -5.4252   -1.2251   -0.2122 O   0  0  0  0  0  0  0  0  0  0  0  0
   -2.4287   -0.2433    0.0798 N   0  0  0  0  0  0  0  0  0  0  0  0
    0.6356   -1.1289    0.0394 N   0  0  0  0  0  0  0  0  0  0  0  0
    3.7091   -2.5756    0.1032 N   0  0  0  0  0  0  0  0  0  0  0  0
   -1.2448    0.4988    0.4732 C   0  0  0  0  0  0  0  0  0  0  0  0
   -0.6018   -0.8731    0.7726 C   0  0  0  0  0  0  0  0  0  0  0  0
   -1.8706   -1.4732    0.1022 C   0  0  0  0  0  0  0  0  0  0  0  0
   -3.6307    0.3335   -0.1783 C   0  0  0  0  0  0  0  0  0  0  0  0
   -2.9296    2.4675    1.0028 C   0  0  0  0  0  0  0  0  0  0  0  0
   -3.8965    1.6092    0.1901 C   0  0  0  0  0  0  0  0  0  0  0  0
    1.8971   -1.0695    0.6363 C   0  0  0  0  0  0  0  0  0  0  0  0
   -5.1742    2.3463   -0.1319 C   0  0  0  0  0  0  0  0  0  0  0  0
   -4.6519   -0.5099   -0.8170 C   0  0  0  0  0  0  0  0  0  0  0  0
    3.0323   -1.3539   -0.3410 C   0  0  0  0  0  0  0  0  0  0  0  0
    3.9755   -0.1722   -0.4317 C   0  0  0  0  0  0  0  0  0  0  0  0
    3.7340    0.8126   -1.3730 C   0  0  0  0  0  0  0  0  0  0  0  0
    5.0564   -0.1044    0.4291 C   0  0  0  0  0  0  0  0  0  0  0  0
    4.6023    1.9010   -1.4565 C   0  0  0  0  0  0  0  0  0  0  0  0
    5.9247    0.9842    0.3456 C   0  0  0  0  0  0  0  0  0  0  0  0
    5.6975    1.9869   -0.5972 C   0  0  0  0  0  0  0  0  0  0  0  0
  1  9  1  0
  1 13  1  0
  2 11  2  0
  3 15  2  0
  4 17  1  0
  5 17  2  0
  6  9  1  0
  6 11  1  0
  6 12  1  0
  7 10  1  0
  7 15  1  0
  8 18  1  0
  9 10  1  0
 10 11  1  0
 12 14  2  0
 12 17  1  0
 13 14  1  0
 14 16  1  0
 15 18  1  0
 18 19  1  0
 19 20  2  0
 19 21  1  0
 20 22  1  0
 21 23  2  0
 22 24  2  0
 23 24  1  0
M  END
>  <PUBCHEM_COMPOUND_CID>  (1) 
2666

>  <PUBCHEM_CONFORMER_RMSD>  (1) 
0.8

>  <PUBCHEM_CONFORMER_DIVERSEORDER>  (1) 
1
28
33
79
2
43
63
31
42
44
64
53
54
56
76
12
73
67
46
81
68
37
23
71
77
5
21
20
3
34
72
14
49
4
59
69
7
30
22
52
58
41
47
38
55
18
61
36
70
80
74
13
19
66
51
39
35
8
11
78
32
6
57
48
10
45
29
15
50
27
62
60
65
24
40
9
75
16
26
25
17

>  <PUBCHEM_MMFF94_PARTIAL_CHARGES>  (1) 
33
1 -0.45
10 0.28
11 0.58
12 0.12
13 0.37
14 -0.28
15 0.57
16 0.14
17 0.71
18 0.47
19 -0.14
2 -0.57
20 -0.15
21 -0.15
22 -0.15
23 -0.15
24 -0.15
27 0.37
3 -0.57
34 0.36
35 0.36
36 0.5
37 0.15
38 0.15
39 0.15
4 -0.65
40 0.15
41 0.15
5 -0.57
6 -0.39
7 -0.65
8 -0.99
9 0.44

>  <PUBCHEM_EFFECTIVE_ROTOR_COUNT>  (1) 
5.6

>  <PUBCHEM_PHARMACOPHORE_FEATURES>  (1) 
11
1 2 acceptor
1 3 acceptor
1 4 acceptor
1 5 acceptor
1 7 donor
1 8 cation
1 8 donor
3 4 5 17 anion
4 6 9 10 11 rings
6 1 6 9 12 13 14 rings
6 19 20 21 22 23 24 rings

>  <PUBCHEM_HEAVY_ATOM_COUNT>  (1) 
24

>  <PUBCHEM_ATOM_DEF_STEREO_COUNT>  (1) 
0

>  <PUBCHEM_ATOM_UDEF_STEREO_COUNT>  (1) 
3

>  <PUBCHEM_BOND_DEF_STEREO_COUNT>  (1) 
0

>  <PUBCHEM_BOND_UDEF_STEREO_COUNT>  (1) 
0

>  <PUBCHEM_ISOTOPIC_ATOM_COUNT>  (1) 
0

>  <PUBCHEM_COMPONENT_COUNT>  (1) 
1

>  <PUBCHEM_CACTVS_TAUTO_COUNT>  (1) 
2

>  <PUBCHEM_CONFORMER_ID>  (1) 
00000A6A00000001

>  <PUBCHEM_MMFF94_ENERGY>  (1) 
67.33

>  <PUBCHEM_FEATURE_SELFOVERLAP>  (1) 
56.135

>  <PUBCHEM_SHAPE_FINGERPRINT>  (1) 
10319926 262 12901542403865520128
10498660 4 18201444662115403344
10595046 47 18412261735542538774
10670039 82 18339095826043451356
10928967 22 11815622926459492380
11089746 13 17821727200507937922
12236239 1 18335417950356680378
12616971 3 18261676948102814569
12633257 1 16515965990754664620
12788726 201 17703796855777304873
14251757 5 18130505327184848359
14420673 8 8501835686487033248
14528608 73 18412827993084897812
14739800 52 18342160194977644920
14767858 380 18341321293090670607
14790565 3 17697049041660626145
15840311 113 18117003174610266389
16994733 274 16805874080302116373
17959699 21 18334859402792236160
1813 80 12823290187308084962
20511986 3 18335971026470574828
20715895 44 18263642866440954412
21033648 144 18040435473188163150
21033648 29 15864353493721936071
21315763 76 18113329838761936964
22950370 63 10447928369374158636
235170 7 16486984972738289084
23559900 14 17986951839053129870
245318 6 17533520043002741956
2838139 119 18409449202543221796
3004659 81 18270679745501925658
3472631 163 18409170986887357436
34797466 226 17632305630845480916
46194498 28 15985099752209282480
465052 167 8646772201443311176
474 4 17967537900154488218
5104073 3 17894635824692575115
543368 44 18410293640094414045
633830 44 18189336771271820267
67856867 119 18338793421458907554
7237137 82 18202279200199592141
7970288 3 10807939232696253708
9981440 41 18409172116501160538

>  <PUBCHEM_SHAPE_MULTIPOLES>  (1) 
459.34
14.43
2.6
1.4
6.4
0.16
-0.02
5.61
-4.21
-0.53
0.1
-0.22
0.36
-1.82

>  <PUBCHEM_SHAPE_SELFOVERLAP>  (1) 
970.425

>  <PUBCHEM_SHAPE_VOLUME>  (1) 
259.2

>  <PUBCHEM_COORDINATE_TYPE>  (1) 
2
5
10

$$$$
