26679
     RDKit          3D

 20 21  0  0  0  0  0  0  0  0999 V2000
   -0.0379   -0.2066    1.8022 O   0  0  0  0  0  0  0  0  0  0  0  0
   -0.8635   -1.6088   -1.1351 O   0  0  0  0  0  0  0  0  0  0  0  0
    1.4760    1.6663    0.0452 N   0  0  0  0  0  0  0  0  0  0  0  0
    3.8815   -1.2114    0.1061 N   0  0  0  0  0  0  0  0  0  0  0  0
    2.4850    0.7490    0.5673 C   0  0  0  0  0  0  0  0  0  0  0  0
    2.8519   -0.3314   -0.4458 C   0  0  0  0  0  0  0  0  0  0  0  0
    0.1282    1.5087    0.1671 C   0  0  0  0  0  0  0  0  0  0  0  0
    1.7633    2.8090   -0.6395 C   0  0  0  0  0  0  0  0  0  0  0  0
   -0.4693    2.5817   -0.4565 C   0  0  0  0  0  0  0  0  0  0  0  0
   -0.5155    0.4160    0.8303 C   0  0  0  0  0  0  0  0  0  0  0  0
    0.5651    3.4044   -0.9667 C   0  0  0  0  0  0  0  0  0  0  0  0
   -1.8681   -0.0672    0.4028 C   0  0  0  0  0  0  0  0  0  0  0  0
    4.2664   -2.2255   -0.8748 C   0  0  0  0  0  0  0  0  0  0  0  0
    3.4074   -1.8441    1.3363 C   0  0  0  0  0  0  0  0  0  0  0  0
   -1.9616   -1.0495   -0.5530 C   0  0  0  0  0  0  0  0  0  0  0  0
   -2.9665    0.5071    0.9976 C   0  0  0  0  0  0  0  0  0  0  0  0
   -3.2298   -1.4846   -0.9379 C   0  0  0  0  0  0  0  0  0  0  0  0
   -4.2346    0.0721    0.6124 C   0  0  0  0  0  0  0  0  0  0  0  0
   -4.3663   -0.9237   -0.3553 C   0  0  0  0  0  0  0  0  0  0  0  0
   -0.3118   -2.7617   -0.5027 C   0  0  0  0  0  0  0  0  0  0  0  0
  1 10  2  0
  2 15  1  0
  2 20  1  0
  3  5  1  0
  3  7  1  0
  3  8  1  0
  4  6  1  0
  4 13  1  0
  4 14  1  0
  5  6  1  0
  7  9  2  0
  7 10  1  0
  8 11  2  0
  9 11  1  0
 10 12  1  0
 12 15  2  0
 12 16  1  0
 15 17  1  0
 16 18  2  0
 17 19  2  0
 18 19  1  0
M  END
>  <PUBCHEM_COMPOUND_CID>  (1) 
26679

>  <PUBCHEM_CONFORMER_RMSD>  (1) 
0.8

>  <PUBCHEM_CONFORMER_DIVERSEORDER>  (1) 
9
71
86
85
89
15
55
47
69
66
23
70
41
64
46
40
79
81
76
25
77
57
74
49
53
54
12
60
73
88
87
42
45
32
80
48
35
14
24
83
52
62
34
78
75
4
61
28
18
56
82
65
16
27
67
37
43
8
13
68
50
59
21
11
63
7
31
17
29
22
44
51
72
20
3
33
84
58
36
30
6
1
39
5
19
38
2
10
26

>  <PUBCHEM_MMFF94_PARTIAL_CHARGES>  (1) 
27
1 -0.57
10 0.57
11 -0.15
12 0.09
13 0.27
14 0.27
15 0.08
16 -0.15
17 -0.15
18 -0.15
19 -0.15
2 -0.36
20 0.28
25 0.15
26 0.15
27 0.15
3 0.05
34 0.15
35 0.15
36 0.15
37 0.15
4 -0.81
5 0.26
6 0.27
7 -0.24
8 -0.3
9 -0.15

>  <PUBCHEM_EFFECTIVE_ROTOR_COUNT>  (1) 
6

>  <PUBCHEM_PHARMACOPHORE_FEATURES>  (1) 
6
1 1 acceptor
1 2 acceptor
1 3 cation
1 4 cation
5 3 7 8 9 11 rings
6 12 15 16 17 18 19 rings

>  <PUBCHEM_HEAVY_ATOM_COUNT>  (1) 
20

>  <PUBCHEM_ATOM_DEF_STEREO_COUNT>  (1) 
0

>  <PUBCHEM_ATOM_UDEF_STEREO_COUNT>  (1) 
0

>  <PUBCHEM_BOND_DEF_STEREO_COUNT>  (1) 
0

>  <PUBCHEM_BOND_UDEF_STEREO_COUNT>  (1) 
0

>  <PUBCHEM_ISOTOPIC_ATOM_COUNT>  (1) 
0

>  <PUBCHEM_COMPONENT_COUNT>  (1) 
1

>  <PUBCHEM_CACTVS_TAUTO_COUNT>  (1) 
1

>  <PUBCHEM_CONFORMER_ID>  (1) 
0000683700000009

>  <PUBCHEM_MMFF94_ENERGY>  (1) 
61.6744

>  <PUBCHEM_FEATURE_SELFOVERLAP>  (1) 
30.446

>  <PUBCHEM_SHAPE_FINGERPRINT>  (1) 
10062212 137 17988923409862890343
104564 63 18119529838780568980
11578080 2 18129639959572714688
116883 192 18409162186578774876
12403259 327 16200426983489003522
12422481 6 17838352791240551593
12553582 1 18335417933382721458
12788726 201 18116435830482762266
13009979 54 18130517400358594275
14178342 30 17837195348803905272
14840074 17 18264473157329917896
15279307 12 17908149020150684333
15442244 35 18412548729837282177
15848702 151 18335979861202166597
16945 1 18040710415851945369
17492 89 18268149949476952919
17818456 19 18059024878025517961
1813 80 18408602539533753794
20645476 183 18053670458239975871
20645477 70 18189331436832365025
20905425 154 17835524821390475774
2255824 54 18264210394924185956
22907989 373 18045506305336730604
23419403 2 16551370213049377128
23463225 33 18342177803763016613
23559900 14 16701757011281999244
23598291 2 18340777012821884377
6992083 37 18270412602567182153
9981440 41 17258489471198460985

>  <PUBCHEM_SHAPE_MULTIPOLES>  (1) 
389.89
7.21
3.49
1.22
0.36
1.88
-0.24
-5.04
-0.04
-2.38
1.34
-0.09
-0.22
-0.73

>  <PUBCHEM_SHAPE_SELFOVERLAP>  (1) 
822.219

>  <PUBCHEM_SHAPE_VOLUME>  (1) 
222.1

>  <PUBCHEM_COORDINATE_TYPE>  (1) 
2
5
10

$$$$
