26671
     RDKit          3D

 22 25  0  0  0  0  0  0  0  0999 V2000
   -3.5277    0.0006    2.4765 Cl  0  0  0  0  0  0  0  0  0  0  0  0
   -0.9601    0.0006    0.8413 N   0  0  0  0  0  0  0  0  0  0  0  0
    3.0586   -0.0009   -0.3499 N   0  0  0  0  0  0  0  0  0  0  0  0
    0.4027    0.0002    0.4372 C   0  0  0  0  0  0  0  0  0  0  0  0
    1.0678    1.2146    0.2402 C   0  0  0  0  0  0  0  0  0  0  0  0
    1.0668   -1.2147    0.2403 C   0  0  0  0  0  0  0  0  0  0  0  0
    2.4142    1.1665   -0.1588 C   0  0  0  0  0  0  0  0  0  0  0  0
    2.4133   -1.1678   -0.1587 C   0  0  0  0  0  0  0  0  0  0  0  0
    0.4250    2.4502    0.4310 C   0  0  0  0  0  0  0  0  0  0  0  0
    0.4231   -2.4499    0.4311 C   0  0  0  0  0  0  0  0  0  0  0  0
   -2.1587    0.0001    0.1158 C   0  0  0  0  0  0  0  0  0  0  0  0
    3.0818    2.3723   -0.3566 C   0  0  0  0  0  0  0  0  0  0  0  0
    3.0800   -2.3740   -0.3564 C   0  0  0  0  0  0  0  0  0  0  0  0
    1.1150    3.6414    0.2268 C   0  0  0  0  0  0  0  0  0  0  0  0
    1.1121   -3.6417    0.2268 C   0  0  0  0  0  0  0  0  0  0  0  0
    2.4461    3.6020   -0.1678 C   0  0  0  0  0  0  0  0  0  0  0  0
    2.4433   -3.6032   -0.1679 C   0  0  0  0  0  0  0  0  0  0  0  0
   -3.4065    0.0005    0.7534 C   0  0  0  0  0  0  0  0  0  0  0  0
   -2.1080    0.0002   -1.2841 C   0  0  0  0  0  0  0  0  0  0  0  0
   -4.5828    0.0011    0.0035 C   0  0  0  0  0  0  0  0  0  0  0  0
   -3.2844    0.0007   -2.0337 C   0  0  0  0  0  0  0  0  0  0  0  0
   -4.5217    0.0011   -1.3899 C   0  0  0  0  0  0  0  0  0  0  0  0
  1 18  1  0
  2  4  1  0
  2 11  1  0
  3  7  2  0
  3  8  1  0
  4  5  2  0
  4  6  1  0
  5  7  1  0
  5  9  1  0
  6  8  2  0
  6 10  1  0
  7 12  1  0
  8 13  1  0
  9 14  2  0
 10 15  2  0
 11 18  2  0
 11 19  1  0
 12 16  2  0
 13 17  2  0
 14 16  1  0
 15 17  1  0
 18 20  1  0
 19 21  2  0
 20 22  2  0
 21 22  1  0
M  END
>  <PUBCHEM_COMPOUND_CID>  (1) 
26671

>  <PUBCHEM_CONFORMER_RMSD>  (1) 
0.6

>  <PUBCHEM_CONFORMER_DIVERSEORDER>  (1) 
1
4
3
2

>  <PUBCHEM_MMFF94_PARTIAL_CHARGES>  (1) 
33
1 -0.18
10 -0.15
11 0.1
12 -0.15
13 -0.15
14 -0.15
15 -0.15
16 -0.15
17 -0.15
18 0.18
19 -0.15
2 -0.6
20 -0.15
21 -0.15
22 -0.15
23 0.4
24 0.15
25 0.15
26 0.15
27 0.15
28 0.15
29 0.15
3 -0.62
30 0.15
31 0.15
32 0.15
33 0.15
34 0.15
35 0.15
4 0.1
7 0.31
8 0.31
9 -0.15

>  <PUBCHEM_EFFECTIVE_ROTOR_COUNT>  (1) 
2

>  <PUBCHEM_PHARMACOPHORE_FEATURES>  (1) 
7
1 2 cation
1 2 donor
1 3 acceptor
6 11 18 19 20 21 22 rings
6 3 4 5 6 7 8 rings
6 5 7 9 12 14 16 rings
6 6 8 10 13 15 17 rings

>  <PUBCHEM_HEAVY_ATOM_COUNT>  (1) 
22

>  <PUBCHEM_ATOM_DEF_STEREO_COUNT>  (1) 
0

>  <PUBCHEM_ATOM_UDEF_STEREO_COUNT>  (1) 
0

>  <PUBCHEM_BOND_DEF_STEREO_COUNT>  (1) 
0

>  <PUBCHEM_BOND_UDEF_STEREO_COUNT>  (1) 
0

>  <PUBCHEM_ISOTOPIC_ATOM_COUNT>  (1) 
0

>  <PUBCHEM_COMPONENT_COUNT>  (1) 
1

>  <PUBCHEM_CACTVS_TAUTO_COUNT>  (1) 
2

>  <PUBCHEM_CONFORMER_ID>  (1) 
0000682F00000001

>  <PUBCHEM_MMFF94_ENERGY>  (1) 
90.8332

>  <PUBCHEM_FEATURE_SELFOVERLAP>  (1) 
35.583

>  <PUBCHEM_SHAPE_FINGERPRINT>  (1) 
10165383 225 17829081987935787173
10411042 1 18050290271412350978
10693767 8 18130790040756928382
10967382 1 18410863157242416770
1100329 8 18338797931369500146
11101153 10 18120940495911595958
116883 192 17692243037073301127
11725454 13 17460006665324803837
12236239 1 17703793613261261211
12553582 1 18195536891349681050
12730499 353 18263081171050012943
12788726 201 17182491802811052339
13004483 165 17690824680101283719
13009979 54 17632298917621751643
13134695 92 18337105653402602254
13140716 1 18266743670125733560
13681431 1 18265319638689210112
138480 1 18338517426496034154
13911987 19 18261691289605797270
14790565 3 18266486315670604416
15842332 3 17917998274188589803
16087824 20 17329713115842702513
17138139 8 17196826582974905311
17539 30 17474660655583747438
17818456 19 17415848981521643017
1813 80 17914627054957124582
18219364 16 18190183566944668001
19591789 44 17977959204037296786
19930381 70 18337107973112242113
20101258 96 17835251043079419234
20645477 70 18334852823002461515
21041028 32 18050016497189883779
21524375 3 17900253414472412376
21639500 275 18410289246163151829
22112679 90 17489308534214537321
2255824 54 18341609330249771542
22907989 373 16894828233567526500
23526113 38 18041556919430054667
23598291 2 17988653951850959977
238 59 18190997158314995383
25 1 18337670948471723764
2748010 2 18050021175110830496
3060560 45 18337944696823127852
3091708 16 9000104652037162912
350125 39 17832714843289271842
3886686 26 17478576446557304784
474 4 18341329014967075705
59025328 239 17552027920031639031
633830 44 17985853598687940821
6443956 14 18265331711873953748
7471813 234 18199171915281699364
77492 1 17703795812321420641
81228 2 17472119692664748320
8272917 22 18412267233633297709

>  <PUBCHEM_SHAPE_MULTIPOLES>  (1) 
444.66
7.19
4.38
1.39
8.01
0
0.18
-0.01
-1.16
-6.73
0.15
2.31
0
0

>  <PUBCHEM_SHAPE_SELFOVERLAP>  (1) 
994.975

>  <PUBCHEM_SHAPE_VOLUME>  (1) 
233.3

>  <PUBCHEM_COORDINATE_TYPE>  (1) 
2
5
10

$$$$
