26681
     RDKit          3D

 21 22  0  0  1  0  0  0  0  0999 V2000
    0.0183   -1.1411    0.0658 O   0  0  0  0  0  0  0  0  0  0  0  0
   -2.1474   -2.2471   -0.7330 O   0  0  0  0  0  0  0  0  0  0  0  0
    1.4320    1.4566    0.1894 N   0  0  0  0  0  0  0  0  0  0  0  0
    3.9404   -1.3003    0.6701 N   0  0  0  0  0  0  0  0  0  0  0  0
    3.1398   -0.3566   -0.1091 C   0  0  0  0  0  0  0  0  0  0  0  0
    2.3214    0.5113    0.8591 C   0  0  0  0  0  0  0  0  0  0  0  0
    4.0764    0.4698   -0.9894 C   0  0  0  0  0  0  0  0  0  0  0  0
    0.1435    1.2049   -0.1739 C   0  0  0  0  0  0  0  0  0  0  0  0
    1.7883    2.7245   -0.1598 C   0  0  0  0  0  0  0  0  0  0  0  0
    4.6857   -2.1927   -0.2170 C   0  0  0  0  0  0  0  0  0  0  0  0
    3.0864   -2.0724    1.5719 C   0  0  0  0  0  0  0  0  0  0  0  0
   -0.3441    2.3444   -0.7750 C   0  0  0  0  0  0  0  0  0  0  0  0
    0.6964    3.3057   -0.7660 C   0  0  0  0  0  0  0  0  0  0  0  0
   -0.5465   -0.0298    0.0442 C   0  0  0  0  0  0  0  0  0  0  0  0
   -2.0287   -0.0633    0.2507 C   0  0  0  0  0  0  0  0  0  0  0  0
   -2.7415   -1.1685   -0.1492 C   0  0  0  0  0  0  0  0  0  0  0  0
   -2.6160    1.0324    0.8395 C   0  0  0  0  0  0  0  0  0  0  0  0
   -4.1220   -1.1795    0.0511 C   0  0  0  0  0  0  0  0  0  0  0  0
   -3.9965    1.0213    1.0397 C   0  0  0  0  0  0  0  0  0  0  0  0
   -4.7494   -0.0846    0.6455 C   0  0  0  0  0  0  0  0  0  0  0  0
   -2.0366   -2.2349   -2.1546 C   0  0  0  0  0  0  0  0  0  0  0  0
  1 14  2  0
  2 16  1  0
  2 21  1  0
  3  6  1  0
  3  8  1  0
  3  9  1  0
  4  5  1  0
  4 10  1  0
  4 11  1  0
  5  6  1  0
  5  7  1  0
  8 12  2  0
  8 14  1  0
  9 13  2  0
 12 13  1  0
 14 15  1  0
 15 16  2  0
 15 17  1  0
 16 18  1  0
 17 19  2  0
 18 20  2  0
 19 20  1  0
M  END
>  <PUBCHEM_COMPOUND_CID>  (1) 
26681

>  <PUBCHEM_CONFORMER_RMSD>  (1) 
0.8

>  <PUBCHEM_CONFORMER_DIVERSEORDER>  (1) 
38
119
114
96
95
109
63
37
68
118
116
23
90
69
56
93
110
115
92
61
22
20
111
86
120
36
73
87
80
99
44
104
49
67
41
105
83
88
77
102
91
18
21
117
94
84
19
76
71
101
89
72
6
106
43
39
75
30
25
112
7
24
12
98
26
85
51
35
108
74
33
54
46
48
15
40
9
32
52
97
29
78
11
60
57
14
5
65
47
66
16
53
31
8
107
82
42
27
3
103
113
10
79
50
17
59
81
13
70
2
4
64
1
34
28
62
45
100
58
55

>  <PUBCHEM_MMFF94_PARTIAL_CHARGES>  (1) 
27
1 -0.57
10 0.27
11 0.27
12 -0.15
13 -0.15
14 0.57
15 0.09
16 0.08
17 -0.15
18 -0.15
19 -0.15
2 -0.36
20 -0.15
21 0.28
28 0.15
3 0.05
35 0.15
36 0.15
37 0.15
38 0.15
39 0.15
4 -0.81
40 0.15
5 0.27
6 0.26
8 -0.24
9 -0.3

>  <PUBCHEM_EFFECTIVE_ROTOR_COUNT>  (1) 
6

>  <PUBCHEM_PHARMACOPHORE_FEATURES>  (1) 
6
1 1 acceptor
1 2 acceptor
1 3 cation
1 4 cation
5 3 8 9 12 13 rings
6 15 16 17 18 19 20 rings

>  <PUBCHEM_HEAVY_ATOM_COUNT>  (1) 
21

>  <PUBCHEM_ATOM_DEF_STEREO_COUNT>  (1) 
0

>  <PUBCHEM_ATOM_UDEF_STEREO_COUNT>  (1) 
1

>  <PUBCHEM_BOND_DEF_STEREO_COUNT>  (1) 
0

>  <PUBCHEM_BOND_UDEF_STEREO_COUNT>  (1) 
0

>  <PUBCHEM_ISOTOPIC_ATOM_COUNT>  (1) 
0

>  <PUBCHEM_COMPONENT_COUNT>  (1) 
1

>  <PUBCHEM_CACTVS_TAUTO_COUNT>  (1) 
1

>  <PUBCHEM_CONFORMER_ID>  (1) 
0000683900000026

>  <PUBCHEM_MMFF94_ENERGY>  (1) 
68.7841

>  <PUBCHEM_FEATURE_SELFOVERLAP>  (1) 
30.461

>  <PUBCHEM_SHAPE_FINGERPRINT>  (1) 
10062212 137 18272932756443251023
10369192 42 17199920540566671824
11578080 2 18055884758505211809
11725454 13 14548452467088026201
12403259 327 16343696638570120834
12553582 1 18334565816192555650
12633257 1 17704356537117948426
13009979 54 18272382966037581745
13140716 1 18341331175298410219
13533116 47 18266461095658779811
13583140 156 18113904913871959459
14178342 30 17907846659006443760
15042514 8 17975411317942259144
15099037 8 18126558149097260055
15375462 189 18260831479627413944
15442244 35 18411703218180119657
15536298 74 18270403922195644528
15537594 2 18335998514171325630
15664445 248 18267606713855703724
17349148 13 17989486338288279485
17492 89 18194966464037701411
17804303 29 18202568371166782313
17818456 19 18059866055960055625
1813 80 17821729429443191724
18222031 100 18411693275230362275
19141452 34 18201998802631925382
20291156 8 18408039589675323496
204376 136 11095874973674065544
2255824 54 18190182484665702164
22950370 63 18335148557207284930
23184049 59 18412827979936206281
235170 7 15213302989129302482
23558518 356 17905049505535829706
23559900 14 17275116058510704652
23598288 3 17827905235821699810
23598291 2 18269271438235396967
3091708 16 9860030467096614448
314173 41 18334582347447746850
335352 9 18337675213885997261
34934 24 18410578418080148036
4409770 3 17828474778355073212
465052 167 18336840740078416611
5104073 3 18271816773805663531
6992083 37 18342464716242378609
7064713 232 17917433064671005355
7097593 13 18340766069414006217
7164475 11 17984131836914975943
7364860 26 18196376042186632536
7970288 3 18261388906217113066
9981440 41 17329986314147928601

>  <PUBCHEM_SHAPE_MULTIPOLES>  (1) 
410.47
8.73
3.22
1.26
0.58
1.28
-0.29
-4.76
1.54
1.55
-0.92
-0.16
-0.6
-1.59

>  <PUBCHEM_SHAPE_SELFOVERLAP>  (1) 
867.791

>  <PUBCHEM_SHAPE_VOLUME>  (1) 
231.9

>  <PUBCHEM_COORDINATE_TYPE>  (1) 
2
5
10

$$$$
