2668
     RDKit          3D

 28 29  0  0  1  0  0  0  0  0999 V2000
   -1.3718   -0.5897    2.1530 S   0  0  0  0  0  0  0  0  0  0  0  0
   -1.0557    3.3231   -0.3389 O   0  0  0  0  0  0  0  0  0  0  0  0
   -5.2334   -1.8573   -0.2350 O   0  0  0  0  0  0  0  0  0  0  0  0
    2.4897   -0.3204    1.2098 O   0  0  0  0  0  0  0  0  0  0  0  0
   -4.4657    2.8142    0.0766 O   0  0  0  0  0  0  0  0  0  0  0  0
   -4.1016    1.7327   -1.9062 O   0  0  0  0  0  0  0  0  0  0  0  0
    8.1517    0.6417    0.4510 O   0  0  0  0  0  0  0  0  0  0  0  0
    7.9227   -1.4905    1.1868 O   0  0  0  0  0  0  0  0  0  0  0  0
   -7.5375   -1.7886   -0.0817 O   0  0  0  0  0  0  0  0  0  0  0  0
   -1.7980    1.1514    0.1945 N   0  0  0  0  0  0  0  0  0  0  0  0
    1.4131    1.2838   -0.0736 N   0  0  0  0  0  0  0  0  0  0  0  0
    7.0029   -2.3747   -1.2087 N   0  0  0  0  0  0  0  0  0  0  0  0
   -0.8187    0.1617    0.6052 C   0  0  0  0  0  0  0  0  0  0  0  0
    0.1723    1.3338    0.7194 C   0  0  0  0  0  0  0  0  0  0  0  0
   -0.9427    2.1886    0.0626 C   0  0  0  0  0  0  0  0  0  0  0  0
   -3.1227    0.8892    0.0534 C   0  0  0  0  0  0  0  0  0  0  0  0
   -3.6794   -0.2348    0.5643 C   0  0  0  0  0  0  0  0  0  0  0  0
   -2.9094   -1.2409    1.4168 C   0  0  0  0  0  0  0  0  0  0  0  0
    2.4738    0.4473    0.2512 C   0  0  0  0  0  0  0  0  0  0  0  0
   -5.1349   -0.6165    0.4313 C   0  0  0  0  0  0  0  0  0  0  0  0
    3.6385    0.6120   -0.7107 C   0  0  0  0  0  0  0  0  0  0  0  0
   -3.9864    1.9190   -0.6669 C   0  0  0  0  0  0  0  0  0  0  0  0
    4.8306   -0.2910   -0.3908 C   0  0  0  0  0  0  0  0  0  0  0  0
    5.9835   -0.1021   -1.3892 C   0  0  0  0  0  0  0  0  0  0  0  0
    7.2393   -0.9362   -1.0907 C   0  0  0  0  0  0  0  0  0  0  0  0
    7.7950   -0.6610    0.2955 C   0  0  0  0  0  0  0  0  0  0  0  0
   -6.5026   -2.3393   -0.4318 C   0  0  0  0  0  0  0  0  0  0  0  0
   -6.4527   -3.6554   -1.1470 C   0  0  0  0  0  0  0  0  0  0  0  0
  1 13  1  0
  1 18  1  0
  2 15  2  0
  3 20  1  0
  3 27  1  0
  4 19  2  0
  5 22  1  0
  6 22  2  0
  7 26  1  0
  8 26  2  0
  9 27  2  0
 10 13  1  0
 10 15  1  0
 10 16  1  0
 11 14  1  0
 11 19  1  0
 12 25  1  0
 13 14  1  0
 14 15  1  0
 16 17  2  0
 16 22  1  0
 17 18  1  0
 17 20  1  0
 19 21  1  0
 21 23  1  0
 23 24  1  0
 24 25  1  0
 25 26  1  0
 27 28  1  0
M  CHG  1   5  -1
M  END
>  <PUBCHEM_COMPOUND_CID>  (1) 
2668

>  <PUBCHEM_CONFORMER_RMSD>  (1) 
1.2

>  <PUBCHEM_CONFORMER_DIVERSEORDER>  (1) 
1
108
99
158
100
72
412
278
540
616
507
308
194
33
4
446
133
189
47
294
273
48
103
252
231
407
162
145
554
564
257
408
195
112
140
7
322
173
315
523
524
379
254
60
226
86
182
128
177
332
347
6
281
97
284
57
426
82
518
196
280
219
459
53
208
52
12
151
41
27
74
481
261
386
116
2
160
595
285
575
269
109
615
20
382
232
448
95
247
600
21
8
50
28
378
607
373
55
15
535
262
460
22
30
70
290
59
517
5
18
354
234
576
31
36
457
73
246
71
23
555
286
590
471
17
402
85
532
388
400
406
227
42
10
3
461
80
476
336
295
613
49
19
458
300
135
372
207
265
87
571
526
396
29
628

>  <PUBCHEM_MMFF94_PARTIAL_CHARGES>  (1) 
30
1 -0.45
10 -0.39
11 -0.65
12 -0.99
13 0.44
14 0.28
15 0.58
16 -0.14
17 -0.28
18 0.37
19 0.57
2 -0.57
20 0.42
21 0.06
22 1.05
25 0.33
26 0.66
27 0.66
28 0.06
3 -0.43
31 0.37
4 -0.57
43 0.36
44 0.36
48 0.5
5 -0.9
6 -0.9
7 -0.65
8 -0.57
9 -0.57

>  <PUBCHEM_EFFECTIVE_ROTOR_COUNT>  (1) 
11.6

>  <PUBCHEM_PHARMACOPHORE_FEATURES>  (1) 
14
1 11 donor
1 12 cation
1 12 donor
1 2 acceptor
1 4 acceptor
1 5 acceptor
1 6 acceptor
1 7 acceptor
1 8 acceptor
1 9 acceptor
3 5 6 22 anion
3 7 8 26 anion
4 10 13 14 15 rings
6 1 10 13 16 17 18 rings

>  <PUBCHEM_HEAVY_ATOM_COUNT>  (1) 
28

>  <PUBCHEM_ATOM_DEF_STEREO_COUNT>  (1) 
0

>  <PUBCHEM_ATOM_UDEF_STEREO_COUNT>  (1) 
3

>  <PUBCHEM_BOND_DEF_STEREO_COUNT>  (1) 
0

>  <PUBCHEM_BOND_UDEF_STEREO_COUNT>  (1) 
0

>  <PUBCHEM_ISOTOPIC_ATOM_COUNT>  (1) 
0

>  <PUBCHEM_COMPONENT_COUNT>  (1) 
1

>  <PUBCHEM_CACTVS_TAUTO_COUNT>  (1) 
2

>  <PUBCHEM_CONFORMER_ID>  (1) 
00000A6C00000001

>  <PUBCHEM_MMFF94_ENERGY>  (1) 
49.3198

>  <PUBCHEM_FEATURE_SELFOVERLAP>  (1) 
71.424

>  <PUBCHEM_SHAPE_FINGERPRINT>  (1) 
10 15 11959739265280075903
11315181 36 18342182133454665240
12954195 1 18408602548925859761
13540713 5 17460295687023459905
13668630 136 18060145336213759070
13690498 29 18333446552352875613
13782708 43 18273217474346896274
14849402 71 13829833756713234618
14931854 50 17676762141446631931
14933364 13 10303805476854798648
15183329 4 16877947127267903354
15461852 350 18410860950183004406
15706992 2 12107780775799905103
18603816 31 17203038695424311495
18643901 69 18409172117223210183
190975 80 17847062216439504770
19958102 18 17313105254844934946
2026 5 18340772555137338198
21130935 74 18059581231404829710
22864921 47 18338782452276470266
23198884 109 16950572081615730524
23559900 14 18335138687853142888
504579 68 17240196646969651570
5085150 59 18334856091884634962
5718773 13 18342739653936291662
59755656 520 14562827538066282632
999808 66 17846497045460484335

>  <PUBCHEM_SHAPE_MULTIPOLES>  (1) 
518.18
23.57
3.09
1.41
36.53
0.23
-0.22
19.51
5.4
-6.03
1.16
0.09
0.35
-0.07

>  <PUBCHEM_SHAPE_SELFOVERLAP>  (1) 
1052.437

>  <PUBCHEM_SHAPE_VOLUME>  (1) 
301.3

>  <PUBCHEM_COORDINATE_TYPE>  (1) 
2
5
10

$$$$
