2669
     RDKit          3D

 28 29  0  0  1  0  0  0  0  0999 V2000
   -1.3803   -0.5499    2.1804 S   0  0  0  0  0  0  0  0  0  0  0  0
   -1.0630    3.3343   -0.3546 O   0  0  0  0  0  0  0  0  0  0  0  0
   -5.2017   -1.8710   -0.2098 O   0  0  0  0  0  0  0  0  0  0  0  0
    2.4773   -0.3006    1.2197 O   0  0  0  0  0  0  0  0  0  0  0  0
   -4.0276    1.6243   -1.9263 O   0  0  0  0  0  0  0  0  0  0  0  0
   -4.4661    2.8733   -0.0613 O   0  0  0  0  0  0  0  0  0  0  0  0
    8.1390    0.6395    0.4307 O   0  0  0  0  0  0  0  0  0  0  0  0
    7.9075   -1.4835    1.1921 O   0  0  0  0  0  0  0  0  0  0  0  0
   -7.5104   -1.8217   -0.1408 O   0  0  0  0  0  0  0  0  0  0  0  0
   -1.8108    1.1684    0.2027 N   0  0  0  0  0  0  0  0  0  0  0  0
    1.4000    1.2911   -0.0786 N   0  0  0  0  0  0  0  0  0  0  0  0
    6.9776   -2.3934   -1.1898 N   0  0  0  0  0  0  0  0  0  0  0  0
   -0.8318    0.1818    0.6215 C   0  0  0  0  0  0  0  0  0  0  0  0
    0.1620    1.3532    0.7179 C   0  0  0  0  0  0  0  0  0  0  0  0
   -0.9540    2.2022    0.0549 C   0  0  0  0  0  0  0  0  0  0  0  0
   -3.1366    0.9071    0.0700 C   0  0  0  0  0  0  0  0  0  0  0  0
   -3.6935   -0.2095    0.5967 C   0  0  0  0  0  0  0  0  0  0  0  0
   -2.9221   -1.2069    1.4582 C   0  0  0  0  0  0  0  0  0  0  0  0
    2.4599    0.4559    0.2523 C   0  0  0  0  0  0  0  0  0  0  0  0
   -5.1388   -0.6103    0.4229 C   0  0  0  0  0  0  0  0  0  0  0  0
    3.6217    0.6067   -0.7153 C   0  0  0  0  0  0  0  0  0  0  0  0
   -3.9514    1.9222   -0.6142 C   0  0  0  0  0  0  0  0  0  0  0  0
    4.8128   -0.2953   -0.3889 C   0  0  0  0  0  0  0  0  0  0  0  0
    5.9628   -0.1207   -1.3934 C   0  0  0  0  0  0  0  0  0  0  0  0
    7.2176   -0.9541   -1.0895 C   0  0  0  0  0  0  0  0  0  0  0  0
    7.7787   -0.6640    0.2915 C   0  0  0  0  0  0  0  0  0  0  0  0
   -6.4585   -2.3716   -0.4375 C   0  0  0  0  0  0  0  0  0  0  0  0
   -6.3706   -3.7073   -1.1115 C   0  0  0  0  0  0  0  0  0  0  0  0
  1 13  1  0
  1 18  1  0
  2 15  2  0
  3 20  1  0
  3 27  1  0
  4 19  2  0
  5 22  1  0
  6 22  2  0
  7 26  1  0
  8 26  2  0
  9 27  2  0
 10 13  1  0
 10 15  1  0
 10 16  1  0
 11 14  1  0
 11 19  1  0
 12 25  1  0
 13 14  1  0
 14 15  1  0
 16 17  2  0
 16 22  1  0
 17 18  1  0
 17 20  1  0
 19 21  1  0
 21 23  1  0
 23 24  1  0
 24 25  1  0
 25 26  1  0
 27 28  1  0
M  END
>  <PUBCHEM_COMPOUND_CID>  (1) 
2669

>  <PUBCHEM_CONFORMER_RMSD>  (1) 
1

>  <PUBCHEM_CONFORMER_DIVERSEORDER>  (1) 
1
81
306
94
125
445
216
385
243
109
202
358
190
5
437
271
101
186
75
309
159
270
233
280
164
284
117
168
398
260
258
146
217
200
185
58
246
345
145
79
80
251
134
326
262
436
35
175
78
237
154
151
178
350
419
143
313
204
147
90
225
170
160
231
394
213
325
240
327
245
137
31
209
318
26
45
136
86
153
354
377
328
443
290
129
423
322
189
18
236
6
387
156
388
191
230
450
176
100
449
221
91
116
211
106
22
269
416
59
2
241
218
114
316
201
433
368
360
289
43
16
27
300
161
208
127
142
41
255
198
197
341
229
264
69
184
329
157
244
370
308
73
118
400
357
46
53
51
103
321
384
212
128
250
171
7
82
107
228
296
124
448
334
163
210
42
152
291
13
421
408
432
70
123
382
38
238
207
332
194
193
248
214
256
275
266
183
257
169
293
60
274
52
76
158
314
399
130
364
121
84
406
219
273
37
111
305
23
287
286
93
272
381
180
304
206
323
34
446
294
182
15
330
64
242
9
283
126
420
19
39
199
12
3
395
234
444
253
447
177
338
55
174
227
310
427
367
68
131
369
415
4
196
74
203
405
276
220
24
355
141
215
414
104
83
333
424
44
299
292
222
263
390
365
98
148
28
92
249
50
32
380
61
87
391
259
119
20
440
412
71
411
426
312
431
149
282
397
140
54
418
373
120
132
65
139
96
63
235
302
113
379
25
343
434
165
48
133
62
252
376
14
281
402
363
404
155
254
188
401
226
247
167
88
428
97
36
319
311
349
336
47
135
205
179
438
324
181
195
232
17
422
49
372
353
11
77
378
162
102
144
331
239
278
307
224
389
67
72
285
138
33
115
348
166
150
66
409
21
374
56
10
413
29
40
435
375
110
303
277
173
57
362
112
295
430
429
108
386
439
85
359
317
442
347
335
356
352
223
192
337
89
407
393
344
30
8
298
315
265
288
268
339
301
361
261
403
122
392
366
95
425
383
441
371
187
396
105
320
342
267
417
297
410
346
99
172
340
279
351

>  <PUBCHEM_MMFF94_PARTIAL_CHARGES>  (1) 
31
1 -0.45
10 -0.39
11 -0.65
12 -0.99
13 0.44
14 0.28
15 0.58
16 0.12
17 -0.28
18 0.37
19 0.57
2 -0.57
20 0.42
21 0.06
22 0.71
25 0.33
26 0.66
27 0.66
28 0.06
3 -0.43
31 0.37
4 -0.57
43 0.5
44 0.36
45 0.36
49 0.5
5 -0.65
6 -0.57
7 -0.65
8 -0.57
9 -0.57

>  <PUBCHEM_EFFECTIVE_ROTOR_COUNT>  (1) 
11.6

>  <PUBCHEM_PHARMACOPHORE_FEATURES>  (1) 
14
1 11 donor
1 12 cation
1 12 donor
1 2 acceptor
1 4 acceptor
1 5 acceptor
1 6 acceptor
1 7 acceptor
1 8 acceptor
1 9 acceptor
3 5 6 22 anion
3 7 8 26 anion
4 10 13 14 15 rings
6 1 10 13 16 17 18 rings

>  <PUBCHEM_HEAVY_ATOM_COUNT>  (1) 
28

>  <PUBCHEM_ATOM_DEF_STEREO_COUNT>  (1) 
0

>  <PUBCHEM_ATOM_UDEF_STEREO_COUNT>  (1) 
3

>  <PUBCHEM_BOND_DEF_STEREO_COUNT>  (1) 
0

>  <PUBCHEM_BOND_UDEF_STEREO_COUNT>  (1) 
0

>  <PUBCHEM_ISOTOPIC_ATOM_COUNT>  (1) 
0

>  <PUBCHEM_COMPONENT_COUNT>  (1) 
1

>  <PUBCHEM_CACTVS_TAUTO_COUNT>  (1) 
2

>  <PUBCHEM_CONFORMER_ID>  (1) 
00000A6D00000001

>  <PUBCHEM_MMFF94_ENERGY>  (1) 
54.969

>  <PUBCHEM_FEATURE_SELFOVERLAP>  (1) 
71.424

>  <PUBCHEM_SHAPE_FINGERPRINT>  (1) 
10 15 12031796859328566287
11315181 36 18342182133459946488
12954195 1 18408602548925866257
13540713 5 17460295687012916905
13668630 136 18060145331924073006
13690498 29 18333446552352882085
13782708 43 18273216379109143338
14849402 71 13973385999141179530
14931854 50 17676480666454103539
14933364 13 10015574001159817072
15183329 4 16805608058263801258
15461852 350 18410579475222176430
15706992 2 12107780775799898591
18603816 31 17203038695429579759
18643901 69 18408890642257055511
190975 80 17846780737167820338
19958102 18 17312823779857661810
2026 5 18339646642546040598
21130935 74 18059581231399587430
21424621 283 8142098554120728143
22864921 47 18338500977294484882
23198884 109 16950290606639019852
23559900 14 18334574642688355344
504579 68 17240478121946336250
5085150 59 18334574616902649578
5718773 13 18342458178959580990
59682541 52 14996274813434719026
999808 66 17846779619917213223

>  <PUBCHEM_SHAPE_MULTIPOLES>  (1) 
518.18
23.4
3.12
1.42
36.79
0.32
-0.25
19.56
5.32
-6.12
1.2
0.08
0.35
-0.06

>  <PUBCHEM_SHAPE_SELFOVERLAP>  (1) 
1053.683

>  <PUBCHEM_SHAPE_VOLUME>  (1) 
301.1

>  <PUBCHEM_COORDINATE_TYPE>  (1) 
2
5
10

$$$$
