26695
     RDKit          3D

 22 23  0  0  0  0  0  0  0  0999 V2000
    4.7048   -2.2208   -0.0797 I   0  0  0  0  0  0  0  0  0  0  0  0
    4.3027    3.6872    0.8663 I   0  0  0  0  0  0  0  0  0  0  0  0
   -6.7573    0.1613    0.0765 Cl  0  0  0  0  0  0  0  0  0  0  0  0
    1.5798   -1.6711   -0.7842 O   0  0  0  0  0  0  0  0  0  0  0  0
   -0.2800    0.8409   -1.9532 O   0  0  0  0  0  0  0  0  0  0  0  0
    1.0272   -2.0288    1.4623 O   0  0  0  0  0  0  0  0  0  0  0  0
   -0.8631    0.4640    0.2880 N   0  0  0  0  0  0  0  0  0  0  0  0
    1.4471    0.6738   -0.4040 C   0  0  0  0  0  0  0  0  0  0  0  0
    2.1916   -0.5056   -0.4211 C   0  0  0  0  0  0  0  0  0  0  0  0
    0.0357    0.6768   -0.7650 C   0  0  0  0  0  0  0  0  0  0  0  0
    2.0523    1.8752   -0.0353 C   0  0  0  0  0  0  0  0  0  0  0  0
   -2.2769    0.3908    0.2372 C   0  0  0  0  0  0  0  0  0  0  0  0
    3.5413   -0.4837   -0.0697 C   0  0  0  0  0  0  0  0  0  0  0  0
    3.4021    1.8973    0.3161 C   0  0  0  0  0  0  0  0  0  0  0  0
    4.1467    0.7178    0.2989 C   0  0  0  0  0  0  0  0  0  0  0  0
   -2.9181    0.5409   -0.9802 C   0  0  0  0  0  0  0  0  0  0  0  0
   -2.9849    0.1716    1.4064 C   0  0  0  0  0  0  0  0  0  0  0  0
   -4.3103    0.4695   -1.0302 C   0  0  0  0  0  0  0  0  0  0  0  0
   -4.3771    0.1000    1.3565 C   0  0  0  0  0  0  0  0  0  0  0  0
   -5.0399    0.2490    0.1381 C   0  0  0  0  0  0  0  0  0  0  0  0
    1.0102   -2.3735    0.2881 C   0  0  0  0  0  0  0  0  0  0  0  0
    0.3662   -3.6325   -0.2120 C   0  0  0  0  0  0  0  0  0  0  0  0
  1 13  1  0
  2 14  1  0
  3 20  1  0
  4  9  1  0
  4 21  1  0
  5 10  2  0
  6 21  2  0
  7 10  1  0
  7 12  1  0
  8  9  2  0
  8 10  1  0
  8 11  1  0
  9 13  1  0
 11 14  2  0
 12 16  2  0
 12 17  1  0
 13 15  2  0
 14 15  1  0
 16 18  1  0
 17 19  2  0
 18 20  2  0
 19 20  1  0
 21 22  1  0
M  END
>  <PUBCHEM_COMPOUND_CID>  (1) 
26695

>  <PUBCHEM_CONFORMER_RMSD>  (1) 
0.8

>  <PUBCHEM_CONFORMER_DIVERSEORDER>  (1) 
1
10
14
8
11
2
7
13
4
5
6
3
15
9
12

>  <PUBCHEM_MMFF94_PARTIAL_CHARGES>  (1) 
29
1 -0.08
10 0.54
11 -0.15
12 0.12
13 0.08
14 0.08
15 -0.15
16 -0.15
17 -0.15
18 -0.15
19 -0.15
2 -0.08
20 0.18
21 0.66
22 0.06
23 0.15
24 0.37
25 0.15
26 0.15
27 0.15
28 0.15
29 0.15
3 -0.18
4 -0.23
5 -0.57
6 -0.57
7 -0.55
8 0.09
9 0.08

>  <PUBCHEM_EFFECTIVE_ROTOR_COUNT>  (1) 
5

>  <PUBCHEM_PHARMACOPHORE_FEATURES>  (1) 
7
1 1 hydrophobe
1 2 hydrophobe
1 5 acceptor
1 6 acceptor
1 7 donor
6 12 16 17 18 19 20 rings
6 8 9 11 13 14 15 rings

>  <PUBCHEM_HEAVY_ATOM_COUNT>  (1) 
22

>  <PUBCHEM_ATOM_DEF_STEREO_COUNT>  (1) 
0

>  <PUBCHEM_ATOM_UDEF_STEREO_COUNT>  (1) 
0

>  <PUBCHEM_BOND_DEF_STEREO_COUNT>  (1) 
0

>  <PUBCHEM_BOND_UDEF_STEREO_COUNT>  (1) 
0

>  <PUBCHEM_ISOTOPIC_ATOM_COUNT>  (1) 
0

>  <PUBCHEM_COMPONENT_COUNT>  (1) 
1

>  <PUBCHEM_CACTVS_TAUTO_COUNT>  (1) 
2

>  <PUBCHEM_CONFORMER_ID>  (1) 
0000684700000001

>  <PUBCHEM_MMFF94_ENERGY>  (1) 
69.5721

>  <PUBCHEM_FEATURE_SELFOVERLAP>  (1) 
35.521

>  <PUBCHEM_SHAPE_FINGERPRINT>  (1) 
10076449 9 18268719304060192430
10165383 225 18335425725018210900
10366900 7 18114754732552949825
10411042 1 18125160425633104758
11370993 70 18409449215200984691
11421498 54 17202769189418810179
11578080 2 17201621480517423114
12011746 2 18041569044228498746
12035758 1 18337941330386581938
12107183 9 17479185159323304785
12236239 1 17846779590348164245
12390115 104 17764032763530818200
12403259 415 18186515501412036261
12596602 18 18131634513184322563
12616971 3 17989480814728475261
13140716 1 18410014368356889514
13402501 40 17822579313361250299
13533116 47 18411983554784658201
14341114 328 17775289374095390953
14386348 63 17603591794554795415
14739800 52 16701722965434843648
15338160 23 17471850780927126192
15375358 24 17821729433938359009
15475509 35 17023729140617070064
15635459 17 18114469938073408763
15880784 105 18341896307717800771
17138139 8 17556263445597882703
1813 80 17773044064430808830
200 152 18342174436878103501
20028762 73 18201716224018211278
204376 136 18339360889148049316
20511986 3 17703496732632979273
20645477 70 18336262353959642975
21033648 29 18040986354373484701
21033650 10 14619975784158007634
21049683 118 17981298369395622504
21197605 99 18265903638816302715
22224240 67 18336540624658798056
23557571 272 16950564316562643375
23558518 356 17614272695156825032
23559900 14 17749392533412804189
239999 70 18343587313024108094
3178227 256 18336549331048130706
3286 77 18335986355319305836
33824 294 18335701624235346603
4340502 62 18411981403459437611
474 4 18201156667214995312
495365 180 18336809932156741285
5104073 3 18409453613342344467
59755656 215 17822008671363735019
621550 34 18261105262476349429
633830 44 18060432321169377740
7399639 24 18187634817592995613
8272917 22 18343024371787150277
9981440 41 16121865980458315456
9999458 23 18409449185283776870

>  <PUBCHEM_SHAPE_MULTIPOLES>  (1) 
455.9
12.18
3.5
1.22
15.8
0.58
-0.01
-4.04
1.65
-7
0.7
0.73
-0.12
0.71

>  <PUBCHEM_SHAPE_SELFOVERLAP>  (1) 
923.027

>  <PUBCHEM_SHAPE_VOLUME>  (1) 
273.5

>  <PUBCHEM_COORDINATE_TYPE>  (1) 
2
5
10

$$$$
