26692
     RDKit          3D

 17 18  0  0  1  0  0  0  0  0999 V2000
   -1.2314   -2.4491   -1.4915 O   0  0  0  0  0  0  0  0  0  0  0  0
   -3.0112    0.0510    0.5852 N   0  0  0  0  0  0  0  0  0  0  0  0
   -0.2851   -1.1438    0.2618 C   0  0  0  0  0  0  0  0  0  0  0  0
    0.7779   -2.2163    0.5169 C   0  0  0  0  0  0  0  0  0  0  0  0
    0.2646   -0.0901   -0.7113 C   0  0  0  0  0  0  0  0  0  0  0  0
   -1.5680   -1.7653   -0.2861 C   0  0  0  0  0  0  0  0  0  0  0  0
    2.0098   -1.6027    1.1808 C   0  0  0  0  0  0  0  0  0  0  0  0
    1.6483    0.3935   -0.3528 C   0  0  0  0  0  0  0  0  0  0  0  0
    2.4849   -0.3405    0.5072 C   0  0  0  0  0  0  0  0  0  0  0  0
   -2.6502   -0.7288   -0.5907 C   0  0  0  0  0  0  0  0  0  0  0  0
    2.1294    1.5743   -0.9390 C   0  0  0  0  0  0  0  0  0  0  0  0
    3.7721    0.1404    0.7922 C   0  0  0  0  0  0  0  0  0  0  0  0
   -4.0351    1.0356    0.2632 C   0  0  0  0  0  0  0  0  0  0  0  0
    3.4144    2.0361   -0.6558 C   0  0  0  0  0  0  0  0  0  0  0  0
    4.2345    1.3207    0.2113 C   0  0  0  0  0  0  0  0  0  0  0  0
   -3.5321    1.9878   -0.8182 C   0  0  0  0  0  0  0  0  0  0  0  0
   -4.4226    1.7971    1.5268 C   0  0  0  0  0  0  0  0  0  0  0  0
  1  6  1  0
  2 10  1  0
  2 13  1  0
  3  4  1  0
  3  5  1  0
  3  6  1  0
  4  7  1  0
  5  8  1  0
  6 10  1  0
  7  9  1  0
  8  9  2  0
  8 11  1  0
  9 12  1  0
 11 14  2  0
 12 15  2  0
 13 16  1  0
 13 17  1  0
 14 15  1  0
M  END
>  <PUBCHEM_COMPOUND_CID>  (1) 
26692

>  <PUBCHEM_CONFORMER_RMSD>  (1) 
0.6

>  <PUBCHEM_CONFORMER_DIVERSEORDER>  (1) 
1
69
50
26
28
29
45
40
31
10
36
52
48
18
61
19
58
54
20
23
56
30
60
33
51
71
24
25
67
64
53
47
5
49
7
63
32
37
42
57
3
44
21
38
2
16
15
55
39
68
14
59
35
22
66
41
34
13
17
27
8
70
62
9
6
12
43
4
65
11
46

>  <PUBCHEM_MMFF94_PARTIAL_CHARGES>  (1) 
19
1 -0.68
10 0.27
11 -0.15
12 -0.15
13 0.27
14 -0.15
15 -0.15
2 -0.9
28 0.36
29 0.15
30 0.15
32 0.4
33 0.15
34 0.15
5 0.14
6 0.28
7 0.14
8 -0.14
9 -0.14

>  <PUBCHEM_EFFECTIVE_ROTOR_COUNT>  (1) 
4.8

>  <PUBCHEM_PHARMACOPHORE_FEATURES>  (1) 
7
1 1 acceptor
1 1 donor
1 2 cation
1 2 donor
3 13 16 17 hydrophobe
6 3 4 5 7 8 9 rings
6 8 9 11 12 14 15 rings

>  <PUBCHEM_HEAVY_ATOM_COUNT>  (1) 
17

>  <PUBCHEM_ATOM_DEF_STEREO_COUNT>  (1) 
0

>  <PUBCHEM_ATOM_UDEF_STEREO_COUNT>  (1) 
2

>  <PUBCHEM_BOND_DEF_STEREO_COUNT>  (1) 
0

>  <PUBCHEM_BOND_UDEF_STEREO_COUNT>  (1) 
0

>  <PUBCHEM_ISOTOPIC_ATOM_COUNT>  (1) 
0

>  <PUBCHEM_COMPONENT_COUNT>  (1) 
1

>  <PUBCHEM_CACTVS_TAUTO_COUNT>  (1) 
1

>  <PUBCHEM_CONFORMER_ID>  (1) 
0000684400000001

>  <PUBCHEM_MMFF94_ENERGY>  (1) 
30.5473

>  <PUBCHEM_FEATURE_SELFOVERLAP>  (1) 
35.541

>  <PUBCHEM_SHAPE_FINGERPRINT>  (1) 
10382601 240 17967810527266525690
10465860 228 18408605833863483474
10646746 165 18129941299199702496
10980938 120 18333730191233311250
11640471 11 18412826888898377779
12363563 72 11602829020849572537
12390115 104 18192165982272998668
12491281 212 18189052173832539514
12500047 106 17845931930980864334
12633257 1 16153717560624773233
12788726 201 18126549344647061527
12892183 10 17458349602607363561
13583140 156 17240756234327572937
14123255 52 18409729564611387937
14123260 362 18131073731757031689
14251764 38 17903068937872579493
14790565 3 17968948608044148044
15209294 21 18337942493816232152
15475509 8 18125736595406082054
15534591 1 18339363079597311495
15775835 57 18411702092924815049
16945 1 17605253242597862754
1741750 31 18272936033297465699
17810953 82 18123195602243327369
17834072 32 18337668595257023981
1798214 55 18271533009316315457
18186145 218 18341900645038631997
201361 129 18334292080657014154
20157964 124 18189044306074997685
20233049 118 18059851766424396944
20261772 1 18260831492301864788
20645477 56 17916594274506006087
20715895 44 17688583867510780689
20739085 24 17749389231221237372
21503847 285 18261395507781202210
21524375 3 18411981369147418871
21665062 11 18188494570844512736
21713013 43 12966829236013513049
22094290 62 18336262345079577323
23419403 2 16193948403681172918
235170 7 14045159841516256089
23557571 272 17417529240845635243
23559900 14 17917994997434647408
2748010 2 17541915630276695638
2838139 119 16629662081494392512
38570 142 17752800019275421060
474 4 18187643630374821499
49207404 50 17895209774431839393
5104073 3 18115298020911228696
633830 44 18261958561119897926
7615 1 18266434646485474630
7832392 63 18410290333059026534

>  <PUBCHEM_SHAPE_MULTIPOLES>  (1) 
339
8.36
2.65
1.21
3.67
0.4
0.08
-6.43
2.12
0.35
-0.34
0.56
0
-1.43

>  <PUBCHEM_SHAPE_SELFOVERLAP>  (1) 
695.747

>  <PUBCHEM_SHAPE_VOLUME>  (1) 
195.3

>  <PUBCHEM_COORDINATE_TYPE>  (1) 
2
5
10

$$$$
