26700
     RDKit          3D

 19 21  0  0  0  0  0  0  0  0999 V2000
   -5.9227    0.7706   -0.0151 O   0  0  0  0  0  0  0  0  0  0  0  0
    4.4307   -1.3994   -0.6083 O   0  0  0  0  0  0  0  0  0  0  0  0
    3.7810    1.8421    0.6585 O   0  0  0  0  0  0  0  0  0  0  0  0
    3.5908   -0.3473   -0.1501 N   0  0  0  0  0  0  0  0  0  0  0  0
   -1.0189    1.6207   -0.3188 C   0  0  0  0  0  0  0  0  0  0  0  0
    0.0392    0.5463   -0.1788 C   0  0  0  0  0  0  0  0  0  0  0  0
   -0.5611   -0.7128    0.0470 C   0  0  0  0  0  0  0  0  0  0  0  0
   -2.2941    0.8223   -0.1456 C   0  0  0  0  0  0  0  0  0  0  0  0
   -1.9980   -0.5428    0.0674 C   0  0  0  0  0  0  0  0  0  0  0  0
    1.4138    0.6899   -0.2483 C   0  0  0  0  0  0  0  0  0  0  0  0
    0.2193   -1.8457    0.2061 C   0  0  0  0  0  0  0  0  0  0  0  0
   -3.5987    1.2830   -0.1769 C   0  0  0  0  0  0  0  0  0  0  0  0
   -3.0164   -1.4629    0.2520 C   0  0  0  0  0  0  0  0  0  0  0  0
    2.2002   -0.4523   -0.0879 C   0  0  0  0  0  0  0  0  0  0  0  0
    1.6089   -1.7074    0.1372 C   0  0  0  0  0  0  0  0  0  0  0  0
   -4.6250    0.3551    0.0091 C   0  0  0  0  0  0  0  0  0  0  0  0
   -4.3368   -1.0042    0.2214 C   0  0  0  0  0  0  0  0  0  0  0  0
    4.2909    0.8054    0.2332 C   0  0  0  0  0  0  0  0  0  0  0  0
    5.7970    0.7393    0.0979 C   0  0  0  0  0  0  0  0  0  0  0  0
  1 16  1  0
  2  4  1  0
  3 18  2  0
  4 14  1  0
  4 18  1  0
  5  6  1  0
  5  8  1  0
  6  7  2  0
  6 10  1  0
  7  9  1  0
  7 11  1  0
  8  9  2  0
  8 12  1  0
  9 13  1  0
 10 14  2  0
 11 15  2  0
 12 16  2  0
 13 17  2  0
 14 15  1  0
 16 17  1  0
 18 19  1  0
M  END
>  <PUBCHEM_COMPOUND_CID>  (1) 
26700

>  <PUBCHEM_CONFORMER_RMSD>  (1) 
0.6

>  <PUBCHEM_CONFORMER_DIVERSEORDER>  (1) 
1
4
5
2
3
6
8
7

>  <PUBCHEM_MMFF94_PARTIAL_CHARGES>  (1) 
25
1 -0.53
10 -0.15
11 -0.15
12 -0.15
13 -0.15
14 0.12
15 -0.15
16 0.08
17 -0.15
18 0.57
19 0.06
2 -0.44
22 0.15
23 0.15
24 0.15
25 0.15
26 0.15
27 0.15
28 0.45
29 0.4
3 -0.57
4 -0.14
5 0.29
6 -0.14
8 -0.14

>  <PUBCHEM_EFFECTIVE_ROTOR_COUNT>  (1) 
2.2

>  <PUBCHEM_PHARMACOPHORE_FEATURES>  (1) 
5
1 1 donor
1 3 acceptor
5 5 6 7 8 9 rings
6 6 7 10 11 14 15 rings
6 8 9 12 13 16 17 rings

>  <PUBCHEM_HEAVY_ATOM_COUNT>  (1) 
19

>  <PUBCHEM_ATOM_DEF_STEREO_COUNT>  (1) 
0

>  <PUBCHEM_ATOM_UDEF_STEREO_COUNT>  (1) 
0

>  <PUBCHEM_BOND_DEF_STEREO_COUNT>  (1) 
0

>  <PUBCHEM_BOND_UDEF_STEREO_COUNT>  (1) 
0

>  <PUBCHEM_ISOTOPIC_ATOM_COUNT>  (1) 
0

>  <PUBCHEM_COMPONENT_COUNT>  (1) 
1

>  <PUBCHEM_CACTVS_TAUTO_COUNT>  (1) 
9

>  <PUBCHEM_CONFORMER_ID>  (1) 
0000684C00000001

>  <PUBCHEM_MMFF94_ENERGY>  (1) 
73.1919

>  <PUBCHEM_FEATURE_SELFOVERLAP>  (1) 
25.536

>  <PUBCHEM_SHAPE_FINGERPRINT>  (1) 
10411042 1 17544479012393158955
11132069 177 18261112980358129853
11401426 45 18335420179644991559
11578080 2 16662316287652655799
12236239 1 17385441046725335628
12390115 104 18199763444401864489
12403259 415 18334007272875619140
13081056 2 18411419488324193764
13214271 11 18410009966226180351
13675066 3 18336270123281213611
15048467 5 18202284680619975753
15196674 1 18410012139036539755
15375358 24 18407760335254928419
15536298 74 18412546500622336758
17834072 33 17917425449704538783
19784866 170 18334575741761372971
200 152 18060135444993409127
20510252 161 18341896268382762840
20645477 56 18409448102435033751
20645477 70 17988364763329543406
21267235 1 18336275582786117971
22854114 59 18410575093395470912
23402539 116 18411694426170860502
23559900 14 18412263935214439318
296302 2 18341895182251720367
335352 9 18409449167629180062
34797466 226 17131839806064415309
34934 24 18408316675496358667
351380 180 18411417328245716280
3545911 37 18409168805091242125
4214541 1 18411138008952503297
4340502 62 16515688823187111963
474 4 18040441018291505348
474229 33 18409166636127651750
4990 188 18202008690047470286
5104073 3 18336549330557332491
542803 24 17275107215188483353
59755656 215 18409453544765727254
59755656 520 17676202498723946138
69090 78 18272086127931249766
7364860 26 18267583507794072206
77779 3 18412827979719843886
9709674 26 18410017645216580094

>  <PUBCHEM_SHAPE_MULTIPOLES>  (1) 
368.42
11.4
1.82
0.66
2.9
0.24
0
-2.66
-0.46
0.18
-0.06
0.13
-0.01
0.58

>  <PUBCHEM_SHAPE_SELFOVERLAP>  (1) 
816.756

>  <PUBCHEM_SHAPE_VOLUME>  (1) 
199.2

>  <PUBCHEM_COORDINATE_TYPE>  (1) 
2
5
10

$$$$
