26706
     RDKit          3D

 10 10  0  0  1  0  0  0  0  0999 V2000
    1.7201    1.8578   -0.1412 Cl  0  0  0  0  0  0  0  0  0  0  0  0
    3.2543   -0.3384   -1.3550 Cl  0  0  0  0  0  0  0  0  0  0  0  0
   -0.2344   -0.3400    0.6812 O   0  0  0  0  0  0  0  0  0  0  0  0
    1.0369   -0.8459    0.2973 C   0  0  0  0  0  0  0  0  0  0  0  0
    2.1022    0.1406   -0.1107 C   0  0  0  0  0  0  0  0  0  0  0  0
    2.1856   -0.5393    1.2243 C   0  0  0  0  0  0  0  0  0  0  0  0
   -1.2402   -0.6869   -0.2616 C   0  0  0  0  0  0  0  0  0  0  0  0
   -2.5887   -0.1102    0.1785 C   0  0  0  0  0  0  0  0  0  0  0  0
   -2.5408    1.4169    0.2629 C   0  0  0  0  0  0  0  0  0  0  0  0
   -3.6950   -0.5546   -0.7757 C   0  0  0  0  0  0  0  0  0  0  0  0
  1  5  1  0
  2  5  1  0
  3  4  1  0
  3  7  1  0
  4  5  1  0
  4  6  1  0
  5  6  1  0
  7  8  1  0
  8  9  1  0
  8 10  1  0
M  END
>  <PUBCHEM_COMPOUND_CID>  (1) 
26706

>  <PUBCHEM_CONFORMER_RMSD>  (1) 
0.6

>  <PUBCHEM_CONFORMER_DIVERSEORDER>  (1) 
1
2
6
4
5
3

>  <PUBCHEM_MMFF94_PARTIAL_CHARGES>  (1) 
10
1 -0.23
11 0.1
12 0.1
13 0.1
2 -0.23
3 -0.43
4 0.05
5 0.45
6 -0.2
7 0.28

>  <PUBCHEM_EFFECTIVE_ROTOR_COUNT>  (1) 
3.6

>  <PUBCHEM_PHARMACOPHORE_FEATURES>  (1) 
2
1 3 acceptor
3 8 9 10 hydrophobe

>  <PUBCHEM_HEAVY_ATOM_COUNT>  (1) 
10

>  <PUBCHEM_ATOM_DEF_STEREO_COUNT>  (1) 
0

>  <PUBCHEM_ATOM_UDEF_STEREO_COUNT>  (1) 
1

>  <PUBCHEM_BOND_DEF_STEREO_COUNT>  (1) 
0

>  <PUBCHEM_BOND_UDEF_STEREO_COUNT>  (1) 
0

>  <PUBCHEM_ISOTOPIC_ATOM_COUNT>  (1) 
0

>  <PUBCHEM_COMPONENT_COUNT>  (1) 
1

>  <PUBCHEM_CACTVS_TAUTO_COUNT>  (1) 
1

>  <PUBCHEM_CONFORMER_ID>  (1) 
0000685200000001

>  <PUBCHEM_MMFF94_ENERGY>  (1) 
11.3641

>  <PUBCHEM_FEATURE_SELFOVERLAP>  (1) 
10.148

>  <PUBCHEM_SHAPE_FINGERPRINT>  (1) 
12162725 195 18409161108736675097
12897270 3 18410291441012824331
12932764 1 17967811665248313915
14144814 61 18334855000397821963
14250199 8 18339648956984196029
14390081 3 18333730247273692441
15775835 57 18114469959215780013
18186145 218 18408038533250453621
20645477 70 14117797994715042293
20653085 51 18342188751618953537
20671657 53 16773256006505649404
20711983 171 18337673005950735381
230 275 18261387918421321168
23557571 272 17631718439869599513
3248919 1 18113614556391392139
5084963 1 17847067678931036459
8030462 33 18187364324509608515

>  <PUBCHEM_SHAPE_MULTIPOLES>  (1) 
203.67
6.01
1.4
1.09
2.98
0.83
0.06
-0.26
1.73
-0.11
0.01
-0.73
-0.21
-0.31

>  <PUBCHEM_SHAPE_SELFOVERLAP>  (1) 
368.304

>  <PUBCHEM_SHAPE_VOLUME>  (1) 
132.3

>  <PUBCHEM_COORDINATE_TYPE>  (1) 
2
5
10

$$$$
