26702
     RDKit          3D

 13 13  0  0  1  0  0  0  0  0999 V2000
   -0.3564   -0.3931    1.1007 N   0  0  0  0  0  0  0  0  0  0  0  0
   -1.5828   -0.3516    0.3242 C   0  0  0  0  0  0  0  0  0  0  0  0
   -1.2994   -0.8163   -1.1216 C   0  0  0  0  0  0  0  0  0  0  0  0
   -2.5844   -1.3116    0.9818 C   0  0  0  0  0  0  0  0  0  0  0  0
   -2.5127   -0.8055   -2.0492 C   0  0  0  0  0  0  0  0  0  0  0  0
    0.8932   -0.1555    0.5627 C   0  0  0  0  0  0  0  0  0  0  0  0
   -2.1381    1.0169    0.3428 C   0  0  0  0  0  0  0  0  0  0  0  0
    1.9033   -1.1380    0.6090 C   0  0  0  0  0  0  0  0  0  0  0  0
    1.1987    1.0772   -0.0497 C   0  0  0  0  0  0  0  0  0  0  0  0
    3.1655   -0.8979    0.0658 C   0  0  0  0  0  0  0  0  0  0  0  0
    2.4608    1.3172   -0.5930 C   0  0  0  0  0  0  0  0  0  0  0  0
    3.4442    0.3295   -0.5353 C   0  0  0  0  0  0  0  0  0  0  0  0
   -2.5920    2.1286    0.3618 C   0  0  0  0  0  0  0  0  0  0  0  0
  1  2  1  0
  1  6  1  0
  2  3  1  0
  2  4  1  0
  2  7  1  0
  3  5  1  0
  6  8  2  0
  6  9  1  0
  7 13  3  0
  8 10  1  0
  9 11  2  0
 10 12  2  0
 11 12  1  0
M  END
>  <PUBCHEM_COMPOUND_CID>  (1) 
26702

>  <PUBCHEM_CONFORMER_RMSD>  (1) 
0.6

>  <PUBCHEM_CONFORMER_DIVERSEORDER>  (1) 
1
11
4
17
19
2
10
8
3
16
13
9
18
6
5
14
12
7
15

>  <PUBCHEM_MMFF94_PARTIAL_CHARGES>  (1) 
17
1 -0.87
10 -0.15
11 -0.15
12 -0.15
13 -0.18
16 0.4
2 0.57
23 0.15
24 0.15
25 0.15
26 0.15
27 0.15
28 0.18
6 0.1
7 -0.2
8 -0.15
9 -0.15

>  <PUBCHEM_EFFECTIVE_ROTOR_COUNT>  (1) 
3

>  <PUBCHEM_PHARMACOPHORE_FEATURES>  (1) 
5
1 1 cation
1 1 donor
1 13 hydrophobe
1 5 hydrophobe
6 6 8 9 10 11 12 rings

>  <PUBCHEM_HEAVY_ATOM_COUNT>  (1) 
13

>  <PUBCHEM_ATOM_DEF_STEREO_COUNT>  (1) 
0

>  <PUBCHEM_ATOM_UDEF_STEREO_COUNT>  (1) 
1

>  <PUBCHEM_BOND_DEF_STEREO_COUNT>  (1) 
0

>  <PUBCHEM_BOND_UDEF_STEREO_COUNT>  (1) 
0

>  <PUBCHEM_ISOTOPIC_ATOM_COUNT>  (1) 
0

>  <PUBCHEM_COMPONENT_COUNT>  (1) 
1

>  <PUBCHEM_CACTVS_TAUTO_COUNT>  (1) 
1

>  <PUBCHEM_CONFORMER_ID>  (1) 
0000684E00000001

>  <PUBCHEM_MMFF94_ENERGY>  (1) 
46.2247

>  <PUBCHEM_FEATURE_SELFOVERLAP>  (1) 
25.371

>  <PUBCHEM_SHAPE_FINGERPRINT>  (1) 
10922523 26 18200884967546381414
12173636 292 18334299755710713979
12932764 1 17846219990026070416
13024252 1 11963386362845581355
14577589 140 18130789997363766046
15310529 11 18340777021406420923
15775835 57 18336274439670916889
15852999 172 16486405465258342797
15906896 17 18342740672523496449
16945 1 18268424814313625186
17844478 74 15647347294283794533
18186145 218 17603308129150155506
19868273 293 17988920033548785389
200 152 18263074569316403671
21501502 16 18114189631021399434
21524375 3 18054227623010184041
23557571 272 17202751700485748824
25610 137 18044951296482121611
3248919 1 18261101980983912122
5084963 1 17095526257045370170
528886 8 18261114037036174968
74978 22 18186516588101630178
7832392 63 18337113358706196008
8030462 33 18411128164850251802

>  <PUBCHEM_SHAPE_MULTIPOLES>  (1) 
262.55
5.5
1.71
1.32
2.28
0.67
-0.56
0.19
-0.7
-0.82
0.1
-0.98
-0.46
-0.68

>  <PUBCHEM_SHAPE_SELFOVERLAP>  (1) 
532.276

>  <PUBCHEM_SHAPE_VOLUME>  (1) 
152.2

>  <PUBCHEM_COORDINATE_TYPE>  (1) 
2
5
10

$$$$
