26712
     RDKit          3D

 15 16  0  0  0  0  0  0  0  0999 V2000
   -3.4180   -2.4163   -0.1114 Cl  0  0  0  0  0  0  0  0  0  0  0  0
   -0.1437    2.4178    0.0944 N   0  0  0  0  0  0  0  0  0  0  0  0
    2.3862   -0.9237    2.0733 N   0  0  0  0  0  0  0  0  0  0  0  0
    2.1084   -0.4147   -0.3931 C   0  0  0  0  0  0  0  0  0  0  0  0
    0.9935    0.5340   -0.1977 C   0  0  0  0  0  0  0  0  0  0  0  0
    2.2135   -1.5130    0.7463 C   0  0  0  0  0  0  0  0  0  0  0  0
   -0.3893    0.2098   -0.1096 C   0  0  0  0  0  0  0  0  0  0  0  0
    1.9594   -1.2148   -1.7408 C   0  0  0  0  0  0  0  0  0  0  0  0
    3.5453    0.2287   -0.4982 C   0  0  0  0  0  0  0  0  0  0  0  0
    1.1125    1.8987   -0.0688 C   0  0  0  0  0  0  0  0  0  0  0  0
   -1.0807    1.4093    0.0735 C   0  0  0  0  0  0  0  0  0  0  0  0
   -1.1213   -0.9928   -0.1681 C   0  0  0  0  0  0  0  0  0  0  0  0
   -2.4731    1.4666    0.2016 C   0  0  0  0  0  0  0  0  0  0  0  0
   -2.5146   -0.9508   -0.0417 C   0  0  0  0  0  0  0  0  0  0  0  0
   -3.1780    0.2611    0.1403 C   0  0  0  0  0  0  0  0  0  0  0  0
  1 14  1  0
  2 10  1  0
  2 11  1  0
  3  6  1  0
  4  5  1  0
  4  6  1  0
  4  8  1  0
  4  9  1  0
  5  7  1  0
  5 10  2  0
  7 11  2  0
  7 12  1  0
 11 13  1  0
 12 14  2  0
 13 15  2  0
 14 15  1  0
M  END
>  <PUBCHEM_COMPOUND_CID>  (1) 
26712

>  <PUBCHEM_CONFORMER_RMSD>  (1) 
0.6

>  <PUBCHEM_CONFORMER_DIVERSEORDER>  (1) 
1
4
3
5
7
6
2

>  <PUBCHEM_MMFF94_PARTIAL_CHARGES>  (1) 
19
1 -0.18
10 -0.3
11 -0.15
12 -0.15
13 -0.15
14 0.18
15 -0.15
2 0.03
24 0.15
25 0.27
26 0.15
27 0.36
28 0.36
29 0.15
3 -0.99
30 0.15
4 0.18
5 -0.18
6 0.27

>  <PUBCHEM_EFFECTIVE_ROTOR_COUNT>  (1) 
2

>  <PUBCHEM_PHARMACOPHORE_FEATURES>  (1) 
7
1 2 cation
1 2 donor
1 3 cation
1 3 donor
3 4 8 9 hydrophobe
5 2 5 7 10 11 rings
6 7 11 12 13 14 15 rings

>  <PUBCHEM_HEAVY_ATOM_COUNT>  (1) 
15

>  <PUBCHEM_ATOM_DEF_STEREO_COUNT>  (1) 
0

>  <PUBCHEM_ATOM_UDEF_STEREO_COUNT>  (1) 
0

>  <PUBCHEM_BOND_DEF_STEREO_COUNT>  (1) 
0

>  <PUBCHEM_BOND_UDEF_STEREO_COUNT>  (1) 
0

>  <PUBCHEM_ISOTOPIC_ATOM_COUNT>  (1) 
0

>  <PUBCHEM_COMPONENT_COUNT>  (1) 
1

>  <PUBCHEM_CACTVS_TAUTO_COUNT>  (1) 
1

>  <PUBCHEM_CONFORMER_ID>  (1) 
0000685800000001

>  <PUBCHEM_MMFF94_ENERGY>  (1) 
32.098

>  <PUBCHEM_FEATURE_SELFOVERLAP>  (1) 
35.612

>  <PUBCHEM_SHAPE_FINGERPRINT>  (1) 
11578080 2 17604966205258917356
11806522 49 18194122038869458676
12382932 28 18343016662172887984
12423570 1 11239459089170209070
12553582 1 18410012182408556739
12932764 1 18040440953634887405
13083527 12 17835768131260972227
13140716 1 18412826893515319401
13538477 17 18189335675849067534
14144814 61 18410295778876993881
14252887 29 18200328726105497103
15375462 175 17980496567399006190
15375462 189 18187368731003655731
16752209 62 18047186345992086445
16945 1 18267586806091221445
17990270 104 18270971235814356431
20510252 161 17986117309780298369
20645476 183 17387721347768001935
20645477 70 18052817241807772743
20871998 184 18131635581998241927
20871998 22 18271822236355372799
21197605 99 14660782371697309282
21501502 16 18267594666029124757
21501925 9 18269264824085968043
22802520 49 17842860831595288422
23184049 29 18410289246358389131
232386 152 18261387798156936098
2334 1 18267868457314461661
23402539 116 18410293610367078022
23419403 2 15901145484780658253
23463225 33 18336266721640585551
23552423 10 18189340232951988389
23559900 14 18198908007539037014
2748010 2 18341048609722051973
3312278 4 18408610257405368213
34934 24 18409165502187785381
5902787 121 18409444816990884667
7364860 26 18056764462137995801
74978 22 18409446986192085621
77492 1 17749958760605581158
81228 2 18127693721175572729

>  <PUBCHEM_SHAPE_MULTIPOLES>  (1) 
300.6
5.41
2.35
1.11
1.11
0.31
-0.24
-2.37
-0.03
1.09
-0.03
-1.09
-0.55
-0.28

>  <PUBCHEM_SHAPE_SELFOVERLAP>  (1) 
633.186

>  <PUBCHEM_SHAPE_VOLUME>  (1) 
172.4

>  <PUBCHEM_COORDINATE_TYPE>  (1) 
2
5
10

$$$$
