26718
     RDKit          3D

 13 14  0  0  0  0  0  0  0  0999 V2000
   -2.7763    0.7557    1.1966 S   0  0  0  0  0  0  0  0  0  0  0  0
   -3.3447   -1.2473   -0.9322 S   0  0  0  0  0  0  0  0  0  0  0  0
   -2.2031   -0.7830    0.4133 C   0  0  0  0  0  0  0  0  0  0  0  0
   -0.7999   -0.5925   -0.1475 C   0  0  0  0  0  0  0  0  0  0  0  0
    0.1908   -0.2116    0.9520 C   0  0  0  0  0  0  0  0  0  0  0  0
   -3.7572    1.3303   -0.2092 C   0  0  0  0  0  0  0  0  0  0  0  0
   -4.5128    0.1276   -0.7360 C   0  0  0  0  0  0  0  0  0  0  0  0
    1.5871   -0.0472    0.4085 C   0  0  0  0  0  0  0  0  0  0  0  0
    2.4373   -1.1425    0.3710 C   0  0  0  0  0  0  0  0  0  0  0  0
    2.0000    1.1968   -0.0453 C   0  0  0  0  0  0  0  0  0  0  0  0
    3.7295   -0.9904   -0.1318 C   0  0  0  0  0  0  0  0  0  0  0  0
    3.2922    1.3488   -0.5481 C   0  0  0  0  0  0  0  0  0  0  0  0
    4.1570    0.2552   -0.5914 C   0  0  0  0  0  0  0  0  0  0  0  0
  1  3  1  0
  1  6  1  0
  2  3  1  0
  2  7  1  0
  3  4  1  0
  4  5  1  0
  5  8  1  0
  6  7  1  0
  8  9  2  0
  8 10  1  0
  9 11  1  0
 10 12  2  0
 11 13  2  0
 12 13  1  0
M  END
>  <PUBCHEM_COMPOUND_CID>  (1) 
26718

>  <PUBCHEM_CONFORMER_RMSD>  (1) 
0.6

>  <PUBCHEM_CONFORMER_DIVERSEORDER>  (1) 
1
6
9
2
10
3
7
8
5
4

>  <PUBCHEM_MMFF94_PARTIAL_CHARGES>  (1) 
17
1 -0.46
10 -0.15
11 -0.15
12 -0.15
13 -0.15
2 -0.46
23 0.15
24 0.15
25 0.15
26 0.15
27 0.15
3 0.46
5 0.14
6 0.23
7 0.23
8 -0.14
9 -0.15

>  <PUBCHEM_EFFECTIVE_ROTOR_COUNT>  (1) 
4

>  <PUBCHEM_PHARMACOPHORE_FEATURES>  (1) 
2
5 1 2 3 6 7 rings
6 8 9 10 11 12 13 rings

>  <PUBCHEM_HEAVY_ATOM_COUNT>  (1) 
13

>  <PUBCHEM_ATOM_DEF_STEREO_COUNT>  (1) 
0

>  <PUBCHEM_ATOM_UDEF_STEREO_COUNT>  (1) 
0

>  <PUBCHEM_BOND_DEF_STEREO_COUNT>  (1) 
0

>  <PUBCHEM_BOND_UDEF_STEREO_COUNT>  (1) 
0

>  <PUBCHEM_ISOTOPIC_ATOM_COUNT>  (1) 
0

>  <PUBCHEM_COMPONENT_COUNT>  (1) 
1

>  <PUBCHEM_CACTVS_TAUTO_COUNT>  (1) 
1

>  <PUBCHEM_CONFORMER_ID>  (1) 
0000685E00000001

>  <PUBCHEM_MMFF94_ENERGY>  (1) 
27.1919

>  <PUBCHEM_FEATURE_SELFOVERLAP>  (1) 
10.149

>  <PUBCHEM_SHAPE_FINGERPRINT>  (1) 
10751810 167 17917714612514499015
11132069 177 13839985512663683315
11471102 20 18260831488560207086
11543360 7 18340766039349189667
116883 192 18053951649801566412
12707595 3 16272206426738590587
12932764 1 17917995026576350035
14123260 362 18186811291836244373
14144814 61 18412266137899685682
14252887 29 10591774177380829900
14289901 80 9655574119220948375
14415576 193 18334579053160078822
14445660 50 10665222640368478567
17834072 32 18045214947746162741
17834072 33 18410854395071374087
17834072 8 18410863122777157582
18186145 218 17458345238646245106
19862831 5 18412542119739805683
1986462 14 17632859728739091855
200 152 18273493476812598187
20279233 1 16081366366880248843
20300324 65 18202562895653133389
20645477 70 18260829259246028890
20671657 53 16415477159961903643
20711983 171 18343303652135630453
20871999 31 18272364321948474703
21119208 17 18342176665348795807
21501925 9 11239997849809790570
231179 274 17458058266100787452
23402539 116 18201436956769890236
23402655 69 18409451375458803588
23559900 14 17561358487806462514
25 1 17967254191473251322
3082319 5 18342457062367881915
4028521 119 17895185581007778469
522135 26 18261108556563076322
53428517 29 13984659261130895333
57812782 119 15123787379440095019
58051976 100 18272088327007214039
633830 44 17749111071273483458
77779 3 18408323297950729351
93112 12 18412543236410248975
9882013 296 8214138564509681569
9971528 1 18410570657364121634

>  <PUBCHEM_SHAPE_MULTIPOLES>  (1) 
275.23
9.37
1.45
1.03
0.86
0.1
-0.1
0.69
2.51
0.1
0.13
0.5
0.03
-0.72

>  <PUBCHEM_SHAPE_SELFOVERLAP>  (1) 
538.433

>  <PUBCHEM_SHAPE_VOLUME>  (1) 
164.1

>  <PUBCHEM_COORDINATE_TYPE>  (1) 
2
5
10

$$$$
