26715
     RDKit          3D

 14 15  0  0  0  0  0  0  0  0999 V2000
    0.1535    0.4199   -1.2098 O   0  0  0  0  0  0  0  0  0  0  0  0
    1.1683   -0.4819    0.6734 N   0  0  0  0  0  0  0  0  0  0  0  0
    2.2844   -0.7926    1.3858 N   0  0  0  0  0  0  0  0  0  0  0  0
   -1.6976    0.9760    0.2085 C   0  0  0  0  0  0  0  0  0  0  0  0
   -1.0328    0.0819   -0.6309 C   0  0  0  0  0  0  0  0  0  0  0  0
   -2.9115    0.6133    0.7923 C   0  0  0  0  0  0  0  0  0  0  0  0
   -1.5820   -1.1747   -0.8864 C   0  0  0  0  0  0  0  0  0  0  0  0
   -1.1249    2.3251    0.4932 C   0  0  0  0  0  0  0  0  0  0  0  0
   -3.4605   -0.6433    0.5366 C   0  0  0  0  0  0  0  0  0  0  0  0
   -2.7958   -1.5372   -0.3027 C   0  0  0  0  0  0  0  0  0  0  0  0
    1.3141    0.1205   -0.5176 C   0  0  0  0  0  0  0  0  0  0  0  0
    2.5262    0.4480   -1.0716 C   0  0  0  0  0  0  0  0  0  0  0  0
    3.6619    0.1319   -0.3468 C   0  0  0  0  0  0  0  0  0  0  0  0
    3.4965   -0.4871    0.8759 C   0  0  0  0  0  0  0  0  0  0  0  0
  1  5  1  0
  1 11  1  0
  2  3  2  0
  2 11  1  0
  3 14  1  0
  4  5  2  0
  4  6  1  0
  4  8  1  0
  5  7  1  0
  6  9  2  0
  7 10  2  0
  9 10  1  0
 11 12  2  0
 12 13  1  0
 13 14  2  0
M  END
>  <PUBCHEM_COMPOUND_CID>  (1) 
26715

>  <PUBCHEM_CONFORMER_RMSD>  (1) 
0.6

>  <PUBCHEM_CONFORMER_DIVERSEORDER>  (1) 
1
8
9
4
6
5
11
12
10
3
2
7

>  <PUBCHEM_MMFF94_PARTIAL_CHARGES>  (1) 
21
1 -0.17
10 -0.15
11 0.39
12 -0.15
13 -0.15
14 0.16
15 0.15
16 0.15
2 -0.31
20 0.15
21 0.15
22 0.15
23 0.15
24 0.15
3 -0.31
4 -0.14
5 0.08
6 -0.15
7 -0.15
8 0.14
9 -0.15

>  <PUBCHEM_EFFECTIVE_ROTOR_COUNT>  (1) 
2

>  <PUBCHEM_PHARMACOPHORE_FEATURES>  (1) 
3
1 3 acceptor
6 2 3 11 12 13 14 rings
6 4 5 6 7 9 10 rings

>  <PUBCHEM_HEAVY_ATOM_COUNT>  (1) 
14

>  <PUBCHEM_ATOM_DEF_STEREO_COUNT>  (1) 
0

>  <PUBCHEM_ATOM_UDEF_STEREO_COUNT>  (1) 
0

>  <PUBCHEM_BOND_DEF_STEREO_COUNT>  (1) 
0

>  <PUBCHEM_BOND_UDEF_STEREO_COUNT>  (1) 
0

>  <PUBCHEM_ISOTOPIC_ATOM_COUNT>  (1) 
0

>  <PUBCHEM_COMPONENT_COUNT>  (1) 
1

>  <PUBCHEM_CACTVS_TAUTO_COUNT>  (1) 
1

>  <PUBCHEM_CONFORMER_ID>  (1) 
0000685B00000001

>  <PUBCHEM_MMFF94_ENERGY>  (1) 
45.6491

>  <PUBCHEM_FEATURE_SELFOVERLAP>  (1) 
15.223

>  <PUBCHEM_SHAPE_FINGERPRINT>  (1) 
10857977 72 17989492943731793613
11132069 177 17989491822703085805
11137873 295 15792283783259629570
11578080 2 18044348725529982309
12251169 10 17918276484510159385
124424 183 16630526185658244366
12932764 1 18259703402140737588
13024252 1 17385723587006838597
13380536 127 18411136909562038924
13538477 17 18408885109532160365
13581323 91 18343021090337034574
13764800 53 17775007825867074129
15076042 46 18266742381113356883
15219456 202 16845300405839515638
15375462 189 18188497976943170923
15653759 3 17489588961150792042
16945 1 18273215274806792965
17844478 74 17060625498763645848
18175812 5 16845576439150697325
19049666 15 16986891033634653148
19422 9 18261397723968612950
200 152 17675917716110181459
20361792 2 17676483964545661079
20645464 45 16845573110551088383
20645477 70 16878209909735065386
21486144 27 15554441912080089308
21650355 55 18271519888132794587
22445834 79 18186801335753847074
23559900 14 17988093188120152516
474 4 17826239781023357180
581208 293 17022904583862581508
77492 1 18187372042386465516
90316 7 18412548678292569001

>  <PUBCHEM_SHAPE_MULTIPOLES>  (1) 
272.28
6.24
1.52
1.17
2.58
0.63
0.06
-1.2
1.23
-1.32
0.07
0.58
-0.12
-0.58

>  <PUBCHEM_SHAPE_SELFOVERLAP>  (1) 
585.011

>  <PUBCHEM_SHAPE_VOLUME>  (1) 
149.4

>  <PUBCHEM_COORDINATE_TYPE>  (1) 
2
5
10

$$$$
