26724
     RDKit          3D

 14 15  0  0  0  0  0  0  0  0999 V2000
    4.3523   -0.2724    0.0006 Cl  0  0  0  0  0  0  0  0  0  0  0  0
   -1.9370   -1.3209    0.0001 O   0  0  0  0  0  0  0  0  0  0  0  0
   -0.2783   -2.8409   -0.0004 O   0  0  0  0  0  0  0  0  0  0  0  0
   -3.6092    0.1615    0.0003 O   0  0  0  0  0  0  0  0  0  0  0  0
   -1.4542    1.0074   -0.0001 N   0  0  0  0  0  0  0  0  0  0  0  0
   -0.0655    0.7394   -0.0002 C   0  0  0  0  0  0  0  0  0  0  0  0
    0.3573   -0.5834   -0.0001 C   0  0  0  0  0  0  0  0  0  0  0  0
    0.9049    1.7548   -0.0001 C   0  0  0  0  0  0  0  0  0  0  0  0
    1.7233   -0.9013   -0.0002 C   0  0  0  0  0  0  0  0  0  0  0  0
   -0.6296   -1.6671    0.0002 C   0  0  0  0  0  0  0  0  0  0  0  0
   -2.3910   -0.0276    0.0002 C   0  0  0  0  0  0  0  0  0  0  0  0
   -1.9155    2.3935   -0.0001 C   0  0  0  0  0  0  0  0  0  0  0  0
    2.2665    1.4427   -0.0001 C   0  0  0  0  0  0  0  0  0  0  0  0
    2.6761    0.1142   -0.0001 C   0  0  0  0  0  0  0  0  0  0  0  0
  1 14  1  0
  2 10  1  0
  2 11  1  0
  3 10  2  0
  4 11  2  0
  5  6  1  0
  5 11  1  0
  5 12  1  0
  6  7  2  0
  6  8  1  0
  7  9  1  0
  7 10  1  0
  8 13  2  0
  9 14  2  0
 13 14  1  0
M  END
>  <PUBCHEM_COMPOUND_CID>  (1) 
26724

>  <PUBCHEM_CONFORMER_RMSD>  (1) 
0.4

>  <PUBCHEM_CONFORMER_DIVERSEORDER>  (1) 
1

>  <PUBCHEM_MMFF94_PARTIAL_CHARGES>  (1) 
17
1 -0.18
10 0.63
11 0.78
12 0.3
13 -0.15
14 0.18
15 0.15
16 0.15
2 -0.3
20 0.15
3 -0.57
4 -0.57
5 -0.48
6 0.12
7 0.09
8 -0.15
9 -0.15

>  <PUBCHEM_EFFECTIVE_ROTOR_COUNT>  (1) 
0

>  <PUBCHEM_PHARMACOPHORE_FEATURES>  (1) 
4
1 3 acceptor
1 4 acceptor
6 2 5 6 7 10 11 rings
6 6 7 8 9 13 14 rings

>  <PUBCHEM_HEAVY_ATOM_COUNT>  (1) 
14

>  <PUBCHEM_ATOM_DEF_STEREO_COUNT>  (1) 
0

>  <PUBCHEM_ATOM_UDEF_STEREO_COUNT>  (1) 
0

>  <PUBCHEM_BOND_DEF_STEREO_COUNT>  (1) 
0

>  <PUBCHEM_BOND_UDEF_STEREO_COUNT>  (1) 
0

>  <PUBCHEM_ISOTOPIC_ATOM_COUNT>  (1) 
0

>  <PUBCHEM_COMPONENT_COUNT>  (1) 
1

>  <PUBCHEM_CACTVS_TAUTO_COUNT>  (1) 
1

>  <PUBCHEM_CONFORMER_ID>  (1) 
0000686400000001

>  <PUBCHEM_MMFF94_ENERGY>  (1) 
43.9302

>  <PUBCHEM_FEATURE_SELFOVERLAP>  (1) 
20.323

>  <PUBCHEM_SHAPE_FINGERPRINT>  (1) 
10608611 8 18341609352189071984
10967382 1 18410856538186084582
11132069 177 18342170094286216352
12423570 1 11568995432817890557
13140716 1 18266743673666495746
13380535 76 18413108363991503110
14325111 11 18410573989489006208
14614273 12 18116429246071187157
14993402 34 18408040702066604364
15775835 57 18260551091172031248
16945 1 18410855498972804004
17804303 29 18341054098874703488
193761 8 17690280404543878388
20201158 50 18343586239508935750
20510252 161 18272932687428661504
20588541 1 18413394232840803990
20645476 183 17750815404765344830
21501502 16 18195245748564526300
2334 1 17906453586068443751
23402539 116 18342727524979802757
23402655 69 18124578809604284853
23463225 33 18262797363726829482
23552423 10 17900822961564107004
23559900 14 18270685385326735348
25 1 18118671133263948533
2748010 2 18194685856321838702
43471831 8 18263642853571850954
5084963 1 18130787849727072353
528886 8 18411132537068937011
53812653 166 18269834224874773640
54173680 148 18265335195203544658
69090 78 18272082824937699846
7364860 26 17981324486833395943
8809292 202 18334861670550851274

>  <PUBCHEM_SHAPE_MULTIPOLES>  (1) 
267.39
5.2
2.38
0.59
2.57
0.37
0
-0.48
0
-0.89
0
0.07
-0.02
0

>  <PUBCHEM_SHAPE_SELFOVERLAP>  (1) 
573.483

>  <PUBCHEM_SHAPE_VOLUME>  (1) 
149

>  <PUBCHEM_COORDINATE_TYPE>  (1) 
2
5
10

$$$$
