26731
     RDKit          3D

 14 15  0  0  0  0  0  0  0  0999 V2000
   -0.0499   -2.3277   -0.0006 O   0  0  0  0  0  0  0  0  0  0  0  0
    3.7502    0.8322    0.0002 N   0  0  0  0  0  0  0  0  0  0  0  0
   -1.2907   -0.3450    0.0000 C   0  0  0  0  0  0  0  0  0  0  0  0
    1.2924   -0.4123   -0.0001 C   0  0  0  0  0  0  0  0  0  0  0  0
   -0.0405   -1.0877   -0.0003 C   0  0  0  0  0  0  0  0  0  0  0  0
   -1.2733    1.0498   -0.0002 C   0  0  0  0  0  0  0  0  0  0  0  0
   -2.5074   -1.0272    0.0002 C   0  0  0  0  0  0  0  0  0  0  0  0
    1.8791   -0.1157    1.2026 C   0  0  0  0  0  0  0  0  0  0  0  0
    1.8792   -0.1149   -1.2026 C   0  0  0  0  0  0  0  0  0  0  0  0
   -2.4725    1.7624   -0.0001 C   0  0  0  0  0  0  0  0  0  0  0  0
   -3.7065   -0.3145    0.0003 C   0  0  0  0  0  0  0  0  0  0  0  0
   -3.6889    1.0803    0.0001 C   0  0  0  0  0  0  0  0  0  0  0  0
    3.1144    0.5097    1.1490 C   0  0  0  0  0  0  0  0  0  0  0  0
    3.1144    0.5106   -1.1486 C   0  0  0  0  0  0  0  0  0  0  0  0
  1  5  2  0
  2 13  2  0
  2 14  1  0
  3  5  1  0
  3  6  2  0
  3  7  1  0
  4  5  1  0
  4  8  2  0
  4  9  1  0
  6 10  1  0
  7 11  2  0
  8 13  1  0
  9 14  2  0
 10 12  2  0
 11 12  1  0
M  END
>  <PUBCHEM_COMPOUND_CID>  (1) 
26731

>  <PUBCHEM_CONFORMER_RMSD>  (1) 
0.6

>  <PUBCHEM_CONFORMER_DIVERSEORDER>  (1) 
1

>  <PUBCHEM_MMFF94_PARTIAL_CHARGES>  (1) 
23
1 -0.57
10 -0.15
11 -0.15
12 -0.15
13 0.16
14 0.16
15 0.15
16 0.15
17 0.15
18 0.15
19 0.15
2 -0.62
20 0.15
21 0.15
22 0.15
23 0.15
3 0.09
4 0.09
5 0.4
6 -0.15
7 -0.15
8 -0.15
9 -0.15

>  <PUBCHEM_EFFECTIVE_ROTOR_COUNT>  (1) 
2

>  <PUBCHEM_PHARMACOPHORE_FEATURES>  (1) 
4
1 1 acceptor
1 2 acceptor
6 2 4 8 9 13 14 rings
6 3 6 7 10 11 12 rings

>  <PUBCHEM_HEAVY_ATOM_COUNT>  (1) 
14

>  <PUBCHEM_ATOM_DEF_STEREO_COUNT>  (1) 
0

>  <PUBCHEM_ATOM_UDEF_STEREO_COUNT>  (1) 
0

>  <PUBCHEM_BOND_DEF_STEREO_COUNT>  (1) 
0

>  <PUBCHEM_BOND_UDEF_STEREO_COUNT>  (1) 
0

>  <PUBCHEM_ISOTOPIC_ATOM_COUNT>  (1) 
0

>  <PUBCHEM_COMPONENT_COUNT>  (1) 
1

>  <PUBCHEM_CACTVS_TAUTO_COUNT>  (1) 
1

>  <PUBCHEM_CONFORMER_ID>  (1) 
0000686B00000001

>  <PUBCHEM_MMFF94_ENERGY>  (1) 
47.7898

>  <PUBCHEM_FEATURE_SELFOVERLAP>  (1) 
20.297

>  <PUBCHEM_SHAPE_FINGERPRINT>  (1) 
10498660 4 18411699851036789253
10608611 8 18273492368669130273
11031198 65 17060622217704102100
11132069 177 18335138683161984333
11471102 22 14923937960100893684
11543360 7 15697704983087306565
12251169 10 17240201027709406993
12932764 1 17775000185083259647
13538477 17 17896317089809606514
13764800 53 18336839631971280793
14144814 61 17894911827865112589
14289901 80 14996286945941947717
14614273 12 18261385595102366629
15219456 202 17775287161981414302
15775835 57 18186802478352479576
16945 1 18410575102359990727
17357990 137 17967542267846169068
17846911 113 18411132541622497033
18186145 218 17775576324801963194
20233049 118 18412259536999513232
20510252 161 18342744030855775273
20645477 70 16415208853534225214
21501925 9 8213847155294707799
21524375 3 18408884014357801818
22485316 2 9583519806601129932
22802520 49 17702399359323592100
23048698 100 17022618688974269472
23402539 116 18271798047405347884
23402655 69 15410902842127061072
23557571 272 17987803041346124863
23559900 14 18201725046644843070
2748010 2 18120379757316835591
276578 36 18334295344790071626
305870 269 18262795164287115434
474 4 16879923091165323396
7364860 26 18126564505322031319
77492 1 17676202511233709990
81228 2 17696464457424002231

>  <PUBCHEM_SHAPE_MULTIPOLES>  (1) 
277.26
6.67
1.56
1.01
0.45
0.31
0
-2.27
0
0.86
0
-1.02
-0.08
0

>  <PUBCHEM_SHAPE_SELFOVERLAP>  (1) 
604.177

>  <PUBCHEM_SHAPE_VOLUME>  (1) 
149.4

>  <PUBCHEM_COORDINATE_TYPE>  (1) 
2
5
10

$$$$
