26737
     RDKit          3D

 25 28  0  0  0  0  0  0  0  0999 V2000
    8.2367    1.6316    0.0979 Cl  0  0  0  0  0  0  0  0  0  0  0  0
   -3.1960   -1.3648    0.4335 O   0  0  0  0  0  0  0  0  0  0  0  0
   -6.3239    0.5478    0.1252 N   0  0  0  0  0  0  0  0  0  0  0  0
    3.1337   -1.1247   -0.6040 N   0  0  0  0  0  0  0  0  0  0  0  0
   -7.5862    0.5694    0.8636 C   0  0  0  0  0  0  0  0  0  0  0  0
   -6.7005    0.2812   -1.2627 C   0  0  0  0  0  0  0  0  0  0  0  0
   -8.5076    1.3519   -0.0604 C   0  0  0  0  0  0  0  0  0  0  0  0
   -7.9276    1.1595   -1.4583 C   0  0  0  0  0  0  0  0  0  0  0  0
   -5.3916   -0.4401    0.6475 C   0  0  0  0  0  0  0  0  0  0  0  0
   -4.0797   -0.3985   -0.1198 C   0  0  0  0  0  0  0  0  0  0  0  0
    2.2786   -0.2833    0.0579 C   0  0  0  0  0  0  0  0  0  0  0  0
    3.0194    0.7684    0.5495 C   0  0  0  0  0  0  0  0  0  0  0  0
    4.3754    0.5582    0.1725 C   0  0  0  0  0  0  0  0  0  0  0  0
    4.4196   -0.6359   -0.5503 C   0  0  0  0  0  0  0  0  0  0  0  0
    0.8667   -0.5619    0.1551 C   0  0  0  0  0  0  0  0  0  0  0  0
   -1.8546   -1.0994    0.3419 C   0  0  0  0  0  0  0  0  0  0  0  0
   -0.0071   -0.0835   -0.8210 C   0  0  0  0  0  0  0  0  0  0  0  0
    0.3754   -1.3100    1.2250 C   0  0  0  0  0  0  0  0  0  0  0  0
    2.5026    1.9130    1.3306 C   0  0  0  0  0  0  0  0  0  0  0  0
   -1.3725   -0.3530   -0.7272 C   0  0  0  0  0  0  0  0  0  0  0  0
   -0.9899   -1.5796    1.3189 C   0  0  0  0  0  0  0  0  0  0  0  0
    5.5732    1.2717    0.3772 C   0  0  0  0  0  0  0  0  0  0  0  0
    5.6064   -1.1542   -1.0806 C   0  0  0  0  0  0  0  0  0  0  0  0
    6.7677    0.7653   -0.1474 C   0  0  0  0  0  0  0  0  0  0  0  0
    6.7817   -0.4292   -0.8649 C   0  0  0  0  0  0  0  0  0  0  0  0
  1 24  1  0
  2 10  1  0
  2 16  1  0
  3  5  1  0
  3  6  1  0
  3  9  1  0
  4 11  1  0
  4 14  1  0
  5  7  1  0
  6  8  1  0
  7  8  1  0
  9 10  1  0
 11 12  2  0
 11 15  1  0
 12 13  1  0
 12 19  1  0
 13 14  2  0
 13 22  1  0
 14 23  1  0
 15 17  2  0
 15 18  1  0
 16 20  2  0
 16 21  1  0
 17 20  1  0
 18 21  2  0
 22 24  2  0
 23 25  2  0
 24 25  1  0
M  END
>  <PUBCHEM_COMPOUND_CID>  (1) 
26737

>  <PUBCHEM_CONFORMER_RMSD>  (1) 
0.8

>  <PUBCHEM_CONFORMER_DIVERSEORDER>  (1) 
1
6
34
30
39
33
11
10
37
19
17
13
38
32
29
36
40
5
26
20
14
28
15
35
8
25
9
22
18
41
21
23
24
27
12
7
3
2
31
4
16

>  <PUBCHEM_MMFF94_PARTIAL_CHARGES>  (1) 
30
1 -0.18
10 0.28
11 -0.2
12 -0.18
14 -0.15
15 0.05
16 0.08
17 -0.15
18 -0.15
19 0.18
2 -0.36
20 -0.15
21 -0.15
22 -0.15
23 -0.15
24 0.18
25 -0.15
3 -0.81
38 0.27
39 0.15
4 0.03
40 0.15
44 0.15
45 0.15
46 0.15
47 0.15
48 0.15
5 0.27
6 0.27
9 0.27

>  <PUBCHEM_EFFECTIVE_ROTOR_COUNT>  (1) 
6

>  <PUBCHEM_PHARMACOPHORE_FEATURES>  (1) 
8
1 2 acceptor
1 3 cation
1 4 cation
1 4 donor
5 3 5 6 7 8 rings
5 4 11 12 13 14 rings
6 13 14 22 23 24 25 rings
6 15 16 17 18 20 21 rings

>  <PUBCHEM_HEAVY_ATOM_COUNT>  (1) 
25

>  <PUBCHEM_ATOM_DEF_STEREO_COUNT>  (1) 
0

>  <PUBCHEM_ATOM_UDEF_STEREO_COUNT>  (1) 
0

>  <PUBCHEM_BOND_DEF_STEREO_COUNT>  (1) 
0

>  <PUBCHEM_BOND_UDEF_STEREO_COUNT>  (1) 
0

>  <PUBCHEM_ISOTOPIC_ATOM_COUNT>  (1) 
0

>  <PUBCHEM_COMPONENT_COUNT>  (1) 
1

>  <PUBCHEM_CACTVS_TAUTO_COUNT>  (1) 
1

>  <PUBCHEM_CONFORMER_ID>  (1) 
0000687100000001

>  <PUBCHEM_MMFF94_ENERGY>  (1) 
59.1159

>  <PUBCHEM_FEATURE_SELFOVERLAP>  (1) 
40.688

>  <PUBCHEM_SHAPE_FINGERPRINT>  (1) 
10 15 16732700537511135369
10100884 174 14925657695852064153
106641 1 15213023764978730961
10670039 82 17846218813864863153
10835480 77 18129944593645295128
11135609 127 18270678809594940868
11315181 36 17846502543815155739
11607047 141 17676757684072107992
12166972 35 15769774667083542754
12236239 1 16486985007514563658
12838862 33 17603854612399307637
13177829 20 13190345669004796487
13540713 5 14978017336397691015
13668630 136 12535628271805827781
13862211 1 13542465358579679695
13968360 50 16343708694748809583
14251764 18 17275106123839632641
14729087 3 18186800279782638389
14849402 71 13551772758673740895
14933364 13 18413390938906693587
15142383 8 18410573990105924852
15183329 4 17561083592556118771
15419008 47 18334290955751012797
15461852 350 18335982052395513487
15510800 12 11383832727220094077
155225 1 18334574621677476045
1577012 14 18113891663792798115
16120349 18 16917341563886954112
1818759 1 12463570703632812085
18335252 114 17988920067887716953
20105231 36 13045935782096475928
2026 5 11527945656655212637
21033648 29 18262791994680093296
21150785 3 16128374882687496433
21585482 111 18116993287843899485
21792934 111 18131344208219237976
221357 26 18202562860834784264
22224240 67 16950284018517955795
23559900 14 18201717409338676114
23576562 1 16557890373169343377
246663 6 9583520923266292120
249057 3 17632293505888774415
2838139 119 17988927769465705625
3004659 81 14908176460626873371
3178227 256 12757151290438045172
3633792 109 17489316256407836998
3663271 9 13406787801608602805
4073 2 18336831990972104410
4093350 32 17168136806843105418
4325135 7 16415480437707895061
4340502 62 12468356851503866096
5104073 3 10953996175311726375
5385378 56 17240478074612337755
54039377 194 11743831491977037029
5758199 1 17821730516518135163
58902169 19 17274815879025507381
59682541 35 17168150048818147745
636775 8 13182737087248436397

>  <PUBCHEM_SHAPE_MULTIPOLES>  (1) 
500.53
26.22
1.59
1.2
26.87
0.21
0.02
13.49
5.61
-0.78
-0.33
0.73
-0.03
1.67

>  <PUBCHEM_SHAPE_SELFOVERLAP>  (1) 
1081.102

>  <PUBCHEM_SHAPE_VOLUME>  (1) 
278.3

>  <PUBCHEM_COORDINATE_TYPE>  (1) 
2
5
10

$$$$
