26732
     RDKit          3D

 16 17  0  0  0  0  0  0  0  0999 V2000
    4.3219    1.1509   -0.0007 O   0  0  0  0  0  0  0  0  0  0  0  0
   -0.8933   -2.4213   -0.0005 O   0  0  0  0  0  0  0  0  0  0  0  0
   -4.3384    1.1228   -0.0002 N   0  0  0  0  0  0  0  0  0  0  0  0
    0.5495   -0.5805    0.0004 C   0  0  0  0  0  0  0  0  0  0  0  0
   -0.7722   -1.1873    0.0001 C   0  0  0  0  0  0  0  0  0  0  0  0
   -2.0263   -0.3751    0.0000 C   0  0  0  0  0  0  0  0  0  0  0  0
    0.6794    0.8082    0.0007 C   0  0  0  0  0  0  0  0  0  0  0  0
    1.6872   -1.3876    0.0002 C   0  0  0  0  0  0  0  0  0  0  0  0
    3.0850    0.5830    0.0005 C   0  0  0  0  0  0  0  0  0  0  0  0
    1.9472    1.3900    0.0006 C   0  0  0  0  0  0  0  0  0  0  0  0
    2.9551   -0.8059    0.0003 C   0  0  0  0  0  0  0  0  0  0  0  0
   -2.5782   -0.0173   -1.2026 C   0  0  0  0  0  0  0  0  0  0  0  0
   -2.5784   -0.0177    1.2025 C   0  0  0  0  0  0  0  0  0  0  0  0
   -3.7402    0.7354   -1.1490 C   0  0  0  0  0  0  0  0  0  0  0  0
   -3.7404    0.7352    1.1485 C   0  0  0  0  0  0  0  0  0  0  0  0
    5.4422    0.2673   -0.0007 C   0  0  0  0  0  0  0  0  0  0  0  0
  1  9  1  0
  1 16  1  0
  2  5  2  0
  3 14  2  0
  3 15  1  0
  4  5  1  0
  4  7  2  0
  4  8  1  0
  5  6  1  0
  6 12  2  0
  6 13  1  0
  7 10  1  0
  8 11  2  0
  9 10  2  0
  9 11  1  0
 12 14  1  0
 13 15  2  0
M  END
>  <PUBCHEM_COMPOUND_CID>  (1) 
26732

>  <PUBCHEM_CONFORMER_RMSD>  (1) 
0.6

>  <PUBCHEM_CONFORMER_DIVERSEORDER>  (1) 
1
2
4
3
5

>  <PUBCHEM_MMFF94_PARTIAL_CHARGES>  (1) 
24
1 -0.36
10 -0.15
11 -0.15
12 -0.15
13 -0.15
14 0.16
15 0.16
16 0.28
17 0.15
18 0.15
19 0.15
2 -0.57
20 0.15
21 0.15
22 0.15
23 0.15
24 0.15
3 -0.62
4 0.09
5 0.4
6 0.09
7 -0.15
8 -0.15
9 0.08

>  <PUBCHEM_EFFECTIVE_ROTOR_COUNT>  (1) 
3

>  <PUBCHEM_PHARMACOPHORE_FEATURES>  (1) 
5
1 1 acceptor
1 2 acceptor
1 3 acceptor
6 3 6 12 13 14 15 rings
6 4 7 8 9 10 11 rings

>  <PUBCHEM_HEAVY_ATOM_COUNT>  (1) 
16

>  <PUBCHEM_ATOM_DEF_STEREO_COUNT>  (1) 
0

>  <PUBCHEM_ATOM_UDEF_STEREO_COUNT>  (1) 
0

>  <PUBCHEM_BOND_DEF_STEREO_COUNT>  (1) 
0

>  <PUBCHEM_BOND_UDEF_STEREO_COUNT>  (1) 
0

>  <PUBCHEM_ISOTOPIC_ATOM_COUNT>  (1) 
0

>  <PUBCHEM_COMPONENT_COUNT>  (1) 
1

>  <PUBCHEM_CACTVS_TAUTO_COUNT>  (1) 
1

>  <PUBCHEM_CONFORMER_ID>  (1) 
0000686C00000001

>  <PUBCHEM_MMFF94_ENERGY>  (1) 
62.1809

>  <PUBCHEM_FEATURE_SELFOVERLAP>  (1) 
25.373

>  <PUBCHEM_SHAPE_FINGERPRINT>  (1) 
10014705 185 18337949099285931724
11089746 13 17775559854340998024
11401426 45 18059852879126718784
11471102 20 18411135810187437878
11543360 7 15625936581923934728
12236239 1 17775284928951913113
12251169 10 13551191082699129515
12500047 106 18340763840505373170
12507560 40 17240760632025891955
13214271 11 17458062685669627407
13583140 156 16950555606042016505
13675066 3 17749391485894263072
14252887 29 12035722094734045016
14897335 6 18341893008645003134
15219456 202 17967533432929655283
15309172 13 18407761426171288331
15653759 3 17095246912541249809
15775835 57 18272932709087756637
16945 1 18410575076389798338
18186145 218 18341336608453326903
18219364 16 18334580152750834305
19489759 90 15913329079002630378
200 152 17203323424888498413
20112054 13 18333735693387104325
20279233 1 17749109976273035827
20300324 65 16917066676699095497
204376 136 18408324388746003867
20645476 183 17131825478396083071
20645477 56 18260547844298016572
20645477 70 18338231553520889510
21524375 3 18411136961239023943
231179 274 18259701186021800780
23402539 116 17346880039799067304
23402655 69 18131065992083643229
23559900 14 18201721799844992864
25 1 18411697664597326431
27216 239 18040719194907412425
350125 39 18193564599433060971
3545911 37 18341898506118609619
474 4 18342460330991001017
4921388 177 15626224658529006973
5104073 3 18263639723073001064
633830 44 18129953252040900767
6430166 295 18407758153443086556
74978 22 18270115841558797312
77492 1 17703784761497350243
83771 10 9079112267669491519

>  <PUBCHEM_SHAPE_MULTIPOLES>  (1) 
312.55
9.12
1.56
0.96
4.85
0.59
0
-3.68
0
0.17
0
-1.14
-0.12
0

>  <PUBCHEM_SHAPE_SELFOVERLAP>  (1) 
676.665

>  <PUBCHEM_SHAPE_VOLUME>  (1) 
170.3

>  <PUBCHEM_COORDINATE_TYPE>  (1) 
2
5
10

$$$$
