26738
     RDKit          3D

 27 29  0  0  0  0  0  0  0  0999 V2000
   -3.8692   -2.0444    1.2054 O   0  0  0  0  0  0  0  0  0  0  0  0
   -3.5247    2.6115    0.1523 O   0  0  0  0  0  0  0  0  0  0  0  0
   -5.9459    2.5617   -0.8976 O   0  0  0  0  0  0  0  0  0  0  0  0
    7.8295   -0.4292   -0.1554 C   0  0  0  0  0  0  0  0  0  0  0  0
    8.3350    1.0129   -0.0141 C   0  0  0  0  0  0  0  0  0  0  0  0
    8.8205   -1.2788   -0.9626 C   0  0  0  0  0  0  0  0  0  0  0  0
    6.4457   -0.4550   -0.8018 C   0  0  0  0  0  0  0  0  0  0  0  0
    9.7404    1.0620    0.5811 C   0  0  0  0  0  0  0  0  0  0  0  0
   10.2250   -1.2261   -0.3656 C   0  0  0  0  0  0  0  0  0  0  0  0
   10.7204    0.2093   -0.2186 C   0  0  0  0  0  0  0  0  0  0  0  0
    5.3540   -0.0900    0.2043 C   0  0  0  0  0  0  0  0  0  0  0  0
    3.9435   -0.1084   -0.3928 C   0  0  0  0  0  0  0  0  0  0  0  0
    2.8009    0.1891    0.5830 C   0  0  0  0  0  0  0  0  0  0  0  0
    1.4128    0.0716   -0.0496 C   0  0  0  0  0  0  0  0  0  0  0  0
    0.3099    0.2893    0.9900 C   0  0  0  0  0  0  0  0  0  0  0  0
   -1.0796    0.2037    0.3504 C   0  0  0  0  0  0  0  0  0  0  0  0
   -2.2141    0.4446    1.3492 C   0  0  0  0  0  0  0  0  0  0  0  0
   -3.5735    0.2967    0.7521 C   0  0  0  0  0  0  0  0  0  0  0  0
   -4.3094   -0.8322    0.7079 C   0  0  0  0  0  0  0  0  0  0  0  0
   -4.1313    1.5493    0.1690 C   0  0  0  0  0  0  0  0  0  0  0  0
   -5.6634   -0.8841    0.1135 C   0  0  0  0  0  0  0  0  0  0  0  0
   -6.2495    0.2592   -0.4438 C   0  0  0  0  0  0  0  0  0  0  0  0
   -5.5018    1.5228   -0.4344 C   0  0  0  0  0  0  0  0  0  0  0  0
   -6.4086   -2.0761    0.0867 C   0  0  0  0  0  0  0  0  0  0  0  0
   -7.5307    0.2251   -1.0092 C   0  0  0  0  0  0  0  0  0  0  0  0
   -7.6879   -2.1170   -0.4761 C   0  0  0  0  0  0  0  0  0  0  0  0
   -8.2480   -0.9674   -1.0233 C   0  0  0  0  0  0  0  0  0  0  0  0
  1 19  1  0
  2 20  2  0
  3 23  2  0
  4  5  1  0
  4  6  1  0
  4  7  1  0
  5  8  1  0
  6  9  1  0
  7 11  1  0
  8 10  1  0
  9 10  1  0
 11 12  1  0
 12 13  1  0
 13 14  1  0
 14 15  1  0
 15 16  1  0
 16 17  1  0
 17 18  1  0
 18 19  2  0
 18 20  1  0
 19 21  1  0
 20 23  1  0
 21 22  2  0
 21 24  1  0
 22 23  1  0
 22 25  1  0
 24 26  2  0
 25 27  2  0
 26 27  1  0
M  END
>  <PUBCHEM_COMPOUND_CID>  (1) 
26738

>  <PUBCHEM_CONFORMER_RMSD>  (1) 
1.2

>  <PUBCHEM_CONFORMER_DIVERSEORDER>  (1) 
1
142
28
8
127
15
78
143
12
48
26
22
140
116
21
3
136
50
135
137
125
17
101
119
96
112
9
92
18
23
88
24
62
2
47
59
68
7
20
141
66
33
118
129
6
103
133
40
56
4
19
16
11
61
89
93
10
121
138
13
58
86
107
5
27
37
70
65
80
124
64
51
106
126
71
105
128
102
31
49
45
54
30
14
32
123
109
25
77
111
75
91
95
55
72
120
73
38
69
52
29
36
100
35
76
87
132
63
67
81
82
90
104
99
34
114
42
41
46
53
84
44
94
113
85
122
108
57
43
115
139
134
130
98
83
131
60
79
110
144
97
39
117
74

>  <PUBCHEM_MMFF94_PARTIAL_CHARGES>  (1) 
19
1 -0.53
17 0.14
18 -0.12
19 0.05
2 -0.57
20 0.56
21 0.03
22 0.09
23 0.48
24 -0.15
25 -0.15
26 -0.15
27 -0.15
3 -0.57
55 0.15
56 0.15
57 0.45
58 0.15
59 0.15

>  <PUBCHEM_EFFECTIVE_ROTOR_COUNT>  (1) 
10.2

>  <PUBCHEM_PHARMACOPHORE_FEATURES>  (1) 
6
1 1 donor
1 2 acceptor
1 3 acceptor
6 18 19 20 21 22 23 rings
6 21 22 24 25 26 27 rings
6 4 5 6 8 9 10 rings

>  <PUBCHEM_HEAVY_ATOM_COUNT>  (1) 
27

>  <PUBCHEM_ATOM_DEF_STEREO_COUNT>  (1) 
0

>  <PUBCHEM_ATOM_UDEF_STEREO_COUNT>  (1) 
0

>  <PUBCHEM_BOND_DEF_STEREO_COUNT>  (1) 
0

>  <PUBCHEM_BOND_UDEF_STEREO_COUNT>  (1) 
0

>  <PUBCHEM_ISOTOPIC_ATOM_COUNT>  (1) 
0

>  <PUBCHEM_COMPONENT_COUNT>  (1) 
1

>  <PUBCHEM_CACTVS_TAUTO_COUNT>  (1) 
53

>  <PUBCHEM_CONFORMER_ID>  (1) 
0000687200000001

>  <PUBCHEM_MMFF94_ENERGY>  (1) 
42.3856

>  <PUBCHEM_FEATURE_SELFOVERLAP>  (1) 
30.477

>  <PUBCHEM_SHAPE_FINGERPRINT>  (1) 
10162869 55 18342740733317845700
11315181 36 18202567267861360401
12082328 90 18130507444424331596
12089408 11 18334577915695287376
13885169 127 18335422353077901772
14150023 24 13984660356759435816
14202775 3 17846224320345726878
14251764 18 17385722487595522344
14251764 46 17703791427059727334
150020 25 18342172272183159072
15183329 4 17240480308021139635
15274700 232 18268152144786328127
15461852 350 18409731763813978676
15510794 2 18343303652826843934
1577012 14 17822569417381833481
15979999 66 18412263952421877768
16728433 110 16774072983017094488
1754911 235 18040433291935230310
1818759 1 15482674581049532620
20609170 92 18270962341607344407
21150785 3 18334294270826408994
21360443 89 11959716193665464621
232437 2 18272090492393404494
23559900 14 18265042713122498905
335507 130 15123511415407897096
395649 100 18113901597640807579
42767 2 18187086114869021086
54039377 194 17775282794226573253
59521660 218 16414904361643269848
636775 8 18187087304358924867
6691757 9 16877953728268881649
67123 10 18343020000275041436
9962374 69 16415186910710014856

>  <PUBCHEM_SHAPE_MULTIPOLES>  (1) 
538.04
40.53
1.94
1.02
87.73
0.27
0.07
-8.59
-9.94
-3.95
-0.17
-0.79
-0.04
1.4

>  <PUBCHEM_SHAPE_SELFOVERLAP>  (1) 
1114.942

>  <PUBCHEM_SHAPE_VOLUME>  (1) 
305.1

>  <PUBCHEM_COORDINATE_TYPE>  (1) 
2
5
10

$$$$
