2673
     RDKit          3D

 24 26  0  0  1  0  0  0  0  0999 V2000
    2.9993   -2.4834   -0.9145 S   0  0  0  0  0  0  0  0  0  0  0  0
    0.6384    0.3384    1.9310 O   0  0  0  0  0  0  0  0  0  0  0  0
   -1.8783   -1.5586    1.8252 O   0  0  0  0  0  0  0  0  0  0  0  0
    2.8759    2.7619    0.1212 O   0  0  0  0  0  0  0  0  0  0  0  0
    3.8046    1.7054    1.9243 O   0  0  0  0  0  0  0  0  0  0  0  0
    2.0548   -0.2346    0.1347 N   0  0  0  0  0  0  0  0  0  0  0  0
   -0.8083   -1.5927   -0.2321 N   0  0  0  0  0  0  0  0  0  0  0  0
   -4.2449   -2.2139    0.6443 N   0  0  0  0  0  0  0  0  0  0  0  0
    1.6426   -1.2993   -0.7619 C   0  0  0  0  0  0  0  0  0  0  0  0
    0.5573   -1.6306    0.2857 C   0  0  0  0  0  0  0  0  0  0  0  0
    1.0067   -0.3149    0.9831 C   0  0  0  0  0  0  0  0  0  0  0  0
    3.1935    0.4879   -0.0237 C   0  0  0  0  0  0  0  0  0  0  0  0
    4.1465   -1.2470   -1.6121 C   0  0  0  0  0  0  0  0  0  0  0  0
    4.1776    0.0822   -0.8611 C   0  0  0  0  0  0  0  0  0  0  0  0
   -1.9316   -1.5593    0.5958 C   0  0  0  0  0  0  0  0  0  0  0  0
   -3.2477   -1.5244   -0.1694 C   0  0  0  0  0  0  0  0  0  0  0  0
    5.4331    0.8683   -1.1532 C   0  0  0  0  0  0  0  0  0  0  0  0
    3.3381    1.6954    0.8029 C   0  0  0  0  0  0  0  0  0  0  0  0
   -3.6104   -0.0991   -0.4243 C   0  0  0  0  0  0  0  0  0  0  0  0
   -3.7732    0.7731    0.7979 C   0  0  0  0  0  0  0  0  0  0  0  0
   -3.7823    0.3799   -1.6692 C   0  0  0  0  0  0  0  0  0  0  0  0
   -4.1476    1.8051   -1.9695 C   0  0  0  0  0  0  0  0  0  0  0  0
   -4.1376    2.1975    0.4951 C   0  0  0  0  0  0  0  0  0  0  0  0
   -4.3062    2.6624   -0.7502 C   0  0  0  0  0  0  0  0  0  0  0  0
  1  9  1  0
  1 13  1  0
  2 11  2  0
  3 15  2  0
  4 18  1  0
  5 18  2  0
  6  9  1  0
  6 11  1  0
  6 12  1  0
  7 10  1  0
  7 15  1  0
  8 16  1  0
  9 10  1  0
 10 11  1  0
 12 14  2  0
 12 18  1  0
 13 14  1  0
 14 17  1  0
 15 16  1  0
 16 19  1  0
 19 20  1  0
 19 21  2  0
 20 23  1  0
 21 22  1  0
 22 24  1  0
 23 24  2  0
M  END
>  <PUBCHEM_COMPOUND_CID>  (1) 
2673

>  <PUBCHEM_CONFORMER_RMSD>  (1) 
0.8

>  <PUBCHEM_CONFORMER_DIVERSEORDER>  (1) 
1
94
60
61
6
76
10
79
30
81
73
18
91
22
47
53
36
26
90
84
34
38
89
75
93
3
28
45
92
23
13
85
29
58
83
82
55
25
70
32
17
77
27
95
7
87
50
66
24
31
33
72
5
62
37
57
42
46
68
54
20
4
51
44
67
65
86
56
74
40
59
19
8
43
2
78
69
16
21
64
88
15
63
41
80
49
9
52
35
48
71
12
39
11
14

>  <PUBCHEM_MMFF94_PARTIAL_CHARGES>  (1) 
31
1 -0.45
10 0.28
11 0.58
12 0.12
13 0.37
14 -0.28
15 0.57
16 0.47
17 0.14
18 0.71
19 -0.28
2 -0.57
20 0.28
21 -0.29
22 0.28
23 -0.29
24 -0.29
27 0.37
3 -0.57
36 0.15
37 0.36
38 0.36
4 -0.65
41 0.15
42 0.15
43 0.5
5 -0.57
6 -0.39
7 -0.65
8 -0.99
9 0.44

>  <PUBCHEM_EFFECTIVE_ROTOR_COUNT>  (1) 
6

>  <PUBCHEM_PHARMACOPHORE_FEATURES>  (1) 
11
1 2 acceptor
1 3 acceptor
1 4 acceptor
1 5 acceptor
1 7 donor
1 8 cation
1 8 donor
3 4 5 18 anion
4 6 9 10 11 rings
6 1 6 9 12 13 14 rings
6 19 20 21 22 23 24 rings

>  <PUBCHEM_HEAVY_ATOM_COUNT>  (1) 
24

>  <PUBCHEM_ATOM_DEF_STEREO_COUNT>  (1) 
0

>  <PUBCHEM_ATOM_UDEF_STEREO_COUNT>  (1) 
3

>  <PUBCHEM_BOND_DEF_STEREO_COUNT>  (1) 
0

>  <PUBCHEM_BOND_UDEF_STEREO_COUNT>  (1) 
0

>  <PUBCHEM_ISOTOPIC_ATOM_COUNT>  (1) 
0

>  <PUBCHEM_COMPONENT_COUNT>  (1) 
1

>  <PUBCHEM_CACTVS_TAUTO_COUNT>  (1) 
2

>  <PUBCHEM_CONFORMER_ID>  (1) 
00000A7100000001

>  <PUBCHEM_MMFF94_ENERGY>  (1) 
46.9199

>  <PUBCHEM_FEATURE_SELFOVERLAP>  (1) 
56.135

>  <PUBCHEM_SHAPE_FINGERPRINT>  (1) 
10498660 4 18334565812045196957
10646746 165 18335136514013413802
10670039 82 18187368765611554492
10764073 3 17264924492022703362
11135609 201 14059010509950524918
11595378 159 16370722608552723869
12363563 72 12031489009200173807
12403259 415 18343024440543316408
12596602 18 14707507892066081877
12616971 3 15697730284491636578
13544653 18 9294992575511533143
13944108 23 16895954640618834469
13965767 371 17097473316434821221
14251757 17 18413392024884651097
14251764 38 18336825411039885316
14341114 328 13912907284228516429
14347329 18 18259991487483742340
14848178 5 12966840204679317164
14848178 96 18335980887303984612
14950920 106 13479132350474386701
15961568 22 17754176706026806996
1601671 61 18333453145053912836
17913733 40 12036318090229360342
18186145 218 18411985749512946410
20645477 56 18409174316046278291
20645477 70 17632308903642280526
21033648 144 17773879881887939006
21033648 29 18411136973986438080
21279426 13 18340497660329411582
21709351 56 18272934955418813390
21864079 5 18337099052576139665
221357 26 18201720673935579839
22393880 68 18202565098655092358
23557571 272 18260837041752876543
23559900 14 18199185088453590826
341906 21 17968085451953905412
46194498 28 18199478820939254462
497634 4 17560250240347536027
508706 21 18260543424961701317
5252454 2 17896321312126156661
5281201 14 18271534172925093254
7399639 24 18196936793095712403
7471813 234 16558755581598786074
7808743 9 17822016401708873237

>  <PUBCHEM_SHAPE_MULTIPOLES>  (1) 
459.34
11.61
2.95
1.69
0.51
0.51
-0.04
5.07
3.83
0.8
-0.1
0.08
0.33
2.25

>  <PUBCHEM_SHAPE_SELFOVERLAP>  (1) 
960.816

>  <PUBCHEM_SHAPE_VOLUME>  (1) 
261.4

>  <PUBCHEM_COORDINATE_TYPE>  (1) 
2
5
10

$$$$
