26739
     RDKit          3D

 16 16  0  0  0  0  0  0  0  0999 V2000
   -1.7605    1.7762    1.8955 Cl  0  0  0  0  0  0  0  0  0  0  0  0
    3.1335   -0.1875    0.0448 O   0  0  0  0  0  0  0  0  0  0  0  0
    2.3438    1.6823   -1.0401 O   0  0  0  0  0  0  0  0  0  0  0  0
    0.6168   -2.2036    1.1232 N   0  0  0  0  0  0  0  0  0  0  0  0
   -1.6052    0.3151   -0.4125 C   0  0  0  0  0  0  0  0  0  0  0  0
   -0.2499    0.7333   -0.5966 C   0  0  0  0  0  0  0  0  0  0  0  0
   -2.3965    0.7216    0.6817 C   0  0  0  0  0  0  0  0  0  0  0  0
   -2.1855   -0.5447   -1.3650 C   0  0  0  0  0  0  0  0  0  0  0  0
    0.8165    0.0435   -0.1470 C   0  0  0  0  0  0  0  0  0  0  0  0
   -3.7146    0.2850    0.8156 C   0  0  0  0  0  0  0  0  0  0  0  0
   -3.5034   -0.9813   -1.2308 C   0  0  0  0  0  0  0  0  0  0  0  0
    4.4788    0.2527   -0.1690 C   0  0  0  0  0  0  0  0  0  0  0  0
   -4.2680   -0.5666   -0.1405 C   0  0  0  0  0  0  0  0  0  0  0  0
    2.1598    0.6291   -0.4462 C   0  0  0  0  0  0  0  0  0  0  0  0
    5.4303   -0.7594    0.4325 C   0  0  0  0  0  0  0  0  0  0  0  0
    0.7042   -1.1957    0.5545 C   0  0  0  0  0  0  0  0  0  0  0  0
  1  7  1  0
  2 12  1  0
  2 14  1  0
  3 14  2  0
  4 16  3  0
  5  6  1  0
  5  7  2  0
  5  8  1  0
  6  9  2  0
  7 10  1  0
  8 11  2  0
  9 14  1  0
  9 16  1  0
 10 13  2  0
 11 13  1  0
 12 15  1  0
M  END
>  <PUBCHEM_COMPOUND_CID>  (1) 
26739

>  <PUBCHEM_CONFORMER_RMSD>  (1) 
0.6

>  <PUBCHEM_CONFORMER_DIVERSEORDER>  (1) 
1
24
26
9
27
16
15
29
5
14
8
23
20
21
18
22
17
11
28
12
25
4
19
2
13
7
10
3
6

>  <PUBCHEM_MMFF94_PARTIAL_CHARGES>  (1) 
20
1 -0.18
10 -0.15
11 -0.15
12 0.28
13 -0.15
14 0.71
16 0.49
17 0.15
18 0.15
19 0.15
2 -0.43
20 0.15
23 0.15
3 -0.57
4 -0.56
5 0.03
6 -0.18
7 0.18
8 -0.15
9 0.08

>  <PUBCHEM_EFFECTIVE_ROTOR_COUNT>  (1) 
4

>  <PUBCHEM_PHARMACOPHORE_FEATURES>  (1) 
3
1 3 acceptor
1 4 acceptor
6 5 7 8 10 11 13 rings

>  <PUBCHEM_HEAVY_ATOM_COUNT>  (1) 
16

>  <PUBCHEM_ATOM_DEF_STEREO_COUNT>  (1) 
0

>  <PUBCHEM_ATOM_UDEF_STEREO_COUNT>  (1) 
0

>  <PUBCHEM_BOND_DEF_STEREO_COUNT>  (1) 
0

>  <PUBCHEM_BOND_UDEF_STEREO_COUNT>  (1) 
1

>  <PUBCHEM_ISOTOPIC_ATOM_COUNT>  (1) 
0

>  <PUBCHEM_COMPONENT_COUNT>  (1) 
1

>  <PUBCHEM_CACTVS_TAUTO_COUNT>  (1) 
1

>  <PUBCHEM_CONFORMER_ID>  (1) 
0000687300000001

>  <PUBCHEM_MMFF94_ENERGY>  (1) 
35.5399

>  <PUBCHEM_FEATURE_SELFOVERLAP>  (1) 
15.223

>  <PUBCHEM_SHAPE_FINGERPRINT>  (1) 
11578080 2 18054471873505658317
12236239 1 18342175579096590405
124424 183 16008748009127505736
12592029 89 17458052760031965770
13690532 89 18113614582524913230
13862211 1 18113328696696300762
13965767 371 17337345998312924185
15207287 21 16298389080383318739
15209289 33 18412827992731495946
15375462 189 18342459266298060707
15653759 3 16128651955296419883
16945 1 18262786471805642519
17862501 102 18342736308573005634
17870717 6 15068625941910500498
18175812 5 16298390196716158375
18186145 218 18261672670384043940
192875 21 18409451409718672472
19422 9 18272092737906679711
200 152 18335134302337332597
20645477 70 17313380102908504618
2297311 6 16988294148021795308
2306618 200 18341608179652639149
23402539 116 17846492634275863357
23557571 272 16415211056900323136
23559900 14 16343156740191357252
3286 77 18201433722717726992
77492 1 18342461456425439445
9981440 41 17263547207617007744

>  <PUBCHEM_SHAPE_MULTIPOLES>  (1) 
314.42
8.93
1.58
1.32
8.6
0.5
0.15
-1.35
0.46
-1.1
0.48
0.09
-0.07
-1.36

>  <PUBCHEM_SHAPE_SELFOVERLAP>  (1) 
642.006

>  <PUBCHEM_SHAPE_VOLUME>  (1) 
181.5

>  <PUBCHEM_COORDINATE_TYPE>  (1) 
2
5
10

$$$$
