26730
     RDKit          3D

 13 12  0  0  1  0  0  0  0  0999 V2000
    1.0162    1.6872    0.5246 O   0  0  0  0  0  0  0  0  0  0  0  0
   -2.7770   -0.0136   -0.4552 O   0  0  0  0  0  0  0  0  0  0  0  0
   -1.3504    0.4259    1.3035 O   0  0  0  0  0  0  0  0  0  0  0  0
    2.6487   -0.5702   -0.0074 N   0  0  0  0  0  0  0  0  0  0  0  0
    1.2142   -0.5335   -0.3866 C   0  0  0  0  0  0  0  0  0  0  0  0
    0.7522    0.9013   -0.6382 C   0  0  0  0  0  0  0  0  0  0  0  0
    3.1150   -2.0145    0.2217 C   0  0  0  0  0  0  0  0  0  0  0  0
    3.5200    0.0432   -1.1119 C   0  0  0  0  0  0  0  0  0  0  0  0
    2.8910    0.2201    1.2859 C   0  0  0  0  0  0  0  0  0  0  0  0
   -0.7363    1.0145   -0.9803 C   0  0  0  0  0  0  0  0  0  0  0  0
   -1.6234    0.4513    0.1114 C   0  0  0  0  0  0  0  0  0  0  0  0
   -3.7289   -0.5733    0.4554 C   0  0  0  0  0  0  0  0  0  0  0  0
   -4.9412   -1.0385   -0.3228 C   0  0  0  0  0  0  0  0  0  0  0  0
  1  6  1  0
  2 11  1  0
  2 12  1  0
  3 11  2  0
  4  5  1  0
  4  7  1  0
  4  8  1  0
  4  9  1  0
  5  6  1  0
  6 10  1  0
 10 11  1  0
 12 13  1  0
M  CHG  1   4   1
M  END
>  <PUBCHEM_COMPOUND_CID>  (1) 
26730

>  <PUBCHEM_CONFORMER_RMSD>  (1) 
0.6

>  <PUBCHEM_CONFORMER_DIVERSEORDER>  (1) 
2
16
9
3
21
5
35
29
26
17
33
7
14
20
11
15
30
31
38
36
8
37
6
27
4
39
12
24
32
1
28
10
23
13
25
34
19
22
18

>  <PUBCHEM_MMFF94_PARTIAL_CHARGES>  (1) 
13
1 -0.68
10 0.06
11 0.66
12 0.28
2 -0.43
28 0.4
3 -0.57
4 -1.01
5 0.5
6 0.28
7 0.5
8 0.5
9 0.5

>  <PUBCHEM_EFFECTIVE_ROTOR_COUNT>  (1) 
6

>  <PUBCHEM_PHARMACOPHORE_FEATURES>  (1) 
4
1 1 acceptor
1 1 donor
1 3 acceptor
1 4 cation

>  <PUBCHEM_HEAVY_ATOM_COUNT>  (1) 
13

>  <PUBCHEM_ATOM_DEF_STEREO_COUNT>  (1) 
1

>  <PUBCHEM_ATOM_UDEF_STEREO_COUNT>  (1) 
0

>  <PUBCHEM_BOND_DEF_STEREO_COUNT>  (1) 
0

>  <PUBCHEM_BOND_UDEF_STEREO_COUNT>  (1) 
0

>  <PUBCHEM_ISOTOPIC_ATOM_COUNT>  (1) 
0

>  <PUBCHEM_COMPONENT_COUNT>  (1) 
1

>  <PUBCHEM_CACTVS_TAUTO_COUNT>  (1) 
1

>  <PUBCHEM_CONFORMER_ID>  (1) 
0000686A00000002

>  <PUBCHEM_MMFF94_ENERGY>  (1) 
36.712

>  <PUBCHEM_FEATURE_SELFOVERLAP>  (1) 
20.301

>  <PUBCHEM_SHAPE_FINGERPRINT>  (1) 
11769659 78 18412542107081757015
122479 349 10951758694823982287
12251169 10 15482669091574795933
12616999 72 18113908173330371302
12932764 1 17917421004360730876
13296908 3 18338230470861557052
13549 16 14418125206427496023
14251717 144 18333731325326639299
14252887 29 18409164428545857136
15477762 27 18260551151296259855
177051 138 17989490731744501919
19422 9 18336836277459397510
20201158 50 17748831808189145106
20279233 1 15864078675818069704
20281407 28 18334859398423298885
20281475 54 18334860480791922301
20645476 183 13190342404777112449
20645477 70 17968095369529458927
20653085 51 8502360161721925036
20671657 53 18408888429884752189
20871999 31 17168144503424356421
21119208 17 12973601127411138546
21293036 1 15936411160711108141
21501925 9 18341889718916176321
22485316 2 18407476661275885927
231179 274 10447657867980990523
23402539 116 16660352667259207765
23402655 69 12324236161733334543
23500284 214 11455875975560532543
23557571 272 17458614602047640772
25 1 9151173159883476814
31174 14 18201988941782613928
3286 77 18201152157594065762
4047638 21 9943807798160111214
4990 188 16588022433519901739
581208 293 18334294279606377546
8030462 33 15141249758972838596
94968 8 18407762538414960586

>  <PUBCHEM_SHAPE_MULTIPOLES>  (1) 
244.94
7.88
1.45
1.12
7.09
0.31
0.18
3.92
-0.54
-0.73
-0.03
-0.48
-0.18
-0.04

>  <PUBCHEM_SHAPE_SELFOVERLAP>  (1) 
456.424

>  <PUBCHEM_SHAPE_VOLUME>  (1) 
155.3

>  <PUBCHEM_COORDINATE_TYPE>  (1) 
2
5
10

$$$$
