26749
     RDKit          3D

 15 15  0  0  0  0  0  0  0  0999 V2000
    0.8271   -3.4921   -0.0003 Cl  0  0  0  0  0  0  0  0  0  0  0  0
    2.7938   -1.2434   -0.0004 O   0  0  0  0  0  0  0  0  0  0  0  0
    1.8664    2.7058    0.0007 O   0  0  0  0  0  0  0  0  0  0  0  0
    3.3910    1.1263    0.0003 O   0  0  0  0  0  0  0  0  0  0  0  0
    2.1928    1.4953    0.0000 N   0  0  0  0  0  0  0  0  0  0  0  0
   -2.6107    0.3928   -0.0001 C   0  0  0  0  0  0  0  0  0  0  0  0
   -1.1394   -0.0539    0.0001 C   0  0  0  0  0  0  0  0  0  0  0  0
   -2.8966    1.2384   -1.2600 C   0  0  0  0  0  0  0  0  0  0  0  0
   -2.8959    1.2426    1.2573 C   0  0  0  0  0  0  0  0  0  0  0  0
   -3.6195   -0.7780    0.0023 C   0  0  0  0  0  0  0  0  0  0  0  0
   -0.1654    0.9127   -0.0008 C   0  0  0  0  0  0  0  0  0  0  0  0
   -0.8670   -1.3989    0.0010 C   0  0  0  0  0  0  0  0  0  0  0  0
    1.1695    0.5077   -0.0009 C   0  0  0  0  0  0  0  0  0  0  0  0
    0.4678   -1.8043    0.0007 C   0  0  0  0  0  0  0  0  0  0  0  0
    1.4861   -0.8508   -0.0001 C   0  0  0  0  0  0  0  0  0  0  0  0
  1 14  1  0
  2 15  1  0
  3  5  1  0
  4  5  2  0
  5 13  1  0
  6  7  1  0
  6  8  1  0
  6  9  1  0
  6 10  1  0
  7 11  2  0
  7 12  1  0
 11 13  1  0
 12 14  2  0
 13 15  2  0
 14 15  1  0
M  CHG  2   3  -1   5   1
M  END
>  <PUBCHEM_COMPOUND_CID>  (1) 
26749

>  <PUBCHEM_CONFORMER_RMSD>  (1) 
0.6

>  <PUBCHEM_CONFORMER_DIVERSEORDER>  (1) 
1
2

>  <PUBCHEM_MMFF94_PARTIAL_CHARGES>  (1) 
15
1 -0.18
11 -0.15
12 -0.15
13 0.13
14 0.18
15 0.08
2 -0.53
25 0.15
26 0.15
27 0.45
3 -0.52
4 -0.52
5 0.91
6 0.14
7 -0.14

>  <PUBCHEM_EFFECTIVE_ROTOR_COUNT>  (1) 
2

>  <PUBCHEM_PHARMACOPHORE_FEATURES>  (1) 
6
1 2 donor
1 3 acceptor
1 3 anion
1 4 acceptor
4 6 8 9 10 hydrophobe
6 7 11 12 13 14 15 rings

>  <PUBCHEM_HEAVY_ATOM_COUNT>  (1) 
15

>  <PUBCHEM_ATOM_DEF_STEREO_COUNT>  (1) 
0

>  <PUBCHEM_ATOM_UDEF_STEREO_COUNT>  (1) 
0

>  <PUBCHEM_BOND_DEF_STEREO_COUNT>  (1) 
0

>  <PUBCHEM_BOND_UDEF_STEREO_COUNT>  (1) 
0

>  <PUBCHEM_ISOTOPIC_ATOM_COUNT>  (1) 
0

>  <PUBCHEM_COMPONENT_COUNT>  (1) 
1

>  <PUBCHEM_CACTVS_TAUTO_COUNT>  (1) 
4

>  <PUBCHEM_CONFORMER_ID>  (1) 
0000687D00000001

>  <PUBCHEM_MMFF94_ENERGY>  (1) 
54.0919

>  <PUBCHEM_FEATURE_SELFOVERLAP>  (1) 
30.527

>  <PUBCHEM_SHAPE_FINGERPRINT>  (1) 
1 1 18410292501590327742
10608611 8 18261949661731531973
10967382 1 18410574006689747042
10980938 120 18408886204959667994
11471102 20 18410570644025747045
12553582 1 17547015126346510087
12654215 9 18189887617764483628
12932764 1 17895761686319166731
13140716 1 18410856559761369170
13380535 76 18339641264792480270
13897977 150 18409164394370780309
14325111 11 18410575097806606053
14648413 74 18263359184024620177
15219456 202 18260827068954684501
15309172 13 18337398243928715561
15442244 35 17837213671350544281
15775835 57 18412268358672214037
16945 1 18266740173389565799
17990270 104 18265330599678195739
18186145 218 18342182150074975292
193761 8 18050568735848712326
200 152 18201708566712858087
20510252 161 17837776990307078400
20645477 70 18337382756661963087
21028194 46 18261673774185422389
21501502 16 18411420605226752275
21524375 3 18263362645541524426
21639500 275 18338785745961706093
2334 1 18338516468481203670
23419403 2 14279581174839342283
23552423 10 18341049619076179147
23557571 272 17332821937719473604
25 1 18336268942186137460
2748010 2 18337115664934575574
352729 6 18122908904195624142
458136 41 18264514860533531067
63268167 104 18411698751387556705
7364860 26 18339924801095134135
74978 22 18195808458247698815
7832392 63 17982456992642429113
81228 2 17473258155229651242

>  <PUBCHEM_SHAPE_MULTIPOLES>  (1) 
287.97
5.1
2.93
0.82
1.9
1.31
0
-1.4
0
-2.28
0
0.7
-0.2
0

>  <PUBCHEM_SHAPE_SELFOVERLAP>  (1) 
594.998

>  <PUBCHEM_SHAPE_VOLUME>  (1) 
168.9

>  <PUBCHEM_COORDINATE_TYPE>  (1) 
2
5
10

$$$$
