2674
     RDKit          3D

 39 44  0  0  1  0  0  0  0  0999 V2000
    0.7111   -4.4196    0.9842 O   0  0  0  0  0  0  0  0  0  0  0  0
   -0.7062   -4.4200   -0.9846 O   0  0  0  0  0  0  0  0  0  0  0  0
    3.6214    2.6259   -0.0467 O   0  0  0  0  0  0  0  0  0  0  0  0
   -3.6242    2.6220    0.0462 O   0  0  0  0  0  0  0  0  0  0  0  0
    4.9274    0.2784    0.1223 O   0  0  0  0  0  0  0  0  0  0  0  0
   -4.9275    0.2731   -0.1228 O   0  0  0  0  0  0  0  0  0  0  0  0
    1.5626    4.4238   -2.3168 O   0  0  0  0  0  0  0  0  0  0  0  0
   -1.5676    4.4219    2.3171 O   0  0  0  0  0  0  0  0  0  0  0  0
    4.7831   -2.2678    0.0531 O   0  0  0  0  0  0  0  0  0  0  0  0
   -4.7805   -2.2729   -0.0526 O   0  0  0  0  0  0  0  0  0  0  0  0
    0.7174    0.3084    0.0173 C   0  0  0  0  0  0  0  0  0  0  0  0
   -0.7177    0.3076   -0.0170 C   0  0  0  0  0  0  0  0  0  0  0  0
    1.4144   -0.9257    0.0900 C   0  0  0  0  0  0  0  0  0  0  0  0
   -1.4133   -0.9272   -0.0897 C   0  0  0  0  0  0  0  0  0  0  0  0
    0.6972   -2.1405    0.1106 C   0  0  0  0  0  0  0  0  0  0  0  0
   -0.6949   -2.1413   -0.1103 C   0  0  0  0  0  0  0  0  0  0  0  0
    1.4996    1.4921   -0.0052 C   0  0  0  0  0  0  0  0  0  0  0  0
   -1.5012    1.4905    0.0052 C   0  0  0  0  0  0  0  0  0  0  0  0
    2.8286   -0.9233    0.1249 C   0  0  0  0  0  0  0  0  0  0  0  0
   -2.8276   -0.9263   -0.1248 C   0  0  0  0  0  0  0  0  0  0  0  0
    1.4402   -3.3794    0.4431 C   0  0  0  0  0  0  0  0  0  0  0  0
   -1.4365   -3.3807   -0.4432 C   0  0  0  0  0  0  0  0  0  0  0  0
    1.0484    2.8109   -0.5816 C   0  0  0  0  0  0  0  0  0  0  0  0
   -1.0514    2.8097    0.5819 C   0  0  0  0  0  0  0  0  0  0  0  0
    2.8946    1.4707    0.0284 C   0  0  0  0  0  0  0  0  0  0  0  0
   -2.8961    1.4676   -0.0287 C   0  0  0  0  0  0  0  0  0  0  0  0
    3.5644    0.2617    0.0903 C   0  0  0  0  0  0  0  0  0  0  0  0
   -3.5647    0.2579   -0.0905 C   0  0  0  0  0  0  0  0  0  0  0  0
    3.5678   -2.2063    0.1868 C   0  0  0  0  0  0  0  0  0  0  0  0
   -3.5654   -2.2102   -0.1865 C   0  0  0  0  0  0  0  0  0  0  0  0
    2.7764   -3.4187    0.4748 C   0  0  0  0  0  0  0  0  0  0  0  0
   -2.7727   -3.4216   -0.4750 C   0  0  0  0  0  0  0  0  0  0  0  0
    1.5715    3.0314   -2.0067 C   0  0  0  0  0  0  0  0  0  0  0  0
   -1.5751    3.0297    2.0069 C   0  0  0  0  0  0  0  0  0  0  0  0
    0.0028   -5.1673   -0.0003 C   0  0  0  0  0  0  0  0  0  0  0  0
    0.7106    2.3050   -3.0325 C   0  0  0  0  0  0  0  0  0  0  0  0
   -0.7137    2.3041    3.0329 C   0  0  0  0  0  0  0  0  0  0  0  0
    3.9429    3.2805    1.1612 C   0  0  0  0  0  0  0  0  0  0  0  0
   -3.9461    3.2762   -1.1618 C   0  0  0  0  0  0  0  0  0  0  0  0
  1 21  1  0
  1 35  1  0
  2 22  1  0
  2 35  1  0
  3 25  1  0
  3 38  1  0
  4 26  1  0
  4 39  1  0
  5 27  1  0
  6 28  1  0
  7 33  1  0
  8 34  1  0
  9 29  2  0
 10 30  2  0
 11 12  2  0
 11 13  1  0
 11 17  1  0
 12 14  1  0
 12 18  1  0
 13 15  2  0
 13 19  1  0
 14 16  2  0
 14 20  1  0
 15 16  1  0
 15 21  1  0
 16 22  1  0
 17 23  1  0
 17 25  2  0
 18 24  1  0
 18 26  2  0
 19 27  2  0
 19 29  1  0
 20 28  2  0
 20 30  1  0
 21 31  2  0
 22 32  2  0
 23 33  1  0
 24 34  1  0
 25 27  1  0
 26 28  1  0
 29 31  1  0
 30 32  1  0
 33 36  1  0
 34 37  1  0
M  END
>  <PUBCHEM_COMPOUND_CID>  (1) 
2674

>  <PUBCHEM_CONFORMER_RMSD>  (1) 
1

>  <PUBCHEM_CONFORMER_DIVERSEORDER>  (1) 
1
2

>  <PUBCHEM_MMFF94_PARTIAL_CHARGES>  (1) 
39
1 -0.36
10 -0.57
15 0.03
16 0.03
17 -0.14
18 -0.14
19 0.09
2 -0.36
20 0.09
21 0.05
22 0.05
23 0.14
24 0.14
25 0.08
26 0.08
27 0.08
28 0.08
29 0.47
3 -0.36
30 0.47
31 -0.14
32 -0.14
33 0.28
34 0.28
35 0.56
38 0.28
39 0.28
4 -0.36
44 0.15
45 0.15
5 -0.53
56 0.45
57 0.45
58 0.4
59 0.4
6 -0.53
7 -0.68
8 -0.68
9 -0.57

>  <PUBCHEM_EFFECTIVE_ROTOR_COUNT>  (1) 
6.6

>  <PUBCHEM_PHARMACOPHORE_FEATURES>  (1) 
18
1 1 acceptor
1 10 acceptor
1 2 acceptor
1 3 acceptor
1 4 acceptor
1 5 donor
1 6 donor
1 7 acceptor
1 7 donor
1 8 acceptor
1 8 donor
1 9 acceptor
6 11 12 13 14 15 16 rings
6 11 13 17 19 25 27 rings
6 12 14 18 20 26 28 rings
6 13 15 19 21 29 31 rings
6 14 16 20 22 30 32 rings
7 1 2 15 16 21 22 35 rings

>  <PUBCHEM_HEAVY_ATOM_COUNT>  (1) 
39

>  <PUBCHEM_ATOM_DEF_STEREO_COUNT>  (1) 
0

>  <PUBCHEM_ATOM_UDEF_STEREO_COUNT>  (1) 
2

>  <PUBCHEM_BOND_DEF_STEREO_COUNT>  (1) 
0

>  <PUBCHEM_BOND_UDEF_STEREO_COUNT>  (1) 
0

>  <PUBCHEM_ISOTOPIC_ATOM_COUNT>  (1) 
0

>  <PUBCHEM_COMPONENT_COUNT>  (1) 
1

>  <PUBCHEM_CACTVS_TAUTO_COUNT>  (1) 
78

>  <PUBCHEM_CONFORMER_ID>  (1) 
00000A7200000001

>  <PUBCHEM_MMFF94_ENERGY>  (1) 
264.9926

>  <PUBCHEM_FEATURE_SELFOVERLAP>  (1) 
91.562

>  <PUBCHEM_SHAPE_FINGERPRINT>  (1) 
10675989 125 18338785741930372253
1100329 8 18340767026996482666
11513181 2 18060133198304235790
12156800 1 16021901333375483913
12788726 201 18196104458672078632
13140716 1 18341338837979346531
14068700 675 18342450426606837190
14117953 113 17546153109039975343
14295345 954 17473563352065859393
144659 178 17543345411693597244
14725015 67 17040621263750925378
14790565 3 18410577287981399202
15320467 1 18266456701136836078
16067690 210 15119831143541099538
19319366 153 17974567206260435887
19591789 44 18410572885640369027
20642791 105 18337095861098927513
20739085 24 17759830055735739465
20764821 26 14662171063250207734
20775438 99 17469267705758007173
23559900 14 18270108003602185000
3380486 145 16896811159696492425
350125 39 18410294722093492915
392239 28 18129377266877729888
463206 1 18052541267961182570

>  <PUBCHEM_SHAPE_MULTIPOLES>  (1) 
743.91
7.34
7.32
1.7
3.19
0.01
0
-0.03
0.02
-0.53
-0.02
-2.85
0.02
1.32

>  <PUBCHEM_SHAPE_SELFOVERLAP>  (1) 
1696.618

>  <PUBCHEM_SHAPE_VOLUME>  (1) 
383.9

>  <PUBCHEM_COORDINATE_TYPE>  (1) 
2
5
10

$$$$
