26745
     RDKit          3D

 28 30  0  0  1  0  0  0  0  0999 V2000
   -0.1288   -1.4999    0.1355 O   0  0  0  0  0  0  0  0  0  0  0  0
    5.1528   -2.2280   -0.3519 O   0  0  0  0  0  0  0  0  0  0  0  0
   -0.1268    4.0728    0.2059 O   0  0  0  0  0  0  0  0  0  0  0  0
    1.2718    2.4709    1.1508 N   0  0  0  0  0  0  0  0  0  0  0  0
   -1.1155   -0.4519    0.1858 C   0  0  0  0  0  0  0  0  0  0  0  0
   -0.4341    0.7121    0.9826 C   0  0  0  0  0  0  0  0  0  0  0  0
    0.8385    1.3390    0.3534 C   0  0  0  0  0  0  0  0  0  0  0  0
   -1.4451   -0.0837   -1.2738 C   0  0  0  0  0  0  0  0  0  0  0  0
   -2.3864   -0.9623    0.8772 C   0  0  0  0  0  0  0  0  0  0  0  0
    1.9951    0.3825    0.1639 C   0  0  0  0  0  0  0  0  0  0  0  0
   -1.3188   -1.0561   -2.2319 C   0  0  0  0  0  0  0  0  0  0  0  0
   -3.1944   -0.0528    1.5162 C   0  0  0  0  0  0  0  0  0  0  0  0
   -1.8490    1.1982   -1.5435 C   0  0  0  0  0  0  0  0  0  0  0  0
   -2.6637   -2.3071    0.8281 C   0  0  0  0  0  0  0  0  0  0  0  0
    2.5241    0.2031   -1.1026 C   0  0  0  0  0  0  0  0  0  0  0  0
    2.5001   -0.2924    1.2619 C   0  0  0  0  0  0  0  0  0  0  0  0
    0.7465    3.7397    1.0027 C   0  0  0  0  0  0  0  0  0  0  0  0
   -1.6170   -0.7230   -3.5531 C   0  0  0  0  0  0  0  0  0  0  0  0
   -4.3500   -0.5167    2.1449 C   0  0  0  0  0  0  0  0  0  0  0  0
   -2.1475    1.5313   -2.8647 C   0  0  0  0  0  0  0  0  0  0  0  0
   -3.8195   -2.7710    1.4565 C   0  0  0  0  0  0  0  0  0  0  0  0
    3.5909   -0.6787   -1.2767 C   0  0  0  0  0  0  0  0  0  0  0  0
    3.5670   -1.1739    1.0879 C   0  0  0  0  0  0  0  0  0  0  0  0
   -2.0314    0.5708   -3.8696 C   0  0  0  0  0  0  0  0  0  0  0  0
   -4.6626   -1.8758    2.1151 C   0  0  0  0  0  0  0  0  0  0  0  0
    4.1123   -1.3672   -0.1814 C   0  0  0  0  0  0  0  0  0  0  0  0
    1.3541    4.7194    1.9704 C   0  0  0  0  0  0  0  0  0  0  0  0
    5.6373   -2.8992    0.8101 C   0  0  0  0  0  0  0  0  0  0  0  0
  1  5  1  0
  2 26  1  0
  2 28  1  0
  3 17  2  0
  4  7  1  0
  4 17  1  0
  5  6  1  0
  5  8  1  0
  5  9  1  0
  6  7  1  0
  7 10  1  0
  8 11  2  0
  8 13  1  0
  9 12  2  0
  9 14  1  0
 10 15  2  0
 10 16  1  0
 11 18  1  0
 12 19  1  0
 13 20  2  0
 14 21  2  0
 15 22  1  0
 16 23  2  0
 17 27  1  0
 18 24  2  0
 19 25  2  0
 20 24  1  0
 21 25  1  0
 22 26  2  0
 23 26  1  0
M  END
>  <PUBCHEM_COMPOUND_CID>  (1) 
26745

>  <PUBCHEM_CONFORMER_RMSD>  (1) 
1

>  <PUBCHEM_CONFORMER_DIVERSEORDER>  (1) 
1
6
7
12
15
11
14
8
2
10
3
9
4
5
13

>  <PUBCHEM_MMFF94_PARTIAL_CHARGES>  (1) 
43
1 -0.68
10 -0.14
11 -0.15
12 -0.15
13 -0.15
14 -0.15
15 -0.15
16 -0.15
17 0.57
18 -0.15
19 -0.15
2 -0.36
20 -0.15
21 -0.15
22 -0.15
23 -0.15
24 -0.15
25 -0.15
26 0.08
27 0.06
28 0.28
3 -0.57
32 0.37
33 0.4
34 0.15
35 0.15
36 0.15
37 0.15
38 0.15
39 0.15
4 -0.73
40 0.15
41 0.15
42 0.15
43 0.15
44 0.15
45 0.15
46 0.15
47 0.15
5 0.57
7 0.44
8 -0.14
9 -0.14

>  <PUBCHEM_EFFECTIVE_ROTOR_COUNT>  (1) 
8

>  <PUBCHEM_PHARMACOPHORE_FEATURES>  (1) 
8
1 1 acceptor
1 1 donor
1 2 acceptor
1 3 acceptor
1 4 donor
6 10 15 16 22 23 26 rings
6 8 11 13 18 20 24 rings
6 9 12 14 19 21 25 rings

>  <PUBCHEM_HEAVY_ATOM_COUNT>  (1) 
28

>  <PUBCHEM_ATOM_DEF_STEREO_COUNT>  (1) 
0

>  <PUBCHEM_ATOM_UDEF_STEREO_COUNT>  (1) 
1

>  <PUBCHEM_BOND_DEF_STEREO_COUNT>  (1) 
0

>  <PUBCHEM_BOND_UDEF_STEREO_COUNT>  (1) 
0

>  <PUBCHEM_ISOTOPIC_ATOM_COUNT>  (1) 
0

>  <PUBCHEM_COMPONENT_COUNT>  (1) 
1

>  <PUBCHEM_CACTVS_TAUTO_COUNT>  (1) 
2

>  <PUBCHEM_CONFORMER_ID>  (1) 
0000687900000001

>  <PUBCHEM_MMFF94_ENERGY>  (1) 
98.8566

>  <PUBCHEM_FEATURE_SELFOVERLAP>  (1) 
40.597

>  <PUBCHEM_SHAPE_FINGERPRINT>  (1) 
10074138 170 17981611459711274392
10369192 42 17829615307559225812
10764073 3 16622965797407925347
11443803 9 16907186215972571825
11578080 2 18040708225139465413
11763715 3 17829924227608339107
12160290 23 17767954343227830560
12553582 1 18131071515917897374
12633257 1 18198367137817156571
12714826 92 17894909611630553882
12788726 201 18121528807113169642
133893 2 17771321335267549136
13583140 156 18054797449300697881
14713325 29 17096368324065116462
15842332 3 17058080258199715885
16114785 44 15049470134778727594
17980427 23 17631469916235691409
17980427 26 17768537436082062268
19319366 153 17253968880960061405
20505436 4 16983515833659483849
21304303 282 17542200386751202260
22907989 373 16877929525970263623
23419403 2 18261945375280311109
23598288 3 18270129993814018164
238918 7 17127352493190408425
25222932 49 16546665673905525919
266924 78 17911225440911186645
31174 14 18192996143167867105
3380486 145 17702924986238493808
376196 1 16605680684588748677
44062 13 17096362822618601314
4409770 3 18045225934008592961
469060 322 17846489305955998631
484985 159 17899982629796324602
497634 4 17896905170165283926
57527573 199 17766015904291566249
621550 5 17967824872140763497
6786 2 16810373152500556823
9658208 31 17460845502924737421
9981440 41 17040859750320744825

>  <PUBCHEM_SHAPE_MULTIPOLES>  (1) 
553.64
8.5
4.18
3.32
6.11
4.98
-3.7
-10.03
3.59
2.48
3.19
-3.83
1.03
2.61

>  <PUBCHEM_SHAPE_SELFOVERLAP>  (1) 
1192.985

>  <PUBCHEM_SHAPE_VOLUME>  (1) 
303.1

>  <PUBCHEM_COORDINATE_TYPE>  (1) 
2
5
10

$$$$
