26750
     RDKit          3D

 25 27  0  0  1  0  0  0  0  0999 V2000
   -1.4116    0.1177   -2.3404 O   0  0  0  0  0  0  0  0  0  0  0  0
    1.0774    1.3712   -2.5055 N   0  0  0  0  0  0  0  0  0  0  0  0
   -0.9523   -0.5653   -1.1697 C   0  0  0  0  0  0  0  0  0  0  0  0
    0.1160    0.3207   -0.4575 C   0  0  0  0  0  0  0  0  0  0  0  0
   -0.3252   -1.9143   -1.6294 C   0  0  0  0  0  0  0  0  0  0  0  0
   -2.1712   -0.8150   -0.2354 C   0  0  0  0  0  0  0  0  0  0  0  0
    1.3969    0.6797   -1.2545 C   0  0  0  0  0  0  0  0  0  0  0  0
    0.1906   -2.8141   -0.5269 C   0  0  0  0  0  0  0  0  0  0  0  0
   -2.8720    0.4225    0.2820 C   0  0  0  0  0  0  0  0  0  0  0  0
    2.3611    1.4899   -0.3988 C   0  0  0  0  0  0  0  0  0  0  0  0
    1.5041   -2.6866   -0.1101 C   0  0  0  0  0  0  0  0  0  0  0  0
   -2.4519    0.9885    1.4731 C   0  0  0  0  0  0  0  0  0  0  0  0
   -0.6624   -3.7449    0.0399 C   0  0  0  0  0  0  0  0  0  0  0  0
   -3.9180    0.9613   -0.4469 C   0  0  0  0  0  0  0  0  0  0  0  0
    2.2611    2.8658   -0.4036 C   0  0  0  0  0  0  0  0  0  0  0  0
    3.3051    0.8234    0.3546 C   0  0  0  0  0  0  0  0  0  0  0  0
    1.9795   -3.5157    0.9057 C   0  0  0  0  0  0  0  0  0  0  0  0
   -3.0978    2.1290    1.9502 C   0  0  0  0  0  0  0  0  0  0  0  0
   -0.1870   -4.5741    1.0558 C   0  0  0  0  0  0  0  0  0  0  0  0
   -4.5639    2.1018    0.0302 C   0  0  0  0  0  0  0  0  0  0  0  0
    3.1444    3.6082    0.3801 C   0  0  0  0  0  0  0  0  0  0  0  0
    4.1885    1.5658    1.1383 C   0  0  0  0  0  0  0  0  0  0  0  0
    1.1341   -4.4595    1.4888 C   0  0  0  0  0  0  0  0  0  0  0  0
   -4.1537    2.6858    1.2288 C   0  0  0  0  0  0  0  0  0  0  0  0
    4.1082    2.9582    1.1511 C   0  0  0  0  0  0  0  0  0  0  0  0
  1  3  1  0
  2  7  1  0
  3  4  1  0
  3  5  1  0
  3  6  1  0
  4  7  1  0
  5  8  1  0
  6  9  1  0
  7 10  1  0
  8 11  2  0
  8 13  1  0
  9 12  2  0
  9 14  1  0
 10 15  2  0
 10 16  1  0
 11 17  1  0
 12 18  1  0
 13 19  2  0
 14 20  2  0
 15 21  1  0
 16 22  2  0
 17 23  2  0
 18 24  2  0
 19 23  1  0
 20 24  1  0
 21 25  2  0
 22 25  1  0
M  END
>  <PUBCHEM_COMPOUND_CID>  (1) 
26750

>  <PUBCHEM_CONFORMER_RMSD>  (1) 
0.8

>  <PUBCHEM_CONFORMER_DIVERSEORDER>  (1) 
3
9
7
8
5
16
6
13
12
4
11
10
2
15
14
17
1

>  <PUBCHEM_MMFF94_PARTIAL_CHARGES>  (1) 
42
1 -0.68
10 -0.14
11 -0.15
12 -0.15
13 -0.15
14 -0.15
15 -0.15
16 -0.15
17 -0.15
18 -0.15
19 -0.15
2 -0.99
20 -0.15
21 -0.15
22 -0.15
23 -0.15
24 -0.15
25 -0.15
3 0.28
33 0.4
34 0.36
35 0.36
36 0.15
37 0.15
38 0.15
39 0.15
40 0.15
41 0.15
42 0.15
43 0.15
44 0.15
45 0.15
46 0.15
47 0.15
48 0.15
49 0.15
5 0.14
50 0.15
6 0.14
7 0.41
8 -0.14
9 -0.14

>  <PUBCHEM_EFFECTIVE_ROTOR_COUNT>  (1) 
7

>  <PUBCHEM_PHARMACOPHORE_FEATURES>  (1) 
7
1 1 acceptor
1 1 donor
1 2 cation
1 2 donor
6 10 15 16 21 22 25 rings
6 8 11 13 17 19 23 rings
6 9 12 14 18 20 24 rings

>  <PUBCHEM_HEAVY_ATOM_COUNT>  (1) 
25

>  <PUBCHEM_ATOM_DEF_STEREO_COUNT>  (1) 
0

>  <PUBCHEM_ATOM_UDEF_STEREO_COUNT>  (1) 
1

>  <PUBCHEM_BOND_DEF_STEREO_COUNT>  (1) 
0

>  <PUBCHEM_BOND_UDEF_STEREO_COUNT>  (1) 
0

>  <PUBCHEM_ISOTOPIC_ATOM_COUNT>  (1) 
0

>  <PUBCHEM_COMPONENT_COUNT>  (1) 
1

>  <PUBCHEM_CACTVS_TAUTO_COUNT>  (1) 
1

>  <PUBCHEM_CONFORMER_ID>  (1) 
0000687E00000003

>  <PUBCHEM_MMFF94_ENERGY>  (1) 
77.1344

>  <PUBCHEM_FEATURE_SELFOVERLAP>  (1) 
35.525

>  <PUBCHEM_SHAPE_FINGERPRINT>  (1) 
10439779 11 17192078453500857529
1100329 8 18410853223094409002
11036077 51 18267578198997632162
11552529 35 17687452882229900904
11578080 2 10894169471544324655
12156800 1 13449125780324944969
12160290 23 17908726251207832503
12549972 3 17842868730593884380
12655364 131 17979593984997416026
12788726 201 17762061338321651838
13134695 92 17832992641985155685
13583140 156 18193013529965757625
14787075 74 17985542506085930943
14955137 171 17910695175532702999
15420108 30 17986097531223317519
15463212 79 18269540805615534457
17974551 9 18059001921804745488
17980427 23 17339267927969700177
21120745 212 17181396105072433740
2132832 1 17697299739080664109
23419403 2 17609486134277619861
23558518 356 18268712882033792366
244849 19 17461709611769199365
345986 75 16743407319243440451
3493558 16 14832484770812461450
35225 105 17758716546650900930
376196 1 17703791431181283960
394222 165 18130791092870434075
474 4 18341047402777953251
56638632 10 18197196080487428944
5895379 119 16337809625956158745
6371380 46 18412544302343055100
67856867 119 18197213651625807113
79837 15 18265052607629519835
81228 2 17548167835470304479
9981440 41 17631448046066696396

>  <PUBCHEM_SHAPE_MULTIPOLES>  (1) 
503.64
7.2
6.43
1.83
2.99
6.97
-0.5
-10.18
2.99
-4
3.04
0.32
-0.16
-1

>  <PUBCHEM_SHAPE_SELFOVERLAP>  (1) 
1077.948

>  <PUBCHEM_SHAPE_VOLUME>  (1) 
276.4

>  <PUBCHEM_COORDINATE_TYPE>  (1) 
2
5
10

$$$$
