26756
     RDKit          3D

 24 27  0  0  0  0  0  0  0  0999 V2000
   -2.8190   -1.3822    0.3947 O   0  0  0  0  0  0  0  0  0  0  0  0
   -5.9945    0.4575    0.1326 N   0  0  0  0  0  0  0  0  0  0  0  0
    3.5043   -0.9494   -0.6216 N   0  0  0  0  0  0  0  0  0  0  0  0
   -7.2582    0.4260    0.8682 C   0  0  0  0  0  0  0  0  0  0  0  0
   -6.3617    0.2205   -1.2632 C   0  0  0  0  0  0  0  0  0  0  0  0
   -8.1978    1.2103   -0.0358 C   0  0  0  0  0  0  0  0  0  0  0  0
   -7.6106    1.0722   -1.4371 C   0  0  0  0  0  0  0  0  0  0  0  0
   -5.0380   -0.5204    0.6292 C   0  0  0  0  0  0  0  0  0  0  0  0
   -3.7263   -0.4237   -0.1334 C   0  0  0  0  0  0  0  0  0  0  0  0
    2.6267   -0.1506    0.0631 C   0  0  0  0  0  0  0  0  0  0  0  0
    3.3388    0.9056    0.5860 C   0  0  0  0  0  0  0  0  0  0  0  0
    4.7001    0.7427    0.2050 C   0  0  0  0  0  0  0  0  0  0  0  0
    4.7766   -0.4283   -0.5519 C   0  0  0  0  0  0  0  0  0  0  0  0
    1.2222   -0.4679    0.1489 C   0  0  0  0  0  0  0  0  0  0  0  0
   -1.4847   -1.0800    0.3139 C   0  0  0  0  0  0  0  0  0  0  0  0
    0.3380    0.0151   -0.8155 C   0  0  0  0  0  0  0  0  0  0  0  0
    0.7484   -1.2581    1.1963 C   0  0  0  0  0  0  0  0  0  0  0  0
   -1.0201   -0.2918   -0.7327 C   0  0  0  0  0  0  0  0  0  0  0  0
   -0.6097   -1.5652    1.2791 C   0  0  0  0  0  0  0  0  0  0  0  0
    2.7911    2.0126    1.3998 C   0  0  0  0  0  0  0  0  0  0  0  0
    5.8784    1.4816    0.4322 C   0  0  0  0  0  0  0  0  0  0  0  0
    5.9771   -0.8993   -1.0954 C   0  0  0  0  0  0  0  0  0  0  0  0
    7.0863    1.0225   -0.1053 C   0  0  0  0  0  0  0  0  0  0  0  0
    7.1326   -0.1498   -0.8570 C   0  0  0  0  0  0  0  0  0  0  0  0
  1  9  1  0
  1 15  1  0
  2  4  1  0
  2  5  1  0
  2  8  1  0
  3 10  1  0
  3 13  1  0
  4  6  1  0
  5  7  1  0
  6  7  1  0
  8  9  1  0
 10 11  2  0
 10 14  1  0
 11 12  1  0
 11 20  1  0
 12 13  2  0
 12 21  1  0
 13 22  1  0
 14 16  2  0
 14 17  1  0
 15 18  2  0
 15 19  1  0
 16 18  1  0
 17 19  2  0
 21 23  2  0
 22 24  2  0
 23 24  1  0
M  END
>  <PUBCHEM_COMPOUND_CID>  (1) 
26756

>  <PUBCHEM_CONFORMER_RMSD>  (1) 
0.8

>  <PUBCHEM_CONFORMER_DIVERSEORDER>  (1) 
1
36
15
32
14
3
2
34
40
29
33
6
23
37
26
18
19
35
17
10
24
20
12
39
8
30
7
13
21
25
16
9
31
22
38
27
28
11
4
5

>  <PUBCHEM_MMFF94_PARTIAL_CHARGES>  (1) 
30
1 -0.36
10 -0.2
11 -0.18
13 -0.15
14 0.05
15 0.08
16 -0.15
17 -0.15
18 -0.15
19 -0.15
2 -0.81
20 0.18
21 -0.15
22 -0.15
23 -0.15
24 -0.15
3 0.03
37 0.27
38 0.15
39 0.15
4 0.27
43 0.15
44 0.15
45 0.15
46 0.15
47 0.15
48 0.15
5 0.27
8 0.27
9 0.28

>  <PUBCHEM_EFFECTIVE_ROTOR_COUNT>  (1) 
6

>  <PUBCHEM_PHARMACOPHORE_FEATURES>  (1) 
8
1 1 acceptor
1 2 cation
1 3 cation
1 3 donor
5 2 4 5 6 7 rings
5 3 10 11 12 13 rings
6 12 13 21 22 23 24 rings
6 14 15 16 17 18 19 rings

>  <PUBCHEM_HEAVY_ATOM_COUNT>  (1) 
24

>  <PUBCHEM_ATOM_DEF_STEREO_COUNT>  (1) 
0

>  <PUBCHEM_ATOM_UDEF_STEREO_COUNT>  (1) 
0

>  <PUBCHEM_BOND_DEF_STEREO_COUNT>  (1) 
0

>  <PUBCHEM_BOND_UDEF_STEREO_COUNT>  (1) 
0

>  <PUBCHEM_ISOTOPIC_ATOM_COUNT>  (1) 
0

>  <PUBCHEM_COMPONENT_COUNT>  (1) 
1

>  <PUBCHEM_CACTVS_TAUTO_COUNT>  (1) 
1

>  <PUBCHEM_CONFORMER_ID>  (1) 
0000688400000001

>  <PUBCHEM_MMFF94_ENERGY>  (1) 
58.384

>  <PUBCHEM_FEATURE_SELFOVERLAP>  (1) 
40.688

>  <PUBCHEM_SHAPE_FINGERPRINT>  (1) 
10 15 16588022399418548181
106641 1 14562536193164287685
10670039 82 17846218813769930585
10674148 151 17603303765816830504
10835480 77 17987797544320918256
12166972 35 15697999652013491386
12236239 1 16343713149162650794
12516196 113 8070028865470907207
12596602 18 13984653729550868845
13073987 5 11891315544191937991
13177829 20 13262402167657239407
13533116 47 18262232218818819242
13540713 4 15865734424603416375
13668630 136 12319736968942694405
13914758 101 17489596627487937699
13968360 50 16271933679214547567
14251752 14 15985383387327292909
14251757 52 17022910081479113596
14729087 3 18186236226091258805
14849402 71 13696168322003618127
14933364 13 18413390943090884593
15142383 8 18411981369353030188
15183329 4 17561365071716994419
15419008 47 18334852810382298037
15461852 350 18334856156736171903
15716309 27 12107788514961219699
1577012 14 18187356628551161211
16120349 18 16702294686069919312
18335252 114 17988920067734768585
18335252 98 9151175351123886696
190975 80 11241975888661320761
20281389 69 17894628141106871101
21033648 29 18262231248139879440
21150785 3 15769775766563391280
21585482 111 18191023397167979453
221357 26 18131069320704617776
22224240 67 16950282923227429307
23559900 14 18130222765349069538
23576562 1 16557893680067418401
24771293 8 17749951205979875220
249057 3 17775565363992715479
249999 5 17313937507468908155
2838139 119 17989491827394108297
29717793 49 16845300440721402332
3004659 81 14764342747643733723
3178227 256 12829209983940089252
335352 9 17847067688501951972
3633792 109 17489597727052663662
3663271 9 13551183369312685501
4073 2 18337393854356763618
4093350 32 17531240621979790202
4325135 7 16487256556684729293
4340502 62 12612752419587743960
5104073 3 16371833055652616081
5385378 56 17385719158373908939
5718773 13 11167403685930307364
5758199 1 17822010896214862323
58902169 19 17203321239093582205
59682541 35 15647060386579818245
59682541 52 18131356280554876182
59755656 215 18409449154691692806
59755656 520 18187641431695178339

>  <PUBCHEM_SHAPE_MULTIPOLES>  (1) 
478.08
24.18
1.5
1.23
27.26
0.22
0.01
9.88
5.93
-0.56
-0.43
0.48
0.03
1.56

>  <PUBCHEM_SHAPE_SELFOVERLAP>  (1) 
1042.151

>  <PUBCHEM_SHAPE_VOLUME>  (1) 
264.2

>  <PUBCHEM_COORDINATE_TYPE>  (1) 
2
5
10

$$$$
