26755
     RDKit          3D

 24 25  0  0  1  0  0  0  0  0999 V2000
   -0.7686    0.5515    0.0803 O   0  0  0  0  0  0  0  0  0  0  0  0
   -3.1527    2.0324   -0.3659 N   0  0  0  0  0  0  0  0  0  0  0  0
    0.0778   -1.6401    0.7217 C   0  0  0  0  0  0  0  0  0  0  0  0
    0.1874   -0.4541   -0.2991 C   0  0  0  0  0  0  0  0  0  0  0  0
   -1.3770   -2.0471    1.0297 C   0  0  0  0  0  0  0  0  0  0  0  0
    0.8738   -2.8792    0.2569 C   0  0  0  0  0  0  0  0  0  0  0  0
   -0.1857   -0.9666   -1.7178 C   0  0  0  0  0  0  0  0  0  0  0  0
    0.5300   -3.3173   -1.1638 C   0  0  0  0  0  0  0  0  0  0  0  0
    0.6518   -2.1657   -2.1536 C   0  0  0  0  0  0  0  0  0  0  0  0
    1.5249    0.3054   -0.3089 C   0  0  0  0  0  0  0  0  0  0  0  0
   -1.4231   -3.5337    1.4109 C   0  0  0  0  0  0  0  0  0  0  0  0
   -1.9086   -1.2029    2.1970 C   0  0  0  0  0  0  0  0  0  0  0  0
   -2.2489   -1.8100   -0.2118 C   0  0  0  0  0  0  0  0  0  0  0  0
    2.0453    0.8491    0.8632 C   0  0  0  0  0  0  0  0  0  0  0  0
    2.2125    0.4424   -1.5126 C   0  0  0  0  0  0  0  0  0  0  0  0
   -0.7871    1.6270   -0.8473 C   0  0  0  0  0  0  0  0  0  0  0  0
    1.3244    0.7116    2.1640 C   0  0  0  0  0  0  0  0  0  0  0  0
    3.2600    1.5340    0.8315 C   0  0  0  0  0  0  0  0  0  0  0  0
   -1.8303    2.6391   -0.4012 C   0  0  0  0  0  0  0  0  0  0  0  0
    3.4273    1.1272   -1.5443 C   0  0  0  0  0  0  0  0  0  0  0  0
    3.9510    1.6731   -0.3723 C   0  0  0  0  0  0  0  0  0  0  0  0
    1.2861    2.0213    2.9455 C   0  0  0  0  0  0  0  0  0  0  0  0
   -4.1560    3.0019    0.0804 C   0  0  0  0  0  0  0  0  0  0  0  0
   -3.5142    1.5008   -1.6823 C   0  0  0  0  0  0  0  0  0  0  0  0
  1  4  1  0
  1 16  1  0
  2 19  1  0
  2 23  1  0
  2 24  1  0
  3  4  1  0
  3  5  1  0
  3  6  1  0
  4  7  1  0
  4 10  1  0
  5 11  1  0
  5 12  1  0
  5 13  1  0
  6  8  1  0
  7  9  1  0
  8  9  1  0
 10 14  2  0
 10 15  1  0
 14 17  1  0
 14 18  1  0
 15 20  2  0
 16 19  1  0
 17 22  1  0
 18 21  2  0
 20 21  1  0
M  END
>  <PUBCHEM_COMPOUND_CID>  (1) 
26755

>  <PUBCHEM_CONFORMER_RMSD>  (1) 
0.8

>  <PUBCHEM_CONFORMER_DIVERSEORDER>  (1) 
2
3
12
10
6
7
8
4
14
11
1
13
9
5

>  <PUBCHEM_MMFF94_PARTIAL_CHARGES>  (1) 
18
1 -0.56
10 -0.14
14 -0.14
15 -0.15
16 0.28
17 0.14
18 -0.15
19 0.27
2 -0.81
20 -0.15
21 -0.15
23 0.27
24 0.27
4 0.42
43 0.15
48 0.15
51 0.15
52 0.15

>  <PUBCHEM_EFFECTIVE_ROTOR_COUNT>  (1) 
8.2

>  <PUBCHEM_PHARMACOPHORE_FEATURES>  (1) 
6
1 1 acceptor
1 2 cation
1 22 hydrophobe
4 5 11 12 13 hydrophobe
6 10 14 15 18 20 21 rings
6 3 4 6 7 8 9 rings

>  <PUBCHEM_HEAVY_ATOM_COUNT>  (1) 
24

>  <PUBCHEM_ATOM_DEF_STEREO_COUNT>  (1) 
0

>  <PUBCHEM_ATOM_UDEF_STEREO_COUNT>  (1) 
2

>  <PUBCHEM_BOND_DEF_STEREO_COUNT>  (1) 
0

>  <PUBCHEM_BOND_UDEF_STEREO_COUNT>  (1) 
0

>  <PUBCHEM_ISOTOPIC_ATOM_COUNT>  (1) 
0

>  <PUBCHEM_COMPONENT_COUNT>  (1) 
1

>  <PUBCHEM_CACTVS_TAUTO_COUNT>  (1) 
1

>  <PUBCHEM_CONFORMER_ID>  (1) 
0000688300000002

>  <PUBCHEM_MMFF94_ENERGY>  (1) 
133.6973

>  <PUBCHEM_FEATURE_SELFOVERLAP>  (1) 
30.446

>  <PUBCHEM_SHAPE_FINGERPRINT>  (1) 
10863032 1 18187369822326229702
11578080 2 17613489558961653036
12403814 3 17909560784976273108
12716301 132 18339912831284966232
12788726 201 18044935924556694743
13140716 1 18116997681003560035
13149001 5 17904786395945103479
133893 2 17615368538766460261
14251764 3 18130497647666836601
14713325 29 18189637066868646460
14787075 74 17687183089079438958
16752209 62 18116980285774055455
16945 1 18046645656864722726
20567600 347 18269534097087042789
20600515 1 17190992565555667060
20691752 17 17677901111102369949
21033648 29 17556310792747544019
21524375 3 18196629870184201565
2255824 54 17831861248788780789
23419403 2 17766322770613218615
23559900 14 17468185653473650917
23598288 3 18189611821172245064
238 59 18201718393018081325
2748010 2 18267606700374410326
34934 24 17254570807176671796
35225 105 18046311336346775101
427121 178 18337393721449842321
6992083 37 17550406462371444358
81228 2 17906139069956155148

>  <PUBCHEM_SHAPE_MULTIPOLES>  (1) 
483.06
5.24
4.24
2.36
0.51
1.51
-0.95
-5.36
0.84
-3.49
-0.05
0.5
0.02
1.66

>  <PUBCHEM_SHAPE_SELFOVERLAP>  (1) 
995.841

>  <PUBCHEM_SHAPE_VOLUME>  (1) 
278.5

>  <PUBCHEM_COORDINATE_TYPE>  (1) 
2
5
10

$$$$
