26776
     RDKit          3D

 20 22  0  0  0  0  0  0  0  0999 V2000
   -0.6287    2.1141    0.1819 S   0  0  0  0  0  0  0  0  0  0  0  0
    0.8307   -0.1563   -0.1522 O   0  0  0  0  0  0  0  0  0  0  0  0
    6.2356   -0.7951   -0.0193 O   0  0  0  0  0  0  0  0  0  0  0  0
   -4.2294    0.2935   -0.2991 N   0  0  0  0  0  0  0  0  0  0  0  0
    2.0343    1.7255    0.2311 N   0  0  0  0  0  0  0  0  0  0  0  0
   -4.1326   -0.7255    0.7554 C   0  0  0  0  0  0  0  0  0  0  0  0
   -5.5898    0.8431   -0.3834 C   0  0  0  0  0  0  0  0  0  0  0  0
   -5.1073   -1.8764    0.5017 C   0  0  0  0  0  0  0  0  0  0  0  0
   -6.6123   -0.2566   -0.6746 C   0  0  0  0  0  0  0  0  0  0  0  0
   -6.5387   -1.3707    0.3633 C   0  0  0  0  0  0  0  0  0  0  0  0
   -3.2590    1.3632   -0.0675 C   0  0  0  0  0  0  0  0  0  0  0  0
   -1.8453    0.7962   -0.1050 C   0  0  0  0  0  0  0  0  0  0  0  0
    0.8631    1.1738    0.0817 C   0  0  0  0  0  0  0  0  0  0  0  0
    2.8865    0.6581    0.0835 C   0  0  0  0  0  0  0  0  0  0  0  0
    2.1533   -0.4958   -0.1513 C   0  0  0  0  0  0  0  0  0  0  0  0
    4.2854    0.5737    0.1324 C   0  0  0  0  0  0  0  0  0  0  0  0
    2.7026   -1.7569   -0.3466 C   0  0  0  0  0  0  0  0  0  0  0  0
    4.8769   -0.6831   -0.0603 C   0  0  0  0  0  0  0  0  0  0  0  0
    4.0991   -1.8237   -0.2949 C   0  0  0  0  0  0  0  0  0  0  0  0
    6.9756    0.3990    0.2229 C   0  0  0  0  0  0  0  0  0  0  0  0
  1 12  1  0
  1 13  1  0
  2 13  1  0
  2 15  1  0
  3 18  1  0
  3 20  1  0
  4  6  1  0
  4  7  1  0
  4 11  1  0
  5 13  2  0
  5 14  1  0
  6  8  1  0
  7  9  1  0
  8 10  1  0
  9 10  1  0
 11 12  1  0
 14 15  2  0
 14 16  1  0
 15 17  1  0
 16 18  2  0
 17 19  2  0
 18 19  1  0
M  END
>  <PUBCHEM_COMPOUND_CID>  (1) 
26776

>  <PUBCHEM_CONFORMER_RMSD>  (1) 
0.8

>  <PUBCHEM_CONFORMER_DIVERSEORDER>  (1) 
1
84
40
30
72
18
66
75
34
6
83
65
29
85
59
15
28
42
74
52
81
64
53
38
79
10
78
13
55
32
82
39
25
76
22
35
7
9
50
69
11
67
16
49
37
73
36
80
23
21
31
20
3
68
43
17
63
26
24
58
14
70
44
33
12
57
60
45
71
4
27
5
48
56
54
62
77
19
51
8
61
41
2
47
46

>  <PUBCHEM_MMFF94_PARTIAL_CHARGES>  (1) 
20
1 -0.29
11 0.27
12 0.23
13 0.53
14 0.23
15 0.14
16 -0.15
17 -0.15
18 0.08
19 -0.15
2 -0.28
20 0.28
3 -0.36
35 0.15
36 0.15
37 0.15
4 -0.81
5 -0.57
6 0.27
7 0.27

>  <PUBCHEM_EFFECTIVE_ROTOR_COUNT>  (1) 
6.2

>  <PUBCHEM_PHARMACOPHORE_FEATURES>  (1) 
5
1 3 acceptor
1 4 cation
5 2 5 13 14 15 rings
6 14 15 16 17 18 19 rings
6 4 6 7 8 9 10 rings

>  <PUBCHEM_HEAVY_ATOM_COUNT>  (1) 
20

>  <PUBCHEM_ATOM_DEF_STEREO_COUNT>  (1) 
0

>  <PUBCHEM_ATOM_UDEF_STEREO_COUNT>  (1) 
0

>  <PUBCHEM_BOND_DEF_STEREO_COUNT>  (1) 
0

>  <PUBCHEM_BOND_UDEF_STEREO_COUNT>  (1) 
0

>  <PUBCHEM_ISOTOPIC_ATOM_COUNT>  (1) 
0

>  <PUBCHEM_COMPONENT_COUNT>  (1) 
1

>  <PUBCHEM_CACTVS_TAUTO_COUNT>  (1) 
1

>  <PUBCHEM_CONFORMER_ID>  (1) 
0000689800000001

>  <PUBCHEM_MMFF94_ENERGY>  (1) 
34.6225

>  <PUBCHEM_FEATURE_SELFOVERLAP>  (1) 
25.492

>  <PUBCHEM_SHAPE_FINGERPRINT>  (1) 
10 15 18340195385010533928
10447042 23 18410005512076075550
10835480 77 18410284827106904997
11315181 36 18272653455062961729
11578080 2 16628816600060217010
11719270 70 18411132524812347674
11963148 33 18409724067460489854
12516196 113 18272650142962687929
12596602 18 16128368316067876203
12633257 1 15697994163356594033
12760667 363 18343584041150337865
13288520 33 18408323294357408005
13402501 40 18409168814066662363
13685833 64 18410014351619657739
13740256 8 18410294722399675433
13911882 115 17988933223546637910
1420 363 18342741814299092437
14251732 16 18411136948543863768
14461889 52 18411693301707061378
15183329 4 17967526857761863467
15352361 1 18410576184770890121
15537594 2 17917705803431190998
17492 89 18053383198211894766
17844677 252 18410862062031635061
17857418 61 18411138026464519515
200 152 18202562865567334953
20028762 73 18272932726125883430
20261772 1 17917988382219751759
20374829 77 18260265240077372185
20621476 66 9727341442695506482
20645477 56 10231756682867535945
21049683 271 18411140281597643848
21054139 6 17749107798661580042
21267235 1 18272374140406951390
21365058 27 16200434684834396926
21521721 280 17846495980888817496
21623969 137 18202566167875056878
22224240 67 16988837289712492294
22896161 15 18410856573126266548
23402539 116 15936412216988375876
23559900 14 18335696178950298297
239999 70 18335420183892460208
3004659 81 18113334228128751257
3009799 131 14201401590684520980
314194 84 18060412504342871679
329604 57 18410015429060772276
3421961 26 18342455993174889161
4073 2 18186806906711422203
4214541 1 18409730634786524197
4325135 7 18333453149253713692
445580 204 13407062670841203663
465052 167 18201722851120015492
5104073 3 18129377103737258552
59682541 35 18272922844149018216
59755656 215 18335421248739063438
9862886 166 18186524323348546299

>  <PUBCHEM_SHAPE_MULTIPOLES>  (1) 
393.74
18.84
2
0.71
6.42
0.07
0.01
6.69
-0.13
0.44
0.09
0.4
0.06
0.91

>  <PUBCHEM_SHAPE_SELFOVERLAP>  (1) 
817.371

>  <PUBCHEM_SHAPE_VOLUME>  (1) 
228.4

>  <PUBCHEM_COORDINATE_TYPE>  (1) 
2
5
10

$$$$
