26795
     RDKit          3D

 21 22  0  0  0  0  0  0  0  0999 V2000
   -7.0664   -0.4846    1.1234 Cl  0  0  0  0  0  0  0  0  0  0  0  0
   -1.6138   -0.1795   -1.0344 O   0  0  0  0  0  0  0  0  0  0  0  0
    0.9762   -0.6734   -0.9534 O   0  0  0  0  0  0  0  0  0  0  0  0
    3.0165    1.2301   -0.0979 N   0  0  0  0  0  0  0  0  0  0  0  0
    4.4796   -2.2037    0.2753 N   0  0  0  0  0  0  0  0  0  0  0  0
    3.6860   -0.0107   -0.4777 C   0  0  0  0  0  0  0  0  0  0  0  0
    3.8287   -0.9661    0.7036 C   0  0  0  0  0  0  0  0  0  0  0  0
    1.6721    1.4466   -0.1424 C   0  0  0  0  0  0  0  0  0  0  0  0
    3.6645    2.3407    0.3534 C   0  0  0  0  0  0  0  0  0  0  0  0
    1.4483    2.7339    0.2937 C   0  0  0  0  0  0  0  0  0  0  0  0
    2.7088    3.2994    0.6075 C   0  0  0  0  0  0  0  0  0  0  0  0
    0.6981    0.4882   -0.5681 C   0  0  0  0  0  0  0  0  0  0  0  0
    3.7115   -2.8419   -0.7931 C   0  0  0  0  0  0  0  0  0  0  0  0
    4.6373   -3.1165    1.4069 C   0  0  0  0  0  0  0  0  0  0  0  0
   -0.7944    0.8737   -0.5639 C   0  0  0  0  0  0  0  0  0  0  0  0
   -2.8897   -0.2507   -0.5310 C   0  0  0  0  0  0  0  0  0  0  0  0
   -3.5388    0.9137   -0.1420 C   0  0  0  0  0  0  0  0  0  0  0  0
   -3.5131   -1.4864   -0.4164 C   0  0  0  0  0  0  0  0  0  0  0  0
   -4.8341    0.8412    0.3706 C   0  0  0  0  0  0  0  0  0  0  0  0
   -4.8084   -1.5589    0.0961 C   0  0  0  0  0  0  0  0  0  0  0  0
   -5.4689   -0.3950    0.4897 C   0  0  0  0  0  0  0  0  0  0  0  0
  1 21  1  0
  2 15  1  0
  2 16  1  0
  3 12  2  0
  4  6  1  0
  4  8  1  0
  4  9  1  0
  5  7  1  0
  5 13  1  0
  5 14  1  0
  6  7  1  0
  8 10  2  0
  8 12  1  0
  9 11  2  0
 10 11  1  0
 12 15  1  0
 16 17  2  0
 16 18  1  0
 17 19  1  0
 18 20  2  0
 19 21  2  0
 20 21  1  0
M  END
>  <PUBCHEM_COMPOUND_CID>  (1) 
26795

>  <PUBCHEM_CONFORMER_RMSD>  (1) 
0.8

>  <PUBCHEM_CONFORMER_DIVERSEORDER>  (1) 
1
10
99
263
373
260
297
51
147
234
50
354
299
355
116
193
220
250
14
137
221
312
361
82
190
200
252
291
57
9
344
248
258
126
97
346
359
301
333
266
236
318
156
335
298
35
49
117
370
188
15
72
286
161
176
329
317
68
390
162
91
295
145
106
164
138
28
362
104
332
148
217
165
330
280
143
157
178
6
196
276
249
326
153
270
246
253
334
383
111
101
307
314
16
128
306
285
17
348
141
215
353
364
242
130
376
308
328
256
382
124
185
132
389
22
237
114
357
245
323
53
347
103
86
367
282
21
243
394
251
113
118
127
95
210
134
107
105
378
278
3
272
277
13
139
201
77
339
181
2
206
133
191
189
356
381
241
119
169
202
115
387
172
228
303
259
391
84
121
309
34
7
54
240
55
25
212
207
225
265
209
239
290
358
159
321
76
284
146
120
247
80
41
345
18
371
182
19
186
219
44
65
194
363
304
20
87
351
211
26
150
56
305
199
223
42
168
392
374
60
81
281
315
90
70
158
255
226
75
283
342
198
384
368
388
45
125
59
140
64
365
352
78
375
377
37
173
30
380
192
98
341
174
261
149
205
179
23
197
302
232
224
331
43
94
360
244
231
267
322
36
336
71
187
166
38
319
136
151
216
11
292
46
73
327
180
393
289
61
386
274
264
385
31
268
102
320
129
32
155
275
338
79
83
52
171
222
233
372
58
131
5
93
69
324
177
108
100
350
47
230
262
24
294
39
63
273
195
214
8
310
62
300
269
369
238
4
88
325
110
96
349
229
109
160
271
27
235
175
208
293
163
67
366
33
40
152
92
287
123
66
279
183
142
343
167
122
144
74
337
12
340
288
184
48
89
154
29
218
170
227
85
204
112
203
296
254
313
311
257
379
316
213
135

>  <PUBCHEM_MMFF94_PARTIAL_CHARGES>  (1) 
28
1 -0.18
10 -0.15
11 -0.15
12 0.59
13 0.27
14 0.27
15 0.34
16 0.08
17 -0.15
18 -0.15
19 -0.15
2 -0.36
20 -0.15
21 0.18
26 0.15
27 0.15
28 0.15
3 -0.57
37 0.15
38 0.15
39 0.15
4 0.05
40 0.15
5 -0.81
6 0.26
7 0.27
8 -0.24
9 -0.3

>  <PUBCHEM_EFFECTIVE_ROTOR_COUNT>  (1) 
7

>  <PUBCHEM_PHARMACOPHORE_FEATURES>  (1) 
6
1 2 acceptor
1 3 acceptor
1 4 cation
1 5 cation
5 4 8 9 10 11 rings
6 16 17 18 19 20 21 rings

>  <PUBCHEM_HEAVY_ATOM_COUNT>  (1) 
21

>  <PUBCHEM_ATOM_DEF_STEREO_COUNT>  (1) 
0

>  <PUBCHEM_ATOM_UDEF_STEREO_COUNT>  (1) 
0

>  <PUBCHEM_BOND_DEF_STEREO_COUNT>  (1) 
0

>  <PUBCHEM_BOND_UDEF_STEREO_COUNT>  (1) 
0

>  <PUBCHEM_ISOTOPIC_ATOM_COUNT>  (1) 
0

>  <PUBCHEM_COMPONENT_COUNT>  (1) 
1

>  <PUBCHEM_CACTVS_TAUTO_COUNT>  (1) 
2

>  <PUBCHEM_CONFORMER_ID>  (1) 
000068AB00000001

>  <PUBCHEM_MMFF94_ENERGY>  (1) 
49.6656

>  <PUBCHEM_FEATURE_SELFOVERLAP>  (1) 
30.456

>  <PUBCHEM_SHAPE_FINGERPRINT>  (1) 
10074138 170 17331374503934472296
10912923 1 17846216721988487861
11370993 144 18408322203203612813
11405975 8 18341896311891344889
114674 6 18187078477599498202
11545043 162 17822286843384176677
12107183 9 18197503922331621673
12553582 1 18271513201364860262
12616971 3 17988922280312391229
12633257 1 18202285805658697303
13167823 11 18341893043257799839
13533116 47 18408606985057117755
13551218 46 18409168814346087759
13785724 45 17985562052102754822
13911852 28 18265888051978766518
13955234 65 18338513153252008152
14211702 104 17969794162714449499
14341114 176 18411706516984073709
14347424 109 18412826880762383817
14420673 8 18192152603339257659
15042514 8 17836081170421826364
15250474 111 18129087004245314383
15475509 35 17967250875389539322
15475509 84 18059577936221097721
15842332 3 17558528430316971108
15927050 60 18125720347592254750
16992752 21 18196098734298851190
17868525 174 18342451517470917608
1813 80 17022903467097492141
1979834 28 17632014144136843590
20567600 70 18334849490588264954
20645477 70 18408321099159432964
20832881 197 18189332377314249530
21049683 271 18260836999489175308
21065198 48 18271807981960018069
21065198 57 18411138069514555805
21065199 12 18337953497548863573
21315759 148 17895767317279878689
21344244 78 17988916747793413552
21421861 104 18338787996983635112
21859007 373 18042113268746996133
23559900 14 18413105082446324897
3421961 26 18411131429584624544
345986 75 18131349666136338136
3680242 22 18201169793009390833
4073 2 18190747637879038547
465052 167 18411703145424203662
5104073 3 18342187700043140763
7970288 3 18120087291408980242
8272917 22 18341615966406799564
8509985 295 17560802138801141041
8863177 126 18187093874856976075
9841814 1 18341898472302119038

>  <PUBCHEM_SHAPE_MULTIPOLES>  (1) 
412.34
14.52
3.47
1.01
18.81
0.06
0.12
7.16
4.87
-7.07
0.86
-0.16
0.4
-0.29

>  <PUBCHEM_SHAPE_SELFOVERLAP>  (1) 
853.133

>  <PUBCHEM_SHAPE_VOLUME>  (1) 
239.6

>  <PUBCHEM_COORDINATE_TYPE>  (1) 
2
5
10

$$$$
