2680
     RDKit          3D

 22 23  0  0  0  0  0  0  0  0999 V2000
    0.7376   -1.1761   -0.4425 O   0  0  0  0  0  0  0  0  0  0  0  0
    0.9358    1.1047    0.0497 O   0  0  0  0  0  0  0  0  0  0  0  0
   -7.2386    2.2179    0.5953 O   0  0  0  0  0  0  0  0  0  0  0  0
   -7.5707    0.0056    0.2018 O   0  0  0  0  0  0  0  0  0  0  0  0
    7.8724    1.3625    0.0368 N   0  0  0  0  0  0  0  0  0  0  0  0
    5.6686    0.3804    0.4969 C   0  0  0  0  0  0  0  0  0  0  0  0
    2.8919   -0.2515   -0.3204 C   0  0  0  0  0  0  0  0  0  0  0  0
    4.9488   -0.8747    1.0085 C   0  0  0  0  0  0  0  0  0  0  0  0
    5.1196    0.8055   -0.8716 C   0  0  0  0  0  0  0  0  0  0  0  0
    3.4341   -0.6823    1.0426 C   0  0  0  0  0  0  0  0  0  0  0  0
    3.6051    0.9987   -0.8360 C   0  0  0  0  0  0  0  0  0  0  0  0
    7.1762    0.1454    0.4238 C   0  0  0  0  0  0  0  0  0  0  0  0
    1.4217    0.0112   -0.2072 C   0  0  0  0  0  0  0  0  0  0  0  0
   -0.6487   -1.0275   -0.3574 C   0  0  0  0  0  0  0  0  0  0  0  0
   -1.3490   -0.6977   -1.4967 C   0  0  0  0  0  0  0  0  0  0  0  0
   -1.2614   -1.2151    0.8616 C   0  0  0  0  0  0  0  0  0  0  0  0
   -3.3816   -0.7320   -0.1913 C   0  0  0  0  0  0  0  0  0  0  0  0
   -2.7333   -0.5481   -1.4125 C   0  0  0  0  0  0  0  0  0  0  0  0
   -2.6457   -1.0655    0.9458 C   0  0  0  0  0  0  0  0  0  0  0  0
   -4.8615   -0.5729   -0.1012 C   0  0  0  0  0  0  0  0  0  0  0  0
   -5.3098    0.8556    0.2296 C   0  0  0  0  0  0  0  0  0  0  0  0
   -6.8117    0.9558    0.3445 C   0  0  0  0  0  0  0  0  0  0  0  0
  1 13  1  0
  1 14  1  0
  2 13  2  0
  3 22  1  0
  4 22  2  0
  5 12  1  0
  6  8  1  0
  6  9  1  0
  6 12  1  0
  7 10  1  0
  7 11  1  0
  7 13  1  0
  8 10  1  0
  9 11  1  0
 14 15  2  0
 14 16  1  0
 15 18  1  0
 16 19  2  0
 17 18  2  0
 17 19  1  0
 17 20  1  0
 20 21  1  0
 21 22  1  0
M  END
>  <PUBCHEM_COMPOUND_CID>  (1) 
2680

>  <PUBCHEM_CONFORMER_RMSD>  (1) 
0.8

>  <PUBCHEM_CONFORMER_DIVERSEORDER>  (1) 
1
168
209
36
40
174
167
128
150
32
86
82
72
109
161
172
9
189
157
95
100
146
179
185
58
70
60
94
71
119
73
81
211
144
52
149
210
78
186
169
195
64
13
91
51
204
85
123
74
135
69
14
139
197
15
76
21
104
97
92
205
153
27
166
38
89
203
187
122
158
26
156
93
177
75
131
159
110
62
201
57
193
59
155
84
118
99
208
45
170
108
140
194
25
145
117
68
183
191
129
112
116
7
56
105
87
83
121
192
66
164
206
114
11
126
23
176
16
163
34
90
133
151
63
22
35
107
54
127
207
188
196
65
120
111
142
137
42
202
162
199
96
28
101
77
106
55
24
143
88
44
136
148
19
125
181
130
132
49
39
147
154
5
98
115
33
165
171
43
152
29
31
102
20
17
124
46
37
134
30
47
175
173
182
200
50
103
18
12
190
2
138
184
3
8
67
160
10
48
41
6
141
178
80
53
198
4
113
61
79
180

>  <PUBCHEM_MMFF94_PARTIAL_CHARGES>  (1) 
24
1 -0.23
12 0.27
13 0.66
14 0.08
15 -0.15
16 -0.15
17 -0.14
18 -0.15
19 -0.15
2 -0.57
20 0.14
21 0.06
22 0.66
3 -0.65
35 0.36
36 0.36
37 0.15
38 0.15
39 0.15
4 -0.57
40 0.15
45 0.5
5 -0.99
7 0.06

>  <PUBCHEM_EFFECTIVE_ROTOR_COUNT>  (1) 
8.2

>  <PUBCHEM_PHARMACOPHORE_FEATURES>  (1) 
8
1 2 acceptor
1 3 acceptor
1 4 acceptor
1 5 cation
1 5 donor
3 3 4 22 anion
6 14 15 16 17 18 19 rings
6 6 7 8 9 10 11 rings

>  <PUBCHEM_HEAVY_ATOM_COUNT>  (1) 
22

>  <PUBCHEM_ATOM_DEF_STEREO_COUNT>  (1) 
0

>  <PUBCHEM_ATOM_UDEF_STEREO_COUNT>  (1) 
0

>  <PUBCHEM_BOND_DEF_STEREO_COUNT>  (1) 
0

>  <PUBCHEM_BOND_UDEF_STEREO_COUNT>  (1) 
0

>  <PUBCHEM_ISOTOPIC_ATOM_COUNT>  (1) 
0

>  <PUBCHEM_COMPONENT_COUNT>  (1) 
1

>  <PUBCHEM_CACTVS_TAUTO_COUNT>  (1) 
1

>  <PUBCHEM_CONFORMER_ID>  (1) 
00000A7800000001

>  <PUBCHEM_MMFF94_ENERGY>  (1) 
41.6507

>  <PUBCHEM_FEATURE_SELFOVERLAP>  (1) 
40.654

>  <PUBCHEM_SHAPE_FINGERPRINT>  (1) 
10 15 15791731927649767452
106641 1 17313109670424301425
11089746 13 18201433718480476612
12236239 1 18272647956840301302
12596602 18 17530690922401299321
12916748 109 14923940141954966102
13073987 5 15864617380965850768
13167372 99 18336547127487216937
13288520 33 8430596112378710975
13533116 47 18337383851815580146
13540713 4 16083038591619007287
13685833 64 13045943503814365158
14123256 10 11743839166318294705
1420 363 14201115708470022927
14251764 18 18186801396168290607
14251764 46 12612750216828715811
14341114 176 16805322197645440326
14729087 3 18202282494270651273
15048467 5 18410575088963320971
15183329 4 14548741694196155071
15238133 3 18409173220249284756
15461852 350 17203322351858701487
155225 1 18130508549296732145
15706992 2 18341908376744863889
15716309 27 12973606646670908763
17834072 8 16271927120941858235
18335252 98 17203612614560578623
20281389 69 18334857208243451813
20554085 129 16845279528510729638
21033648 29 18129645513671400456
21130935 74 18261108595450553898
21150785 3 14692569918574827381
21267235 1 13334736821276933110
21637258 2 10665233687567539899
22122407 14 18337403724144091905
22224240 67 17312821585071286571
23035841 295 11674879987610583241
23402539 116 14836400354487305839
23559900 14 17241040028844962972
246663 6 13479131285712289600
2838139 119 18272928320064151509
300161 21 17203608194558994438
3009799 131 16630806603877691633
3545911 37 17168137958284658446
3633792 109 16773246080303634390
4325135 7 10519988166482480785
4340502 62 16443061703970279426
465052 167 11819284342976002851
5104073 3 17314230136580583288
5385378 56 18114179688051420322
57724786 102 18262796405744011524
59682541 35 14562538400524582204
5969126 39 12175628356514952259
59755656 215 14549027585148137620
59755656 520 18040150743312284491

>  <PUBCHEM_SHAPE_MULTIPOLES>  (1) 
424.29
21.15
1.41
1.12
2.89
0.34
0.22
10.23
-5.09
0.89
-0.22
0.12
-0.14
-1.2

>  <PUBCHEM_SHAPE_SELFOVERLAP>  (1) 
878.131

>  <PUBCHEM_SHAPE_VOLUME>  (1) 
239.4

>  <PUBCHEM_COORDINATE_TYPE>  (1) 
2
5
10

$$$$
