26803
     RDKit          3D

 34 38  0  0  0  0  0  0  0  0999 V2000
    6.8925    0.2797    0.6118 S   0  0  0  0  0  0  0  0  0  0  0  0
   -4.7801    1.7743   -0.3740 O   0  0  0  0  0  0  0  0  0  0  0  0
   -4.1836    0.7010   -2.3307 O   0  0  0  0  0  0  0  0  0  0  0  0
    4.0160    0.0548   -0.5454 N   0  0  0  0  0  0  0  0  0  0  0  0
   -3.8424   -0.3767   -0.1868 C   0  0  0  0  0  0  0  0  0  0  0  0
   -0.9073   -0.7069   -0.8380 C   0  0  0  0  0  0  0  0  0  0  0  0
   -2.7028    0.1812    0.7061 C   0  0  0  0  0  0  0  0  0  0  0  0
   -3.2928   -1.5577   -1.0292 C   0  0  0  0  0  0  0  0  0  0  0  0
   -1.4197    0.5082   -0.0622 C   0  0  0  0  0  0  0  0  0  0  0  0
   -1.9934   -1.2391   -1.7744 C   0  0  0  0  0  0  0  0  0  0  0  0
    0.3568   -0.3553   -1.6203 C   0  0  0  0  0  0  0  0  0  0  0  0
   -5.0850   -0.8315    0.6006 C   0  0  0  0  0  0  0  0  0  0  0  0
   -4.2787    0.7430   -1.1117 C   0  0  0  0  0  0  0  0  0  0  0  0
    1.5765   -0.2644   -0.6998 C   0  0  0  0  0  0  0  0  0  0  0  0
    2.8682    0.0212   -1.4612 C   0  0  0  0  0  0  0  0  0  0  0  0
   -5.0973   -0.7489    1.9931 C   0  0  0  0  0  0  0  0  0  0  0  0
   -6.1984   -1.3265   -0.0784 C   0  0  0  0  0  0  0  0  0  0  0  0
   -6.2230   -1.1612    2.7062 C   0  0  0  0  0  0  0  0  0  0  0  0
   -7.3240   -1.7388    0.6348 C   0  0  0  0  0  0  0  0  0  0  0  0
   -7.3364   -1.6561    2.0270 C   0  0  0  0  0  0  0  0  0  0  0  0
   -5.2318    2.9053   -1.1256 C   0  0  0  0  0  0  0  0  0  0  0  0
    4.3469    1.3025    0.0410 C   0  0  0  0  0  0  0  0  0  0  0  0
    4.6643   -1.1749   -0.2661 C   0  0  0  0  0  0  0  0  0  0  0  0
    5.6127    1.5193    0.6207 C   0  0  0  0  0  0  0  0  0  0  0  0
    5.9617   -1.2035    0.2828 C   0  0  0  0  0  0  0  0  0  0  0  0
   -5.7553    3.9556   -0.1693 C   0  0  0  0  0  0  0  0  0  0  0  0
    3.4221    2.3676    0.1051 C   0  0  0  0  0  0  0  0  0  0  0  0
    4.0350   -2.4195   -0.4880 C   0  0  0  0  0  0  0  0  0  0  0  0
    5.9332    2.7562    1.2080 C   0  0  0  0  0  0  0  0  0  0  0  0
    6.5973   -2.4258    0.5647 C   0  0  0  0  0  0  0  0  0  0  0  0
    3.7441    3.5934    0.6943 C   0  0  0  0  0  0  0  0  0  0  0  0
    4.6694   -3.6312   -0.2012 C   0  0  0  0  0  0  0  0  0  0  0  0
    5.0022    3.7889    1.2435 C   0  0  0  0  0  0  0  0  0  0  0  0
    5.9532   -3.6345    0.3226 C   0  0  0  0  0  0  0  0  0  0  0  0
  1 24  1  0
  1 25  1  0
  2 13  1  0
  2 21  1  0
  3 13  2  0
  4 15  1  0
  4 22  1  0
  4 23  1  0
  5  7  1  0
  5  8  1  0
  5 12  1  0
  5 13  1  0
  6  9  1  0
  6 10  1  0
  6 11  1  0
  7  9  1  0
  8 10  1  0
 11 14  1  0
 12 16  2  0
 12 17  1  0
 14 15  1  0
 16 18  1  0
 17 19  2  0
 18 20  2  0
 19 20  1  0
 21 26  1  0
 22 24  2  0
 22 27  1  0
 23 25  2  0
 23 28  1  0
 24 29  1  0
 25 30  1  0
 27 31  2  0
 28 32  2  0
 29 33  2  0
 30 34  2  0
 31 33  1  0
 32 34  1  0
M  END
>  <PUBCHEM_COMPOUND_CID>  (1) 
26803

>  <PUBCHEM_CONFORMER_RMSD>  (1) 
1

>  <PUBCHEM_CONFORMER_DIVERSEORDER>  (1) 
1
97
55
125
21
172
30
149
77
79
129
117
38
51
109
61
165
173
85
35
146
96
118
74
127
65
166
9
44
120
10
18
27
92
108
49
37
167
132
34
174
78
100
139
3
143
59
39
83
156
135
116
104
112
141
12
45
111
66
62
99
28
60
86
82
68
147
2
33
110
57
176
40
126
131
72
113
154
71
175
98
13
94
90
130
142
159
16
26
105
24
153
93
170
73
168
48
106
164
101
161
152
155
80
46
29
171
17
160
69
11
22
122
84
123
53
107
163
121
103
47
136
133
4
162
75
70
95
169
89
138
151
76
134
15
23
50
64
6
32
140
157
14
67
25
20
158
8
52
137
43
91
58
115
41
128
31
177
36
81
19
148
56
87
144
5
150
124
114
7
63
119
88
42
54
102
145

>  <PUBCHEM_MMFF94_PARTIAL_CHARGES>  (1) 
39
1 -0.2
12 -0.14
13 0.66
15 0.37
16 -0.15
17 -0.15
18 -0.15
19 -0.15
2 -0.43
20 -0.15
21 0.28
22 0.1
23 0.1
24 0.1
25 0.1
27 -0.15
28 -0.15
29 -0.15
3 -0.57
30 -0.15
31 -0.15
32 -0.15
33 -0.15
34 -0.15
4 -0.57
5 0.2
50 0.15
51 0.15
52 0.15
53 0.15
54 0.15
60 0.15
61 0.15
62 0.15
63 0.15
64 0.15
65 0.15
66 0.15
67 0.15

>  <PUBCHEM_EFFECTIVE_ROTOR_COUNT>  (1) 
9.6

>  <PUBCHEM_PHARMACOPHORE_FEATURES>  (1) 
7
1 3 acceptor
1 4 cation
6 1 4 22 23 24 25 rings
6 12 16 17 18 19 20 rings
6 22 24 27 29 31 33 rings
6 23 25 28 30 32 34 rings
6 5 6 7 8 9 10 rings

>  <PUBCHEM_HEAVY_ATOM_COUNT>  (1) 
34

>  <PUBCHEM_ATOM_DEF_STEREO_COUNT>  (1) 
0

>  <PUBCHEM_ATOM_UDEF_STEREO_COUNT>  (1) 
0

>  <PUBCHEM_BOND_DEF_STEREO_COUNT>  (1) 
0

>  <PUBCHEM_BOND_UDEF_STEREO_COUNT>  (1) 
0

>  <PUBCHEM_ISOTOPIC_ATOM_COUNT>  (1) 
0

>  <PUBCHEM_COMPONENT_COUNT>  (1) 
1

>  <PUBCHEM_CACTVS_TAUTO_COUNT>  (1) 
1

>  <PUBCHEM_CONFORMER_ID>  (1) 
000068B300000001

>  <PUBCHEM_MMFF94_ENERGY>  (1) 
109.1395

>  <PUBCHEM_FEATURE_SELFOVERLAP>  (1) 
35.554

>  <PUBCHEM_SHAPE_FINGERPRINT>  (1) 
10190108 129 18412265073914191800
10319926 262 17967818232332398653
11399510 152 18408045134483507801
12120059 9 18188775084978424227
12342043 65 18040996194639315286
13073987 5 18409730660044345997
13533116 47 18409453596162877186
13782708 43 17967536752707799315
13785724 45 17986678065828331990
14068700 675 14851881500188060079
15183329 4 16988841696111658473
15776043 110 18412258407808437706
17844677 252 18411984654496687637
20511986 3 17489007363008787604
21315759 148 18187085061372451195
21792934 111 18334015008707610133
21792965 131 18129368466891453239
21814621 53 18261391109407819169
21987483 16 18196094563432322291
22033318 11 17773340970660823978
22122407 14 18272650091428530485
23522609 53 17488758907350135649
24771293 8 13901608737439391242
3004659 81 11458689643444169516
3178227 256 18410569635731695544
3383291 50 17313393374368499923
394071 54 18060702780372619358
397830 11 18334013929837226003
4144715 1 18335706052309484817
5104073 3 18411142402978152505
58083652 198 18202279217474368169
86090 222 17676778591404192978

>  <PUBCHEM_SHAPE_MULTIPOLES>  (1) 
686.83
23.8
4.45
1.77
8.05
2.64
-0.34
-3.77
-9.88
-5.64
-0.81
3.21
-0.21
3.91

>  <PUBCHEM_SHAPE_SELFOVERLAP>  (1) 
1469.394

>  <PUBCHEM_SHAPE_VOLUME>  (1) 
379.7

>  <PUBCHEM_COORDINATE_TYPE>  (1) 
2
5
10

$$$$
