2681
     RDKit          3D

 20 19  0  0  0  0  0  0  0  0999 V2000
   -8.5606    0.1725    0.1068 N   0  0  0  0  0  0  0  0  0  0  0  0
   -7.3525   -0.6846    0.1497 C   0  0  0  0  0  0  0  0  0  0  0  0
   -6.0913    0.1548   -0.0189 C   0  0  0  0  0  0  0  0  0  0  0  0
   -4.8034   -0.6747    0.0055 C   0  0  0  0  0  0  0  0  0  0  0  0
   -3.5374    0.1707   -0.1755 C   0  0  0  0  0  0  0  0  0  0  0  0
   -2.2467   -0.6467   -0.0745 C   0  0  0  0  0  0  0  0  0  0  0  0
   -0.9798    0.2075   -0.1966 C   0  0  0  0  0  0  0  0  0  0  0  0
    0.3105   -0.6125   -0.1217 C   0  0  0  0  0  0  0  0  0  0  0  0
    1.5785    0.2456   -0.1850 C   0  0  0  0  0  0  0  0  0  0  0  0
   -9.8304   -0.6592    0.3399 C   0  0  0  0  0  0  0  0  0  0  0  0
   -8.6908    0.8666   -1.2567 C   0  0  0  0  0  0  0  0  0  0  0  0
   -8.4992    1.2597    1.1897 C   0  0  0  0  0  0  0  0  0  0  0  0
    2.9022   -0.5094   -0.0279 C   0  0  0  0  0  0  0  0  0  0  0  0
    4.1356    0.3886   -0.1555 C   0  0  0  0  0  0  0  0  0  0  0  0
    5.4247   -0.4190    0.0186 C   0  0  0  0  0  0  0  0  0  0  0  0
    6.6966    0.4303   -0.0775 C   0  0  0  0  0  0  0  0  0  0  0  0
    7.9835   -0.3847    0.0752 C   0  0  0  0  0  0  0  0  0  0  0  0
    9.2524    0.4741    0.0502 C   0  0  0  0  0  0  0  0  0  0  0  0
   10.5385   -0.3331    0.2312 C   0  0  0  0  0  0  0  0  0  0  0  0
   11.7697    0.5538    0.1230 C   0  0  0  0  0  0  0  0  0  0  0  0
  1  2  1  0
  1 10  1  0
  1 11  1  0
  1 12  1  0
  2  3  1  0
  3  4  1  0
  4  5  1  0
  5  6  1  0
  6  7  1  0
  7  8  1  0
  8  9  1  0
  9 13  1  0
 13 14  1  0
 14 15  1  0
 15 16  1  0
 16 17  1  0
 17 18  1  0
 18 19  1  0
 19 20  1  0
M  CHG  1   1   1
M  END
>  <PUBCHEM_COMPOUND_CID>  (1) 
2681

>  <PUBCHEM_CONFORMER_RMSD>  (1) 
1.6

>  <PUBCHEM_CONFORMER_DIVERSEORDER>  (1) 
1
31
33
3
16
4
15
7
34
10
35
20
19
12
13
2
18
11
32
23
25
29
17
21
14
22
24
30
9
26
6
28
8
27
5

>  <PUBCHEM_MMFF94_PARTIAL_CHARGES>  (1) 
5
1 -1.01
10 0.5
11 0.5
12 0.5
2 0.5

>  <PUBCHEM_EFFECTIVE_ROTOR_COUNT>  (1) 
15

>  <PUBCHEM_PHARMACOPHORE_FEATURES>  (1) 
2
1 1 cation
1 20 hydrophobe

>  <PUBCHEM_HEAVY_ATOM_COUNT>  (1) 
20

>  <PUBCHEM_ATOM_DEF_STEREO_COUNT>  (1) 
0

>  <PUBCHEM_ATOM_UDEF_STEREO_COUNT>  (1) 
0

>  <PUBCHEM_BOND_DEF_STEREO_COUNT>  (1) 
0

>  <PUBCHEM_BOND_UDEF_STEREO_COUNT>  (1) 
0

>  <PUBCHEM_ISOTOPIC_ATOM_COUNT>  (1) 
0

>  <PUBCHEM_COMPONENT_COUNT>  (1) 
1

>  <PUBCHEM_CACTVS_TAUTO_COUNT>  (1) 
1

>  <PUBCHEM_CONFORMER_ID>  (1) 
00000A7900000001

>  <PUBCHEM_MMFF94_ENERGY>  (1) 
18.7247

>  <PUBCHEM_FEATURE_SELFOVERLAP>  (1) 
10.148

>  <PUBCHEM_SHAPE_FINGERPRINT>  (1) 
12498461 61 16298678269944174731
14251764 18 18130787837548974195
14251764 46 16732701653880846490
14251920 1 12829206677458797331
14344974 52 12895060839466718942
15061470 23 18272087193273205696
15510794 2 18260270746073004234
155225 1 17988926660498771816
21362267 2 18269258197438045696
21362267 20 16732986456851331579
21362267 313 17845095074089121666
232437 2 10809342243934439360
23521765 1 18413952789026824719
23528940 14 17895201065315070899
23581129 1 18409448089539588806
246663 6 14562531777668927535
33684 2 9439405727138461414
59521270 166 10807942548995555323
67123 10 18410575093258294758
8209 1 18272370875609476454

>  <PUBCHEM_SHAPE_MULTIPOLES>  (1) 
406.61
47.87
0.93
0.78
44.67
0.07
-0.01
6.15
4.11
-0.99
0.06
-1.32
0.16
-0.05

>  <PUBCHEM_SHAPE_SELFOVERLAP>  (1) 
728.851

>  <PUBCHEM_SHAPE_VOLUME>  (1) 
265.1

>  <PUBCHEM_COORDINATE_TYPE>  (1) 
2
5
10

$$$$
