2682
     RDKit          3D

 17 16  0  0  0  0  0  0  0  0999 V2000
   10.0552   -0.4067   -0.1201 O   0  0  0  0  0  0  0  0  0  0  0  0
    0.0337   -0.3800    0.1929 C   0  0  0  0  0  0  0  0  0  0  0  0
   -1.2301    0.4825    0.1477 C   0  0  0  0  0  0  0  0  0  0  0  0
    1.3286    0.4372    0.1355 C   0  0  0  0  0  0  0  0  0  0  0  0
   -2.5251   -0.3373    0.1320 C   0  0  0  0  0  0  0  0  0  0  0  0
    2.5933   -0.4239    0.1026 C   0  0  0  0  0  0  0  0  0  0  0  0
   -3.8256    0.4694    0.0610 C   0  0  0  0  0  0  0  0  0  0  0  0
    3.8517    0.4435    0.0222 C   0  0  0  0  0  0  0  0  0  0  0  0
   -5.1140   -0.3550   -0.0228 C   0  0  0  0  0  0  0  0  0  0  0  0
    5.1188   -0.4135    0.0221 C   0  0  0  0  0  0  0  0  0  0  0  0
   -6.4176    0.4492   -0.0314 C   0  0  0  0  0  0  0  0  0  0  0  0
    6.3759    0.4510   -0.0915 C   0  0  0  0  0  0  0  0  0  0  0  0
   -7.6724   -0.4264   -0.0347 C   0  0  0  0  0  0  0  0  0  0  0  0
    7.6443   -0.4067   -0.0616 C   0  0  0  0  0  0  0  0  0  0  0  0
   -8.9397    0.4235   -0.1357 C   0  0  0  0  0  0  0  0  0  0  0  0
    8.9118    0.4353   -0.1404 C   0  0  0  0  0  0  0  0  0  0  0  0
  -10.1889   -0.4420   -0.1779 C   0  0  0  0  0  0  0  0  0  0  0  0
  1 16  1  0
  2  3  1  0
  2  4  1  0
  3  5  1  0
  4  6  1  0
  5  7  1  0
  6  8  1  0
  7  9  1  0
  8 10  1  0
  9 11  1  0
 10 12  1  0
 11 13  1  0
 12 14  1  0
 13 15  1  0
 14 16  1  0
 15 17  1  0
M  END
>  <PUBCHEM_COMPOUND_CID>  (1) 
2682

>  <PUBCHEM_CONFORMER_RMSD>  (1) 
1.4

>  <PUBCHEM_CONFORMER_DIVERSEORDER>  (1) 
1
42
48
30
20
17
19
14
6
40
49
13
41
37
28
23
32
31
45
10
33
8
7
50
5
38
12
35
47
15
11
3
22
36
34
18
43
2
52
46
29
24
21
25
51
39
26
44
9
16
27
4

>  <PUBCHEM_MMFF94_PARTIAL_CHARGES>  (1) 
3
1 -0.68
16 0.28
51 0.4

>  <PUBCHEM_EFFECTIVE_ROTOR_COUNT>  (1) 
14

>  <PUBCHEM_PHARMACOPHORE_FEATURES>  (1) 
3
1 1 acceptor
1 1 donor
1 17 hydrophobe

>  <PUBCHEM_HEAVY_ATOM_COUNT>  (1) 
17

>  <PUBCHEM_ATOM_DEF_STEREO_COUNT>  (1) 
0

>  <PUBCHEM_ATOM_UDEF_STEREO_COUNT>  (1) 
0

>  <PUBCHEM_BOND_DEF_STEREO_COUNT>  (1) 
0

>  <PUBCHEM_BOND_UDEF_STEREO_COUNT>  (1) 
0

>  <PUBCHEM_ISOTOPIC_ATOM_COUNT>  (1) 
0

>  <PUBCHEM_COMPONENT_COUNT>  (1) 
1

>  <PUBCHEM_CACTVS_TAUTO_COUNT>  (1) 
1

>  <PUBCHEM_CONFORMER_ID>  (1) 
00000A7A00000001

>  <PUBCHEM_MMFF94_ENERGY>  (1) 
-2.3052

>  <PUBCHEM_FEATURE_SELFOVERLAP>  (1) 
15.223

>  <PUBCHEM_SHAPE_FINGERPRINT>  (1) 
14123256 10 18410855455843757021
14251764 46 18410573985151464135
14251920 1 18411138030326840179
15510794 2 18409735057848744443
232437 2 18343864424846737159
23521765 1 18341895190345685353
23581129 1 18409448089539575815
246663 6 16415481557844792833
33684 2 18410855460128161795
4325135 7 18410856559645084068
67123 10 18410573993741385733
8209 1 18410575088958052712

>  <PUBCHEM_SHAPE_MULTIPOLES>  (1) 
343.98
38.44
0.79
0.62
1.31
0.01
0
-1.95
3.47
0.05
0
0.06
0
-0.04

>  <PUBCHEM_SHAPE_SELFOVERLAP>  (1) 
612.481

>  <PUBCHEM_SHAPE_VOLUME>  (1) 
223.5

>  <PUBCHEM_COORDINATE_TYPE>  (1) 
2
5
10

$$$$
