26825
     RDKit          3D

 23 26  0  0  1  0  0  0  0  0999 V2000
   -5.2021    0.4021   -0.0896 N   0  0  0  0  0  0  0  0  0  0  0  0
   -0.2651    0.6565    0.3944 C   0  0  0  0  0  0  0  0  0  0  0  0
    1.0075    0.1543    1.1540 C   0  0  0  0  0  0  0  0  0  0  0  0
    1.4006    0.0186   -1.4503 C   0  0  0  0  0  0  0  0  0  0  0  0
   -0.0425    0.5184   -1.1557 C   0  0  0  0  0  0  0  0  0  0  0  0
   -1.5416   -0.0539    0.8445 C   0  0  0  0  0  0  0  0  0  0  0  0
    2.1379    1.0560    0.6594 C   0  0  0  0  0  0  0  0  0  0  0  0
    1.3076   -1.2558    0.6551 C   0  0  0  0  0  0  0  0  0  0  0  0
    2.3421    0.9878   -0.7443 C   0  0  0  0  0  0  0  0  0  0  0  0
    1.5166   -1.3290   -0.7467 C   0  0  0  0  0  0  0  0  0  0  0  0
   -2.7739    0.5517    0.1807 C   0  0  0  0  0  0  0  0  0  0  0  0
   -4.0340   -0.1851    0.6097 C   0  0  0  0  0  0  0  0  0  0  0  0
    2.9222    1.8830    1.4500 C   0  0  0  0  0  0  0  0  0  0  0  0
    1.3899   -2.3946    1.4432 C   0  0  0  0  0  0  0  0  0  0  0  0
    3.3310    1.7473   -1.3520 C   0  0  0  0  0  0  0  0  0  0  0  0
    1.8050   -2.5412   -1.3563 C   0  0  0  0  0  0  0  0  0  0  0  0
    3.9156    2.6470    0.8340 C   0  0  0  0  0  0  0  0  0  0  0  0
    1.6789   -3.6133    0.8259 C   0  0  0  0  0  0  0  0  0  0  0  0
    4.1179    2.5799   -0.5534 C   0  0  0  0  0  0  0  0  0  0  0  0
    1.8844   -3.6860   -0.5606 C   0  0  0  0  0  0  0  0  0  0  0  0
   -6.5024   -0.2922    0.3401 C   0  0  0  0  0  0  0  0  0  0  0  0
   -5.3338    1.8984    0.2289 C   0  0  0  0  0  0  0  0  0  0  0  0
   -5.0617    0.2499   -1.6110 C   0  0  0  0  0  0  0  0  0  0  0  0
  1 12  1  0
  1 21  1  0
  1 22  1  0
  1 23  1  0
  2  3  1  0
  2  5  1  0
  2  6  1  0
  3  7  1  0
  3  8  1  0
  4  5  1  0
  4  9  1  0
  4 10  1  0
  6 11  1  0
  7  9  2  0
  7 13  1  0
  8 10  2  0
  8 14  1  0
  9 15  1  0
 10 16  1  0
 11 12  1  0
 13 17  2  0
 14 18  2  0
 15 19  2  0
 16 20  2  0
 17 19  1  0
 18 20  1  0
M  CHG  1   1   1
M  END
>  <PUBCHEM_COMPOUND_CID>  (1) 
26825

>  <PUBCHEM_CONFORMER_RMSD>  (1) 
0.8

>  <PUBCHEM_CONFORMER_DIVERSEORDER>  (1) 
1
10
4
2
9
7
8
3
5
6

>  <PUBCHEM_MMFF94_PARTIAL_CHARGES>  (1) 
27
1 -1.01
10 -0.14
12 0.5
13 -0.15
14 -0.15
15 -0.15
16 -0.15
17 -0.15
18 -0.15
19 -0.15
20 -0.15
21 0.5
22 0.5
23 0.5
3 0.29
35 0.15
36 0.15
37 0.15
38 0.15
39 0.15
4 0.29
40 0.15
41 0.15
42 0.15
7 -0.14
8 -0.14
9 -0.14

>  <PUBCHEM_EFFECTIVE_ROTOR_COUNT>  (1) 
4.4

>  <PUBCHEM_PHARMACOPHORE_FEATURES>  (1) 
4
1 1 cation
6 7 9 13 15 17 19 rings
6 8 10 14 16 18 20 rings
8 2 3 4 5 7 8 9 10 rings

>  <PUBCHEM_HEAVY_ATOM_COUNT>  (1) 
23

>  <PUBCHEM_ATOM_DEF_STEREO_COUNT>  (1) 
0

>  <PUBCHEM_ATOM_UDEF_STEREO_COUNT>  (1) 
1

>  <PUBCHEM_BOND_DEF_STEREO_COUNT>  (1) 
0

>  <PUBCHEM_BOND_UDEF_STEREO_COUNT>  (1) 
0

>  <PUBCHEM_ISOTOPIC_ATOM_COUNT>  (1) 
0

>  <PUBCHEM_COMPONENT_COUNT>  (1) 
1

>  <PUBCHEM_CACTVS_TAUTO_COUNT>  (1) 
1

>  <PUBCHEM_CONFORMER_ID>  (1) 
000068C900000001

>  <PUBCHEM_MMFF94_ENERGY>  (1) 
91.2647

>  <PUBCHEM_FEATURE_SELFOVERLAP>  (1) 
20.319

>  <PUBCHEM_SHAPE_FINGERPRINT>  (1) 
10090160 65 18341327898492135801
10764073 3 15144568080696607184
10930396 42 18336250260476716306
11405975 8 18196372516609027585
12730499 353 18339935891180441787
13533116 47 18340489972548649195
13835254 42 18335704889445278749
13955234 65 18411985728185894267
14461889 52 18114190791411695219
14955137 171 18200306616378787570
15163728 17 18043271186791056636
15906896 17 17758680332067195242
16945 1 16916249748497706508
20197701 30 18339361993397574266
20369508 70 18190461550097389523
20567600 347 18410857702301758554
20600515 1 17264970589853540008
20645477 70 18410297969658799179
21049683 118 17912055529525211448
21054139 6 18057027219979241519
21120745 212 17333950655504910894
21421861 104 18268991999067851457
22149856 69 18043557026577536729
22182313 1 17824291321685226811
22393880 68 18272940439981430119
23419403 2 17097744934578015062
23559900 14 18187653474445157999
239999 70 18341055125029437743
25222932 49 18058727048272098143
312423 11 18129390302393389313
404807 78 17903626729691655935
427121 178 18337673121840895272
4340502 62 18410577322752678771
495365 180 18409167709784904635
5104073 3 18337679607985454441
5281201 14 18114465535968826629
5895379 119 16985761792380866041
59755656 215 18409453566150464084
59755656 520 18267577095544731420
6025842 7 18412261723058537519
6442390 28 18267303312405924812
70251023 43 18057058916574225863
7364860 26 18340489963283617706
81228 2 17473533025142499578
81539 233 18410011065394715208
9841814 1 18044653105245158715
9999458 23 18410009940645988284

>  <PUBCHEM_SHAPE_MULTIPOLES>  (1) 
468.35
10.44
3.67
1.52
23.92
3.29
-0.21
-6.58
-0.58
-5.51
0.28
-0.63
0.09
0.19

>  <PUBCHEM_SHAPE_SELFOVERLAP>  (1) 
1014.76

>  <PUBCHEM_SHAPE_VOLUME>  (1) 
255.2

>  <PUBCHEM_COORDINATE_TYPE>  (1) 
2
5
10

$$$$
