26828
     RDKit          3D

 22 24  0  0  1  0  0  0  0  0999 V2000
    0.4209   -1.5818   -0.1050 O   0  0  0  0  0  0  0  0  0  0  0  0
   -2.8113   -3.2761    0.3611 N   0  0  0  0  0  0  0  0  0  0  0  0
    0.5911    0.6220    0.9287 C   0  0  0  0  0  0  0  0  0  0  0  0
    0.8380   -0.2435   -0.3309 C   0  0  0  0  0  0  0  0  0  0  0  0
    1.8669    0.4851    1.7956 C   0  0  0  0  0  0  0  0  0  0  0  0
    2.3316   -0.2213   -0.4372 C   0  0  0  0  0  0  0  0  0  0  0  0
    2.9136    0.1958    0.7650 C   0  0  0  0  0  0  0  0  0  0  0  0
    0.3392    2.0869    0.5533 C   0  0  0  0  0  0  0  0  0  0  0  0
    3.1148   -0.5764   -1.5233 C   0  0  0  0  0  0  0  0  0  0  0  0
    4.2894    0.2600    0.9087 C   0  0  0  0  0  0  0  0  0  0  0  0
   -1.0896    2.3111    0.1491 C   0  0  0  0  0  0  0  0  0  0  0  0
   -0.9928   -1.6763    0.0064 C   0  0  0  0  0  0  0  0  0  0  0  0
    4.5031   -0.5033   -1.3915 C   0  0  0  0  0  0  0  0  0  0  0  0
    5.0862   -0.0885   -0.1839 C   0  0  0  0  0  0  0  0  0  0  0  0
   -1.3695   -3.1331    0.2236 C   0  0  0  0  0  0  0  0  0  0  0  0
   -1.4570    2.1691   -1.1838 C   0  0  0  0  0  0  0  0  0  0  0  0
   -2.0301    2.6584    1.1116 C   0  0  0  0  0  0  0  0  0  0  0  0
   -2.7840    2.3773   -1.5595 C   0  0  0  0  0  0  0  0  0  0  0  0
   -3.3571    2.8667    0.7359 C   0  0  0  0  0  0  0  0  0  0  0  0
   -3.7341    2.7261   -0.5997 C   0  0  0  0  0  0  0  0  0  0  0  0
   -3.1717   -4.6737    0.6121 C   0  0  0  0  0  0  0  0  0  0  0  0
   -3.4974   -2.7846   -0.8362 C   0  0  0  0  0  0  0  0  0  0  0  0
  1  4  1  0
  1 12  1  0
  2 15  1  0
  2 21  1  0
  2 22  1  0
  3  4  1  0
  3  5  1  0
  3  8  1  0
  4  6  1  0
  5  7  1  0
  6  7  2  0
  6  9  1  0
  7 10  1  0
  8 11  1  0
  9 13  2  0
 10 14  2  0
 11 16  2  0
 11 17  1  0
 12 15  1  0
 13 14  1  0
 16 18  1  0
 17 19  2  0
 18 20  2  0
 19 20  1  0
M  END
>  <PUBCHEM_COMPOUND_CID>  (1) 
26828

>  <PUBCHEM_CONFORMER_RMSD>  (1) 
0.8

>  <PUBCHEM_CONFORMER_DIVERSEORDER>  (1) 
1
5
24
28
25
17
34
26
20
30
14
21
19
6
33
31
18
27
23
22
8
7
29
12
3
32
16
15
13
10
2
11
4
9

>  <PUBCHEM_MMFF94_PARTIAL_CHARGES>  (1) 
30
1 -0.56
10 -0.15
11 -0.14
12 0.28
13 -0.15
14 -0.15
15 0.27
16 -0.15
17 -0.15
18 -0.15
19 -0.15
2 -0.81
20 -0.15
21 0.27
22 0.27
29 0.15
30 0.15
33 0.15
34 0.15
37 0.15
38 0.15
39 0.15
4 0.42
40 0.15
41 0.15
5 0.14
6 -0.14
7 -0.14
8 0.14
9 -0.15

>  <PUBCHEM_EFFECTIVE_ROTOR_COUNT>  (1) 
6.6

>  <PUBCHEM_PHARMACOPHORE_FEATURES>  (1) 
5
1 1 acceptor
1 2 cation
5 3 4 5 6 7 rings
6 11 16 17 18 19 20 rings
6 6 7 9 10 13 14 rings

>  <PUBCHEM_HEAVY_ATOM_COUNT>  (1) 
22

>  <PUBCHEM_ATOM_DEF_STEREO_COUNT>  (1) 
2

>  <PUBCHEM_ATOM_UDEF_STEREO_COUNT>  (1) 
0

>  <PUBCHEM_BOND_DEF_STEREO_COUNT>  (1) 
0

>  <PUBCHEM_BOND_UDEF_STEREO_COUNT>  (1) 
0

>  <PUBCHEM_ISOTOPIC_ATOM_COUNT>  (1) 
0

>  <PUBCHEM_COMPONENT_COUNT>  (1) 
1

>  <PUBCHEM_CACTVS_TAUTO_COUNT>  (1) 
1

>  <PUBCHEM_CONFORMER_ID>  (1) 
000068CC00000001

>  <PUBCHEM_MMFF94_ENERGY>  (1) 
66.3553

>  <PUBCHEM_FEATURE_SELFOVERLAP>  (1) 
25.453

>  <PUBCHEM_SHAPE_FINGERPRINT>  (1) 
108634 29 18342727525138220743
116883 192 18269554012507392175
121448 382 18269542849956325589
12160290 23 18196060366284584599
12293681 25 17416143689318953654
12788726 201 18190183571503470250
13052359 8 18336824204111305563
13140716 1 18194682794522022099
13540713 4 18131634509063467704
13583140 156 17531257114986801488
13681431 1 17614855440255720083
13899415 180 17980750850970116295
14251757 5 18335422408817810711
14363568 33 17401773419956404185
17138139 8 17838854306345768149
17357779 13 18199455735595539831
1813 80 18051707829663226594
20600515 1 17537976436106049314
21049683 271 17471303215091904220
21285901 2 18129114474850832334
21344244 181 17915468190369491535
21452121 99 18338220592663610288
21641784 216 18044953495663958180
21860390 5 17402606849691494839
22182313 1 17846493786202811456
2255824 54 17474949822873102839
22620623 9 18339940267651993486
23419403 2 17488452143379028968
23557571 272 18342734152552280956
23559900 14 18200877254650417414
3052486 1 18334852814090656523
4409770 3 18409165511125931503
458136 41 17834404423368173433
469060 322 18113631079657846969
4921388 177 18341050735461916180
5283268 108 18123470746005136019
58779409 8 18337676312764212966
59755656 520 18266743472140597396
633830 44 17843397384738210944
6442390 28 18267878172625417953
7164475 11 18335710498254796598
81228 2 18336829791842632819
9925002 15 18042704938186753309

>  <PUBCHEM_SHAPE_MULTIPOLES>  (1) 
441.9
8.27
5.09
1.43
6.81
5.46
0.12
0.14
1.53
-10.59
-0.58
0.44
-0.5
0.96

>  <PUBCHEM_SHAPE_SELFOVERLAP>  (1) 
937.842

>  <PUBCHEM_SHAPE_VOLUME>  (1) 
250.2

>  <PUBCHEM_COORDINATE_TYPE>  (1) 
2
5
10

$$$$
