26830
     RDKit          3D

 16 17  0  0  1  0  0  0  0  0999 V2000
    1.2353   -1.1316   -0.6662 O   0  0  0  0  0  0  0  0  0  0  0  0
    3.7081    0.4236   -0.4753 N   0  0  0  0  0  0  0  0  0  0  0  0
   -0.1354   -1.1731   -0.8913 N   0  0  0  0  0  0  0  0  0  0  0  0
    2.9150   -0.0398    0.6627 C   0  0  0  0  0  0  0  0  0  0  0  0
    1.4578   -0.2204    0.2866 C   0  0  0  0  0  0  0  0  0  0  0  0
    3.5197   -1.3288    1.2238 C   0  0  0  0  0  0  0  0  0  0  0  0
    0.3357    0.3606    0.7251 C   0  0  0  0  0  0  0  0  0  0  0  0
   -0.6514   -0.2735   -0.0490 C   0  0  0  0  0  0  0  0  0  0  0  0
    5.1086    0.5902   -0.0883 C   0  0  0  0  0  0  0  0  0  0  0  0
    3.1691    1.6791   -0.9968 C   0  0  0  0  0  0  0  0  0  0  0  0
   -2.0700   -0.0402   -0.0015 C   0  0  0  0  0  0  0  0  0  0  0  0
   -2.5561    1.2189    0.3460 C   0  0  0  0  0  0  0  0  0  0  0  0
   -2.9550   -1.0739   -0.3027 C   0  0  0  0  0  0  0  0  0  0  0  0
   -3.9318    1.4450    0.3924 C   0  0  0  0  0  0  0  0  0  0  0  0
   -4.3306   -0.8478   -0.2564 C   0  0  0  0  0  0  0  0  0  0  0  0
   -4.8191    0.4117    0.0910 C   0  0  0  0  0  0  0  0  0  0  0  0
  1  3  1  0
  1  5  1  0
  2  4  1  0
  2  9  1  0
  2 10  1  0
  3  8  2  0
  4  5  1  0
  4  6  1  0
  5  7  2  0
  7  8  1  0
  8 11  1  0
 11 12  2  0
 11 13  1  0
 12 14  1  0
 13 15  2  0
 14 16  2  0
 15 16  1  0
M  END
>  <PUBCHEM_COMPOUND_CID>  (1) 
26830

>  <PUBCHEM_CONFORMER_RMSD>  (1) 
0.6

>  <PUBCHEM_CONFORMER_DIVERSEORDER>  (1) 
2
6
23
19
20
3
15
7
16
18
21
8
22
17
11
14
10
9
1
4
13
5
12

>  <PUBCHEM_MMFF94_PARTIAL_CHARGES>  (1) 
21
1 -0.02
10 0.27
11 0.05
12 -0.15
13 -0.15
14 -0.15
15 -0.15
16 -0.15
2 -0.81
21 0.15
28 0.15
29 0.15
3 -0.41
30 0.15
31 0.15
32 0.15
4 0.45
5 -0.04
7 -0.15
8 0.23
9 0.27

>  <PUBCHEM_EFFECTIVE_ROTOR_COUNT>  (1) 
3

>  <PUBCHEM_PHARMACOPHORE_FEATURES>  (1) 
4
1 2 cation
1 3 acceptor
5 1 3 5 7 8 rings
6 11 12 13 14 15 16 rings

>  <PUBCHEM_HEAVY_ATOM_COUNT>  (1) 
16

>  <PUBCHEM_ATOM_DEF_STEREO_COUNT>  (1) 
0

>  <PUBCHEM_ATOM_UDEF_STEREO_COUNT>  (1) 
1

>  <PUBCHEM_BOND_DEF_STEREO_COUNT>  (1) 
0

>  <PUBCHEM_BOND_UDEF_STEREO_COUNT>  (1) 
0

>  <PUBCHEM_ISOTOPIC_ATOM_COUNT>  (1) 
0

>  <PUBCHEM_COMPONENT_COUNT>  (1) 
1

>  <PUBCHEM_CACTVS_TAUTO_COUNT>  (1) 
1

>  <PUBCHEM_CONFORMER_ID>  (1) 
000068CE00000002

>  <PUBCHEM_MMFF94_ENERGY>  (1) 
37.2378

>  <PUBCHEM_FEATURE_SELFOVERLAP>  (1) 
20.297

>  <PUBCHEM_SHAPE_FINGERPRINT>  (1) 
10354089 29 18113622287527625528
10680689 15 16845569833875987935
10912923 1 18334009493209836571
12107183 9 17613709323863904336
12236239 1 18409446994924263152
12670546 56 18113610162428643696
13167823 11 18334009480167094803
13533116 47 17676200239333343099
13760787 19 18409164419850836546
13897977 58 18411421717713030573
14252887 29 14996281388454583970
14289901 80 18259702298291756251
15239154 128 18334858316028581093
15342168 16 17024601220683566484
17834072 33 18186800317915234523
18186145 218 17967812730368593762
19026448 5 18261107465472571771
19050596 39 18408881824035030027
19422 9 18334853909291687875
200 152 14779547903161735211
20233049 118 18131350817361743760
20279233 1 16487254374123703878
20645477 70 16733531746289282818
21652331 79 18260267455753457141
22854114 59 15936408939901805681
23048698 100 17967811630587765552
23402539 116 18408316696749363453
23402655 69 17703224006467564909
23557571 272 17632305549009064933
23559900 14 18057891233939121558
26918003 58 14418134019526418125
2916195 48 17774993648633691424
300161 21 18261666025958724065
449060 50 16660649578633216374
474 4 17604999298061001908
4990 188 16343708737429319868
5104073 3 18411699868163431083
542803 24 18335422365466892553
573450 72 18338786837031183443
633830 44 18334860489202898639
77779 3 18408323280654731227
8272917 22 18260267400319594506

>  <PUBCHEM_SHAPE_MULTIPOLES>  (1) 
313.44
10.32
1.45
0.93
0.35
0.19
0.03
1.8
0.21
0.11
-0.09
0.49
-0.06
-1.14

>  <PUBCHEM_SHAPE_SELFOVERLAP>  (1) 
663.737

>  <PUBCHEM_SHAPE_VOLUME>  (1) 
178.8

>  <PUBCHEM_COORDINATE_TYPE>  (1) 
2
5
10

$$$$
