26834
     RDKit          3D

 19 21  0  0  1  0  0  0  0  0999 V2000
    4.8669    1.6326    0.5841 O   0  0  0  0  0  0  0  0  0  0  0  0
    0.0988   -1.5854    1.1720 O   0  0  0  0  0  0  0  0  0  0  0  0
    2.7800   -0.0766   -0.3242 N   0  0  0  0  0  0  0  0  0  0  0  0
   -1.2413   -1.2421    1.3037 N   0  0  0  0  0  0  0  0  0  0  0  0
    2.0021   -1.3126   -0.2714 C   0  0  0  0  0  0  0  0  0  0  0  0
    4.1906   -0.3603   -0.6232 C   0  0  0  0  0  0  0  0  0  0  0  0
    2.6725    0.6621    0.9416 C   0  0  0  0  0  0  0  0  0  0  0  0
    4.9845    0.9425   -0.6605 C   0  0  0  0  0  0  0  0  0  0  0  0
    3.5014    1.9410    0.8665 C   0  0  0  0  0  0  0  0  0  0  0  0
    0.5435   -1.0374    0.0363 C   0  0  0  0  0  0  0  0  0  0  0  0
    2.1690   -2.0850   -1.5820 C   0  0  0  0  0  0  0  0  0  0  0  0
   -0.3991   -0.3460   -0.6132 C   0  0  0  0  0  0  0  0  0  0  0  0
   -1.5159   -0.5020    0.2258 C   0  0  0  0  0  0  0  0  0  0  0  0
   -2.8334    0.0383    0.0216 C   0  0  0  0  0  0  0  0  0  0  0  0
   -2.9929    1.2388   -0.6680 C   0  0  0  0  0  0  0  0  0  0  0  0
   -3.9466   -0.6402    0.5141 C   0  0  0  0  0  0  0  0  0  0  0  0
   -4.2703    1.7629   -0.8657 C   0  0  0  0  0  0  0  0  0  0  0  0
   -5.2241   -0.1161    0.3161 C   0  0  0  0  0  0  0  0  0  0  0  0
   -5.3858    1.0854   -0.3737 C   0  0  0  0  0  0  0  0  0  0  0  0
  1  8  1  0
  1  9  1  0
  2  4  1  0
  2 10  1  0
  3  5  1  0
  3  6  1  0
  3  7  1  0
  4 13  2  0
  5 10  1  0
  5 11  1  0
  6  8  1  0
  7  9  1  0
 10 12  2  0
 12 13  1  0
 13 14  1  0
 14 15  2  0
 14 16  1  0
 15 17  1  0
 16 18  2  0
 17 19  2  0
 18 19  1  0
M  END
>  <PUBCHEM_COMPOUND_CID>  (1) 
26834

>  <PUBCHEM_CONFORMER_RMSD>  (1) 
0.6

>  <PUBCHEM_CONFORMER_DIVERSEORDER>  (1) 
1
33
6
24
28
13
26
18
23
19
27
10
29
22
31
21
15
25
17
5
11
20
9
32
4
16
3
30
14
2
8
7
12

>  <PUBCHEM_MMFF94_PARTIAL_CHARGES>  (1) 
24
1 -0.56
10 -0.04
12 -0.15
13 0.23
14 0.05
15 -0.15
16 -0.15
17 -0.15
18 -0.15
19 -0.15
2 -0.02
3 -0.81
32 0.15
33 0.15
34 0.15
35 0.15
36 0.15
37 0.15
4 -0.41
5 0.45
6 0.27
7 0.27
8 0.28
9 0.28

>  <PUBCHEM_EFFECTIVE_ROTOR_COUNT>  (1) 
4.2

>  <PUBCHEM_PHARMACOPHORE_FEATURES>  (1) 
6
1 1 acceptor
1 3 cation
1 4 acceptor
5 2 4 10 12 13 rings
6 1 3 6 7 8 9 rings
6 14 15 16 17 18 19 rings

>  <PUBCHEM_HEAVY_ATOM_COUNT>  (1) 
19

>  <PUBCHEM_ATOM_DEF_STEREO_COUNT>  (1) 
0

>  <PUBCHEM_ATOM_UDEF_STEREO_COUNT>  (1) 
1

>  <PUBCHEM_BOND_DEF_STEREO_COUNT>  (1) 
0

>  <PUBCHEM_BOND_UDEF_STEREO_COUNT>  (1) 
0

>  <PUBCHEM_ISOTOPIC_ATOM_COUNT>  (1) 
0

>  <PUBCHEM_COMPONENT_COUNT>  (1) 
1

>  <PUBCHEM_CACTVS_TAUTO_COUNT>  (1) 
1

>  <PUBCHEM_CONFORMER_ID>  (1) 
000068D200000001

>  <PUBCHEM_MMFF94_ENERGY>  (1) 
39.1885

>  <PUBCHEM_FEATURE_SELFOVERLAP>  (1) 
30.446

>  <PUBCHEM_SHAPE_FINGERPRINT>  (1) 
10498660 4 18187643540513363461
10646746 165 18187085022802134911
11128504 68 15769774680037035192
11543360 7 17917702496849685103
11595378 159 16733255768649164621
12236239 1 15841558452703541510
12403259 415 18335428949746709335
12553582 1 14117512104754557287
12596602 18 15647059295252151000
12633257 1 17168418372188318692
12670546 177 17989198253209343839
12670546 56 14129055919920098015
12730499 353 18342465841212898362
12769317 202 18272643554540871800
12892183 10 13406784524073659398
12969540 114 18272078405616656765
13081056 2 18410856555371371493
13402501 40 18409445903660471068
13685833 64 10015578428786127613
14251751 18 11095888155234755980
14341114 328 16225765237688696432
14366163 111 15913324710635840250
14528608 73 18059851787841080941
15961568 22 18114185258777159796
17349148 13 16081091489358588979
17959699 21 18270680862082484129
18186145 218 18264779770264668131
193927 3 10231753435365812637
19862831 5 15985104123863185046
200 152 16773802476073404914
20645477 56 18409452483839940751
20645477 70 17917721158261384646
21033648 29 18410569621586446400
212847 35 18333730204761823944
212916 134 17821722853552570298
21452121 103 18334287631118439778
221357 26 18060139808279852960
22289505 5 18272087141585729604
231179 274 18413108377229410568
23227448 37 18269270325865150045
23402539 116 18114178670465612375
23402655 69 18060137626319830853
23557571 272 18262532488725157179
23559900 14 18041851605605244654
2838139 119 18341319063802391396
2916195 48 18334574655108520081
3060560 45 17703794708815727238
341906 21 17603585209937544189
3421961 26 7925909275306644270
34797466 226 17989211447454365685
351380 180 18408321098790395168
3545911 37 18412549812100059839
4028521 119 18412262830801442769
42 15 7997966886519068935
4325135 7 18272366521087697079
465052 167 11314311628970862264
474 4 18335703866197816629
495365 180 18060129956099155570
5104073 3 17823137827008867033
5281201 14 18058173834175599573
633830 44 18198902514149206271
6442390 28 18260548935035580522
7808743 9 17969227909508586380

>  <PUBCHEM_SHAPE_MULTIPOLES>  (1) 
369.31
11.98
1.93
1.14
3.43
0.14
0.01
6.15
1.25
-1.24
0.13
-0.26
-0.21
1.67

>  <PUBCHEM_SHAPE_SELFOVERLAP>  (1) 
790.736

>  <PUBCHEM_SHAPE_VOLUME>  (1) 
206.2

>  <PUBCHEM_COORDINATE_TYPE>  (1) 
2
5
10

$$$$
