26844
     RDKit          3D

 23 24  0  0  1  0  0  0  0  0999 V2000
    3.7566   -0.6643    0.2306 N   0  0  0  0  0  0  0  0  0  0  0  0
   -0.9036   -1.7012    2.1845 N   0  0  0  0  0  0  0  0  0  0  0  0
   -0.6672   -1.2350   -0.2424 C   0  0  0  0  0  0  0  0  0  0  0  0
    0.8627   -1.4201    0.0586 C   0  0  0  0  0  0  0  0  0  0  0  0
   -1.1576   -2.3331   -1.2413 C   0  0  0  0  0  0  0  0  0  0  0  0
   -0.8939    0.2107   -0.7473 C   0  0  0  0  0  0  0  0  0  0  0  0
   -1.4938   -1.4111    1.0675 C   0  0  0  0  0  0  0  0  0  0  0  0
    1.7941   -1.2698   -1.1579 C   0  0  0  0  0  0  0  0  0  0  0  0
   -0.5455    1.2848    0.0433 C   0  0  0  0  0  0  0  0  0  0  0  0
    3.2619   -1.5471   -0.8189 C   0  0  0  0  0  0  0  0  0  0  0  0
   -3.0071   -1.2292    1.0442 C   0  0  0  0  0  0  0  0  0  0  0  0
   -0.9085   -3.7770   -0.8082 C   0  0  0  0  0  0  0  0  0  0  0  0
   -1.4490    0.3179   -1.9983 C   0  0  0  0  0  0  0  0  0  0  0  0
   -0.7781    2.5807   -0.4758 C   0  0  0  0  0  0  0  0  0  0  0  0
   -1.6773    1.5923   -2.5089 C   0  0  0  0  0  0  0  0  0  0  0  0
    0.0213    1.1483    1.3209 C   0  0  0  0  0  0  0  0  0  0  0  0
   -3.7394   -2.4932    1.4592 C   0  0  0  0  0  0  0  0  0  0  0  0
   -1.3446    2.7173   -1.7537 C   0  0  0  0  0  0  0  0  0  0  0  0
   -0.4370    3.7018    0.2980 C   0  0  0  0  0  0  0  0  0  0  0  0
    0.3538    2.2733    2.0761 C   0  0  0  0  0  0  0  0  0  0  0  0
    3.7032    0.7329   -0.2034 C   0  0  0  0  0  0  0  0  0  0  0  0
    5.1240   -1.0267    0.6075 C   0  0  0  0  0  0  0  0  0  0  0  0
    0.1249    3.5477    1.5656 C   0  0  0  0  0  0  0  0  0  0  0  0
  1 10  1  0
  1 21  1  0
  1 22  1  0
  2  7  2  0
  3  4  1  0
  3  5  1  0
  3  6  1  0
  3  7  1  0
  4  8  1  0
  5 12  1  0
  6  9  2  0
  6 13  1  0
  7 11  1  0
  8 10  1  0
  9 14  1  0
  9 16  1  0
 11 17  1  0
 13 15  2  0
 14 18  2  0
 14 19  1  0
 15 18  1  0
 16 20  2  0
 19 23  2  0
 20 23  1  0
M  END
>  <PUBCHEM_COMPOUND_CID>  (1) 
26844

>  <PUBCHEM_CONFORMER_RMSD>  (1) 
0.8

>  <PUBCHEM_CONFORMER_DIVERSEORDER>  (1) 
4
46
28
13
30
48
34
53
23
44
42
39
45
38
27
24
51
22
26
43
19
31
15
32
50
2
33
36
14
10
1
18
37
29
52
35
16
47
40
17
6
9
12
5
20
3
25
7
8
41
11
21
49

>  <PUBCHEM_MMFF94_PARTIAL_CHARGES>  (1) 
24
1 -0.81
10 0.27
11 0.06
13 -0.15
15 -0.15
16 -0.15
18 -0.15
19 -0.15
2 -0.85
20 -0.15
21 0.27
22 0.27
23 -0.15
3 0.2
37 0.15
38 0.15
39 0.15
40 0.4
44 0.15
45 0.15
46 0.15
53 0.15
6 -0.14
7 0.33

>  <PUBCHEM_EFFECTIVE_ROTOR_COUNT>  (1) 
8

>  <PUBCHEM_PHARMACOPHORE_FEATURES>  (1) 
8
1 1 cation
1 12 hydrophobe
1 17 hydrophobe
1 2 acceptor
1 2 donor
4 3 4 5 8 hydrophobe
6 6 9 13 14 15 18 rings
6 9 14 16 19 20 23 rings

>  <PUBCHEM_HEAVY_ATOM_COUNT>  (1) 
23

>  <PUBCHEM_ATOM_DEF_STEREO_COUNT>  (1) 
0

>  <PUBCHEM_ATOM_UDEF_STEREO_COUNT>  (1) 
1

>  <PUBCHEM_BOND_DEF_STEREO_COUNT>  (1) 
0

>  <PUBCHEM_BOND_UDEF_STEREO_COUNT>  (1) 
0

>  <PUBCHEM_ISOTOPIC_ATOM_COUNT>  (1) 
0

>  <PUBCHEM_COMPONENT_COUNT>  (1) 
1

>  <PUBCHEM_CACTVS_TAUTO_COUNT>  (1) 
2

>  <PUBCHEM_CONFORMER_ID>  (1) 
000068DC00000004

>  <PUBCHEM_MMFF94_ENERGY>  (1) 
84.7524

>  <PUBCHEM_FEATURE_SELFOVERLAP>  (1) 
40.642

>  <PUBCHEM_SHAPE_FINGERPRINT>  (1) 
10165383 225 16680405354453005940
10764073 3 16552601485615256059
11640471 11 17046249109658847412
12035758 1 18339911701945599969
12788726 201 18042143040842911214
13134695 92 18194423275555427979
13294875 104 17479211946749460097
133893 2 17544476817595538902
14142880 1 18191309265051370796
14787075 74 18124025729279896629
14955137 171 17405479757594983830
16945 1 17968950682032777495
17980427 23 16916522414559881763
19765921 60 17615388282525553685
20510252 161 18333454222816494554
20600515 1 17971786433847531451
21330990 113 18268730319732590387
21524375 3 17686902713650805238
22149856 69 13024527912199384832
22907989 373 18264222343697225372
22956985 138 16964076563250439730
23352939 185 16700581611544605341
23419403 2 18337946921843066221
23558518 356 17838902534027144788
3380486 145 18269543013307306086
35225 105 17463446865420005616
394222 165 17110703589370134949
4340502 62 17615139789077988769
4409770 3 18337378362467417910
469060 322 17822871817813619976
474 4 17259617046199933830
5845 1 18126593268881270406
81228 2 17755339744652715307
9981440 41 17839717311035883706

>  <PUBCHEM_SHAPE_MULTIPOLES>  (1) 
463.37
5.16
4.71
2.18
7.6
2.13
-0.17
-4.35
1.08
-2.01
0.44
-1.39
0.75
1.59

>  <PUBCHEM_SHAPE_SELFOVERLAP>  (1) 
964.198

>  <PUBCHEM_SHAPE_VOLUME>  (1) 
263.2

>  <PUBCHEM_COORDINATE_TYPE>  (1) 
2
5
10

$$$$
