26840
     RDKit          3D

 22 21  0  0  1  0  0  0  0  0999 V2000
    6.7170   -2.6307    0.0176 O   0  0  0  0  0  0  0  0  0  0  0  0
    4.7372   -1.9309    0.8970 O   0  0  0  0  0  0  0  0  0  0  0  0
    1.8095    0.9595    0.2515 C   0  0  0  0  0  0  0  0  0  0  0  0
   -3.2044   -0.2041   -0.0477 C   0  0  0  0  0  0  0  0  0  0  0  0
    0.3593    1.4431    0.0219 C   0  0  0  0  0  0  0  0  0  0  0  0
   -2.0965    0.8692   -0.1485 C   0  0  0  0  0  0  0  0  0  0  0  0
   -0.6810    0.3171    0.0595 C   0  0  0  0  0  0  0  0  0  0  0  0
    2.7636    2.1678    0.1204 C   0  0  0  0  0  0  0  0  0  0  0  0
   -4.5815    0.4944   -0.1085 C   0  0  0  0  0  0  0  0  0  0  0  0
    4.2617    1.8794    0.2875 C   0  0  0  0  0  0  0  0  0  0  0  0
   -5.8116   -0.3948    0.1189 C   0  0  0  0  0  0  0  0  0  0  0  0
    4.8249    0.9336   -0.7776 C   0  0  0  0  0  0  0  0  0  0  0  0
    1.9643    0.2617    1.6057 C   0  0  0  0  0  0  0  0  0  0  0  0
    6.3079    0.5687   -0.5566 C   0  0  0  0  0  0  0  0  0  0  0  0
   -7.1346    0.3778    0.1137 C   0  0  0  0  0  0  0  0  0  0  0  0
   -3.0615   -1.2672   -1.1404 C   0  0  0  0  0  0  0  0  0  0  0  0
   -8.3692   -0.5193    0.3293 C   0  0  0  0  0  0  0  0  0  0  0  0
    6.5626   -0.3558    0.6435 C   0  0  0  0  0  0  0  0  0  0  0  0
    6.8940   -0.0208   -1.8446 C   0  0  0  0  0  0  0  0  0  0  0  0
   -8.5112   -1.5919   -0.7520 C   0  0  0  0  0  0  0  0  0  0  0  0
   -9.6346    0.3419    0.3668 C   0  0  0  0  0  0  0  0  0  0  0  0
    5.8842   -1.6987    0.5426 C   0  0  0  0  0  0  0  0  0  0  0  0
  1 22  1  0
  2 22  2  0
  3  5  1  0
  3  8  1  0
  3 13  1  0
  4  6  1  0
  4  9  1  0
  4 16  1  0
  5  7  1  0
  6  7  1  0
  8 10  1  0
  9 11  1  0
 10 12  1  0
 11 15  1  0
 12 14  1  0
 14 18  1  0
 14 19  1  0
 15 17  1  0
 17 20  1  0
 17 21  1  0
 18 22  1  0
M  END
>  <PUBCHEM_COMPOUND_CID>  (1) 
26840

>  <PUBCHEM_CONFORMER_RMSD>  (1) 
1.6

>  <PUBCHEM_CONFORMER_DIVERSEORDER>  (1) 
1
26
6
31
37
22
38
27
3
13
28
14
32
30
16
41
39
5
15
21
35
7
23
4
42
36
18
40
12
33
25
43
20
8
9
11
24
10
19
17
29
2
34

>  <PUBCHEM_MMFF94_PARTIAL_CHARGES>  (1) 
5
1 -0.65
18 0.06
2 -0.57
22 0.66
62 0.5

>  <PUBCHEM_EFFECTIVE_ROTOR_COUNT>  (1) 
14

>  <PUBCHEM_PHARMACOPHORE_FEATURES>  (1) 
7
1 1 acceptor
1 13 hydrophobe
1 16 hydrophobe
1 19 hydrophobe
1 2 acceptor
3 1 2 22 anion
3 17 20 21 hydrophobe

>  <PUBCHEM_HEAVY_ATOM_COUNT>  (1) 
22

>  <PUBCHEM_ATOM_DEF_STEREO_COUNT>  (1) 
0

>  <PUBCHEM_ATOM_UDEF_STEREO_COUNT>  (1) 
3

>  <PUBCHEM_BOND_DEF_STEREO_COUNT>  (1) 
0

>  <PUBCHEM_BOND_UDEF_STEREO_COUNT>  (1) 
0

>  <PUBCHEM_ISOTOPIC_ATOM_COUNT>  (1) 
0

>  <PUBCHEM_COMPONENT_COUNT>  (1) 
1

>  <PUBCHEM_CACTVS_TAUTO_COUNT>  (1) 
1

>  <PUBCHEM_CONFORMER_ID>  (1) 
000068D800000001

>  <PUBCHEM_MMFF94_ENERGY>  (1) 
24.424

>  <PUBCHEM_FEATURE_SELFOVERLAP>  (1) 
35.579

>  <PUBCHEM_SHAPE_FINGERPRINT>  (1) 
10 15 12391511992423416720
10066227 49 18409165476739988323
10299344 5 18411700989397645347
11135609 127 17532380945262824404
11638347 137 14189585117498419988
11719270 70 17418380189846979894
11796584 16 17845937433092251662
12592606 108 18343301479035354383
13533116 47 18413385458618614728
13685833 64 18409165497998027387
14123256 10 12757147991475939413
14216079 64 18410575080574119445
14251764 18 18342176665992412951
14251764 46 16949999253016242184
14429380 56 10015578376660802058
15183329 4 18273221897435412216
15301273 46 17167859768963048063
1754908 1 14333408978364503391
21095086 128 18341049705655955199
21150785 3 16443065010483154117
21267235 1 18408039594118256657
21315759 40 18342744039841575785
21315763 28 18413107286635310649
21360442 67 16950285117813566314
21360443 126 16660650686576868330
21792934 111 14117803505542913091
22224240 67 11887958748547244909
2835820 82 18263642866557564410
28498 318 18408039602919064333
3004659 81 18131356323704995956
33532 11 18409727365804462211
34797466 226 16298389080483649524
4325135 7 11169909485233921280
439807 62 18260830384680025346
444735 82 11312054370085400298
5283156 175 18412546500812357881
59682541 35 12031785886330417677
6438161 24 18411415107773965602

>  <PUBCHEM_SHAPE_MULTIPOLES>  (1) 
441.01
30.23
1.96
1.1
44.96
0.62
-0.14
10.64
-2.05
-3.38
0.13
-1.48
0.17
-1.34

>  <PUBCHEM_SHAPE_SELFOVERLAP>  (1) 
816.809

>  <PUBCHEM_SHAPE_VOLUME>  (1) 
278.3

>  <PUBCHEM_COORDINATE_TYPE>  (1) 
2
5
10

$$$$
