2684
     RDKit          3D

 13 15  0  0  1  0  0  0  0  0999 V2000
    2.5647   -1.3985   -0.3529 S   0  0  0  0  0  0  0  0  0  0  0  0
    1.2543    0.8399    0.1952 O   0  0  0  0  0  0  0  0  0  0  0  0
   -1.8735    0.0093   -1.1871 N   0  0  0  0  0  0  0  0  0  0  0  0
    0.2577   -0.2044    0.1435 C   0  0  0  0  0  0  0  0  0  0  0  0
   -0.8389    0.1403    1.1874 C   0  0  0  0  0  0  0  0  0  0  0  0
   -0.4129   -0.2362   -1.2625 C   0  0  0  0  0  0  0  0  0  0  0  0
   -1.9467   -0.9236    1.1295 C   0  0  0  0  0  0  0  0  0  0  0  0
   -1.4912    1.4800    0.7917 C   0  0  0  0  0  0  0  0  0  0  0  0
   -2.4874   -1.0073   -0.3061 C   0  0  0  0  0  0  0  0  0  0  0  0
   -2.1020    1.3509   -0.6113 C   0  0  0  0  0  0  0  0  0  0  0  0
    0.9811   -1.5145    0.4977 C   0  0  0  0  0  0  0  0  0  0  0  0
    2.4552    0.4018   -0.4537 C   0  0  0  0  0  0  0  0  0  0  0  0
    3.6397    1.0622    0.2288 C   0  0  0  0  0  0  0  0  0  0  0  0
  1 11  1  0
  1 12  1  0
  2  4  1  0
  2 12  1  0
  3  6  1  0
  3  9  1  0
  3 10  1  0
  4  5  1  0
  4  6  1  0
  4 11  1  0
  5  7  1  0
  5  8  1  0
  7  9  1  0
  8 10  1  0
 12 13  1  0
M  END
>  <PUBCHEM_COMPOUND_CID>  (1) 
2684

>  <PUBCHEM_CONFORMER_RMSD>  (1) 
0.6

>  <PUBCHEM_CONFORMER_DIVERSEORDER>  (1) 
1
2
3

>  <PUBCHEM_MMFF94_PARTIAL_CHARGES>  (1) 
9
1 -0.46
10 0.27
11 0.23
12 0.51
2 -0.56
3 -0.81
4 0.28
6 0.27
9 0.27

>  <PUBCHEM_EFFECTIVE_ROTOR_COUNT>  (1) 
1.8

>  <PUBCHEM_PHARMACOPHORE_FEATURES>  (1) 
4
1 2 acceptor
1 3 cation
5 1 2 4 11 12 rings
8 3 4 5 6 7 8 9 10 rings

>  <PUBCHEM_HEAVY_ATOM_COUNT>  (1) 
13

>  <PUBCHEM_ATOM_DEF_STEREO_COUNT>  (1) 
0

>  <PUBCHEM_ATOM_UDEF_STEREO_COUNT>  (1) 
2

>  <PUBCHEM_BOND_DEF_STEREO_COUNT>  (1) 
0

>  <PUBCHEM_BOND_UDEF_STEREO_COUNT>  (1) 
0

>  <PUBCHEM_ISOTOPIC_ATOM_COUNT>  (1) 
0

>  <PUBCHEM_COMPONENT_COUNT>  (1) 
1

>  <PUBCHEM_CACTVS_TAUTO_COUNT>  (1) 
1

>  <PUBCHEM_CONFORMER_ID>  (1) 
00000A7C00000001

>  <PUBCHEM_MMFF94_ENERGY>  (1) 
40.712

>  <PUBCHEM_FEATURE_SELFOVERLAP>  (1) 
20.299

>  <PUBCHEM_SHAPE_FINGERPRINT>  (1) 
12138202 97 17458611350556800759
12423570 1 16980394990220732185
12897270 3 18410568517684470215
12932764 1 17346881152427400272
13024252 1 18114180873656909665
13571099 52 17822560629994738028
15219456 202 18260551103983112650
15310529 11 18272931617733384310
15775835 57 18060144236448793616
15852999 172 17385991884486289410
16945 1 18263092169802011426
17844478 74 18262531388896732587
200 152 18342731953054349870
20525323 117 18410294730699284369
20645464 45 17531246136691059696
20653085 51 18195526995781623021
21501502 16 18260544481143620210
21524375 3 17624988131617515681
23402539 116 17096353094343154135
23419403 2 16884128813229779983
23552423 10 18270678649841913222
2748010 2 18335148557233743030
3248919 1 17821452369718871220
369184 2 18412831265412010403
5084963 1 18411426141212658956
528886 8 18336540530153439920
63268167 104 18343582911056954880
74978 22 18268150846976872478
8030462 33 18343304743115319892

>  <PUBCHEM_SHAPE_MULTIPOLES>  (1) 
260.53
4.51
1.59
1.17
3.01
0.01
0.04
-0.58
0.2
0.16
-0.15
-0.56
0.04
0.18

>  <PUBCHEM_SHAPE_SELFOVERLAP>  (1) 
536.815

>  <PUBCHEM_SHAPE_VOLUME>  (1) 
154.8

>  <PUBCHEM_COORDINATE_TYPE>  (1) 
2
5
10

$$$$
