26842
     RDKit          3D

 18 20  0  0  0  0  0  0  0  0999 V2000
    2.4364    3.3920    0.0002 I   0  0  0  0  0  0  0  0  0  0  0  0
    3.6873   -2.1106   -0.0018 O   0  0  0  0  0  0  0  0  0  0  0  0
    3.3431    0.2208    0.0003 N   0  0  0  0  0  0  0  0  0  0  0  0
   -1.2166   -1.8162    0.0001 C   0  0  0  0  0  0  0  0  0  0  0  0
   -0.1859   -0.7067   -0.0003 C   0  0  0  0  0  0  0  0  0  0  0  0
   -0.8191    0.5566   -0.0004 C   0  0  0  0  0  0  0  0  0  0  0  0
   -2.5130   -1.0333    0.0000 C   0  0  0  0  0  0  0  0  0  0  0  0
   -2.2521    0.3555   -0.0002 C   0  0  0  0  0  0  0  0  0  0  0  0
    1.1929   -0.8244   -0.0002 C   0  0  0  0  0  0  0  0  0  0  0  0
   -0.0678    1.7200   -0.0005 C   0  0  0  0  0  0  0  0  0  0  0  0
   -3.8061   -1.5262    0.0003 C   0  0  0  0  0  0  0  0  0  0  0  0
    1.9499    0.3485   -0.0005 C   0  0  0  0  0  0  0  0  0  0  0  0
   -3.2947    1.2671    0.0000 C   0  0  0  0  0  0  0  0  0  0  0  0
    1.3259    1.6081   -0.0006 C   0  0  0  0  0  0  0  0  0  0  0  0
   -4.8567   -0.6070    0.0006 C   0  0  0  0  0  0  0  0  0  0  0  0
   -4.6036    0.7756    0.0005 C   0  0  0  0  0  0  0  0  0  0  0  0
    4.1002   -0.9554    0.0011 C   0  0  0  0  0  0  0  0  0  0  0  0
    5.5800   -0.6644    0.0015 C   0  0  0  0  0  0  0  0  0  0  0  0
  1 14  1  0
  2 17  2  0
  3 12  1  0
  3 17  1  0
  4  5  1  0
  4  7  1  0
  5  6  2  0
  5  9  1  0
  6  8  1  0
  6 10  1  0
  7  8  2  0
  7 11  1  0
  8 13  1  0
  9 12  2  0
 10 14  2  0
 11 15  2  0
 12 14  1  0
 13 16  2  0
 15 16  1  0
 17 18  1  0
M  END
>  <PUBCHEM_COMPOUND_CID>  (1) 
26842

>  <PUBCHEM_CONFORMER_RMSD>  (1) 
0.6

>  <PUBCHEM_CONFORMER_DIVERSEORDER>  (1) 
1
2
3

>  <PUBCHEM_MMFF94_PARTIAL_CHARGES>  (1) 
23
1 -0.08
10 -0.15
11 -0.15
12 0.12
13 -0.15
14 0.08
15 -0.15
16 -0.15
17 0.57
18 0.06
2 -0.57
21 0.15
22 0.15
23 0.15
24 0.15
25 0.15
26 0.15
27 0.37
3 -0.55
4 0.29
5 -0.14
7 -0.14
9 -0.15

>  <PUBCHEM_EFFECTIVE_ROTOR_COUNT>  (1) 
2.2

>  <PUBCHEM_PHARMACOPHORE_FEATURES>  (1) 
6
1 1 hydrophobe
1 2 acceptor
1 3 donor
5 4 5 6 7 8 rings
6 5 6 9 10 12 14 rings
6 7 8 11 13 15 16 rings

>  <PUBCHEM_HEAVY_ATOM_COUNT>  (1) 
18

>  <PUBCHEM_ATOM_DEF_STEREO_COUNT>  (1) 
0

>  <PUBCHEM_ATOM_UDEF_STEREO_COUNT>  (1) 
0

>  <PUBCHEM_BOND_DEF_STEREO_COUNT>  (1) 
0

>  <PUBCHEM_BOND_UDEF_STEREO_COUNT>  (1) 
0

>  <PUBCHEM_ISOTOPIC_ATOM_COUNT>  (1) 
0

>  <PUBCHEM_COMPONENT_COUNT>  (1) 
1

>  <PUBCHEM_CACTVS_TAUTO_COUNT>  (1) 
2

>  <PUBCHEM_CONFORMER_ID>  (1) 
000068DA00000001

>  <PUBCHEM_MMFF94_ENERGY>  (1) 
62.9592

>  <PUBCHEM_FEATURE_SELFOVERLAP>  (1) 
30.61

>  <PUBCHEM_SHAPE_FINGERPRINT>  (1) 
10062212 137 18272928336869201623
10608611 8 18337951302799619165
10967382 1 18266458895860193860
11405975 8 18412831308810252001
11680986 33 18190747633288724017
12032990 46 18410294704924205715
12236239 1 17821730507648670874
12403259 226 18409724088934709237
12403259 415 18113610201753587477
12403260 363 18342736334527614093
12553582 1 18337377267572387258
12916754 54 18338518650946777019
13140716 1 18338526317373976697
13288520 33 18411983541931333318
13675066 3 18201432601440735787
13690532 89 18410856546760168947
138480 1 18410855494942340832
13862211 1 18410569565704437298
14115302 16 17822303395861074702
14866123 147 17333939647044333978
15042514 8 17977662005559569482
15099037 51 18410292497469336223
15196674 1 18338516447496854149
15442244 35 18411702092777394761
15536298 74 18341049730370990408
16945 1 18410857633561234469
17492 89 18193838373560394211
17804303 29 18410014342444316557
1813 80 17458627791870692086
18186145 218 17676478488736586887
200 152 17989201547549486183
20612939 158 18334577983470992821
20645477 70 18336824307174598903
20671657 1 18338802341525790908
21029758 11 18412824660042777864
21065198 57 18410292549230437825
21267235 1 18410582789940292771
21279426 13 18121216476627323791
21452121 103 18269264828602995032
21501502 16 18269274741191906293
21859007 373 17824514462379596141
221490 88 18263650721788049627
22182313 1 18042381651782738556
2297311 6 18270127808192382470
23366157 5 18042120037177655820
23402539 116 18271518723869739879
23463225 33 18410857672036319341
23557571 272 18128261087024988700
23558518 356 17754737452799064186
23559900 14 18341325677983247688
23622692 118 17915446410374204983
296302 2 11024110945235676877
3004659 81 18114748132148831366
3286 77 18408322219787435293
335352 9 18410573959967463581
350125 39 18409733945990155005
4214541 1 18410856551408681025
4463277 17 18410294709825808492
474 4 17460594976696845500
5104073 3 18339084903640489417
633830 44 17676481796062059777
67856867 119 18269550709957616696
7364860 26 18339923848213807096
77779 3 18337955692150388809
8809292 202 18261396680339201939
9709674 26 18191869139644573803
9981440 41 17544753894795095584

>  <PUBCHEM_SHAPE_MULTIPOLES>  (1) 
371.52
9.85
2.76
0.63
0.72
1.91
0
-2.86
0
2.65
0
0.02
0.07
0

>  <PUBCHEM_SHAPE_SELFOVERLAP>  (1) 
797.988

>  <PUBCHEM_SHAPE_VOLUME>  (1) 
209.7

>  <PUBCHEM_COORDINATE_TYPE>  (1) 
2
5
10

$$$$
