2685
     RDKit          3D

 35 37  0  0  1  0  0  0  0  0999 V2000
    7.1239    1.3706   -0.5650 F   0  0  0  0  0  0  0  0  0  0  0  0
    6.9776   -0.0243    1.0960 F   0  0  0  0  0  0  0  0  0  0  0  0
    7.1352   -0.7764   -0.9439 F   0  0  0  0  0  0  0  0  0  0  0  0
   -1.3387   -3.8800    0.6000 O   0  0  0  0  0  0  0  0  0  0  0  0
   -3.6427   -5.3676    1.0583 O   0  0  0  0  0  0  0  0  0  0  0  0
   -3.2014    0.4317   -1.4827 O   0  0  0  0  0  0  0  0  0  0  0  0
   -2.9276    5.4500    0.7849 O   0  0  0  0  0  0  0  0  0  0  0  0
   -1.0833    3.3124    2.7093 O   0  0  0  0  0  0  0  0  0  0  0  0
   -4.1518   -1.9972   -0.3880 N   0  0  0  0  0  0  0  0  0  0  0  0
    3.0087    0.6992   -0.6929 N   0  0  0  0  0  0  0  0  0  0  0  0
    4.3538   -0.9151    0.0257 N   0  0  0  0  0  0  0  0  0  0  0  0
    0.2297    4.0395    0.9756 N   0  0  0  0  0  0  0  0  0  0  0  0
   -3.6903   -3.9381    1.0818 C   0  0  0  0  0  0  0  0  0  0  0  0
   -4.1130   -3.4510   -0.3062 C   0  0  0  0  0  0  0  0  0  0  0  0
   -2.3238   -3.4133    1.5167 C   0  0  0  0  0  0  0  0  0  0  0  0
   -4.5014   -1.5604   -1.7329 C   0  0  0  0  0  0  0  0  0  0  0  0
    1.9576   -1.4304   -0.0028 C   0  0  0  0  0  0  0  0  0  0  0  0
    3.1032   -0.5793   -0.2124 C   0  0  0  0  0  0  0  0  0  0  0  0
   -4.4977   -0.0427   -1.8224 C   0  0  0  0  0  0  0  0  0  0  0  0
   -0.2514   -3.0720    0.4011 C   0  0  0  0  0  0  0  0  0  0  0  0
    1.5069   -2.2588   -1.0307 C   0  0  0  0  0  0  0  0  0  0  0  0
    1.3006   -1.4252    1.2276 C   0  0  0  0  0  0  0  0  0  0  0  0
    0.3991   -3.0819   -0.8281 C   0  0  0  0  0  0  0  0  0  0  0  0
    0.1929   -2.2485    1.4301 C   0  0  0  0  0  0  0  0  0  0  0  0
    4.2750    1.2075   -0.7649 C   0  0  0  0  0  0  0  0  0  0  0  0
    5.0877    0.1932   -0.3162 C   0  0  0  0  0  0  0  0  0  0  0  0
    1.8034    1.4049   -1.0630 C   0  0  0  0  0  0  0  0  0  0  0  0
   -3.1280    1.6778   -0.9172 C   0  0  0  0  0  0  0  0  0  0  0  0
    6.5522    0.1922   -0.1822 C   0  0  0  0  0  0  0  0  0  0  0  0
   -2.1052    1.9683   -0.0214 C   0  0  0  0  0  0  0  0  0  0  0  0
   -4.0780    2.6384   -1.2444 C   0  0  0  0  0  0  0  0  0  0  0  0
   -2.0317    3.2365    0.5548 C   0  0  0  0  0  0  0  0  0  0  0  0
   -2.9811    4.2056    0.2313 C   0  0  0  0  0  0  0  0  0  0  0  0
   -4.0043    3.9066   -0.6683 C   0  0  0  0  0  0  0  0  0  0  0  0
   -0.9560    3.5279    1.4923 C   0  0  0  0  0  0  0  0  0  0  0  0
  1 29  1  0
  2 29  1  0
  3 29  1  0
  4 15  1  0
  4 20  1  0
  5 13  1  0
  6 19  1  0
  6 28  1  0
  7 33  1  0
  8 35  2  0
  9 14  1  0
  9 16  1  0
 10 18  1  0
 10 25  1  0
 10 27  1  0
 11 18  2  0
 11 26  1  0
 12 35  1  0
 13 14  1  0
 13 15  1  0
 16 19  1  0
 17 18  1  0
 17 21  2  0
 17 22  1  0
 20 23  2  0
 20 24  1  0
 21 23  1  0
 22 24  2  0
 25 26  2  0
 26 29  1  0
 28 30  2  0
 28 31  1  0
 30 32  1  0
 31 34  2  0
 32 33  2  0
 32 35  1  0
 33 34  1  0
M  END
>  <PUBCHEM_COMPOUND_CID>  (1) 
2685

>  <PUBCHEM_CONFORMER_RMSD>  (1) 
1.4

>  <PUBCHEM_CONFORMER_DIVERSEORDER>  (1) 
1
57
134
201
36
34
91
97
169
145
32
5
152
187
160
98
177
54
164
112
46
108
42
40
21
123
196
77
2
116
118
20
24
38
107
197
122
19
176
31
125
188
199
35
193
161
173
133
30
156
165
172
25
171
155
14
135
50
69
120
68
27
65
146
56
48
12
198
44
87
140
7
86
144
114
49
71
66
3
6
184
72
138
55
179
93
181
16
175
79
94
117
130
150
89
200
96
67
110
111
33
143
158
157
73
148
182
80
141
18
154
142
29
92
139
74
119
4
128
61
100
81
9
183
127
105
186
62
191
115
190
166
178
75
15
170
136
22
195
137
60
151
26
78
28
39
76
95
163
85
11
174
153
53
58
149
17
59
41
194
64
132
159
129
8
167
37
162
47
52
126
90
102
131
168
189
104
103
70
43
51
83
10
180
121
124
13
192
23
101
185
82
84
63
99
106
109
113
88
45
147

>  <PUBCHEM_MMFF94_PARTIAL_CHARGES>  (1) 
48
1 -0.34
10 0.05
11 -0.57
12 -0.8
13 0.28
14 0.27
15 0.28
16 0.27
17 0.05
18 0.13
19 0.28
2 -0.34
20 0.08
21 -0.15
22 -0.15
23 -0.15
24 -0.15
25 -0.3
26 0.05
27 0.26
28 0.08
29 1.2
3 -0.34
30 -0.15
31 -0.15
32 0.09
33 0.08
34 -0.15
35 0.54
4 -0.36
41 0.36
46 0.15
47 0.15
48 0.15
49 0.15
5 -0.68
50 0.15
51 0.4
55 0.15
56 0.15
57 0.15
58 0.45
59 0.37
6 -0.36
60 0.37
7 -0.53
8 -0.57
9 -0.9

>  <PUBCHEM_EFFECTIVE_ROTOR_COUNT>  (1) 
12

>  <PUBCHEM_PHARMACOPHORE_FEATURES>  (1) 
13
1 12 donor
1 4 acceptor
1 5 acceptor
1 5 donor
1 6 acceptor
1 7 donor
1 8 acceptor
1 9 cation
1 9 donor
3 10 11 18 cation
5 10 11 18 25 26 rings
6 17 20 21 22 23 24 rings
6 28 30 31 32 33 34 rings

>  <PUBCHEM_HEAVY_ATOM_COUNT>  (1) 
35

>  <PUBCHEM_ATOM_DEF_STEREO_COUNT>  (1) 
0

>  <PUBCHEM_ATOM_UDEF_STEREO_COUNT>  (1) 
1

>  <PUBCHEM_BOND_DEF_STEREO_COUNT>  (1) 
0

>  <PUBCHEM_BOND_UDEF_STEREO_COUNT>  (1) 
0

>  <PUBCHEM_ISOTOPIC_ATOM_COUNT>  (1) 
0

>  <PUBCHEM_COMPONENT_COUNT>  (1) 
1

>  <PUBCHEM_CACTVS_TAUTO_COUNT>  (1) 
7

>  <PUBCHEM_CONFORMER_ID>  (1) 
00000A7D00000001

>  <PUBCHEM_MMFF94_ENERGY>  (1) 
88.8794

>  <PUBCHEM_FEATURE_SELFOVERLAP>  (1) 
65.977

>  <PUBCHEM_SHAPE_FINGERPRINT>  (1) 
10032420 55 18195779974046081125
100830 39 18335137635543528574
10816530 145 18191040086851431051
11434127 23 18342172241754099548
12107183 9 17970615291562522618
12156800 1 18118376618518484576
12788726 201 18338503171995814751
13347071 3 18193276519414341220
13631057 29 18272359854702971957
14279260 333 18339916018673355150
14363568 33 17543641180785588443
14647877 51 18051686951869152009
15264996 142 17458920291917772522
15400415 2 18048598118828069436
15439362 3 17979077081393584414
15538507 32 18268147741462868765
15968369 26 17545012254664014005
161222 10 18191887633578546396
16993438 75 18335148582829318235
19319366 153 17979348665034264577
20531524 4 18196904825869913001
21772528 278 17769406857711301641
3493558 16 18261395572116359606
354706 132 18335987472169708588
463206 1 18411701002383391165
5171179 24 17762892565524613263
9980921 221 18264228988465280798

>  <PUBCHEM_SHAPE_MULTIPOLES>  (1) 
649.19
13.3
7.76
1.65
26.37
0.79
0.39
1.97
-4.35
-13.6
3.68
-1.27
0.28
0.35

>  <PUBCHEM_SHAPE_SELFOVERLAP>  (1) 
1386.308

>  <PUBCHEM_SHAPE_VOLUME>  (1) 
363.6

>  <PUBCHEM_COORDINATE_TYPE>  (1) 
2
5
10

$$$$
