26852
     RDKit          3D

 14 15  0  0  0  0  0  0  0  0999 V2000
    3.5852   -0.8298   -0.0028 F   0  0  0  0  0  0  0  0  0  0  0  0
    3.1365    0.9959   -1.0843 F   0  0  0  0  0  0  0  0  0  0  0  0
    3.1181    0.9911    1.0902 F   0  0  0  0  0  0  0  0  0  0  0  0
   -2.7329   -0.9591   -0.0001 O   0  0  0  0  0  0  0  0  0  0  0  0
   -4.3784    0.6661   -0.0024 O   0  0  0  0  0  0  0  0  0  0  0  0
   -2.1242    1.2571   -0.0003 N   0  0  0  0  0  0  0  0  0  0  0  0
   -0.9709    0.5180   -0.0001 C   0  0  0  0  0  0  0  0  0  0  0  0
   -1.3550   -0.8056   -0.0001 C   0  0  0  0  0  0  0  0  0  0  0  0
    1.3073   -0.0985    0.0006 C   0  0  0  0  0  0  0  0  0  0  0  0
    0.3466    0.9156    0.0004 C   0  0  0  0  0  0  0  0  0  0  0  0
   -0.4250   -1.8224    0.0002 C   0  0  0  0  0  0  0  0  0  0  0  0
    0.9251   -1.4560    0.0004 C   0  0  0  0  0  0  0  0  0  0  0  0
    2.7575    0.2561   -0.0011 C   0  0  0  0  0  0  0  0  0  0  0  0
   -3.1898    0.3714   -0.0005 C   0  0  0  0  0  0  0  0  0  0  0  0
  1 13  1  0
  2 13  1  0
  3 13  1  0
  4  8  1  0
  4 14  1  0
  5 14  2  0
  6  7  1  0
  6 14  1  0
  7  8  2  0
  7 10  1  0
  8 11  1  0
  9 10  2  0
  9 12  1  0
  9 13  1  0
 11 12  2  0
M  END
>  <PUBCHEM_COMPOUND_CID>  (1) 
26852

>  <PUBCHEM_CONFORMER_RMSD>  (1) 
0.4

>  <PUBCHEM_CONFORMER_DIVERSEORDER>  (1) 
1

>  <PUBCHEM_MMFF94_PARTIAL_CHARGES>  (1) 
18
1 -0.34
10 -0.15
11 -0.15
12 -0.15
13 1.16
14 0.78
15 0.15
16 0.15
17 0.15
18 0.37
2 -0.34
3 -0.34
4 -0.23
5 -0.57
6 -0.55
7 0.12
8 0.08
9 -0.14

>  <PUBCHEM_EFFECTIVE_ROTOR_COUNT>  (1) 
1

>  <PUBCHEM_PHARMACOPHORE_FEATURES>  (1) 
4
1 5 acceptor
1 6 donor
5 4 6 7 8 14 rings
6 7 8 9 10 11 12 rings

>  <PUBCHEM_HEAVY_ATOM_COUNT>  (1) 
14

>  <PUBCHEM_ATOM_DEF_STEREO_COUNT>  (1) 
0

>  <PUBCHEM_ATOM_UDEF_STEREO_COUNT>  (1) 
0

>  <PUBCHEM_BOND_DEF_STEREO_COUNT>  (1) 
0

>  <PUBCHEM_BOND_UDEF_STEREO_COUNT>  (1) 
0

>  <PUBCHEM_ISOTOPIC_ATOM_COUNT>  (1) 
0

>  <PUBCHEM_COMPONENT_COUNT>  (1) 
1

>  <PUBCHEM_CACTVS_TAUTO_COUNT>  (1) 
2

>  <PUBCHEM_CONFORMER_ID>  (1) 
000068E400000001

>  <PUBCHEM_MMFF94_ENERGY>  (1) 
32.5577

>  <PUBCHEM_FEATURE_SELFOVERLAP>  (1) 
20.413

>  <PUBCHEM_SHAPE_FINGERPRINT>  (1) 
10219947 1 18113903744986759557
10608611 8 18413102849010797928
11132069 177 18410005550630365937
12932764 1 17917151709932428934
13380535 76 18410293588560165619
14325111 11 18410855473028887936
14897335 6 18411975841397895375
14993402 34 18259990391697116364
15775835 57 18410577292281550314
16945 1 18338516459891191107
17846911 113 18413099567750528105
18186145 218 17918000485448121640
193761 8 17617940674394342085
20645476 183 17896336868244878638
20645477 70 18196085552532230967
20871998 184 18056765544628114159
21028194 46 18412545392520689882
21524375 3 18411417276342469051
23235685 24 18409725158148859637
23402539 116 18201427073754502956
23402655 69 18269541764337071229
23463225 33 18334010549777189210
23559900 14 18272373101251881332
2748010 2 18265054626501538567
449060 62 18410297977884418611
4990 188 17703795794951686573
528886 8 18410851058061094083
53812653 166 18343295981123592937
69090 78 17988635311487264719
7364860 26 18126565622129663750

>  <PUBCHEM_SHAPE_MULTIPOLES>  (1) 
249.57
6.08
1.5
0.7
0.84
0.46
0
-1.66
-0.01
-0.02
0
-0.38
-0.12
0

>  <PUBCHEM_SHAPE_SELFOVERLAP>  (1) 
552.943

>  <PUBCHEM_SHAPE_VOLUME>  (1) 
136.1

>  <PUBCHEM_COORDINATE_TYPE>  (1) 
2
5
10

$$$$
