26851
     RDKit          3D

 17 17  0  0  0  0  0  0  0  0999 V2000
   -0.5421   -0.7026   -0.9896 O   0  0  0  0  0  0  0  0  0  0  0  0
    5.1408    1.5266    0.7436 O   0  0  0  0  0  0  0  0  0  0  0  0
   -3.8876    0.1360    0.3104 N   0  0  0  0  0  0  0  0  0  0  0  0
   -2.8310   -0.6734   -0.2956 C   0  0  0  0  0  0  0  0  0  0  0  0
   -5.1117   -0.6502    0.4595 C   0  0  0  0  0  0  0  0  0  0  0  0
   -4.1420    1.3302   -0.4944 C   0  0  0  0  0  0  0  0  0  0  0  0
   -1.5431    0.1260   -0.4130 C   0  0  0  0  0  0  0  0  0  0  0  0
   -4.8743   -1.8942    1.2904 C   0  0  0  0  0  0  0  0  0  0  0  0
   -5.1908    2.2169    0.1445 C   0  0  0  0  0  0  0  0  0  0  0  0
    0.7560   -0.4395   -0.6377 C   0  0  0  0  0  0  0  0  0  0  0  0
    1.6837   -1.4742   -0.6071 C   0  0  0  0  0  0  0  0  0  0  0  0
    1.1314    0.8597   -0.3155 C   0  0  0  0  0  0  0  0  0  0  0  0
    3.3897    0.0946    0.0752 C   0  0  0  0  0  0  0  0  0  0  0  0
    3.0050   -1.2062   -0.2493 C   0  0  0  0  0  0  0  0  0  0  0  0
    2.4528    1.1275    0.0421 C   0  0  0  0  0  0  0  0  0  0  0  0
    4.7672    0.3738    0.4488 C   0  0  0  0  0  0  0  0  0  0  0  0
    5.7960   -0.7510    0.4878 C   0  0  0  0  0  0  0  0  0  0  0  0
  1  7  1  0
  1 10  1  0
  2 16  2  0
  3  4  1  0
  3  5  1  0
  3  6  1  0
  4  7  1  0
  5  8  1  0
  6  9  1  0
 10 11  2  0
 10 12  1  0
 11 14  1  0
 12 15  2  0
 13 14  2  0
 13 15  1  0
 13 16  1  0
 16 17  1  0
M  END
>  <PUBCHEM_COMPOUND_CID>  (1) 
26851

>  <PUBCHEM_CONFORMER_RMSD>  (1) 
0.8

>  <PUBCHEM_CONFORMER_DIVERSEORDER>  (1) 
1
45
66
30
47
28
7
19
13
23
25
63
16
51
27
57
9
17
64
18
52
69
14
10
20
15
50
59
5
29
2
65
31
44
49
62
46
38
24
61
22
35
54
34
67
53
39
60
4
55
3
6
56
37
8
48
33
40
21
58
43
36
11
41
26
12
42
68
32

>  <PUBCHEM_MMFF94_PARTIAL_CHARGES>  (1) 
19
1 -0.36
10 0.08
11 -0.15
12 -0.15
13 0.09
14 -0.15
15 -0.15
16 0.42
17 0.06
2 -0.57
3 -0.81
32 0.15
33 0.15
34 0.15
35 0.15
4 0.27
5 0.27
6 0.27
7 0.28

>  <PUBCHEM_EFFECTIVE_ROTOR_COUNT>  (1) 
7

>  <PUBCHEM_PHARMACOPHORE_FEATURES>  (1) 
4
1 1 acceptor
1 2 acceptor
1 3 cation
6 10 11 12 13 14 15 rings

>  <PUBCHEM_HEAVY_ATOM_COUNT>  (1) 
17

>  <PUBCHEM_ATOM_DEF_STEREO_COUNT>  (1) 
0

>  <PUBCHEM_ATOM_UDEF_STEREO_COUNT>  (1) 
0

>  <PUBCHEM_BOND_DEF_STEREO_COUNT>  (1) 
0

>  <PUBCHEM_BOND_UDEF_STEREO_COUNT>  (1) 
0

>  <PUBCHEM_ISOTOPIC_ATOM_COUNT>  (1) 
0

>  <PUBCHEM_COMPONENT_COUNT>  (1) 
1

>  <PUBCHEM_CACTVS_TAUTO_COUNT>  (1) 
2

>  <PUBCHEM_CONFORMER_ID>  (1) 
000068E300000001

>  <PUBCHEM_MMFF94_ENERGY>  (1) 
44.5581

>  <PUBCHEM_FEATURE_SELFOVERLAP>  (1) 
20.297

>  <PUBCHEM_SHAPE_FINGERPRINT>  (1) 
10 15 18338790225960911592
10354089 29 18202286926486866618
10912923 1 17095532811212819949
11089746 13 16988549200523029840
12507557 5 18272934925417670465
12507560 40 18341616997156752671
12596602 18 18260827115956816680
13668630 136 13912326798218985859
13675066 3 18413109459155091367
14341114 176 18409735079317650170
14350574 20 8646477544652695861
15188451 53 17604151544995393731
17844677 252 18409174328419444585
18222031 100 15430032180161457534
18785283 64 18044096980422324228
19433438 28 18409448107078297233
19489759 90 18113616785959109161
19784866 9 18343861109089669794
20281389 69 17989201568728988792
20645477 70 17845654725075156367
20871999 31 11167939143897552869
21033648 29 18059562594855748921
21065199 12 18410016520404309119
21637258 2 15502640608392689890
220451 1 17385726859402802690
23402539 116 17894625955105563685
23402655 69 17774997964500726253
23559900 14 18266463113592048711
26918003 58 18335139800006286683
29717793 49 13262387860868436578
3545911 37 18131634490944809567
42 15 18259705596858346239
4214541 1 18334859407461639309
465052 167 18259984873508425922
49783359 22 17603301570271059507
5104073 3 18337957788068153659
5924683 9 18336267933760801699
90127 26 18201165356060019999

>  <PUBCHEM_SHAPE_MULTIPOLES>  (1) 
333.13
14.35
1.82
0.91
1.89
0.25
-0.05
1.45
-4.66
1.86
-0.28
0.23
-0.2
1.17

>  <PUBCHEM_SHAPE_SELFOVERLAP>  (1) 
668.072

>  <PUBCHEM_SHAPE_VOLUME>  (1) 
199.1

>  <PUBCHEM_COORDINATE_TYPE>  (1) 
2
5
10

$$$$
