26853
     RDKit          3D

 11 12  0  0  0  0  0  0  0  0999 V2000
    3.9423    0.8318    0.0006 Br  0  0  0  0  0  0  0  0  0  0  0  0
   -1.7819   -1.0390    0.0001 O   0  0  0  0  0  0  0  0  0  0  0  0
   -3.5762    0.4205    0.0004 O   0  0  0  0  0  0  0  0  0  0  0  0
   -1.3892    1.2255    0.0000 N   0  0  0  0  0  0  0  0  0  0  0  0
   -0.1703    0.6010   -0.0003 C   0  0  0  0  0  0  0  0  0  0  0  0
   -0.4252   -0.7535   -0.0002 C   0  0  0  0  0  0  0  0  0  0  0  0
    1.1030    1.1235   -0.0004 C   0  0  0  0  0  0  0  0  0  0  0  0
    0.5984   -1.6761   -0.0001 C   0  0  0  0  0  0  0  0  0  0  0  0
    2.1568    0.2064   -0.0002 C   0  0  0  0  0  0  0  0  0  0  0  0
   -2.3646    0.2414    0.0001 C   0  0  0  0  0  0  0  0  0  0  0  0
    1.9069   -1.1816    0.0001 C   0  0  0  0  0  0  0  0  0  0  0  0
  1  9  1  0
  2  6  1  0
  2 10  1  0
  3 10  2  0
  4  5  1  0
  4 10  1  0
  5  6  2  0
  5  7  1  0
  6  8  1  0
  7  9  2  0
  8 11  2  0
  9 11  1  0
M  END
>  <PUBCHEM_COMPOUND_CID>  (1) 
26853

>  <PUBCHEM_CONFORMER_RMSD>  (1) 
0.4

>  <PUBCHEM_CONFORMER_DIVERSEORDER>  (1) 
1

>  <PUBCHEM_MMFF94_PARTIAL_CHARGES>  (1) 
15
1 -0.11
10 0.78
11 -0.15
12 0.37
13 0.15
14 0.15
15 0.15
2 -0.23
3 -0.57
4 -0.55
5 0.12
6 0.08
7 -0.15
8 -0.15
9 0.11

>  <PUBCHEM_EFFECTIVE_ROTOR_COUNT>  (1) 
0

>  <PUBCHEM_PHARMACOPHORE_FEATURES>  (1) 
5
1 1 hydrophobe
1 3 acceptor
1 4 donor
5 2 4 5 6 10 rings
6 5 6 7 8 9 11 rings

>  <PUBCHEM_HEAVY_ATOM_COUNT>  (1) 
11

>  <PUBCHEM_ATOM_DEF_STEREO_COUNT>  (1) 
0

>  <PUBCHEM_ATOM_UDEF_STEREO_COUNT>  (1) 
0

>  <PUBCHEM_BOND_DEF_STEREO_COUNT>  (1) 
0

>  <PUBCHEM_BOND_UDEF_STEREO_COUNT>  (1) 
0

>  <PUBCHEM_ISOTOPIC_ATOM_COUNT>  (1) 
0

>  <PUBCHEM_COMPONENT_COUNT>  (1) 
1

>  <PUBCHEM_CACTVS_TAUTO_COUNT>  (1) 
2

>  <PUBCHEM_CONFORMER_ID>  (1) 
000068E500000001

>  <PUBCHEM_MMFF94_ENERGY>  (1) 
30.4653

>  <PUBCHEM_FEATURE_SELFOVERLAP>  (1) 
25.487

>  <PUBCHEM_SHAPE_FINGERPRINT>  (1) 
10219947 1 18260267443042186588
13380535 76 18409729577670571026
14325111 11 18410573998352961568
15775835 57 18413390947016671172
16945 1 18410575084694740420
193761 8 17834395618753567364
20645476 183 17678474154324012238
20645477 70 18267860593382564159
20871998 184 18056204815193792918
21040471 1 18338516455817724418
23235685 24 18409724080096380480
23402539 116 18272642481094323484
23402655 69 18341599379628276581
23463225 33 18334008368329253418
23552423 10 18191589653095367630
23559900 14 18272375326219351852
2748010 2 18193275183009014148
369184 2 16298098804723283976
528886 8 18411132558680936514
53812653 166 18343297102458314232
7364860 26 18270399370089479862

>  <PUBCHEM_SHAPE_MULTIPOLES>  (1) 
215.6
5.16
1.5
0.61
0.9
0.4
0
-1.66
0
0.26
0
0.11
0
0

>  <PUBCHEM_SHAPE_SELFOVERLAP>  (1) 
460.258

>  <PUBCHEM_SHAPE_VOLUME>  (1) 
123.6

>  <PUBCHEM_COORDINATE_TYPE>  (1) 
2
5
10

$$$$
