26864
     RDKit          3D

 16 17  0  0  0  0  0  0  0  0999 V2000
    5.3721    0.9706   -0.0012 Cl  0  0  0  0  0  0  0  0  0  0  0  0
   -0.5776    1.5272   -0.0055 O   0  0  0  0  0  0  0  0  0  0  0  0
   -4.7118   -0.5795   -0.0001 O   0  0  0  0  0  0  0  0  0  0  0  0
   -2.8378    0.8519   -0.0005 N   0  0  0  0  0  0  0  0  0  0  0  0
   -2.5031   -1.3640    0.0011 N   0  0  0  0  0  0  0  0  0  0  0  0
   -1.2673   -0.7849    0.0008 C   0  0  0  0  0  0  0  0  0  0  0  0
   -1.4621    0.6898   -0.0031 C   0  0  0  0  0  0  0  0  0  0  0  0
   -3.5048   -0.3789   -0.0019 C   0  0  0  0  0  0  0  0  0  0  0  0
   -0.0950   -1.4160    0.0027 C   0  0  0  0  0  0  0  0  0  0  0  0
    1.2301   -0.8370    0.0014 C   0  0  0  0  0  0  0  0  0  0  0  0
   -3.5021    2.1396    0.0035 C   0  0  0  0  0  0  0  0  0  0  0  0
    1.8774   -0.5570   -1.2069 C   0  0  0  0  0  0  0  0  0  0  0  0
    1.8768   -0.5520    1.2090 C   0  0  0  0  0  0  0  0  0  0  0  0
    3.1557    0.0011   -1.2076 C   0  0  0  0  0  0  0  0  0  0  0  0
    3.1550    0.0062    1.2084 C   0  0  0  0  0  0  0  0  0  0  0  0
    3.7946    0.2829   -0.0001 C   0  0  0  0  0  0  0  0  0  0  0  0
  1 16  1  0
  2  7  2  0
  3  8  2  0
  4  7  1  0
  4  8  1  0
  4 11  1  0
  5  6  1  0
  5  8  1  0
  6  7  1  0
  6  9  2  0
  9 10  1  0
 10 12  2  0
 10 13  1  0
 12 14  1  0
 13 15  2  0
 14 16  2  0
 15 16  1  0
M  END
>  <PUBCHEM_COMPOUND_CID>  (1) 
26864

>  <PUBCHEM_CONFORMER_RMSD>  (1) 
0.6

>  <PUBCHEM_CONFORMER_DIVERSEORDER>  (1) 
1

>  <PUBCHEM_MMFF94_PARTIAL_CHARGES>  (1) 
22
1 -0.18
10 0.03
11 0.3
12 -0.15
13 -0.15
14 -0.15
15 -0.15
16 0.18
17 0.37
18 0.15
2 -0.57
22 0.15
23 0.15
24 0.15
25 0.15
3 -0.57
4 -0.42
5 -0.54
6 0.12
7 0.62
8 0.69
9 -0.18

>  <PUBCHEM_EFFECTIVE_ROTOR_COUNT>  (1) 
1.4

>  <PUBCHEM_PHARMACOPHORE_FEATURES>  (1) 
5
1 2 acceptor
1 3 acceptor
1 5 donor
5 4 5 6 7 8 rings
6 10 12 13 14 15 16 rings

>  <PUBCHEM_HEAVY_ATOM_COUNT>  (1) 
16

>  <PUBCHEM_ATOM_DEF_STEREO_COUNT>  (1) 
0

>  <PUBCHEM_ATOM_UDEF_STEREO_COUNT>  (1) 
0

>  <PUBCHEM_BOND_DEF_STEREO_COUNT>  (1) 
0

>  <PUBCHEM_BOND_UDEF_STEREO_COUNT>  (1) 
1

>  <PUBCHEM_ISOTOPIC_ATOM_COUNT>  (1) 
0

>  <PUBCHEM_COMPONENT_COUNT>  (1) 
1

>  <PUBCHEM_CACTVS_TAUTO_COUNT>  (1) 
2

>  <PUBCHEM_CONFORMER_ID>  (1) 
000068F000000001

>  <PUBCHEM_MMFF94_ENERGY>  (1) 
39.0331

>  <PUBCHEM_FEATURE_SELFOVERLAP>  (1) 
25.371

>  <PUBCHEM_SHAPE_FINGERPRINT>  (1) 
10498660 4 18340488859160862157
11132069 177 18408606933222156485
11543360 7 15913026708820425877
12236239 1 17748823033876920810
12251169 10 15791449348792790442
12403814 3 17385722470315621357
124424 183 12324237282550870430
13764800 53 18339089194022641249
14739800 52 18192979634348329632
15196674 1 18410573942222929156
15219456 202 17989208109964180502
15775835 57 18187365407057761904
16945 1 18410856573126318499
18186145 218 15554437501037997482
200 152 15574709222794628419
20510252 161 18271811181489309097
20645477 56 18202566206455857063
23048698 100 17022902354458206114
23402539 116 18340481270317406998
23402655 69 16630529501088062792
23557571 272 18202006537899407620
23559900 14 18200033928852300158
25 1 16702587121138686534
26918003 58 13767924628406487028
2838139 119 18128807737689109784
3268164 11 18343008996194348213
474 4 17169279328653412012
5104073 3 18336267834042481778
7364860 26 18124594185075539982
76465 3 10954041298222697137
77492 1 17676205779714534146

>  <PUBCHEM_SHAPE_MULTIPOLES>  (1) 
309.44
9.17
1.54
0.99
1.65
0.52
0
2.79
0
-1.28
0
0.97
-0.1
0

>  <PUBCHEM_SHAPE_SELFOVERLAP>  (1) 
657.818

>  <PUBCHEM_SHAPE_VOLUME>  (1) 
175.3

>  <PUBCHEM_COORDINATE_TYPE>  (1) 
2
5
10

$$$$
