26860
     RDKit          3D

 13 14  0  0  0  0  0  0  0  0999 V2000
    0.0759    1.8845   -0.0773 O   0  0  0  0  0  0  0  0  0  0  0  0
   -1.1413   -2.0070   -0.2389 O   0  0  0  0  0  0  0  0  0  0  0  0
   -1.7416    0.2898   -0.2617 C   0  0  0  0  0  0  0  0  0  0  0  0
    0.6439   -0.4766   -0.0576 C   0  0  0  0  0  0  0  0  0  0  0  0
   -3.1960   -0.0208   -0.3949 C   0  0  0  0  0  0  0  0  0  0  0  0
   -0.7794   -0.8388   -0.1908 C   0  0  0  0  0  0  0  0  0  0  0  0
    0.9991    0.8717   -0.0075 C   0  0  0  0  0  0  0  0  0  0  0  0
   -1.2457    1.5322   -0.2004 C   0  0  0  0  0  0  0  0  0  0  0  0
    1.6271   -1.4665    0.0176 C   0  0  0  0  0  0  0  0  0  0  0  0
   -3.8722   -0.1582    0.9577 C   0  0  0  0  0  0  0  0  0  0  0  0
    2.3397    1.2372    0.1179 C   0  0  0  0  0  0  0  0  0  0  0  0
    2.9673   -1.0980    0.1430 C   0  0  0  0  0  0  0  0  0  0  0  0
    3.3230    0.2506    0.1930 C   0  0  0  0  0  0  0  0  0  0  0  0
  1  7  1  0
  1  8  1  0
  2  6  2  0
  3  5  1  0
  3  6  1  0
  3  8  2  0
  4  6  1  0
  4  7  2  0
  4  9  1  0
  5 10  1  0
  7 11  1  0
  9 12  2  0
 11 13  2  0
 12 13  1  0
M  END
>  <PUBCHEM_COMPOUND_CID>  (1) 
26860

>  <PUBCHEM_CONFORMER_RMSD>  (1) 
0.4

>  <PUBCHEM_CONFORMER_DIVERSEORDER>  (1) 
1
2
4
3

>  <PUBCHEM_MMFF94_PARTIAL_CHARGES>  (1) 
17
1 -0.16
11 -0.15
12 -0.15
13 -0.15
16 0.15
17 0.15
2 -0.57
21 0.15
22 0.15
23 0.15
3 -0.12
4 0.09
5 0.14
6 0.47
7 0.08
8 -0.07
9 -0.15

>  <PUBCHEM_EFFECTIVE_ROTOR_COUNT>  (1) 
1

>  <PUBCHEM_PHARMACOPHORE_FEATURES>  (1) 
5
1 1 acceptor
1 10 hydrophobe
1 2 acceptor
6 1 3 4 6 7 8 rings
6 4 7 9 11 12 13 rings

>  <PUBCHEM_HEAVY_ATOM_COUNT>  (1) 
13

>  <PUBCHEM_ATOM_DEF_STEREO_COUNT>  (1) 
0

>  <PUBCHEM_ATOM_UDEF_STEREO_COUNT>  (1) 
0

>  <PUBCHEM_BOND_DEF_STEREO_COUNT>  (1) 
0

>  <PUBCHEM_BOND_UDEF_STEREO_COUNT>  (1) 
0

>  <PUBCHEM_ISOTOPIC_ATOM_COUNT>  (1) 
0

>  <PUBCHEM_COMPONENT_COUNT>  (1) 
1

>  <PUBCHEM_CACTVS_TAUTO_COUNT>  (1) 
1

>  <PUBCHEM_CONFORMER_ID>  (1) 
000068EC00000001

>  <PUBCHEM_MMFF94_ENERGY>  (1) 
28.586

>  <PUBCHEM_FEATURE_SELFOVERLAP>  (1) 
25.4

>  <PUBCHEM_SHAPE_FINGERPRINT>  (1) 
10219947 1 18412546500748826815
10967382 1 18410853278516949022
10980938 120 18410292531681361930
11132069 177 18341883108644944754
11471102 20 18410568483477797157
11471102 22 18335998505523271707
12032990 46 18336551533807021575
12251169 10 18342176686818331657
12382932 28 18340483473292465538
12524768 44 18413388726455457758
13140716 1 18194679495675883048
13221675 6 18410855464560402614
13380535 21 18338243789660786326
13380535 76 18412258462904287118
14144814 61 18412261722636291057
14325111 11 18410571756163904709
15309172 13 18342178851856674427
15775835 57 18343304811708228496
16945 1 18411129251608969980
17844478 74 18040718052203395245
193761 8 17761772170989669301
20201158 50 18408038502769126562
20510252 161 18201435827035502600
20588541 1 18411983576359558950
20645477 70 18339069390102844111
21501502 16 18194962065658309286
2334 1 17834109023917422588
23402539 116 18271511035835958655
23463225 33 18409166606078490652
23552423 10 18189612911877673508
2748010 2 18194675960817584540
528886 8 18340197583363707058
53812653 166 18199743803452635768
63268167 104 18412823603375061721
7364860 26 18343300397025394484
8809292 202 18260270767352460554

>  <PUBCHEM_SHAPE_MULTIPOLES>  (1) 
255.8
5.49
1.77
0.71
1.79
0.01
-0.07
-0.46
-1
-0.36
0.09
0.32
-0.02
0.07

>  <PUBCHEM_SHAPE_SELFOVERLAP>  (1) 
552.666

>  <PUBCHEM_SHAPE_VOLUME>  (1) 
140.2

>  <PUBCHEM_COORDINATE_TYPE>  (1) 
2
5
10

$$$$
