26865
     RDKit          3D

  8  8  0  0  0  0  0  0  0  0999 V2000
   -1.9295   -0.7400    0.1178 O   0  0  0  0  0  0  0  0  0  0  0  0
   -0.9866    1.3351   -0.2323 O   0  0  0  0  0  0  0  0  0  0  0  0
    1.5076    0.2453   -0.3362 N   0  0  0  0  0  0  0  0  0  0  0  0
    2.7704   -0.4797   -0.3596 C   0  0  0  0  0  0  0  0  0  0  0  0
    2.3619    0.3231    0.8408 C   0  0  0  0  0  0  0  0  0  0  0  0
    0.3952   -0.6656   -0.1043 C   0  0  0  0  0  0  0  0  0  0  0  0
   -0.8898    0.1240   -0.0875 C   0  0  0  0  0  0  0  0  0  0  0  0
   -3.2292   -0.1421    0.1614 C   0  0  0  0  0  0  0  0  0  0  0  0
  1  7  1  0
  1  8  1  0
  2  7  2  0
  3  4  1  0
  3  5  1  0
  3  6  1  0
  4  5  1  0
  6  7  1  0
M  END
>  <PUBCHEM_COMPOUND_CID>  (1) 
26865

>  <PUBCHEM_CONFORMER_RMSD>  (1) 
0.6

>  <PUBCHEM_CONFORMER_DIVERSEORDER>  (1) 
1
5
6
4
2
3

>  <PUBCHEM_MMFF94_PARTIAL_CHARGES>  (1) 
12
1 -0.43
10 0.1
11 0.1
12 0.1
2 -0.57
3 -0.59
4 -0.04
5 -0.04
6 0.33
7 0.66
8 0.28
9 0.1

>  <PUBCHEM_EFFECTIVE_ROTOR_COUNT>  (1) 
3.6

>  <PUBCHEM_PHARMACOPHORE_FEATURES>  (1) 
2
1 2 acceptor
1 3 cation

>  <PUBCHEM_HEAVY_ATOM_COUNT>  (1) 
8

>  <PUBCHEM_ATOM_DEF_STEREO_COUNT>  (1) 
0

>  <PUBCHEM_ATOM_UDEF_STEREO_COUNT>  (1) 
0

>  <PUBCHEM_BOND_DEF_STEREO_COUNT>  (1) 
0

>  <PUBCHEM_BOND_UDEF_STEREO_COUNT>  (1) 
0

>  <PUBCHEM_ISOTOPIC_ATOM_COUNT>  (1) 
0

>  <PUBCHEM_COMPONENT_COUNT>  (1) 
1

>  <PUBCHEM_CACTVS_TAUTO_COUNT>  (1) 
1

>  <PUBCHEM_CONFORMER_ID>  (1) 
000068F100000001

>  <PUBCHEM_MMFF94_ENERGY>  (1) 
16.1166

>  <PUBCHEM_FEATURE_SELFOVERLAP>  (1) 
10.148

>  <PUBCHEM_SHAPE_FINGERPRINT>  (1) 
10857977 72 18338510941011014897
11062470 55 16153426155714978175
12932764 1 18060131029366186798
14325111 11 18130787875549668967
14390081 3 17775283854867185033
21040471 1 17975128738895254788
21293036 1 9727630596799279947
23552423 10 17896604990025782378
29004967 10 16917353632043454730
5084963 1 18412831261333281922
5460574 1 9727636102741618438

>  <PUBCHEM_SHAPE_MULTIPOLES>  (1) 
147.92
4.71
0.93
0.72
1.16
0.13
-0.07
-0.4
-0.41
0.1
0.05
-0.25
0.04
0.24

>  <PUBCHEM_SHAPE_SELFOVERLAP>  (1) 
280.415

>  <PUBCHEM_SHAPE_VOLUME>  (1) 
93.5

>  <PUBCHEM_COORDINATE_TYPE>  (1) 
2
5
10

$$$$
