26875
     RDKit          3D

 11 12  0  0  1  0  0  0  0  0999 V2000
    1.9091   -0.9734    0.4431 O   0  0  0  0  0  0  0  0  0  0  0  0
    2.1086    0.2189   -0.3803 N   0  0  0  0  0  0  0  0  0  0  0  0
   -0.2714    0.6359    0.0462 C   0  0  0  0  0  0  0  0  0  0  0  0
    1.1333    1.1892    0.1391 C   0  0  0  0  0  0  0  0  0  0  0  0
   -0.4561   -0.7592   -0.0179 C   0  0  0  0  0  0  0  0  0  0  0  0
    0.7540   -1.6584   -0.0583 C   0  0  0  0  0  0  0  0  0  0  0  0
   -1.3837    1.4827    0.0774 C   0  0  0  0  0  0  0  0  0  0  0  0
   -1.7487   -1.2869   -0.0900 C   0  0  0  0  0  0  0  0  0  0  0  0
    3.4774    0.6379   -0.1044 C   0  0  0  0  0  0  0  0  0  0  0  0
   -2.6703    0.9470    0.0158 C   0  0  0  0  0  0  0  0  0  0  0  0
   -2.8522   -0.4337   -0.0707 C   0  0  0  0  0  0  0  0  0  0  0  0
  1  2  1  0
  1  6  1  0
  2  4  1  0
  2  9  1  0
  3  4  1  0
  3  5  2  0
  3  7  1  0
  5  6  1  0
  5  8  1  0
  7 10  2  0
  8 11  2  0
 10 11  1  0
M  END
>  <PUBCHEM_COMPOUND_CID>  (1) 
26875

>  <PUBCHEM_CONFORMER_RMSD>  (1) 
0.4

>  <PUBCHEM_CONFORMER_DIVERSEORDER>  (1) 
1
3
2

>  <PUBCHEM_MMFF94_PARTIAL_CHARGES>  (1) 
15
1 -0.18
10 -0.15
11 -0.15
16 0.15
17 0.15
2 -0.64
21 0.15
22 0.15
3 -0.14
4 0.41
5 -0.14
6 0.42
7 -0.15
8 -0.15
9 0.27

>  <PUBCHEM_EFFECTIVE_ROTOR_COUNT>  (1) 
0.8

>  <PUBCHEM_PHARMACOPHORE_FEATURES>  (1) 
2
6 1 2 3 4 5 6 rings
6 3 5 7 8 10 11 rings

>  <PUBCHEM_HEAVY_ATOM_COUNT>  (1) 
11

>  <PUBCHEM_ATOM_DEF_STEREO_COUNT>  (1) 
0

>  <PUBCHEM_ATOM_UDEF_STEREO_COUNT>  (1) 
0

>  <PUBCHEM_BOND_DEF_STEREO_COUNT>  (1) 
0

>  <PUBCHEM_BOND_UDEF_STEREO_COUNT>  (1) 
0

>  <PUBCHEM_ISOTOPIC_ATOM_COUNT>  (1) 
0

>  <PUBCHEM_COMPONENT_COUNT>  (1) 
1

>  <PUBCHEM_CACTVS_TAUTO_COUNT>  (1) 
1

>  <PUBCHEM_CONFORMER_ID>  (1) 
000068FB00000001

>  <PUBCHEM_MMFF94_ENERGY>  (1) 
27.39

>  <PUBCHEM_FEATURE_SELFOVERLAP>  (1) 
10.174

>  <PUBCHEM_SHAPE_FINGERPRINT>  (1) 
11206711 2 18410570721161104861
12524768 44 18267591208406254767
12897270 3 18411136956648345765
12932764 1 17418364796731513483
13024252 1 11819266776475197029
13380535 76 18409728452157050363
14325111 11 18410575076205240508
15775835 57 18410579465577421001
16945 1 18411696603919557499
193761 8 17834395614173724500
20201158 50 18412261739895365903
20871998 184 18129949012781819591
21040471 1 18411980217589534483
21501502 16 18339077082130535115
23235685 24 18409443695788187940
23402655 69 18268976619523596885
23463225 33 18334572400445725690
23552423 10 18262800644712812299
23559900 14 18272657844804186524
241688 4 16323443290752024043
2748010 2 18194685860785585109
369184 2 16081084883339912129
5084963 1 18130229366571222409
528886 8 18410851083630346843
53812653 166 18343578560060041880
63268167 104 18338517443507208953
6333449 129 18342173396931515485
7364860 26 18198341758671235646

>  <PUBCHEM_SHAPE_MULTIPOLES>  (1) 
215.52
4.45
1.67
0.63
1.64
0.19
0
-0.71
0.18
-0.22
-0.04
0.02
0
-0.11

>  <PUBCHEM_SHAPE_SELFOVERLAP>  (1) 
453.37

>  <PUBCHEM_SHAPE_VOLUME>  (1) 
121.9

>  <PUBCHEM_COORDINATE_TYPE>  (1) 
2
5
10

$$$$
