26877
     RDKit          3D

 29 32  0  0  1  0  0  0  0  0999 V2000
    2.5045   -0.2712   -2.6787 O   0  0  0  0  0  0  0  0  0  0  0  0
    1.9909    1.5238    1.1929 O   0  0  0  0  0  0  0  0  0  0  0  0
    0.6887   -3.3776    0.7561 O   0  0  0  0  0  0  0  0  0  0  0  0
   -1.7258    1.2428   -0.4453 O   0  0  0  0  0  0  0  0  0  0  0  0
    2.1206    3.6233    2.1286 O   0  0  0  0  0  0  0  0  0  0  0  0
    4.9880   -0.3817   -1.1177 N   0  0  0  0  0  0  0  0  0  0  0  0
    2.1475   -1.2026   -0.5081 N   0  0  0  0  0  0  0  0  0  0  0  0
   -3.2547   -0.6276    0.7851 N   0  0  0  0  0  0  0  0  0  0  0  0
    2.7697    1.7566    3.3039 N   0  0  0  0  0  0  0  0  0  0  0  0
    3.8136    0.4294   -0.7945 C   0  0  0  0  0  0  0  0  0  0  0  0
    2.4558    0.0245   -1.2833 C   0  0  0  0  0  0  0  0  0  0  0  0
    4.3120   -0.6214    0.1447 C   0  0  0  0  0  0  0  0  0  0  0  0
    3.2781   -1.7014    0.2688 C   0  0  0  0  0  0  0  0  0  0  0  0
    1.2210    0.9445   -0.9932 C   0  0  0  0  0  0  0  0  0  0  0  0
    0.8237   -1.2056   -0.1347 C   0  0  0  0  0  0  0  0  0  0  0  0
    0.2304   -0.0473   -0.4157 C   0  0  0  0  0  0  0  0  0  0  0  0
    1.4757    2.0788   -0.0028 C   0  0  0  0  0  0  0  0  0  0  0  0
    0.1232   -2.3182    0.5092 C   0  0  0  0  0  0  0  0  0  0  0  0
   -1.1877    0.1835   -0.1387 C   0  0  0  0  0  0  0  0  0  0  0  0
    3.0719    0.8017   -3.4138 C   0  0  0  0  0  0  0  0  0  0  0  0
   -1.3242   -2.0901    0.8365 C   0  0  0  0  0  0  0  0  0  0  0  0
   -1.9436   -0.9278    0.5343 C   0  0  0  0  0  0  0  0  0  0  0  0
   -1.9900   -3.2605    1.5106 C   0  0  0  0  0  0  0  0  0  0  0  0
    2.2789    2.4091    2.2001 C   0  0  0  0  0  0  0  0  0  0  0  0
   -4.3528   -1.4009    0.2719 C   0  0  0  0  0  0  0  0  0  0  0  0
   -5.6295   -0.5654    0.2284 C   0  0  0  0  0  0  0  0  0  0  0  0
   -5.4800    0.6983   -0.6244 C   0  0  0  0  0  0  0  0  0  0  0  0
   -6.7796    1.5032   -0.6542 C   0  0  0  0  0  0  0  0  0  0  0  0
   -6.6261    2.7796   -1.4658 C   0  0  0  0  0  0  0  0  0  0  0  0
  1 11  1  0
  1 20  1  0
  2 17  1  0
  2 24  1  0
  3 18  2  0
  4 19  2  0
  5 24  2  0
  6 10  1  0
  6 12  1  0
  7 11  1  0
  7 13  1  0
  7 15  1  0
  8 22  1  0
  8 25  1  0
  9 24  1  0
 10 11  1  0
 10 12  1  0
 11 14  1  0
 12 13  1  0
 14 16  1  0
 14 17  1  0
 15 16  2  0
 15 18  1  0
 16 19  1  0
 18 21  1  0
 19 22  1  0
 21 22  2  0
 21 23  1  0
 25 26  1  0
 26 27  1  0
 27 28  1  0
 28 29  1  0
M  END
>  <PUBCHEM_COMPOUND_CID>  (1) 
26877

>  <PUBCHEM_CONFORMER_RMSD>  (1) 
1

>  <PUBCHEM_CONFORMER_DIVERSEORDER>  (1) 
1
33
42
24
45
23
32
35
18
39
41
44
22
26
40
36
31
14
34
28
38
27
6
43
29
16
15
25
4
17
19
8
2
30
13
11
21
20
9
3
5
7
10
37
12

>  <PUBCHEM_MMFF94_PARTIAL_CHARGES>  (1) 
31
1 -0.56
10 -0.04
11 0.74
12 -0.04
13 0.46
14 0.14
15 0.11
16 -0.12
17 0.28
18 0.54
19 0.54
2 -0.43
20 0.28
21 -0.12
22 0.11
23 0.14
24 0.78
25 0.37
3 -0.57
30 0.1
31 0.1
32 0.36
4 -0.57
44 0.4
49 0.37
5 -0.57
50 0.37
6 -0.68
7 -0.84
8 -0.87
9 -0.8

>  <PUBCHEM_EFFECTIVE_ROTOR_COUNT>  (1) 
9.6

>  <PUBCHEM_PHARMACOPHORE_FEATURES>  (1) 
14
1 1 acceptor
1 29 hydrophobe
1 3 acceptor
1 4 acceptor
1 5 acceptor
1 6 cation
1 6 donor
1 7 cation
1 8 cation
1 8 donor
1 9 donor
5 7 11 14 15 16 rings
6 15 16 18 19 21 22 rings
6 6 7 10 11 12 13 rings

>  <PUBCHEM_HEAVY_ATOM_COUNT>  (1) 
29

>  <PUBCHEM_ATOM_DEF_STEREO_COUNT>  (1) 
2

>  <PUBCHEM_ATOM_UDEF_STEREO_COUNT>  (1) 
2

>  <PUBCHEM_BOND_DEF_STEREO_COUNT>  (1) 
0

>  <PUBCHEM_BOND_UDEF_STEREO_COUNT>  (1) 
0

>  <PUBCHEM_ISOTOPIC_ATOM_COUNT>  (1) 
0

>  <PUBCHEM_COMPONENT_COUNT>  (1) 
1

>  <PUBCHEM_CACTVS_TAUTO_COUNT>  (1) 
36

>  <PUBCHEM_CONFORMER_ID>  (1) 
000068FD00000001

>  <PUBCHEM_MMFF94_ENERGY>  (1) 
92.9553

>  <PUBCHEM_FEATURE_SELFOVERLAP>  (1) 
71.214

>  <PUBCHEM_SHAPE_FINGERPRINT>  (1) 
11089746 13 18201430355937822021
11578080 2 18196095675126432848
11595378 159 15213291973086353565
1200032 147 16805908245616657268
12403259 415 18410013282188625449
12778500 126 14635422733239180605
13140716 1 18191885619439733835
14347329 18 17967256399329209893
14790565 3 17968108525167099157
1601671 61 17822294565787882229
16945 1 18047222836324416254
17980427 26 18198314395049250446
18608769 82 18041290937476521123
18681886 176 17894918463737369484
20715895 44 17968099677302516503
21033648 29 18334289899204128489
21223535 225 17773600421715854697
21279426 13 18262243197003069527
21421861 104 16226316032615268418
22182313 1 17980492466080298267
22393880 68 18342453764640321823
23559900 14 18264212580772194340
335352 9 18114185189788592183
350125 39 17968097478031113847
495365 180 17988362692685606659
6086070 43 18273209777586115091
81228 2 17341011860985898200

>  <PUBCHEM_SHAPE_MULTIPOLES>  (1) 
547.54
11.83
3.41
2.32
22.66
0.74
0.47
-6.55
-3.77
1.63
1.68
-3.72
-2.18
2.41

>  <PUBCHEM_SHAPE_SELFOVERLAP>  (1) 
1167.9

>  <PUBCHEM_SHAPE_VOLUME>  (1) 
305.6

>  <PUBCHEM_COORDINATE_TYPE>  (1) 
2
5
10

$$$$
