26872
     RDKit          3D

 14 13  0  0  0  0  0  0  0  0999 V2000
    0.9150   -1.4673    1.1656 O   0  0  0  0  0  0  0  0  0  0  0  0
   -0.9160   -1.4564   -1.1781 O   0  0  0  0  0  0  0  0  0  0  0  0
    3.2952   -0.4906    0.9625 O   0  0  0  0  0  0  0  0  0  0  0  0
   -3.2883   -0.4830   -0.9679 O   0  0  0  0  0  0  0  0  0  0  0  0
    3.6840    1.0605   -0.5683 O   0  0  0  0  0  0  0  0  0  0  0  0
   -3.6898    1.0521    0.5756 O   0  0  0  0  0  0  0  0  0  0  0  0
    1.5747    0.1983   -0.3825 N   0  0  0  0  0  0  0  0  0  0  0  0
   -1.5747    0.1957    0.3850 N   0  0  0  0  0  0  0  0  0  0  0  0
    2.9675    0.2596    0.0397 N   0  0  0  0  0  0  0  0  0  0  0  0
   -2.9675    0.2619   -0.0369 N   0  0  0  0  0  0  0  0  0  0  0  0
    0.7021   -0.6772    0.2542 C   0  0  0  0  0  0  0  0  0  0  0  0
   -0.7026   -0.6745   -0.2596 C   0  0  0  0  0  0  0  0  0  0  0  0
    1.2404    1.1167   -1.4711 C   0  0  0  0  0  0  0  0  0  0  0  0
   -1.2398    1.1041    1.4818 C   0  0  0  0  0  0  0  0  0  0  0  0
  1 11  2  0
  2 12  2  0
  3  9  1  0
  4 10  1  0
  5  9  2  0
  6 10  2  0
  7  9  1  0
  7 11  1  0
  7 13  1  0
  8 10  1  0
  8 12  1  0
  8 14  1  0
 11 12  1  0
M  CHG  4   3  -1   4  -1   9   1  10   1
M  END
>  <PUBCHEM_COMPOUND_CID>  (1) 
26872

>  <PUBCHEM_CONFORMER_RMSD>  (1) 
0.6

>  <PUBCHEM_CONFORMER_DIVERSEORDER>  (1) 
1
14
21
13
23
10
31
29
24
8
12
26
30
20
5
22
2
16
25
11
7
28
18
15
9
3
19
17
27
6
4

>  <PUBCHEM_MMFF94_PARTIAL_CHARGES>  (1) 
14
1 -0.57
10 1.02
11 0.63
12 0.63
13 0.3
14 0.3
2 -0.57
3 -0.52
4 -0.52
5 -0.52
6 -0.52
7 -0.34
8 -0.34
9 1.02

>  <PUBCHEM_EFFECTIVE_ROTOR_COUNT>  (1) 
5

>  <PUBCHEM_PHARMACOPHORE_FEATURES>  (1) 
6
1 1 acceptor
1 2 acceptor
1 3 acceptor
1 4 acceptor
1 5 acceptor
1 6 acceptor

>  <PUBCHEM_HEAVY_ATOM_COUNT>  (1) 
14

>  <PUBCHEM_ATOM_DEF_STEREO_COUNT>  (1) 
0

>  <PUBCHEM_ATOM_UDEF_STEREO_COUNT>  (1) 
0

>  <PUBCHEM_BOND_DEF_STEREO_COUNT>  (1) 
0

>  <PUBCHEM_BOND_UDEF_STEREO_COUNT>  (1) 
0

>  <PUBCHEM_ISOTOPIC_ATOM_COUNT>  (1) 
0

>  <PUBCHEM_COMPONENT_COUNT>  (1) 
1

>  <PUBCHEM_CACTVS_TAUTO_COUNT>  (1) 
1

>  <PUBCHEM_CONFORMER_ID>  (1) 
000068F800000001

>  <PUBCHEM_MMFF94_ENERGY>  (1) 
39.3421

>  <PUBCHEM_FEATURE_SELFOVERLAP>  (1) 
30.629

>  <PUBCHEM_SHAPE_FINGERPRINT>  (1) 
10219947 1 17675922088576669478
12138202 97 16845570941434231927
12251169 10 15647345176854264101
124424 183 15791722001468721205
12897270 3 15841556253606458929
14993402 34 18411135852789009924
15219456 202 16009021765868617962
15775835 57 18410862057198272736
16945 1 18410584980267761383
18534176 82 17131559447842277918
20201158 50 16371002979622469377
20344682 1 15697995258019528933
20645464 45 15502376729548843913
22802520 49 16414379787291118125
23402539 116 17346309380268527932
23557571 272 16916796222618957477
23559900 14 17132116832230109974
63268167 104 18259984894408028460
77492 1 18410565189058669287

>  <PUBCHEM_SHAPE_MULTIPOLES>  (1) 
232.97
5.6
1.29
1.29
0
0.1
0.01
-1.53
0.03
-0.04
-0.01
0.04
-0.1
-1.04

>  <PUBCHEM_SHAPE_SELFOVERLAP>  (1) 
458.56

>  <PUBCHEM_SHAPE_VOLUME>  (1) 
136.8

>  <PUBCHEM_COORDINATE_TYPE>  (1) 
2
5
10

$$$$
