26876
     RDKit          3D

 28 31  0  0  1  0  0  0  0  0999 V2000
    2.8353    1.5849    1.9405 O   0  0  0  0  0  0  0  0  0  0  0  0
    1.8320   -1.8341   -0.4637 O   0  0  0  0  0  0  0  0  0  0  0  0
   -0.1487    2.6296   -1.9000 O   0  0  0  0  0  0  0  0  0  0  0  0
   -1.4549   -1.0128    1.7943 O   0  0  0  0  0  0  0  0  0  0  0  0
    2.1118   -4.1176   -0.3795 O   0  0  0  0  0  0  0  0  0  0  0  0
    4.8846    1.0817   -0.1001 N   0  0  0  0  0  0  0  0  0  0  0  0
    1.8834    1.3751   -0.2404 N   0  0  0  0  0  0  0  0  0  0  0  0
   -3.4967   -0.0151    0.3160 N   0  0  0  0  0  0  0  0  0  0  0  0
    2.1810   -2.9851   -2.3794 N   0  0  0  0  0  0  0  0  0  0  0  0
    3.8206    0.1542    0.2861 C   0  0  0  0  0  0  0  0  0  0  0  0
    2.5466    0.6697    0.8840 C   0  0  0  0  0  0  0  0  0  0  0  0
    3.9300    0.6689   -1.1131 C   0  0  0  0  0  0  0  0  0  0  0  0
    2.7277    1.5111   -1.4232 C   0  0  0  0  0  0  0  0  0  0  0  0
    1.4495   -0.3417    1.3622 C   0  0  0  0  0  0  0  0  0  0  0  0
    0.5292    1.1351   -0.2158 C   0  0  0  0  0  0  0  0  0  0  0  0
    0.2091    0.2132    0.6898 C   0  0  0  0  0  0  0  0  0  0  0  0
    1.6774   -1.7923    0.9426 C   0  0  0  0  0  0  0  0  0  0  0  0
   -0.4656    1.7804   -1.0744 C   0  0  0  0  0  0  0  0  0  0  0  0
   -1.1768   -0.1931    0.9246 C   0  0  0  0  0  0  0  0  0  0  0  0
    3.3128    0.9083    3.0928 C   0  0  0  0  0  0  0  0  0  0  0  0
   -1.8907    1.3516   -0.8763 C   0  0  0  0  0  0  0  0  0  0  0  0
   -2.2309    0.4346    0.0562 C   0  0  0  0  0  0  0  0  0  0  0  0
   -2.8680    2.0356   -1.7952 C   0  0  0  0  0  0  0  0  0  0  0  0
    2.0470   -3.0710   -1.0157 C   0  0  0  0  0  0  0  0  0  0  0  0
   -4.3039   -0.7028   -0.6550 C   0  0  0  0  0  0  0  0  0  0  0  0
   -5.6365   -1.1305   -0.0458 C   0  0  0  0  0  0  0  0  0  0  0  0
   -6.4791    0.0580    0.4239 C   0  0  0  0  0  0  0  0  0  0  0  0
   -7.8261   -0.3956    0.9647 C   0  0  0  0  0  0  0  0  0  0  0  0
  1 11  1  0
  1 20  1  0
  2 17  1  0
  2 24  1  0
  3 18  2  0
  4 19  2  0
  5 24  2  0
  6 10  1  0
  6 12  1  0
  7 11  1  0
  7 13  1  0
  7 15  1  0
  8 22  1  0
  8 25  1  0
  9 24  1  0
 10 11  1  0
 10 12  1  0
 11 14  1  0
 12 13  1  0
 14 16  1  0
 14 17  1  0
 15 16  2  0
 15 18  1  0
 16 19  1  0
 18 21  1  0
 19 22  1  0
 21 22  2  0
 21 23  1  0
 25 26  1  0
 26 27  1  0
 27 28  1  0
M  END
>  <PUBCHEM_COMPOUND_CID>  (1) 
26876

>  <PUBCHEM_CONFORMER_RMSD>  (1) 
1

>  <PUBCHEM_CONFORMER_DIVERSEORDER>  (1) 
1
24
21
16
27
13
19
17
3
23
18
25
14
15
2
26
4
22
11
10
20
6
12
9
5
8
7

>  <PUBCHEM_MMFF94_PARTIAL_CHARGES>  (1) 
31
1 -0.56
10 -0.04
11 0.74
12 -0.04
13 0.46
14 0.14
15 0.11
16 -0.12
17 0.28
18 0.54
19 0.54
2 -0.43
20 0.28
21 -0.12
22 0.11
23 0.14
24 0.78
25 0.37
29 0.1
3 -0.57
30 0.1
31 0.36
4 -0.57
43 0.4
48 0.37
49 0.37
5 -0.57
6 -0.68
7 -0.84
8 -0.87
9 -0.8

>  <PUBCHEM_EFFECTIVE_ROTOR_COUNT>  (1) 
8.6

>  <PUBCHEM_PHARMACOPHORE_FEATURES>  (1) 
14
1 1 acceptor
1 28 hydrophobe
1 3 acceptor
1 4 acceptor
1 5 acceptor
1 6 cation
1 6 donor
1 7 cation
1 8 cation
1 8 donor
1 9 donor
5 7 11 14 15 16 rings
6 15 16 18 19 21 22 rings
6 6 7 10 11 12 13 rings

>  <PUBCHEM_HEAVY_ATOM_COUNT>  (1) 
28

>  <PUBCHEM_ATOM_DEF_STEREO_COUNT>  (1) 
2

>  <PUBCHEM_ATOM_UDEF_STEREO_COUNT>  (1) 
2

>  <PUBCHEM_BOND_DEF_STEREO_COUNT>  (1) 
0

>  <PUBCHEM_BOND_UDEF_STEREO_COUNT>  (1) 
0

>  <PUBCHEM_ISOTOPIC_ATOM_COUNT>  (1) 
0

>  <PUBCHEM_COMPONENT_COUNT>  (1) 
1

>  <PUBCHEM_CACTVS_TAUTO_COUNT>  (1) 
36

>  <PUBCHEM_CONFORMER_ID>  (1) 
000068FC00000001

>  <PUBCHEM_MMFF94_ENERGY>  (1) 
92.7497

>  <PUBCHEM_FEATURE_SELFOVERLAP>  (1) 
71.214

>  <PUBCHEM_SHAPE_FINGERPRINT>  (1) 
10165383 225 18272091643096486728
10906281 52 17895491313738301973
11135609 99 16081357571003531568
11796584 16 17203615913000275935
11963148 33 18114738347591495651
12166972 35 14996274795621905019
12553582 1 18187915240355206221
12596602 18 16773231920498072779
12778500 126 17489321741560797403
12788726 201 17894622648392903897
13140716 1 17606965276449134049
13150687 139 17824285880515499380
13533116 47 18059580153267727491
13583140 156 17560791092372414369
14659021 117 16179607365619206063
14863182 85 18409729581833630790
15219462 58 17917726690110372131
15295992 7 10087631615907723383
15420108 30 17760644063697236829
15664445 248 18261407666544019645
16945 1 17822835555531665088
17349148 13 17967802877808659833
17492 89 17169529840714630705
1813 80 17967823713232881901
18681886 176 18260263092805247100
1979834 28 18410854386961409459
20691752 17 17168998772166459057
21267235 1 17603584123142136608
21285901 2 18186520977974996807
21521721 280 18271807994724074992
22182313 1 18262224509800253165
22956985 138 18045206147300430626
23419403 2 16968807272173454720
23557571 272 18260825956468490501
23559900 14 17899398806317168226
25222932 49 17096656598391840675
3060560 45 18337956804610105268
34934 24 17605555681273216788
4280585 95 17685487651256456806
4340502 62 17704067434369094467
46194498 28 18262244326162529438
465052 167 17749385992145899009
59755656 215 18412269427918708183
70251023 43 18193566558049561107
7399639 24 18270099301566303321
9999458 23 17703790366050058312

>  <PUBCHEM_SHAPE_MULTIPOLES>  (1) 
526.96
11.62
2.95
2.06
25.89
2.69
0.63
1.23
2.64
-2.55
-2.08
-1.92
-0.15
1.67

>  <PUBCHEM_SHAPE_SELFOVERLAP>  (1) 
1129.478

>  <PUBCHEM_SHAPE_VOLUME>  (1) 
293.1

>  <PUBCHEM_COORDINATE_TYPE>  (1) 
2
5
10

$$$$
