26886
     RDKit          3D

 23 25  0  0  1  0  0  0  0  0999 V2000
   -3.3940   -0.6637    1.7830 O   0  0  0  0  0  0  0  0  0  0  0  0
    0.5923    0.0357    0.1794 N   0  0  0  0  0  0  0  0  0  0  0  0
    1.1731   -1.0457   -0.6218 C   0  0  0  0  0  0  0  0  0  0  0  0
   -0.8407    0.1683   -0.0742 C   0  0  0  0  0  0  0  0  0  0  0  0
    2.6368   -1.2695   -0.2122 C   0  0  0  0  0  0  0  0  0  0  0  0
    1.2869    1.3060   -0.0808 C   0  0  0  0  0  0  0  0  0  0  0  0
    3.4314    0.0144   -0.1347 C   0  0  0  0  0  0  0  0  0  0  0  0
   -1.4450    1.2296    0.8475 C   0  0  0  0  0  0  0  0  0  0  0  0
    2.7882    1.1958   -0.0770 C   0  0  0  0  0  0  0  0  0  0  0  0
   -2.9495    1.4054    0.6229 C   0  0  0  0  0  0  0  0  0  0  0  0
    4.9112   -0.0739   -0.1185 C   0  0  0  0  0  0  0  0  0  0  0  0
   -3.7584    0.1567    0.9440 C   0  0  0  0  0  0  0  0  0  0  0  0
    5.6822    0.9605   -0.6533 C   0  0  0  0  0  0  0  0  0  0  0  0
    5.5395   -1.1922    0.4341 C   0  0  0  0  0  0  0  0  0  0  0  0
   -5.0476   -0.0627    0.2281 C   0  0  0  0  0  0  0  0  0  0  0  0
    7.0744    0.8772   -0.6355 C   0  0  0  0  0  0  0  0  0  0  0  0
    6.9317   -1.2755    0.4518 C   0  0  0  0  0  0  0  0  0  0  0  0
    7.6993   -0.2408   -0.0829 C   0  0  0  0  0  0  0  0  0  0  0  0
   -5.7727    1.0340   -0.1812 C   0  0  0  0  0  0  0  0  0  0  0  0
   -5.4648   -1.3553    0.0011 C   0  0  0  0  0  0  0  0  0  0  0  0
   -6.9777    0.8276   -0.8525 C   0  0  0  0  0  0  0  0  0  0  0  0
   -6.6700   -1.5616   -0.6703 C   0  0  0  0  0  0  0  0  0  0  0  0
   -7.4266   -0.4703   -1.0971 C   0  0  0  0  0  0  0  0  0  0  0  0
  1 12  2  0
  2  3  1  0
  2  4  1  0
  2  6  1  0
  3  5  1  0
  4  8  1  0
  5  7  1  0
  6  9  1  0
  7  9  2  0
  7 11  1  0
  8 10  1  0
 10 12  1  0
 11 13  2  0
 11 14  1  0
 12 15  1  0
 13 16  1  0
 14 17  2  0
 15 19  2  0
 15 20  1  0
 16 18  2  0
 17 18  1  0
 19 21  1  0
 20 22  2  0
 21 23  2  0
 22 23  1  0
M  END
>  <PUBCHEM_COMPOUND_CID>  (1) 
26886

>  <PUBCHEM_CONFORMER_RMSD>  (1) 
0.8

>  <PUBCHEM_CONFORMER_DIVERSEORDER>  (1) 
1
108
74
63
20
44
6
29
106
78
36
126
88
97
116
80
13
23
96
58
18
12
99
115
93
8
3
87
14
120
66
124
114
4
64
38
104
60
51
84
98
112
17
32
107
52
41
81
71
49
24
123
103
73
117
50
22
7
5
75
111
31
122
67
37
118
77
72
76
43
86
62
30
105
85
21
11
109
27
26
89
39
125
19
95
15
102
61
45
55
83
119
35
113
53
9
94
33
121
69
34
79
46
90
2
42
28
57
110
40
25
10
54
70
100
82
92
59
68
47
16
101
65
48
56
91

>  <PUBCHEM_MMFF94_PARTIAL_CHARGES>  (1) 
33
1 -0.57
10 0.06
11 0.03
12 0.42
13 -0.15
14 -0.15
15 0.09
16 -0.15
17 -0.15
18 -0.15
19 -0.15
2 -0.81
20 -0.15
21 -0.15
22 -0.15
23 -0.15
3 0.27
34 0.15
37 0.15
38 0.15
39 0.15
4 0.27
40 0.15
41 0.15
42 0.15
43 0.15
44 0.15
45 0.15
46 0.15
5 0.14
6 0.41
7 -0.17
9 -0.29

>  <PUBCHEM_EFFECTIVE_ROTOR_COUNT>  (1) 
6.8

>  <PUBCHEM_PHARMACOPHORE_FEATURES>  (1) 
5
1 1 acceptor
1 2 cation
6 11 13 14 16 17 18 rings
6 15 19 20 21 22 23 rings
6 2 3 5 6 7 9 rings

>  <PUBCHEM_HEAVY_ATOM_COUNT>  (1) 
23

>  <PUBCHEM_ATOM_DEF_STEREO_COUNT>  (1) 
0

>  <PUBCHEM_ATOM_UDEF_STEREO_COUNT>  (1) 
0

>  <PUBCHEM_BOND_DEF_STEREO_COUNT>  (1) 
0

>  <PUBCHEM_BOND_UDEF_STEREO_COUNT>  (1) 
0

>  <PUBCHEM_ISOTOPIC_ATOM_COUNT>  (1) 
0

>  <PUBCHEM_COMPONENT_COUNT>  (1) 
1

>  <PUBCHEM_CACTVS_TAUTO_COUNT>  (1) 
2

>  <PUBCHEM_CONFORMER_ID>  (1) 
0000690600000001

>  <PUBCHEM_MMFF94_ENERGY>  (1) 
57.2296

>  <PUBCHEM_FEATURE_SELFOVERLAP>  (1) 
25.373

>  <PUBCHEM_SHAPE_FINGERPRINT>  (1) 
10299344 5 18410855464465418303
106641 1 15410888578614380890
10835480 77 17531535394497151228
10968037 39 18342739620398933719
11315181 36 18343023298667786065
11646440 116 15554729975805729498
11719270 70 18342173345767039094
11724838 91 18413390939307568382
11796584 16 16298676053055383752
11963148 33 18201432575909426886
12082328 90 17967532377053567743
12091667 2 18113622283570210049
12166972 35 18343021116318595312
12236239 1 18411419505303531340
12516196 113 18060700593474584416
12730499 353 14836410207880800564
13073987 5 14764078813244725622
13533116 47 16443615814854508664
13668630 136 18060423512254328631
13862211 1 18342460335486454376
13885169 127 18261390018792288717
13914758 101 17458340810450716149
14123256 10 18060701688965174479
14251764 18 18342177774109708644
14251764 46 16630527332435572364
1454969 45 18412547609066628262
14849402 71 10735578228861667330
15183329 4 17095517383811793905
15461852 350 18343024397414328108
15849732 13 18201438095010077260
17093844 174 14996289145324178865
18681886 176 18271801354229570057
19489759 90 18187083945351087905
20028762 73 17918275367856125526
21095086 128 16774082852276875446
21150785 3 18410011048162273972
21521721 280 11167933667840507614
21756936 100 12035446156334169449
22224240 67 18131910460454032466
23198884 109 17313100852830159685
232437 2 18341893014079336599
23559900 14 18262517112921774273
23569917 315 18130514037827645622
249057 25 18338249201684251692
3004659 81 18334289885992191905
3009799 131 15791731905826894828
335352 9 18408892828980997638
34797466 226 15985106336636791736
4073 2 17676493899053294066
4325135 7 18343021090268359100
4340502 62 14045744812041284652
5385378 56 11314296239860967288
5758199 1 11312054357268693004
57583515 80 18113339708686122225
59682541 35 17275096246137571194
5969126 39 18187359909505450589
59755656 520 17895187835850349507
6009941 240 16515692160413702258
7226269 152 13551187793112832021
9953998 17 12607406611892638647

>  <PUBCHEM_SHAPE_MULTIPOLES>  (1) 
462.48
24.86
1.53
0.98
0.04
0.1
0.14
4.28
-4.96
0.35
-0.01
0.9
0.02
-0.88

>  <PUBCHEM_SHAPE_SELFOVERLAP>  (1) 
982.455

>  <PUBCHEM_SHAPE_VOLUME>  (1) 
256.6

>  <PUBCHEM_COORDINATE_TYPE>  (1) 
2
5
10

$$$$
