2688
     RDKit          3D

 20 22  0  0  1  0  0  0  0  0999 V2000
    1.4697   -0.5118    2.6186 Cl  0  0  0  0  0  0  0  0  0  0  0  0
   -0.4779    4.3358   -0.7925 Cl  0  0  0  0  0  0  0  0  0  0  0  0
   -0.2241   -2.0312   -1.5126 S   0  0  0  0  0  0  0  0  0  0  0  0
   -2.9014   -3.2215    0.4378 O   0  0  0  0  0  0  0  0  0  0  0  0
   -2.6520   -0.9587    0.7057 N   0  0  0  0  0  0  0  0  0  0  0  0
    0.1835   -0.8490   -0.1772 C   0  0  0  0  0  0  0  0  0  0  0  0
   -0.7305    0.3756   -0.1326 C   0  0  0  0  0  0  0  0  0  0  0  0
    1.6829   -0.5637   -0.0978 C   0  0  0  0  0  0  0  0  0  0  0  0
   -2.0351    0.2770    0.4078 C   0  0  0  0  0  0  0  0  0  0  0  0
   -0.2741    1.6528   -0.5048 C   0  0  0  0  0  0  0  0  0  0  0  0
   -2.0207   -2.0165   -1.4283 C   0  0  0  0  0  0  0  0  0  0  0  0
   -2.7735    1.4324    0.7002 C   0  0  0  0  0  0  0  0  0  0  0  0
   -2.5276   -2.1357   -0.0101 C   0  0  0  0  0  0  0  0  0  0  0  0
    2.3273   -0.4007    1.1249 C   0  0  0  0  0  0  0  0  0  0  0  0
    2.3973   -0.4696   -1.2891 C   0  0  0  0  0  0  0  0  0  0  0  0
   -1.0444    2.7947   -0.2701 C   0  0  0  0  0  0  0  0  0  0  0  0
   -2.2818    2.6873    0.3534 C   0  0  0  0  0  0  0  0  0  0  0  0
    3.6974   -0.1411    1.1571 C   0  0  0  0  0  0  0  0  0  0  0  0
    3.7674   -0.2101   -1.2568 C   0  0  0  0  0  0  0  0  0  0  0  0
    4.4176   -0.0458   -0.0338 C   0  0  0  0  0  0  0  0  0  0  0  0
  1 14  1  0
  2 16  1  0
  3  6  1  0
  3 11  1  0
  4 13  2  0
  5  9  1  0
  5 13  1  0
  6  7  1  0
  6  8  1  0
  7  9  2  0
  7 10  1  0
  8 14  2  0
  8 15  1  0
  9 12  1  0
 10 16  2  0
 11 13  1  0
 12 17  2  0
 14 18  1  0
 15 19  2  0
 16 17  1  0
 18 20  2  0
 19 20  1  0
M  END
>  <PUBCHEM_COMPOUND_CID>  (1) 
2688

>  <PUBCHEM_CONFORMER_RMSD>  (1) 
0.6

>  <PUBCHEM_CONFORMER_DIVERSEORDER>  (1) 
4
10
9
3
1
5
6
2
11
12
7
8

>  <PUBCHEM_MMFF94_PARTIAL_CHARGES>  (1) 
28
1 -0.18
10 -0.15
11 0.29
12 -0.15
13 0.57
14 0.18
15 -0.15
16 0.18
17 -0.15
18 -0.15
19 -0.15
2 -0.18
20 -0.15
22 0.15
25 0.37
26 0.15
27 0.15
28 0.15
29 0.15
3 -0.46
30 0.15
31 0.15
4 -0.57
5 -0.55
6 0.52
7 -0.14
8 -0.14
9 0.12

>  <PUBCHEM_EFFECTIVE_ROTOR_COUNT>  (1) 
1.8

>  <PUBCHEM_PHARMACOPHORE_FEATURES>  (1) 
5
1 4 acceptor
1 5 donor
6 7 9 10 12 16 17 rings
6 8 14 15 18 19 20 rings
7 3 5 6 7 9 11 13 rings

>  <PUBCHEM_HEAVY_ATOM_COUNT>  (1) 
20

>  <PUBCHEM_ATOM_DEF_STEREO_COUNT>  (1) 
0

>  <PUBCHEM_ATOM_UDEF_STEREO_COUNT>  (1) 
1

>  <PUBCHEM_BOND_DEF_STEREO_COUNT>  (1) 
0

>  <PUBCHEM_BOND_UDEF_STEREO_COUNT>  (1) 
0

>  <PUBCHEM_ISOTOPIC_ATOM_COUNT>  (1) 
0

>  <PUBCHEM_COMPONENT_COUNT>  (1) 
1

>  <PUBCHEM_CACTVS_TAUTO_COUNT>  (1) 
2

>  <PUBCHEM_CONFORMER_ID>  (1) 
00000A8000000004

>  <PUBCHEM_MMFF94_ENERGY>  (1) 
75.0642

>  <PUBCHEM_FEATURE_SELFOVERLAP>  (1) 
25.382

>  <PUBCHEM_SHAPE_FINGERPRINT>  (1) 
10165383 225 17843420495861863216
10369192 42 16412094131121326864
11640471 11 17460038392127237892
12173636 292 18049442539299262165
12553582 1 18336552732398712227
12714826 92 18059863874079823470
12716301 132 18058148592869475058
12788726 201 18189877778263349147
13140716 1 18340208586938336513
133893 2 16967690614245364695
13538477 17 18187359896488010026
13583140 156 16878517734663217029
13681431 1 17762874951361883837
13878862 14 16394654260985544097
13965767 371 16743123653965803260
14787075 74 17608660740590285932
16945 1 18336270033092129733
17357779 13 17773855653787577023
1813 80 18127127708699531343
18219364 16 17060330829932465898
18981168 100 16198997644353662882
19868273 325 18410294735073340501
200 152 16733253638588011058
20510252 161 18125162623875879033
20600515 1 17619862508897947531
21452121 199 17909259531485162779
21524375 3 17838890439388527327
22112679 90 18338248179043432093
22149856 69 17472999307218134625
23388829 49 17838326746358661137
23419403 2 16831149841930852429
23526113 38 17345754062835871558
23557571 272 18272373070638503484
23559900 14 17560243497660312486
23598288 3 17896311416057510689
23598294 1 18408881823977111706
238 59 17334201339364964245
2748010 2 18199173161070284389
34934 24 18260551104046630465
350125 39 17762630481681061421
3524813 1 17847066575071940778
5845 1 12831205455420250189
6049 1 17632574981039597402
6287921 2 17699565054924224280
6442390 28 17983028747527000137
7097593 13 17826780461555186730
77492 1 17821450157905899558
7808743 9 18338524036910346804
81228 2 18341883096129288455
90316 7 18409168809375705385
9925002 15 17053852717795672062

>  <PUBCHEM_SHAPE_MULTIPOLES>  (1) 
408.33
5.9
3.82
1.65
5.51
2.48
0.6
-0.47
0.63
-4.87
-1.23
1.01
-0.47
-0.04

>  <PUBCHEM_SHAPE_SELFOVERLAP>  (1) 
856.289

>  <PUBCHEM_SHAPE_VOLUME>  (1) 
231.4

>  <PUBCHEM_COORDINATE_TYPE>  (1) 
2
5
10

$$$$
