26884
     RDKit          3D

 15 15  0  0  0  0  0  0  0  0999 V2000
   -2.1411    1.9523    0.6012 O   0  0  0  0  0  0  0  0  0  0  0  0
   -3.7134   -0.2665    0.0265 O   0  0  0  0  0  0  0  0  0  0  0  0
    4.7275   -0.8531    0.6015 O   0  0  0  0  0  0  0  0  0  0  0  0
    4.9137    0.9996   -0.7495 N   0  0  0  0  0  0  0  0  0  0  0  0
    0.4255   -0.5936    0.0587 C   0  0  0  0  0  0  0  0  0  0  0  0
   -1.5656    0.7481    0.3281 C   0  0  0  0  0  0  0  0  0  0  0  0
   -2.3548   -0.3655    0.0401 C   0  0  0  0  0  0  0  0  0  0  0  0
   -0.1754    0.6340    0.3374 C   0  0  0  0  0  0  0  0  0  0  0  0
   -0.3638   -1.7071   -0.2293 C   0  0  0  0  0  0  0  0  0  0  0  0
   -1.7539   -1.5931   -0.2385 C   0  0  0  0  0  0  0  0  0  0  0  0
    1.8749   -0.7131    0.0691 C   0  0  0  0  0  0  0  0  0  0  0  0
    2.7439    0.3158   -0.0495 C   0  0  0  0  0  0  0  0  0  0  0  0
   -2.3816    2.8211   -0.5040 C   0  0  0  0  0  0  0  0  0  0  0  0
   -4.4467   -1.4515   -0.2772 C   0  0  0  0  0  0  0  0  0  0  0  0
    4.2108    0.0726   -0.0145 C   0  0  0  0  0  0  0  0  0  0  0  0
  1  6  1  0
  1 13  1  0
  2  7  1  0
  2 14  1  0
  3 15  2  0
  4 15  1  0
  5  8  2  0
  5  9  1  0
  5 11  1  0
  6  7  2  0
  6  8  1  0
  7 10  1  0
  9 10  2  0
 11 12  2  0
 12 15  1  0
M  END
>  <PUBCHEM_COMPOUND_CID>  (1) 
26884

>  <PUBCHEM_CONFORMER_RMSD>  (1) 
0.6

>  <PUBCHEM_CONFORMER_DIVERSEORDER>  (1) 
5
2
13
15
10
16
1
12
6
14
9
4
7
11
3
8

>  <PUBCHEM_MMFF94_PARTIAL_CHARGES>  (1) 
22
1 -0.36
10 -0.15
11 -0.18
12 -0.14
13 0.28
14 0.28
15 0.62
16 0.15
17 0.15
18 0.15
19 0.15
2 -0.36
20 0.15
27 0.37
28 0.37
3 -0.57
4 -0.8
5 0.03
6 0.08
7 0.08
8 -0.15
9 -0.15

>  <PUBCHEM_EFFECTIVE_ROTOR_COUNT>  (1) 
4

>  <PUBCHEM_PHARMACOPHORE_FEATURES>  (1) 
5
1 1 acceptor
1 2 acceptor
1 3 acceptor
1 4 donor
6 5 6 7 8 9 10 rings

>  <PUBCHEM_HEAVY_ATOM_COUNT>  (1) 
15

>  <PUBCHEM_ATOM_DEF_STEREO_COUNT>  (1) 
0

>  <PUBCHEM_ATOM_UDEF_STEREO_COUNT>  (1) 
0

>  <PUBCHEM_BOND_DEF_STEREO_COUNT>  (1) 
0

>  <PUBCHEM_BOND_UDEF_STEREO_COUNT>  (1) 
1

>  <PUBCHEM_ISOTOPIC_ATOM_COUNT>  (1) 
0

>  <PUBCHEM_COMPONENT_COUNT>  (1) 
1

>  <PUBCHEM_CACTVS_TAUTO_COUNT>  (1) 
2

>  <PUBCHEM_CONFORMER_ID>  (1) 
0000690400000005

>  <PUBCHEM_MMFF94_ENERGY>  (1) 
60.1661

>  <PUBCHEM_FEATURE_SELFOVERLAP>  (1) 
25.376

>  <PUBCHEM_SHAPE_FINGERPRINT>  (1) 
11680986 33 17837204149682459675
12107183 9 17757824529810699810
12186901 62 18272092677708630532
12390115 104 17986693496907270065
13862211 1 18342733070226368871
13897977 58 18410299137520378812
14614273 12 18338799996911094461
15042514 8 18268993253151777175
16945 1 18342161285487867611
1741750 31 18127130770974212185
17802600 8 18341890814085487600
17834072 32 18264491680743526812
18186145 218 17986685766060536758
187816 3 18187079598633350315
200 152 18259981608747601439
20300324 65 18341895207683790601
20510252 161 18272654515123084617
20645477 56 18342181024920209224
20645477 70 16701754765646795230
21029758 27 18337957921449399027
21339142 126 18342733035787087079
21501502 16 18266455399941418459
21652331 79 18338517551187632056
22485316 2 9943803379160944470
2297311 6 18130521806942259772
23048698 100 17603301570692805658
2306618 200 18201725020120860593
23366157 5 18044945558448804374
23402539 116 18342168990685609703
23557571 272 17988938755374720668
23559900 14 18272085054706059144
2748010 2 18054236436156072007
3268164 11 18201431480422818197
4214541 1 18411137996584273792
474 4 17386857295396795588
5104073 3 18340205198588779986
559249 180 18265608780921568026
573450 72 18335127653844146226
68521 5 18411136952785960109
9709674 26 18341338816409954110

>  <PUBCHEM_SHAPE_MULTIPOLES>  (1) 
286.1
8.72
2.15
0.71
8.63
1.35
-0.02
-0.46
-0.69
-2.31
-0.26
0.1
0.09
-0.43

>  <PUBCHEM_SHAPE_SELFOVERLAP>  (1) 
590.405

>  <PUBCHEM_SHAPE_VOLUME>  (1) 
164.9

>  <PUBCHEM_COORDINATE_TYPE>  (1) 
2
5
10

$$$$
