26880
     RDKit          3D

 15 16  0  0  0  0  0  0  0  0999 V2000
    0.4180    1.0961   -0.0033 S   0  0  0  0  0  0  0  0  0  0  0  0
    4.5632   -1.0500    0.0016 O   0  0  0  0  0  0  0  0  0  0  0  0
    3.0286    0.7483   -0.0017 N   0  0  0  0  0  0  0  0  0  0  0  0
   -0.6117   -0.2729   -0.0001 C   0  0  0  0  0  0  0  0  0  0  0  0
   -2.0402   -0.0721   -0.0005 C   0  0  0  0  0  0  0  0  0  0  0  0
    1.8188    0.1112   -0.0003 C   0  0  0  0  0  0  0  0  0  0  0  0
    0.1000   -1.4532    0.0033 C   0  0  0  0  0  0  0  0  0  0  0  0
    1.5073   -1.2307    0.0032 C   0  0  0  0  0  0  0  0  0  0  0  0
   -2.7302    0.0284    1.2076 C   0  0  0  0  0  0  0  0  0  0  0  0
   -2.7318    0.0210   -1.2084 C   0  0  0  0  0  0  0  0  0  0  0  0
   -4.1116    0.2216    1.2080 C   0  0  0  0  0  0  0  0  0  0  0  0
   -4.1132    0.2143   -1.2079 C   0  0  0  0  0  0  0  0  0  0  0  0
   -4.8030    0.3146    0.0003 C   0  0  0  0  0  0  0  0  0  0  0  0
    4.3004    0.1480    0.0003 C   0  0  0  0  0  0  0  0  0  0  0  0
    5.4051    1.1754   -0.0022 C   0  0  0  0  0  0  0  0  0  0  0  0
  1  4  1  0
  1  6  1  0
  2 14  2  0
  3  6  1  0
  3 14  1  0
  4  5  1  0
  4  7  2  0
  5  9  2  0
  5 10  1  0
  6  8  2  0
  7  8  1  0
  9 11  1  0
 10 12  2  0
 11 13  2  0
 12 13  1  0
 14 15  1  0
M  END
>  <PUBCHEM_COMPOUND_CID>  (1) 
26880

>  <PUBCHEM_CONFORMER_RMSD>  (1) 
0.6

>  <PUBCHEM_CONFORMER_DIVERSEORDER>  (1) 
1
4
5
6
2
3

>  <PUBCHEM_MMFF94_PARTIAL_CHARGES>  (1) 
23
1 -0.08
10 -0.15
11 -0.15
12 -0.15
13 -0.15
14 0.57
15 0.06
16 0.15
17 0.15
18 0.15
19 0.15
2 -0.57
20 0.37
21 0.15
22 0.15
23 0.15
3 -0.49
4 -0.01
5 0.05
6 0.1
7 -0.15
8 -0.15
9 -0.15

>  <PUBCHEM_EFFECTIVE_ROTOR_COUNT>  (1) 
3

>  <PUBCHEM_PHARMACOPHORE_FEATURES>  (1) 
4
1 2 acceptor
1 3 donor
5 1 4 6 7 8 rings
6 5 9 10 11 12 13 rings

>  <PUBCHEM_HEAVY_ATOM_COUNT>  (1) 
15

>  <PUBCHEM_ATOM_DEF_STEREO_COUNT>  (1) 
0

>  <PUBCHEM_ATOM_UDEF_STEREO_COUNT>  (1) 
0

>  <PUBCHEM_BOND_DEF_STEREO_COUNT>  (1) 
0

>  <PUBCHEM_BOND_UDEF_STEREO_COUNT>  (1) 
0

>  <PUBCHEM_ISOTOPIC_ATOM_COUNT>  (1) 
0

>  <PUBCHEM_COMPONENT_COUNT>  (1) 
1

>  <PUBCHEM_CACTVS_TAUTO_COUNT>  (1) 
3

>  <PUBCHEM_CONFORMER_ID>  (1) 
0000690000000001

>  <PUBCHEM_MMFF94_ENERGY>  (1) 
34.2769

>  <PUBCHEM_FEATURE_SELFOVERLAP>  (1) 
20.297

>  <PUBCHEM_SHAPE_FINGERPRINT>  (1) 
10465860 250 16370443362679935237
10912923 1 17632576050349297362
11401426 45 18343579655213229596
11471102 20 18411135831841622350
11543360 7 15913325840338852200
12119455 92 18333167267102707627
12236239 1 17846780693996412777
124424 183 17385441033735003673
12507557 5 17895197731217226373
13214271 11 17748825228916354703
13533116 47 17917991634670849194
13675066 3 17748828540125052114
13760787 19 15769779035038759198
13760787 5 18413388722471512270
14123238 8 16558751217368635396
14943859 89 18407759257033442858
15219456 202 17676486099534952843
17834072 33 17203604908555389820
18186145 218 18202275935618174464
19026448 4 17022619758611049818
19026448 5 17060622179001878206
19489759 90 16226043396987272469
200 152 18273209807635061501
20279233 1 17676211251861526571
20300324 65 16702020889777237241
20325693 3 15554731075443918213
204376 136 18408042931017825090
20645477 56 18041274465485591532
20645477 70 18262794065034223174
2297311 6 16443354130480494383
23175994 123 18186243922345969501
23402539 116 16845572006554706064
23402655 69 17917429787648043697
23536379 177 16200437953262297020
23557571 272 16805887286418741695
23559900 14 16588867854740522082
265663 24 17203608185710284910
300161 21 17703785929728396312
366044 4 18412544331716833578
42 15 14345792742713791104
474 4 17844233232623642424
5104073 3 18339076094715637610
542803 24 17775287161775744424
573450 72 16630523986207889743

>  <PUBCHEM_SHAPE_MULTIPOLES>  (1) 
301.69
10.94
1.15
1.01
6.56
0.18
0
-2.43
0
0.99
0
-1.35
-0.06
-0.01

>  <PUBCHEM_SHAPE_SELFOVERLAP>  (1) 
631.426

>  <PUBCHEM_SHAPE_VOLUME>  (1) 
171.1

>  <PUBCHEM_COORDINATE_TYPE>  (1) 
2
5
10

$$$$
