26881
     RDKit          3D

 17 18  0  0  0  0  0  0  0  0999 V2000
    3.4978   -1.6400   -0.6631 O   0  0  0  0  0  0  0  0  0  0  0  0
    0.2494    2.4704    1.0545 O   0  0  0  0  0  0  0  0  0  0  0  0
   -0.8709    1.3770   -1.9289 O   0  0  0  0  0  0  0  0  0  0  0  0
    0.6190    0.5466   -0.3286 C   0  0  0  0  0  0  0  0  0  0  0  0
   -0.7505    0.6783   -0.9115 C   0  0  0  0  0  0  0  0  0  0  0  0
   -1.9115    0.0239   -0.3298 C   0  0  0  0  0  0  0  0  0  0  0  0
    1.4100   -0.4884   -0.7746 C   0  0  0  0  0  0  0  0  0  0  0  0
    1.0402    1.4487    0.6213 C   0  0  0  0  0  0  0  0  0  0  0  0
    2.6913   -0.6280   -0.2412 C   0  0  0  0  0  0  0  0  0  0  0  0
    2.3217    1.3088    1.1546 C   0  0  0  0  0  0  0  0  0  0  0  0
    3.1472    0.2706    0.7232 C   0  0  0  0  0  0  0  0  0  0  0  0
   -1.7695   -0.7604    0.8150 C   0  0  0  0  0  0  0  0  0  0  0  0
   -3.1674    0.1808   -0.9161 C   0  0  0  0  0  0  0  0  0  0  0  0
   -2.8831   -1.3878    1.3733 C   0  0  0  0  0  0  0  0  0  0  0  0
   -4.2812   -0.4466   -0.3577 C   0  0  0  0  0  0  0  0  0  0  0  0
   -4.1389   -1.2309    0.7870 C   0  0  0  0  0  0  0  0  0  0  0  0
    4.7962   -1.7228   -0.0773 C   0  0  0  0  0  0  0  0  0  0  0  0
  1  9  1  0
  1 17  1  0
  2  8  1  0
  3  5  2  0
  4  5  1  0
  4  7  2  0
  4  8  1  0
  5  6  1  0
  6 12  2  0
  6 13  1  0
  7  9  1  0
  8 10  2  0
  9 11  2  0
 10 11  1  0
 12 14  1  0
 13 15  2  0
 14 16  2  0
 15 16  1  0
M  END
>  <PUBCHEM_COMPOUND_CID>  (1) 
26881

>  <PUBCHEM_CONFORMER_RMSD>  (1) 
0.6

>  <PUBCHEM_CONFORMER_DIVERSEORDER>  (1) 
1
2

>  <PUBCHEM_MMFF94_PARTIAL_CHARGES>  (1) 
26
1 -0.36
10 -0.15
11 -0.15
12 -0.15
13 -0.15
14 -0.15
15 -0.15
16 -0.15
17 0.28
18 0.15
19 0.15
2 -0.53
20 0.15
21 0.15
22 0.15
23 0.15
24 0.15
25 0.15
26 0.45
3 -0.57
4 0.09
5 0.4
6 0.09
7 -0.15
8 0.08
9 0.08

>  <PUBCHEM_EFFECTIVE_ROTOR_COUNT>  (1) 
3

>  <PUBCHEM_PHARMACOPHORE_FEATURES>  (1) 
5
1 1 acceptor
1 2 donor
1 3 acceptor
6 4 7 8 9 10 11 rings
6 6 12 13 14 15 16 rings

>  <PUBCHEM_HEAVY_ATOM_COUNT>  (1) 
17

>  <PUBCHEM_ATOM_DEF_STEREO_COUNT>  (1) 
0

>  <PUBCHEM_ATOM_UDEF_STEREO_COUNT>  (1) 
0

>  <PUBCHEM_BOND_DEF_STEREO_COUNT>  (1) 
0

>  <PUBCHEM_BOND_UDEF_STEREO_COUNT>  (1) 
0

>  <PUBCHEM_ISOTOPIC_ATOM_COUNT>  (1) 
0

>  <PUBCHEM_COMPONENT_COUNT>  (1) 
1

>  <PUBCHEM_CACTVS_TAUTO_COUNT>  (1) 
4

>  <PUBCHEM_CONFORMER_ID>  (1) 
0000690100000001

>  <PUBCHEM_MMFF94_ENERGY>  (1) 
64.4387

>  <PUBCHEM_FEATURE_SELFOVERLAP>  (1) 
25.371

>  <PUBCHEM_SHAPE_FINGERPRINT>  (1) 
10465860 71 16877947156715489639
10751810 167 15936406758580691219
11471102 22 18202278134583362264
11543360 7 17168436995298272638
11715629 250 10807945851145027619
11796584 16 17895468108135802394
12202030 40 18334293188431379310
12236239 1 16415477189905296285
12251169 10 17060618888998972302
12507560 14 17989208161535390919
12596602 18 16200141119208930842
12633257 1 17917440838493745591
13134695 92 18131064965338773641
13296908 3 18261392277744353279
13296909 8 15338837508631730305
13538477 17 15697424663208755589
13544592 145 18260825999460289987
13965767 371 14690081654989505403
14252887 29 18342450469972852144
14386348 63 18334294279390307650
15375462 478 16988566792450462097
15527383 91 17917715690704160914
15775835 57 15626232367726264787
16752209 62 16516503583157814799
16945 1 18128536153045531445
17357990 137 15769223871856095361
17804303 29 18259706709587198147
1813 80 17417828205678287876
19049666 15 18337097969901392089
19862831 5 15068341215522240110
200 152 17775558746017765919
20281407 28 18113620083797816131
20281475 54 18335991946976477991
20374829 77 18040433282760220515
20645476 183 14779552305060381611
20645477 70 18272359875982122862
20871999 31 17167582670030660471
21041028 32 17917992742065517152
21061003 4 18201718431609203980
23175994 123 18342178838628764253
232386 152 16371834322404159545
23382010 3 13262690286637296012
23557571 272 17822280293501352932
23559900 14 17967809440666147510
31174 14 18271518797095303696
3286 77 18343022215782009299
474 4 16699183174767609488
7364860 26 17462578513280295869
77492 1 16415475003898954445
83771 10 18413109437843765542
9709674 26 18189334752695213515

>  <PUBCHEM_SHAPE_MULTIPOLES>  (1) 
332.24
8
1.84
1.33
0.17
0.31
-0.05
-5.15
0.43
1.06
0.36
-0.38
0.3
1.43

>  <PUBCHEM_SHAPE_SELFOVERLAP>  (1) 
721.436

>  <PUBCHEM_SHAPE_VOLUME>  (1) 
181.5

>  <PUBCHEM_COORDINATE_TYPE>  (1) 
2
5
10

$$$$
