2689
     RDKit          3D

 24 27  0  0  0  0  0  0  0  0999 V2000
    5.9751    0.4901   -0.0111 F   0  0  0  0  0  0  0  0  0  0  0  0
    4.9089    2.0564   -1.0664 F   0  0  0  0  0  0  0  0  0  0  0  0
    4.9001    2.0136    1.1077 F   0  0  0  0  0  0  0  0  0  0  0  0
   -2.3922    0.8100    0.0376 N   0  0  0  0  0  0  0  0  0  0  0  0
   -5.1549    1.4953    0.0063 N   0  0  0  0  0  0  0  0  0  0  0  0
    0.0977   -1.9322   -0.0164 N   0  0  0  0  0  0  0  0  0  0  0  0
   -0.0889    0.8612    0.0250 N   0  0  0  0  0  0  0  0  0  0  0  0
   -3.0667    1.1605    1.2844 C   0  0  0  0  0  0  0  0  0  0  0  0
   -2.9867    1.3703   -1.1728 C   0  0  0  0  0  0  0  0  0  0  0  0
   -4.5594    0.8430    1.1817 C   0  0  0  0  0  0  0  0  0  0  0  0
   -4.4813    1.0484   -1.2218 C   0  0  0  0  0  0  0  0  0  0  0  0
   -1.2025    0.1668    0.0214 C   0  0  0  0  0  0  0  0  0  0  0  0
   -1.1196   -1.2856   -0.0001 C   0  0  0  0  0  0  0  0  0  0  0  0
    1.2967   -1.1974   -0.0123 C   0  0  0  0  0  0  0  0  0  0  0  0
   -6.5888    1.2174   -0.0640 C   0  0  0  0  0  0  0  0  0  0  0  0
    1.1640    0.2039    0.0086 C   0  0  0  0  0  0  0  0  0  0  0  0
   -2.1060   -2.2520   -0.0083 C   0  0  0  0  0  0  0  0  0  0  0  0
   -0.1050   -3.2892   -0.0351 C   0  0  0  0  0  0  0  0  0  0  0  0
   -1.4652   -3.5137   -0.0304 C   0  0  0  0  0  0  0  0  0  0  0  0
    2.5491   -1.8137   -0.0281 C   0  0  0  0  0  0  0  0  0  0  0  0
    2.3280    0.9793    0.0136 C   0  0  0  0  0  0  0  0  0  0  0  0
    3.5857    0.3721   -0.0018 C   0  0  0  0  0  0  0  0  0  0  0  0
    3.6948   -1.0186   -0.0227 C   0  0  0  0  0  0  0  0  0  0  0  0
    4.8171    1.2141    0.0048 C   0  0  0  0  0  0  0  0  0  0  0  0
  1 24  1  0
  2 24  1  0
  3 24  1  0
  4  8  1  0
  4  9  1  0
  4 12  1  0
  5 10  1  0
  5 11  1  0
  5 15  1  0
  6 13  1  0
  6 14  1  0
  6 18  1  0
  7 12  2  0
  7 16  1  0
  8 10  1  0
  9 11  1  0
 12 13  1  0
 13 17  2  0
 14 16  2  0
 14 20  1  0
 16 21  1  0
 17 19  1  0
 18 19  2  0
 20 23  2  0
 21 22  2  0
 22 23  1  0
 22 24  1  0
M  END
>  <PUBCHEM_COMPOUND_CID>  (1) 
2689

>  <PUBCHEM_CONFORMER_RMSD>  (1) 
0.6

>  <PUBCHEM_CONFORMER_DIVERSEORDER>  (1) 
1
5
6
4
7
3
2

>  <PUBCHEM_MMFF94_PARTIAL_CHARGES>  (1) 
30
1 -0.34
10 0.27
11 0.27
12 0.58
13 -0.24
14 -0.02
15 0.27
16 0.18
17 -0.15
18 -0.3
19 -0.15
2 -0.34
20 -0.15
21 -0.15
22 -0.14
23 -0.15
24 1.16
3 -0.34
36 0.15
37 0.15
38 0.15
39 0.15
4 -0.79
40 0.15
41 0.15
5 -0.81
6 0.33
7 -0.63
8 0.37
9 0.37

>  <PUBCHEM_EFFECTIVE_ROTOR_COUNT>  (1) 
3.2

>  <PUBCHEM_PHARMACOPHORE_FEATURES>  (1) 
7
1 5 cation
1 6 cation
3 4 7 12 cation
5 6 13 17 18 19 rings
6 14 16 20 21 22 23 rings
6 4 5 8 9 10 11 rings
6 6 7 12 13 14 16 rings

>  <PUBCHEM_HEAVY_ATOM_COUNT>  (1) 
24

>  <PUBCHEM_ATOM_DEF_STEREO_COUNT>  (1) 
0

>  <PUBCHEM_ATOM_UDEF_STEREO_COUNT>  (1) 
0

>  <PUBCHEM_BOND_DEF_STEREO_COUNT>  (1) 
0

>  <PUBCHEM_BOND_UDEF_STEREO_COUNT>  (1) 
0

>  <PUBCHEM_ISOTOPIC_ATOM_COUNT>  (1) 
0

>  <PUBCHEM_COMPONENT_COUNT>  (1) 
1

>  <PUBCHEM_CACTVS_TAUTO_COUNT>  (1) 
1

>  <PUBCHEM_CONFORMER_ID>  (1) 
00000A8100000001

>  <PUBCHEM_MMFF94_ENERGY>  (1) 
61.5348

>  <PUBCHEM_FEATURE_SELFOVERLAP>  (1) 
35.654

>  <PUBCHEM_SHAPE_FINGERPRINT>  (1) 
10 15 18040435520907758264
10165383 225 18410295800146530708
10411042 1 17473826607205892962
10493431 412 18410577292545359377
11578080 2 17201622579221812547
11796584 16 13758058680827565893
12107183 9 18262787481550576330
12236239 1 17774719758743330661
12390115 104 18269571553175019114
12403259 415 18115306653347041909
12788726 201 17488751073018798512
12969540 114 18335692824084649885
13140716 1 18409730625590181850
13540713 4 18270133408577132838
13583140 156 16515669048857104213
13631057 29 18200866388404485239
13911987 19 18408880724887906117
14767858 380 18272075116278278717
14787075 74 18060136505919007353
14790565 3 18340774728126740537
15196674 1 18410856563940505835
15475509 35 16226607343473600858
19427546 20 18120098535584946502
204376 136 18410013213126386971
20554085 129 17988060232540827866
20602899 9 15482671307577734318
20645477 56 18334856125684690636
21033648 144 18340756152625216204
21033648 29 18336249172415705485
21033650 10 16986903201546749376
21049683 118 18266713913864619203
21236236 1 18340485668611980615
21521721 280 18342179956122011001
21859007 373 17679845043397206140
22079108 93 18343017800708681401
22182313 1 18268170749639479719
22224240 67 18409732859790223097
23227448 37 18336266841941933276
23558518 356 17828201326524607008
23559900 14 18272373049712663606
23569917 315 18412826858871751167
249057 3 18411421679586066686
25147074 1 18338781373543164858
283562 15 18049152564656333466
335352 9 18411703145888394942
34797466 226 14835826400964991481
34934 24 18334292080741319226
350125 39 18266465489135841491
3545911 37 18410294709646583868
4340502 62 18411982446793683725
469060 322 17095795620752890007
474 4 18341612556128828923
474229 33 18409168805703210803
5104073 3 18336539525922384234
53917941 68 18339909511359479927
5486654 2 18412267237606894845
56616090 163 18411143545639919926
59755656 520 18411133636717961943
621550 34 18043531612718124805
6327066 14 18408039628093029341
633830 44 17986681367950709261
6669772 16 18271529697754515326

>  <PUBCHEM_SHAPE_MULTIPOLES>  (1) 
452.16
12.18
3.12
0.93
0.83
3.16
0.02
-10.66
-0.03
-0.26
-0.09
0.68
-0.42
0.09

>  <PUBCHEM_SHAPE_SELFOVERLAP>  (1) 
995.925

>  <PUBCHEM_SHAPE_VOLUME>  (1) 
246.3

>  <PUBCHEM_COORDINATE_TYPE>  (1) 
2
5
10

$$$$
