26897
     RDKit          3D

 21 21  0  0  1  0  0  0  0  0999 V2000
   -1.8632    2.5327   -1.0967 O   0  0  0  0  0  0  0  0  0  0  0  0
   -4.2477   -1.5978    0.3113 N   0  0  0  0  0  0  0  0  0  0  0  0
   -1.4290    0.7179   -2.3933 N   0  0  0  0  0  0  0  0  0  0  0  0
   -0.9920    0.5332    0.0558 C   0  0  0  0  0  0  0  0  0  0  0  0
   -1.1649    1.3615    1.4042 C   0  0  0  0  0  0  0  0  0  0  0  0
   -1.9657   -0.7084    0.1174 C   0  0  0  0  0  0  0  0  0  0  0  0
    0.4987    0.1333   -0.1154 C   0  0  0  0  0  0  0  0  0  0  0  0
   -3.4600   -0.3690    0.2567 C   0  0  0  0  0  0  0  0  0  0  0  0
   -1.4974    1.3588   -1.1744 C   0  0  0  0  0  0  0  0  0  0  0  0
   -0.8315    0.5738    2.6835 C   0  0  0  0  0  0  0  0  0  0  0  0
   -0.3924    2.6905    1.4453 C   0  0  0  0  0  0  0  0  0  0  0  0
    1.3020    0.9681   -0.8371 C   0  0  0  0  0  0  0  0  0  0  0  0
    0.9158   -1.0292    0.4661 C   0  0  0  0  0  0  0  0  0  0  0  0
    3.1173   -0.5697   -0.4165 C   0  0  0  0  0  0  0  0  0  0  0  0
    2.6410    0.6086   -0.9911 C   0  0  0  0  0  0  0  0  0  0  0  0
    2.2548   -1.3887    0.3122 C   0  0  0  0  0  0  0  0  0  0  0  0
    4.5489   -0.9536   -0.5805 C   0  0  0  0  0  0  0  0  0  0  0  0
   -4.0960   -2.3597   -0.9286 C   0  0  0  0  0  0  0  0  0  0  0  0
   -5.6581   -1.2929    0.5528 C   0  0  0  0  0  0  0  0  0  0  0  0
    5.4337   -0.3928    0.5417 C   0  0  0  0  0  0  0  0  0  0  0  0
    6.8856   -0.8165    0.3867 C   0  0  0  0  0  0  0  0  0  0  0  0
  1  9  2  0
  2  8  1  0
  2 18  1  0
  2 19  1  0
  3  9  1  0
  4  5  1  0
  4  6  1  0
  4  7  1  0
  4  9  1  0
  5 10  1  0
  5 11  1  0
  6  8  1  0
  7 12  2  0
  7 13  1  0
 12 15  1  0
 13 16  2  0
 14 15  2  0
 14 16  1  0
 14 17  1  0
 17 20  1  0
 20 21  1  0
M  END
>  <PUBCHEM_COMPOUND_CID>  (1) 
26897

>  <PUBCHEM_CONFORMER_RMSD>  (1) 
0.8

>  <PUBCHEM_CONFORMER_DIVERSEORDER>  (1) 
3
191
34
114
172
47
116
164
56
189
76
184
190
195
75
167
127
124
110
108
196
179
170
98
185
137
15
148
105
102
130
187
96
13
178
162
81
134
11
135
155
183
141
197
107
29
109
63
19
152
175
70
25
142
171
17
123
31
159
86
166
163
51
66
45
111
144
65
168
177
140
9
154
54
139
193
1
173
26
131
161
182
68
48
150
90
16
101
128
125
194
67
49
143
89
2
80
181
99
42
27
149
72
10
32
61
30
18
122
52
118
158
186
117
12
50
176
151
97
28
77
4
120
14
115
20
156
106
113
24
57
37
44
40
103
192
88
84
174
69
62
87
64
146
41
91
55
180
79
104
121
126
188
36
60
6
138
133
8
33
92
119
165
136
46
157
21
147
112
59
58
5
35
160
74
153
7
23
82
145
78
53
83
85
129
95
22
100
73
43
169
94
93
71
132
38
39

>  <PUBCHEM_MMFF94_PARTIAL_CHARGES>  (1) 
21
1 -0.57
12 -0.15
13 -0.15
14 -0.14
15 -0.15
16 -0.15
17 0.14
18 0.27
19 0.27
2 -0.81
3 -0.8
33 0.15
34 0.15
35 0.15
36 0.15
37 0.37
38 0.37
4 0.2
7 -0.14
8 0.27
9 0.57

>  <PUBCHEM_EFFECTIVE_ROTOR_COUNT>  (1) 
8

>  <PUBCHEM_PHARMACOPHORE_FEATURES>  (1) 
6
1 1 acceptor
1 2 cation
1 21 hydrophobe
1 3 donor
3 5 10 11 hydrophobe
6 7 12 13 14 15 16 rings

>  <PUBCHEM_HEAVY_ATOM_COUNT>  (1) 
21

>  <PUBCHEM_ATOM_DEF_STEREO_COUNT>  (1) 
0

>  <PUBCHEM_ATOM_UDEF_STEREO_COUNT>  (1) 
1

>  <PUBCHEM_BOND_DEF_STEREO_COUNT>  (1) 
0

>  <PUBCHEM_BOND_UDEF_STEREO_COUNT>  (1) 
0

>  <PUBCHEM_ISOTOPIC_ATOM_COUNT>  (1) 
0

>  <PUBCHEM_COMPONENT_COUNT>  (1) 
1

>  <PUBCHEM_CACTVS_TAUTO_COUNT>  (1) 
2

>  <PUBCHEM_CONFORMER_ID>  (1) 
0000691100000003

>  <PUBCHEM_MMFF94_ENERGY>  (1) 
68.6113

>  <PUBCHEM_FEATURE_SELFOVERLAP>  (1) 
30.446

>  <PUBCHEM_SHAPE_FINGERPRINT>  (1) 
10366900 7 16443067180201157464
11315181 36 15213311816088376982
11578080 2 18341882035500031889
12166972 35 18260831506115019084
12403260 363 17894632552576367572
12633257 1 17417545721616578755
12892183 10 14764088756358124007
12916754 54 18336553741905450164
13288520 33 18260830397285339575
13533116 47 16008735902115709640
13583140 156 17345748569762597594
14787075 74 18340484586258648898
16945 1 18041851726048581229
17349148 13 17022623057383238454
18006028 8 18060137652580348995
18186145 218 15502374582170678189
187816 3 15791450448182968931
192875 21 17531252776910940156
19489759 90 16805601439650541798
19784866 140 17095235943564067123
200 152 18334016094426961586
20600515 1 17488762167335684441
21267235 1 18114471122962162395
21637258 2 18340201990174563935
2306618 200 18262521381839580780
23402539 116 16950282884081944165
23419403 2 18200293529202155313
23526113 38 16662345128779917577
23557571 272 18343867688879320810
23559900 14 18336537283190143856
2838139 119 8214148434487693195
3286 77 18409452517904468628
56616090 284 16443069425788506507

>  <PUBCHEM_SHAPE_MULTIPOLES>  (1) 
416.34
10.97
2.23
1.69
10.7
0.81
0.06
-8.21
1.54
-2.21
0.15
-0.82
0.87
-0.1

>  <PUBCHEM_SHAPE_SELFOVERLAP>  (1) 
836.243

>  <PUBCHEM_SHAPE_VOLUME>  (1) 
246.5

>  <PUBCHEM_COORDINATE_TYPE>  (1) 
2
5
10

$$$$
