26890
     RDKit          3D

 17 17  0  0  0  0  0  0  0  0999 V2000
   -1.4617    0.3046    0.0403 O   0  0  0  0  0  0  0  0  0  0  0  0
   -0.7623    2.4475    0.5073 O   0  0  0  0  0  0  0  0  0  0  0  0
    4.6995   -0.8374   -0.1426 N   0  0  0  0  0  0  0  0  0  0  0  0
   -5.1927   -0.1212   -0.0788 C   0  0  0  0  0  0  0  0  0  0  0  0
   -3.7125   -0.4885   -0.1560 C   0  0  0  0  0  0  0  0  0  0  0  0
   -6.0815   -1.3434   -0.3073 C   0  0  0  0  0  0  0  0  0  0  0  0
   -2.8201    0.7151    0.1121 C   0  0  0  0  0  0  0  0  0  0  0  0
   -7.5559   -0.9885   -0.1976 C   0  0  0  0  0  0  0  0  0  0  0  0
    3.3951   -0.3104   -0.0412 C   0  0  0  0  0  0  0  0  0  0  0  0
    0.8427    0.7199    0.1547 C   0  0  0  0  0  0  0  0  0  0  0  0
   -0.5306    1.2745    0.2588 C   0  0  0  0  0  0  0  0  0  0  0  0
    3.1532    1.0221   -0.3753 C   0  0  0  0  0  0  0  0  0  0  0  0
    2.3467   -1.1221    0.3920 C   0  0  0  0  0  0  0  0  0  0  0  0
    1.8630    1.5429   -0.2762 C   0  0  0  0  0  0  0  0  0  0  0  0
    1.0564   -0.6012    0.4911 C   0  0  0  0  0  0  0  0  0  0  0  0
    5.6252   -0.3200   -1.1303 C   0  0  0  0  0  0  0  0  0  0  0  0
    5.1354   -1.8937    0.7489 C   0  0  0  0  0  0  0  0  0  0  0  0
  1  7  1  0
  1 11  1  0
  2 11  2  0
  3  9  1  0
  3 16  1  0
  3 17  1  0
  4  5  1  0
  4  6  1  0
  5  7  1  0
  6  8  1  0
  9 12  2  0
  9 13  1  0
 10 11  1  0
 10 14  2  0
 10 15  1  0
 12 14  1  0
 13 15  2  0
M  END
>  <PUBCHEM_COMPOUND_CID>  (1) 
26890

>  <PUBCHEM_CONFORMER_RMSD>  (1) 
0.8

>  <PUBCHEM_CONFORMER_DIVERSEORDER>  (1) 
1
53
7
31
24
54
42
6
59
3
27
22
60
41
9
52
23
21
2
4
15
14
26
36
5
25
44
56
61
19
51
16
55
38
58
43
29
33
17
30
48
10
35
34
62
12
8
45
57
13
18
39
40
50
46
11
47
63
28
49
32
20
37

>  <PUBCHEM_MMFF94_PARTIAL_CHARGES>  (1) 
17
1 -0.43
10 0.09
11 0.63
12 -0.15
13 -0.15
14 -0.15
15 -0.15
16 0.37
17 0.37
2 -0.57
29 0.15
3 -0.84
30 0.15
31 0.15
32 0.15
7 0.28
9 0.1

>  <PUBCHEM_EFFECTIVE_ROTOR_COUNT>  (1) 
7

>  <PUBCHEM_PHARMACOPHORE_FEATURES>  (1) 
4
1 2 acceptor
1 3 cation
1 8 hydrophobe
6 9 10 12 13 14 15 rings

>  <PUBCHEM_HEAVY_ATOM_COUNT>  (1) 
17

>  <PUBCHEM_ATOM_DEF_STEREO_COUNT>  (1) 
0

>  <PUBCHEM_ATOM_UDEF_STEREO_COUNT>  (1) 
0

>  <PUBCHEM_BOND_DEF_STEREO_COUNT>  (1) 
0

>  <PUBCHEM_BOND_UDEF_STEREO_COUNT>  (1) 
0

>  <PUBCHEM_ISOTOPIC_ATOM_COUNT>  (1) 
0

>  <PUBCHEM_COMPONENT_COUNT>  (1) 
1

>  <PUBCHEM_CACTVS_TAUTO_COUNT>  (1) 
1

>  <PUBCHEM_CONFORMER_ID>  (1) 
0000690A00000001

>  <PUBCHEM_MMFF94_ENERGY>  (1) 
48.3967

>  <PUBCHEM_FEATURE_SELFOVERLAP>  (1) 
20.297

>  <PUBCHEM_SHAPE_FINGERPRINT>  (1) 
10 15 12175618499511999967
100836 57 8862941688831713099
10753850 27 18408036304051774419
11089746 13 11819283295003995470
11724838 91 9943518623172202065
11806522 49 18336548231531032944
12236239 1 18202568388916324689
12596602 18 16917068884602670315
12714333 28 14345793859721825199
13668630 136 18343586257116352431
13685833 64 18413109476825668203
13862211 1 18409729534705080474
14123256 34 18343309175680136847
14251752 14 18261668187113439501
14350574 20 18334575750319704589
14576447 43 18335421244839137458
15048467 5 8790882982117843079
15188451 53 15769198575564001663
19784866 240 18341900697121545281
200 152 18409729538767809185
20028762 73 18343299258284775918
20281389 69 10735878361371074419
20526848 3 8574712420940215543
20645477 70 18408321090416692967
21150785 3 18260835916687359516
21267235 1 18413113861665400631
21637258 2 18201429281868885231
221357 26 18187078460472129341
221490 88 18116724099680906338
22224240 67 15841544184737899143
22956985 138 17415017754530549502
23402539 116 18338515240078378540
23522609 53 18121532143776296405
23559900 14 18263920120187200961
2767999 5 10737283558885342511
28498 318 18412261723723039583
2871803 45 18113615690320494617
29717793 49 18342178869083854317
3004659 81 18260264161829434859
33382 64 16845021108881041102
351380 3 18342172272077611799
465052 167 18272655661916477343
5104073 3 18130783430290452880
559249 180 18342737395880193939
59682541 35 18272358811784769154
8863177 126 18117847818488720083

>  <PUBCHEM_SHAPE_MULTIPOLES>  (1) 
333.13
16.17
1.8
0.78
22.82
0.41
0.06
-10.15
2.98
-0.73
-0.28
-0.59
-0.06
-0.8

>  <PUBCHEM_SHAPE_SELFOVERLAP>  (1) 
667.004

>  <PUBCHEM_SHAPE_VOLUME>  (1) 
197.7

>  <PUBCHEM_COORDINATE_TYPE>  (1) 
2
5
10

$$$$
