26892
     RDKit          3D

 20 20  0  0  1  0  0  0  0  0999 V2000
    2.4094    2.9946   -0.0792 N   0  0  0  0  0  0  0  0  0  0  0  0
    2.5052   -1.3001    2.4024 N   0  0  0  0  0  0  0  0  0  0  0  0
    1.5222   -0.7912   -0.0082 C   0  0  0  0  0  0  0  0  0  0  0  0
    1.9936   -1.9454   -0.9917 C   0  0  0  0  0  0  0  0  0  0  0  0
    2.1332    0.5836   -0.4612 C   0  0  0  0  0  0  0  0  0  0  0  0
   -0.0222   -0.7060   -0.0356 C   0  0  0  0  0  0  0  0  0  0  0  0
    1.7833    1.7811    0.4392 C   0  0  0  0  0  0  0  0  0  0  0  0
    3.5192   -2.0433   -1.1670 C   0  0  0  0  0  0  0  0  0  0  0  0
    1.4597   -3.3354   -0.5966 C   0  0  0  0  0  0  0  0  0  0  0  0
    2.0662   -1.0791    1.3505 C   0  0  0  0  0  0  0  0  0  0  0  0
   -0.6294   -0.4455   -1.2333 C   0  0  0  0  0  0  0  0  0  0  0  0
   -0.6963   -0.8950    1.1395 C   0  0  0  0  0  0  0  0  0  0  0  0
   -2.7517   -0.5543   -0.0839 C   0  0  0  0  0  0  0  0  0  0  0  0
   -2.0219   -0.3682   -1.2580 C   0  0  0  0  0  0  0  0  0  0  0  0
   -2.0889   -0.8177    1.1148 C   0  0  0  0  0  0  0  0  0  0  0  0
   -4.2404   -0.4712   -0.1102 C   0  0  0  0  0  0  0  0  0  0  0  0
    1.9519    3.2661   -1.4421 C   0  0  0  0  0  0  0  0  0  0  0  0
    2.1195    4.1337    0.7922 C   0  0  0  0  0  0  0  0  0  0  0  0
   -4.7478    0.9549    0.1454 C   0  0  0  0  0  0  0  0  0  0  0  0
   -6.2647    1.0386    0.0831 C   0  0  0  0  0  0  0  0  0  0  0  0
  1  7  1  0
  1 17  1  0
  1 18  1  0
  2 10  3  0
  3  4  1  0
  3  5  1  0
  3  6  1  0
  3 10  1  0
  4  8  1  0
  4  9  1  0
  5  7  1  0
  6 11  2  0
  6 12  1  0
 11 14  1  0
 12 15  2  0
 13 14  2  0
 13 15  1  0
 13 16  1  0
 16 19  1  0
 19 20  1  0
M  END
>  <PUBCHEM_COMPOUND_CID>  (1) 
26892

>  <PUBCHEM_CONFORMER_RMSD>  (1) 
0.8

>  <PUBCHEM_CONFORMER_DIVERSEORDER>  (1) 
1
96
97
92
87
56
64
19
93
94
75
41
98
50
59
91
82
84
28
52
74
36
99
15
24
78
85
65
58
76
11
60
71
13
83
39
5
68
44
25
73
14
16
77
7
79
69
38
70
12
88
23
26
80
51
67
9
62
55
33
47
89
31
66
86
49
27
63
6
95
46
61
81
37
40
90
57
72
54
8
21
42
10
32
29
48
35
34
20
17
43
53
45
18
22
30
3
2
4

>  <PUBCHEM_MMFF94_PARTIAL_CHARGES>  (1) 
18
1 -0.81
10 0.36
11 -0.15
12 -0.15
13 -0.14
14 -0.15
15 -0.15
16 0.14
17 0.27
18 0.27
2 -0.56
3 0.34
32 0.15
33 0.15
34 0.15
35 0.15
6 -0.14
7 0.27

>  <PUBCHEM_EFFECTIVE_ROTOR_COUNT>  (1) 
7

>  <PUBCHEM_PHARMACOPHORE_FEATURES>  (1) 
5
1 1 cation
1 2 acceptor
1 20 hydrophobe
3 4 8 9 hydrophobe
6 6 11 12 13 14 15 rings

>  <PUBCHEM_HEAVY_ATOM_COUNT>  (1) 
20

>  <PUBCHEM_ATOM_DEF_STEREO_COUNT>  (1) 
0

>  <PUBCHEM_ATOM_UDEF_STEREO_COUNT>  (1) 
1

>  <PUBCHEM_BOND_DEF_STEREO_COUNT>  (1) 
0

>  <PUBCHEM_BOND_UDEF_STEREO_COUNT>  (1) 
0

>  <PUBCHEM_ISOTOPIC_ATOM_COUNT>  (1) 
0

>  <PUBCHEM_COMPONENT_COUNT>  (1) 
1

>  <PUBCHEM_CACTVS_TAUTO_COUNT>  (1) 
1

>  <PUBCHEM_CONFORMER_ID>  (1) 
0000690C00000001

>  <PUBCHEM_MMFF94_ENERGY>  (1) 
55.2096

>  <PUBCHEM_FEATURE_SELFOVERLAP>  (1) 
25.372

>  <PUBCHEM_SHAPE_FINGERPRINT>  (1) 
10382601 240 18187916343787702872
11089746 13 17969485041085124781
11477941 20 15389232979899887084
11578080 2 17679052471411955889
12173636 292 17621318365235045372
12617007 42 18200041633411478806
12633257 1 17314486309662613584
12788726 201 17758406175435305434
13134695 92 18339365145476516406
13590594 115 18123485894386885769
13878862 14 18262216860738572509
13965767 371 18194661860572307600
14115302 16 17275101713283091087
14289901 80 18272933856192587043
15420108 30 18197198459788404456
16945 1 18338783538085194071
17844677 252 18341342107008218441
17980427 23 18055602192584877242
1813 80 17700998564720723422
18186145 218 18113334198522844759
20723712 36 18269816736289976272
21304303 282 16839915213015140660
21503847 285 18409732824908361973
21524375 3 17831010596140284028
22224240 67 8285329687519127846
2255824 54 18343868813818381086
23419403 2 17322164221493319706
23559900 14 18342178851972868335
3060560 45 18342461447846327558
31174 14 17895181199739995139
3286 77 17532080618946033395
394222 165 18118955026075125688
474 4 18410853304492585145
495365 180 18410292553488423429
5104073 3 18187368740643311897
56616090 278 18113902688319575960
5895379 119 17701835297190536545
7364860 26 18412548725499714332
81228 2 17689702070534697388
8272917 22 18342181059395946823
84936 182 18129945714157343353
9841814 1 18187920638590936251
9971528 1 18201433615095364963
9981440 41 18053095417616292377

>  <PUBCHEM_SHAPE_MULTIPOLES>  (1) 
401.63
8.14
3.94
1.51
16.5
4.23
-0.44
2.04
0.14
-5.81
0.45
-1.06
-0.31
0.17

>  <PUBCHEM_SHAPE_SELFOVERLAP>  (1) 
804.699

>  <PUBCHEM_SHAPE_VOLUME>  (1) 
237

>  <PUBCHEM_COORDINATE_TYPE>  (1) 
2
5
10

$$$$
