26894
     RDKit          3D

 21 21  0  0  1  0  0  0  0  0999 V2000
    2.2152    3.1307   -0.0803 N   0  0  0  0  0  0  0  0  0  0  0  0
    2.7371   -1.1264    2.4129 N   0  0  0  0  0  0  0  0  0  0  0  0
    1.7289   -0.7271   -0.0079 C   0  0  0  0  0  0  0  0  0  0  0  0
    2.3278   -1.8270   -0.9840 C   0  0  0  0  0  0  0  0  0  0  0  0
    2.1967    0.7035   -0.4587 C   0  0  0  0  0  0  0  0  0  0  0  0
    0.1843   -0.8042   -0.0496 C   0  0  0  0  0  0  0  0  0  0  0  0
    1.7149    1.8591    0.4353 C   0  0  0  0  0  0  0  0  0  0  0  0
    1.9387   -3.2647   -0.5903 C   0  0  0  0  0  0  0  0  0  0  0  0
    3.8568   -1.7649   -1.1451 C   0  0  0  0  0  0  0  0  0  0  0  0
   -0.4355   -0.6107   -1.2534 C   0  0  0  0  0  0  0  0  0  0  0  0
   -0.4772   -1.0610    1.1197 C   0  0  0  0  0  0  0  0  0  0  0  0
    2.2872   -0.9543    1.3565 C   0  0  0  0  0  0  0  0  0  0  0  0
   -2.5454   -0.9394   -0.1233 C   0  0  0  0  0  0  0  0  0  0  0  0
   -4.0343   -1.0128   -0.1634 C   0  0  0  0  0  0  0  0  0  0  0  0
   -1.8282   -0.6797   -1.2911 C   0  0  0  0  0  0  0  0  0  0  0  0
   -1.8699   -1.1300    1.0821 C   0  0  0  0  0  0  0  0  0  0  0  0
   -4.7497    0.3390    0.0802 C   0  0  0  0  0  0  0  0  0  0  0  0
    1.7995    4.2345    0.7854 C   0  0  0  0  0  0  0  0  0  0  0  0
    1.7446    3.3506   -1.4481 C   0  0  0  0  0  0  0  0  0  0  0  0
   -4.3154    0.9816    1.4000 C   0  0  0  0  0  0  0  0  0  0  0  0
   -4.4762    1.3031   -1.0768 C   0  0  0  0  0  0  0  0  0  0  0  0
  1  7  1  0
  1 18  1  0
  1 19  1  0
  2 12  3  0
  3  4  1  0
  3  5  1  0
  3  6  1  0
  3 12  1  0
  4  8  1  0
  4  9  1  0
  5  7  1  0
  6 10  2  0
  6 11  1  0
 10 15  1  0
 11 16  2  0
 13 14  1  0
 13 15  2  0
 13 16  1  0
 14 17  1  0
 17 20  1  0
 17 21  1  0
M  END
>  <PUBCHEM_COMPOUND_CID>  (1) 
26894

>  <PUBCHEM_CONFORMER_RMSD>  (1) 
0.8

>  <PUBCHEM_CONFORMER_DIVERSEORDER>  (1) 
1
14
38
16
29
10
33
37
19
13
26
41
9
32
15
23
35
31
21
7
17
20
39
27
11
36
25
40
5
18
8
6
22
24
12
30
34
28
3
4
2

>  <PUBCHEM_MMFF94_PARTIAL_CHARGES>  (1) 
18
1 -0.81
10 -0.15
11 -0.15
12 0.36
13 -0.14
14 0.14
15 -0.15
16 -0.15
18 0.27
19 0.27
2 -0.56
3 0.34
33 0.15
34 0.15
37 0.15
38 0.15
6 -0.14
7 0.27

>  <PUBCHEM_EFFECTIVE_ROTOR_COUNT>  (1) 
7

>  <PUBCHEM_PHARMACOPHORE_FEATURES>  (1) 
5
1 1 cation
1 2 acceptor
3 17 20 21 hydrophobe
3 4 8 9 hydrophobe
6 6 10 11 13 15 16 rings

>  <PUBCHEM_HEAVY_ATOM_COUNT>  (1) 
21

>  <PUBCHEM_ATOM_DEF_STEREO_COUNT>  (1) 
0

>  <PUBCHEM_ATOM_UDEF_STEREO_COUNT>  (1) 
1

>  <PUBCHEM_BOND_DEF_STEREO_COUNT>  (1) 
0

>  <PUBCHEM_BOND_UDEF_STEREO_COUNT>  (1) 
0

>  <PUBCHEM_ISOTOPIC_ATOM_COUNT>  (1) 
0

>  <PUBCHEM_COMPONENT_COUNT>  (1) 
1

>  <PUBCHEM_CACTVS_TAUTO_COUNT>  (1) 
1

>  <PUBCHEM_CONFORMER_ID>  (1) 
0000690E00000001

>  <PUBCHEM_MMFF94_ENERGY>  (1) 
61.1707

>  <PUBCHEM_FEATURE_SELFOVERLAP>  (1) 
25.371

>  <PUBCHEM_SHAPE_FINGERPRINT>  (1) 
10366900 7 17677057841676487977
10382601 240 18115862061280329976
11089746 13 17897141586803330071
12173636 292 17548980413022634532
12422481 6 18192963051025886792
12617007 42 18271536286170270606
12633257 1 17532630516293655416
12788726 201 17902519186073531466
13134695 92 18340492140520748783
13583140 156 18336554841734056623
13590594 115 18267600012978916080
14178342 30 18058145358464254015
14289901 80 18200877378751320979
14866123 147 16392114389198526019
15163728 17 17536056671856608164
15210252 30 18116167571014965596
15238133 3 17897158027004520608
1601671 61 18412545379867890300
16945 1 18337096891669759991
17980427 23 18055884779994891450
18186145 218 18333169453768549459
19078846 21 18115018585326330787
20600515 1 18269257020157116530
20723712 36 18269536378078615592
21033648 29 17488161717769796035
21503847 285 18410017602630488249
21524375 3 17758954114483074488
21860390 5 18411695482796242573
2255824 54 18343306984978018030
23419403 2 17249260020729313690
23558518 356 17398101038672573878
23559900 14 18342177773841190007
3286 77 17676755497026756035
394222 165 18046897453622823528
474 4 18338513157303907761
5895379 119 17845667944884487281
7364860 26 18340491157279049964
81228 2 17833820582936287448
84936 182 18057890336216999657
9971528 1 18201433623648382762
9981440 41 17909262825419156921

>  <PUBCHEM_SHAPE_MULTIPOLES>  (1) 
422.21
7.77
3.95
1.62
9.88
4.89
-0.47
0.16
0.19
-4.95
0.42
-0.48
-0.11
0.19

>  <PUBCHEM_SHAPE_SELFOVERLAP>  (1) 
847.483

>  <PUBCHEM_SHAPE_VOLUME>  (1) 
248.8

>  <PUBCHEM_COORDINATE_TYPE>  (1) 
2
5
10

$$$$
