26900
     RDKit          3D

 22 22  0  0  1  0  0  0  0  0999 V2000
   -2.0419    2.3842   -1.4108 O   0  0  0  0  0  0  0  0  0  0  0  0
   -4.3337   -1.6831    0.3021 N   0  0  0  0  0  0  0  0  0  0  0  0
   -1.4245    0.4595   -2.4489 N   0  0  0  0  0  0  0  0  0  0  0  0
   -1.1706    0.5812    0.0298 C   0  0  0  0  0  0  0  0  0  0  0  0
   -1.4858    1.5478    1.2547 C   0  0  0  0  0  0  0  0  0  0  0  0
   -2.0874   -0.6970    0.1681 C   0  0  0  0  0  0  0  0  0  0  0  0
    0.3459    0.2473    0.0143 C   0  0  0  0  0  0  0  0  0  0  0  0
   -3.6021   -0.4270    0.1589 C   0  0  0  0  0  0  0  0  0  0  0  0
   -1.6169    1.2312   -1.3226 C   0  0  0  0  0  0  0  0  0  0  0  0
   -0.7815    2.9134    1.1933 C   0  0  0  0  0  0  0  0  0  0  0  0
   -1.2164    0.9315    2.6388 C   0  0  0  0  0  0  0  0  0  0  0  0
    4.4667   -0.6590   -0.0265 C   0  0  0  0  0  0  0  0  0  0  0  0
    1.1632    1.0372   -0.7417 C   0  0  0  0  0  0  0  0  0  0  0  0
    0.7705   -0.8158    0.7578 C   0  0  0  0  0  0  0  0  0  0  0  0
    3.0102   -0.3389   -0.0124 C   0  0  0  0  0  0  0  0  0  0  0  0
    2.5254    0.7375   -0.7553 C   0  0  0  0  0  0  0  0  0  0  0  0
    2.1328   -1.1155    0.7443 C   0  0  0  0  0  0  0  0  0  0  0  0
    5.3143    0.5385    0.5044 C   0  0  0  0  0  0  0  0  0  0  0  0
    4.9613   -0.9814   -1.4708 C   0  0  0  0  0  0  0  0  0  0  0  0
    4.8926   -1.8882    0.8432 C   0  0  0  0  0  0  0  0  0  0  0  0
   -4.0510   -2.5725   -0.8247 C   0  0  0  0  0  0  0  0  0  0  0  0
   -5.7712   -1.4309    0.4042 C   0  0  0  0  0  0  0  0  0  0  0  0
  1  9  2  0
  2  8  1  0
  2 21  1  0
  2 22  1  0
  3  9  1  0
  4  5  1  0
  4  6  1  0
  4  7  1  0
  4  9  1  0
  5 10  1  0
  5 11  1  0
  6  8  1  0
  7 13  2  0
  7 14  1  0
 12 15  1  0
 12 18  1  0
 12 19  1  0
 12 20  1  0
 13 16  1  0
 14 17  2  0
 15 16  2  0
 15 17  1  0
M  END
>  <PUBCHEM_COMPOUND_CID>  (1) 
26900

>  <PUBCHEM_CONFORMER_RMSD>  (1) 
0.8

>  <PUBCHEM_CONFORMER_DIVERSEORDER>  (1) 
2
38
31
29
1
39
44
43
41
35
36
46
16
33
12
21
42
14
15
34
10
6
30
8
19
40
27
5
9
11
17
3
26
24
18
47
4
37
28
20
45
25
32
23
22
7
13

>  <PUBCHEM_MMFF94_PARTIAL_CHARGES>  (1) 
21
1 -0.57
12 0.14
13 -0.15
14 -0.15
15 -0.14
16 -0.15
17 -0.15
2 -0.81
21 0.27
22 0.27
3 -0.8
34 0.15
35 0.15
36 0.15
37 0.15
4 0.2
47 0.37
48 0.37
7 -0.14
8 0.27
9 0.57

>  <PUBCHEM_EFFECTIVE_ROTOR_COUNT>  (1) 
7

>  <PUBCHEM_PHARMACOPHORE_FEATURES>  (1) 
6
1 1 acceptor
1 2 cation
1 3 donor
3 5 10 11 hydrophobe
4 12 18 19 20 hydrophobe
6 7 13 14 15 16 17 rings

>  <PUBCHEM_HEAVY_ATOM_COUNT>  (1) 
22

>  <PUBCHEM_ATOM_DEF_STEREO_COUNT>  (1) 
0

>  <PUBCHEM_ATOM_UDEF_STEREO_COUNT>  (1) 
1

>  <PUBCHEM_BOND_DEF_STEREO_COUNT>  (1) 
0

>  <PUBCHEM_BOND_UDEF_STEREO_COUNT>  (1) 
0

>  <PUBCHEM_ISOTOPIC_ATOM_COUNT>  (1) 
0

>  <PUBCHEM_COMPONENT_COUNT>  (1) 
1

>  <PUBCHEM_CACTVS_TAUTO_COUNT>  (1) 
2

>  <PUBCHEM_CONFORMER_ID>  (1) 
0000691400000002

>  <PUBCHEM_MMFF94_ENERGY>  (1) 
86.92

>  <PUBCHEM_FEATURE_SELFOVERLAP>  (1) 
30.446

>  <PUBCHEM_SHAPE_FINGERPRINT>  (1) 
10366900 7 17167871863501419192
11045515 52 18334293175737063701
12236239 1 18409172116743240091
12516196 113 18130224960409790275
12633257 1 17559968774071445355
12714826 92 18339631287778344847
12892183 10 14764086566003930743
12916754 54 18335140865116029964
12969540 37 17620461846014936015
13103583 49 17560251331232338811
13140716 1 12103547685522783650
13544653 18 18339085998672708283
13583140 156 17130693986679470338
14178342 30 18127699231744973486
14787075 74 18266173014806005600
14863182 85 16106969942811986951
15238133 3 11600012080396450866
16945 1 17821727273322032265
17349148 13 16226045561772089490
17357779 13 17167869676740482445
17492 89 18271528577142427870
17980427 23 16343439370740942417
17980427 26 17410767386670763613
1813 80 18202010966190246101
18186145 218 15140956309774941445
187816 3 15502373448214928819
19784866 140 17240193353230804635
200 152 18333732424690242843
20600515 1 17702965728582736001
20681651 13 18263919939186404912
21033648 29 14261355709031887267
21267235 1 18187091676076202811
21637258 2 18342169003660350959
23352939 185 18187089489558067213
23402539 116 18201999936571830783
23419403 2 17986934401733769945
23557571 272 18342743992016323054
23559900 14 18340761636955158961
268830 7 12535048790750553418
2838139 119 8141815954037198259
2871803 45 17603299362594578634
3027735 51 18041276561213828707
3286 77 18409731793747140796
4325135 7 18338518646567420364
497634 4 18341342114976018316
5104073 3 17631732656765503858
56616090 284 16226048920325687027
59755656 215 18200882776966108263

>  <PUBCHEM_SHAPE_MULTIPOLES>  (1) 
436.92
10.62
2.41
1.73
3.82
0.55
-0.14
-8
0.32
-2.12
0.26
-0.44
0.67
-0.23

>  <PUBCHEM_SHAPE_SELFOVERLAP>  (1) 
883.995

>  <PUBCHEM_SHAPE_VOLUME>  (1) 
258

>  <PUBCHEM_COORDINATE_TYPE>  (1) 
2
5
10

$$$$
