26907
     RDKit          3D

 15 15  0  0  0  0  0  0  0  0999 V2000
   -2.9976   -0.6605   -0.0073 O   0  0  0  0  0  0  0  0  0  0  0  0
    3.2377    0.4473    1.4982 O   0  0  0  0  0  0  0  0  0  0  0  0
    4.8393    1.9569   -0.0706 O   0  0  0  0  0  0  0  0  0  0  0  0
    4.1320    0.8645   -0.5899 N   0  0  0  0  0  0  0  0  0  0  0  0
    1.1385   -0.9040   -0.2585 C   0  0  0  0  0  0  0  0  0  0  0  0
    2.6242   -0.9919   -0.3487 C   0  0  0  0  0  0  0  0  0  0  0  0
    0.4713   -1.4676    0.8291 C   0  0  0  0  0  0  0  0  0  0  0  0
    0.4156   -0.2585   -1.2618 C   0  0  0  0  0  0  0  0  0  0  0  0
   -1.6415   -0.7400   -0.0898 C   0  0  0  0  0  0  0  0  0  0  0  0
   -0.9185   -1.3855    0.9134 C   0  0  0  0  0  0  0  0  0  0  0  0
   -0.9743   -0.1764   -1.1776 C   0  0  0  0  0  0  0  0  0  0  0  0
    3.3506    0.1739    0.3059 C   0  0  0  0  0  0  0  0  0  0  0  0
   -3.6190    0.4769   -0.6038 C   0  0  0  0  0  0  0  0  0  0  0  0
   -4.8966    0.7579    0.1152 C   0  0  0  0  0  0  0  0  0  0  0  0
   -5.1617    1.9070    0.7462 C   0  0  0  0  0  0  0  0  0  0  0  0
  1  9  1  0
  1 13  1  0
  2 12  2  0
  3  4  1  0
  4 12  1  0
  5  6  1  0
  5  7  2  0
  5  8  1  0
  6 12  1  0
  7 10  1  0
  8 11  2  0
  9 10  2  0
  9 11  1  0
 13 14  1  0
 14 15  2  0
M  END
>  <PUBCHEM_COMPOUND_CID>  (1) 
26907

>  <PUBCHEM_CONFORMER_RMSD>  (1) 
0.8

>  <PUBCHEM_CONFORMER_DIVERSEORDER>  (1) 
1
24
9
19
15
13
25
22
4
8
6
2
11
12
3
18
5
20
16
17
21
7
23
14
10

>  <PUBCHEM_MMFF94_PARTIAL_CHARGES>  (1) 
24
1 -0.36
10 -0.15
11 -0.15
12 0.57
13 0.42
14 -0.29
15 -0.3
18 0.15
19 0.15
2 -0.57
20 0.15
21 0.15
24 0.37
25 0.15
26 0.15
27 0.15
28 0.4
3 -0.44
4 -0.39
5 -0.14
6 0.2
7 -0.15
8 -0.15
9 0.08

>  <PUBCHEM_EFFECTIVE_ROTOR_COUNT>  (1) 
6

>  <PUBCHEM_PHARMACOPHORE_FEATURES>  (1) 
5
1 1 acceptor
1 15 hydrophobe
1 2 acceptor
1 4 donor
6 5 7 8 9 10 11 rings

>  <PUBCHEM_HEAVY_ATOM_COUNT>  (1) 
15

>  <PUBCHEM_ATOM_DEF_STEREO_COUNT>  (1) 
0

>  <PUBCHEM_ATOM_UDEF_STEREO_COUNT>  (1) 
0

>  <PUBCHEM_BOND_DEF_STEREO_COUNT>  (1) 
0

>  <PUBCHEM_BOND_UDEF_STEREO_COUNT>  (1) 
0

>  <PUBCHEM_ISOTOPIC_ATOM_COUNT>  (1) 
0

>  <PUBCHEM_COMPONENT_COUNT>  (1) 
1

>  <PUBCHEM_CACTVS_TAUTO_COUNT>  (1) 
3

>  <PUBCHEM_CONFORMER_ID>  (1) 
0000691B00000001

>  <PUBCHEM_MMFF94_ENERGY>  (1) 
38.6782

>  <PUBCHEM_FEATURE_SELFOVERLAP>  (1) 
25.371

>  <PUBCHEM_SHAPE_FINGERPRINT>  (1) 
11132069 177 17313105237628116479
11543360 7 17274810381387844303
11769659 78 8214139659747519063
12032990 46 11455886983767453519
122479 349 18334859475891037150
12251169 10 16660364800547275358
12596602 18 17385730192519477465
12670543 26 13758082857319722177
12892183 10 15719384006296172413
13675066 3 15430309213825446775
13690532 89 9727629505893384941
14178000 29 10303807683518767523
14251764 75 17608109859358798140
14252887 29 16298669378212150371
14445660 50 17677050252052771730
14911166 2 14189568637645393287
14993402 34 15913328008986191234
15209294 21 18259704489036248191
17959699 21 18130791105713384953
18186145 218 18335979766328134791
19026448 5 18201708531952751807
193927 3 8214135304941032633
20374829 77 11167953441363581468
20621476 91 16516263937015728641
20871999 31 17131537423867240759
212847 35 18272367547157495816
21637258 2 10881682450878177465
22713019 99 11815894561238145373
23379529 103 11238839008069037629
23402655 69 17775283854619245453
23500284 214 18260832613462025611
23557571 272 18059583537385315687
23559900 14 18412547574744469134
26918003 58 12973597837840690743
270888 7 18339360881017563824
2748010 2 16663159600413331959
2838139 119 17988635298644963648
2871803 45 12247681551941580317
2916195 48 18408887339163583913
29717793 49 9439105535037147153
4047638 21 18340489971725891575
42 15 12757153459259379511
4259306 186 11024109836992027513
449060 50 18260830375958111711
449060 62 18412261718526030998
474 4 18408887351663428829
4990 188 12607396685463646543
5104073 3 18040434403688390442
58807428 26 17167858668818794914
633830 44 18411696565075396374
76465 3 9727642687121804940

>  <PUBCHEM_SHAPE_MULTIPOLES>  (1) 
286.1
10.04
1.64
1.14
4.21
0.48
-0.02
7.99
-1.48
-0.34
-0.36
-0.16
-0.04
-0.31

>  <PUBCHEM_SHAPE_SELFOVERLAP>  (1) 
581.97

>  <PUBCHEM_SHAPE_VOLUME>  (1) 
166

>  <PUBCHEM_COORDINATE_TYPE>  (1) 
2
5
10

$$$$
