26909
     RDKit          3D

 19 19  0  0  1  0  0  0  0  0999 V2000
   -4.3695    0.8166    0.4006 O   0  0  0  0  0  0  0  0  0  0  0  0
    2.8174    2.4540   -0.1039 N   0  0  0  0  0  0  0  0  0  0  0  0
    1.9803   -1.8456    2.2252 N   0  0  0  0  0  0  0  0  0  0  0  0
    0.9639   -0.9646   -0.0611 C   0  0  0  0  0  0  0  0  0  0  0  0
    1.0242   -2.1460   -1.1204 C   0  0  0  0  0  0  0  0  0  0  0  0
    1.8774    0.2247   -0.5299 C   0  0  0  0  0  0  0  0  0  0  0  0
   -0.4984   -0.4760    0.0655 C   0  0  0  0  0  0  0  0  0  0  0  0
    1.9381    1.4205    0.4363 C   0  0  0  0  0  0  0  0  0  0  0  0
    0.1757   -3.3670   -0.7172 C   0  0  0  0  0  0  0  0  0  0  0  0
    2.4476   -2.6307   -1.4471 C   0  0  0  0  0  0  0  0  0  0  0  0
    1.5268   -1.4595    1.2285 C   0  0  0  0  0  0  0  0  0  0  0  0
   -1.0944   -0.5468    1.2944 C   0  0  0  0  0  0  0  0  0  0  0  0
   -1.1153   -0.0001   -1.0588 C   0  0  0  0  0  0  0  0  0  0  0  0
   -2.4130   -0.1065    1.4084 C   0  0  0  0  0  0  0  0  0  0  0  0
   -2.4339    0.4404   -0.9449 C   0  0  0  0  0  0  0  0  0  0  0  0
    2.9177    3.5794    0.8257 C   0  0  0  0  0  0  0  0  0  0  0  0
    2.3328    2.9107   -1.4066 C   0  0  0  0  0  0  0  0  0  0  0  0
   -3.0828    0.3873    0.2888 C   0  0  0  0  0  0  0  0  0  0  0  0
   -4.9948    1.3093   -0.7836 C   0  0  0  0  0  0  0  0  0  0  0  0
  1 18  1  0
  1 19  1  0
  2  8  1  0
  2 16  1  0
  2 17  1  0
  3 11  3  0
  4  5  1  0
  4  6  1  0
  4  7  1  0
  4 11  1  0
  5  9  1  0
  5 10  1  0
  6  8  1  0
  7 12  2  0
  7 13  1  0
 12 14  1  0
 13 15  2  0
 14 18  2  0
 15 18  1  0
M  END
>  <PUBCHEM_COMPOUND_CID>  (1) 
26909

>  <PUBCHEM_CONFORMER_RMSD>  (1) 
0.8

>  <PUBCHEM_CONFORMER_DIVERSEORDER>  (1) 
1
15
23
20
11
22
21
8
10
14
18
9
7
17
12
6
19
4
13
16
5
2
3

>  <PUBCHEM_MMFF94_PARTIAL_CHARGES>  (1) 
19
1 -0.36
11 0.36
12 -0.15
13 -0.15
14 -0.15
15 -0.15
16 0.27
17 0.27
18 0.08
19 0.28
2 -0.81
3 -0.56
31 0.15
32 0.15
33 0.15
34 0.15
4 0.34
7 -0.14
8 0.27

>  <PUBCHEM_EFFECTIVE_ROTOR_COUNT>  (1) 
6

>  <PUBCHEM_PHARMACOPHORE_FEATURES>  (1) 
5
1 1 acceptor
1 2 cation
1 3 acceptor
3 5 9 10 hydrophobe
6 7 12 13 14 15 18 rings

>  <PUBCHEM_HEAVY_ATOM_COUNT>  (1) 
19

>  <PUBCHEM_ATOM_DEF_STEREO_COUNT>  (1) 
0

>  <PUBCHEM_ATOM_UDEF_STEREO_COUNT>  (1) 
1

>  <PUBCHEM_BOND_DEF_STEREO_COUNT>  (1) 
0

>  <PUBCHEM_BOND_UDEF_STEREO_COUNT>  (1) 
0

>  <PUBCHEM_ISOTOPIC_ATOM_COUNT>  (1) 
0

>  <PUBCHEM_COMPONENT_COUNT>  (1) 
1

>  <PUBCHEM_CACTVS_TAUTO_COUNT>  (1) 
1

>  <PUBCHEM_CONFORMER_ID>  (1) 
0000691D00000001

>  <PUBCHEM_MMFF94_ENERGY>  (1) 
67.6634

>  <PUBCHEM_FEATURE_SELFOVERLAP>  (1) 
25.371

>  <PUBCHEM_SHAPE_FINGERPRINT>  (1) 
10165383 225 17692014673863041924
12173636 292 17910958268075351396
12507560 14 17899682471574732763
12633257 1 16371550630966491624
13134695 92 17898828181051668462
13681431 1 18195537995308646286
13911987 19 17977985365132088270
14115302 16 17346026776068963479
14142880 1 17831001795388486341
14178342 30 17023476364300607467
14817 1 11534081987482244746
15906896 17 17613724034527819074
16945 1 18198367102940719074
17134986 127 18341617078639883412
17980427 23 17982977211787023922
1813 80 17342116809514984782
19765921 60 18268424814224123601
19786989 88 18411408506388152191
20600515 1 16960391575403587036
21304303 282 17269156821462721820
21330990 113 17121448506491314434
21524375 3 18192430998750148312
21731228 192 18045218499372555048
2255824 54 18129384813008804391
23419403 2 17325269186326922106
23557571 272 17750536103405770851
23558518 356 17902787797765420494
23559900 14 18270683056953041031
3060560 45 18342459192777448646
31174 14 17968370148414485993
3286 77 17605266273343736731
350125 39 18053680345386858750
394222 165 18336255846889199768
474 4 18342173379799255569
495365 180 18409443674798804181
7364860 26 18341336595610506156
81228 2 17185025069312193720
84936 182 18131917069739093809

>  <PUBCHEM_SHAPE_MULTIPOLES>  (1) 
375.18
6.26
3.87
1.63
8.24
0.71
-0.43
5.02
0.55
-5.17
0.84
-0.51
-0.5
0.4

>  <PUBCHEM_SHAPE_SELFOVERLAP>  (1) 
758.438

>  <PUBCHEM_SHAPE_VOLUME>  (1) 
220.3

>  <PUBCHEM_COORDINATE_TYPE>  (1) 
2
5
10

$$$$
