26908
     RDKit          3D

 21 21  0  0  1  0  0  0  0  0999 V2000
    3.1077    2.6314   -0.0737 N   0  0  0  0  0  0  0  0  0  0  0  0
    2.4660   -1.6457    2.3565 N   0  0  0  0  0  0  0  0  0  0  0  0
    1.5456   -0.9297   -0.0261 C   0  0  0  0  0  0  0  0  0  0  0  0
    1.7790   -2.1355   -1.0326 C   0  0  0  0  0  0  0  0  0  0  0  0
    2.3884    0.3173   -0.4768 C   0  0  0  0  0  0  0  0  0  0  0  0
    0.0425   -0.5639   -0.0185 C   0  0  0  0  0  0  0  0  0  0  0  0
    2.2808    1.5448    0.4445 C   0  0  0  0  0  0  0  0  0  0  0  0
   -4.0637    0.4330    0.0012 C   0  0  0  0  0  0  0  0  0  0  0  0
    1.0080   -3.4107   -0.6416 C   0  0  0  0  0  0  0  0  0  0  0  0
    3.2573   -2.5073   -1.2425 C   0  0  0  0  0  0  0  0  0  0  0  0
   -2.6144    0.0811   -0.0055 C   0  0  0  0  0  0  0  0  0  0  0  0
   -0.6317   -0.6452    1.1687 C   0  0  0  0  0  0  0  0  0  0  0  0
   -0.5305   -0.1798   -1.1999 C   0  0  0  0  0  0  0  0  0  0  0  0
    2.0543   -1.3325    1.3170 C   0  0  0  0  0  0  0  0  0  0  0  0
   -1.9872   -0.3164    1.1754 C   0  0  0  0  0  0  0  0  0  0  0  0
   -1.8860    0.1492   -1.1932 C   0  0  0  0  0  0  0  0  0  0  0  0
   -4.6567    0.8626   -1.3817 C   0  0  0  0  0  0  0  0  0  0  0  0
   -4.3517    1.6259    0.9647 C   0  0  0  0  0  0  0  0  0  0  0  0
   -4.9365   -0.7721    0.4705 C   0  0  0  0  0  0  0  0  0  0  0  0
    3.0478    3.7910    0.8166 C   0  0  0  0  0  0  0  0  0  0  0  0
    2.6810    3.0024   -1.4231 C   0  0  0  0  0  0  0  0  0  0  0  0
  1  7  1  0
  1 20  1  0
  1 21  1  0
  2 14  3  0
  3  4  1  0
  3  5  1  0
  3  6  1  0
  3 14  1  0
  4  9  1  0
  4 10  1  0
  5  7  1  0
  6 12  2  0
  6 13  1  0
  8 11  1  0
  8 17  1  0
  8 18  1  0
  8 19  1  0
 11 15  2  0
 11 16  1  0
 12 15  1  0
 13 16  2  0
M  END
>  <PUBCHEM_COMPOUND_CID>  (1) 
26908

>  <PUBCHEM_CONFORMER_RMSD>  (1) 
0.8

>  <PUBCHEM_CONFORMER_DIVERSEORDER>  (1) 
1
18
12
25
22
20
11
23
17
8
7
15
5
16
24
13
21
10
19
3
14
9
6
4
2

>  <PUBCHEM_MMFF94_PARTIAL_CHARGES>  (1) 
18
1 -0.81
11 -0.14
12 -0.15
13 -0.15
14 0.36
15 -0.15
16 -0.15
2 -0.56
20 0.27
21 0.27
3 0.34
33 0.15
34 0.15
35 0.15
36 0.15
6 -0.14
7 0.27
8 0.14

>  <PUBCHEM_EFFECTIVE_ROTOR_COUNT>  (1) 
6

>  <PUBCHEM_PHARMACOPHORE_FEATURES>  (1) 
5
1 1 cation
1 2 acceptor
3 4 9 10 hydrophobe
4 8 17 18 19 hydrophobe
6 6 11 12 13 15 16 rings

>  <PUBCHEM_HEAVY_ATOM_COUNT>  (1) 
21

>  <PUBCHEM_ATOM_DEF_STEREO_COUNT>  (1) 
0

>  <PUBCHEM_ATOM_UDEF_STEREO_COUNT>  (1) 
1

>  <PUBCHEM_BOND_DEF_STEREO_COUNT>  (1) 
0

>  <PUBCHEM_BOND_UDEF_STEREO_COUNT>  (1) 
0

>  <PUBCHEM_ISOTOPIC_ATOM_COUNT>  (1) 
0

>  <PUBCHEM_COMPONENT_COUNT>  (1) 
1

>  <PUBCHEM_CACTVS_TAUTO_COUNT>  (1) 
1

>  <PUBCHEM_CONFORMER_ID>  (1) 
0000691C00000001

>  <PUBCHEM_MMFF94_ENERGY>  (1) 
73.5299

>  <PUBCHEM_FEATURE_SELFOVERLAP>  (1) 
25.371

>  <PUBCHEM_SHAPE_FINGERPRINT>  (1) 
10382601 240 18260823821885984432
12173636 292 17838336637689339340
12633257 1 17169247395302593160
12788726 201 17326910473545432450
13009979 54 17201096798120929834
13134695 92 18194972846284815342
13583140 156 17894897504619010171
13955234 65 18341621416282753675
14142880 1 17686605154016400140
14178342 30 16951415492954836307
14289901 80 18202002114790247451
14787075 74 18047474706191444537
14955137 171 18411132503490271338
16945 1 18266449915278847887
17134986 127 18269278035642922964
17980427 23 17983259816704117418
1813 80 18127408939422288086
18186145 218 18114750326496759267
18785283 64 18409173233582209158
19786989 88 18410846677178705887
20600515 1 17176563283938966628
20645477 70 18409730660039025511
21304303 282 17125043858412007884
21503847 285 18267030461897851697
21524375 3 18119245314535613032
2255824 54 18272937076711190598
23419403 2 17540308380679514562
23557571 272 17678195973344598603
23558518 356 17758391156356475990
23559900 14 18342177717980117971
3060560 45 18342177743876529334
31174 14 17968086495710099146
312423 11 17846509088965357219
3286 77 17677040223145945163
394222 165 18263637519375249416
474 4 18412539942006932625
495365 180 18409162225317467293
5104073 3 18113620067557132921
5895379 119 17558563399825338921
59755656 520 18123183773897781756
633830 44 18340207389248647961
7364860 26 18412831265712651948
7808743 9 17616539896702985876
81228 2 17329414053168982732
84936 182 18130791191285930136
9841814 1 18188205377964383490
9971528 1 18057317293190353954

>  <PUBCHEM_SHAPE_MULTIPOLES>  (1) 
422.21
8.27
3.7
1.62
10.5
1.8
-0.32
3.28
0.21
-6.16
0.44
-0.45
-0.25
0.21

>  <PUBCHEM_SHAPE_SELFOVERLAP>  (1) 
852.449

>  <PUBCHEM_SHAPE_VOLUME>  (1) 
247.4

>  <PUBCHEM_COORDINATE_TYPE>  (1) 
2
5
10

$$$$
