26910
     RDKit          3D

 19 19  0  0  1  0  0  0  0  0999 V2000
    5.3268   -1.5188   -0.0899 Cl  0  0  0  0  0  0  0  0  0  0  0  0
   -0.9641    2.4302   -1.3696 O   0  0  0  0  0  0  0  0  0  0  0  0
   -3.7459   -1.3430    0.2898 N   0  0  0  0  0  0  0  0  0  0  0  0
   -0.6008    0.4613   -2.4443 N   0  0  0  0  0  0  0  0  0  0  0  0
   -0.3222    0.5061    0.0343 C   0  0  0  0  0  0  0  0  0  0  0  0
   -0.5066    1.4832    1.2775 C   0  0  0  0  0  0  0  0  0  0  0  0
   -1.3932   -0.6477    0.1573 C   0  0  0  0  0  0  0  0  0  0  0  0
    1.1395   -0.0171    0.0029 C   0  0  0  0  0  0  0  0  0  0  0  0
   -2.8614   -0.1876    0.1629 C   0  0  0  0  0  0  0  0  0  0  0  0
   -0.6886    1.2312   -1.3038 C   0  0  0  0  0  0  0  0  0  0  0  0
    0.3651    2.7493    1.2344 C   0  0  0  0  0  0  0  0  0  0  0  0
   -0.3112    0.8134    2.6492 C   0  0  0  0  0  0  0  0  0  0  0  0
    2.0472    0.6757   -0.7451 C   0  0  0  0  0  0  0  0  0  0  0  0
    1.4290   -1.1395    0.7246 C   0  0  0  0  0  0  0  0  0  0  0  0
    3.3599    0.2050   -0.7741 C   0  0  0  0  0  0  0  0  0  0  0  0
    2.7418   -1.6102    0.6957 C   0  0  0  0  0  0  0  0  0  0  0  0
   -3.5835   -2.2411   -0.8538 C   0  0  0  0  0  0  0  0  0  0  0  0
   -5.1392   -0.9124    0.4059 C   0  0  0  0  0  0  0  0  0  0  0  0
    3.7074   -0.9379   -0.0537 C   0  0  0  0  0  0  0  0  0  0  0  0
  1 19  1  0
  2 10  2  0
  3  9  1  0
  3 17  1  0
  3 18  1  0
  4 10  1  0
  5  6  1  0
  5  7  1  0
  5  8  1  0
  5 10  1  0
  6 11  1  0
  6 12  1  0
  7  9  1  0
  8 13  2  0
  8 14  1  0
 13 15  1  0
 14 16  2  0
 15 19  2  0
 16 19  1  0
M  END
>  <PUBCHEM_COMPOUND_CID>  (1) 
26910

>  <PUBCHEM_CONFORMER_RMSD>  (1) 
0.8

>  <PUBCHEM_CONFORMER_DIVERSEORDER>  (1) 
2
13
28
21
29
23
12
6
30
20
14
26
25
17
1
11
19
9
16
5
10
24
22
3
4
7
18
15
27
8

>  <PUBCHEM_MMFF94_PARTIAL_CHARGES>  (1) 
21
1 -0.18
10 0.57
13 -0.15
14 -0.15
15 -0.15
16 -0.15
17 0.27
18 0.27
19 0.18
2 -0.57
3 -0.81
31 0.15
32 0.15
33 0.37
34 0.37
35 0.15
36 0.15
4 -0.8
5 0.2
8 -0.14
9 0.27

>  <PUBCHEM_EFFECTIVE_ROTOR_COUNT>  (1) 
6

>  <PUBCHEM_PHARMACOPHORE_FEATURES>  (1) 
5
1 2 acceptor
1 3 cation
1 4 donor
3 6 11 12 hydrophobe
6 8 13 14 15 16 19 rings

>  <PUBCHEM_HEAVY_ATOM_COUNT>  (1) 
19

>  <PUBCHEM_ATOM_DEF_STEREO_COUNT>  (1) 
0

>  <PUBCHEM_ATOM_UDEF_STEREO_COUNT>  (1) 
1

>  <PUBCHEM_BOND_DEF_STEREO_COUNT>  (1) 
0

>  <PUBCHEM_BOND_UDEF_STEREO_COUNT>  (1) 
0

>  <PUBCHEM_ISOTOPIC_ATOM_COUNT>  (1) 
0

>  <PUBCHEM_COMPONENT_COUNT>  (1) 
1

>  <PUBCHEM_CACTVS_TAUTO_COUNT>  (1) 
2

>  <PUBCHEM_CONFORMER_ID>  (1) 
0000691E00000002

>  <PUBCHEM_MMFF94_ENERGY>  (1) 
67.3935

>  <PUBCHEM_FEATURE_SELFOVERLAP>  (1) 
25.371

>  <PUBCHEM_SHAPE_FINGERPRINT>  (1) 
10610426 29 18341331175477835929
11578080 2 18339344340739940809
12633257 1 17560530603001401331
12714826 92 18339069406939542303
12892183 10 14764079951348203967
12916754 54 18335988558801117382
12969540 37 17909535495734463982
13134695 92 18059291088846499193
13544653 18 18411989086808121451
14787075 74 17984702483233747496
14863182 85 16467538258027476583
15375462 189 18411983589355555643
15422964 175 17703799076264730174
15906896 17 17627224559479341553
16945 1 17968103057093579408
17980427 23 16271938107863932321
1813 80 18336283278882144847
18186145 218 15213020474722487607
187816 3 15574436517893190378
19010151 120 18342752813900345760
19784866 140 16805315587801645331
200 152 18333735697808880146
20600515 1 17560538256195084689
21452121 71 18338808912914950425
23184049 59 13973971999381899379
23402539 116 16805324349307945790
23419403 2 18268969007897529553
23526113 38 16733556059940662105
23557571 272 18270684164970123006
25222932 49 15614664672622525495
2871803 45 17676486138158204790
3286 77 18410576197550433420
56616090 284 16298393456738936298
83771 10 18409449197889213959

>  <PUBCHEM_SHAPE_MULTIPOLES>  (1) 
377.05
7.86
2.36
1.74
0.31
0.9
-0.09
-7.18
0.23
-0.68
0.28
-0.35
0.89
-0.3

>  <PUBCHEM_SHAPE_SELFOVERLAP>  (1) 
756.461

>  <PUBCHEM_SHAPE_VOLUME>  (1) 
223.4

>  <PUBCHEM_COORDINATE_TYPE>  (1) 
2
5
10

$$$$
