26921
     RDKit          3D

  7  6  0  0  0  0  0  0  0  0999 V2000
   -2.1761    1.0189    0.0329 Br  0  0  0  0  0  0  0  0  0  0  0  0
    0.6440    0.1019   -0.0043 N   0  0  0  0  0  0  0  0  0  0  0  0
    1.4491   -0.9947    0.6939 C   0  0  0  0  0  0  0  0  0  0  0  0
    1.1146    0.2826   -1.4479 C   0  0  0  0  0  0  0  0  0  0  0  0
    0.9045    1.4147    0.7380 C   0  0  0  0  0  0  0  0  0  0  0  0
   -0.7885   -0.2626    0.0020 C   0  0  0  0  0  0  0  0  0  0  0  0
   -1.1477   -1.5608   -0.0146 C   0  0  0  0  0  0  0  0  0  0  0  0
  1  6  1  0
  2  3  1  0
  2  4  1  0
  2  5  1  0
  2  6  1  0
  6  7  2  0
M  CHG  1   2   1
M  END
>  <PUBCHEM_COMPOUND_CID>  (1) 
26921

>  <PUBCHEM_CONFORMER_RMSD>  (1) 
0.4

>  <PUBCHEM_CONFORMER_DIVERSEORDER>  (1) 
1
2

>  <PUBCHEM_MMFF94_PARTIAL_CHARGES>  (1) 
9
1 -0.11
17 0.15
18 0.15
2 -0.87
3 0.5
4 0.5
5 0.5
6 0.47
7 -0.3

>  <PUBCHEM_EFFECTIVE_ROTOR_COUNT>  (1) 
1

>  <PUBCHEM_PHARMACOPHORE_FEATURES>  (1) 
2
1 1 hydrophobe
1 2 cation

>  <PUBCHEM_HEAVY_ATOM_COUNT>  (1) 
7

>  <PUBCHEM_ATOM_DEF_STEREO_COUNT>  (1) 
0

>  <PUBCHEM_ATOM_UDEF_STEREO_COUNT>  (1) 
0

>  <PUBCHEM_BOND_DEF_STEREO_COUNT>  (1) 
0

>  <PUBCHEM_BOND_UDEF_STEREO_COUNT>  (1) 
0

>  <PUBCHEM_ISOTOPIC_ATOM_COUNT>  (1) 
0

>  <PUBCHEM_COMPONENT_COUNT>  (1) 
1

>  <PUBCHEM_CACTVS_TAUTO_COUNT>  (1) 
1

>  <PUBCHEM_CONFORMER_ID>  (1) 
0000692900000001

>  <PUBCHEM_MMFF94_ENERGY>  (1) 
30.5334

>  <PUBCHEM_FEATURE_SELFOVERLAP>  (1) 
10.148

>  <PUBCHEM_SHAPE_FINGERPRINT>  (1) 
137420 1 15503191441541794492
20096714 4 18411979148422382617
21040471 1 18409451358305158637
24536 1 17240760756611507651
29004967 10 16443913730427821160
5084963 1 17894910672972551585
5943 1 7846754135699619893

>  <PUBCHEM_SHAPE_MULTIPOLES>  (1) 
145.02
2.4
1.6
1.07
1.1
0.21
-0.32
-0.36
0.08
0.17
0.27
-0.48
-0.18
-0.11

>  <PUBCHEM_SHAPE_SELFOVERLAP>  (1) 
247.652

>  <PUBCHEM_SHAPE_VOLUME>  (1) 
101.5

>  <PUBCHEM_COORDINATE_TYPE>  (1) 
2
5
10

$$$$
