26926
     RDKit          3D

 19 19  0  0  0  0  0  0  0  0999 V2000
    2.3685    0.4362    0.8139 P   0  0  0  0  0  0  0  0  0  0  0  0
    3.6620   -0.3048    0.1784 O   0  0  0  0  0  0  0  0  0  0  0  0
    2.3249    1.8772    0.0737 O   0  0  0  0  0  0  0  0  0  0  0  0
    1.1161   -0.3623    0.1698 O   0  0  0  0  0  0  0  0  0  0  0  0
    2.3550    0.5155    2.3141 O   0  0  0  0  0  0  0  0  0  0  0  0
   -0.1049    0.2297    0.5001 N   0  0  0  0  0  0  0  0  0  0  0  0
   -0.2596   -2.4595   -1.3897 N   0  0  0  0  0  0  0  0  0  0  0  0
    3.9069   -1.6550    0.5320 C   0  0  0  0  0  0  0  0  0  0  0  0
    2.3327    1.9466   -1.3420 C   0  0  0  0  0  0  0  0  0  0  0  0
   -2.5425   -0.1608    0.0662 C   0  0  0  0  0  0  0  0  0  0  0  0
    5.1572   -2.1311   -0.1764 C   0  0  0  0  0  0  0  0  0  0  0  0
    2.2864    3.3995   -1.7647 C   0  0  0  0  0  0  0  0  0  0  0  0
   -3.4260   -1.0113   -0.5834 C   0  0  0  0  0  0  0  0  0  0  0  0
   -3.0024    0.9260    0.7964 C   0  0  0  0  0  0  0  0  0  0  0  0
   -1.0984   -0.4147   -0.0185 C   0  0  0  0  0  0  0  0  0  0  0  0
   -4.7973   -0.7703   -0.5008 C   0  0  0  0  0  0  0  0  0  0  0  0
   -4.3737    1.1670    0.8789 C   0  0  0  0  0  0  0  0  0  0  0  0
   -5.2713    0.3189    0.2303 C   0  0  0  0  0  0  0  0  0  0  0  0
   -0.6333   -1.5467   -0.7781 C   0  0  0  0  0  0  0  0  0  0  0  0
  1  2  1  0
  1  3  1  0
  1  4  1  0
  1  5  2  0
  2  8  1  0
  3  9  1  0
  4  6  1  0
  6 15  2  0
  7 19  3  0
  8 11  1  0
  9 12  1  0
 10 13  2  0
 10 14  1  0
 10 15  1  0
 13 16  1  0
 14 17  2  0
 15 19  1  0
 16 18  2  0
 17 18  1  0
M  END
>  <PUBCHEM_COMPOUND_CID>  (1) 
26926

>  <PUBCHEM_CONFORMER_RMSD>  (1) 
0.8

>  <PUBCHEM_CONFORMER_DIVERSEORDER>  (1) 
1
31
48
36
51
9
27
49
17
4
12
37
35
24
50
30
42
6
26
34
7
13
29
40
32
5
15
22
38
10
8
16
23
44
21
47
20
46
19
41
14
25
3
33
43
45
28
18
11
2
39

>  <PUBCHEM_MMFF94_PARTIAL_CHARGES>  (1) 
22
1 1.51
10 0.09
13 -0.15
14 -0.15
15 0.47
16 -0.15
17 -0.15
18 -0.15
19 0.45
2 -0.55
3 -0.55
30 0.15
31 0.15
32 0.15
33 0.15
34 0.15
4 -0.21
5 -0.7
6 -0.51
7 -0.56
8 0.28
9 0.28

>  <PUBCHEM_EFFECTIVE_ROTOR_COUNT>  (1) 
7

>  <PUBCHEM_PHARMACOPHORE_FEATURES>  (1) 
4
1 5 acceptor
1 6 acceptor
1 7 acceptor
6 10 13 14 16 17 18 rings

>  <PUBCHEM_HEAVY_ATOM_COUNT>  (1) 
19

>  <PUBCHEM_ATOM_DEF_STEREO_COUNT>  (1) 
0

>  <PUBCHEM_ATOM_UDEF_STEREO_COUNT>  (1) 
0

>  <PUBCHEM_BOND_DEF_STEREO_COUNT>  (1) 
0

>  <PUBCHEM_BOND_UDEF_STEREO_COUNT>  (1) 
1

>  <PUBCHEM_ISOTOPIC_ATOM_COUNT>  (1) 
0

>  <PUBCHEM_COMPONENT_COUNT>  (1) 
1

>  <PUBCHEM_CACTVS_TAUTO_COUNT>  (1) 
1

>  <PUBCHEM_CONFORMER_ID>  (1) 
0000692E00000001

>  <PUBCHEM_MMFF94_ENERGY>  (1) 
38.0887

>  <PUBCHEM_FEATURE_SELFOVERLAP>  (1) 
20.298

>  <PUBCHEM_SHAPE_FINGERPRINT>  (1) 
10366900 7 16660362558901420537
10763959 59 18187921734293153453
12617007 42 18334019367845922172
12670545 47 16081367496625491697
12916754 54 18260266382612409015
14115302 16 18130791191623104602
15806764 133 17676756604816920284
15852999 172 13470401214864091444
1813 80 18187638064798793456
18186145 218 17676200299415210673
20645476 183 18196097856885364943
20671657 1 18340206409447861572
21503847 285 18040716960976026257
21524375 3 18202845444250608655
21709351 56 18336541630208361061
2255824 54 18186800309699755570
23366157 5 18267877094736884991
23402539 116 16988550282764961659
23557571 272 15195299598494029617
23558518 356 18119522391482267178
23559900 14 18335417993211492435
312423 11 18337960081596344467
474 4 17824259517088441252
5104073 3 17846214488479465667
59755656 215 17986955146319840111
6138700 20 17986115111089741902
633830 44 18113612417745507467
90127 26 17458060474173166965
9841814 1 17603573137254207584
9971528 1 18408880733503869768
9981440 41 17545874292933156760
9999458 23 18040719168652545814

>  <PUBCHEM_SHAPE_MULTIPOLES>  (1) 
361.42
10.62
2.69
1.4
4.02
1.63
-0.16
-2.29
-0.96
-3.68
1.71
-0.75
0.49
-1.62

>  <PUBCHEM_SHAPE_SELFOVERLAP>  (1) 
715.305

>  <PUBCHEM_SHAPE_VOLUME>  (1) 
214.7

>  <PUBCHEM_COORDINATE_TYPE>  (1) 
2
5
10

$$$$
