26923
     RDKit          3D

  8  7  0  0  0  0  0  0  0  0999 V2000
   -0.7276    1.1411    0.7232 S   0  0  0  0  0  0  0  0  0  0  0  0
    0.7253    1.1330   -0.7343 S   0  0  0  0  0  0  0  0  0  0  0  0
   -2.0420   -1.1663    0.8968 N   0  0  0  0  0  0  0  0  0  0  0  0
    2.0440   -1.1753   -0.8842 N   0  0  0  0  0  0  0  0  0  0  0  0
   -2.3448    0.1139   -1.0735 N   0  0  0  0  0  0  0  0  0  0  0  0
    2.3452    0.1268    1.0714 N   0  0  0  0  0  0  0  0  0  0  0  0
   -1.8188   -0.0863    0.0917 C   0  0  0  0  0  0  0  0  0  0  0  0
    1.8187   -0.0868   -0.0910 C   0  0  0  0  0  0  0  0  0  0  0  0
  1  2  1  0
  1  7  1  0
  2  8  1  0
  3  7  1  0
  4  8  1  0
  5  7  2  0
  6  8  2  0
M  END
>  <PUBCHEM_COMPOUND_CID>  (1) 
26923

>  <PUBCHEM_CONFORMER_RMSD>  (1) 
0.6

>  <PUBCHEM_CONFORMER_DIVERSEORDER>  (1) 
1
14
9
8
12
5
7
13
11
2
3
10
6
4

>  <PUBCHEM_MMFF94_PARTIAL_CHARGES>  (1) 
14
1 -0.14
10 0.4
11 0.4
12 0.4
13 0.4
14 0.4
2 -0.14
3 -0.85
4 -0.85
5 -0.85
6 -0.85
7 0.64
8 0.64
9 0.4

>  <PUBCHEM_EFFECTIVE_ROTOR_COUNT>  (1) 
3

>  <PUBCHEM_PHARMACOPHORE_FEATURES>  (1) 
6
1 3 donor
1 4 donor
1 5 donor
1 6 donor
3 3 5 7 cation
3 4 6 8 cation

>  <PUBCHEM_HEAVY_ATOM_COUNT>  (1) 
8

>  <PUBCHEM_ATOM_DEF_STEREO_COUNT>  (1) 
0

>  <PUBCHEM_ATOM_UDEF_STEREO_COUNT>  (1) 
0

>  <PUBCHEM_BOND_DEF_STEREO_COUNT>  (1) 
0

>  <PUBCHEM_BOND_UDEF_STEREO_COUNT>  (1) 
0

>  <PUBCHEM_ISOTOPIC_ATOM_COUNT>  (1) 
0

>  <PUBCHEM_COMPONENT_COUNT>  (1) 
1

>  <PUBCHEM_CACTVS_TAUTO_COUNT>  (1) 
1

>  <PUBCHEM_CONFORMER_ID>  (1) 
0000692B00000001

>  <PUBCHEM_MMFF94_ENERGY>  (1) 
3.0802

>  <PUBCHEM_FEATURE_SELFOVERLAP>  (1) 
30.522

>  <PUBCHEM_SHAPE_FINGERPRINT>  (1) 
14390081 3 9799415481772755675
15310529 11 15719404922786845433
18342897 137 17271737069935829061
20651381 22 15697706116526077997
20651381 6 18410583885051152866
20711983 138 18267594519604539234
20711985 344 18047752602933312028
23235687 12 17895480327011277861
23552449 11 18188484791214613664
24536 1 18410304604802834404
29004967 10 18343021120401883616

>  <PUBCHEM_SHAPE_MULTIPOLES>  (1) 
152.41
3.64
1.28
1.17
0
0.04
0
-1.1
0
0
0
0
0.03
0.29

>  <PUBCHEM_SHAPE_SELFOVERLAP>  (1) 
260.103

>  <PUBCHEM_SHAPE_VOLUME>  (1) 
103

>  <PUBCHEM_COORDINATE_TYPE>  (1) 
2
5
10

$$$$
