26928
     RDKit          3D

 20 20  0  0  0  0  0  0  0  0999 V2000
   -1.7133   -2.3713   -0.4585 Cl  0  0  0  0  0  0  0  0  0  0  0  0
    2.4564   -0.5518    2.8331 S   0  0  0  0  0  0  0  0  0  0  0  0
    2.3940   -0.1133    0.9382 P   0  0  0  0  0  0  0  0  0  0  0  0
    2.4369   -1.3534   -0.1128 O   0  0  0  0  0  0  0  0  0  0  0  0
    3.6007    0.8474    0.4223 O   0  0  0  0  0  0  0  0  0  0  0  0
    1.0765    0.7033    0.4456 O   0  0  0  0  0  0  0  0  0  0  0  0
   -0.0850   -0.0724    0.5074 N   0  0  0  0  0  0  0  0  0  0  0  0
   -0.4590    3.0120   -0.5780 N   0  0  0  0  0  0  0  0  0  0  0  0
    3.6106   -2.1410   -0.2234 C   0  0  0  0  0  0  0  0  0  0  0  0
    3.5776    1.3889   -0.8878 C   0  0  0  0  0  0  0  0  0  0  0  0
   -2.5279    0.1886    0.0183 C   0  0  0  0  0  0  0  0  0  0  0  0
    3.3856   -3.2179   -1.2633 C   0  0  0  0  0  0  0  0  0  0  0  0
    4.8149    2.2367   -1.0929 C   0  0  0  0  0  0  0  0  0  0  0  0
   -2.8914   -1.1282   -0.2363 C   0  0  0  0  0  0  0  0  0  0  0  0
   -3.4958    1.1712    0.1934 C   0  0  0  0  0  0  0  0  0  0  0  0
   -1.1201    0.5932    0.1124 C   0  0  0  0  0  0  0  0  0  0  0  0
   -4.2419   -1.4679   -0.3173 C   0  0  0  0  0  0  0  0  0  0  0  0
   -4.8462    0.8314    0.1125 C   0  0  0  0  0  0  0  0  0  0  0  0
   -5.2192   -0.4882   -0.1428 C   0  0  0  0  0  0  0  0  0  0  0  0
   -0.7533    1.9325   -0.2701 C   0  0  0  0  0  0  0  0  0  0  0  0
  1 14  1  0
  2  3  2  0
  3  4  1  0
  3  5  1  0
  3  6  1  0
  4  9  1  0
  5 10  1  0
  6  7  1  0
  7 16  2  0
  8 20  3  0
  9 12  1  0
 10 13  1  0
 11 14  2  0
 11 15  1  0
 11 16  1  0
 14 17  1  0
 15 18  2  0
 16 20  1  0
 17 19  2  0
 18 19  1  0
M  END
>  <PUBCHEM_COMPOUND_CID>  (1) 
26928

>  <PUBCHEM_CONFORMER_RMSD>  (1) 
0.8

>  <PUBCHEM_CONFORMER_DIVERSEORDER>  (1) 
1
9
73
70
17
36
18
81
8
23
84
10
6
63
79
80
87
14
20
69
57
58
27
75
24
74
3
83
30
86
61
13
38
60
46
40
78
67
41
66
32
48
51
44
16
53
77
7
52
22
35
68
54
82
76
56
12
34
39
4
11
72
55
50
64
85
29
47
42
65
37
15
62
28
31
19
25
5
2
59
26
21
49
45
43
33
71

>  <PUBCHEM_MMFF94_PARTIAL_CHARGES>  (1) 
22
1 -0.18
10 0.28
11 0.09
14 0.18
15 -0.15
16 0.47
17 -0.15
18 -0.15
19 -0.15
2 -0.68
20 0.45
3 1.49
31 0.15
32 0.15
33 0.15
34 0.15
4 -0.55
5 -0.55
6 -0.21
7 -0.51
8 -0.56
9 0.28

>  <PUBCHEM_EFFECTIVE_ROTOR_COUNT>  (1) 
7

>  <PUBCHEM_PHARMACOPHORE_FEATURES>  (1) 
3
1 7 acceptor
1 8 acceptor
6 11 14 15 17 18 19 rings

>  <PUBCHEM_HEAVY_ATOM_COUNT>  (1) 
20

>  <PUBCHEM_ATOM_DEF_STEREO_COUNT>  (1) 
0

>  <PUBCHEM_ATOM_UDEF_STEREO_COUNT>  (1) 
0

>  <PUBCHEM_BOND_DEF_STEREO_COUNT>  (1) 
0

>  <PUBCHEM_BOND_UDEF_STEREO_COUNT>  (1) 
1

>  <PUBCHEM_ISOTOPIC_ATOM_COUNT>  (1) 
0

>  <PUBCHEM_COMPONENT_COUNT>  (1) 
1

>  <PUBCHEM_CACTVS_TAUTO_COUNT>  (1) 
1

>  <PUBCHEM_CONFORMER_ID>  (1) 
0000693000000001

>  <PUBCHEM_MMFF94_ENERGY>  (1) 
40.5059

>  <PUBCHEM_FEATURE_SELFOVERLAP>  (1) 
15.223

>  <PUBCHEM_SHAPE_FINGERPRINT>  (1) 
10090160 65 17241040015628167400
10616163 171 18268712894771176319
12553582 1 18339348786104204661
12616999 72 18413107286175894130
13533116 47 17703786990627880355
14178342 30 17770473620202992914
14866123 147 16908636463330047299
15196674 1 18413107247627021215
15342816 4 18040424495388787579
15415430 112 18267588081601329037
15664445 248 18340499970726768588
1813 80 17749109963509518621
18186145 218 17313103038240630131
20281475 54 18343019969472000049
20645477 70 18409449159187230414
23557571 272 18338783529859042312
23559900 14 18271239405103897954
239999 70 18259985964039625226
3004659 81 18411418371833462114
3286 77 17346028970364670067
34934 24 18261673774011426993
474 4 17241330312446553220
5104073 3 18342457019835175107
59755656 215 18334300868782412316
633830 44 18187363195213050979
90127 26 17967821496660764641
9709674 26 18411419531348258915

>  <PUBCHEM_SHAPE_MULTIPOLES>  (1) 
393.59
10.52
3.07
1.41
3.58
0.67
1.18
0.31
-1.82
-2.73
-1.55
-2.12
0.31
-0.5

>  <PUBCHEM_SHAPE_SELFOVERLAP>  (1) 
762.322

>  <PUBCHEM_SHAPE_VOLUME>  (1) 
240.6

>  <PUBCHEM_COORDINATE_TYPE>  (1) 
2
5
10

$$$$
