26949
     RDKit          3D

 13 13  0  0  1  0  0  0  0  0999 V2000
   -2.8168    0.1850   -0.0674 Si  0  0  0  0  0  4  0  0  0  0  0  0
   -1.1414   -0.3063   -0.1570 N   0  0  0  0  0  0  0  0  0  0  0  0
   -0.2057   -0.0023    0.9395 C   0  0  0  0  0  0  0  0  0  0  0  0
   -3.7751   -1.0317    0.9867 C   0  0  0  0  0  0  0  0  0  0  0  0
   -3.5599    0.2134   -1.7868 C   0  0  0  0  0  0  0  0  0  0  0  0
   -2.9141    1.8929    0.6914 C   0  0  0  0  0  0  0  0  0  0  0  0
   -0.7680   -1.6151   -0.7209 C   0  0  0  0  0  0  0  0  0  0  0  0
    1.2202    0.0567    0.4600 C   0  0  0  0  0  0  0  0  0  0  0  0
    1.9908   -1.0977    0.4639 C   0  0  0  0  0  0  0  0  0  0  0  0
    1.7441    1.2645    0.0203 C   0  0  0  0  0  0  0  0  0  0  0  0
    3.3119   -1.0432    0.0194 C   0  0  0  0  0  0  0  0  0  0  0  0
    3.0651    1.3188   -0.4243 C   0  0  0  0  0  0  0  0  0  0  0  0
    3.8490    0.1649   -0.4247 C   0  0  0  0  0  0  0  0  0  0  0  0
  1  2  1  0
  1  4  1  0
  1  5  1  0
  1  6  1  0
  2  3  1  0
  2  7  1  0
  3  8  1  0
  8  9  2  0
  8 10  1  0
  9 11  1  0
 10 12  2  0
 11 13  2  0
 12 13  1  0
M  END
>  <PUBCHEM_COMPOUND_CID>  (1) 
26949

>  <PUBCHEM_CONFORMER_RMSD>  (1) 
0.6

>  <PUBCHEM_CONFORMER_DIVERSEORDER>  (1) 
3
2
4
1

>  <PUBCHEM_MMFF94_PARTIAL_CHARGES>  (1) 
18
1 0.59
10 -0.15
11 -0.15
12 -0.15
13 -0.15
2 -0.89
28 0.15
29 0.15
3 0.41
30 0.15
31 0.15
32 0.15
4 -0.08
5 -0.08
6 -0.08
7 0.27
8 -0.14
9 -0.15

>  <PUBCHEM_EFFECTIVE_ROTOR_COUNT>  (1) 
3

>  <PUBCHEM_PHARMACOPHORE_FEATURES>  (1) 
1
6 8 9 10 11 12 13 rings

>  <PUBCHEM_HEAVY_ATOM_COUNT>  (1) 
13

>  <PUBCHEM_ATOM_DEF_STEREO_COUNT>  (1) 
0

>  <PUBCHEM_ATOM_UDEF_STEREO_COUNT>  (1) 
0

>  <PUBCHEM_BOND_DEF_STEREO_COUNT>  (1) 
0

>  <PUBCHEM_BOND_UDEF_STEREO_COUNT>  (1) 
0

>  <PUBCHEM_ISOTOPIC_ATOM_COUNT>  (1) 
0

>  <PUBCHEM_COMPONENT_COUNT>  (1) 
1

>  <PUBCHEM_CACTVS_TAUTO_COUNT>  (1) 
1

>  <PUBCHEM_CONFORMER_ID>  (1) 
0000694500000003

>  <PUBCHEM_MMFF94_ENERGY>  (1) 
30.1683

>  <PUBCHEM_FEATURE_SELFOVERLAP>  (1) 
5.074

>  <PUBCHEM_SHAPE_FINGERPRINT>  (1) 
10062212 137 17987792991291626039
10608611 8 17967530207177243941
10751810 167 18411991238581163036
10922523 26 17988085465399766717
11031198 65 18040723584300562014
11471102 20 18261107461625795900
11715629 250 18262512714489907148
12932764 1 17489583472134998313
13296908 3 18260548930745426731
14144814 61 18412826875966029016
14250199 8 18338792420241079509
14289901 80 16298389062834261971
14325111 11 18410859849685069209
14993402 34 18342172258775634340
15442244 35 18194403282118369464
15775835 57 18410862031555108529
16945 1 18201148944599630667
18186145 218 18040437655105103394
190213 19 18334574646270451320
19026448 4 17748825215488270003
19422 9 18334863796337921826
200 152 18412256264434555767
20233049 118 17917426489181641640
20279233 1 16805319989842261387
20645477 70 18336541629660371086
20711983 171 18201720609300411685
231179 274 17531237344882546428
23402539 116 17846495911594541692
23402655 69 18408321073089195892
23557571 272 17603590716491604759
25 1 18186524276393893834
3082319 5 18272645744847468581
3248919 1 18337099095114057243
633830 44 18339368461238604959
74978 22 18130499842115530386
8030462 33 18271795822527872881
81228 2 17411598587127461831
93112 12 18411697711899820166

>  <PUBCHEM_SHAPE_MULTIPOLES>  (1) 
280.77
7.64
1.62
1.16
0.84
0.22
-0.29
0.51
-0.85
-0.14
0.1
-1.14
-0.02
-0.18

>  <PUBCHEM_SHAPE_SELFOVERLAP>  (1) 
540.683

>  <PUBCHEM_SHAPE_VOLUME>  (1) 
173.1

>  <PUBCHEM_COORDINATE_TYPE>  (1) 
2
5
10

$$$$
