26943
     RDKit          3D

 23 25  0  0  0  0  0  0  0  0999 V2000
   -2.2403   -0.8217   -2.6155 O   0  0  0  0  0  0  0  0  0  0  0  0
   -0.2515    0.1660    0.9117 N   0  0  0  0  0  0  0  0  0  0  0  0
    3.1323   -1.1070   -0.0708 N   0  0  0  0  0  0  0  0  0  0  0  0
   -1.5583    1.0860   -1.6108 N   0  0  0  0  0  0  0  0  0  0  0  0
    1.1123   -0.3523    1.0825 C   0  0  0  0  0  0  0  0  0  0  0  0
    1.7719   -0.6211   -0.2621 C   0  0  0  0  0  0  0  0  0  0  0  0
   -0.3543    1.5104    0.5230 C   0  0  0  0  0  0  0  0  0  0  0  0
   -1.2534   -0.8111    0.8164 C   0  0  0  0  0  0  0  0  0  0  0  0
    3.9369   -0.1185    0.6501 C   0  0  0  0  0  0  0  0  0  0  0  0
    3.7533   -1.4242   -1.3585 C   0  0  0  0  0  0  0  0  0  0  0  0
   -0.9924    1.9371   -0.6462 C   0  0  0  0  0  0  0  0  0  0  0  0
   -2.0741   -0.9805   -0.3020 C   0  0  0  0  0  0  0  0  0  0  0  0
    0.2166    2.5008    1.3579 C   0  0  0  0  0  0  0  0  0  0  0  0
   -1.4717   -1.6588    1.9286 C   0  0  0  0  0  0  0  0  0  0  0  0
   -1.9284   -0.2386   -1.5730 C   0  0  0  0  0  0  0  0  0  0  0  0
    5.3391   -0.6400    0.9151 C   0  0  0  0  0  0  0  0  0  0  0  0
    2.9349   -2.4491   -2.1251 C   0  0  0  0  0  0  0  0  0  0  0  0
   -1.0054    3.3081   -0.9759 C   0  0  0  0  0  0  0  0  0  0  0  0
   -3.0763   -1.9742   -0.2916 C   0  0  0  0  0  0  0  0  0  0  0  0
    0.1779    3.8572    1.0358 C   0  0  0  0  0  0  0  0  0  0  0  0
   -2.4652   -2.6371    1.9322 C   0  0  0  0  0  0  0  0  0  0  0  0
   -0.4318    4.2621   -0.1395 C   0  0  0  0  0  0  0  0  0  0  0  0
   -3.2721   -2.7935    0.8178 C   0  0  0  0  0  0  0  0  0  0  0  0
  1 15  2  0
  2  5  1  0
  2  7  1  0
  2  8  1  0
  3  6  1  0
  3  9  1  0
  3 10  1  0
  4 11  1  0
  4 15  1  0
  5  6  1  0
  7 11  2  0
  7 13  1  0
  8 12  2  0
  8 14  1  0
  9 16  1  0
 10 17  1  0
 11 18  1  0
 12 15  1  0
 12 19  1  0
 13 20  2  0
 14 21  2  0
 18 22  2  0
 19 23  2  0
 20 22  1  0
 21 23  1  0
M  END
>  <PUBCHEM_COMPOUND_CID>  (1) 
26943

>  <PUBCHEM_CONFORMER_RMSD>  (1) 
0.8

>  <PUBCHEM_CONFORMER_DIVERSEORDER>  (1) 
2
7
17
13
9
3
11
14
16
5
8
18
15
6
12
10
1
4

>  <PUBCHEM_MMFF94_PARTIAL_CHARGES>  (1) 
30
1 -0.57
10 0.27
11 0.12
12 0.09
13 -0.15
14 -0.15
15 0.54
18 -0.15
19 -0.15
2 -0.57
20 -0.15
21 -0.15
22 -0.15
23 -0.15
3 -0.81
32 0.15
33 0.15
34 0.37
4 -0.55
41 0.15
42 0.15
43 0.15
44 0.15
45 0.15
46 0.15
5 0.37
6 0.27
7 0.1
8 0.1
9 0.27

>  <PUBCHEM_EFFECTIVE_ROTOR_COUNT>  (1) 
5.4

>  <PUBCHEM_PHARMACOPHORE_FEATURES>  (1) 
7
1 1 acceptor
1 2 cation
1 3 cation
1 4 donor
6 7 11 13 18 20 22 rings
6 8 12 14 19 21 23 rings
7 2 4 7 8 11 12 15 rings

>  <PUBCHEM_HEAVY_ATOM_COUNT>  (1) 
23

>  <PUBCHEM_ATOM_DEF_STEREO_COUNT>  (1) 
0

>  <PUBCHEM_ATOM_UDEF_STEREO_COUNT>  (1) 
0

>  <PUBCHEM_BOND_DEF_STEREO_COUNT>  (1) 
0

>  <PUBCHEM_BOND_UDEF_STEREO_COUNT>  (1) 
0

>  <PUBCHEM_ISOTOPIC_ATOM_COUNT>  (1) 
0

>  <PUBCHEM_COMPONENT_COUNT>  (1) 
1

>  <PUBCHEM_CACTVS_TAUTO_COUNT>  (1) 
2

>  <PUBCHEM_CONFORMER_ID>  (1) 
0000693F00000002

>  <PUBCHEM_MMFF94_ENERGY>  (1) 
97.8468

>  <PUBCHEM_FEATURE_SELFOVERLAP>  (1) 
35.536

>  <PUBCHEM_SHAPE_FINGERPRINT>  (1) 
10291535 26 18337663106336045712
10764073 3 16693344450233533347
107951 10 17402361185925102126
12160290 23 17972055664077631544
12173636 292 17900827050140844716
12293681 160 17975662070907476101
12788726 201 18265882567141349593
13149001 5 18043507577775194277
133893 2 17766550635781656463
13681431 1 18122642792179437160
14468879 13 17914324685291098702
14840074 17 17984986157629391344
14863182 85 16098850023497029915
15463212 79 17758662366055621624
17980427 23 17773900695520969673
1813 80 18269013022769728459
18915476 22 17834383906446284175
20600515 1 18041575748535220146
21304303 282 17756955971116653980
21339142 36 18334569174540307634
21524375 3 17330841214613616228
22182313 1 16883277770056576435
22907989 373 18264509303204728726
22956985 138 17105663943886583162
23419403 2 17900524967842554261
23557571 272 18410855426369777650
24893989 43 16540090332129982885
2748010 2 17536283162983156867
6786 2 16897693028256213429
81228 2 18338530624798867800
84936 31 17765724906907369691
9981440 41 17841406178207729618

>  <PUBCHEM_SHAPE_MULTIPOLES>  (1) 
452.52
6.26
4.72
2.07
8.8
5.72
-0.7
-6.85
0.12
-2.05
0.44
-0.47
-0.92
1.97

>  <PUBCHEM_SHAPE_SELFOVERLAP>  (1) 
965.595

>  <PUBCHEM_SHAPE_VOLUME>  (1) 
251.6

>  <PUBCHEM_COORDINATE_TYPE>  (1) 
2
5
10

$$$$
