26941
     RDKit          3D

 21 22  0  0  0  0  0  0  0  0999 V2000
   -0.8702   -3.2298   -0.0003 Cl  0  0  0  0  0  0  0  0  0  0  0  0
   -3.4977    1.5820    0.0006 Cl  0  0  0  0  0  0  0  0  0  0  0  0
    4.4139   -1.6172   -0.0005 F   0  0  0  0  0  0  0  0  0  0  0  0
    4.4318    0.2618   -1.0836 F   0  0  0  0  0  0  0  0  0  0  0  0
    4.4102    0.2637    1.0909 F   0  0  0  0  0  0  0  0  0  0  0  0
    0.3976    3.2923   -0.0006 O   0  0  0  0  0  0  0  0  0  0  0  0
   -1.7953    3.3951   -0.0009 O   0  0  0  0  0  0  0  0  0  0  0  0
   -3.3779   -2.6576    0.0001 O   0  0  0  0  0  0  0  0  0  0  0  0
   -4.3961   -0.7127    0.0004 O   0  0  0  0  0  0  0  0  0  0  0  0
    1.6890    0.8297   -0.0009 N   0  0  0  0  0  0  0  0  0  0  0  0
    1.5909   -1.3908   -0.0005 N   0  0  0  0  0  0  0  0  0  0  0  0
   -0.7270    2.7425   -0.0006 N   0  0  0  0  0  0  0  0  0  0  0  0
   -3.3556   -1.4070    0.0000 N   0  0  0  0  0  0  0  0  0  0  0  0
    0.3525    0.5224   -0.0007 C   0  0  0  0  0  0  0  0  0  0  0  0
    0.3176   -0.8694   -0.0005 C   0  0  0  0  0  0  0  0  0  0  0  0
   -0.7938    1.3179   -0.0006 C   0  0  0  0  0  0  0  0  0  0  0  0
    2.3876   -0.3454   -0.0006 C   0  0  0  0  0  0  0  0  0  0  0  0
   -0.9262   -1.5232   -0.0004 C   0  0  0  0  0  0  0  0  0  0  0  0
   -2.0902   -0.7446   -0.0003 C   0  0  0  0  0  0  0  0  0  0  0  0
   -2.0231    0.6505   -0.0003 C   0  0  0  0  0  0  0  0  0  0  0  0
    3.8620   -0.3602   -0.0006 C   0  0  0  0  0  0  0  0  0  0  0  0
  1 18  1  0
  2 20  1  0
  3 21  1  0
  4 21  1  0
  5 21  1  0
  6 12  1  0
  7 12  2  0
  8 13  1  0
  9 13  2  0
 10 14  1  0
 10 17  1  0
 11 15  1  0
 11 17  2  0
 12 16  1  0
 13 19  1  0
 14 15  2  0
 14 16  1  0
 15 18  1  0
 16 20  2  0
 17 21  1  0
 18 19  2  0
 19 20  1  0
M  CHG  4   6  -1   8  -1  12   1  13   1
M  END
>  <PUBCHEM_COMPOUND_CID>  (1) 
26941

>  <PUBCHEM_CONFORMER_RMSD>  (1) 
0.6

>  <PUBCHEM_CONFORMER_DIVERSEORDER>  (1) 
1

>  <PUBCHEM_MMFF94_PARTIAL_CHARGES>  (1) 
22
1 -0.18
10 0.03
11 -0.57
12 0.91
13 0.91
14 -0.15
15 0.23
16 0.13
17 0.01
18 0.18
19 0.13
2 -0.18
20 0.18
21 1.2
22 0.27
3 -0.34
4 -0.34
5 -0.34
6 -0.52
7 -0.52
8 -0.52
9 -0.52

>  <PUBCHEM_EFFECTIVE_ROTOR_COUNT>  (1) 
3

>  <PUBCHEM_PHARMACOPHORE_FEATURES>  (1) 
10
1 10 donor
1 6 acceptor
1 6 anion
1 7 acceptor
1 8 acceptor
1 8 anion
1 9 acceptor
3 10 11 17 cation
5 10 11 14 15 17 rings
6 14 15 16 18 19 20 rings

>  <PUBCHEM_HEAVY_ATOM_COUNT>  (1) 
21

>  <PUBCHEM_ATOM_DEF_STEREO_COUNT>  (1) 
0

>  <PUBCHEM_ATOM_UDEF_STEREO_COUNT>  (1) 
0

>  <PUBCHEM_BOND_DEF_STEREO_COUNT>  (1) 
0

>  <PUBCHEM_BOND_UDEF_STEREO_COUNT>  (1) 
0

>  <PUBCHEM_ISOTOPIC_ATOM_COUNT>  (1) 
0

>  <PUBCHEM_COMPONENT_COUNT>  (1) 
1

>  <PUBCHEM_CACTVS_TAUTO_COUNT>  (1) 
2

>  <PUBCHEM_CONFORMER_ID>  (1) 
0000693D00000001

>  <PUBCHEM_MMFF94_ENERGY>  (1) 
75.3533

>  <PUBCHEM_FEATURE_SELFOVERLAP>  (1) 
51.016

>  <PUBCHEM_SHAPE_FINGERPRINT>  (1) 
10319926 262 18197754680308750362
10411042 1 18266741479350306791
10493431 412 18126575518298797065
10498660 4 18409730616989216884
10616163 171 18338518525929105846
10967382 1 17834114526055222369
1100329 8 18338238296983242291
11132069 177 18412545383746178080
11680986 33 17978791543003102995
12173636 292 18267016163798567364
12403259 226 18342451509481544544
12553582 1 18338800138149532742
12788726 201 18334580148630018618
13140716 1 18266458891633551889
138480 1 15672666500409245701
13862211 1 18410851105490987135
14420673 8 17761200022145858770
14790565 3 18123761859126621569
15042514 8 18409451375406393931
15196674 1 18410575067768195750
15442244 35 18195810889014753907
16752209 62 18336819814723437242
16945 1 18050568439558902151
17804303 29 18341617074218256891
193761 8 17762055845295746439
19591789 44 18410854369301518203
20510252 161 18342737382124997344
21029758 11 18339918320405858605
21029758 27 18262527004035660615
21267235 1 18409739477417356891
21339142 51 18408879625328376477
221490 88 17903079168130782755
22182313 1 18194096707490515477
2297311 6 18340781389989599822
2334 1 18410855494978452103
23366157 5 17610052734732020876
23402539 116 18343292682705065959
23557571 272 18272381853772667276
23559900 14 18342454791058234510
2748010 2 18339913913780176749
3091708 16 9277395991093474033
335352 9 18338516318146604341
34934 24 18337383843114375051
350125 39 17617947928420233137
352729 6 17978784610625174235
43471831 8 18263078825339194667
474 4 16951703582798445732
5104073 3 18412260610730599986
54173680 148 18410575063198798459
59755656 215 18194967344205096254
68521 5 18410295804435950557
7364860 26 17835522995849571997
81228 2 18269011841716538458
9709674 26 18199469853237704190

>  <PUBCHEM_SHAPE_MULTIPOLES>  (1) 
370.69
7.23
3.49
0.65
5.71
1.05
0
-1.66
0
-2.67
0
0.34
0.01
0

>  <PUBCHEM_SHAPE_SELFOVERLAP>  (1) 
805.201

>  <PUBCHEM_SHAPE_VOLUME>  (1) 
206.9

>  <PUBCHEM_COORDINATE_TYPE>  (1) 
2
5
10

$$$$
