26948
     RDKit          3D

 26 28  0  0  1  0  0  0  0  0999 V2000
   -2.4329   -1.1595   -0.7079 O   0  0  0  0  0  0  0  0  0  0  0  0
   -4.4018    0.8011   -0.2105 O   0  0  0  0  0  0  0  0  0  0  0  0
    2.3112   -0.8713   -1.5609 O   0  0  0  0  0  0  0  0  0  0  0  0
    4.5606   -0.7132   -1.9124 O   0  0  0  0  0  0  0  0  0  0  0  0
   -6.7016    0.9932   -0.3151 O   0  0  0  0  0  0  0  0  0  0  0  0
   -3.1428   -1.0936    0.5570 C   0  0  0  0  0  0  0  0  0  0  0  0
   -4.5308   -0.5239    0.3137 C   0  0  0  0  0  0  0  0  0  0  0  0
   -2.3226   -0.2464    1.5419 C   0  0  0  0  0  0  0  0  0  0  0  0
   -0.9893   -0.3768    0.9124 C   0  0  0  0  0  0  0  0  0  0  0  0
   -1.1331   -0.8788   -0.3735 C   0  0  0  0  0  0  0  0  0  0  0  0
   -5.3335   -0.4487    1.6152 C   0  0  0  0  0  0  0  0  0  0  0  0
   -5.2853   -1.3525   -0.7279 C   0  0  0  0  0  0  0  0  0  0  0  0
    0.2553   -0.0230    1.4083 C   0  0  0  0  0  0  0  0  0  0  0  0
    1.3712   -0.1936    0.5807 C   0  0  0  0  0  0  0  0  0  0  0  0
   -0.0545   -1.0466   -1.2174 C   0  0  0  0  0  0  0  0  0  0  0  0
    1.1986   -0.6991   -0.7130 C   0  0  0  0  0  0  0  0  0  0  0  0
    5.1656    0.3276    0.6448 C   0  0  0  0  0  0  0  0  0  0  0  0
    3.7716   -0.0166    0.2159 C   0  0  0  0  0  0  0  0  0  0  0  0
    2.7138    0.1478    1.0214 C   0  0  0  0  0  0  0  0  0  0  0  0
    3.6056   -0.5540   -1.1591 C   0  0  0  0  0  0  0  0  0  0  0  0
    5.1288    0.8454    2.0967 C   0  0  0  0  0  0  0  0  0  0  0  0
    6.0318   -0.9470    0.5996 C   0  0  0  0  0  0  0  0  0  0  0  0
   -5.5751    1.4418   -0.4793 C   0  0  0  0  0  0  0  0  0  0  0  0
    5.8332    1.3884   -0.2226 C   0  0  0  0  0  0  0  0  0  0  0  0
   -5.2870    2.8103   -1.0183 C   0  0  0  0  0  0  0  0  0  0  0  0
    5.2431    2.3893   -0.8895 C   0  0  0  0  0  0  0  0  0  0  0  0
  1  6  1  0
  1 10  1  0
  2  7  1  0
  2 23  1  0
  3 16  1  0
  3 20  1  0
  4 20  2  0
  5 23  2  0
  6  7  1  0
  6  8  1  0
  7 11  1  0
  7 12  1  0
  8  9  1  0
  9 10  2  0
  9 13  1  0
 10 15  1  0
 13 14  2  0
 14 16  1  0
 14 19  1  0
 15 16  2  0
 17 18  1  0
 17 21  1  0
 17 22  1  0
 17 24  1  0
 18 19  2  0
 18 20  1  0
 23 25  1  0
 24 26  2  0
M  END
>  <PUBCHEM_COMPOUND_CID>  (1) 
26948

>  <PUBCHEM_CONFORMER_RMSD>  (1) 
0.8

>  <PUBCHEM_CONFORMER_DIVERSEORDER>  (1) 
1
36
62
61
30
43
17
19
39
22
10
54
35
64
63
23
31
21
44
60
48
59
41
9
40
45
14
56
49
38
32
58
34
27
29
57
37
55
42
51
18
8
26
33
52
3
11
25
47
7
46
12
53
20
2
28
6
24
50
15
4
13
5
16

>  <PUBCHEM_MMFF94_PARTIAL_CHARGES>  (1) 
28
1 -0.36
10 0.08
13 -0.15
14 0.03
15 -0.15
16 0.08
17 0.28
18 -0.12
19 -0.18
2 -0.43
20 0.71
23 0.66
24 -0.29
25 0.06
26 -0.3
3 -0.23
36 0.15
37 0.15
38 0.15
4 -0.57
45 0.15
49 0.15
5 -0.57
50 0.15
6 0.28
7 0.28
8 0.14
9 -0.14

>  <PUBCHEM_EFFECTIVE_ROTOR_COUNT>  (1) 
5.6

>  <PUBCHEM_PHARMACOPHORE_FEATURES>  (1) 
9
1 1 acceptor
1 26 hydrophobe
1 4 acceptor
1 5 acceptor
3 17 21 22 hydrophobe
3 7 11 12 hydrophobe
5 1 6 8 9 10 rings
6 3 14 16 18 19 20 rings
6 9 10 13 14 15 16 rings

>  <PUBCHEM_HEAVY_ATOM_COUNT>  (1) 
26

>  <PUBCHEM_ATOM_DEF_STEREO_COUNT>  (1) 
0

>  <PUBCHEM_ATOM_UDEF_STEREO_COUNT>  (1) 
1

>  <PUBCHEM_BOND_DEF_STEREO_COUNT>  (1) 
0

>  <PUBCHEM_BOND_UDEF_STEREO_COUNT>  (1) 
0

>  <PUBCHEM_ISOTOPIC_ATOM_COUNT>  (1) 
0

>  <PUBCHEM_COMPONENT_COUNT>  (1) 
1

>  <PUBCHEM_CACTVS_TAUTO_COUNT>  (1) 
1

>  <PUBCHEM_CONFORMER_ID>  (1) 
0000694400000001

>  <PUBCHEM_MMFF94_ENERGY>  (1) 
94.655

>  <PUBCHEM_FEATURE_SELFOVERLAP>  (1) 
45.804

>  <PUBCHEM_SHAPE_FINGERPRINT>  (1) 
10 15 18187652426984879825
10087517 78 18113894949421765117
10554248 39 17917710171850599068
10693767 8 14763806135179099116
10763959 59 18342173384395312640
11089746 13 18040992959890195593
11646440 116 14996278124511827068
11991303 11 17845931947981600815
12236239 1 17167863071112540242
12422481 6 15140951821086049031
12516196 113 13470688148443834298
12596602 18 17676489474994288552
12838862 33 16773499050605541472
13167372 99 18186517696509576200
13288520 33 11527943466078465939
13533116 47 18409728427252754706
13668630 136 13686296894172655853
14251764 18 16081094800519774891
14341114 176 13045946802191200798
14528608 73 15913332398769731026
14739800 52 18040704840873917745
14849402 71 16588603018187438076
15131766 46 18050001388455916148
15183329 4 17203611488371389153
15196674 1 16773806886894385810
15238133 3 17676492717773627244
15475509 35 9078846139038782788
16079462 125 18202274805872866713
17844677 252 18260554449826030817
17980427 23 17967535683856444637
18222031 100 12967128306859078674
18769570 83 18113616755525729093
19489759 90 18334293171874132451
20281389 69 18341889710041463945
20511986 3 17917697020734902918
20567600 247 10879996843560343484
21033648 29 18341603832797212417
21130935 74 16370722647376118184
21641784 216 17489325074076430032
21859007 373 18268701715435333652
22061861 79 17632860810759627365
22122407 14 18041289871291429420
23081809 10 17240203256797777915
23402539 116 18407754846344616447
23522609 53 12246566784664530747
23536379 177 18261108569331998906
23559900 14 16486682688460212154
23569914 152 14831373155540207797
23569914 2 17614791496720619781
25122255 55 10231760015240334109
2838139 119 18334568011031769749
29717793 49 14261359059105903432
3004659 81 17775295941591257022
312425 54 16588021329280965928
33382 64 10087648104271783540
335352 9 16773801412045005252
34797466 226 18339938102687633470
3680242 22 14345785063866466104
4340502 62 18408046221116164186
5104073 3 14707786128632338624
5283173 99 18342455894290271737
542803 24 18040150734125763682

>  <PUBCHEM_SHAPE_MULTIPOLES>  (1) 
505.72
17.33
1.78
1.63
4.01
1.79
-0.03
6.79
-1.39
1.52
0.2
-1.26
-0.36
0.33

>  <PUBCHEM_SHAPE_SELFOVERLAP>  (1) 
1095.833

>  <PUBCHEM_SHAPE_VOLUME>  (1) 
277.6

>  <PUBCHEM_COORDINATE_TYPE>  (1) 
2
5
10

$$$$
