2694
     RDKit          3D

 38 40  0  0  1  0  0  0  0  0999 V2000
   -3.9753    0.0166    2.3990 O   0  0  0  0  0  0  0  0  0  0  0  0
   -2.6706    1.8887   -2.6698 O   0  0  0  0  0  0  0  0  0  0  0  0
    0.0593   -0.6542   -2.5500 O   0  0  0  0  0  0  0  0  0  0  0  0
   -2.3312   -2.5596    1.5647 O   0  0  0  0  0  0  0  0  0  0  0  0
    5.6667    2.4702    1.9773 O   0  0  0  0  0  0  0  0  0  0  0  0
    6.9426    0.1570    2.5516 O   0  0  0  0  0  0  0  0  0  0  0  0
   -3.7275    1.6358    0.7836 N   0  0  0  0  0  0  0  0  0  0  0  0
   -1.3823    1.7756   -0.7511 N   0  0  0  0  0  0  0  0  0  0  0  0
   -2.8785   -1.2004   -0.2462 N   0  0  0  0  0  0  0  0  0  0  0  0
   -0.2058   -0.6873   -0.2421 N   0  0  0  0  0  0  0  0  0  0  0  0
    6.8516    0.6316    1.2364 N   0  0  0  0  0  0  0  0  0  0  0  0
   -3.8034    2.1858   -0.5747 C   0  0  0  0  0  0  0  0  0  0  0  0
   -3.9482    3.6960   -0.3590 C   0  0  0  0  0  0  0  0  0  0  0  0
   -3.5447    2.6995    1.7659 C   0  0  0  0  0  0  0  0  0  0  0  0
   -3.2271    3.9461    0.9593 C   0  0  0  0  0  0  0  0  0  0  0  0
   -4.2053   -0.7322    0.1316 C   0  0  0  0  0  0  0  0  0  0  0  0
   -3.9895    0.3363    1.2051 C   0  0  0  0  0  0  0  0  0  0  0  0
   -2.5773    1.8916   -1.4413 C   0  0  0  0  0  0  0  0  0  0  0  0
   -5.1382   -1.8465    0.5914 C   0  0  0  0  0  0  0  0  0  0  0  0
   -0.1151    1.4513   -1.4005 C   0  0  0  0  0  0  0  0  0  0  0  0
    1.0685    2.0346   -0.6463 C   0  0  0  0  0  0  0  0  0  0  0  0
   -0.6224   -2.0748   -0.0835 C   0  0  0  0  0  0  0  0  0  0  0  0
   -5.2904   -2.9002   -0.5019 C   0  0  0  0  0  0  0  0  0  0  0  0
   -6.4979   -1.2761    0.9842 C   0  0  0  0  0  0  0  0  0  0  0  0
   -0.0725   -0.0696   -1.4762 C   0  0  0  0  0  0  0  0  0  0  0  0
    2.3949    1.6269   -1.2892 C   0  0  0  0  0  0  0  0  0  0  0  0
   -2.0227   -1.9766    0.5287 C   0  0  0  0  0  0  0  0  0  0  0  0
    0.3548   -2.8342    0.7970 C   0  0  0  0  0  0  0  0  0  0  0  0
    3.6203    2.2004   -0.5710 C   0  0  0  0  0  0  0  0  0  0  0  0
    4.9500    1.7224   -1.1639 C   0  0  0  0  0  0  0  0  0  0  0  0
    1.7330   -2.8879    0.1903 C   0  0  0  0  0  0  0  0  0  0  0  0
    6.1544    2.2511   -0.3847 C   0  0  0  0  0  0  0  0  0  0  0  0
    2.0682   -3.9399   -0.6496 C   0  0  0  0  0  0  0  0  0  0  0  0
    2.6459   -1.8846    0.4811 C   0  0  0  0  0  0  0  0  0  0  0  0
    6.1786    1.8183    1.0710 C   0  0  0  0  0  0  0  0  0  0  0  0
    3.3442   -3.9899   -1.2109 C   0  0  0  0  0  0  0  0  0  0  0  0
    3.9218   -1.9345   -0.0802 C   0  0  0  0  0  0  0  0  0  0  0  0
    4.2710   -2.9871   -0.9262 C   0  0  0  0  0  0  0  0  0  0  0  0
  1 17  2  0
  2 18  2  0
  3 25  2  0
  4 27  2  0
  5 35  2  0
  6 11  1  0
  7 12  1  0
  7 14  1  0
  7 17  1  0
  8 18  1  0
  8 20  1  0
  9 16  1  0
  9 27  1  0
 10 22  1  0
 10 25  1  0
 11 35  1  0
 12 13  1  0
 12 18  1  0
 13 15  1  0
 14 15  1  0
 16 17  1  0
 16 19  1  0
 19 23  1  0
 19 24  1  0
 20 21  1  0
 20 25  1  0
 21 26  1  0
 22 27  1  0
 22 28  1  0
 26 29  1  0
 28 31  1  0
 29 30  1  0
 30 32  1  0
 31 33  2  0
 31 34  1  0
 32 35  1  0
 33 36  1  0
 34 37  2  0
 36 38  2  0
 37 38  1  0
M  END
>  <PUBCHEM_COMPOUND_CID>  (1) 
2694

>  <PUBCHEM_CONFORMER_RMSD>  (1) 
1.6

>  <PUBCHEM_CONFORMER_DIVERSEORDER>  (1) 
1
126
69
25
29
89
173
147
46
182
70
194
168
141
170
101
134
8
197
110
176
36
148
115
55
131
140
56
20
87
136
98
169
153
207
80
26
34
221
156
119
81
96
48
158
106
191
72
45
22
118
151
167
187
49
42
184
133
3
18
129
57
43
53
213
159
17
135
39
76
2
198
210
59
209
5
150
132
92
199
103
113
121
154
188
190
128
157
74
28
171
146
78
223
75
52
217
14
178
164
163
102
212
162
125
86
37
214
145
219
97
203
73
142
65
104
93
35
38
186
84
206
11
77
27
63
6
10
82
193
116
177
137
16
218
143
211
44
117
149
79
90
124
222
202
83
109
205
105
67
166
41
122
195
220
85
179
216
160
161
60
95
91
155
66
12
88
130
21
174
215
185
71
208
200
201
181
50
9
189
58
64
152
100
94
68
112
183
196
19
123
24
33
15
138
139
13
192
120
99
165
32
114
111
204
144
107
108
23
62
54
180
4
31
40
175
127
61
51
172
47
7
30

>  <PUBCHEM_MMFF94_PARTIAL_CHARGES>  (1) 
39
1 -0.57
10 -0.73
11 -0.39
12 0.36
14 0.3
16 0.36
17 0.57
18 0.57
2 -0.57
20 0.36
22 0.36
25 0.57
27 0.57
28 0.14
3 -0.57
31 -0.14
32 0.06
33 -0.15
34 -0.15
35 0.57
36 -0.15
37 -0.15
38 -0.15
4 -0.57
49 0.37
5 -0.57
50 0.37
6 -0.44
62 0.37
7 -0.66
71 0.15
72 0.15
73 0.15
74 0.15
75 0.15
76 0.37
77 0.4
8 -0.73
9 -0.73

>  <PUBCHEM_EFFECTIVE_ROTOR_COUNT>  (1) 
11.8

>  <PUBCHEM_PHARMACOPHORE_FEATURES>  (1) 
13
1 1 acceptor
1 10 donor
1 11 donor
1 2 acceptor
1 3 acceptor
1 4 acceptor
1 5 acceptor
1 8 donor
1 9 donor
3 19 23 24 hydrophobe
5 21 26 29 30 32 hydrophobe
5 7 12 13 14 15 rings
6 31 33 34 36 37 38 rings

>  <PUBCHEM_HEAVY_ATOM_COUNT>  (1) 
38

>  <PUBCHEM_ATOM_DEF_STEREO_COUNT>  (1) 
0

>  <PUBCHEM_ATOM_UDEF_STEREO_COUNT>  (1) 
4

>  <PUBCHEM_BOND_DEF_STEREO_COUNT>  (1) 
0

>  <PUBCHEM_BOND_UDEF_STEREO_COUNT>  (1) 
0

>  <PUBCHEM_ISOTOPIC_ATOM_COUNT>  (1) 
0

>  <PUBCHEM_COMPONENT_COUNT>  (1) 
1

>  <PUBCHEM_CACTVS_TAUTO_COUNT>  (1) 
24

>  <PUBCHEM_CONFORMER_ID>  (1) 
00000A8600000001

>  <PUBCHEM_MMFF94_ENERGY>  (1) 
98.8612

>  <PUBCHEM_FEATURE_SELFOVERLAP>  (1) 
65.983

>  <PUBCHEM_SHAPE_FINGERPRINT>  (1) 
10864689 126 17614003993381159046
10939801 23 17900543677754648436
1100329 8 18046918073512579439
11513181 2 18271255949318429735
11578080 2 18341891832346197561
12422481 6 18187076248859247560
12925494 130 18339358544080594728
13140716 1 18118419349585994029
13811026 1 18260265266121605903
14415360 78 17683801013262283101
14466204 15 18339927112304750968
15968369 153 18268998755036155182
17913733 40 18343300375481739568
23559900 14 18122909720392618966
392239 28 18269848669261656041
4112364 45 17767996159145813937
460360 51 17821723901666995836
5171179 24 18337681801833150830
56638632 10 17987789851607398632
57527585 103 16807603774821018451
6371009 1 18264487454532098164

>  <PUBCHEM_SHAPE_MULTIPOLES>  (1) 
721.9
15.01
5.56
1.95
12.59
1.18
-0.15
-4.54
-7.16
0.55
0.29
0.62
-0.82
1.57

>  <PUBCHEM_SHAPE_SELFOVERLAP>  (1) 
1490.754

>  <PUBCHEM_SHAPE_VOLUME>  (1) 
408.2

>  <PUBCHEM_COORDINATE_TYPE>  (1) 
2
5
10

$$$$
