26962
     RDKit          3D

 25 26  0  0  0  0  0  0  0  0999 V2000
   -3.0610    0.5375   -0.0353 O   0  0  0  0  0  0  0  0  0  0  0  0
    3.2478   -0.0766   -1.4475 O   0  0  0  0  0  0  0  0  0  0  0  0
    5.7343   -0.4199   -0.3020 N   0  0  0  0  0  0  0  0  0  0  0  0
    2.4480    0.7067    0.6161 N   0  0  0  0  0  0  0  0  0  0  0  0
    4.8093    0.5512    0.2813 C   0  0  0  0  0  0  0  0  0  0  0  0
    5.2896   -1.7837   -0.0182 C   0  0  0  0  0  0  0  0  0  0  0  0
    7.0880   -0.2068    0.2089 C   0  0  0  0  0  0  0  0  0  0  0  0
    1.0432    0.6634    0.4499 C   0  0  0  0  0  0  0  0  0  0  0  0
    0.3819    1.7749   -0.0511 C   0  0  0  0  0  0  0  0  0  0  0  0
    0.3518   -0.4895    0.7908 C   0  0  0  0  0  0  0  0  0  0  0  0
    3.4251    0.3492   -0.3107 C   0  0  0  0  0  0  0  0  0  0  0  0
   -1.7101    0.5789    0.1244 C   0  0  0  0  0  0  0  0  0  0  0  0
   -1.0028    1.7324   -0.2148 C   0  0  0  0  0  0  0  0  0  0  0  0
   -1.0327   -0.5321    0.6270 C   0  0  0  0  0  0  0  0  0  0  0  0
    6.2397   -2.8069   -0.6172 C   0  0  0  0  0  0  0  0  0  0  0  0
    7.5902    1.1863   -0.1309 C   0  0  0  0  0  0  0  0  0  0  0  0
    1.1121    3.0245   -0.4241 C   0  0  0  0  0  0  0  0  0  0  0  0
    1.0492   -1.6954    1.3317 C   0  0  0  0  0  0  0  0  0  0  0  0
   -3.7215   -0.6731    0.3312 C   0  0  0  0  0  0  0  0  0  0  0  0
   -5.1896   -0.5332    0.0543 C   0  0  0  0  0  0  0  0  0  0  0  0
   -6.0325   -0.0382    1.0433 C   0  0  0  0  0  0  0  0  0  0  0  0
   -5.6939   -0.8994   -1.1886 C   0  0  0  0  0  0  0  0  0  0  0  0
   -7.3972    0.0920    0.7859 C   0  0  0  0  0  0  0  0  0  0  0  0
   -7.0586   -0.7690   -1.4459 C   0  0  0  0  0  0  0  0  0  0  0  0
   -7.9102   -0.2732   -0.4585 C   0  0  0  0  0  0  0  0  0  0  0  0
  1 12  1  0
  1 19  1  0
  2 11  2  0
  3  5  1  0
  3  6  1  0
  3  7  1  0
  4  8  1  0
  4 11  1  0
  5 11  1  0
  6 15  1  0
  7 16  1  0
  8  9  2  0
  8 10  1  0
  9 13  1  0
  9 17  1  0
 10 14  2  0
 10 18  1  0
 12 13  2  0
 12 14  1  0
 19 20  1  0
 20 21  2  0
 20 22  1  0
 21 23  1  0
 22 24  2  0
 23 25  2  0
 24 25  1  0
M  END
>  <PUBCHEM_COMPOUND_CID>  (1) 
26962

>  <PUBCHEM_CONFORMER_RMSD>  (1) 
1

>  <PUBCHEM_CONFORMER_DIVERSEORDER>  (1) 
1
12
33
8
11
16
14
26
31
30
13
32
6
7
17
22
28
23
20
21
24
29
25
10
27
3
5
2
15
18
4
19
9

>  <PUBCHEM_MMFF94_PARTIAL_CHARGES>  (1) 
31
1 -0.36
10 -0.14
11 0.57
12 0.08
13 -0.15
14 -0.15
17 0.14
18 0.14
19 0.42
2 -0.57
20 -0.14
21 -0.15
22 -0.15
23 -0.15
24 -0.15
25 -0.15
3 -0.81
32 0.37
33 0.15
34 0.15
4 -0.55
49 0.15
5 0.33
50 0.15
51 0.15
52 0.15
53 0.15
6 0.27
7 0.27
8 0.12
9 -0.14

>  <PUBCHEM_EFFECTIVE_ROTOR_COUNT>  (1) 
9

>  <PUBCHEM_PHARMACOPHORE_FEATURES>  (1) 
6
1 1 acceptor
1 2 acceptor
1 3 cation
1 4 donor
6 20 21 22 23 24 25 rings
6 8 9 10 12 13 14 rings

>  <PUBCHEM_HEAVY_ATOM_COUNT>  (1) 
25

>  <PUBCHEM_ATOM_DEF_STEREO_COUNT>  (1) 
0

>  <PUBCHEM_ATOM_UDEF_STEREO_COUNT>  (1) 
0

>  <PUBCHEM_BOND_DEF_STEREO_COUNT>  (1) 
0

>  <PUBCHEM_BOND_UDEF_STEREO_COUNT>  (1) 
0

>  <PUBCHEM_ISOTOPIC_ATOM_COUNT>  (1) 
0

>  <PUBCHEM_COMPONENT_COUNT>  (1) 
1

>  <PUBCHEM_CACTVS_TAUTO_COUNT>  (1) 
2

>  <PUBCHEM_CONFORMER_ID>  (1) 
0000695200000001

>  <PUBCHEM_MMFF94_ENERGY>  (1) 
91.9725

>  <PUBCHEM_FEATURE_SELFOVERLAP>  (1) 
30.446

>  <PUBCHEM_SHAPE_FINGERPRINT>  (1) 
10 15 12751233709718988707
10299344 5 17846499235719802799
106641 1 12463566300832332535
10670039 82 16370712722218627381
10693767 8 18411128117622338766
11315181 36 17203611510880109555
12236239 1 18059856203779611089
12838862 33 18187913019798909968
13533116 47 18272370893195885176
13540713 4 17534633895272877513
13685833 64 18411982459858005032
13885169 127 18201439138951075273
14123256 10 17748825215672665515
14251764 18 17846499239935466856
15119646 104 18201441341668151855
15183329 4 18413669115000816091
15198563 99 17822853065781418916
15849732 13 17917710227411048869
18006028 8 18342457053746740625
18681886 176 18059285561312753683
20281389 69 10087642589417600746
21033648 29 8430015535488942148
21267235 1 18334579062457012017
21637258 2 17632570544122070071
21781051 124 17313969496490531179
21792961 116 17531238431287570323
22224240 67 17203888578729828998
23522609 53 17985577578320294401
23559900 14 18263641930628519217
23569943 247 18269274556477677899
23622692 88 12535623882001091929
249057 3 16226051123522720143
2838139 119 13334733552648818958
3009799 131 18040152937607614080
3178227 256 18114757004970575065
335352 9 18334575784816553975
397830 11 13901324027803530559
4325135 7 18202283615436184308
5104073 3 11527134216783087735
5219985 9 18343863320634447600
5718773 13 18268710507597885606
59682541 35 14261344774076591510
59755656 215 17967248672113442667
59755656 520 8142084234673851089
6081469 158 17530963571742202534

>  <PUBCHEM_SHAPE_MULTIPOLES>  (1) 
492.79
23.09
2.08
1.07
9.3
0.29
0.1
-7.6
3.87
-3.39
0.3
1
-0.28
-0.19

>  <PUBCHEM_SHAPE_SELFOVERLAP>  (1) 
1023.245

>  <PUBCHEM_SHAPE_VOLUME>  (1) 
283.4

>  <PUBCHEM_COORDINATE_TYPE>  (1) 
2
5
10

$$$$
