26966
     RDKit          3D

 24 26  0  0  0  0  0  0  0  0999 V2000
   -1.0834   -0.3893   -0.9527 Si  0  0  0  0  0  4  0  0  0  0  0  0
    1.2229   -2.4303   -0.2375 Si  0  0  0  0  0  4  0  0  0  0  0  0
   -0.2467   -1.6328   -0.2241 O   0  0  0  0  0  0  0  0  0  0  0  0
   -2.7797   -0.3200   -0.1433 C   0  0  0  0  0  0  0  0  0  0  0  0
   -0.2854    1.2362   -0.4429 C   0  0  0  0  0  0  0  0  0  0  0  0
    2.5246   -1.1126    0.1752 C   0  0  0  0  0  0  0  0  0  0  0  0
   -1.1514   -0.5455   -2.8029 C   0  0  0  0  0  0  0  0  0  0  0  0
    1.2701   -3.8226    1.0185 C   0  0  0  0  0  0  0  0  0  0  0  0
    1.5696   -3.1611   -1.9325 C   0  0  0  0  0  0  0  0  0  0  0  0
   -3.6502    0.7068   -0.4752 C   0  0  0  0  0  0  0  0  0  0  0  0
   -0.1063    1.5126    0.9036 C   0  0  0  0  0  0  0  0  0  0  0  0
   -3.1363   -1.2963    0.7742 C   0  0  0  0  0  0  0  0  0  0  0  0
    0.1119    2.1349   -1.4207 C   0  0  0  0  0  0  0  0  0  0  0  0
    2.8738   -0.9154    1.4938 C   0  0  0  0  0  0  0  0  0  0  0  0
    3.0853   -0.3883   -0.8546 C   0  0  0  0  0  0  0  0  0  0  0  0
   -4.9080    0.7588    0.1254 C   0  0  0  0  0  0  0  0  0  0  0  0
    0.4847    2.7180    1.2819 C   0  0  0  0  0  0  0  0  0  0  0  0
   -4.3942   -1.2442    1.3748 C   0  0  0  0  0  0  0  0  0  0  0  0
    0.7032    3.3403   -1.0423 C   0  0  0  0  0  0  0  0  0  0  0  0
    3.8301    0.0536    1.7975 C   0  0  0  0  0  0  0  0  0  0  0  0
    4.0418    0.5806   -0.5508 C   0  0  0  0  0  0  0  0  0  0  0  0
   -5.2801   -0.2167    1.0503 C   0  0  0  0  0  0  0  0  0  0  0  0
    0.8895    3.6318    0.3090 C   0  0  0  0  0  0  0  0  0  0  0  0
    4.4141    0.8015    0.7753 C   0  0  0  0  0  0  0  0  0  0  0  0
  1  3  1  0
  1  4  1  0
  1  5  1  0
  1  7  1  0
  2  3  1  0
  2  6  1  0
  2  8  1  0
  2  9  1  0
  4 10  2  0
  4 12  1  0
  5 11  2  0
  5 13  1  0
  6 14  2  0
  6 15  1  0
 10 16  1  0
 11 17  1  0
 12 18  2  0
 13 19  2  0
 14 20  1  0
 15 21  2  0
 16 22  2  0
 17 23  2  0
 18 22  1  0
 19 23  1  0
 20 24  2  0
 21 24  1  0
M  END
>  <PUBCHEM_COMPOUND_CID>  (1) 
26966

>  <PUBCHEM_CONFORMER_RMSD>  (1) 
0.8

>  <PUBCHEM_CONFORMER_DIVERSEORDER>  (1) 
2
17
4
3
14
18
12
7
8
15
16
9
13
1
10
6
11
5

>  <PUBCHEM_MMFF94_PARTIAL_CHARGES>  (1) 
39
1 0.82
10 -0.15
11 -0.15
12 -0.15
13 -0.15
14 -0.15
15 -0.15
16 -0.15
17 -0.15
18 -0.15
19 -0.15
2 0.68
20 -0.15
21 -0.15
22 -0.15
23 -0.15
24 -0.15
3 -0.59
34 0.15
35 0.15
36 0.15
37 0.15
38 0.15
39 0.15
4 -0.22
40 0.15
41 0.15
42 0.15
43 0.15
44 0.15
45 0.15
46 0.15
47 0.15
48 0.15
5 -0.22
6 -0.22
7 -0.08
8 -0.08
9 -0.08

>  <PUBCHEM_EFFECTIVE_ROTOR_COUNT>  (1) 
5

>  <PUBCHEM_PHARMACOPHORE_FEATURES>  (1) 
3
6 4 10 12 16 18 22 rings
6 5 11 13 17 19 23 rings
6 6 14 15 20 21 24 rings

>  <PUBCHEM_HEAVY_ATOM_COUNT>  (1) 
24

>  <PUBCHEM_ATOM_DEF_STEREO_COUNT>  (1) 
0

>  <PUBCHEM_ATOM_UDEF_STEREO_COUNT>  (1) 
0

>  <PUBCHEM_BOND_DEF_STEREO_COUNT>  (1) 
0

>  <PUBCHEM_BOND_UDEF_STEREO_COUNT>  (1) 
0

>  <PUBCHEM_ISOTOPIC_ATOM_COUNT>  (1) 
0

>  <PUBCHEM_COMPONENT_COUNT>  (1) 
1

>  <PUBCHEM_CACTVS_TAUTO_COUNT>  (1) 
1

>  <PUBCHEM_CONFORMER_ID>  (1) 
0000695600000002

>  <PUBCHEM_MMFF94_ENERGY>  (1) 
46.5446

>  <PUBCHEM_FEATURE_SELFOVERLAP>  (1) 
15.224

>  <PUBCHEM_SHAPE_FINGERPRINT>  (1) 
10006869 2 18055907702135408897
10162869 55 18343582963693626515
1100329 8 18194124238277881424
11112241 14 17058349617332453560
11578080 2 17460309950113802453
12422481 6 18198887133634215626
12553582 1 18410567388097599988
12633257 1 18260830444783311131
13132413 78 18341336600201210341
13140716 1 18194683893949143291
133893 2 17904452432040959300
13965767 371 17774138116554420714
14170010 4 18341613694870292161
14223421 5 18052254003642753198
14787075 74 18336835281069657127
14790565 3 18337961202520330180
14955137 171 18200607993463424607
15081414 286 18341626875481137665
15664445 248 18337408062424784940
1601671 61 18411985771035073800
18186145 218 8790589430062478279
18785283 64 18117288153794720573
20600515 1 17822024089632163735
20642791 178 18115881865147548845
20691752 17 18122875824710691648
20715895 44 17389924678849794525
20739085 24 18341621386391666058
21033648 29 17489580135140692617
23419403 2 17750494321494683669
23558518 356 17546712760358286276
23559900 14 17971759865417325671
350125 39 18122630723822754923
35225 105 17040101744300124619
3797600 57 17967249797922167210
394222 165 16228053355809361798
484985 159 14571481571034538650
57527358 35 15792278307767066892
59755656 215 18270966726869446094
70251023 43 17910968941307049535
81228 2 17905056845866845713

>  <PUBCHEM_SHAPE_MULTIPOLES>  (1) 
524.47
8.08
4.03
1.89
6.63
0.69
0.63
-0.75
-3.69
-2.39
0.16
-0.2
-0.42
0.62

>  <PUBCHEM_SHAPE_SELFOVERLAP>  (1) 
1084.668

>  <PUBCHEM_SHAPE_VOLUME>  (1) 
299.4

>  <PUBCHEM_COORDINATE_TYPE>  (1) 
2
5
10

$$$$
