26967
     RDKit          3D

  9  9  0  0  0  0  0  0  0  0999 V2000
    0.3908   -3.1759    0.0024 Br  0  0  0  0  0  0  0  0  0  0  0  0
   -2.9460    1.2496    0.0031 Br  0  0  0  0  0  0  0  0  0  0  0  0
    2.5553    1.9263    0.0030 Br  0  0  0  0  0  0  0  0  0  0  0  0
   -1.1062   -0.8341   -0.0012 N   0  0  0  0  0  0  0  0  0  0  0  0
    1.2754   -0.5409   -0.0011 N   0  0  0  0  0  0  0  0  0  0  0  0
   -0.1693    1.3750   -0.0018 N   0  0  0  0  0  0  0  0  0  0  0  0
    0.1584   -1.2860   -0.0010 C   0  0  0  0  0  0  0  0  0  0  0  0
   -1.1929    0.5059   -0.0017 C   0  0  0  0  0  0  0  0  0  0  0  0
    1.0345    0.7801   -0.0016 C   0  0  0  0  0  0  0  0  0  0  0  0
  1  7  1  0
  2  8  1  0
  3  9  1  0
  4  7  2  0
  4  8  1  0
  5  7  1  0
  5  9  2  0
  6  8  2  0
  6  9  1  0
M  END
>  <PUBCHEM_COMPOUND_CID>  (1) 
26967

>  <PUBCHEM_CONFORMER_RMSD>  (1) 
0.4

>  <PUBCHEM_CONFORMER_DIVERSEORDER>  (1) 
1

>  <PUBCHEM_MMFF94_PARTIAL_CHARGES>  (1) 
9
1 -0.11
2 -0.11
3 -0.11
4 -0.62
5 -0.62
6 -0.62
7 0.73
8 0.73
9 0.73

>  <PUBCHEM_EFFECTIVE_ROTOR_COUNT>  (1) 
0

>  <PUBCHEM_PHARMACOPHORE_FEATURES>  (1) 
7
1 1 hydrophobe
1 2 hydrophobe
1 3 hydrophobe
3 4 5 7 cation
3 4 6 8 cation
3 5 6 9 cation
6 4 5 6 7 8 9 rings

>  <PUBCHEM_HEAVY_ATOM_COUNT>  (1) 
9

>  <PUBCHEM_ATOM_DEF_STEREO_COUNT>  (1) 
0

>  <PUBCHEM_ATOM_UDEF_STEREO_COUNT>  (1) 
0

>  <PUBCHEM_BOND_DEF_STEREO_COUNT>  (1) 
0

>  <PUBCHEM_BOND_UDEF_STEREO_COUNT>  (1) 
0

>  <PUBCHEM_ISOTOPIC_ATOM_COUNT>  (1) 
0

>  <PUBCHEM_COMPONENT_COUNT>  (1) 
1

>  <PUBCHEM_CACTVS_TAUTO_COUNT>  (1) 
1

>  <PUBCHEM_CONFORMER_ID>  (1) 
0000695700000001

>  <PUBCHEM_MMFF94_ENERGY>  (1) 
10.6601

>  <PUBCHEM_FEATURE_SELFOVERLAP>  (1) 
38.293

>  <PUBCHEM_SHAPE_FINGERPRINT>  (1) 
1 1 18410292467267395741
12716758 59 18196942282248143124
16945 1 18194401095821811941
19021347 4 18338516464127973872
20871998 184 17480030030539502084
21040471 1 18338516459907132292
23552423 10 18268427936881430445
23552449 1 17474667729236511220
241688 4 17185876090900447640
2748010 2 18337118946210202143
81228 2 17762338419456868560

>  <PUBCHEM_SHAPE_MULTIPOLES>  (1) 
188.1
3.32
3.32
0.64
2.23
2.67
0
-2.67
0
-2.23
0
0
0
0

>  <PUBCHEM_SHAPE_SELFOVERLAP>  (1) 
341.756

>  <PUBCHEM_SHAPE_VOLUME>  (1) 
127

>  <PUBCHEM_COORDINATE_TYPE>  (1) 
2
5
10

$$$$
