26972
     RDKit          3D

 19 20  0  0  0  0  0  0  0  0999 V2000
   -5.7542    0.7661    0.2441 F   0  0  0  0  0  0  0  0  0  0  0  0
    0.3900    1.2854   -0.3737 O   0  0  0  0  0  0  0  0  0  0  0  0
    1.6611   -1.3336    0.2678 N   0  0  0  0  0  0  0  0  0  0  0  0
    4.3427    1.2891    0.2948 N   0  0  0  0  0  0  0  0  0  0  0  0
    2.5787   -0.3335    0.8060 C   0  0  0  0  0  0  0  0  0  0  0  0
    3.4586    0.2765   -0.2812 C   0  0  0  0  0  0  0  0  0  0  0  0
    0.4039   -1.0833   -0.1938 C   0  0  0  0  0  0  0  0  0  0  0  0
    1.9538   -2.6603    0.1609 C   0  0  0  0  0  0  0  0  0  0  0  0
   -0.1277   -2.2836   -0.6107 C   0  0  0  0  0  0  0  0  0  0  0  0
    0.8529   -3.2813   -0.3864 C   0  0  0  0  0  0  0  0  0  0  0  0
   -0.2190    0.2048   -0.2264 C   0  0  0  0  0  0  0  0  0  0  0  0
    3.5609    2.3366    0.9508 C   0  0  0  0  0  0  0  0  0  0  0  0
    5.2028    1.8644   -0.7385 C   0  0  0  0  0  0  0  0  0  0  0  0
   -1.7046    0.3554   -0.1001 C   0  0  0  0  0  0  0  0  0  0  0  0
   -2.3952   -0.5753    0.6364 C   0  0  0  0  0  0  0  0  0  0  0  0
   -2.3089    1.4176   -0.7266 C   0  0  0  0  0  0  0  0  0  0  0  0
   -3.7779   -0.4350    0.7540 C   0  0  0  0  0  0  0  0  0  0  0  0
   -3.6917    1.5581   -0.6090 C   0  0  0  0  0  0  0  0  0  0  0  0
   -4.4264    0.6318    0.1315 C   0  0  0  0  0  0  0  0  0  0  0  0
  1 19  1  0
  2 11  2  0
  3  5  1  0
  3  7  1  0
  3  8  1  0
  4  6  1  0
  4 12  1  0
  4 13  1  0
  5  6  1  0
  7  9  2  0
  7 11  1  0
  8 10  2  0
  9 10  1  0
 11 14  1  0
 14 15  2  0
 14 16  1  0
 15 17  1  0
 16 18  2  0
 17 19  2  0
 18 19  1  0
M  END
>  <PUBCHEM_COMPOUND_CID>  (1) 
26972

>  <PUBCHEM_CONFORMER_RMSD>  (1) 
0.6

>  <PUBCHEM_CONFORMER_DIVERSEORDER>  (1) 
1
63
55
57
50
49
79
52
10
81
62
80
77
75
66
56
27
84
37
72
26
78
9
73
51
54
29
69
20
76
68
8
64
67
41
4
25
40
32
24
70
42
11
21
45
16
71
22
30
35
44
28
5
58
33
82
13
7
3
59
6
61
48
74
46
12
17
34
83
36
19
60
47
31
65
2
15
14
53
18
23
39
38
43

>  <PUBCHEM_MMFF94_PARTIAL_CHARGES>  (1) 
26
1 -0.19
10 -0.15
11 0.57
12 0.27
13 0.27
14 0.09
15 -0.15
16 -0.15
17 -0.15
18 -0.15
19 0.19
2 -0.57
24 0.15
25 0.15
26 0.15
3 0.05
33 0.15
34 0.15
35 0.15
36 0.15
4 -0.81
5 0.26
6 0.27
7 -0.24
8 -0.3
9 -0.15

>  <PUBCHEM_EFFECTIVE_ROTOR_COUNT>  (1) 
5

>  <PUBCHEM_PHARMACOPHORE_FEATURES>  (1) 
5
1 2 acceptor
1 3 cation
1 4 cation
5 3 7 8 9 10 rings
6 14 15 16 17 18 19 rings

>  <PUBCHEM_HEAVY_ATOM_COUNT>  (1) 
19

>  <PUBCHEM_ATOM_DEF_STEREO_COUNT>  (1) 
0

>  <PUBCHEM_ATOM_UDEF_STEREO_COUNT>  (1) 
0

>  <PUBCHEM_BOND_DEF_STEREO_COUNT>  (1) 
0

>  <PUBCHEM_BOND_UDEF_STEREO_COUNT>  (1) 
0

>  <PUBCHEM_ISOTOPIC_ATOM_COUNT>  (1) 
0

>  <PUBCHEM_COMPONENT_COUNT>  (1) 
1

>  <PUBCHEM_CACTVS_TAUTO_COUNT>  (1) 
1

>  <PUBCHEM_CONFORMER_ID>  (1) 
0000695C00000001

>  <PUBCHEM_MMFF94_ENERGY>  (1) 
44.759

>  <PUBCHEM_FEATURE_SELFOVERLAP>  (1) 
25.371

>  <PUBCHEM_SHAPE_FINGERPRINT>  (1) 
10165383 225 18411140264301087008
10493431 412 18339358699010205456
10608611 8 18191020097782730693
10906281 52 18041578987304531925
11578080 2 16227435266791098006
12390115 104 18198075848534283752
12969540 114 18339632429912864588
13955234 65 18339644421382810554
14123255 52 18412259575558902784
14528608 73 18343297085225632461
1454969 45 18265336299505953479
146900 427 18343588430142697729
14787075 74 18058727051986387371
14790565 3 18338525243147635252
15219456 202 18263081024799650287
15375358 24 18187928344300296211
17134986 127 18412541020724108534
17980427 23 17459195234328269663
1813 80 11602812454865254434
18186145 218 17988361563562940352
18222031 100 11458423514380326328
18785283 64 18334573491673789626
19591789 44 18195526119449792232
19784866 170 18334017202670922697
204376 136 18412262865197941878
20645477 70 18196648502285244111
21524375 3 18409164424768120674
22620623 9 16986867076402522462
23227448 37 18052819432035248268
23558518 356 17615396396172482408
23559900 14 18047184146821391139
23566358 27 18271802359226173975
293599 30 18339645637396332648
350125 39 18336828585695222766
3729539 64 18126589859468678038
44154327 71 18409446990523891748
449060 62 18412826858786146754
458136 41 18342178838781985378
474 4 18342458148926166200
474229 33 18337390555868917663
5104073 3 18189059694737065401
621550 34 18261108522387896205
633830 44 17988926673468310060
6442390 28 18339923835112659866
7364860 26 18268147557169177838
7808743 9 18120374517620881652
81228 2 17547270659799257242
81539 233 18408321064594232646
8272917 22 18271527481518916351
9709674 26 18192714445459940499
9999458 23 18334296423259736878

>  <PUBCHEM_SHAPE_MULTIPOLES>  (1) 
367.91
9.69
3
0.88
2.09
2.05
0.04
-7.8
0.54
-2.64
-0.32
-0.14
-0.14
0.41

>  <PUBCHEM_SHAPE_SELFOVERLAP>  (1) 
782.144

>  <PUBCHEM_SHAPE_VOLUME>  (1) 
209.4

>  <PUBCHEM_COORDINATE_TYPE>  (1) 
2
5
10

$$$$
