2698
     RDKit          3D

 39 41  0  0  1  0  0  0  0  0999 V2000
   -2.3297   -0.3616    1.0676 O   0  0  0  0  0  0  0  0  0  0  0  0
   -2.1041   -0.1292   -3.5645 O   0  0  0  0  0  0  0  0  0  0  0  0
    0.3810    1.7307   -2.2846 O   0  0  0  0  0  0  0  0  0  0  0  0
   -0.0060    1.1981    2.4094 O   0  0  0  0  0  0  0  0  0  0  0  0
    2.0084   -3.5395    2.7914 O   0  0  0  0  0  0  0  0  0  0  0  0
    0.0268   -1.8663    3.5546 O   0  0  0  0  0  0  0  0  0  0  0  0
   -3.3988    0.6229   -0.7224 N   0  0  0  0  0  0  0  0  0  0  0  0
   -1.0044   -0.9027   -1.6774 N   0  0  0  0  0  0  0  0  0  0  0  0
   -1.1960    2.3441    0.7642 N   0  0  0  0  0  0  0  0  0  0  0  0
    1.1579    0.7783   -0.3233 N   0  0  0  0  0  0  0  0  0  0  0  0
   -0.2446   -3.0342    2.8295 N   0  0  0  0  0  0  0  0  0  0  0  0
   -3.4122   -0.5751   -1.5638 C   0  0  0  0  0  0  0  0  0  0  0  0
   -4.6783   -0.4100   -2.3993 C   0  0  0  0  0  0  0  0  0  0  0  0
   -4.7969    1.1014   -2.5834 C   0  0  0  0  0  0  0  0  0  0  0  0
   -4.2342    1.6770   -1.2910 C   0  0  0  0  0  0  0  0  0  0  0  0
   -2.5714    2.0261    1.1503 C   0  0  0  0  0  0  0  0  0  0  0  0
   -2.7953    0.6475    0.5292 C   0  0  0  0  0  0  0  0  0  0  0  0
   -2.1288   -0.5268   -2.4015 C   0  0  0  0  0  0  0  0  0  0  0  0
   -2.8400    2.0428    2.6483 C   0  0  0  0  0  0  0  0  0  0  0  0
    0.3556   -0.6653   -2.1433 C   0  0  0  0  0  0  0  0  0  0  0  0
    1.3036   -1.7750   -1.7213 C   0  0  0  0  0  0  0  0  0  0  0  0
    1.1818    2.0030    0.4712 C   0  0  0  0  0  0  0  0  0  0  0  0
    0.8994   -3.1179   -2.3326 C   0  0  0  0  0  0  0  0  0  0  0  0
    0.6785    0.7344   -1.6228 C   0  0  0  0  0  0  0  0  0  0  0  0
   -4.2755    1.6095    2.9465 C   0  0  0  0  0  0  0  0  0  0  0  0
   -2.5703    3.4299    3.2318 C   0  0  0  0  0  0  0  0  0  0  0  0
   -0.0460    1.8375    1.3605 C   0  0  0  0  0  0  0  0  0  0  0  0
    1.7814   -4.2852   -1.8802 C   0  0  0  0  0  0  0  0  0  0  0  0
    2.4650    2.0996    1.2795 C   0  0  0  0  0  0  0  0  0  0  0  0
    1.8197   -4.4660   -0.3606 C   0  0  0  0  0  0  0  0  0  0  0  0
    0.4306   -4.8067    0.1900 C   0  0  0  0  0  0  0  0  0  0  0  0
    3.6823    2.1703    0.3943 C   0  0  0  0  0  0  0  0  0  0  0  0
    0.4432   -5.0316    1.7013 C   0  0  0  0  0  0  0  0  0  0  0  0
    4.3266    0.9978   -0.0006 C   0  0  0  0  0  0  0  0  0  0  0  0
    4.1648    3.4083   -0.0307 C   0  0  0  0  0  0  0  0  0  0  0  0
    0.8452   -3.8034    2.4993 C   0  0  0  0  0  0  0  0  0  0  0  0
    5.4533    1.0631   -0.8202 C   0  0  0  0  0  0  0  0  0  0  0  0
    5.2916    3.4734   -0.8505 C   0  0  0  0  0  0  0  0  0  0  0  0
    5.9357    2.3008   -1.2452 C   0  0  0  0  0  0  0  0  0  0  0  0
  1 17  2  0
  2 18  2  0
  3 24  2  0
  4 27  2  0
  5 36  2  0
  6 11  1  0
  7 12  1  0
  7 15  1  0
  7 17  1  0
  8 18  1  0
  8 20  1  0
  9 16  1  0
  9 27  1  0
 10 22  1  0
 10 24  1  0
 11 36  1  0
 12 13  1  0
 12 18  1  0
 13 14  1  0
 14 15  1  0
 16 17  1  0
 16 19  1  0
 19 25  1  0
 19 26  1  0
 20 21  1  0
 20 24  1  0
 21 23  1  0
 22 27  1  0
 22 29  1  0
 23 28  1  0
 28 30  1  0
 29 32  1  0
 30 31  1  0
 31 33  1  0
 32 34  2  0
 32 35  1  0
 33 36  1  0
 34 37  1  0
 35 38  2  0
 37 39  2  0
 38 39  1  0
M  END
>  <PUBCHEM_COMPOUND_CID>  (1) 
2698

>  <PUBCHEM_CONFORMER_RMSD>  (1) 
1.8

>  <PUBCHEM_CONFORMER_DIVERSEORDER>  (1) 
1
22
73
100
99
77
42
60
52
54
12
23
84
106
79
43
63
96
104
65
16
76
44
28
80
48
72
50
70
51
58
14
86
9
107
90
13
24
83
19
89
102
20
21
53
25
97
59
56
18
69
49
30
75
74
62
47
46
41
37
103
4
35
87
10
7
66
57
29
88
31
93
17
61
91
101
5
68
108
64
11
67
94
36
6
71
105
39
55
2
32
45
27
38
98
33
95
78
81
92
8
34
3
26
15
40
85
82

>  <PUBCHEM_MMFF94_PARTIAL_CHARGES>  (1) 
39
1 -0.57
10 -0.73
11 -0.39
12 0.36
15 0.3
16 0.36
17 0.57
18 0.57
2 -0.57
20 0.36
22 0.36
24 0.57
27 0.57
29 0.14
3 -0.57
32 -0.14
33 0.06
34 -0.15
35 -0.15
36 0.57
37 -0.15
38 -0.15
39 -0.15
4 -0.57
5 -0.57
50 0.37
53 0.37
6 -0.44
63 0.37
7 -0.66
74 0.15
75 0.15
76 0.15
77 0.15
78 0.15
79 0.37
8 -0.73
80 0.4
9 -0.73

>  <PUBCHEM_EFFECTIVE_ROTOR_COUNT>  (1) 
12.8

>  <PUBCHEM_PHARMACOPHORE_FEATURES>  (1) 
14
1 1 acceptor
1 10 donor
1 11 donor
1 2 acceptor
1 3 acceptor
1 4 acceptor
1 5 acceptor
1 8 donor
1 9 donor
3 19 25 26 hydrophobe
3 21 23 28 hydrophobe
3 30 31 33 hydrophobe
5 7 12 13 14 15 rings
6 32 34 35 37 38 39 rings

>  <PUBCHEM_HEAVY_ATOM_COUNT>  (1) 
39

>  <PUBCHEM_ATOM_DEF_STEREO_COUNT>  (1) 
0

>  <PUBCHEM_ATOM_UDEF_STEREO_COUNT>  (1) 
4

>  <PUBCHEM_BOND_DEF_STEREO_COUNT>  (1) 
0

>  <PUBCHEM_BOND_UDEF_STEREO_COUNT>  (1) 
0

>  <PUBCHEM_ISOTOPIC_ATOM_COUNT>  (1) 
0

>  <PUBCHEM_COMPONENT_COUNT>  (1) 
1

>  <PUBCHEM_CACTVS_TAUTO_COUNT>  (1) 
24

>  <PUBCHEM_CONFORMER_ID>  (1) 
00000A8A00000001

>  <PUBCHEM_MMFF94_ENERGY>  (1) 
100.1274

>  <PUBCHEM_FEATURE_SELFOVERLAP>  (1) 
71.05

>  <PUBCHEM_SHAPE_FINGERPRINT>  (1) 
11991303 11 18117000098954162006
12156800 1 17553447638551629578
12788726 201 17488464247003622164
133893 2 18192701263803947339
15219462 58 17683281026051262209
15264996 154 17985795243294897407
15264996 19 17828471797880151295
19311894 1 16987427823142813557
22440779 20 17178283379501627622
27425 322 18338817691786854112
35225 105 17831563637214192410
4058900 60 18410290315494191973
5080951 261 17826795034411098328

>  <PUBCHEM_SHAPE_MULTIPOLES>  (1) 
742.48
9.15
6.64
4.09
5.85
9.48
-1.63
-11.2
4.56
4.96
-4.07
-3.92
1.56
-2.68

>  <PUBCHEM_SHAPE_SELFOVERLAP>  (1) 
1530.092

>  <PUBCHEM_SHAPE_VOLUME>  (1) 
422.1

>  <PUBCHEM_COORDINATE_TYPE>  (1) 
2
5
10

$$$$
