26988
     RDKit          3D

 22 24  0  0  1  0  0  0  0  0999 V2000
   -0.4059   -2.2521   -1.8237 Cl  0  0  0  0  0  0  0  0  0  0  0  0
   -0.2205    0.7256   -2.8478 Cl  0  0  0  0  0  0  0  0  0  0  0  0
    1.1666   -2.8174    0.9180 Cl  0  0  0  0  0  0  0  0  0  0  0  0
    2.1728    2.2051   -1.1558 Cl  0  0  0  0  0  0  0  0  0  0  0  0
    2.3329   -1.2050   -1.9994 Cl  0  0  0  0  0  0  0  0  0  0  0  0
    3.6247   -0.4174    0.3985 Cl  0  0  0  0  0  0  0  0  0  0  0  0
   -2.1701   -1.8578    1.4964 Cl  0  0  0  0  0  0  0  0  0  0  0  0
   -3.2322   -1.3715   -1.1442 Cl  0  0  0  0  0  0  0  0  0  0  0  0
    0.5120   -0.5705    3.2119 Cl  0  0  0  0  0  0  0  0  0  0  0  0
    1.1839    2.5032    1.9519 Cl  0  0  0  0  0  0  0  0  0  0  0  0
   -1.3491    3.0505   -0.6181 Cl  0  0  0  0  0  0  0  0  0  0  0  0
   -3.5075    1.1870    1.0969 Cl  0  0  0  0  0  0  0  0  0  0  0  0
   -0.4550   -0.9527   -0.5450 C   0  0  0  0  0  0  0  0  0  0  0  0
   -0.1556    0.5517   -1.0712 C   0  0  0  0  0  0  0  0  0  0  0  0
    0.8183   -1.1571    0.4276 C   0  0  0  0  0  0  0  0  0  0  0  0
    1.2618    0.8964   -0.4093 C   0  0  0  0  0  0  0  0  0  0  0  0
    2.0094   -0.4700   -0.3587 C   0  0  0  0  0  0  0  0  0  0  0  0
   -1.9258   -0.8754    0.0405 C   0  0  0  0  0  0  0  0  0  0  0  0
    0.7546   -0.1639    1.5826 C   0  0  0  0  0  0  0  0  0  0  0  0
    1.0385    1.0482    1.0923 C   0  0  0  0  0  0  0  0  0  0  0  0
   -1.2931    1.3466   -0.4646 C   0  0  0  0  0  0  0  0  0  0  0  0
   -2.1608    0.5966    0.2215 C   0  0  0  0  0  0  0  0  0  0  0  0
  1 13  1  0
  2 14  1  0
  3 15  1  0
  4 16  1  0
  5 17  1  0
  6 17  1  0
  7 18  1  0
  8 18  1  0
  9 19  1  0
 10 20  1  0
 11 21  1  0
 12 22  1  0
 13 14  1  0
 13 15  1  0
 13 18  1  0
 14 16  1  0
 14 21  1  0
 15 17  1  0
 15 19  1  0
 16 17  1  0
 16 20  1  0
 18 22  1  0
 19 20  2  0
 21 22  2  0
M  END
>  <PUBCHEM_COMPOUND_CID>  (1) 
26988

>  <PUBCHEM_CONFORMER_RMSD>  (1) 
0.6

>  <PUBCHEM_CONFORMER_DIVERSEORDER>  (1) 
1
2
7
4
5
3
6

>  <PUBCHEM_MMFF94_PARTIAL_CHARGES>  (1) 
18
1 -0.29
10 -0.14
11 -0.14
12 -0.14
13 0.29
14 0.43
15 0.43
16 0.43
17 0.58
18 0.72
2 -0.29
3 -0.29
4 -0.29
5 -0.29
6 -0.29
7 -0.29
8 -0.29
9 -0.14

>  <PUBCHEM_EFFECTIVE_ROTOR_COUNT>  (1) 
0.4

>  <PUBCHEM_PHARMACOPHORE_FEATURES>  (1) 
2
5 13 14 18 21 22 rings
7 13 14 15 16 17 19 20 rings

>  <PUBCHEM_HEAVY_ATOM_COUNT>  (1) 
22

>  <PUBCHEM_ATOM_DEF_STEREO_COUNT>  (1) 
0

>  <PUBCHEM_ATOM_UDEF_STEREO_COUNT>  (1) 
4

>  <PUBCHEM_BOND_DEF_STEREO_COUNT>  (1) 
0

>  <PUBCHEM_BOND_UDEF_STEREO_COUNT>  (1) 
0

>  <PUBCHEM_ISOTOPIC_ATOM_COUNT>  (1) 
0

>  <PUBCHEM_COMPONENT_COUNT>  (1) 
1

>  <PUBCHEM_CACTVS_TAUTO_COUNT>  (1) 
1

>  <PUBCHEM_CONFORMER_ID>  (1) 
0000696C00000001

>  <PUBCHEM_MMFF94_ENERGY>  (1) 
116.1391

>  <PUBCHEM_FEATURE_SELFOVERLAP>  (1) 
10.325

>  <PUBCHEM_SHAPE_FINGERPRINT>  (1) 
10863032 1 18272101525125073244
10948715 1 18201441328819731424
12423570 1 13317931980247576416
12491281 212 18118142478228733548
13140716 1 18262249905340708281
144361 1 18188754124355377255
14817 1 14170607546459796207
16945 1 18187940425520975894
18981168 100 17487310841608952665
20691752 17 17240766245463738772
22344851 341 18337685152060076594
2334 1 18118415170070865165
23419403 2 15806561075085433149
2748010 2 18190465054684707703
3286 77 18201147879463474458
5845 1 12606858955452802746

>  <PUBCHEM_SHAPE_MULTIPOLES>  (1) 
475.19
4.06
2.98
2.64
1.06
0.65
-0.45
-0.18
-0.06
0.14
0
-0.44
-0.2
0

>  <PUBCHEM_SHAPE_SELFOVERLAP>  (1) 
932.964

>  <PUBCHEM_SHAPE_VOLUME>  (1) 
284

>  <PUBCHEM_COORDINATE_TYPE>  (1) 
2
5
10

$$$$
