26981
     RDKit          3D

 14 14  0  0  0  0  0  0  0  0999 V2000
    1.6103   -2.5627   -1.4575 Cl  0  0  0  0  0  0  0  0  0  0  0  0
    3.2599   -0.8065    0.1239 Cl  0  0  0  0  0  0  0  0  0  0  0  0
    1.3499   -2.5099    1.4571 Cl  0  0  0  0  0  0  0  0  0  0  0  0
   -3.3832   -0.5144   -0.4543 S   0  0  0  0  0  0  0  0  0  0  0  0
    0.2128    3.4106   -0.2228 S   0  0  0  0  0  0  0  0  0  0  0  0
    0.8601    0.8232   -0.1163 N   0  0  0  0  0  0  0  0  0  0  0  0
   -0.7596   -0.9442   -0.2192 N   0  0  0  0  0  0  0  0  0  0  0  0
   -1.4728    1.3444   -0.3258 N   0  0  0  0  0  0  0  0  0  0  0  0
    0.4923   -0.4682   -0.1219 C   0  0  0  0  0  0  0  0  0  0  0  0
    1.5851   -1.4758   -0.0096 C   0  0  0  0  0  0  0  0  0  0  0  0
   -1.6897    0.0193   -0.3179 C   0  0  0  0  0  0  0  0  0  0  0  0
   -0.1749    1.6723   -0.2217 C   0  0  0  0  0  0  0  0  0  0  0  0
   -3.6041   -1.4440    1.0893 C   0  0  0  0  0  0  0  0  0  0  0  0
    1.7139    3.4559    0.7968 C   0  0  0  0  0  0  0  0  0  0  0  0
  1 10  1  0
  2 10  1  0
  3 10  1  0
  4 11  1  0
  4 13  1  0
  5 12  1  0
  5 14  1  0
  6  9  2  0
  6 12  1  0
  7  9  1  0
  7 11  2  0
  8 11  1  0
  8 12  2  0
  9 10  1  0
M  END
>  <PUBCHEM_COMPOUND_CID>  (1) 
26981

>  <PUBCHEM_CONFORMER_RMSD>  (1) 
0.6

>  <PUBCHEM_CONFORMER_DIVERSEORDER>  (1) 
2
7
6
10
3
1
9
8
5
4

>  <PUBCHEM_MMFF94_PARTIAL_CHARGES>  (1) 
14
1 -0.29
10 1.01
11 0.72
12 0.72
13 0.23
14 0.23
2 -0.29
3 -0.29
4 -0.33
5 -0.33
6 -0.62
7 -0.62
8 -0.62
9 0.48

>  <PUBCHEM_EFFECTIVE_ROTOR_COUNT>  (1) 
3

>  <PUBCHEM_PHARMACOPHORE_FEATURES>  (1) 
6
1 13 hydrophobe
1 14 hydrophobe
3 6 7 9 cation
3 6 8 12 cation
3 7 8 11 cation
6 6 7 8 9 11 12 rings

>  <PUBCHEM_HEAVY_ATOM_COUNT>  (1) 
14

>  <PUBCHEM_ATOM_DEF_STEREO_COUNT>  (1) 
0

>  <PUBCHEM_ATOM_UDEF_STEREO_COUNT>  (1) 
0

>  <PUBCHEM_BOND_DEF_STEREO_COUNT>  (1) 
0

>  <PUBCHEM_BOND_UDEF_STEREO_COUNT>  (1) 
0

>  <PUBCHEM_ISOTOPIC_ATOM_COUNT>  (1) 
0

>  <PUBCHEM_COMPONENT_COUNT>  (1) 
1

>  <PUBCHEM_CACTVS_TAUTO_COUNT>  (1) 
1

>  <PUBCHEM_CONFORMER_ID>  (1) 
0000696500000002

>  <PUBCHEM_MMFF94_ENERGY>  (1) 
22.9257

>  <PUBCHEM_FEATURE_SELFOVERLAP>  (1) 
33.219

>  <PUBCHEM_SHAPE_FINGERPRINT>  (1) 
108231 29 18334020501116408450
12759256 9 18342171223899649031
13380535 76 17617088552745782605
13538477 17 17611751102276644990
14022349 108 18267297827833213720
14252887 29 18342468010482807675
14787075 74 18114751546136089706
15502708 68 18122904501975426129
16945 1 18271531982449496399
193761 8 17689994961265449110
20510252 161 17405700385616895040
20645476 183 16893446671342372374
20645477 70 18267575983332987127
20711985 344 17762908666786942919
20871998 22 18340780238664389007
21061003 4 18408889533622658443
21524375 3 17619345854560247557
21731228 192 17689716789134485033
2334 1 17690277539943071461
23419403 2 17826477124698956908
23557571 272 18123751946388776406
23598294 1 17615696137212274673
2748010 2 18268700628391616525
3071541 236 17326602610067686721
352729 6 17329141373968887301
58807428 26 17834947955558334496
7364860 26 18269273624426673189
81228 2 17836639730438831121

>  <PUBCHEM_SHAPE_MULTIPOLES>  (1) 
286.48
4.52
4.26
1.13
2.72
4.55
-0.11
-3.36
-0.5
-1.82
-0.61
-0.25
-0.77
0.76

>  <PUBCHEM_SHAPE_SELFOVERLAP>  (1) 
521.779

>  <PUBCHEM_SHAPE_VOLUME>  (1) 
185.5

>  <PUBCHEM_COORDINATE_TYPE>  (1) 
2
5
10

$$$$
