26999
     RDKit          3D

 18 18  0  0  0  0  0  0  0  0999 V2000
   -2.7239    1.4852    0.3817 O   0  0  0  0  0  0  0  0  0  0  0  0
    1.8546    1.6910    0.1458 O   0  0  0  0  0  0  0  0  0  0  0  0
    3.4162   -0.0122   -0.0522 N   0  0  0  0  0  0  0  0  0  0  0  0
   -0.2783    0.1108    0.1591 N   0  0  0  0  0  0  0  0  0  0  0  0
    3.6993   -1.4380   -0.1610 C   0  0  0  0  0  0  0  0  0  0  0  0
    4.5904    0.8572   -0.0609 C   0  0  0  0  0  0  0  0  0  0  0  0
    2.1134    0.4879    0.0529 C   0  0  0  0  0  0  0  0  0  0  0  0
    1.0021   -0.5452    0.0462 C   0  0  0  0  0  0  0  0  0  0  0  0
   -1.4893   -0.5632    0.1821 C   0  0  0  0  0  0  0  0  0  0  0  0
    3.7288   -1.8891   -1.6067 C   0  0  0  0  0  0  0  0  0  0  0  0
    5.1145    1.0958    1.3402 C   0  0  0  0  0  0  0  0  0  0  0  0
   -2.7127    0.1252    0.2933 C   0  0  0  0  0  0  0  0  0  0  0  0
   -1.5226   -1.9678    0.0930 C   0  0  0  0  0  0  0  0  0  0  0  0
   -3.9242   -0.5658    0.3146 C   0  0  0  0  0  0  0  0  0  0  0  0
   -2.7341   -2.6587    0.1143 C   0  0  0  0  0  0  0  0  0  0  0  0
   -3.9349   -1.9578    0.2251 C   0  0  0  0  0  0  0  0  0  0  0  0
   -3.4230    2.1946   -0.6387 C   0  0  0  0  0  0  0  0  0  0  0  0
   -2.7761    3.5501   -0.8287 C   0  0  0  0  0  0  0  0  0  0  0  0
  1 12  1  0
  1 17  1  0
  2  7  2  0
  3  5  1  0
  3  6  1  0
  3  7  1  0
  4  8  1  0
  4  9  1  0
  5 10  1  0
  6 11  1  0
  7  8  1  0
  9 12  2  0
  9 13  1  0
 12 14  1  0
 13 15  2  0
 14 16  2  0
 15 16  1  0
 17 18  1  0
M  END
>  <PUBCHEM_COMPOUND_CID>  (1) 
26999

>  <PUBCHEM_CONFORMER_RMSD>  (1) 
0.8

>  <PUBCHEM_CONFORMER_DIVERSEORDER>  (1) 
1
31
53
67
90
48
94
34
38
37
21
68
76
50
87
18
30
33
79
40
91
82
51
86
84
97
73
69
95
57
46
61
70
98
96
74
22
66
54
15
44
36
14
65
89
12
71
59
64
16
9
49
35
92
29
62
63
6
81
17
77
19
5
8
55
10
52
72
41
78
7
28
42
23
45
26
47
4
13
80
43
85
25
60
75
20
24
88
56
11
83
93
27
58
3
32
99
39
2

>  <PUBCHEM_MMFF94_PARTIAL_CHARGES>  (1) 
20
1 -0.36
12 0.08
13 -0.15
14 -0.15
15 -0.15
16 -0.15
17 0.28
2 -0.57
25 0.4
3 -0.66
32 0.15
33 0.15
34 0.15
35 0.15
4 -0.87
5 0.3
6 0.3
7 0.57
8 0.43
9 0.1

>  <PUBCHEM_EFFECTIVE_ROTOR_COUNT>  (1) 
8

>  <PUBCHEM_PHARMACOPHORE_FEATURES>  (1) 
5
1 1 acceptor
1 2 acceptor
1 4 cation
1 4 donor
6 9 12 13 14 15 16 rings

>  <PUBCHEM_HEAVY_ATOM_COUNT>  (1) 
18

>  <PUBCHEM_ATOM_DEF_STEREO_COUNT>  (1) 
0

>  <PUBCHEM_ATOM_UDEF_STEREO_COUNT>  (1) 
0

>  <PUBCHEM_BOND_DEF_STEREO_COUNT>  (1) 
0

>  <PUBCHEM_BOND_UDEF_STEREO_COUNT>  (1) 
0

>  <PUBCHEM_ISOTOPIC_ATOM_COUNT>  (1) 
0

>  <PUBCHEM_COMPONENT_COUNT>  (1) 
1

>  <PUBCHEM_CACTVS_TAUTO_COUNT>  (1) 
1

>  <PUBCHEM_CONFORMER_ID>  (1) 
0000697700000001

>  <PUBCHEM_MMFF94_ENERGY>  (1) 
51.7325

>  <PUBCHEM_FEATURE_SELFOVERLAP>  (1) 
25.371

>  <PUBCHEM_SHAPE_FINGERPRINT>  (1) 
10319926 262 18266437885860948912
10608611 8 18412544314299223792
11405975 8 18340771425512589722
12107183 9 17828186715393785960
12173636 292 18335980879009410223
12507560 40 18344146994950340102
13544592 145 18196940963788018742
13583140 156 17988914600605163828
13675066 3 18272650156111067450
14251751 93 18334011662210453979
14251757 17 18269839731170234832
14508225 48 18195794401167964079
15961568 22 18044939210845987052
18186145 218 18270409282441047178
20510252 161 18413390930068872033
20645477 56 18412266129436488057
20645477 70 17346606236092857782
20693207 138 18129683918979064366
21065199 12 18413671326998494922
21065201 7 18408606946418463594
22943178 12 18272653428828804198
2306618 200 18342746221579253337
23402539 116 18340480184001871919
23557571 272 18410582786088210140
23559900 14 18129100005633428246
3545911 37 18271812341098641890
4214541 1 18411420600778667760
5104073 3 18341898467727928250
573450 72 18187068564656249250
9709674 26 18340495568179489790

>  <PUBCHEM_SHAPE_MULTIPOLES>  (1) 
348.73
10.43
3.22
0.95
8.75
1.54
-0.15
0.71
0.66
-3.66
-0.85
0.88
0
2.05

>  <PUBCHEM_SHAPE_SELFOVERLAP>  (1) 
693.738

>  <PUBCHEM_SHAPE_VOLUME>  (1) 
207.1

>  <PUBCHEM_COORDINATE_TYPE>  (1) 
2
5
10

$$$$
