26995
     RDKit          3D

 17 17  0  0  0  0  0  0  0  0999 V2000
    4.3983    0.8968   -0.0042 Br  0  0  0  0  0  0  0  0  0  0  0  0
   -0.6920    3.1942   -0.0004 O   0  0  0  0  0  0  0  0  0  0  0  0
    1.3469    2.3691    0.0010 O   0  0  0  0  0  0  0  0  0  0  0  0
   -4.2420   -1.8758   -0.0013 O   0  0  0  0  0  0  0  0  0  0  0  0
   -4.5050    0.3080    0.0015 O   0  0  0  0  0  0  0  0  0  0  0  0
    1.8110   -0.0689   -0.0003 N   0  0  0  0  0  0  0  0  0  0  0  0
    0.1023    2.2255    0.0002 N   0  0  0  0  0  0  0  0  0  0  0  0
   -3.7751   -0.7120   -0.0002 N   0  0  0  0  0  0  0  0  0  0  0  0
    2.5984   -1.1545    0.0012 N   0  0  0  0  0  0  0  0  0  0  0  0
    0.4048   -0.2101    0.0000 C   0  0  0  0  0  0  0  0  0  0  0  0
   -0.4314    0.9065    0.0010 C   0  0  0  0  0  0  0  0  0  0  0  0
   -2.3651   -0.5419   -0.0002 C   0  0  0  0  0  0  0  0  0  0  0  0
   -1.8164    0.7405    0.0010 C   0  0  0  0  0  0  0  0  0  0  0  0
   -0.1441   -1.4925   -0.0012 C   0  0  0  0  0  0  0  0  0  0  0  0
   -1.5288   -1.6584   -0.0013 C   0  0  0  0  0  0  0  0  0  0  0  0
    3.8764   -0.9435    0.0008 C   0  0  0  0  0  0  0  0  0  0  0  0
    4.9618   -1.9829    0.0023 C   0  0  0  0  0  0  0  0  0  0  0  0
  1 16  1  0
  2  7  1  0
  3  7  2  0
  4  8  1  0
  5  8  2  0
  6  9  1  0
  6 10  1  0
  7 11  1  0
  8 12  1  0
  9 16  2  0
 10 11  2  0
 10 14  1  0
 11 13  1  0
 12 13  2  0
 12 15  1  0
 14 15  2  0
 16 17  1  0
M  CHG  4   2  -1   4  -1   7   1   8   1
M  END
>  <PUBCHEM_COMPOUND_CID>  (1) 
26995

>  <PUBCHEM_CONFORMER_RMSD>  (1) 
0.6

>  <PUBCHEM_CONFORMER_DIVERSEORDER>  (1) 
1
2
3

>  <PUBCHEM_MMFF94_PARTIAL_CHARGES>  (1) 
21
1 -0.14
10 0.1
11 0.13
12 0.13
13 -0.15
14 -0.15
15 -0.15
16 0.53
17 0.06
18 0.15
19 0.15
2 -0.52
20 0.15
21 0.4
3 -0.52
4 -0.52
5 -0.52
6 -0.46
7 0.91
8 0.91
9 -0.49

>  <PUBCHEM_EFFECTIVE_ROTOR_COUNT>  (1) 
4

>  <PUBCHEM_PHARMACOPHORE_FEATURES>  (1) 
10
1 1 hydrophobe
1 2 acceptor
1 2 anion
1 3 acceptor
1 4 acceptor
1 4 anion
1 5 acceptor
1 6 donor
1 9 acceptor
6 10 11 12 13 14 15 rings

>  <PUBCHEM_HEAVY_ATOM_COUNT>  (1) 
17

>  <PUBCHEM_ATOM_DEF_STEREO_COUNT>  (1) 
0

>  <PUBCHEM_ATOM_UDEF_STEREO_COUNT>  (1) 
0

>  <PUBCHEM_BOND_DEF_STEREO_COUNT>  (1) 
0

>  <PUBCHEM_BOND_UDEF_STEREO_COUNT>  (1) 
1

>  <PUBCHEM_ISOTOPIC_ATOM_COUNT>  (1) 
0

>  <PUBCHEM_COMPONENT_COUNT>  (1) 
1

>  <PUBCHEM_CACTVS_TAUTO_COUNT>  (1) 
1

>  <PUBCHEM_CONFORMER_ID>  (1) 
0000697300000001

>  <PUBCHEM_MMFF94_ENERGY>  (1) 
70.6148

>  <PUBCHEM_FEATURE_SELFOVERLAP>  (1) 
50.907

>  <PUBCHEM_SHAPE_FINGERPRINT>  (1) 
10967382 1 18266740362294098406
10989021 7 18411419527137271872
11680986 33 18121220037149956747
11806522 49 18337109072075198263
12032990 46 18410576188496372579
12916754 54 18341898433784673602
13288520 33 18339927013530851334
13690532 89 18410856568288155683
13862211 1 18411132524290199127
14115302 16 17749118815347762854
15042514 8 18050004398747032840
15196674 1 18410573993767785478
15442244 35 18340488975556982683
15536298 74 18271525424124281448
20510252 161 18270116808216609016
20671657 1 18123475148562989437
20871998 184 18129378215938576486
21029758 11 18411978078980833041
21029758 27 18335709355350364415
21267235 1 18410302393443569478
21296965 67 18410854365054004088
221490 88 18047194330384093867
2297311 6 18270690766667361462
23366157 5 17898284167630180316
23402539 116 18271517620158369719
23557571 272 18129388107680743270
23559900 14 18410571786930146306
2748010 2 18338498816361016901
3071541 12 18122345941315193869
335352 9 18410856530287129949
34934 24 18339637962247316902
5104073 3 18411982464052869858
5374978 207 18409442584145987122
537710 114 18336552706776302724
68521 5 18337392630195547556
7364860 26 18125158496206143849
81228 2 18193857962879279472

>  <PUBCHEM_SHAPE_MULTIPOLES>  (1) 
312.39
8.67
2.66
0.58
3.23
1.69
0
-4.36
0
0.32
0
0.09
-0.02
0

>  <PUBCHEM_SHAPE_SELFOVERLAP>  (1) 
637.976

>  <PUBCHEM_SHAPE_VOLUME>  (1) 
185.6

>  <PUBCHEM_COORDINATE_TYPE>  (1) 
2
5
10

$$$$
