27008
     RDKit          3D

 16 16  0  0  0  0  0  0  0  0999 V2000
    0.5040    1.9909    0.4927 O   0  0  0  0  0  0  0  0  0  0  0  0
    1.8840    0.0034   -0.8755 O   0  0  0  0  0  0  0  0  0  0  0  0
    2.5826   -0.8767    1.1602 O   0  0  0  0  0  0  0  0  0  0  0  0
    4.1251   -0.1565   -0.4160 N   0  0  0  0  0  0  0  0  0  0  0  0
   -2.0488   -0.6184    0.3014 C   0  0  0  0  0  0  0  0  0  0  0  0
   -3.4611   -0.8464    0.7225 C   0  0  0  0  0  0  0  0  0  0  0  0
   -1.4203    0.5920    0.5942 C   0  0  0  0  0  0  0  0  0  0  0  0
   -0.0990    0.8049    0.2007 C   0  0  0  0  0  0  0  0  0  0  0  0
   -1.3562   -1.6157   -0.3851 C   0  0  0  0  0  0  0  0  0  0  0  0
    0.5935   -0.1923   -0.4859 C   0  0  0  0  0  0  0  0  0  0  0  0
   -0.0352   -1.4027   -0.7789 C   0  0  0  0  0  0  0  0  0  0  0  0
   -4.4635   -0.4145   -0.3164 C   0  0  0  0  0  0  0  0  0  0  0  0
    2.8538   -0.3922    0.0654 C   0  0  0  0  0  0  0  0  0  0  0  0
    0.3847    3.0337   -0.4730 C   0  0  0  0  0  0  0  0  0  0  0  0
   -5.3718    0.5497   -0.1300 C   0  0  0  0  0  0  0  0  0  0  0  0
    5.3281   -0.4593    0.3240 C   0  0  0  0  0  0  0  0  0  0  0  0
  1  8  1  0
  1 14  1  0
  2 10  1  0
  2 13  1  0
  3 13  2  0
  4 13  1  0
  4 16  1  0
  5  6  1  0
  5  7  2  0
  5  9  1  0
  6 12  1  0
  7  8  1  0
  8 10  2  0
  9 11  2  0
 10 11  1  0
 12 15  2  0
M  END
>  <PUBCHEM_COMPOUND_CID>  (1) 
27008

>  <PUBCHEM_CONFORMER_RMSD>  (1) 
0.8

>  <PUBCHEM_CONFORMER_DIVERSEORDER>  (1) 
1
18
45
16
42
19
30
36
21
47
23
34
49
35
37
15
27
10
40
33
17
5
13
9
41
11
48
24
52
26
25
32
39
31
12
8
29
3
51
43
38
4
46
28
20
44
6
14
50
22
2
7

>  <PUBCHEM_MMFF94_PARTIAL_CHARGES>  (1) 
23
1 -0.36
10 0.08
11 -0.15
12 -0.29
13 0.78
14 0.28
15 -0.3
16 0.3
19 0.15
2 -0.23
20 0.15
21 0.15
22 0.15
26 0.15
27 0.15
28 0.37
3 -0.57
4 -0.73
5 -0.14
6 0.28
7 -0.15
8 0.08
9 -0.15

>  <PUBCHEM_EFFECTIVE_ROTOR_COUNT>  (1) 
6

>  <PUBCHEM_PHARMACOPHORE_FEATURES>  (1) 
5
1 1 acceptor
1 15 hydrophobe
1 3 acceptor
1 4 donor
6 5 7 8 9 10 11 rings

>  <PUBCHEM_HEAVY_ATOM_COUNT>  (1) 
16

>  <PUBCHEM_ATOM_DEF_STEREO_COUNT>  (1) 
0

>  <PUBCHEM_ATOM_UDEF_STEREO_COUNT>  (1) 
0

>  <PUBCHEM_BOND_DEF_STEREO_COUNT>  (1) 
0

>  <PUBCHEM_BOND_UDEF_STEREO_COUNT>  (1) 
0

>  <PUBCHEM_ISOTOPIC_ATOM_COUNT>  (1) 
0

>  <PUBCHEM_COMPONENT_COUNT>  (1) 
1

>  <PUBCHEM_CACTVS_TAUTO_COUNT>  (1) 
2

>  <PUBCHEM_CONFORMER_ID>  (1) 
0000698000000001

>  <PUBCHEM_MMFF94_ENERGY>  (1) 
46.6904

>  <PUBCHEM_FEATURE_SELFOVERLAP>  (1) 
25.371

>  <PUBCHEM_SHAPE_FINGERPRINT>  (1) 
10130415 120 18333733532928909643
10465860 250 18333448746358269066
10922049 32 10159697997216954804
11401426 45 18130787854533787975
12011746 2 18131070420105033678
12119455 92 16415478237940802238
12236239 1 18113902671730381582
12251169 10 17988643017048840754
124424 183 18260269663883144051
12507560 18 17967253091929689419
13140716 1 18127982012544840219
13922767 16 18343302591521314385
14115302 16 17676779754885986038
14911166 2 18413389847816370887
14993402 34 18341898501865866271
15048467 5 17095243618027001535
15099037 51 18410856568725667991
15848700 24 18272647943891706333
16945 1 18200050515757378231
18186145 218 11026084628399876174
200 152 17676486138284526106
20233049 118 18333452036625192229
20511035 2 17842276157654832199
20600515 1 18201173112407134780
20671657 1 18193842771875684029
21029758 11 18202565077143274049
21029758 27 18336272317998958948
21501502 16 17982452899754964847
2297311 6 18272382936689942766
23402539 116 18201712951283935519
23419403 2 15257128513157605591
23557571 272 18271815566851436804
23559900 14 18201721786469369978
26918003 58 17749108898447429802
2748010 2 17984161265872671407
34934 24 18410852200622731874
4072396 5 18340477868698066083
68521 5 18335703793241576916
69474 34 18201710791221535720
7495541 125 18041574653850997739
81228 2 18123773974896411129

>  <PUBCHEM_SHAPE_MULTIPOLES>  (1) 
306.68
9.04
1.95
0.88
0.29
1.8
0.04
-1.76
0.59
0.07
-0.25
0.1
-0.09
-0.12

>  <PUBCHEM_SHAPE_SELFOVERLAP>  (1) 
625.242

>  <PUBCHEM_SHAPE_VOLUME>  (1) 
176.6

>  <PUBCHEM_COORDINATE_TYPE>  (1) 
2
5
10

$$$$
