27000
     RDKit          3D

 12 12  0  0  0  0  0  0  0  0999 V2000
    2.3085   -0.0164    0.8650 O   0  0  0  0  0  0  0  0  0  0  0  0
    2.2272    0.0100   -1.4353 O   0  0  0  0  0  0  0  0  0  0  0  0
   -0.6741   -0.6888   -0.0766 C   0  0  0  0  0  0  0  0  0  0  0  0
   -2.0312   -0.4148    0.0939 C   0  0  0  0  0  0  0  0  0  0  0  0
    0.2439    0.3583   -0.1585 C   0  0  0  0  0  0  0  0  0  0  0  0
   -2.4701    0.9063    0.1825 C   0  0  0  0  0  0  0  0  0  0  0  0
   -0.1951    1.6793   -0.0698 C   0  0  0  0  0  0  0  0  0  0  0  0
   -0.2065   -2.1069   -0.1712 C   0  0  0  0  0  0  0  0  0  0  0  0
   -3.0353   -1.5169    0.1840 C   0  0  0  0  0  0  0  0  0  0  0  0
   -1.5520    1.9533    0.1006 C   0  0  0  0  0  0  0  0  0  0  0  0
    1.6674    0.1041   -0.3365 C   0  0  0  0  0  0  0  0  0  0  0  0
    3.7173   -0.2673    0.8219 C   0  0  0  0  0  0  0  0  0  0  0  0
  1 11  1  0
  1 12  1  0
  2 11  2  0
  3  4  2  0
  3  5  1  0
  3  8  1  0
  4  6  1  0
  4  9  1  0
  5  7  2  0
  5 11  1  0
  6 10  2  0
  7 10  1  0
M  END
>  <PUBCHEM_COMPOUND_CID>  (1) 
27000

>  <PUBCHEM_CONFORMER_RMSD>  (1) 
0.6

>  <PUBCHEM_CONFORMER_DIVERSEORDER>  (1) 
1
3
2

>  <PUBCHEM_MMFF94_PARTIAL_CHARGES>  (1) 
15
1 -0.43
10 -0.15
11 0.63
12 0.28
13 0.15
14 0.15
2 -0.57
21 0.15
3 -0.14
4 -0.14
5 0.09
6 -0.15
7 -0.15
8 0.14
9 0.14

>  <PUBCHEM_EFFECTIVE_ROTOR_COUNT>  (1) 
2

>  <PUBCHEM_PHARMACOPHORE_FEATURES>  (1) 
2
1 2 acceptor
6 3 4 5 6 7 10 rings

>  <PUBCHEM_HEAVY_ATOM_COUNT>  (1) 
12

>  <PUBCHEM_ATOM_DEF_STEREO_COUNT>  (1) 
0

>  <PUBCHEM_ATOM_UDEF_STEREO_COUNT>  (1) 
0

>  <PUBCHEM_BOND_DEF_STEREO_COUNT>  (1) 
0

>  <PUBCHEM_BOND_UDEF_STEREO_COUNT>  (1) 
0

>  <PUBCHEM_ISOTOPIC_ATOM_COUNT>  (1) 
0

>  <PUBCHEM_COMPONENT_COUNT>  (1) 
1

>  <PUBCHEM_CACTVS_TAUTO_COUNT>  (1) 
1

>  <PUBCHEM_CONFORMER_ID>  (1) 
0000697800000001

>  <PUBCHEM_MMFF94_ENERGY>  (1) 
39.0374

>  <PUBCHEM_FEATURE_SELFOVERLAP>  (1) 
10.148

>  <PUBCHEM_SHAPE_FINGERPRINT>  (1) 
10857977 72 18343301491635218225
12423570 1 10965378220776922145
12524768 44 18055361493943135623
12716758 59 18198633133109220047
13024252 1 14634868600558231517
13380535 76 18266171726294555157
14614273 12 18263355898353799885
15219456 202 17703511004576740758
16945 1 18338806615345057589
193761 8 17978513031722819799
20510252 161 18272370871219706976
20645464 45 17917989456156598232
20645476 183 17677349318862261719
20871998 184 18343861138611199895
21040471 1 18122632656209794157
23402539 116 18200577198711611831
23419403 2 15978577560554018991
23463225 33 18261109625946701066
23552423 10 18116162081645938103
23559900 14 18128263277563999838
2748010 2 18195541285406764399
369184 2 18272925003568216024
43471831 8 18262512594199616378
5084963 1 17987817270556867719
53812654 25 18267864067446513015
6333449 129 18271801298474129057
7364860 26 17768528283390508726
77492 1 17748834003323517724

>  <PUBCHEM_SHAPE_MULTIPOLES>  (1) 
235.22
4.65
1.92
0.86
2.8
0.02
0.11
0.81
-0.99
-1.35
0
0.59
0.02
-0.06

>  <PUBCHEM_SHAPE_SELFOVERLAP>  (1) 
487.27

>  <PUBCHEM_SHAPE_VOLUME>  (1) 
137.2

>  <PUBCHEM_COORDINATE_TYPE>  (1) 
2
5
10

$$$$
