27005
     RDKit          3D

 31 34  0  0  1  0  0  0  0  0999 V2000
   -4.1598    0.6609   -1.9030 O   0  0  0  0  0  0  0  0  0  0  0  0
   -2.5362   -1.6095    0.3659 O   0  0  0  0  0  0  0  0  0  0  0  0
   -3.1620   -1.8072   -1.8434 O   0  0  0  0  0  0  0  0  0  0  0  0
    4.2721   -0.5254    0.1436 N   0  0  0  0  0  0  0  0  0  0  0  0
   -4.8615    0.1780    0.3068 C   0  0  0  0  0  0  0  0  0  0  0  0
   -5.9432   -0.7859   -0.1700 C   0  0  0  0  0  0  0  0  0  0  0  0
   -5.6217    1.4970    0.4054 C   0  0  0  0  0  0  0  0  0  0  0  0
   -3.6652    0.2447   -0.6263 C   0  0  0  0  0  0  0  0  0  0  0  0
   -7.1797   -0.3715    0.6207 C   0  0  0  0  0  0  0  0  0  0  0  0
   -6.9781    1.1014    0.9809 C   0  0  0  0  0  0  0  0  0  0  0  0
    1.7592   -1.9209    0.4899 C   0  0  0  0  0  0  0  0  0  0  0  0
    1.9727   -0.9157   -0.6460 C   0  0  0  0  0  0  0  0  0  0  0  0
    2.6370   -1.5352    1.6850 C   0  0  0  0  0  0  0  0  0  0  0  0
    0.2879   -1.9823    0.8930 C   0  0  0  0  0  0  0  0  0  0  0  0
    3.4472   -0.8094   -1.0352 C   0  0  0  0  0  0  0  0  0  0  0  0
    4.1085   -1.4327    1.2875 C   0  0  0  0  0  0  0  0  0  0  0  0
   -2.5662    1.2247   -0.2376 C   0  0  0  0  0  0  0  0  0  0  0  0
   -3.1044   -1.1665   -0.8007 C   0  0  0  0  0  0  0  0  0  0  0  0
   -0.5206   -2.8184   -0.0912 C   0  0  0  0  0  0  0  0  0  0  0  0
   -1.9801   -2.9165    0.3295 C   0  0  0  0  0  0  0  0  0  0  0  0
    5.5204    0.0868   -0.0204 C   0  0  0  0  0  0  0  0  0  0  0  0
   -1.8532    1.9014   -1.2274 C   0  0  0  0  0  0  0  0  0  0  0  0
   -2.2730    1.4464    1.1081 C   0  0  0  0  0  0  0  0  0  0  0  0
   -0.8467    2.7992   -0.8716 C   0  0  0  0  0  0  0  0  0  0  0  0
   -1.2666    2.3444    1.4637 C   0  0  0  0  0  0  0  0  0  0  0  0
    6.2534   -0.1254   -1.1882 C   0  0  0  0  0  0  0  0  0  0  0  0
    6.0316    0.9087    0.9842 C   0  0  0  0  0  0  0  0  0  0  0  0
   -0.5536    3.0208    0.4739 C   0  0  0  0  0  0  0  0  0  0  0  0
    7.4975    0.4841   -1.3512 C   0  0  0  0  0  0  0  0  0  0  0  0
    7.2756    1.5181    0.8209 C   0  0  0  0  0  0  0  0  0  0  0  0
    8.0085    1.3058   -0.3468 C   0  0  0  0  0  0  0  0  0  0  0  0
  1  8  1  0
  2 18  1  0
  2 20  1  0
  3 18  2  0
  4 15  1  0
  4 16  1  0
  4 21  1  0
  5  6  1  0
  5  7  1  0
  5  8  1  0
  6  9  1  0
  7 10  1  0
  8 17  1  0
  8 18  1  0
  9 10  1  0
 11 12  1  0
 11 13  1  0
 11 14  1  0
 12 15  1  0
 13 16  1  0
 14 19  1  0
 17 22  2  0
 17 23  1  0
 19 20  1  0
 21 26  2  0
 21 27  1  0
 22 24  1  0
 23 25  2  0
 24 28  2  0
 25 28  1  0
 26 29  1  0
 27 30  2  0
 29 31  2  0
 30 31  1  0
M  END
>  <PUBCHEM_COMPOUND_CID>  (1) 
27005

>  <PUBCHEM_CONFORMER_RMSD>  (1) 
1.4

>  <PUBCHEM_CONFORMER_DIVERSEORDER>  (1) 
1
12
45
13
11
26
33
35
38
57
42
50
39
20
4
32
52
49
31
29
27
9
44
47
3
34
30
41
56
22
15
14
53
46
40
37
6
25
21
54
51
7
10
16
23
17
48
43
5
18
28
55
2
24
19
8
36

>  <PUBCHEM_MMFF94_PARTIAL_CHARGES>  (1) 
32
1 -0.68
15 0.37
16 0.37
17 -0.14
18 0.66
2 -0.43
20 0.28
21 0.1
22 -0.15
23 -0.15
24 -0.15
25 -0.15
26 -0.15
27 -0.15
28 -0.15
29 -0.15
3 -0.57
30 -0.15
31 -0.15
4 -0.84
54 0.4
57 0.15
58 0.15
59 0.15
60 0.15
61 0.15
62 0.15
63 0.15
64 0.15
65 0.15
66 0.15
8 0.48

>  <PUBCHEM_EFFECTIVE_ROTOR_COUNT>  (1) 
11.2

>  <PUBCHEM_PHARMACOPHORE_FEATURES>  (1) 
8
1 1 acceptor
1 1 donor
1 3 acceptor
1 4 cation
5 5 6 7 9 10 rings
6 17 22 23 24 25 28 rings
6 21 26 27 29 30 31 rings
6 4 11 12 13 15 16 rings

>  <PUBCHEM_HEAVY_ATOM_COUNT>  (1) 
31

>  <PUBCHEM_ATOM_DEF_STEREO_COUNT>  (1) 
0

>  <PUBCHEM_ATOM_UDEF_STEREO_COUNT>  (1) 
1

>  <PUBCHEM_BOND_DEF_STEREO_COUNT>  (1) 
0

>  <PUBCHEM_BOND_UDEF_STEREO_COUNT>  (1) 
0

>  <PUBCHEM_ISOTOPIC_ATOM_COUNT>  (1) 
0

>  <PUBCHEM_COMPONENT_COUNT>  (1) 
1

>  <PUBCHEM_CACTVS_TAUTO_COUNT>  (1) 
1

>  <PUBCHEM_CONFORMER_ID>  (1) 
0000697D00000001

>  <PUBCHEM_MMFF94_ENERGY>  (1) 
87.8581

>  <PUBCHEM_FEATURE_SELFOVERLAP>  (1) 
40.605

>  <PUBCHEM_SHAPE_FINGERPRINT>  (1) 
10 15 16081089294619835558
10290309 65 18262513685458997319
10369192 42 18272653446235774135
10454371 7 18273220824226247156
11505856 67 17485934029840201297
12133447 93 18269007409205638940
12596602 18 17095798832881667866
12788726 201 18271242712133861833
12838862 33 18335406976878892917
13402501 40 18343299292844116832
13726171 33 18190177893435834225
13911987 19 18336531739020361543
14279260 333 12751251281559410316
14394314 77 18409733924431221409
14400156 266 17703492369441735453
14765038 42 18342747277856436361
14840074 17 18408604730141329945
15001296 14 18115586097152789916
15183329 4 10519989279575505092
15188451 53 9439409017057595090
15297060 5 18272091608330735610
15320295 40 10881403170925239059
15575132 122 18261951834647425661
15721738 202 17561366171566674744
17899979 19 18186518800558953445
19319366 153 17821720615875389154
21304303 64 18334013891588734801
24771293 8 18412830166781532581
3383291 50 18338804519649424363
4098825 35 17488754376286316446
4197921 191 18333454219212305370
4258327 124 17459489886697206516
46194498 28 17915748561423919934
550186 72 18262799554203329605
6299153 45 17968927601770287274

>  <PUBCHEM_SHAPE_MULTIPOLES>  (1) 
615.38
20.53
3.12
1.47
20.88
0.01
0.14
-6.69
0.33
-1.23
-0.4
0.33
-0.07
-0.67

>  <PUBCHEM_SHAPE_SELFOVERLAP>  (1) 
1304.904

>  <PUBCHEM_SHAPE_VOLUME>  (1) 
342

>  <PUBCHEM_COORDINATE_TYPE>  (1) 
2
5
10

$$$$
