27007
     RDKit          3D

 20 22  0  0  1  0  0  0  0  0999 V2000
   -3.8773   -0.1363   -0.2529 O   0  0  0  0  0  0  0  0  0  0  0  0
   -2.1929    0.9833   -1.3519 O   0  0  0  0  0  0  0  0  0  0  0  0
   -0.3423   -0.2422    0.6070 N   0  0  0  0  0  0  0  0  0  0  0  0
   -0.8804   -1.6083    2.2618 N   0  0  0  0  0  0  0  0  0  0  0  0
    0.5051    0.5807   -0.2827 C   0  0  0  0  0  0  0  0  0  0  0  0
    0.5441    2.0517    0.1701 C   0  0  0  0  0  0  0  0  0  0  0  0
    1.6458    2.3176    1.1888 C   0  0  0  0  0  0  0  0  0  0  0  0
    1.8751   -0.0335   -0.5046 C   0  0  0  0  0  0  0  0  0  0  0  0
    3.0120    1.9527    0.6161 C   0  0  0  0  0  0  0  0  0  0  0  0
    3.0474    0.6013   -0.0514 C   0  0  0  0  0  0  0  0  0  0  0  0
    1.9785   -1.2664   -1.1732 C   0  0  0  0  0  0  0  0  0  0  0  0
    4.2926   -0.0046   -0.2821 C   0  0  0  0  0  0  0  0  0  0  0  0
   -1.6925   -0.3941    0.5289 C   0  0  0  0  0  0  0  0  0  0  0  0
    0.1062   -0.9849    1.6568 C   0  0  0  0  0  0  0  0  0  0  0  0
    3.2211   -1.8617   -1.3855 C   0  0  0  0  0  0  0  0  0  0  0  0
    4.3779   -1.2310   -0.9397 C   0  0  0  0  0  0  0  0  0  0  0  0
   -2.0043   -1.2447    1.5633 C   0  0  0  0  0  0  0  0  0  0  0  0
   -2.5559    0.2131   -0.4317 C   0  0  0  0  0  0  0  0  0  0  0  0
   -4.8433    0.4096   -1.1574 C   0  0  0  0  0  0  0  0  0  0  0  0
   -6.2170   -0.1023   -0.7797 C   0  0  0  0  0  0  0  0  0  0  0  0
  1 18  1  0
  1 19  1  0
  2 18  2  0
  3  5  1  0
  3 13  1  0
  3 14  1  0
  4 14  2  0
  4 17  1  0
  5  6  1  0
  5  8  1  0
  6  7  1  0
  7  9  1  0
  8 10  2  0
  8 11  1  0
  9 10  1  0
 10 12  1  0
 11 15  2  0
 12 16  2  0
 13 17  2  0
 13 18  1  0
 15 16  1  0
 19 20  1  0
M  END
>  <PUBCHEM_COMPOUND_CID>  (1) 
27007

>  <PUBCHEM_CONFORMER_RMSD>  (1) 
0.6

>  <PUBCHEM_CONFORMER_DIVERSEORDER>  (1) 
1
52
62
61
46
34
32
45
10
56
38
40
59
39
48
51
8
9
42
11
54
47
25
21
43
22
24
12
44
55
26
57
29
60
30
28
33
15
20
35
7
6
2
31
50
16
19
49
37
27
5
53
58
17
14
36
4
3
18
41
23
13

>  <PUBCHEM_MMFF94_PARTIAL_CHARGES>  (1) 
23
1 -0.43
10 -0.14
11 -0.15
12 -0.15
13 -0.24
14 0.04
15 -0.15
16 -0.15
17 0.08
18 0.81
19 0.28
2 -0.57
28 0.15
29 0.15
3 0.05
30 0.15
31 0.15
32 0.15
33 0.15
4 -0.57
5 0.4
8 -0.14
9 0.14

>  <PUBCHEM_EFFECTIVE_ROTOR_COUNT>  (1) 
4.8

>  <PUBCHEM_PHARMACOPHORE_FEATURES>  (1) 
5
1 2 acceptor
3 3 4 14 cation
5 3 4 13 14 17 rings
6 5 6 7 8 9 10 rings
6 8 10 11 12 15 16 rings

>  <PUBCHEM_HEAVY_ATOM_COUNT>  (1) 
20

>  <PUBCHEM_ATOM_DEF_STEREO_COUNT>  (1) 
0

>  <PUBCHEM_ATOM_UDEF_STEREO_COUNT>  (1) 
1

>  <PUBCHEM_BOND_DEF_STEREO_COUNT>  (1) 
0

>  <PUBCHEM_BOND_UDEF_STEREO_COUNT>  (1) 
0

>  <PUBCHEM_ISOTOPIC_ATOM_COUNT>  (1) 
0

>  <PUBCHEM_COMPONENT_COUNT>  (1) 
1

>  <PUBCHEM_CACTVS_TAUTO_COUNT>  (1) 
1

>  <PUBCHEM_CONFORMER_ID>  (1) 
0000697F00000001

>  <PUBCHEM_MMFF94_ENERGY>  (1) 
36.2107

>  <PUBCHEM_FEATURE_SELFOVERLAP>  (1) 
25.393

>  <PUBCHEM_SHAPE_FINGERPRINT>  (1) 
11582403 64 17113470312654980912
11796584 16 17530969081890331714
12236239 1 16487259863271223724
12363563 72 18199764552713968886
12895836 83 16515700969185988718
13134695 92 18201727266637032984
13911987 19 18270139992987981150
14863182 85 14908187451326982389
15142383 8 17060346180757134833
15848702 151 18202002105925811453
16945 1 17987816205932531576
17357779 13 18270133326935148884
18186145 218 18260266339436051577
18222031 100 17704079456594460038
19010151 120 17489873704824357804
19049666 15 18334303062898829272
192875 21 17489873743252190968
19784866 240 17275111595743993222
200 152 17560803212321217343
20567600 247 17632004339148415783
20645476 183 15213308551116692891
20645477 70 18273214205328145062
21069387 34 17775297044490399807
21285901 2 18336827498467422780
221357 26 18341043039487391165
23493267 7 15575007173408324777
23526113 38 18408889503663291570
23536379 177 17917993859104705621
23557571 272 17823708661693944688
23559900 14 18040442101103091086
2748010 2 18190194553555127874
3472631 163 16733273459814187884
4340502 62 16844711153691106722
495365 180 18058157509253379568
4990 188 18408599262832442055
57527295 17 18120384159115430166
59682541 52 18273205388177128653
633830 44 18187634839183629701
70251023 43 17914907439465855118
77492 1 16558765519767902320
81228 2 18122927334412098416
9981440 41 17336164440114881257

>  <PUBCHEM_SHAPE_MULTIPOLES>  (1) 
389.89
9.42
2
1.62
11.23
0.82
-0.92
-1.81
4.63
-2.44
-0.09
0.98
-0.63
1.33

>  <PUBCHEM_SHAPE_SELFOVERLAP>  (1) 
837.36

>  <PUBCHEM_SHAPE_VOLUME>  (1) 
215.6

>  <PUBCHEM_COORDINATE_TYPE>  (1) 
2
5
10

$$$$
