2701
     RDKit          3D

 26 30  0  0  0  0  0  0  0  0999 V2000
   -5.3320    1.6908    0.0503 O   0  0  0  0  0  0  0  0  0  0  0  0
   -6.1728   -0.5619   -0.0771 O   0  0  0  0  0  0  0  0  0  0  0  0
    4.1376    1.9912    0.1993 O   0  0  0  0  0  0  0  0  0  0  0  0
    5.8600   -0.1283    0.1212 O   0  0  0  0  0  0  0  0  0  0  0  0
   -0.7058    2.6877    0.1678 N   0  0  0  0  0  0  0  0  0  0  0  0
   -0.6080    0.1424    0.0412 C   0  0  0  0  0  0  0  0  0  0  0  0
    0.2674   -0.9825   -0.0023 C   0  0  0  0  0  0  0  0  0  0  0  0
   -2.0409   -0.0367    0.0114 C   0  0  0  0  0  0  0  0  0  0  0  0
    1.7011   -0.8025    0.0277 C   0  0  0  0  0  0  0  0  0  0  0  0
   -0.0102    1.4172    0.1135 C   0  0  0  0  0  0  0  0  0  0  0  0
    2.2331    0.5070    0.1001 C   0  0  0  0  0  0  0  0  0  0  0  0
   -2.5743   -1.3577   -0.0631 C   0  0  0  0  0  0  0  0  0  0  0  0
    1.3709    1.5976    0.1421 C   0  0  0  0  0  0  0  0  0  0  0  0
   -0.3277   -2.2587   -0.0752 C   0  0  0  0  0  0  0  0  0  0  0  0
   -2.9796    1.0305    0.0517 C   0  0  0  0  0  0  0  0  0  0  0  0
   -1.7083   -2.4440   -0.1051 C   0  0  0  0  0  0  0  0  0  0  0  0
   -3.9617   -1.5922   -0.0958 C   0  0  0  0  0  0  0  0  0  0  0  0
   -4.3356    0.7644    0.0184 C   0  0  0  0  0  0  0  0  0  0  0  0
    3.6221    0.7249    0.1309 C   0  0  0  0  0  0  0  0  0  0  0  0
    2.6485   -1.8601   -0.0107 C   0  0  0  0  0  0  0  0  0  0  0  0
   -4.8142   -0.5140   -0.0536 C   0  0  0  0  0  0  0  0  0  0  0  0
    4.5156   -0.3398    0.0915 C   0  0  0  0  0  0  0  0  0  0  0  0
    4.0281   -1.6343    0.0206 C   0  0  0  0  0  0  0  0  0  0  0  0
   -6.4963    0.8420   -0.0110 C   0  0  0  0  0  0  0  0  0  0  0  0
    4.9836    2.3980   -0.8704 C   0  0  0  0  0  0  0  0  0  0  0  0
    6.6995   -1.2810    0.0768 C   0  0  0  0  0  0  0  0  0  0  0  0
  1 18  1  0
  1 24  1  0
  2 21  1  0
  2 24  1  0
  3 19  1  0
  3 25  1  0
  4 22  1  0
  4 26  1  0
  5 10  1  0
  6  7  1  0
  6  8  2  0
  6 10  1  0
  7  9  1  0
  7 14  2  0
  8 12  1  0
  8 15  1  0
  9 11  2  0
  9 20  1  0
 10 13  2  0
 11 13  1  0
 11 19  1  0
 12 16  2  0
 12 17  1  0
 14 16  1  0
 15 18  2  0
 17 21  2  0
 18 21  1  0
 19 22  2  0
 20 23  2  0
 22 23  1  0
M  CHG  1   5   1
M  END
>  <PUBCHEM_COMPOUND_CID>  (1) 
2701

>  <PUBCHEM_CONFORMER_RMSD>  (1) 
0.6

>  <PUBCHEM_CONFORMER_DIVERSEORDER>  (1) 
1

>  <PUBCHEM_MMFF94_PARTIAL_CHARGES>  (1) 
30
1 -0.36
10 0.36
13 -0.15
14 -0.15
15 -0.15
16 -0.15
17 -0.15
18 0.08
19 0.08
2 -0.36
20 -0.15
21 0.08
22 0.08
23 -0.15
24 0.56
25 0.28
26 0.28
27 0.15
28 0.15
29 0.15
3 -0.36
30 0.15
31 0.15
32 0.15
33 0.45
34 0.45
35 0.45
36 0.15
4 -0.36
5 -0.71

>  <PUBCHEM_EFFECTIVE_ROTOR_COUNT>  (1) 
2.6

>  <PUBCHEM_PHARMACOPHORE_FEATURES>  (1) 
11
1 1 acceptor
1 2 acceptor
1 3 acceptor
1 4 acceptor
1 5 cation
1 5 donor
5 1 2 18 21 24 rings
6 6 7 8 12 14 16 rings
6 6 7 9 10 11 13 rings
6 8 12 15 17 18 21 rings
6 9 11 19 20 22 23 rings

>  <PUBCHEM_HEAVY_ATOM_COUNT>  (1) 
26

>  <PUBCHEM_ATOM_DEF_STEREO_COUNT>  (1) 
0

>  <PUBCHEM_ATOM_UDEF_STEREO_COUNT>  (1) 
0

>  <PUBCHEM_BOND_DEF_STEREO_COUNT>  (1) 
0

>  <PUBCHEM_BOND_UDEF_STEREO_COUNT>  (1) 
0

>  <PUBCHEM_ISOTOPIC_ATOM_COUNT>  (1) 
0

>  <PUBCHEM_COMPONENT_COUNT>  (1) 
1

>  <PUBCHEM_CACTVS_TAUTO_COUNT>  (1) 
1

>  <PUBCHEM_CONFORMER_ID>  (1) 
00000A8D00000001

>  <PUBCHEM_MMFF94_ENERGY>  (1) 
123.9476

>  <PUBCHEM_FEATURE_SELFOVERLAP>  (1) 
56.048

>  <PUBCHEM_SHAPE_FINGERPRINT>  (1) 
10050765 1 18266458905209725250
10411042 1 17402050496998334927
10906281 52 18270137767509346075
11578080 2 16915076651000200058
12011746 2 18413389817261008815
12107183 9 17763465010890402139
12166972 35 17967535674997971652
12236239 1 18113338617627415318
12403259 415 18114174208062995013
12788726 201 17846791688601689921
12838862 33 18339059528403998112
13140716 1 18410005576717038330
13402501 40 18411981347450880351
13862211 1 18412260636073141399
14790565 3 18411141316335927017
15183329 4 18411139129838435457
15196674 1 18410855498788155211
1601671 61 18411417340714172497
16087824 20 18266178340708669749
1813 80 17095240328076869340
18608769 82 18264774427789959211
18681886 176 18271798043115726923
21033648 29 17968923246056315781
21236236 1 18270681957336106801
21267235 1 18411143523964824482
21279426 13 18195809570312016951
21421861 104 18041264479739649210
21792934 111 18339912753738288544
23402539 116 18272926133250298495
23559900 14 18342171198425354824
23569917 315 18343308063210644479
3004659 81 18334294267132893384
335352 9 18411136931395552438
34797466 226 15841270445050094392
34934 24 18339357569249034346
350125 39 18409729543790724700
3545911 37 18411699876537132355
3680242 22 18335417907412503554
4017518 198 17203613675291199814
4073 2 17968663825620619202
4214541 1 18411418414693081027
5104073 3 18409165553816921610
59755656 215 18339646642350290374
59755656 520 17240482511324253283
6138700 20 18410856521085694019
6328613 192 18409452517793711660
9981440 41 17255679119557006041

>  <PUBCHEM_SHAPE_MULTIPOLES>  (1) 
506.61
14.57
2.6
0.64
1.09
0.3
0.03
1.45
0.42
-0.97
0.15
-0.16
0.06
-0.47

>  <PUBCHEM_SHAPE_SELFOVERLAP>  (1) 
1161.633

>  <PUBCHEM_SHAPE_VOLUME>  (1) 
262.3

>  <PUBCHEM_COORDINATE_TYPE>  (1) 
2
5
10

$$$$
