27019
     RDKit          3D

 20 21  0  0  1  0  0  0  0  0999 V2000
    0.2357   -0.1599   -0.2426 O   0  0  0  0  0  0  0  0  0  0  0  0
    6.2768    0.9357    1.3052 O   0  0  0  0  0  0  0  0  0  0  0  0
    3.7981   -1.0483   -0.5671 N   0  0  0  0  0  0  0  0  0  0  0  0
   -1.9096    0.8037   -0.0659 N   0  0  0  0  0  0  0  0  0  0  0  0
   -2.5429    1.9891   -0.0600 N   0  0  0  0  0  0  0  0  0  0  0  0
    2.3605   -1.2486   -0.3877 C   0  0  0  0  0  0  0  0  0  0  0  0
    1.6272    0.0831   -0.4023 C   0  0  0  0  0  0  0  0  0  0  0  0
    4.3329   -0.2003    0.4976 C   0  0  0  0  0  0  0  0  0  0  0  0
   -0.5839    0.9380   -0.2128 C   0  0  0  0  0  0  0  0  0  0  0  0
    4.4938   -2.3344   -0.5943 C   0  0  0  0  0  0  0  0  0  0  0  0
    5.8046    0.0973    0.2587 C   0  0  0  0  0  0  0  0  0  0  0  0
   -0.2871    2.2452   -0.3119 C   0  0  0  0  0  0  0  0  0  0  0  0
   -2.6425   -0.3753    0.0714 C   0  0  0  0  0  0  0  0  0  0  0  0
   -1.5466    2.8658   -0.2106 C   0  0  0  0  0  0  0  0  0  0  0  0
   -2.1823   -1.5415   -0.5260 C   0  0  0  0  0  0  0  0  0  0  0  0
   -3.8224   -0.3674    0.8038 C   0  0  0  0  0  0  0  0  0  0  0  0
   -1.8417    4.3079   -0.2535 C   0  0  0  0  0  0  0  0  0  0  0  0
   -2.9147   -2.7206   -0.3885 C   0  0  0  0  0  0  0  0  0  0  0  0
   -4.5549   -1.5465    0.9413 C   0  0  0  0  0  0  0  0  0  0  0  0
   -4.1011   -2.7231    0.3451 C   0  0  0  0  0  0  0  0  0  0  0  0
  1  7  1  0
  1  9  1  0
  2 11  1  0
  3  6  1  0
  3  8  1  0
  3 10  1  0
  4  5  1  0
  4  9  1  0
  4 13  1  0
  5 14  2  0
  6  7  1  0
  8 11  1  0
  9 12  2  0
 12 14  1  0
 13 15  2  0
 13 16  1  0
 14 17  1  0
 15 18  1  0
 16 19  2  0
 18 20  2  0
 19 20  1  0
M  END
>  <PUBCHEM_COMPOUND_CID>  (1) 
27019

>  <PUBCHEM_CONFORMER_RMSD>  (1) 
0.8

>  <PUBCHEM_CONFORMER_DIVERSEORDER>  (1) 
3
37
55
50
87
58
24
29
9
82
26
19
48
60
17
5
20
65
34
76
40
67
64
57
1
46
21
54
47
68
32
30
42
89
56
6
43
45
62
77
52
72
36
13
66
41
22
53
80
8
51
15
31
78
39
11
69
75
61
74
49
25
79
2
12
23
86
10
14
27
63
28
16
71
70
85
44
18
84
81
33
59
90
83
38
4
35
73
7
91
88

>  <PUBCHEM_MMFF94_PARTIAL_CHARGES>  (1) 
27
1 -0.34
10 0.27
11 0.28
12 -0.15
13 -0.02
14 0.11
15 -0.15
16 -0.15
17 0.18
18 -0.15
19 -0.15
2 -0.68
20 -0.15
3 -0.81
32 0.15
33 0.15
34 0.15
38 0.15
39 0.15
4 0.59
40 0.15
41 0.4
5 -0.71
6 0.27
7 0.28
8 0.27
9 -0.09

>  <PUBCHEM_EFFECTIVE_ROTOR_COUNT>  (1) 
7

>  <PUBCHEM_PHARMACOPHORE_FEATURES>  (1) 
7
1 1 acceptor
1 2 acceptor
1 2 donor
1 3 cation
1 5 acceptor
5 4 5 9 12 14 rings
6 13 15 16 18 19 20 rings

>  <PUBCHEM_HEAVY_ATOM_COUNT>  (1) 
20

>  <PUBCHEM_ATOM_DEF_STEREO_COUNT>  (1) 
0

>  <PUBCHEM_ATOM_UDEF_STEREO_COUNT>  (1) 
0

>  <PUBCHEM_BOND_DEF_STEREO_COUNT>  (1) 
0

>  <PUBCHEM_BOND_UDEF_STEREO_COUNT>  (1) 
0

>  <PUBCHEM_ISOTOPIC_ATOM_COUNT>  (1) 
0

>  <PUBCHEM_COMPONENT_COUNT>  (1) 
1

>  <PUBCHEM_CACTVS_TAUTO_COUNT>  (1) 
1

>  <PUBCHEM_CONFORMER_ID>  (1) 
0000698B00000003

>  <PUBCHEM_MMFF94_ENERGY>  (1) 
52.7725

>  <PUBCHEM_FEATURE_SELFOVERLAP>  (1) 
35.522

>  <PUBCHEM_SHAPE_FINGERPRINT>  (1) 
10319926 262 18267570322777107186
10369192 42 17131272497690022180
11056379 131 18337965497513110318
11265709 11 18336269045576549847
11370993 144 17560250119455215330
11405975 8 18122904236167287498
11595378 159 18188473727916728498
12035758 1 18338253583167396969
12173636 292 18049722919090759661
12553582 1 18339095889982553599
13583140 156 18059845131079498556
138480 1 15527146128051722381
14178342 30 18261954021202328718
14787075 74 18115871965743316210
15042514 8 18336839593643752289
15099037 37 18411981347361196822
15230672 131 17543364752470226662
17349148 13 17385445427766239410
17492 89 18336830788882336790
17844677 252 18339930321024453556
1813 80 17822016440326616742
20286276 3 18267028246043081502
20693207 138 17772213941378243670
21065198 57 18195245517079475446
21065199 12 18341892944805945758
21650355 55 18410578392336542621
23402539 116 18260543450488755530
23559900 14 18410848854685199636
3091708 16 8918512076168213709
314173 85 18411986892264468903
32948 21 9511464438063234226
4409770 3 18261669269471630541
5104073 3 18269834229850145506
9709674 26 18055074259521328694

>  <PUBCHEM_SHAPE_MULTIPOLES>  (1) 
384.91
11.62
4.05
0.85
18.88
3.58
0.13
-6.36
3.58
-4.49
-0.6
0.29
-0.11
1.19

>  <PUBCHEM_SHAPE_SELFOVERLAP>  (1) 
801.024

>  <PUBCHEM_SHAPE_VOLUME>  (1) 
221.1

>  <PUBCHEM_COORDINATE_TYPE>  (1) 
2
5
10

$$$$
