27014
     RDKit          3D

 28 30  0  0  1  0  0  0  0  0999 V2000
    1.2215    1.2048    1.2246 O   0  0  0  0  0  0  0  0  0  0  0  0
   -1.5137   -0.5511   -1.8343 O   0  0  0  0  0  0  0  0  0  0  0  0
   -3.4697    3.3470   -0.3482 O   0  0  0  0  0  0  0  0  0  0  0  0
   -1.7298    2.0483   -0.6723 O   0  0  0  0  0  0  0  0  0  0  0  0
    2.3734   -1.6651   -0.3595 N   0  0  0  0  0  0  0  0  0  0  0  0
    2.6531   -0.4153    0.2264 N   0  0  0  0  0  0  0  0  0  0  0  0
   -0.9387   -0.5580    0.4406 N   0  0  0  0  0  0  0  0  0  0  0  0
   -2.9518    2.2097   -0.4447 N   0  0  0  0  0  0  0  0  0  0  0  0
    0.3755   -0.7876    0.2253 C   0  0  0  0  0  0  0  0  0  0  0  0
    0.9858   -1.8135   -0.3807 C   0  0  0  0  0  0  0  0  0  0  0  0
    1.4466    0.1430    0.6671 C   0  0  0  0  0  0  0  0  0  0  0  0
   -1.3887   -0.4294    1.8431 C   0  0  0  0  0  0  0  0  0  0  0  0
    3.8882    0.2609    0.0666 C   0  0  0  0  0  0  0  0  0  0  0  0
    0.3467   -3.0218   -0.9779 C   0  0  0  0  0  0  0  0  0  0  0  0
    3.2415   -2.7930   -0.0358 C   0  0  0  0  0  0  0  0  0  0  0  0
   -1.8355   -0.4522   -0.6501 C   0  0  0  0  0  0  0  0  0  0  0  0
   -3.2658   -0.2227   -0.3843 C   0  0  0  0  0  0  0  0  0  0  0  0
   -1.7869   -1.7708    2.4233 C   0  0  0  0  0  0  0  0  0  0  0  0
    4.2033    1.3538    0.8802 C   0  0  0  0  0  0  0  0  0  0  0  0
    4.8010   -0.1591   -0.9061 C   0  0  0  0  0  0  0  0  0  0  0  0
   -3.7793    1.0627   -0.2901 C   0  0  0  0  0  0  0  0  0  0  0  0
   -4.0837   -1.3334   -0.2305 C   0  0  0  0  0  0  0  0  0  0  0  0
    5.4189    2.0197    0.7227 C   0  0  0  0  0  0  0  0  0  0  0  0
    6.0166    0.5065   -1.0634 C   0  0  0  0  0  0  0  0  0  0  0  0
    6.3256    1.5959   -0.2490 C   0  0  0  0  0  0  0  0  0  0  0  0
   -5.1391    1.2418   -0.0364 C   0  0  0  0  0  0  0  0  0  0  0  0
   -5.4436   -1.1543    0.0231 C   0  0  0  0  0  0  0  0  0  0  0  0
   -5.9712    0.1333    0.1204 C   0  0  0  0  0  0  0  0  0  0  0  0
  1 11  2  0
  2 16  2  0
  3  8  1  0
  4  8  2  0
  5  6  1  0
  5 10  1  0
  5 15  1  0
  6 11  1  0
  6 13  1  0
  7  9  1  0
  7 12  1  0
  7 16  1  0
  8 21  1  0
  9 10  2  0
  9 11  1  0
 10 14  1  0
 12 18  1  0
 13 19  2  0
 13 20  1  0
 16 17  1  0
 17 21  2  0
 17 22  1  0
 19 23  1  0
 20 24  2  0
 21 26  1  0
 22 27  2  0
 23 25  2  0
 24 25  1  0
 26 28  2  0
 27 28  1  0
M  CHG  2   3  -1   8   1
M  END
>  <PUBCHEM_COMPOUND_CID>  (1) 
27014

>  <PUBCHEM_CONFORMER_RMSD>  (1) 
0.8

>  <PUBCHEM_CONFORMER_DIVERSEORDER>  (1) 
3
16
37
36
30
7
28
24
17
20
35
27
31
21
40
38
12
22
6
33
13
25
23
11
32
8
26
18
1
10
14
2
29
19
5
15
34
39
9
4

>  <PUBCHEM_MMFF94_PARTIAL_CHARGES>  (1) 
36
1 -0.57
10 -0.04
11 0.62
12 0.3
13 0.12
14 0.14
15 0.37
16 0.54
17 0.09
19 -0.15
2 -0.57
20 -0.15
21 0.13
22 -0.15
23 -0.15
24 -0.15
25 -0.15
26 -0.15
27 -0.15
28 -0.15
3 -0.52
4 -0.52
40 0.15
41 0.15
42 0.15
43 0.15
44 0.15
45 0.15
46 0.15
47 0.15
48 0.15
5 -0.49
6 -0.16
7 -0.47
8 0.91
9 0.12

>  <PUBCHEM_EFFECTIVE_ROTOR_COUNT>  (1) 
6

>  <PUBCHEM_PHARMACOPHORE_FEATURES>  (1) 
8
1 1 acceptor
1 2 acceptor
1 3 acceptor
1 3 anion
1 4 acceptor
5 5 6 9 10 11 rings
6 13 19 20 23 24 25 rings
6 17 21 22 26 27 28 rings

>  <PUBCHEM_HEAVY_ATOM_COUNT>  (1) 
28

>  <PUBCHEM_ATOM_DEF_STEREO_COUNT>  (1) 
0

>  <PUBCHEM_ATOM_UDEF_STEREO_COUNT>  (1) 
0

>  <PUBCHEM_BOND_DEF_STEREO_COUNT>  (1) 
0

>  <PUBCHEM_BOND_UDEF_STEREO_COUNT>  (1) 
0

>  <PUBCHEM_ISOTOPIC_ATOM_COUNT>  (1) 
0

>  <PUBCHEM_COMPONENT_COUNT>  (1) 
1

>  <PUBCHEM_CACTVS_TAUTO_COUNT>  (1) 
1

>  <PUBCHEM_CONFORMER_ID>  (1) 
0000698600000003

>  <PUBCHEM_MMFF94_ENERGY>  (1) 
127.4457

>  <PUBCHEM_FEATURE_SELFOVERLAP>  (1) 
40.682

>  <PUBCHEM_SHAPE_FINGERPRINT>  (1) 
10670039 82 18260554394703957404
10906281 52 18115041761128342773
11796584 16 12319735882142155660
12403259 415 18131063870528087384
12516196 113 10737281355429755206
12596602 18 16587740953647246856
12633257 1 16515686680124940540
12730499 353 18412549812221781882
13402501 40 18410854386640156080
13533116 47 17749380426348656554
14790565 3 18272937085247825108
15183329 4 16558758922888143780
15961568 22 18260268542533177220
17980427 23 17821734982672161311
18608769 82 18270399524175552483
19611394 137 17897458400227867499
20600515 1 17023192647303579679
21033648 29 18269267023579092800
221357 26 18131630092914492968
22393880 68 18059851770835291494
23198884 109 18113620092641075384
23557571 272 17677631889145446674
23559900 14 17981317889779823783
23569914 2 17613384044569762532
26918003 58 10737284649374181143
350125 39 18342457058242025017
4098825 35 18337674109678137634
4340502 62 17530681017916791714
465052 167 8286202764692633584
497634 4 17489597770250042249
5104073 3 18263363603514319947
59755656 215 18342459257243824278
70251023 43 15047191190761370319
9981440 41 18113902658312879875

>  <PUBCHEM_SHAPE_MULTIPOLES>  (1) 
532.83
14.01
2.8
1.33
6.25
0
-0.57
-6.77
1.71
-0.01
0.31
-0.15
0.4
1.08

>  <PUBCHEM_SHAPE_SELFOVERLAP>  (1) 
1154.775

>  <PUBCHEM_SHAPE_VOLUME>  (1) 
291.5

>  <PUBCHEM_COORDINATE_TYPE>  (1) 
2
5
10

$$$$
