27028
     RDKit          3D

 16 16  0  0  1  0  0  0  0  0999 V2000
   -2.1679   -1.2064    0.2448 O   0  0  0  0  0  0  0  0  0  0  0  0
   -3.4502    0.3692   -0.8439 O   0  0  0  0  0  0  0  0  0  0  0  0
   -0.1889    0.7045   -0.0038 N   0  0  0  0  0  0  0  0  0  0  0  0
    0.5718    0.3900    0.9358 N   0  0  0  0  0  0  0  0  0  0  0  0
   -1.9868    3.5093   -0.3000 N   0  0  0  0  0  0  0  0  0  0  0  0
   -1.5278    1.0455    0.4770 C   0  0  0  0  0  0  0  0  0  0  0  0
    1.8426    0.0700    0.4290 C   0  0  0  0  0  0  0  0  0  0  0  0
   -3.0292   -2.2409   -0.2418 C   0  0  0  0  0  0  0  0  0  0  0  0
   -2.4980    0.0647   -0.1366 C   0  0  0  0  0  0  0  0  0  0  0  0
    2.8037    1.0672    0.2940 C   0  0  0  0  0  0  0  0  0  0  0  0
    2.1307   -1.2417    0.0646 C   0  0  0  0  0  0  0  0  0  0  0  0
   -2.5307   -3.5770    0.2662 C   0  0  0  0  0  0  0  0  0  0  0  0
    4.0648    0.7497   -0.2104 C   0  0  0  0  0  0  0  0  0  0  0  0
    3.3918   -1.5593   -0.4396 C   0  0  0  0  0  0  0  0  0  0  0  0
    4.3590   -0.5636   -0.5771 C   0  0  0  0  0  0  0  0  0  0  0  0
   -1.7849    2.4188    0.0418 C   0  0  0  0  0  0  0  0  0  0  0  0
  1  8  1  0
  1  9  1  0
  2  9  2  0
  3  4  2  0
  3  6  1  0
  4  7  1  0
  5 16  3  0
  6  9  1  0
  6 16  1  0
  7 10  2  0
  7 11  1  0
  8 12  1  0
 10 13  1  0
 11 14  2  0
 13 15  2  0
 14 15  1  0
M  END
>  <PUBCHEM_COMPOUND_CID>  (1) 
27028

>  <PUBCHEM_CONFORMER_RMSD>  (1) 
0.6

>  <PUBCHEM_CONFORMER_DIVERSEORDER>  (1) 
2
24
107
170
39
17
143
113
75
33
29
47
7
123
19
166
114
163
68
127
96
167
130
102
106
134
74
76
133
164
92
147
109
151
34
128
20
104
171
117
146
129
11
4
65
136
161
122
152
21
108
158
138
157
135
169
71
168
63
115
5
87
149
148
145
99
38
23
67
53
37
44
58
30
48
49
95
137
172
35
54
90
69
22
159
62
78
15
88
57
84
112
8
97
85
98
131
73
70
162
16
61
27
25
83
80
14
52
124
101
142
93
28
51
18
12
32
41
141
139
60
89
6
45
56
110
1
94
82
3
81
174
165
121
26
160
42
119
59
154
111
86
125
9
100
50
10
36
77
150
132
72
40
153
91
43
79
64
118
156
116
126
46
105
55
155
13
120
140
66
144
103
31
173

>  <PUBCHEM_MMFF94_PARTIAL_CHARGES>  (1) 
20
1 -0.43
10 -0.15
11 -0.15
13 -0.15
14 -0.15
15 -0.15
16 0.36
2 -0.57
20 0.15
21 0.15
25 0.15
26 0.15
27 0.15
3 -0.25
4 -0.18
5 -0.56
6 0.51
7 0.18
8 0.28
9 0.66

>  <PUBCHEM_EFFECTIVE_ROTOR_COUNT>  (1) 
5

>  <PUBCHEM_PHARMACOPHORE_FEATURES>  (1) 
3
1 2 acceptor
1 5 acceptor
6 7 10 11 13 14 15 rings

>  <PUBCHEM_HEAVY_ATOM_COUNT>  (1) 
16

>  <PUBCHEM_ATOM_DEF_STEREO_COUNT>  (1) 
0

>  <PUBCHEM_ATOM_UDEF_STEREO_COUNT>  (1) 
1

>  <PUBCHEM_BOND_DEF_STEREO_COUNT>  (1) 
0

>  <PUBCHEM_BOND_UDEF_STEREO_COUNT>  (1) 
0

>  <PUBCHEM_ISOTOPIC_ATOM_COUNT>  (1) 
0

>  <PUBCHEM_COMPONENT_COUNT>  (1) 
1

>  <PUBCHEM_CACTVS_TAUTO_COUNT>  (1) 
1

>  <PUBCHEM_CONFORMER_ID>  (1) 
0000699400000002

>  <PUBCHEM_MMFF94_ENERGY>  (1) 
26.4804

>  <PUBCHEM_FEATURE_SELFOVERLAP>  (1) 
15.223

>  <PUBCHEM_SHAPE_FINGERPRINT>  (1) 
10608611 8 18340765962367170368
10616163 171 18413110558698900294
12173636 292 18193269689841320925
12500047 106 18193837046520501172
12553582 1 18265043816253912707
12841375 25 18193839473403837755
13675066 3 11963402860136731684
14251705 54 18050006893785902299
20871999 31 18270112405748965101
21665056 4 18194402182649030411
221490 88 18342182202289848386
22213442 358 18194400224054207747
23402539 116 18114454656721668090
23402655 69 18262242119087266052
23557571 272 18409734001233373270
23559900 14 18341322371058954784
2748010 2 18053363677231593377
2871803 45 18337949107570424358
58051976 100 18343589516553249308
58051976 378 18412259554236956340
633830 44 16951427437775545064
7364860 26 17545600519006237265
81228 2 18340471336258615417
8809292 202 18412827983994102003
93112 12 18339360734824742748
9709674 26 18271528598237151150

>  <PUBCHEM_SHAPE_MULTIPOLES>  (1) 
302.59
7.73
3.42
0.76
4.99
0.22
-0.01
2.44
1.44
-4.47
0.09
0.02
-0.01
0.5

>  <PUBCHEM_SHAPE_SELFOVERLAP>  (1) 
617.914

>  <PUBCHEM_SHAPE_VOLUME>  (1) 
173.1

>  <PUBCHEM_COORDINATE_TYPE>  (1) 
2
5
10

$$$$
