27025
     RDKit          3D

 18 20  0  0  1  0  0  0  0  0999 V2000
    0.2038    0.8935   -2.2547 O   0  0  0  0  0  0  0  0  0  0  0  0
    0.7415    3.2770    2.0343 N   0  0  0  0  0  0  0  0  0  0  0  0
    0.1511    0.7836   -0.8376 C   0  0  0  0  0  0  0  0  0  0  0  0
    0.4858    2.1061   -0.1510 C   0  0  0  0  0  0  0  0  0  0  0  0
    1.0660   -0.3530   -0.4009 C   0  0  0  0  0  0  0  0  0  0  0  0
   -1.2157    0.2432   -0.4389 C   0  0  0  0  0  0  0  0  0  0  0  0
    0.3108   -1.4030    0.1688 C   0  0  0  0  0  0  0  0  0  0  0  0
   -1.0887   -1.0373    0.1455 C   0  0  0  0  0  0  0  0  0  0  0  0
    0.3729    2.0245    1.3824 C   0  0  0  0  0  0  0  0  0  0  0  0
    1.9009    2.5477   -0.5390 C   0  0  0  0  0  0  0  0  0  0  0  0
    2.4451   -0.4394   -0.5113 C   0  0  0  0  0  0  0  0  0  0  0  0
   -2.4567    0.8415   -0.5927 C   0  0  0  0  0  0  0  0  0  0  0  0
    0.9350   -2.5481    0.6369 C   0  0  0  0  0  0  0  0  0  0  0  0
   -2.2074   -1.7270    0.5846 C   0  0  0  0  0  0  0  0  0  0  0  0
    3.0734   -1.5931   -0.0394 C   0  0  0  0  0  0  0  0  0  0  0  0
   -3.5834    0.1464   -0.1500 C   0  0  0  0  0  0  0  0  0  0  0  0
    2.3257   -2.6371    0.5296 C   0  0  0  0  0  0  0  0  0  0  0  0
   -3.4599   -1.1253    0.4333 C   0  0  0  0  0  0  0  0  0  0  0  0
  1  3  1  0
  2  9  1  0
  3  4  1  0
  3  5  1  0
  3  6  1  0
  4  9  1  0
  4 10  1  0
  5  7  2  0
  5 11  1  0
  6  8  2  0
  6 12  1  0
  7  8  1  0
  7 13  1  0
  8 14  1  0
 11 15  2  0
 12 16  2  0
 13 17  2  0
 14 18  2  0
 15 17  1  0
 16 18  1  0
M  END
>  <PUBCHEM_COMPOUND_CID>  (1) 
27025

>  <PUBCHEM_CONFORMER_RMSD>  (1) 
0.6

>  <PUBCHEM_CONFORMER_DIVERSEORDER>  (1) 
2
1
4
3
5

>  <PUBCHEM_MMFF94_PARTIAL_CHARGES>  (1) 
25
1 -0.68
11 -0.15
12 -0.15
13 -0.15
14 -0.15
15 -0.15
16 -0.15
17 -0.15
18 -0.15
2 -0.99
25 0.15
26 0.15
27 0.4
28 0.15
29 0.15
3 0.57
30 0.15
31 0.15
32 0.15
33 0.15
34 0.36
35 0.36
5 -0.14
6 -0.14
9 0.27

>  <PUBCHEM_EFFECTIVE_ROTOR_COUNT>  (1) 
2.2

>  <PUBCHEM_PHARMACOPHORE_FEATURES>  (1) 
8
1 1 acceptor
1 1 donor
1 10 hydrophobe
1 2 cation
1 2 donor
5 3 5 6 7 8 rings
6 5 7 11 13 15 17 rings
6 6 8 12 14 16 18 rings

>  <PUBCHEM_HEAVY_ATOM_COUNT>  (1) 
18

>  <PUBCHEM_ATOM_DEF_STEREO_COUNT>  (1) 
0

>  <PUBCHEM_ATOM_UDEF_STEREO_COUNT>  (1) 
1

>  <PUBCHEM_BOND_DEF_STEREO_COUNT>  (1) 
0

>  <PUBCHEM_BOND_UDEF_STEREO_COUNT>  (1) 
0

>  <PUBCHEM_ISOTOPIC_ATOM_COUNT>  (1) 
0

>  <PUBCHEM_COMPONENT_COUNT>  (1) 
1

>  <PUBCHEM_CACTVS_TAUTO_COUNT>  (1) 
1

>  <PUBCHEM_CONFORMER_ID>  (1) 
0000699100000002

>  <PUBCHEM_MMFF94_ENERGY>  (1) 
62.7827

>  <PUBCHEM_FEATURE_SELFOVERLAP>  (1) 
40.756

>  <PUBCHEM_SHAPE_FINGERPRINT>  (1) 
108231 29 18411138017558307834
10967382 1 18262243351226019191
1100329 8 18053390890087008392
12423570 1 11648575185185465313
12507560 14 18271804554397157575
12716301 132 17098862042338604509
13027679 85 18337951186413151805
13132413 78 18267871575281630309
13134695 92 18130773534923139973
13140716 1 18117850012742027059
14178342 30 17688881152150792739
14617773 55 17907299849418801178
14787075 74 18340207522092018950
14817 1 10656858530714456412
15001771 113 18046069259199866662
15475509 84 18123500248910966089
15490181 7 17767963499596367061
15852999 172 17610871832725168743
15906896 17 17050190884244846220
16945 1 18261111824869515567
19591789 44 17975143346305758382
20510252 161 17906160759720322162
20511035 2 18117851107837368095
21029758 11 18266729204364747887
21296965 67 18339077069124391959
21524375 3 17767130078261658159
21731228 192 17550934227884205552
22112679 90 17844833415590276865
2334 1 17541673045907434391
23419403 2 17906691922394055684
23526113 38 17337626747798630044
23557571 272 18126002659708020070
2748010 2 17684663403560214623
394222 165 17023480745504884814
495365 180 18266722736465766535
5845 1 17342624843984533612
5895379 119 16556810506811527505
68419 9 17689762629262406556
7364860 26 18338238266401486855
7471813 234 17987499486475301933
81228 2 17836934390769734482
84936 182 18198911498841163385

>  <PUBCHEM_SHAPE_MULTIPOLES>  (1) 
359.58
4.37
3.39
1.29
2.5
1.31
-0.09
-2.3
0.08
-2.06
-1.47
-0.19
1.04
0.17

>  <PUBCHEM_SHAPE_SELFOVERLAP>  (1) 
796.084

>  <PUBCHEM_SHAPE_VOLUME>  (1) 
194.7

>  <PUBCHEM_COORDINATE_TYPE>  (1) 
2
5
10

$$$$
