27047
     RDKit          3D

 19 21  0  0  0  0  0  0  0  0999 V2000
   -3.4705    2.5810    0.0018 O   0  0  0  0  0  0  0  0  0  0  0  0
   -1.2773    2.4880    0.0002 O   0  0  0  0  0  0  0  0  0  0  0  0
    4.8326    1.2584    0.0012 O   0  0  0  0  0  0  0  0  0  0  0  0
    4.9158   -0.9352    0.0014 O   0  0  0  0  0  0  0  0  0  0  0  0
   -2.3997    1.9261    0.0004 N   0  0  0  0  0  0  0  0  0  0  0  0
    4.2675    0.1385    0.0005 N   0  0  0  0  0  0  0  0  0  0  0  0
   -0.1024   -2.3669    0.0004 C   0  0  0  0  0  0  0  0  0  0  0  0
    0.8199   -1.1657   -0.0004 C   0  0  0  0  0  0  0  0  0  0  0  0
   -1.3366   -0.3016   -0.0007 C   0  0  0  0  0  0  0  0  0  0  0  0
   -1.4664   -1.7087    0.0001 C   0  0  0  0  0  0  0  0  0  0  0  0
    0.0713    0.0328   -0.0009 C   0  0  0  0  0  0  0  0  0  0  0  0
   -2.4599    0.5084   -0.0008 C   0  0  0  0  0  0  0  0  0  0  0  0
    2.2038   -1.1538   -0.0003 C   0  0  0  0  0  0  0  0  0  0  0  0
    0.7103    1.2613   -0.0014 C   0  0  0  0  0  0  0  0  0  0  0  0
   -2.7076   -2.3205    0.0005 C   0  0  0  0  0  0  0  0  0  0  0  0
    2.8476    0.0848   -0.0009 C   0  0  0  0  0  0  0  0  0  0  0  0
    2.1085    1.2804   -0.0015 C   0  0  0  0  0  0  0  0  0  0  0  0
   -3.7171   -0.1034   -0.0001 C   0  0  0  0  0  0  0  0  0  0  0  0
   -3.8397   -1.5037    0.0004 C   0  0  0  0  0  0  0  0  0  0  0  0
  1  5  1  0
  2  5  2  0
  3  6  1  0
  4  6  2  0
  5 12  1  0
  6 16  1  0
  7  8  1  0
  7 10  1  0
  8 11  2  0
  8 13  1  0
  9 10  2  0
  9 11  1  0
  9 12  1  0
 10 15  1  0
 11 14  1  0
 12 18  2  0
 13 16  2  0
 14 17  2  0
 15 19  2  0
 16 17  1  0
 18 19  1  0
M  CHG  4   1  -1   3  -1   5   1   6   1
M  END
>  <PUBCHEM_COMPOUND_CID>  (1) 
27047

>  <PUBCHEM_CONFORMER_RMSD>  (1) 
0.6

>  <PUBCHEM_CONFORMER_DIVERSEORDER>  (1) 
1

>  <PUBCHEM_MMFF94_PARTIAL_CHARGES>  (1) 
23
1 -0.52
10 -0.14
12 0.13
13 -0.15
14 -0.15
15 -0.15
16 0.13
17 -0.15
18 -0.15
19 -0.15
2 -0.52
22 0.15
23 0.15
24 0.15
25 0.15
26 0.15
27 0.15
3 -0.52
4 -0.52
5 0.91
6 0.91
7 0.29
8 -0.14

>  <PUBCHEM_EFFECTIVE_ROTOR_COUNT>  (1) 
2.2

>  <PUBCHEM_PHARMACOPHORE_FEATURES>  (1) 
9
1 1 acceptor
1 1 anion
1 2 acceptor
1 3 acceptor
1 3 anion
1 4 acceptor
5 7 8 9 10 11 rings
6 8 11 13 14 16 17 rings
6 9 10 12 15 18 19 rings

>  <PUBCHEM_HEAVY_ATOM_COUNT>  (1) 
19

>  <PUBCHEM_ATOM_DEF_STEREO_COUNT>  (1) 
0

>  <PUBCHEM_ATOM_UDEF_STEREO_COUNT>  (1) 
0

>  <PUBCHEM_BOND_DEF_STEREO_COUNT>  (1) 
0

>  <PUBCHEM_BOND_UDEF_STEREO_COUNT>  (1) 
0

>  <PUBCHEM_ISOTOPIC_ATOM_COUNT>  (1) 
0

>  <PUBCHEM_COMPONENT_COUNT>  (1) 
1

>  <PUBCHEM_CACTVS_TAUTO_COUNT>  (1) 
1

>  <PUBCHEM_CONFORMER_ID>  (1) 
000069A700000001

>  <PUBCHEM_MMFF94_ENERGY>  (1) 
105.2258

>  <PUBCHEM_FEATURE_SELFOVERLAP>  (1) 
46

>  <PUBCHEM_SHAPE_FINGERPRINT>  (1) 
10319926 262 18269533037015897042
10411042 1 17978229688230315107
10493431 412 18197788713181574065
10608611 8 18413386553286291416
10616163 171 18410857659162382654
10967382 1 17978510836672628743
12107183 9 17902502689277903194
12390115 104 18200049343041688449
12403259 226 18270675501588440521
13140716 1 18122071059440161651
138480 1 16392961008993446529
13862211 1 18339357582466732855
14790565 3 17980770337579973745
15196674 1 18410573981283738756
15442244 35 18264766571714369930
15536298 74 18270118045283156560
16945 1 18410575063663366371
17802600 8 18341891934807986835
17804303 29 18341054111363875530
19591789 44 18410573942655881066
200 152 17988639752858092479
20510252 161 18343023302187085553
21267235 1 18337680818433293851
21501502 16 18336821975139498875
2297311 6 18340782532108061118
2306618 200 18201446882544709507
23175994 123 17131840875811653832
2334 1 17906453586516979567
23366157 5 17969790661835937850
23402539 116 18342731962124449487
23463225 33 18336264638618513182
23557571 272 18272661142452833524
23559900 14 18199750233493710766
238 59 16600091497775246973
2748010 2 18051406572456994955
335352 9 18122343471808992030
350125 39 18410579517412661569
4214541 1 18410573968478127044
43471831 8 18334289842879365474
474 4 16952257749454186172
5104073 3 18411135827536061002
54173680 148 18264773353172428619
559249 180 18264202526961129994
69090 78 18201437025294409158
8809292 202 18261957469628817147
9709674 26 18341619208991362390

>  <PUBCHEM_SHAPE_MULTIPOLES>  (1) 
357.57
7.86
2.65
0.59
6.84
0.67
0
0.35
0
-2.12
0
-0.04
-0.04
0

>  <PUBCHEM_SHAPE_SELFOVERLAP>  (1) 
807.23

>  <PUBCHEM_SHAPE_VOLUME>  (1) 
190

>  <PUBCHEM_COORDINATE_TYPE>  (1) 
2
5
10

$$$$
