27048
     RDKit          3D

 15 16  0  0  0  0  0  0  0  0999 V2000
   -2.4040   -2.1529    0.0439 O   0  0  0  0  0  0  0  0  0  0  0  0
   -0.1302   -1.7238    0.0668 N   0  0  0  0  0  0  0  0  0  0  0  0
   -0.7918    1.0301   -0.2274 C   0  0  0  0  0  0  0  0  0  0  0  0
    0.6242    0.5946   -0.1323 C   0  0  0  0  0  0  0  0  0  0  0  0
    0.9299   -0.7697    0.0081 C   0  0  0  0  0  0  0  0  0  0  0  0
   -1.7798    0.1168   -0.1323 C   0  0  0  0  0  0  0  0  0  0  0  0
   -1.0489    2.5024   -0.4459 C   0  0  0  0  0  0  0  0  0  0  0  0
   -1.4697   -1.3486    0.0026 C   0  0  0  0  0  0  0  0  0  0  0  0
    1.6876    1.5202   -0.1682 C   0  0  0  0  0  0  0  0  0  0  0  0
    2.2788   -1.1703    0.0921 C   0  0  0  0  0  0  0  0  0  0  0  0
   -3.2548    0.4331   -0.1398 C   0  0  0  0  0  0  0  0  0  0  0  0
    0.2015   -3.1422    0.1987 C   0  0  0  0  0  0  0  0  0  0  0  0
   -1.1741    3.2393    0.8686 C   0  0  0  0  0  0  0  0  0  0  0  0
    3.0177    1.1090   -0.0814 C   0  0  0  0  0  0  0  0  0  0  0  0
    3.3135   -0.2380    0.0465 C   0  0  0  0  0  0  0  0  0  0  0  0
  1  8  2  0
  2  5  1  0
  2  8  1  0
  2 12  1  0
  3  4  1  0
  3  6  2  0
  3  7  1  0
  4  5  2  0
  4  9  1  0
  5 10  1  0
  6  8  1  0
  6 11  1  0
  7 13  1  0
  9 14  2  0
 10 15  2  0
 14 15  1  0
M  END
>  <PUBCHEM_COMPOUND_CID>  (1) 
27048

>  <PUBCHEM_CONFORMER_RMSD>  (1) 
0.4

>  <PUBCHEM_CONFORMER_DIVERSEORDER>  (1) 
1
2

>  <PUBCHEM_MMFF94_PARTIAL_CHARGES>  (1) 
18
1 -0.57
10 -0.15
11 0.14
12 0.3
14 -0.15
15 -0.15
18 0.15
19 0.15
2 -0.48
29 0.15
3 -0.17
30 0.15
4 0.03
5 0.12
6 -0.12
7 0.14
8 0.62
9 -0.15

>  <PUBCHEM_EFFECTIVE_ROTOR_COUNT>  (1) 
1

>  <PUBCHEM_PHARMACOPHORE_FEATURES>  (1) 
4
1 1 acceptor
1 13 hydrophobe
6 2 3 4 5 6 8 rings
6 4 5 9 10 14 15 rings

>  <PUBCHEM_HEAVY_ATOM_COUNT>  (1) 
15

>  <PUBCHEM_ATOM_DEF_STEREO_COUNT>  (1) 
0

>  <PUBCHEM_ATOM_UDEF_STEREO_COUNT>  (1) 
0

>  <PUBCHEM_BOND_DEF_STEREO_COUNT>  (1) 
0

>  <PUBCHEM_BOND_UDEF_STEREO_COUNT>  (1) 
0

>  <PUBCHEM_ISOTOPIC_ATOM_COUNT>  (1) 
0

>  <PUBCHEM_COMPONENT_COUNT>  (1) 
1

>  <PUBCHEM_CACTVS_TAUTO_COUNT>  (1) 
1

>  <PUBCHEM_CONFORMER_ID>  (1) 
000069A800000001

>  <PUBCHEM_MMFF94_ENERGY>  (1) 
42.7691

>  <PUBCHEM_FEATURE_SELFOVERLAP>  (1) 
20.32

>  <PUBCHEM_SHAPE_FINGERPRINT>  (1) 
108231 29 18195810893035349769
10967382 1 18409728439282360223
11132069 177 18412821417199700336
12382932 28 18339078314649064168
12423570 1 17101733837898103948
13027679 85 17979078510990102293
13140716 1 18410011061115773931
14178342 30 17978780217153537016
14614273 12 18115861897823360909
15490181 8 18194680358858762174
16945 1 18338235942639407527
193761 8 17977946787175950679
19591789 44 17906465328588535630
19868273 325 18194400223948673700
20510252 161 18342737403663488088
21029758 11 18125434469651254837
21501502 16 18337107981485820966
2334 1 18265895946049041495
23402539 116 18199176459473474526
23419403 2 16678602610782141116
23463225 33 18334857263729581230
23557571 272 18053399957211083940
23559900 14 18269282421422152644
2748010 2 18337953509995818199
2897 32 18265051332124439852
353137 74 18336819789053847165
528886 8 18410287034123158179
589210 1 17978792311638660053
7364860 26 17836361549533095110
81228 2 18409454691025960552
8809292 202 18334579057492209602

>  <PUBCHEM_SHAPE_MULTIPOLES>  (1) 
297.84
4.25
3.43
0.68
1.05
0.4
-0.04
-0.7
0.03
-1.18
-0.49
-0.09
-0.21
-0.27

>  <PUBCHEM_SHAPE_SELFOVERLAP>  (1) 
634.014

>  <PUBCHEM_SHAPE_VOLUME>  (1) 
166.8

>  <PUBCHEM_COORDINATE_TYPE>  (1) 
2
5
10

$$$$
