27054
     RDKit          3D

 12 12  0  0  0  0  0  0  0  0999 V2000
    2.9231   -0.8345   -0.8943 O   0  0  0  0  0  0  0  0  0  0  0  0
   -1.7112    2.4022   -0.3646 O   0  0  0  0  0  0  0  0  0  0  0  0
    0.3700    2.3272    0.3299 O   0  0  0  0  0  0  0  0  0  0  0  0
   -0.6979    1.7597   -0.0008 N   0  0  0  0  0  0  0  0  0  0  0  0
    0.3387   -0.4181    0.4384 C   0  0  0  0  0  0  0  0  0  0  0  0
    1.6246    0.2306    0.8386 C   0  0  0  0  0  0  0  0  0  0  0  0
   -0.7623    0.3395    0.0387 C   0  0  0  0  0  0  0  0  0  0  0  0
    2.5818    0.4291   -0.3389 C   0  0  0  0  0  0  0  0  0  0  0  0
    0.2525   -1.8100    0.4714 C   0  0  0  0  0  0  0  0  0  0  0  0
   -1.9493   -0.2949   -0.3281 C   0  0  0  0  0  0  0  0  0  0  0  0
   -0.9345   -2.4442    0.1047 C   0  0  0  0  0  0  0  0  0  0  0  0
   -2.0354   -1.6867   -0.2950 C   0  0  0  0  0  0  0  0  0  0  0  0
  1  8  1  0
  2  4  1  0
  3  4  2  0
  4  7  1  0
  5  6  1  0
  5  7  2  0
  5  9  1  0
  6  8  1  0
  7 10  1  0
  9 11  2  0
 10 12  2  0
 11 12  1  0
M  CHG  2   2  -1   4   1
M  END
>  <PUBCHEM_COMPOUND_CID>  (1) 
27054

>  <PUBCHEM_CONFORMER_RMSD>  (1) 
0.6

>  <PUBCHEM_CONFORMER_DIVERSEORDER>  (1) 
2
1
3

>  <PUBCHEM_MMFF94_PARTIAL_CHARGES>  (1) 
17
1 -0.68
10 -0.15
11 -0.15
12 -0.15
17 0.15
18 0.15
19 0.15
2 -0.52
20 0.15
21 0.4
3 -0.52
4 0.91
5 -0.14
6 0.14
7 0.13
8 0.28
9 -0.15

>  <PUBCHEM_EFFECTIVE_ROTOR_COUNT>  (1) 
3

>  <PUBCHEM_PHARMACOPHORE_FEATURES>  (1) 
6
1 1 acceptor
1 1 donor
1 2 acceptor
1 2 anion
1 3 acceptor
6 5 7 9 10 11 12 rings

>  <PUBCHEM_HEAVY_ATOM_COUNT>  (1) 
12

>  <PUBCHEM_ATOM_DEF_STEREO_COUNT>  (1) 
0

>  <PUBCHEM_ATOM_UDEF_STEREO_COUNT>  (1) 
0

>  <PUBCHEM_BOND_DEF_STEREO_COUNT>  (1) 
0

>  <PUBCHEM_BOND_UDEF_STEREO_COUNT>  (1) 
0

>  <PUBCHEM_ISOTOPIC_ATOM_COUNT>  (1) 
0

>  <PUBCHEM_COMPONENT_COUNT>  (1) 
1

>  <PUBCHEM_CACTVS_TAUTO_COUNT>  (1) 
1

>  <PUBCHEM_CONFORMER_ID>  (1) 
000069AE00000002

>  <PUBCHEM_MMFF94_ENERGY>  (1) 
42.7712

>  <PUBCHEM_FEATURE_SELFOVERLAP>  (1) 
30.527

>  <PUBCHEM_SHAPE_FINGERPRINT>  (1) 
1 1 17688593758144197268
10353120 184 18335420218088895511
12423570 1 17027086983896730763
12524768 44 17980193415738319786
12716758 59 18340768131203971658
161256 15 17397547988043990763
16945 1 18337380625788367947
17134986 127 17973726865959928988
17990270 104 17546161265114194346
193761 8 17978221669568077891
20645477 70 17114368798597417967
20711985 344 18411418423151335346
21040471 1 18122330298917220792
22802520 49 18272378550800677382
23552423 10 17252857759602543611
23559900 14 18128252278337617358
241688 4 18266175222023427075
2748010 2 17977089477528508015
528862 383 17397830081268762057
7364860 26 17332810950976397555
81228 2 18410292548861296417

>  <PUBCHEM_SHAPE_MULTIPOLES>  (1) 
224.37
3.18
2.66
0.78
0.82
1.54
0.01
-1.42
-0.66
-0.3
-0.15
0.24
-0.17
0.4

>  <PUBCHEM_SHAPE_SELFOVERLAP>  (1) 
466.148

>  <PUBCHEM_SHAPE_VOLUME>  (1) 
127.6

>  <PUBCHEM_COORDINATE_TYPE>  (1) 
2
5
10

$$$$
