27058
     RDKit          3D

 19 18  0  0  0  0  0  0  0  0999 V2000
    2.6527   -0.0015    0.0174 Si  0  0  0  0  0  4  0  0  0  0  0  0
    2.7264    1.3567   -0.9654 O   0  0  0  0  0  0  0  0  0  0  0  0
    3.9855   -0.0231    1.0369 O   0  0  0  0  0  0  0  0  0  0  0  0
    2.6823   -1.3621   -0.9644 O   0  0  0  0  0  0  0  0  0  0  0  0
   -0.0730    0.0390    0.1462 N   0  0  0  0  0  0  0  0  0  0  0  0
   -8.8289   -0.0236    0.2041 N   0  0  0  0  0  0  0  0  0  0  0  0
   -2.5134    0.0311   -0.0778 C   0  0  0  0  0  0  0  0  0  0  0  0
   -3.8435    0.0459    0.6802 C   0  0  0  0  0  0  0  0  0  0  0  0
   -1.3285    0.0323    0.8866 C   0  0  0  0  0  0  0  0  0  0  0  0
   -5.0312    0.0084   -0.2842 C   0  0  0  0  0  0  0  0  0  0  0  0
    1.0675    0.0261    1.0589 C   0  0  0  0  0  0  0  0  0  0  0  0
   -6.3901    0.0525    0.4221 C   0  0  0  0  0  0  0  0  0  0  0  0
   -7.5735   -0.0630   -0.5383 C   0  0  0  0  0  0  0  0  0  0  0  0
    2.7337    2.6497   -0.3774 C   0  0  0  0  0  0  0  0  0  0  0  0
    5.2915   -0.0456    0.4783 C   0  0  0  0  0  0  0  0  0  0  0  0
    2.6465   -2.6543   -0.3760 C   0  0  0  0  0  0  0  0  0  0  0  0
    2.8045    3.6901   -1.4748 C   0  0  0  0  0  0  0  0  0  0  0  0
    6.3077   -0.0618    1.6003 C   0  0  0  0  0  0  0  0  0  0  0  0
    2.6838   -3.6968   -1.4729 C   0  0  0  0  0  0  0  0  0  0  0  0
  1  2  1  0
  1  3  1  0
  1  4  1  0
  1 11  1  0
  2 14  1  0
  3 15  1  0
  4 16  1  0
  5  9  1  0
  5 11  1  0
  6 13  1  0
  7  8  1  0
  7  9  1  0
  8 10  1  0
 10 12  1  0
 12 13  1  0
 14 17  1  0
 15 18  1  0
 16 19  1  0
M  END
>  <PUBCHEM_COMPOUND_CID>  (1) 
27058

>  <PUBCHEM_CONFORMER_RMSD>  (1) 
1

>  <PUBCHEM_CONFORMER_DIVERSEORDER>  (1) 
1
25
35
8
5
23
16
38
12
17
31
36
24
19
34
22
18
32
14
10
9
27
11
13
6
30
26
37
15
29
7
3
33
21
2
28
4
20

>  <PUBCHEM_MMFF94_PARTIAL_CHARGES>  (1) 
15
1 0.97
11 0.19
13 0.27
14 0.28
15 0.28
16 0.28
2 -0.58
3 -0.58
30 0.36
4 -0.58
41 0.36
42 0.36
5 -0.9
6 -0.99
9 0.27

>  <PUBCHEM_EFFECTIVE_ROTOR_COUNT>  (1) 
14

>  <PUBCHEM_PHARMACOPHORE_FEATURES>  (1) 
5
1 5 cation
1 5 donor
1 6 cation
1 6 donor
4 7 8 10 12 hydrophobe

>  <PUBCHEM_HEAVY_ATOM_COUNT>  (1) 
19

>  <PUBCHEM_ATOM_DEF_STEREO_COUNT>  (1) 
0

>  <PUBCHEM_ATOM_UDEF_STEREO_COUNT>  (1) 
0

>  <PUBCHEM_BOND_DEF_STEREO_COUNT>  (1) 
0

>  <PUBCHEM_BOND_UDEF_STEREO_COUNT>  (1) 
0

>  <PUBCHEM_ISOTOPIC_ATOM_COUNT>  (1) 
0

>  <PUBCHEM_COMPONENT_COUNT>  (1) 
1

>  <PUBCHEM_CACTVS_TAUTO_COUNT>  (1) 
1

>  <PUBCHEM_CONFORMER_ID>  (1) 
000069B200000001

>  <PUBCHEM_MMFF94_ENERGY>  (1) 
-0.8944

>  <PUBCHEM_FEATURE_SELFOVERLAP>  (1) 
25.371

>  <PUBCHEM_SHAPE_FINGERPRINT>  (1) 
10162869 55 18341601664592874679
11089746 13 17749385971246127361
11135609 127 18270392918922306129
13073987 5 17774442677364839289
13533116 47 17775001242083447595
13836976 161 18342460361161390646
14170010 4 18412825781171316162
14251764 46 18272649048362933346
17844677 252 18259707770845391213
20157964 124 18410296930244837781
20645477 70 18270402681097938359
20771845 171 18187096027437425286
22224240 67 18060126666333678530
3004659 81 18060143094225090775
3060560 45 18339377348237960916
34797466 226 18260552234566924213
4340502 62 18131347514247140734
46194498 28 18333733511369879117
54446538 1 18261109673787758529
6025842 7 18411707603156781567

>  <PUBCHEM_SHAPE_MULTIPOLES>  (1) 
381.65
18.9
3
1.3
49.88
0.02
-0.06
0.11
2.9
-6.3
-2.63
-1.67
0
-0.11

>  <PUBCHEM_SHAPE_SELFOVERLAP>  (1) 
684.703

>  <PUBCHEM_SHAPE_VOLUME>  (1) 
246.4

>  <PUBCHEM_COORDINATE_TYPE>  (1) 
2
5
10

$$$$
