27056
     RDKit          3D

 19 19  0  0  1  0  0  0  0  0999 V2000
    1.8138    1.6993   -0.1833 O   0  0  0  0  0  0  0  0  0  0  0  0
   -1.0382    0.8410   -1.6551 O   0  0  0  0  0  0  0  0  0  0  0  0
    1.1318    0.5096    1.6676 O   0  0  0  0  0  0  0  0  0  0  0  0
    5.8098   -1.6858    0.1780 O   0  0  0  0  0  0  0  0  0  0  0  0
    2.1476   -1.6106   -0.1492 N   0  0  0  0  0  0  0  0  0  0  0  0
    1.2080   -0.5529   -0.5313 C   0  0  0  0  0  0  0  0  0  0  0  0
   -0.2200   -1.1118   -0.4887 C   0  0  0  0  0  0  0  0  0  0  0  0
    3.5132   -1.1133   -0.1677 C   0  0  0  0  0  0  0  0  0  0  0  0
   -1.2749   -0.0842   -0.8823 C   0  0  0  0  0  0  0  0  0  0  0  0
    1.3697    0.5834    0.4688 C   0  0  0  0  0  0  0  0  0  0  0  0
   -2.6491   -0.2246   -0.3249 C   0  0  0  0  0  0  0  0  0  0  0  0
    4.4894   -2.2103    0.2262 C   0  0  0  0  0  0  0  0  0  0  0  0
   -3.1177   -1.4858   -0.0289 C   0  0  0  0  0  0  0  0  0  0  0  0
   -3.4018    0.9116   -0.1248 C   0  0  0  0  0  0  0  0  0  0  0  0
    2.0055    2.8588    0.6332 C   0  0  0  0  0  0  0  0  0  0  0  0
   -4.4043   -1.6174    0.4934 C   0  0  0  0  0  0  0  0  0  0  0  0
   -4.6884    0.7798    0.3976 C   0  0  0  0  0  0  0  0  0  0  0  0
   -5.1897   -0.4847    0.7066 C   0  0  0  0  0  0  0  0  0  0  0  0
    2.4954    3.9979   -0.2351 C   0  0  0  0  0  0  0  0  0  0  0  0
  1 10  1  0
  1 15  1  0
  2  9  2  0
  3 10  2  0
  4 12  1  0
  5  6  1  0
  5  8  1  0
  6  7  1  0
  6 10  1  0
  7  9  1  0
  8 12  1  0
  9 11  1  0
 11 13  2  0
 11 14  1  0
 13 16  1  0
 14 17  2  0
 15 19  1  0
 16 18  2  0
 17 18  1  0
M  END
>  <PUBCHEM_COMPOUND_CID>  (1) 
27056

>  <PUBCHEM_CONFORMER_RMSD>  (1) 
0.8

>  <PUBCHEM_CONFORMER_DIVERSEORDER>  (1) 
1
68
231
319
41
226
234
205
261
62
342
129
344
128
189
84
107
56
182
253
60
105
7
227
195
93
117
279
21
197
136
312
12
69
288
148
298
346
92
263
361
52
369
203
278
347
169
171
368
221
42
248
293
89
350
200
26
97
310
23
331
121
154
131
355
100
311
81
359
175
123
166
218
140
211
325
27
45
153
114
289
208
210
360
291
103
163
50
299
188
352
243
314
358
284
16
280
364
125
367
99
118
191
212
307
77
303
192
76
71
116
37
31
185
25
72
86
57
48
332
187
326
88
281
286
115
207
65
292
316
181
146
46
135
179
98
238
236
14
53
225
102
137
320
132
144
126
39
282
333
87
141
73
6
329
36
196
373
63
335
338
357
340
70
61
64
8
249
270
122
201
302
143
300
370
110
296
198
219
43
239
252
20
222
151
363
13
337
366
240
297
246
15
271
264
343
17
66
142
265
215
321
168
241
165
273
202
365
254
267
51
29
349
54
356
217
170
59
206
304
155
294
91
266
274
133
78
127
183
101
5
82
74
259
354
228
374
130
301
224
4
336
250
324
2
334
108
95
9
40
276
255
3
34
242
147
353
323
348
283
351
178
158
235
199
85
113
167
49
186
138
315
209
256
341
32
172
305
112
229
223
328
313
28
237
244
277
345
33
322
160
260
24
134
251
111
258
55
75
233
262
308
306
275
150
362
290
161
19
120
145
230
124
309
285
180
339
149
327
194
106
287
11
67
204
176
44
90
318
22
317
38
30
139
257
245
174
94
190
214
47
247
10
184
269
371
164
216
35
372
157
18
119
79
213
152
232
162
83
80
268
220
193
295
159
177
330
272
96
156
104
109
173
58

>  <PUBCHEM_MMFF94_PARTIAL_CHARGES>  (1) 
25
1 -0.43
10 0.66
11 0.09
12 0.28
13 -0.15
14 -0.15
15 0.28
16 -0.15
17 -0.15
18 -0.15
2 -0.57
23 0.36
28 0.15
29 0.15
3 -0.57
32 0.15
33 0.15
34 0.15
38 0.4
4 -0.68
5 -0.9
6 0.33
7 0.06
8 0.27
9 0.42

>  <PUBCHEM_EFFECTIVE_ROTOR_COUNT>  (1) 
9

>  <PUBCHEM_PHARMACOPHORE_FEATURES>  (1) 
7
1 2 acceptor
1 3 acceptor
1 4 acceptor
1 4 donor
1 5 cation
1 5 donor
6 11 13 14 16 17 18 rings

>  <PUBCHEM_HEAVY_ATOM_COUNT>  (1) 
19

>  <PUBCHEM_ATOM_DEF_STEREO_COUNT>  (1) 
0

>  <PUBCHEM_ATOM_UDEF_STEREO_COUNT>  (1) 
1

>  <PUBCHEM_BOND_DEF_STEREO_COUNT>  (1) 
0

>  <PUBCHEM_BOND_UDEF_STEREO_COUNT>  (1) 
0

>  <PUBCHEM_ISOTOPIC_ATOM_COUNT>  (1) 
0

>  <PUBCHEM_COMPONENT_COUNT>  (1) 
1

>  <PUBCHEM_CACTVS_TAUTO_COUNT>  (1) 
2

>  <PUBCHEM_CONFORMER_ID>  (1) 
000069B000000001

>  <PUBCHEM_MMFF94_ENERGY>  (1) 
32.8645

>  <PUBCHEM_FEATURE_SELFOVERLAP>  (1) 
35.522

>  <PUBCHEM_SHAPE_FINGERPRINT>  (1) 
11405975 8 18412831296088841435
12251169 10 18342176644364927223
12507557 5 18271808986818867579
12507560 40 18409166641029144229
12633257 1 18272663320386497987
13533116 47 18268425910137310759
13740256 8 18407762521367135602
13955234 65 18266462181752671488
14289901 80 18198903789749224835
14341114 176 18412268337191862691
14466204 15 18267868268193385155
14955137 171 18202287979060017406
15042514 8 17907860605076308050
15238133 3 18197793119390478693
15527383 91 18408606946180729477
15842332 3 17630311163506446359
17804303 29 18335988588539074871
1813 80 18058743403206484534
18785283 64 18263077885395178976
20671657 1 18340205309925463652
20681677 274 18409732902164993459
21029758 27 18341328890892727820
21033648 29 17201900562432251027
21041028 32 18343300323525907120
21065198 57 18410856577400089435
22950370 63 18337111155609493250
23175994 123 18341051804929689958
23559900 14 18410287004643962523
23566358 27 18266457792158938326
25147074 1 17774148153797727991
312423 11 17916294112522359967
3286 77 18407762542614800727
4409770 3 17611741206677575540
458136 41 18121781896287543508
5104073 3 18339375157846994027
6049 1 18113886161522739885
7364860 26 18339923826427552452
7495541 125 18334581252151939062

>  <PUBCHEM_SHAPE_MULTIPOLES>  (1) 
362.55
10.56
3.17
0.99
1.86
3.36
0.01
-5.12
-2.22
-5.03
-0.13
0.15
0.17
0.14

>  <PUBCHEM_SHAPE_SELFOVERLAP>  (1) 
731.969

>  <PUBCHEM_SHAPE_VOLUME>  (1) 
211.7

>  <PUBCHEM_COORDINATE_TYPE>  (1) 
2
5
10

$$$$
