2706
     RDKit          3D

 38 41  0  0  1  0  0  0  0  0999 V2000
   -0.8653   -0.3302    2.9417 O   0  0  0  0  0  0  0  0  0  0  0  0
   -2.3687   -1.2728   -2.4037 O   0  0  0  0  0  0  0  0  0  0  0  0
    9.9212    0.1328   -1.1324 O   0  0  0  0  0  0  0  0  0  0  0  0
    0.0372    2.6698    2.1957 O   0  0  0  0  0  0  0  0  0  0  0  0
   -3.1862    3.0053    0.2170 O   0  0  0  0  0  0  0  0  0  0  0  0
    7.8285    0.3197    0.8171 O   0  0  0  0  0  0  0  0  0  0  0  0
   -1.6754   -1.8277   -0.2835 N   0  0  0  0  0  0  0  0  0  0  0  0
    0.2553   -0.2306    0.9197 N   0  0  0  0  0  0  0  0  0  0  0  0
   -2.0790    1.2739   -0.8594 N   0  0  0  0  0  0  0  0  0  0  0  0
    0.1979    2.4943   -0.1215 N   0  0  0  0  0  0  0  0  0  0  0  0
   -1.6710   -1.7461    1.1804 C   0  0  0  0  0  0  0  0  0  0  0  0
   -1.1941   -3.1331    1.6265 C   0  0  0  0  0  0  0  0  0  0  0  0
   -0.2794   -3.5751    0.4914 C   0  0  0  0  0  0  0  0  0  0  0  0
   -0.9807   -3.0276   -0.7386 C   0  0  0  0  0  0  0  0  0  0  0  0
   -0.7482   -0.6742    1.7641 C   0  0  0  0  0  0  0  0  0  0  0  0
   -2.3757   -1.0415   -1.1892 C   0  0  0  0  0  0  0  0  0  0  0  0
   -3.0599    0.2174   -0.6564 C   0  0  0  0  0  0  0  0  0  0  0  0
    1.2226    0.7933    1.3025 C   0  0  0  0  0  0  0  0  0  0  0  0
    2.4968    0.7160    0.4776 C   0  0  0  0  0  0  0  0  0  0  0  0
   -0.8982    3.3926   -0.5215 C   0  0  0  0  0  0  0  0  0  0  0  0
    3.4507   -0.3493    1.0183 C   0  0  0  0  0  0  0  0  0  0  0  0
   -4.3484    0.4916   -1.4260 C   0  0  0  0  0  0  0  0  0  0  0  0
    0.4654    2.1117    1.1859 C   0  0  0  0  0  0  0  0  0  0  0  0
    4.7174   -0.4473    0.1657 C   0  0  0  0  0  0  0  0  0  0  0  0
   -2.1756    2.5503   -0.3156 C   0  0  0  0  0  0  0  0  0  0  0  0
    5.6535   -1.5417    0.6865 C   0  0  0  0  0  0  0  0  0  0  0  0
   -0.9382    4.6969    0.2824 C   0  0  0  0  0  0  0  0  0  0  0  0
   -0.7488    3.7395   -2.0109 C   0  0  0  0  0  0  0  0  0  0  0  0
    6.9149   -1.6846   -0.1606 C   0  0  0  0  0  0  0  0  0  0  0  0
    8.5370   -0.1396   -1.3861 C   0  0  0  0  0  0  0  0  0  0  0  0
   -5.5067   -0.2885   -0.8663 C   0  0  0  0  0  0  0  0  0  0  0  0
    7.7585   -0.4318   -0.1484 C   0  0  0  0  0  0  0  0  0  0  0  0
    9.6182   -1.0792   -1.8353 C   0  0  0  0  0  0  0  0  0  0  0  0
   -5.7902   -1.5637   -1.3557 C   0  0  0  0  0  0  0  0  0  0  0  0
   -6.2968    0.2630    0.1423 C   0  0  0  0  0  0  0  0  0  0  0  0
   -6.8639   -2.2871   -0.8367 C   0  0  0  0  0  0  0  0  0  0  0  0
   -7.3705   -0.4607    0.6614 C   0  0  0  0  0  0  0  0  0  0  0  0
   -7.6540   -1.7358    0.1718 C   0  0  0  0  0  0  0  0  0  0  0  0
  1 15  2  0
  2 16  2  0
  3 30  1  0
  3 33  1  0
  4 23  2  0
  5 25  2  0
  6 32  2  0
  7 11  1  0
  7 14  1  0
  7 16  1  0
  8 15  1  0
  8 18  1  0
  9 17  1  0
  9 25  1  0
 10 20  1  0
 10 23  1  0
 11 12  1  0
 11 15  1  0
 12 13  1  0
 13 14  1  0
 16 17  1  0
 17 22  1  0
 18 19  1  0
 18 23  1  0
 19 21  1  0
 20 25  1  0
 20 27  1  0
 20 28  1  0
 21 24  1  0
 22 31  1  0
 24 26  1  0
 26 29  1  0
 29 32  1  0
 30 32  1  0
 30 33  1  0
 31 34  2  0
 31 35  1  0
 34 36  1  0
 35 37  2  0
 36 38  2  0
 37 38  1  0
M  END
>  <PUBCHEM_COMPOUND_CID>  (1) 
2706

>  <PUBCHEM_CONFORMER_RMSD>  (1) 
1.6

>  <PUBCHEM_CONFORMER_DIVERSEORDER>  (1) 
1
110
4
98
88
57
83
19
36
81
43
38
25
18
26
103
7
37
111
55
65
62
73
74
49
40
71
2
79
78
107
92
66
94
50
22
11
70
46
64
39
35
14
23
86
96
60
89
21
106
82
34
31
95
32
13
16
77
87
75
102
20
63
108
58
61
29
51
109
76
72
24
30
56
85
54
84
52
33
10
47
3
104
28
53
12
105
90
48
69
97
59
93
5
8
68
80
6
17
45
9
100
44
27
41
101
99
67
42
15
91

>  <PUBCHEM_MMFF94_PARTIAL_CHARGES>  (1) 
41
1 -0.57
10 -0.73
11 0.36
14 0.3
15 0.57
16 0.57
17 0.36
18 0.36
2 -0.57
20 0.36
22 0.14
23 0.57
25 0.57
29 0.06
3 -0.3
30 0.05
31 -0.14
32 0.51
33 -0.05
34 -0.15
35 -0.15
36 -0.15
37 -0.15
38 -0.15
4 -0.57
48 0.37
5 -0.57
55 0.37
58 0.37
6 -0.57
69 0.1
7 -0.66
70 0.1
71 0.1
72 0.15
73 0.15
74 0.15
75 0.15
76 0.15
8 -0.73
9 -0.73

>  <PUBCHEM_EFFECTIVE_ROTOR_COUNT>  (1) 
11.4

>  <PUBCHEM_PHARMACOPHORE_FEATURES>  (1) 
13
1 1 acceptor
1 10 donor
1 2 acceptor
1 3 acceptor
1 4 acceptor
1 5 acceptor
1 6 acceptor
1 8 donor
1 9 donor
3 20 27 28 hydrophobe
5 19 21 24 26 29 hydrophobe
5 7 11 12 13 14 rings
6 31 34 35 36 37 38 rings

>  <PUBCHEM_HEAVY_ATOM_COUNT>  (1) 
38

>  <PUBCHEM_ATOM_DEF_STEREO_COUNT>  (1) 
0

>  <PUBCHEM_ATOM_UDEF_STEREO_COUNT>  (1) 
4

>  <PUBCHEM_BOND_DEF_STEREO_COUNT>  (1) 
0

>  <PUBCHEM_BOND_UDEF_STEREO_COUNT>  (1) 
0

>  <PUBCHEM_ISOTOPIC_ATOM_COUNT>  (1) 
0

>  <PUBCHEM_COMPONENT_COUNT>  (1) 
1

>  <PUBCHEM_CACTVS_TAUTO_COUNT>  (1) 
24

>  <PUBCHEM_CONFORMER_ID>  (1) 
00000A9200000001

>  <PUBCHEM_MMFF94_ENERGY>  (1) 
103.0297

>  <PUBCHEM_FEATURE_SELFOVERLAP>  (1) 
65.985

>  <PUBCHEM_SHAPE_FINGERPRINT>  (1) 
10076449 9 18408605876575753746
10190206 1 18261673688460020072
11578080 2 17054415663823579849
11756154 67 18340204193424267167
12788726 201 18338222766133353090
14955137 171 18337948000412574853
15064986 266 18335992956884701282
16628084 112 18264762169383941346
19319366 153 17314210319601271987
3383291 50 18335977644582973507
4197921 191 18040995104128837874
4258327 124 16443643358532862806
54039377 194 18413390942832474164
57527358 35 14853542724659945619
57527452 28 17346602997086591023
9896288 288 18129098918869793073

>  <PUBCHEM_SHAPE_MULTIPOLES>  (1) 
726.88
22.93
4.43
1.91
53.36
3.92
0.24
-13
-11.08
-3.76
0
0.27
-0.01
0.15

>  <PUBCHEM_SHAPE_SELFOVERLAP>  (1) 
1512.371

>  <PUBCHEM_SHAPE_VOLUME>  (1) 
410

>  <PUBCHEM_COORDINATE_TYPE>  (1) 
2
5
10

$$$$
