27075
     RDKit          3D

 17 18  0  0  0  0  0  0  0  0999 V2000
    1.2737    0.0952   -0.2461 O   0  0  0  0  0  0  0  0  0  0  0  0
   -3.0409   -1.5996   -0.3636 O   0  0  0  0  0  0  0  0  0  0  0  0
   -0.3137    1.9865    0.4604 O   0  0  0  0  0  0  0  0  0  0  0  0
    4.7568    0.3165   -0.0266 O   0  0  0  0  0  0  0  0  0  0  0  0
    3.2448    1.7492   -0.7199 O   0  0  0  0  0  0  0  0  0  0  0  0
   -1.7171   -2.0166   -0.2969 N   0  0  0  0  0  0  0  0  0  0  0  0
    3.5456    0.6127   -0.2488 N   0  0  0  0  0  0  0  0  0  0  0  0
   -1.8360    0.2330    0.0374 C   0  0  0  0  0  0  0  0  0  0  0  0
   -1.0164   -0.9049   -0.0567 C   0  0  0  0  0  0  0  0  0  0  0  0
    0.4511   -0.9349    0.0841 C   0  0  0  0  0  0  0  0  0  0  0  0
   -3.0989   -0.2582   -0.1630 C   0  0  0  0  0  0  0  0  0  0  0  0
   -1.4926    1.6015    0.2828 C   0  0  0  0  0  0  0  0  0  0  0  0
    1.1783   -1.9992    0.5641 C   0  0  0  0  0  0  0  0  0  0  0  0
   -4.4365    0.3486   -0.2016 C   0  0  0  0  0  0  0  0  0  0  0  0
    2.5399   -0.3160    0.0258 C   0  0  0  0  0  0  0  0  0  0  0  0
    2.5348   -1.5973    0.5261 C   0  0  0  0  0  0  0  0  0  0  0  0
   -2.5730    2.6836    0.3423 C   0  0  0  0  0  0  0  0  0  0  0  0
  1 10  1  0
  1 15  1  0
  2  6  1  0
  2 11  1  0
  3 12  2  0
  4  7  1  0
  5  7  2  0
  6  9  2  0
  7 15  1  0
  8  9  1  0
  8 11  2  0
  8 12  1  0
  9 10  1  0
 10 13  2  0
 11 14  1  0
 12 17  1  0
 13 16  1  0
 15 16  2  0
M  CHG  2   4  -1   7   1
M  END
>  <PUBCHEM_COMPOUND_CID>  (1) 
27075

>  <PUBCHEM_CONFORMER_RMSD>  (1) 
0.6

>  <PUBCHEM_CONFORMER_DIVERSEORDER>  (1) 
7
3
6
9
13
11
2
5
4
8
10
12
14
1

>  <PUBCHEM_MMFF94_PARTIAL_CHARGES>  (1) 
19
1 -0.28
10 0.14
11 -0.04
12 0.6
13 -0.15
14 0.18
15 0.22
16 -0.15
17 0.06
18 0.15
2 -0.02
22 0.15
3 -0.57
4 -0.52
5 -0.52
6 -0.41
7 0.96
8 -0.09
9 0.29

>  <PUBCHEM_EFFECTIVE_ROTOR_COUNT>  (1) 
3

>  <PUBCHEM_PHARMACOPHORE_FEATURES>  (1) 
8
1 1 acceptor
1 3 acceptor
1 4 acceptor
1 4 anion
1 5 acceptor
1 6 acceptor
5 1 10 13 15 16 rings
5 2 6 8 9 11 rings

>  <PUBCHEM_HEAVY_ATOM_COUNT>  (1) 
17

>  <PUBCHEM_ATOM_DEF_STEREO_COUNT>  (1) 
0

>  <PUBCHEM_ATOM_UDEF_STEREO_COUNT>  (1) 
0

>  <PUBCHEM_BOND_DEF_STEREO_COUNT>  (1) 
0

>  <PUBCHEM_BOND_UDEF_STEREO_COUNT>  (1) 
0

>  <PUBCHEM_ISOTOPIC_ATOM_COUNT>  (1) 
0

>  <PUBCHEM_COMPONENT_COUNT>  (1) 
1

>  <PUBCHEM_CACTVS_TAUTO_COUNT>  (1) 
2

>  <PUBCHEM_CONFORMER_ID>  (1) 
000069C300000007

>  <PUBCHEM_MMFF94_ENERGY>  (1) 
25.173

>  <PUBCHEM_FEATURE_SELFOVERLAP>  (1) 
40.704

>  <PUBCHEM_SHAPE_FINGERPRINT>  (1) 
10967382 1 18410855447269640217
11132069 177 18341046406292838376
13140716 1 18195251250417762721
13221675 6 18341895203336192719
14787075 74 17970074542004507443
14790565 3 18270126708591687993
15196674 1 18339360747535337473
15442244 35 18193271884769854642
15536298 74 18340769239390047014
15669948 3 18272079500791534703
15775835 57 18411704265940792554
16945 1 18341601634011158003
17802600 8 18412821400257526248
20510252 161 18129664089120222705
21267235 1 18410019805532233034
21501502 16 18267019466417258818
21524375 3 18334296478946228666
22959321 54 18408041805688602472
23402539 116 18342450491442608654
23557571 272 17989210313456366020
23559900 14 17913484645713038278
2748010 2 17837496254650350327
3312278 4 18336265729819950171
34934 24 18412537730420424631
353137 74 18408601448543495281
4340502 62 17022626356176591835
474 4 17822017531633366420
5104073 3 18337390426798100346
537710 114 18411699889738564825
53812653 8 18412262800958048811
57096353 35 18410289250331791935
58051976 378 18413669102068298718
7364860 26 18340487747297140982
7832392 63 18193841448956788588
9709674 26 18340210691298530511
9981440 41 17829891293778274160

>  <PUBCHEM_SHAPE_MULTIPOLES>  (1) 
310.54
7.22
2.45
0.68
2.51
0.65
0.02
1.64
-0.7
-0.67
0.18
0.06
0.02
-0.87

>  <PUBCHEM_SHAPE_SELFOVERLAP>  (1) 
671.307

>  <PUBCHEM_SHAPE_VOLUME>  (1) 
171.8

>  <PUBCHEM_COORDINATE_TYPE>  (1) 
2
5
10

$$$$
