27071
     RDKit          3D

 19 21  0  0  1  0  0  0  0  0999 V2000
   -2.2321   -1.4458   -1.0291 O   0  0  0  0  0  0  0  0  0  0  0  0
   -3.9514    0.0912    0.7008 O   0  0  0  0  0  0  0  0  0  0  0  0
    3.5560    2.2495   -0.2046 N   0  0  0  0  0  0  0  0  0  0  0  0
    2.2921    1.6059    0.1775 C   0  0  0  0  0  0  0  0  0  0  0  0
    1.1430    2.0400   -0.7710 C   0  0  0  0  0  0  0  0  0  0  0  0
   -0.1947    1.5043   -0.3852 C   0  0  0  0  0  0  0  0  0  0  0  0
    2.4575    0.0940    0.2359 C   0  0  0  0  0  0  0  0  0  0  0  0
   -0.6253    0.2763   -0.8883 C   0  0  0  0  0  0  0  0  0  0  0  0
   -1.8736   -0.2253   -0.5190 C   0  0  0  0  0  0  0  0  0  0  0  0
   -1.0111    2.2303    0.4825 C   0  0  0  0  0  0  0  0  0  0  0  0
   -2.7024    0.5144    0.3282 C   0  0  0  0  0  0  0  0  0  0  0  0
   -2.2654    1.7358    0.8415 C   0  0  0  0  0  0  0  0  0  0  0  0
   -3.3438   -2.0108   -0.3287 C   0  0  0  0  0  0  0  0  0  0  0  0
   -4.4271   -0.9677   -0.1345 C   0  0  0  0  0  0  0  0  0  0  0  0
    1.7502   -0.6181    1.1828 C   0  0  0  0  0  0  0  0  0  0  0  0
    3.3094   -0.5189   -0.6601 C   0  0  0  0  0  0  0  0  0  0  0  0
    1.9015   -2.0037    1.2362 C   0  0  0  0  0  0  0  0  0  0  0  0
    3.4606   -1.9046   -0.6066 C   0  0  0  0  0  0  0  0  0  0  0  0
    2.7566   -2.6469    0.3417 C   0  0  0  0  0  0  0  0  0  0  0  0
  1  9  1  0
  1 13  1  0
  2 11  1  0
  2 14  1  0
  3  4  1  0
  4  5  1  0
  4  7  1  0
  5  6  1  0
  6  8  2  0
  6 10  1  0
  7 15  2  0
  7 16  1  0
  8  9  1  0
  9 11  2  0
 10 12  2  0
 11 12  1  0
 13 14  1  0
 15 17  1  0
 16 18  2  0
 17 19  2  0
 18 19  1  0
M  END
>  <PUBCHEM_COMPOUND_CID>  (1) 
27071

>  <PUBCHEM_CONFORMER_RMSD>  (1) 
0.6

>  <PUBCHEM_CONFORMER_DIVERSEORDER>  (1) 
9
19
28
20
14
12
4
5
15
25
29
17
7
16
10
13
26
27
2
11
23
18
24
22
1
21
30
3
8
6

>  <PUBCHEM_MMFF94_PARTIAL_CHARGES>  (1) 
29
1 -0.36
10 -0.15
11 0.08
12 -0.15
13 0.28
14 0.28
15 -0.15
16 -0.15
17 -0.15
18 -0.15
19 -0.15
2 -0.36
23 0.15
24 0.15
25 0.15
26 0.36
27 0.36
3 -0.99
32 0.15
33 0.15
34 0.15
35 0.15
36 0.15
4 0.41
5 0.14
6 -0.14
7 -0.14
8 -0.15
9 0.08

>  <PUBCHEM_EFFECTIVE_ROTOR_COUNT>  (1) 
3.8

>  <PUBCHEM_PHARMACOPHORE_FEATURES>  (1) 
7
1 1 acceptor
1 2 acceptor
1 3 cation
1 3 donor
6 1 2 9 11 13 14 rings
6 6 8 9 10 11 12 rings
6 7 15 16 17 18 19 rings

>  <PUBCHEM_HEAVY_ATOM_COUNT>  (1) 
19

>  <PUBCHEM_ATOM_DEF_STEREO_COUNT>  (1) 
0

>  <PUBCHEM_ATOM_UDEF_STEREO_COUNT>  (1) 
1

>  <PUBCHEM_BOND_DEF_STEREO_COUNT>  (1) 
0

>  <PUBCHEM_BOND_UDEF_STEREO_COUNT>  (1) 
0

>  <PUBCHEM_ISOTOPIC_ATOM_COUNT>  (1) 
0

>  <PUBCHEM_COMPONENT_COUNT>  (1) 
1

>  <PUBCHEM_CACTVS_TAUTO_COUNT>  (1) 
1

>  <PUBCHEM_CONFORMER_ID>  (1) 
000069BF00000009

>  <PUBCHEM_MMFF94_ENERGY>  (1) 
57.5195

>  <PUBCHEM_FEATURE_SELFOVERLAP>  (1) 
35.562

>  <PUBCHEM_SHAPE_FINGERPRINT>  (1) 
10616163 171 18342742918201048927
11578080 2 17822843187409183948
11725454 13 13914047581287942950
12553582 1 18264483992788619762
12596599 1 18199194996605006618
12633257 1 17844535409373984867
13533116 47 18271241716434561199
14178342 30 17982997148972269545
14223421 5 18412256250927499336
14251757 17 17607209179183276183
14787075 74 17840585130362888920
15375462 189 18334298630176224370
15536298 74 18341614840819295768
16752209 62 18123454000275762805
17804303 29 18130230328612280628
19422 9 18341900662229134976
20291156 8 18410573955202848099
20442098 301 18343577430283091742
20645477 70 18335128830528061159
21634736 98 18409732837708932802
21731516 1 18117269268638540050
22445834 79 18411140216512959001
2255824 54 18261397818426453108
23184049 29 18340482262275380588
23559900 14 18271239439305231388
23566358 27 18409741655308199756
2871803 45 18335136518350598844
34934 24 18200591539765766029
7097593 13 18268432338890599504
7364860 26 18413670227581812568
74978 22 18266732485477402796
9709674 26 18261677068541292243

>  <PUBCHEM_SHAPE_MULTIPOLES>  (1) 
374.29
7.33
2.96
1.04
2.95
0.01
0.1
3.21
-0.1
-1.42
0.09
-0.13
0.15
-0.86

>  <PUBCHEM_SHAPE_SELFOVERLAP>  (1) 
813.178

>  <PUBCHEM_SHAPE_VOLUME>  (1) 
202.8

>  <PUBCHEM_COORDINATE_TYPE>  (1) 
2
5
10

$$$$
