27078
     RDKit          3D

 23 23  0  0  0  0  0  0  0  0999 V2000
   -0.3381    0.4965   -1.8265 O   0  0  0  0  0  0  0  0  0  0  0  0
    0.4037    2.6638   -1.5981 O   0  0  0  0  0  0  0  0  0  0  0  0
   -2.8008   -0.1634   -0.5923 N   0  0  0  0  0  0  0  0  0  0  0  0
    5.2588   -0.8731    0.7141 N   0  0  0  0  0  0  0  0  0  0  0  0
   -3.4474   -1.4250   -0.2509 C   0  0  0  0  0  0  0  0  0  0  0  0
   -3.5578    0.9667   -0.0511 C   0  0  0  0  0  0  0  0  0  0  0  0
   -2.4522   -2.5787   -0.3637 C   0  0  0  0  0  0  0  0  0  0  0  0
   -3.2436    1.1539    1.4323 C   0  0  0  0  0  0  0  0  0  0  0  0
   -2.6607   -0.0322   -2.0436 C   0  0  0  0  0  0  0  0  0  0  0  0
   -1.2761   -2.3906    0.5972 C   0  0  0  0  0  0  0  0  0  0  0  0
   -1.7582    1.4495    1.6502 C   0  0  0  0  0  0  0  0  0  0  0  0
   -0.2604   -3.5248    0.4621 C   0  0  0  0  0  0  0  0  0  0  0  0
   -1.4334    1.6024    3.1360 C   0  0  0  0  0  0  0  0  0  0  0  0
   -1.5595    0.9573   -2.3894 C   0  0  0  0  0  0  0  0  0  0  0  0
    0.8930   -3.3589    1.4387 C   0  0  0  0  0  0  0  0  0  0  0  0
    0.0353    1.9292    3.3544 C   0  0  0  0  0  0  0  0  0  0  0  0
    0.5584    1.4588   -1.4736 C   0  0  0  0  0  0  0  0  0  0  0  0
    1.7864    0.8501   -0.9026 C   0  0  0  0  0  0  0  0  0  0  0  0
    2.5284    1.5430    0.0540 C   0  0  0  0  0  0  0  0  0  0  0  0
    2.1978   -0.4148   -1.3225 C   0  0  0  0  0  0  0  0  0  0  0  0
    3.6819    0.9711    0.5906 C   0  0  0  0  0  0  0  0  0  0  0  0
    3.3513   -0.9868   -0.7860 C   0  0  0  0  0  0  0  0  0  0  0  0
    4.0932   -0.2939    0.1706 C   0  0  0  0  0  0  0  0  0  0  0  0
  1 14  1  0
  1 17  1  0
  2 17  2  0
  3  5  1  0
  3  6  1  0
  3  9  1  0
  4 23  1  0
  5  7  1  0
  6  8  1  0
  7 10  1  0
  8 11  1  0
  9 14  1  0
 10 12  1  0
 11 13  1  0
 12 15  1  0
 13 16  1  0
 17 18  1  0
 18 19  2  0
 18 20  1  0
 19 21  1  0
 20 22  2  0
 21 23  2  0
 22 23  1  0
M  END
>  <PUBCHEM_COMPOUND_CID>  (1) 
27078

>  <PUBCHEM_CONFORMER_RMSD>  (1) 
1.2

>  <PUBCHEM_CONFORMER_DIVERSEORDER>  (1) 
1
45
26
6
36
60
22
7
13
10
12
2
15
68
66
39
43
51
46
42
30
33
40
28
37
29
67
25
41
70
16
63
57
49
56
59
69
17
18
11
54
65
38
58
55
24
20
64
53
4
34
32
21
23
31
19
9
14
52
5
47
35
44
27
3
62
8
50
48
61

>  <PUBCHEM_MMFF94_PARTIAL_CHARGES>  (1) 
21
1 -0.43
14 0.28
17 0.63
18 0.09
19 -0.15
2 -0.57
20 -0.15
21 -0.15
22 -0.15
23 0.1
3 -0.81
4 -0.9
5 0.27
50 0.15
51 0.15
52 0.15
53 0.15
54 0.4
55 0.4
6 0.27
9 0.27

>  <PUBCHEM_EFFECTIVE_ROTOR_COUNT>  (1) 
13

>  <PUBCHEM_PHARMACOPHORE_FEATURES>  (1) 
7
1 15 hydrophobe
1 16 hydrophobe
1 2 acceptor
1 3 cation
1 4 cation
1 4 donor
6 18 19 20 21 22 23 rings

>  <PUBCHEM_HEAVY_ATOM_COUNT>  (1) 
23

>  <PUBCHEM_ATOM_DEF_STEREO_COUNT>  (1) 
0

>  <PUBCHEM_ATOM_UDEF_STEREO_COUNT>  (1) 
0

>  <PUBCHEM_BOND_DEF_STEREO_COUNT>  (1) 
0

>  <PUBCHEM_BOND_UDEF_STEREO_COUNT>  (1) 
0

>  <PUBCHEM_ISOTOPIC_ATOM_COUNT>  (1) 
0

>  <PUBCHEM_COMPONENT_COUNT>  (1) 
1

>  <PUBCHEM_CACTVS_TAUTO_COUNT>  (1) 
2

>  <PUBCHEM_CONFORMER_ID>  (1) 
000069C600000001

>  <PUBCHEM_MMFF94_ENERGY>  (1) 
41.9748

>  <PUBCHEM_FEATURE_SELFOVERLAP>  (1) 
35.52

>  <PUBCHEM_SHAPE_FINGERPRINT>  (1) 
10366900 7 17770781517828447709
10708813 3 18336551533780829891
11370993 70 18410290315710209377
11552529 35 18127123298153214430
12104220 1 18271517612564993408
12156800 1 15620269475783217769
12539773 59 17842820162687164463
12592029 89 18041571260800531379
12596599 1 18340217327207184134
12633257 1 18410294701066997444
13615921 28 17988060236930753426
20600515 1 18410295826433221716
22889148 1 12110306585393548513
23419403 2 17840278323415137589
35225 105 17406895838550878171
3797600 57 17407421576559857661
539174 4 18122078502323105947

>  <PUBCHEM_SHAPE_MULTIPOLES>  (1) 
451.63
7.05
3.48
2.83
5.74
2.62
-0.92
0.56
-0.19
-1.05
-2.3
-1.24
-1.97
-0.94

>  <PUBCHEM_SHAPE_SELFOVERLAP>  (1) 
888.485

>  <PUBCHEM_SHAPE_VOLUME>  (1) 
271.4

>  <PUBCHEM_COORDINATE_TYPE>  (1) 
2
5
10

$$$$
