27088
     RDKit          3D

 22 22  0  0  1  0  0  0  0  0999 V2000
   -0.8682    1.3747   -0.4089 O   0  0  0  0  0  0  0  0  0  0  0  0
   -2.4494    3.0177   -0.0931 O   0  0  0  0  0  0  0  0  0  0  0  0
    3.1704    0.1514    0.0113 N   0  0  0  0  0  0  0  0  0  0  0  0
   -5.7590   -2.4554    0.6282 N   0  0  0  0  0  0  0  0  0  0  0  0
    2.9820   -1.0218   -0.8421 C   0  0  0  0  0  0  0  0  0  0  0  0
    3.8342   -0.2257    1.2585 C   0  0  0  0  0  0  0  0  0  0  0  0
    1.8858    0.7922    0.2891 C   0  0  0  0  0  0  0  0  0  0  0  0
    1.7551   -1.8389   -0.4072 C   0  0  0  0  0  0  0  0  0  0  0  0
    5.1655   -0.9448    0.9885 C   0  0  0  0  0  0  0  0  0  0  0  0
    1.4606    1.6596   -0.8913 C   0  0  0  0  0  0  0  0  0  0  0  0
    2.8282   -0.5577   -2.2899 C   0  0  0  0  0  0  0  0  0  0  0  0
    4.0675    1.0335    2.0921 C   0  0  0  0  0  0  0  0  0  0  0  0
    1.5240   -3.0880   -1.2482 C   0  0  0  0  0  0  0  0  0  0  0  0
    6.1758   -0.0944    0.2291 C   0  0  0  0  0  0  0  0  0  0  0  0
    0.1348    2.3584   -0.6222 C   0  0  0  0  0  0  0  0  0  0  0  0
   -2.1215    1.8430   -0.1533 C   0  0  0  0  0  0  0  0  0  0  0  0
   -3.0717    0.7206    0.0513 C   0  0  0  0  0  0  0  0  0  0  0  0
   -4.4160    0.8742   -0.2876 C   0  0  0  0  0  0  0  0  0  0  0  0
   -2.6200   -0.4877    0.5820 C   0  0  0  0  0  0  0  0  0  0  0  0
   -5.3086   -0.1802   -0.0957 C   0  0  0  0  0  0  0  0  0  0  0  0
   -3.5125   -1.5422    0.7741 C   0  0  0  0  0  0  0  0  0  0  0  0
   -4.8568   -1.3885    0.4352 C   0  0  0  0  0  0  0  0  0  0  0  0
  1 15  1  0
  1 16  1  0
  2 16  2  0
  3  5  1  0
  3  6  1  0
  3  7  1  0
  4 22  1  0
  5  8  1  0
  5 11  1  0
  6  9  1  0
  6 12  1  0
  7 10  1  0
  8 13  1  0
  9 14  1  0
 10 15  1  0
 16 17  1  0
 17 18  2  0
 17 19  1  0
 18 20  1  0
 19 21  2  0
 20 22  2  0
 21 22  1  0
M  END
>  <PUBCHEM_COMPOUND_CID>  (1) 
27088

>  <PUBCHEM_CONFORMER_RMSD>  (1) 
1

>  <PUBCHEM_CONFORMER_DIVERSEORDER>  (1) 
117
81
39
36
10
131
105
111
6
98
65
125
37
79
110
89
3
126
42
56
106
132
16
60
121
67
94
41
28
142
88
61
53
115
20
83
84
133
5
18
48
14
13
134
54
58
38
97
95
26
15
145
57
1
116
45
47
64
74
104
71
135
108
100
75
78
30
66
2
40
91
9
109
114
29
62
102
17
120
96
35
33
23
144
11
4
118
107
139
124
68
141
87
50
77
80
44
140
12
127
123
92
129
27
43
86
19
21
70
46
85
137
22
136
82
63
55
90
31
72
24
49
7
76
143
130
99
128
119
122
93
25
59
52
34
51
73
8
103
32
112
101
113
69
138

>  <PUBCHEM_MMFF94_PARTIAL_CHARGES>  (1) 
21
1 -0.43
15 0.28
16 0.63
17 0.09
18 -0.15
19 -0.15
2 -0.57
20 -0.15
21 -0.15
22 0.1
3 -0.81
4 -0.9
47 0.15
48 0.15
49 0.15
5 0.27
50 0.15
51 0.4
52 0.4
6 0.27
7 0.27

>  <PUBCHEM_EFFECTIVE_ROTOR_COUNT>  (1) 
10

>  <PUBCHEM_PHARMACOPHORE_FEATURES>  (1) 
7
1 13 hydrophobe
1 14 hydrophobe
1 2 acceptor
1 3 cation
1 4 cation
1 4 donor
6 17 18 19 20 21 22 rings

>  <PUBCHEM_HEAVY_ATOM_COUNT>  (1) 
22

>  <PUBCHEM_ATOM_DEF_STEREO_COUNT>  (1) 
0

>  <PUBCHEM_ATOM_UDEF_STEREO_COUNT>  (1) 
2

>  <PUBCHEM_BOND_DEF_STEREO_COUNT>  (1) 
0

>  <PUBCHEM_BOND_UDEF_STEREO_COUNT>  (1) 
0

>  <PUBCHEM_ISOTOPIC_ATOM_COUNT>  (1) 
0

>  <PUBCHEM_COMPONENT_COUNT>  (1) 
1

>  <PUBCHEM_CACTVS_TAUTO_COUNT>  (1) 
2

>  <PUBCHEM_CONFORMER_ID>  (1) 
000069D000000075

>  <PUBCHEM_MMFF94_ENERGY>  (1) 
70.5442

>  <PUBCHEM_FEATURE_SELFOVERLAP>  (1) 
35.521

>  <PUBCHEM_SHAPE_FINGERPRINT>  (1) 
10366900 7 17987217959648325624
11720765 8 11242509130790199032
12035758 1 17845919789878426146
12166972 35 17167861980217344110
12363563 72 18187370938780603337
12553582 1 18263104183210744669
12596602 18 17603863429687688682
12633257 1 18259993664847245961
12838863 1 18337092558369985723
13134695 92 14273745023422979046
13402501 40 18413387648302686970
13583140 156 17489013869262132241
13911882 115 18201725016116160254
14178342 30 18266179439623730820
14251751 18 18040431109896710749
15352361 1 18334575750372439065
15880784 105 17060335219510141047
1979834 28 18201450206886748023
20261772 1 18271519883901358190
20374829 77 18260266361100759633
20403669 9 18334580165841581403
20626108 58 17822008726618399164
20645477 70 18190185766252727637
21315764 119 15357963578528843787
22224240 67 17988911298023025234
23557571 272 18337107869605739896
23559900 14 18267029362180177693
2637199 183 11527944569204741492
3004659 81 17676485077095359481
339767 52 18334853909660790615
38570 142 15409479117115779248
439807 62 17168715253656053147
463206 1 18195531622110643639
465052 167 18409727362015734842
5104073 3 18128255592896758082
59682541 52 13046205183144371416
6823239 73 18271257018996615022
7471813 234 16370726989973435916
9709674 26 18339925892412141621

>  <PUBCHEM_SHAPE_MULTIPOLES>  (1) 
431.05
13.3
2.84
1.44
3.48
0.22
-0.13
4.73
4.31
1.77
-0.63
-1.97
0.2
1.6

>  <PUBCHEM_SHAPE_SELFOVERLAP>  (1) 
861.56

>  <PUBCHEM_SHAPE_VOLUME>  (1) 
256.4

>  <PUBCHEM_COORDINATE_TYPE>  (1) 
2
5
10

$$$$
