2709
     RDKit          3D

 27 27  0  0  1  0  0  0  0  0999 V2000
    5.2571    1.6110    0.2756 Cl  0  0  0  0  0  0  0  0  0  0  0  0
    4.0079    3.7164   -1.3178 Cl  0  0  0  0  0  0  0  0  0  0  0  0
   -0.5696    2.8129   -0.7014 O   0  0  0  0  0  0  0  0  0  0  0  0
    1.4683   -0.7856    1.8894 O   0  0  0  0  0  0  0  0  0  0  0  0
    2.6352    0.9415   -1.2325 O   0  0  0  0  0  0  0  0  0  0  0  0
    0.3973   -2.3590    0.5870 O   0  0  0  0  0  0  0  0  0  0  0  0
   -6.6993   -0.5055    0.3121 O   0  0  0  0  0  0  0  0  0  0  0  0
   -5.8333   -1.5288   -1.4263 O   0  0  0  0  0  0  0  0  0  0  0  0
    4.1234   -1.8207   -0.8973 O   0  0  0  0  0  0  0  0  0  0  0  0
    2.4820   -2.9170   -2.0226 O   0  0  0  0  0  0  0  0  0  0  0  0
    1.6351    1.7948    0.6769 N   0  0  0  0  0  0  0  0  0  0  0  0
   -5.7381   -0.7307   -0.4625 N   0  0  0  0  0  0  0  0  0  0  0  0
    0.4193    1.0084    0.5865 C   0  0  0  0  0  0  0  0  0  0  0  0
   -0.7887    1.9558    0.4240 C   0  0  0  0  0  0  0  0  0  0  0  0
    0.3252    0.0708    1.7961 C   0  0  0  0  0  0  0  0  0  0  0  0
   -2.1011    1.2428    0.1888 C   0  0  0  0  0  0  0  0  0  0  0  0
   -3.1656    1.4871    1.0399 C   0  0  0  0  0  0  0  0  0  0  0  0
   -2.2118    0.3608   -0.8729 C   0  0  0  0  0  0  0  0  0  0  0  0
    2.6507    1.6893   -0.2557 C   0  0  0  0  0  0  0  0  0  0  0  0
   -4.3766    0.8297    0.8228 C   0  0  0  0  0  0  0  0  0  0  0  0
   -3.4229   -0.2965   -1.0899 C   0  0  0  0  0  0  0  0  0  0  0  0
   -4.5053   -0.0620   -0.2420 C   0  0  0  0  0  0  0  0  0  0  0  0
    1.3651   -1.9789    1.2312 C   0  0  0  0  0  0  0  0  0  0  0  0
    2.6470   -2.7582    1.4317 C   0  0  0  0  0  0  0  0  0  0  0  0
    3.8107    2.6078    0.0493 C   0  0  0  0  0  0  0  0  0  0  0  0
    3.0220   -3.6134    0.2273 C   0  0  0  0  0  0  0  0  0  0  0  0
    3.1659   -2.7731   -1.0174 C   0  0  0  0  0  0  0  0  0  0  0  0
  1 25  1  0
  2 25  1  0
  3 14  1  0
  4 15  1  0
  4 23  1  0
  5 19  2  0
  6 23  2  0
  7 12  1  0
  8 12  2  0
  9 27  1  0
 10 27  2  0
 11 13  1  0
 11 19  1  0
 12 22  1  0
 13 14  1  0
 13 15  1  0
 14 16  1  0
 16 17  2  0
 16 18  1  0
 17 20  1  0
 18 21  2  0
 19 25  1  0
 20 22  2  0
 21 22  1  0
 23 24  1  0
 24 26  1  0
 26 27  1  0
M  CHG  2   7  -1  12   1
M  END
>  <PUBCHEM_COMPOUND_CID>  (1) 
2709

>  <PUBCHEM_CONFORMER_RMSD>  (1) 
1

>  <PUBCHEM_CONFORMER_DIVERSEORDER>  (1) 
3
47
36
71
140
25
153
39
104
87
146
185
92
147
143
41
171
115
22
120
61
26
32
178
144
111
184
139
38
76
117
72
80
5
17
79
191
94
73
91
151
31
135
50
34
121
187
159
165
103
62
172
169
132
141
37
190
128
182
181
133
54
98
180
67
23
70
84
8
129
102
176
177
110
83
74
119
155
154
116
186
69
124
78
82
21
20
179
113
189
149
6
99
127
163
101
156
24
58
10
162
100
40
85
4
157
27
170
105
96
106
60
75
66
51
161
43
134
192
81
138
150
68
19
56
131
11
142
48
52
63
112
55
158
136
125
107
168
44
188
13
7
35
45
130
29
145
166
42
86
2
122
152
90
174
137
173
160
59
77
126
1
175
97
108
148
164
95
118
46
114
16
28
57
167
183
30
88
15
89
18
49
53
123
93
109
14
12
33
65
64
9

>  <PUBCHEM_MMFF94_PARTIAL_CHARGES>  (1) 
34
1 -0.29
10 -0.57
11 -0.73
12 0.91
13 0.3
14 0.42
15 0.28
16 -0.14
17 -0.15
18 -0.15
19 0.57
2 -0.29
20 -0.15
21 -0.15
22 0.13
23 0.66
24 0.06
25 0.64
26 0.06
27 0.66
3 -0.68
32 0.37
33 0.15
34 0.15
35 0.4
36 0.15
37 0.15
4 -0.43
43 0.5
5 -0.57
6 -0.57
7 -0.52
8 -0.52
9 -0.65

>  <PUBCHEM_EFFECTIVE_ROTOR_COUNT>  (1) 
12

>  <PUBCHEM_PHARMACOPHORE_FEATURES>  (1) 
12
1 10 acceptor
1 11 donor
1 3 acceptor
1 3 donor
1 5 acceptor
1 6 acceptor
1 7 acceptor
1 7 anion
1 8 acceptor
1 9 acceptor
3 9 10 27 anion
6 16 17 18 20 21 22 rings

>  <PUBCHEM_HEAVY_ATOM_COUNT>  (1) 
27

>  <PUBCHEM_ATOM_DEF_STEREO_COUNT>  (1) 
0

>  <PUBCHEM_ATOM_UDEF_STEREO_COUNT>  (1) 
2

>  <PUBCHEM_BOND_DEF_STEREO_COUNT>  (1) 
0

>  <PUBCHEM_BOND_UDEF_STEREO_COUNT>  (1) 
0

>  <PUBCHEM_ISOTOPIC_ATOM_COUNT>  (1) 
0

>  <PUBCHEM_COMPONENT_COUNT>  (1) 
1

>  <PUBCHEM_CACTVS_TAUTO_COUNT>  (1) 
2

>  <PUBCHEM_CONFORMER_ID>  (1) 
00000A9500000003

>  <PUBCHEM_MMFF94_ENERGY>  (1) 
53.4224

>  <PUBCHEM_FEATURE_SELFOVERLAP>  (1) 
61.044

>  <PUBCHEM_SHAPE_FINGERPRINT>  (1) 
12597179 24 18264496264047929940
13533116 47 18342734131557414667
1361 2 18338520854249805852
13911987 19 17897738779651034805
14863182 85 18271789247128297346
15664445 248 18261959642967035637
1813 80 18126002659322618890
20028762 73 18340203102676556116
20567600 347 18411136982940440848
20771845 140 17988632038959665882
20775438 99 18409442622142290451
21344244 246 18410859846218608126
21521721 280 18120098531169433017
22182313 1 17823158828797389003
23559900 14 17702107967431055517
238 59 18335437750677933380
59755656 215 18333168379942173508
6669772 16 18335706100276766054
70251023 43 18264776467170878745

>  <PUBCHEM_SHAPE_MULTIPOLES>  (1) 
502.47
11.86
4.4
1.56
15.68
1.48
-0.03
-0.03
-3.06
-7.82
-0.91
-0.45
0.65
-1.11

>  <PUBCHEM_SHAPE_SELFOVERLAP>  (1) 
1013.076

>  <PUBCHEM_SHAPE_VOLUME>  (1) 
293.1

>  <PUBCHEM_COORDINATE_TYPE>  (1) 
2
5
10

$$$$
