27108
     RDKit          3D

 25 27  0  0  1  0  0  0  0  0999 V2000
   -6.8484   -1.0832   -1.5928 Br  0  0  0  0  0  0  0  0  0  0  0  0
    1.2336    1.8259    0.0229 O   0  0  0  0  0  0  0  0  0  0  0  0
   -1.9008   -0.9840    1.6094 O   0  0  0  0  0  0  0  0  0  0  0  0
    2.0848   -1.5397    0.1644 N   0  0  0  0  0  0  0  0  0  0  0  0
    2.4908   -0.1912    0.1686 N   0  0  0  0  0  0  0  0  0  0  0  0
   -1.0680    0.0976   -0.2991 N   0  0  0  0  0  0  0  0  0  0  0  0
    0.7083   -1.5592   -0.0648 C   0  0  0  0  0  0  0  0  0  0  0  0
    0.2048   -0.3200   -0.1205 C   0  0  0  0  0  0  0  0  0  0  0  0
    1.3484    0.6117    0.0600 C   0  0  0  0  0  0  0  0  0  0  0  0
    3.8332    0.2188   -0.0275 C   0  0  0  0  0  0  0  0  0  0  0  0
   -0.0399   -2.8454   -0.1693 C   0  0  0  0  0  0  0  0  0  0  0  0
    2.6958   -2.4513    1.1269 C   0  0  0  0  0  0  0  0  0  0  0  0
   -2.0800   -0.2766    0.6179 C   0  0  0  0  0  0  0  0  0  0  0  0
   -1.3481    0.9515   -1.4731 C   0  0  0  0  0  0  0  0  0  0  0  0
    4.2159    1.5343    0.2525 C   0  0  0  0  0  0  0  0  0  0  0  0
    4.7849   -0.6887   -0.5032 C   0  0  0  0  0  0  0  0  0  0  0  0
   -3.4541    0.2107    0.4095 C   0  0  0  0  0  0  0  0  0  0  0  0
    5.5369    1.9383    0.0590 C   0  0  0  0  0  0  0  0  0  0  0  0
    6.1060   -0.2848   -0.6966 C   0  0  0  0  0  0  0  0  0  0  0  0
    6.4820    1.0287   -0.4155 C   0  0  0  0  0  0  0  0  0  0  0  0
   -4.3328   -0.5385   -0.3563 C   0  0  0  0  0  0  0  0  0  0  0  0
   -3.8410    1.4117    0.9823 C   0  0  0  0  0  0  0  0  0  0  0  0
   -5.6333   -0.0747   -0.5544 C   0  0  0  0  0  0  0  0  0  0  0  0
   -5.1415    1.8756    0.7841 C   0  0  0  0  0  0  0  0  0  0  0  0
   -6.0376    1.1325    0.0157 C   0  0  0  0  0  0  0  0  0  0  0  0
  1 23  1  0
  2  9  2  0
  3 13  2  0
  4  5  1  0
  4  7  1  0
  4 12  1  0
  5  9  1  0
  5 10  1  0
  6  8  1  0
  6 13  1  0
  6 14  1  0
  7  8  2  0
  7 11  1  0
  8  9  1  0
 10 15  2  0
 10 16  1  0
 13 17  1  0
 15 18  1  0
 16 19  2  0
 17 21  2  0
 17 22  1  0
 18 20  2  0
 19 20  1  0
 21 23  1  0
 22 24  2  0
 23 25  2  0
 24 25  1  0
M  END
>  <PUBCHEM_COMPOUND_CID>  (1) 
27108

>  <PUBCHEM_CONFORMER_RMSD>  (1) 
0.8

>  <PUBCHEM_CONFORMER_DIVERSEORDER>  (1) 
1
26
45
5
19
30
33
20
50
41
34
28
47
51
53
52
16
42
25
40
21
8
37
39
9
23
24
2
17
49
46
14
36
7
29
35
6
12
44
22
11
43
32
48
38
18
31
15
27
3
13
4
10

>  <PUBCHEM_MMFF94_PARTIAL_CHARGES>  (1) 
34
1 -0.11
10 0.12
11 0.14
12 0.37
13 0.54
14 0.3
15 -0.15
16 -0.15
17 0.09
18 -0.15
19 -0.15
2 -0.57
20 -0.15
21 -0.15
22 -0.15
23 0.11
24 -0.15
25 -0.15
3 -0.57
35 0.15
36 0.15
37 0.15
38 0.15
39 0.15
4 -0.49
40 0.15
41 0.15
42 0.15
43 0.15
5 -0.16
6 -0.47
7 -0.04
8 0.12
9 0.62

>  <PUBCHEM_EFFECTIVE_ROTOR_COUNT>  (1) 
4

>  <PUBCHEM_PHARMACOPHORE_FEATURES>  (1) 
6
1 1 hydrophobe
1 2 acceptor
1 3 acceptor
5 4 5 7 8 9 rings
6 10 15 16 18 19 20 rings
6 17 21 22 23 24 25 rings

>  <PUBCHEM_HEAVY_ATOM_COUNT>  (1) 
25

>  <PUBCHEM_ATOM_DEF_STEREO_COUNT>  (1) 
0

>  <PUBCHEM_ATOM_UDEF_STEREO_COUNT>  (1) 
0

>  <PUBCHEM_BOND_DEF_STEREO_COUNT>  (1) 
0

>  <PUBCHEM_BOND_UDEF_STEREO_COUNT>  (1) 
0

>  <PUBCHEM_ISOTOPIC_ATOM_COUNT>  (1) 
0

>  <PUBCHEM_COMPONENT_COUNT>  (1) 
1

>  <PUBCHEM_CACTVS_TAUTO_COUNT>  (1) 
1

>  <PUBCHEM_CONFORMER_ID>  (1) 
000069E400000001

>  <PUBCHEM_MMFF94_ENERGY>  (1) 
111.4739

>  <PUBCHEM_FEATURE_SELFOVERLAP>  (1) 
30.447

>  <PUBCHEM_SHAPE_FINGERPRINT>  (1) 
10366900 7 18333731320920766121
10411042 1 17689438179397761642
10595046 47 18342736291662226755
10906281 52 17968395471425865645
11089746 13 18343303660820653552
12011746 2 18333449854433535687
12107183 9 17548701781672918305
12166972 35 17274822497348486721
12236239 1 17989487411634600813
12596602 18 18060419122972253873
12633257 1 16443352017425039328
13533116 47 17386278793034330514
13631057 29 18059288873065413327
14528608 73 18342457040792747151
14790565 3 18409173242151707324
15142383 8 12252173074194877927
15183329 4 18412826871618398576
18681886 176 17774996916533818283
21033648 144 18114177519620215775
21033648 29 18341890844329750320
21065198 48 18342454799500300731
21150785 3 17704071832447273620
21267235 1 18130508626257366423
22224240 67 18186800305046014064
23559900 14 18338229496568989617
25147074 1 18338780287264702478
2838139 119 18409168800733192305
335352 9 18411141342970465742
34797466 226 17418382419003636125
34934 24 18259983786253959242
4073 2 18187372059582549066
4325135 7 18201999941752709853
4340502 62 16443348659024462562
465052 167 8142085364740528808
504579 68 18131058321825921661
5104073 3 18187371978468411019
59755656 215 18260832570849917270
59755656 520 18411978083054612078
7226269 152 15574713591124742773
7495541 125 14045733859125313699

>  <PUBCHEM_SHAPE_MULTIPOLES>  (1) 
493.75
17.02
2.25
1.11
2.8
0.74
-0.06
-4.95
-4.35
-0.7
0.39
1.07
0.17
-1.36

>  <PUBCHEM_SHAPE_SELFOVERLAP>  (1) 
1054.163

>  <PUBCHEM_SHAPE_VOLUME>  (1) 
281.4

>  <PUBCHEM_COORDINATE_TYPE>  (1) 
2
5
10

$$$$
