27113
     RDKit          3D

 26 28  0  0  1  0  0  0  0  0999 V2000
    1.2244    1.7687    0.2698 O   0  0  0  0  0  0  0  0  0  0  0  0
   -1.7747   -1.3481    1.5061 O   0  0  0  0  0  0  0  0  0  0  0  0
    2.2533   -1.5448    0.0852 N   0  0  0  0  0  0  0  0  0  0  0  0
    2.5862   -0.1844    0.2334 N   0  0  0  0  0  0  0  0  0  0  0  0
   -0.9767   -0.0353   -0.2676 N   0  0  0  0  0  0  0  0  0  0  0  0
   -7.3358    1.1137   -0.1178 N   0  0  0  0  0  0  0  0  0  0  0  0
    0.3143   -0.4020   -0.1090 C   0  0  0  0  0  0  0  0  0  0  0  0
    0.8829   -1.6124   -0.1699 C   0  0  0  0  0  0  0  0  0  0  0  0
    1.4038    0.5648    0.1858 C   0  0  0  0  0  0  0  0  0  0  0  0
   -1.2872    0.9183   -1.3540 C   0  0  0  0  0  0  0  0  0  0  0  0
    3.9070    0.3129    0.1044 C   0  0  0  0  0  0  0  0  0  0  0  0
    0.2063   -2.9185   -0.4177 C   0  0  0  0  0  0  0  0  0  0  0  0
    2.8999   -2.5167    0.9615 C   0  0  0  0  0  0  0  0  0  0  0  0
   -1.9789   -0.5534    0.5882 C   0  0  0  0  0  0  0  0  0  0  0  0
   -1.6050    0.1998   -2.6490 C   0  0  0  0  0  0  0  0  0  0  0  0
   -3.3743   -0.1196    0.4052 C   0  0  0  0  0  0  0  0  0  0  0  0
    4.2149    1.6111    0.5231 C   0  0  0  0  0  0  0  0  0  0  0  0
    4.9121   -0.4907   -0.4431 C   0  0  0  0  0  0  0  0  0  0  0  0
    5.5149    2.1007    0.3958 C   0  0  0  0  0  0  0  0  0  0  0  0
    6.2121   -0.0012   -0.5701 C   0  0  0  0  0  0  0  0  0  0  0  0
   -4.2009   -0.8339   -0.4474 C   0  0  0  0  0  0  0  0  0  0  0  0
   -3.8343    0.9951    1.0879 C   0  0  0  0  0  0  0  0  0  0  0  0
    6.5135    1.2944   -0.1506 C   0  0  0  0  0  0  0  0  0  0  0  0
   -5.5223   -0.4226   -0.6220 C   0  0  0  0  0  0  0  0  0  0  0  0
   -5.1557    1.4064    0.9135 C   0  0  0  0  0  0  0  0  0  0  0  0
   -5.9997    0.6977    0.0584 C   0  0  0  0  0  0  0  0  0  0  0  0
  1  9  2  0
  2 14  2  0
  3  4  1  0
  3  8  1  0
  3 13  1  0
  4  9  1  0
  4 11  1  0
  5  7  1  0
  5 10  1  0
  5 14  1  0
  6 26  1  0
  7  8  2  0
  7  9  1  0
  8 12  1  0
 10 15  1  0
 11 17  2  0
 11 18  1  0
 14 16  1  0
 16 21  2  0
 16 22  1  0
 17 19  1  0
 18 20  2  0
 19 23  2  0
 20 23  1  0
 21 24  1  0
 22 25  2  0
 24 26  2  0
 25 26  1  0
M  END
>  <PUBCHEM_COMPOUND_CID>  (1) 
27113

>  <PUBCHEM_CONFORMER_RMSD>  (1) 
0.8

>  <PUBCHEM_CONFORMER_DIVERSEORDER>  (1) 
1
14
22
15
25
26
17
7
11
18
19
3
12
23
5
4
20
24
9
6
16
8
21
2
13
10

>  <PUBCHEM_MMFF94_PARTIAL_CHARGES>  (1) 
36
1 -0.57
10 0.3
11 0.12
12 0.14
13 0.37
14 0.54
16 0.09
17 -0.15
18 -0.15
19 -0.15
2 -0.57
20 -0.15
21 -0.15
22 -0.15
23 -0.15
24 -0.15
25 -0.15
26 0.1
3 -0.49
38 0.15
39 0.15
4 -0.16
40 0.15
41 0.15
42 0.15
43 0.15
44 0.15
45 0.15
46 0.15
47 0.4
48 0.4
5 -0.47
6 -0.9
7 0.12
8 -0.04
9 0.62

>  <PUBCHEM_EFFECTIVE_ROTOR_COUNT>  (1) 
5

>  <PUBCHEM_PHARMACOPHORE_FEATURES>  (1) 
7
1 1 acceptor
1 2 acceptor
1 6 cation
1 6 donor
5 3 4 7 8 9 rings
6 11 17 18 19 20 23 rings
6 16 21 22 24 25 26 rings

>  <PUBCHEM_HEAVY_ATOM_COUNT>  (1) 
26

>  <PUBCHEM_ATOM_DEF_STEREO_COUNT>  (1) 
0

>  <PUBCHEM_ATOM_UDEF_STEREO_COUNT>  (1) 
0

>  <PUBCHEM_BOND_DEF_STEREO_COUNT>  (1) 
0

>  <PUBCHEM_BOND_UDEF_STEREO_COUNT>  (1) 
0

>  <PUBCHEM_ISOTOPIC_ATOM_COUNT>  (1) 
0

>  <PUBCHEM_COMPONENT_COUNT>  (1) 
1

>  <PUBCHEM_CACTVS_TAUTO_COUNT>  (1) 
2

>  <PUBCHEM_CONFORMER_ID>  (1) 
000069E900000001

>  <PUBCHEM_MMFF94_ENERGY>  (1) 
122.7694

>  <PUBCHEM_FEATURE_SELFOVERLAP>  (1) 
35.522

>  <PUBCHEM_SHAPE_FINGERPRINT>  (1) 
10 15 17095241454139314476
10165383 225 18334859433394934572
10411042 1 17834959668757745506
10595046 47 18343862195943261987
10670039 82 16056607516717044129
10906281 52 17968394389057092829
11089746 13 18202565085875523048
11578080 2 17825096022779459477
11796584 16 14405179604088657300
12011746 2 18410294713498238086
12035758 1 17095534989426065513
12107183 9 17550393938647281803
12166972 35 15482668000632167033
12236239 1 17775566446361332165
12403259 415 17822847576585827670
12633257 1 17095526239833865404
12788726 201 17703794665380543529
13288520 33 8790887376481050329
13533116 47 17458616766842916658
13631057 29 18059288894477115175
14528608 73 18272651259543155154
14790565 3 18339084886313458924
15048467 5 18410293610071672081
15183329 4 17917716790041988152
15849732 13 17561083622194024908
17980427 23 17313672679626959854
18335252 98 18409454709319036579
18681886 176 17489298724240311763
20600515 1 16588036697053531645
21033648 29 18338505461192492704
21150785 3 16702301265021066165
22182313 1 17458898228523281566
22224240 67 18187082871250470427
23557571 272 16950843600926672094
23559900 14 18340481279107931753
300161 21 18335137583782140955
335352 9 18341899589558098934
34797466 226 17846787282507887165
34934 24 18334010618496932586
3545911 37 18413672409630706609
4073 2 18260553363078317314
465052 167 7853576816394412904
5104073 3 17314216766083886776
58260988 393 15213294197141038668
59755656 215 18260270720492623574
59755656 520 18342171198124889086
633830 44 18271522096157467436
7226269 152 15574429921387984805

>  <PUBCHEM_SHAPE_MULTIPOLES>  (1) 
503.41
16.07
2.18
1.25
2.57
1.02
-0.63
-8.36
0.35
-1.72
0.41
0.88
0
-0.3

>  <PUBCHEM_SHAPE_SELFOVERLAP>  (1) 
1085.754

>  <PUBCHEM_SHAPE_VOLUME>  (1) 
277.8

>  <PUBCHEM_COORDINATE_TYPE>  (1) 
2
5
10

$$$$
