2712
     RDKit          3D

 21 23  0  0  1  0  0  0  0  0999 V2000
   -0.1822   -4.5411   -0.5106 Cl  0  0  0  0  0  0  0  0  0  0  0  0
   -0.8798    2.8392    0.8228 O   0  0  0  0  0  0  0  0  0  0  0  0
    0.0631    1.8251    0.6506 N   0  0  0  0  0  0  0  0  0  0  0  0
    2.7934    0.4139    0.3305 N   0  0  0  0  0  0  0  0  0  0  0  0
    2.7952    2.3484   -0.9232 N   0  0  0  0  0  0  0  0  0  0  0  0
   -0.3358    0.5421    0.2764 C   0  0  0  0  0  0  0  0  0  0  0  0
    0.4297   -0.5779    0.1376 C   0  0  0  0  0  0  0  0  0  0  0  0
    1.3804    2.2514    1.0556 C   0  0  0  0  0  0  0  0  0  0  0  0
    1.9452   -0.5683    0.3656 C   0  0  0  0  0  0  0  0  0  0  0  0
   -1.8018    0.4361    0.0236 C   0  0  0  0  0  0  0  0  0  0  0  0
    2.3604    1.6787    0.0911 C   0  0  0  0  0  0  0  0  0  0  0  0
   -0.1429   -1.8851   -0.2223 C   0  0  0  0  0  0  0  0  0  0  0  0
    2.5594   -1.9097    0.6311 C   0  0  0  0  0  0  0  0  0  0  0  0
   -2.6532    0.1196    1.0720 C   0  0  0  0  0  0  0  0  0  0  0  0
   -2.2908    0.6557   -1.2558 C   0  0  0  0  0  0  0  0  0  0  0  0
    0.5417   -3.0296   -0.0962 C   0  0  0  0  0  0  0  0  0  0  0  0
    1.8856   -3.0419    0.4094 C   0  0  0  0  0  0  0  0  0  0  0  0
   -4.0243    0.0203    0.8357 C   0  0  0  0  0  0  0  0  0  0  0  0
   -3.6620    0.5564   -1.4919 C   0  0  0  0  0  0  0  0  0  0  0  0
   -4.5287    0.2387   -0.4461 C   0  0  0  0  0  0  0  0  0  0  0  0
    3.7472    1.6281   -1.7559 C   0  0  0  0  0  0  0  0  0  0  0  0
  1 16  1  0
  2  3  1  0
  3  6  1  0
  3  8  1  0
  4  9  2  0
  4 11  1  0
  5 11  2  0
  5 21  1  0
  6  7  2  0
  6 10  1  0
  7  9  1  0
  7 12  1  0
  8 11  1  0
  9 13  1  0
 10 14  2  0
 10 15  1  0
 12 16  2  0
 13 17  2  0
 14 18  1  0
 15 19  2  0
 16 17  1  0
 18 20  2  0
 19 20  1  0
M  END
>  <PUBCHEM_COMPOUND_CID>  (1) 
2712

>  <PUBCHEM_CONFORMER_RMSD>  (1) 
0.6

>  <PUBCHEM_CONFORMER_DIVERSEORDER>  (1) 
1
2

>  <PUBCHEM_MMFF94_PARTIAL_CHARGES>  (1) 
30
1 -0.14
10 0.03
11 0.6
12 -0.15
13 -0.14
14 -0.15
15 -0.15
16 0.14
17 -0.15
18 -0.15
19 -0.15
2 -0.38
20 -0.15
21 0.25
24 0.15
25 0.15
26 0.15
27 0.15
28 0.15
29 0.15
3 -0.49
30 0.15
31 0.4
32 0.15
4 -0.66
5 -0.7
6 0.07
7 0.01
8 0.43
9 0.42

>  <PUBCHEM_EFFECTIVE_ROTOR_COUNT>  (1) 
1.4

>  <PUBCHEM_PHARMACOPHORE_FEATURES>  (1) 
6
1 2 anion
1 4 acceptor
3 4 5 11 cation
6 10 14 15 18 19 20 rings
6 7 9 12 13 16 17 rings
7 3 4 6 7 8 9 11 rings

>  <PUBCHEM_HEAVY_ATOM_COUNT>  (1) 
21

>  <PUBCHEM_ATOM_DEF_STEREO_COUNT>  (1) 
0

>  <PUBCHEM_ATOM_UDEF_STEREO_COUNT>  (1) 
0

>  <PUBCHEM_BOND_DEF_STEREO_COUNT>  (1) 
0

>  <PUBCHEM_BOND_UDEF_STEREO_COUNT>  (1) 
0

>  <PUBCHEM_ISOTOPIC_ATOM_COUNT>  (1) 
0

>  <PUBCHEM_COMPONENT_COUNT>  (1) 
1

>  <PUBCHEM_CACTVS_TAUTO_COUNT>  (1) 
1

>  <PUBCHEM_CONFORMER_ID>  (1) 
00000A9800000001

>  <PUBCHEM_MMFF94_ENERGY>  (1) 
79.1326

>  <PUBCHEM_FEATURE_SELFOVERLAP>  (1) 
30.455

>  <PUBCHEM_SHAPE_FINGERPRINT>  (1) 
10064457 181 18196945589309534257
10165383 225 18263375848176469157
10967382 1 18412539903352233618
1100329 8 18339915000575909354
11582403 64 16597245167039629381
12553582 1 17981048505426156283
12730499 353 18336828684553362609
13140716 1 18339632442913999466
13149001 5 17912098444712331692
13583140 156 16734083726579634074
13681431 1 18120653526600211462
13836976 161 18335976523659273414
14790565 3 18340221776751968768
15309172 13 18338519763027133481
16945 1 18339358565549467986
17134986 127 18189338034102871404
17138139 8 17554855005393615423
18186145 218 18200876300276601697
19591789 44 18266746976528423306
20645477 70 18335128757782616119
22112679 90 17417804003258012769
2255824 54 18338798909841568606
23114952 82 18042401344302313893
2334 1 18267578194434035634
23388829 49 18127399056121810658
23419403 2 17320475263968814258
23558518 356 18117848689681123009
23559900 14 18191576472093664627
238 59 18118651466555582591
2748010 2 18267306628115350762
3060560 45 18260553363589870796
3729539 64 18119278124186634974
394222 165 18040713697233450552
458136 41 18337123323035240187
46194498 28 17970330543724968669
58779409 8 18193846074446799070
59682541 52 17979598349164237293
633830 44 17987809625774173745
77492 1 17489298686128970329
81228 2 17255961702354917890
8272917 22 18339927013635943533

>  <PUBCHEM_SHAPE_MULTIPOLES>  (1) 
413.23
6.28
4.23
1.24
4.93
4.55
-0.35
-2.58
-1.47
-3.26
-0.26
0.1
-0.57
-0.74

>  <PUBCHEM_SHAPE_SELFOVERLAP>  (1) 
890.39

>  <PUBCHEM_SHAPE_VOLUME>  (1) 
226.8

>  <PUBCHEM_COORDINATE_TYPE>  (1) 
2
5
10

$$$$
