27129
     RDKit          3D

 13 13  0  0  1  0  0  0  0  0999 V2000
   -4.5392   -0.0992   -0.3510 Cl  0  0  0  0  0  0  0  0  0  0  0  0
    2.0458    1.1038   -0.3335 N   0  0  0  0  0  0  0  0  0  0  0  0
    2.5121   -2.2009    0.4582 N   0  0  0  0  0  0  0  0  0  0  0  0
    1.3834    0.1767    0.5833 C   0  0  0  0  0  0  0  0  0  0  0  0
   -0.1134    0.1080    0.3461 C   0  0  0  0  0  0  0  0  0  0  0  0
   -0.9338    1.0387    0.9555 C   0  0  0  0  0  0  0  0  0  0  0  0
   -0.6189   -0.8845   -0.4725 C   0  0  0  0  0  0  0  0  0  0  0  0
    1.9500    0.6177   -1.7095 C   0  0  0  0  0  0  0  0  0  0  0  0
    3.4458    1.2868    0.0476 C   0  0  0  0  0  0  0  0  0  0  0  0
   -2.3102    0.9744    0.7384 C   0  0  0  0  0  0  0  0  0  0  0  0
   -1.9953   -0.9486   -0.6897 C   0  0  0  0  0  0  0  0  0  0  0  0
    2.0145   -1.1537    0.5112 C   0  0  0  0  0  0  0  0  0  0  0  0
   -2.8409   -0.0192   -0.0842 C   0  0  0  0  0  0  0  0  0  0  0  0
  1 13  1  0
  2  4  1  0
  2  8  1  0
  2  9  1  0
  3 12  3  0
  4  5  1  0
  4 12  1  0
  5  6  2  0
  5  7  1  0
  6 10  1  0
  7 11  2  0
 10 13  2  0
 11 13  1  0
M  END
>  <PUBCHEM_COMPOUND_CID>  (1) 
27129

>  <PUBCHEM_CONFORMER_RMSD>  (1) 
0.6

>  <PUBCHEM_CONFORMER_DIVERSEORDER>  (1) 
1
3
2

>  <PUBCHEM_MMFF94_PARTIAL_CHARGES>  (1) 
17
1 -0.18
10 -0.15
11 -0.15
12 0.36
13 0.18
15 0.15
16 0.15
2 -0.81
23 0.15
24 0.15
3 -0.56
4 0.61
5 -0.14
6 -0.15
7 -0.15
8 0.27
9 0.27

>  <PUBCHEM_EFFECTIVE_ROTOR_COUNT>  (1) 
2

>  <PUBCHEM_PHARMACOPHORE_FEATURES>  (1) 
3
1 2 cation
1 3 acceptor
6 5 6 7 10 11 13 rings

>  <PUBCHEM_HEAVY_ATOM_COUNT>  (1) 
13

>  <PUBCHEM_ATOM_DEF_STEREO_COUNT>  (1) 
0

>  <PUBCHEM_ATOM_UDEF_STEREO_COUNT>  (1) 
1

>  <PUBCHEM_BOND_DEF_STEREO_COUNT>  (1) 
0

>  <PUBCHEM_BOND_UDEF_STEREO_COUNT>  (1) 
0

>  <PUBCHEM_ISOTOPIC_ATOM_COUNT>  (1) 
0

>  <PUBCHEM_COMPONENT_COUNT>  (1) 
1

>  <PUBCHEM_CACTVS_TAUTO_COUNT>  (1) 
1

>  <PUBCHEM_CONFORMER_ID>  (1) 
000069F900000001

>  <PUBCHEM_MMFF94_ENERGY>  (1) 
38.1942

>  <PUBCHEM_FEATURE_SELFOVERLAP>  (1) 
15.223

>  <PUBCHEM_SHAPE_FINGERPRINT>  (1) 
11031198 65 18040725800113355164
12326174 3 17458615697358811490
12932764 1 18341624689153159257
13538477 17 18343294907476954655
13760787 5 18342453730201124071
15279307 12 18411698828623498230
15669948 3 17774995830149880479
15775835 57 18411702105582999973
16945 1 18336275642409186649
18186145 218 17095799928567553361
18522853 295 17846781789002349639
18619055 16 18340760481777416753
19026448 4 17531246145782082755
19422 9 18412263905023126451
19786989 88 17023470866293990822
20279233 1 16153427246684131377
20559304 39 18343579612221391346
20645476 183 18338800125670624783
20645477 70 18335696109919675983
23402539 116 17846210107206426916
23463225 33 18271240513316171747
23552423 10 18338794524679914027
23559900 14 17632017550472741452
23598291 2 18195540202684531104
2748010 2 16398329945530468081
3248919 1 17676494955567541793
3312278 4 18269273628748027315
5084963 1 18336542703522884379
53812653 8 18131074826936658329
7364860 26 18272088280015631634
8030462 33 18411428305707436137

>  <PUBCHEM_SHAPE_MULTIPOLES>  (1) 
259.44
6.2
1.54
1.1
3.54
0.5
-0.32
-0.42
-0.68
-1.12
0.25
-0.39
-0.12
-0.81

>  <PUBCHEM_SHAPE_SELFOVERLAP>  (1) 
525.484

>  <PUBCHEM_SHAPE_VOLUME>  (1) 
152.1

>  <PUBCHEM_COORDINATE_TYPE>  (1) 
2
5
10

$$$$
