27126
     RDKit          3D

  7  6  0  0  0  0  0  0  0  0999 V2000
    1.2491    1.5216   -0.7669 Cl  0  0  0  0  0  0  0  0  0  0  0  0
    1.2761   -1.3797   -0.9983 Cl  0  0  0  0  0  0  0  0  0  0  0  0
   -3.2239   -0.0421    0.2397 Cl  0  0  0  0  0  0  0  0  0  0  0  0
   -0.5296   -0.0645    0.6038 C   0  0  0  0  0  0  0  0  0  0  0  0
    0.9304   -0.0113    0.1100 C   0  0  0  0  0  0  0  0  0  0  0  0
   -1.5974    0.0728   -0.4821 C   0  0  0  0  0  0  0  0  0  0  0  0
    1.8953   -0.0967    1.2937 C   0  0  0  0  0  0  0  0  0  0  0  0
  1  5  1  0
  2  5  1  0
  3  6  1  0
  4  5  1  0
  4  6  1  0
  5  7  1  0
M  END
>  <PUBCHEM_COMPOUND_CID>  (1) 
27126

>  <PUBCHEM_CONFORMER_RMSD>  (1) 
0.4

>  <PUBCHEM_CONFORMER_DIVERSEORDER>  (1) 
1
7
4
3
8
5
2
6

>  <PUBCHEM_MMFF94_PARTIAL_CHARGES>  (1) 
5
1 -0.29
2 -0.29
3 -0.29
5 0.58
6 0.29

>  <PUBCHEM_EFFECTIVE_ROTOR_COUNT>  (1) 
2

>  <PUBCHEM_PHARMACOPHORE_FEATURES>  (1) 
0

>  <PUBCHEM_HEAVY_ATOM_COUNT>  (1) 
7

>  <PUBCHEM_ATOM_DEF_STEREO_COUNT>  (1) 
0

>  <PUBCHEM_ATOM_UDEF_STEREO_COUNT>  (1) 
0

>  <PUBCHEM_BOND_DEF_STEREO_COUNT>  (1) 
0

>  <PUBCHEM_BOND_UDEF_STEREO_COUNT>  (1) 
0

>  <PUBCHEM_ISOTOPIC_ATOM_COUNT>  (1) 
0

>  <PUBCHEM_COMPONENT_COUNT>  (1) 
1

>  <PUBCHEM_CACTVS_TAUTO_COUNT>  (1) 
1

>  <PUBCHEM_CONFORMER_ID>  (1) 
000069F600000001

>  <PUBCHEM_MMFF94_ENERGY>  (1) 
7.8055

>  <PUBCHEM_FEATURE_SELFOVERLAP>  (1) 
0

>  <PUBCHEM_SHAPE_FINGERPRINT>  (1) 
12932764 1 17312829277536743011
21040471 1 17845648290987059070
23235687 12 18334851753624137695
23552333 60 15913330173729063795
23552449 11 18040431101000866281
24536 1 18411989056785204033
29004967 10 18343017770406397099
3248919 1 18412545423070744699
5943 1 16691669941405733020

>  <PUBCHEM_SHAPE_MULTIPOLES>  (1) 
149.67
3.67
1.27
1.19
3.91
0.08
-0.14
-0.05
-0.43
-0.81
0.54
-0.64
-0.05
0.02

>  <PUBCHEM_SHAPE_SELFOVERLAP>  (1) 
242.848

>  <PUBCHEM_SHAPE_VOLUME>  (1) 
104.5

>  <PUBCHEM_COORDINATE_TYPE>  (1) 
2
5
10

$$$$
