27133
     RDKit          3D

 12 13  0  0  0  0  0  0  0  0999 V2000
    0.7862    1.8491   -0.2958 O   0  0  0  0  0  0  0  0  0  0  0  0
    1.4692   -0.2628    0.3753 N   0  0  0  0  0  0  0  0  0  0  0  0
    2.8814    0.0351    0.4543 C   0  0  0  0  0  0  0  0  0  0  0  0
    3.7364   -0.0331   -0.7630 C   0  0  0  0  0  0  0  0  0  0  0  0
    3.8890   -1.0541    0.3261 C   0  0  0  0  0  0  0  0  0  0  0  0
    0.5005    0.6754    0.0006 C   0  0  0  0  0  0  0  0  0  0  0  0
   -0.8835    0.2281   -0.0071 C   0  0  0  0  0  0  0  0  0  0  0  0
   -1.9152    1.1459    0.1907 C   0  0  0  0  0  0  0  0  0  0  0  0
   -1.1787   -1.1192   -0.2139 C   0  0  0  0  0  0  0  0  0  0  0  0
   -3.2421    0.7161    0.1814 C   0  0  0  0  0  0  0  0  0  0  0  0
   -2.5057   -1.5490   -0.2231 C   0  0  0  0  0  0  0  0  0  0  0  0
   -3.5375   -0.6314   -0.0255 C   0  0  0  0  0  0  0  0  0  0  0  0
  1  6  2  0
  2  3  1  0
  2  6  1  0
  3  4  1  0
  3  5  1  0
  4  5  1  0
  6  7  1  0
  7  8  2  0
  7  9  1  0
  8 10  1  0
  9 11  2  0
 10 12  2  0
 11 12  1  0
M  END
>  <PUBCHEM_COMPOUND_CID>  (1) 
27133

>  <PUBCHEM_CONFORMER_RMSD>  (1) 
0.6

>  <PUBCHEM_CONFORMER_DIVERSEORDER>  (1) 
1
3
2
4

>  <PUBCHEM_MMFF94_PARTIAL_CHARGES>  (1) 
23
1 -0.57
10 -0.15
11 -0.15
12 -0.15
13 0.1
14 0.1
15 0.1
16 0.1
17 0.1
18 0.37
19 0.15
2 -0.58
20 0.15
21 0.15
22 0.15
23 0.15
3 0.05
4 -0.2
5 -0.2
6 0.54
7 0.09
8 -0.15
9 -0.15

>  <PUBCHEM_EFFECTIVE_ROTOR_COUNT>  (1) 
3.6

>  <PUBCHEM_PHARMACOPHORE_FEATURES>  (1) 
3
1 1 acceptor
1 2 donor
6 7 8 9 10 11 12 rings

>  <PUBCHEM_HEAVY_ATOM_COUNT>  (1) 
12

>  <PUBCHEM_ATOM_DEF_STEREO_COUNT>  (1) 
0

>  <PUBCHEM_ATOM_UDEF_STEREO_COUNT>  (1) 
0

>  <PUBCHEM_BOND_DEF_STEREO_COUNT>  (1) 
0

>  <PUBCHEM_BOND_UDEF_STEREO_COUNT>  (1) 
0

>  <PUBCHEM_ISOTOPIC_ATOM_COUNT>  (1) 
0

>  <PUBCHEM_COMPONENT_COUNT>  (1) 
1

>  <PUBCHEM_CACTVS_TAUTO_COUNT>  (1) 
2

>  <PUBCHEM_CONFORMER_ID>  (1) 
000069FD00000001

>  <PUBCHEM_MMFF94_ENERGY>  (1) 
31.0434

>  <PUBCHEM_FEATURE_SELFOVERLAP>  (1) 
15.223

>  <PUBCHEM_SHAPE_FINGERPRINT>  (1) 
10219947 1 14117517640666565568
10465860 71 18339380620612793172
10751810 167 18333740117013573662
11769659 78 18341325690598903119
12032990 46 18411985762397737778
124424 183 16845570894263522361
12932764 1 17749095695380299480
13024252 1 15719111349477975681
13296908 3 18342452668822001520
13690532 89 18410570695670849535
14144814 61 18410009931423122418
14325111 11 18412261739937570408
14577589 140 17846495932947942303
14965852 173 18340486759216733875
14993402 34 18335699433907332445
15375462 189 18186518778550782258
15536298 74 18270119140452766504
17804303 29 18272936024422590577
18186145 218 15574717984701888104
18511873 20 18411702084387582505
190213 19 18040152916021838938
19422 9 18261115162280747890
20279233 1 17418373580340645086
20281407 28 18342176669923422514
20281475 54 18334574659308528866
22485316 2 18410006629015303818
23402539 116 17774995774906220645
23463225 33 18336826394829657918
23552423 10 18118120505392045701
23559900 14 18201715137939117320
57812782 119 17275383205075231987
7364860 26 18126847329129482520

>  <PUBCHEM_SHAPE_MULTIPOLES>  (1) 
236.1
7.12
1.47
0.71
3.96
0.07
-0.03
-1.72
-0.03
-0.58
-0.08
0.27
-0.01
-0.3

>  <PUBCHEM_SHAPE_SELFOVERLAP>  (1) 
492.631

>  <PUBCHEM_SHAPE_VOLUME>  (1) 
134.3

>  <PUBCHEM_COORDINATE_TYPE>  (1) 
2
5
10

$$$$
