27130
     RDKit          3D

 18 18  0  0  1  0  0  0  0  0999 V2000
   -4.2741    2.0129    0.0142 F   0  0  0  0  0  0  0  0  0  0  0  0
    3.0919    1.8133   -0.0731 N   0  0  0  0  0  0  0  0  0  0  0  0
    1.0846   -2.0193    2.3545 N   0  0  0  0  0  0  0  0  0  0  0  0
    0.4466   -1.0370   -0.0255 C   0  0  0  0  0  0  0  0  0  0  0  0
    0.2691   -2.2510   -1.0335 C   0  0  0  0  0  0  0  0  0  0  0  0
    1.6516   -0.1354   -0.4768 C   0  0  0  0  0  0  0  0  0  0  0  0
   -0.8529   -0.1977   -0.0145 C   0  0  0  0  0  0  0  0  0  0  0  0
    1.9547    1.0578    0.4458 C   0  0  0  0  0  0  0  0  0  0  0  0
   -0.8774   -3.2027   -0.6422 C   0  0  0  0  0  0  0  0  0  0  0  0
    1.5429   -3.0876   -1.2468 C   0  0  0  0  0  0  0  0  0  0  0  0
    0.7969   -1.5866    1.3162 C   0  0  0  0  0  0  0  0  0  0  0  0
   -1.5144   -0.0548    1.1741 C   0  0  0  0  0  0  0  0  0  0  0  0
   -1.2692    0.3557   -1.1940 C   0  0  0  0  0  0  0  0  0  0  0  0
    3.4178    2.9267    0.8184 C   0  0  0  0  0  0  0  0  0  0  0  0
    2.8085    2.3059   -1.4213 C   0  0  0  0  0  0  0  0  0  0  0  0
   -2.6862    0.7019    1.1839 C   0  0  0  0  0  0  0  0  0  0  0  0
   -2.4409    1.1125   -1.1842 C   0  0  0  0  0  0  0  0  0  0  0  0
   -3.1494    1.2854    0.0048 C   0  0  0  0  0  0  0  0  0  0  0  0
  1 18  1  0
  2  8  1  0
  2 14  1  0
  2 15  1  0
  3 11  3  0
  4  5  1  0
  4  6  1  0
  4  7  1  0
  4 11  1  0
  5  9  1  0
  5 10  1  0
  6  8  1  0
  7 12  2  0
  7 13  1  0
 12 16  1  0
 13 17  2  0
 16 18  2  0
 17 18  1  0
M  END
>  <PUBCHEM_COMPOUND_CID>  (1) 
27130

>  <PUBCHEM_CONFORMER_RMSD>  (1) 
0.6

>  <PUBCHEM_CONFORMER_DIVERSEORDER>  (1) 
1
37
6
32
36
23
24
35
9
13
30
27
34
19
17
16
21
12
15
29
26
5
31
8
22
33
3
4
28
7
25
14
18
11
2
20
10

>  <PUBCHEM_MMFF94_PARTIAL_CHARGES>  (1) 
18
1 -0.19
11 0.36
12 -0.15
13 -0.15
14 0.27
15 0.27
16 -0.15
17 -0.15
18 0.19
2 -0.81
3 -0.56
30 0.15
31 0.15
38 0.15
39 0.15
4 0.34
7 -0.14
8 0.27

>  <PUBCHEM_EFFECTIVE_ROTOR_COUNT>  (1) 
5

>  <PUBCHEM_PHARMACOPHORE_FEATURES>  (1) 
4
1 2 cation
1 3 acceptor
3 5 9 10 hydrophobe
6 7 12 13 16 17 18 rings

>  <PUBCHEM_HEAVY_ATOM_COUNT>  (1) 
18

>  <PUBCHEM_ATOM_DEF_STEREO_COUNT>  (1) 
0

>  <PUBCHEM_ATOM_UDEF_STEREO_COUNT>  (1) 
1

>  <PUBCHEM_BOND_DEF_STEREO_COUNT>  (1) 
0

>  <PUBCHEM_BOND_UDEF_STEREO_COUNT>  (1) 
0

>  <PUBCHEM_ISOTOPIC_ATOM_COUNT>  (1) 
0

>  <PUBCHEM_COMPONENT_COUNT>  (1) 
1

>  <PUBCHEM_CACTVS_TAUTO_COUNT>  (1) 
1

>  <PUBCHEM_CONFORMER_ID>  (1) 
000069FA00000001

>  <PUBCHEM_MMFF94_ENERGY>  (1) 
53.3864

>  <PUBCHEM_FEATURE_SELFOVERLAP>  (1) 
20.297

>  <PUBCHEM_SHAPE_FINGERPRINT>  (1) 
12173636 292 18199187480248799317
12326174 3 18118965789062708706
12788726 201 17541941331144658476
13134695 92 17465351163413664358
13681431 1 17978798904471592142
13911987 19 17762659150920956238
14142880 1 18046331200596944893
14817 1 15954382338869992130
15906896 17 17973450093987939010
16945 1 18126024688104267958
17134986 127 18413392037975521772
1813 80 16982105864494436470
19786989 88 18338223857176410709
21296965 12 18335140950577545564
21330990 113 17625845007451947651
21524375 3 18335699498353161640
21731228 192 18187642569819001984
2255824 54 17984984800045140847
23419403 2 17398452615641506890
23557571 272 17264693998445049148
23558518 356 18190456263224620106
23559900 14 18126284134889783279
3060560 45 18197776596419117927
31174 14 17824260393635952337
3286 77 17244419695533924809
350125 39 18269285714923297838
430814 3 18341613741223252468
5845 1 8551752199816237158
7364860 26 18197220247777455301
81228 2 17686900935565934368

>  <PUBCHEM_SHAPE_MULTIPOLES>  (1) 
353.2
5.15
3.81
1.63
0.31
2.2
-0.5
-6.69
0.08
1.16
0.69
0.26
0.52
-0.04

>  <PUBCHEM_SHAPE_SELFOVERLAP>  (1) 
716.976

>  <PUBCHEM_SHAPE_VOLUME>  (1) 
207.4

>  <PUBCHEM_COORDINATE_TYPE>  (1) 
2
5
10

$$$$
