2713
     RDKit          3D

 34 35  0  0  0  0  0  0  0  0999 V2000
   -7.0962    5.5960    0.4022 Cl  0  0  0  0  0  0  0  0  0  0  0  0
    7.1659    5.5609   -0.3987 Cl  0  0  0  0  0  0  0  0  0  0  0  0
   -3.2666   -2.2017    1.2079 N   0  0  0  0  0  0  0  0  0  0  0  0
    3.2431   -2.1892   -1.2146 N   0  0  0  0  0  0  0  0  0  0  0  0
   -5.0751   -0.9586    0.7377 N   0  0  0  0  0  0  0  0  0  0  0  0
    5.0649   -0.9683   -0.7377 N   0  0  0  0  0  0  0  0  0  0  0  0
   -5.4037   -2.9330    2.0029 N   0  0  0  0  0  0  0  0  0  0  0  0
    5.3743   -2.9477   -2.0000 N   0  0  0  0  0  0  0  0  0  0  0  0
   -6.0070    0.0103   -1.2350 N   0  0  0  0  0  0  0  0  0  0  0  0
    6.0004   -0.0095    1.2381 N   0  0  0  0  0  0  0  0  0  0  0  0
   -5.3675   -2.1704   -1.3004 N   0  0  0  0  0  0  0  0  0  0  0  0
    5.3335   -2.1819    1.3025 N   0  0  0  0  0  0  0  0  0  0  0  0
   -0.7759   -3.3529    0.0985 C   0  0  0  0  0  0  0  0  0  0  0  0
    0.7407   -3.3389   -0.1070 C   0  0  0  0  0  0  0  0  0  0  0  0
   -1.1339   -3.3438    1.5876 C   0  0  0  0  0  0  0  0  0  0  0  0
    1.0991   -3.3075   -1.5956 C   0  0  0  0  0  0  0  0  0  0  0  0
   -2.6399   -3.3714    1.8260 C   0  0  0  0  0  0  0  0  0  0  0  0
    2.6045   -3.3515   -1.8345 C   0  0  0  0  0  0  0  0  0  0  0  0
   -4.5471   -2.0857    1.3344 C   0  0  0  0  0  0  0  0  0  0  0  0
    4.5254   -2.0891   -1.3358 C   0  0  0  0  0  0  0  0  0  0  0  0
   -5.4628   -1.0399   -0.5092 C   0  0  0  0  0  0  0  0  0  0  0  0
    5.4462   -1.0533    0.5108 C   0  0  0  0  0  0  0  0  0  0  0  0
   -6.2650    1.3418   -0.8447 C   0  0  0  0  0  0  0  0  0  0  0  0
    6.2766    1.3184    0.8480 C   0  0  0  0  0  0  0  0  0  0  0  0
   -6.5908    1.6289    0.4807 C   0  0  0  0  0  0  0  0  0  0  0  0
    6.6115    1.6004   -0.4763 C   0  0  0  0  0  0  0  0  0  0  0  0
   -6.1959    2.3703   -1.7846 C   0  0  0  0  0  0  0  0  0  0  0  0
    6.2164    2.3485    1.7866 C   0  0  0  0  0  0  0  0  0  0  0  0
   -6.8474    2.9445    0.8666 C   0  0  0  0  0  0  0  0  0  0  0  0
    6.8862    2.9125   -0.8621 C   0  0  0  0  0  0  0  0  0  0  0  0
   -6.4526    3.6859   -1.3988 C   0  0  0  0  0  0  0  0  0  0  0  0
    6.4911    3.6604    1.4010 C   0  0  0  0  0  0  0  0  0  0  0  0
   -6.7784    3.9730   -0.0732 C   0  0  0  0  0  0  0  0  0  0  0  0
    6.8259    3.9424    0.0766 C   0  0  0  0  0  0  0  0  0  0  0  0
  1 33  1  0
  2 34  1  0
  3 17  1  0
  3 19  2  0
  4 18  1  0
  4 20  2  0
  5 19  1  0
  5 21  2  0
  6 20  1  0
  6 22  2  0
  7 19  1  0
  8 20  1  0
  9 21  1  0
  9 23  1  0
 10 22  1  0
 10 24  1  0
 11 21  1  0
 12 22  1  0
 13 14  1  0
 13 15  1  0
 14 16  1  0
 15 17  1  0
 16 18  1  0
 23 25  2  0
 23 27  1  0
 24 26  2  0
 24 28  1  0
 25 29  1  0
 26 30  1  0
 27 31  2  0
 28 32  2  0
 29 33  2  0
 30 34  2  0
 31 33  1  0
 32 34  1  0
M  END
>  <PUBCHEM_COMPOUND_CID>  (1) 
2713

>  <PUBCHEM_CONFORMER_RMSD>  (1) 
1.2

>  <PUBCHEM_CONFORMER_DIVERSEORDER>  (1) 
1
72
122
54
86
42
95
24
146
41
5
106
127
28
22
117
70
141
108
52
83
18
75
80
51
105
62
3
21
119
134
31
35
7
102
114
25
10
109
84
137
14
58
19
91
4
99
59
135
46
101
112
147
110
113
8
96
13
64
39
67
140
60
11
30
144
55
50
57
139
82
56
12
131
103
48
133
61
76
123
142
9
148
136
138
93
90
49
125
145
115
43
44
78
120
92
89
65
111
69
74
129
94
73
66
121
77
100
126
71
98
37
27
88
132
81
68
124
38
45
143
47
118
34
23
32
29
128
36
85
87
53
2
20
104
116
17
40
107
63
130
15
97
26
33
6
79
16

>  <PUBCHEM_MMFF94_PARTIAL_CHARGES>  (1) 
48
1 -0.18
10 -0.55
11 -0.85
12 -0.85
17 0.25
18 0.25
19 0.71
2 -0.18
20 0.71
21 0.55
22 0.55
23 0.1
24 0.1
25 -0.15
26 -0.15
27 -0.15
28 -0.15
29 -0.15
3 -0.7
30 -0.15
31 -0.15
32 -0.15
33 0.18
34 0.18
4 -0.7
47 0.4
48 0.4
49 0.4
5 -0.66
50 0.4
51 0.4
52 0.4
53 0.15
54 0.15
55 0.15
56 0.15
57 0.15
58 0.15
59 0.15
6 -0.66
60 0.15
61 0.4
62 0.4
63 0.4
64 0.4
7 -0.85
8 -0.85
9 -0.55

>  <PUBCHEM_EFFECTIVE_ROTOR_COUNT>  (1) 
13

>  <PUBCHEM_PHARMACOPHORE_FEATURES>  (1) 
13
1 10 donor
1 11 donor
1 12 donor
1 7 donor
1 8 donor
1 9 donor
4 13 14 15 16 hydrophobe
4 3 5 7 19 cation
4 4 6 8 20 cation
4 5 9 11 21 cation
4 6 10 12 22 cation
6 23 25 27 29 31 33 rings
6 24 26 28 30 32 34 rings

>  <PUBCHEM_HEAVY_ATOM_COUNT>  (1) 
34

>  <PUBCHEM_ATOM_DEF_STEREO_COUNT>  (1) 
0

>  <PUBCHEM_ATOM_UDEF_STEREO_COUNT>  (1) 
0

>  <PUBCHEM_BOND_DEF_STEREO_COUNT>  (1) 
0

>  <PUBCHEM_BOND_UDEF_STEREO_COUNT>  (1) 
2

>  <PUBCHEM_ISOTOPIC_ATOM_COUNT>  (1) 
0

>  <PUBCHEM_COMPONENT_COUNT>  (1) 
1

>  <PUBCHEM_CACTVS_TAUTO_COUNT>  (1) 
36

>  <PUBCHEM_CONFORMER_ID>  (1) 
00000A9900000001

>  <PUBCHEM_MMFF94_ENERGY>  (1) 
107.0893

>  <PUBCHEM_FEATURE_SELFOVERLAP>  (1) 
66.178

>  <PUBCHEM_SHAPE_FINGERPRINT>  (1) 
11476731 99 18341608153540197497
12013929 29 18337105670608767176
12975358 362 18337689605709652016
14428016 30 18408884070213391374
15705408 1 14620499139130675523
15950262 2 18410853261111012482
16989378 47 14476662119032883019
21647283 7 18334291007205496754
3525247 18 18410856563951821872
44880568 143 18343022164406192151
636783 231 18268998763779226368
636783 253 18412258454873865901

>  <PUBCHEM_SHAPE_MULTIPOLES>  (1) 
653.63
30.18
9.08
1.98
0.72
7.96
0
42.4
0.07
-0.21
0.01
0
-1.38
5.12

>  <PUBCHEM_SHAPE_SELFOVERLAP>  (1) 
1327.674

>  <PUBCHEM_SHAPE_VOLUME>  (1) 
378.2

>  <PUBCHEM_COORDINATE_TYPE>  (1) 
2
5
10

$$$$
