27132
     RDKit          3D

 12 13  0  0  0  0  0  0  0  0999 V2000
   -2.4534   -1.2089    0.0001 S   0  0  0  0  0  0  0  0  0  0  0  0
    3.2539    0.2286    0.0007 O   0  0  0  0  0  0  0  0  0  0  0  0
   -3.8359    1.0565    0.0008 O   0  0  0  0  0  0  0  0  0  0  0  0
   -1.4988    1.2004   -0.0004 N   0  0  0  0  0  0  0  0  0  0  0  0
   -0.3760    0.3667   -0.0005 C   0  0  0  0  0  0  0  0  0  0  0  0
   -0.6950   -0.9889   -0.0001 C   0  0  0  0  0  0  0  0  0  0  0  0
    0.9381    0.8038   -0.0007 C   0  0  0  0  0  0  0  0  0  0  0  0
    1.9480   -0.1601   -0.0003 C   0  0  0  0  0  0  0  0  0  0  0  0
    0.2992   -1.9522    0.0001 C   0  0  0  0  0  0  0  0  0  0  0  0
    1.6309   -1.5284    0.0000 C   0  0  0  0  0  0  0  0  0  0  0  0
   -2.7235    0.5514   -0.0001 C   0  0  0  0  0  0  0  0  0  0  0  0
    3.5124    1.6311    0.0003 C   0  0  0  0  0  0  0  0  0  0  0  0
  1  6  1  0
  1 11  1  0
  2  8  1  0
  2 12  1  0
  3 11  2  0
  4  5  1  0
  4 11  1  0
  5  6  2  0
  5  7  1  0
  6  9  1  0
  7  8  2  0
  8 10  1  0
  9 10  2  0
M  END
>  <PUBCHEM_COMPOUND_CID>  (1) 
27132

>  <PUBCHEM_CONFORMER_RMSD>  (1) 
0.4

>  <PUBCHEM_CONFORMER_DIVERSEORDER>  (1) 
1
2

>  <PUBCHEM_MMFF94_PARTIAL_CHARGES>  (1) 
16
1 -0.24
10 -0.15
11 0.77
12 0.28
13 0.15
14 0.15
15 0.37
16 0.15
2 -0.36
3 -0.57
4 -0.55
5 0.12
6 0.1
7 -0.15
8 0.08
9 -0.15

>  <PUBCHEM_EFFECTIVE_ROTOR_COUNT>  (1) 
1

>  <PUBCHEM_PHARMACOPHORE_FEATURES>  (1) 
4
1 2 acceptor
1 4 donor
5 1 4 5 6 11 rings
6 5 6 7 8 9 10 rings

>  <PUBCHEM_HEAVY_ATOM_COUNT>  (1) 
12

>  <PUBCHEM_ATOM_DEF_STEREO_COUNT>  (1) 
0

>  <PUBCHEM_ATOM_UDEF_STEREO_COUNT>  (1) 
0

>  <PUBCHEM_BOND_DEF_STEREO_COUNT>  (1) 
0

>  <PUBCHEM_BOND_UDEF_STEREO_COUNT>  (1) 
0

>  <PUBCHEM_ISOTOPIC_ATOM_COUNT>  (1) 
0

>  <PUBCHEM_COMPONENT_COUNT>  (1) 
1

>  <PUBCHEM_CACTVS_TAUTO_COUNT>  (1) 
2

>  <PUBCHEM_CONFORMER_ID>  (1) 
000069FC00000001

>  <PUBCHEM_MMFF94_ENERGY>  (1) 
35.0516

>  <PUBCHEM_FEATURE_SELFOVERLAP>  (1) 
20.363

>  <PUBCHEM_SHAPE_FINGERPRINT>  (1) 
10608611 8 18336544915447203757
11132069 177 18411132558733846408
11471102 20 18338793399735793773
11543360 7 15625935499423630832
12932764 1 17531242799375058487
13380535 21 18412272717926940803
13380535 76 18410008836196237106
13897977 150 18410571786260233357
14325111 11 18410574002405238304
14897335 6 18411413999361257711
15219456 202 18410581668959051347
15775835 57 18412827988325628705
16945 1 18194401082847440647
170605 34 18335421244475212122
18186145 218 18201168706044969680
193761 8 17762338011646108228
20645477 70 18268424625757310911
20871998 184 18055641860713354183
21040471 1 18410855490488591814
21501502 16 18410567383892654011
23235685 24 18409442591981514892
23402539 116 18272643584943135996
23402655 69 18270105830828930725
23463225 33 18334851689241949650
23552423 10 18335983069173887319
23559900 14 18201159936518368772
2748010 2 18410301302020651598
528886 8 18411132537105905739
53812653 166 18342735238778145440
6333449 129 18340203102095911007
7364860 26 18269837510852042934

>  <PUBCHEM_SHAPE_MULTIPOLES>  (1) 
234.08
5.42
1.87
0.6
0.24
0.43
0
-2.64
0
0.14
0
-0.01
0.03
0

>  <PUBCHEM_SHAPE_SELFOVERLAP>  (1) 
492.194

>  <PUBCHEM_SHAPE_VOLUME>  (1) 
134.3

>  <PUBCHEM_COORDINATE_TYPE>  (1) 
2
5
10

$$$$
