27156
     RDKit          3D

 10 10  0  0  0  0  0  0  0  0999 V2000
    0.5625   -2.7263   -0.2258 Cl  0  0  0  0  0  0  0  0  0  0  0  0
    0.5625    2.7263   -0.2256 Cl  0  0  0  0  0  0  0  0  0  0  0  0
    2.5896    0.0000    0.8085 O   0  0  0  0  0  0  0  0  0  0  0  0
    0.4386    0.0000   -0.2061 C   0  0  0  0  0  0  0  0  0  0  0  0
    1.9180    0.0000   -0.4427 C   0  0  0  0  0  0  0  0  0  0  0  0
   -0.2501   -1.2080   -0.0958 C   0  0  0  0  0  0  0  0  0  0  0  0
   -0.2501    1.2080   -0.0961 C   0  0  0  0  0  0  0  0  0  0  0  0
   -1.6275   -1.2079    0.1245 C   0  0  0  0  0  0  0  0  0  0  0  0
   -1.6274    1.2080    0.1242 C   0  0  0  0  0  0  0  0  0  0  0  0
   -2.3161    0.0000    0.2347 C   0  0  0  0  0  0  0  0  0  0  0  0
  1  6  1  0
  2  7  1  0
  3  5  1  0
  4  5  1  0
  4  6  2  0
  4  7  1  0
  6  8  1  0
  7  9  2  0
  8 10  2  0
  9 10  1  0
M  END
>  <PUBCHEM_COMPOUND_CID>  (1) 
27156

>  <PUBCHEM_CONFORMER_RMSD>  (1) 
0.4

>  <PUBCHEM_CONFORMER_DIVERSEORDER>  (1) 
1
2

>  <PUBCHEM_MMFF94_PARTIAL_CHARGES>  (1) 
14
1 -0.18
10 -0.15
13 0.15
14 0.15
15 0.15
16 0.4
2 -0.18
3 -0.68
4 -0.14
5 0.42
6 0.18
7 0.18
8 -0.15
9 -0.15

>  <PUBCHEM_EFFECTIVE_ROTOR_COUNT>  (1) 
1

>  <PUBCHEM_PHARMACOPHORE_FEATURES>  (1) 
3
1 3 acceptor
1 3 donor
6 4 6 7 8 9 10 rings

>  <PUBCHEM_HEAVY_ATOM_COUNT>  (1) 
10

>  <PUBCHEM_ATOM_DEF_STEREO_COUNT>  (1) 
0

>  <PUBCHEM_ATOM_UDEF_STEREO_COUNT>  (1) 
0

>  <PUBCHEM_BOND_DEF_STEREO_COUNT>  (1) 
0

>  <PUBCHEM_BOND_UDEF_STEREO_COUNT>  (1) 
0

>  <PUBCHEM_ISOTOPIC_ATOM_COUNT>  (1) 
0

>  <PUBCHEM_COMPONENT_COUNT>  (1) 
1

>  <PUBCHEM_CACTVS_TAUTO_COUNT>  (1) 
1

>  <PUBCHEM_CONFORMER_ID>  (1) 
00006A1400000001

>  <PUBCHEM_MMFF94_ENERGY>  (1) 
23.9379

>  <PUBCHEM_FEATURE_SELFOVERLAP>  (1) 
15.223

>  <PUBCHEM_SHAPE_FINGERPRINT>  (1) 
12423570 1 10487103375771295133
12524768 44 18123755257618598727
161256 15 17908151983715002759
16945 1 18410863157078788911
18185500 45 18410297986474385735
193761 8 17689719653624262181
21040471 1 18266467503079851357
23552423 10 18045798787760693311
241688 4 17905059049032023049
2748010 2 18050012095259842533
5084963 1 17988092199987698907
54338 74 18050819372807036146
66348 1 18411421665682630770

>  <PUBCHEM_SHAPE_MULTIPOLES>  (1) 
203.67
2.84
2.65
0.71
0
0.18
0.02
0.5
-0.29
0
0.44
0
0.16
0

>  <PUBCHEM_SHAPE_SELFOVERLAP>  (1) 
404.361

>  <PUBCHEM_SHAPE_VOLUME>  (1) 
123

>  <PUBCHEM_COORDINATE_TYPE>  (1) 
2
5
10

$$$$
