27169
     RDKit          3D

 28 31  0  0  1  0  0  0  0  0999 V2000
    1.4804    0.3401    2.1072 S   0  0  0  0  0  0  0  0  0  0  0  0
   -0.2665   -2.5319   -1.5247 O   0  0  0  0  0  0  0  0  0  0  0  0
    5.0498    1.6697   -0.6351 N   0  0  0  0  0  0  0  0  0  0  0  0
   -0.7154   -0.3445    0.4422 C   0  0  0  0  0  0  0  0  0  0  0  0
    0.1635   -2.6790   -0.1609 C   0  0  0  0  0  0  0  0  0  0  0  0
   -0.7286   -1.8596    0.7513 C   0  0  0  0  0  0  0  0  0  0  0  0
    0.1287   -4.1683    0.1354 C   0  0  0  0  0  0  0  0  0  0  0  0
    5.2842    0.9072    0.5976 C   0  0  0  0  0  0  0  0  0  0  0  0
    6.4115   -0.1153    0.3989 C   0  0  0  0  0  0  0  0  0  0  0  0
   -1.6921    0.4252    1.3670 C   0  0  0  0  0  0  0  0  0  0  0  0
    0.5065   -4.7499   -1.2037 C   0  0  0  0  0  0  0  0  0  0  0  0
    0.6943    0.2873    0.4805 C   0  0  0  0  0  0  0  0  0  0  0  0
    3.9899    0.2053    1.0048 C   0  0  0  0  0  0  0  0  0  0  0  0
    7.6914    0.5603   -0.0855 C   0  0  0  0  0  0  0  0  0  0  0  0
   -0.2033   -3.8168   -2.1616 C   0  0  0  0  0  0  0  0  0  0  0  0
    7.4120    1.4165   -1.3159 C   0  0  0  0  0  0  0  0  0  0  0  0
    6.2536    2.3797   -1.0680 C   0  0  0  0  0  0  0  0  0  0  0  0
    3.0127    1.1898    1.6323 C   0  0  0  0  0  0  0  0  0  0  0  0
   -3.1451    0.2876    0.9765 C   0  0  0  0  0  0  0  0  0  0  0  0
   -3.7647    1.1802    0.0867 C   0  0  0  0  0  0  0  0  0  0  0  0
   -3.8609   -0.7706    1.5372 C   0  0  0  0  0  0  0  0  0  0  0  0
   -5.1296    0.9966   -0.2391 C   0  0  0  0  0  0  0  0  0  0  0  0
   -5.2031   -0.9514    1.2165 C   0  0  0  0  0  0  0  0  0  0  0  0
   -3.0597    2.2510   -0.4870 C   0  0  0  0  0  0  0  0  0  0  0  0
   -5.8347   -0.0742    0.3343 C   0  0  0  0  0  0  0  0  0  0  0  0
   -5.7494    1.8891   -1.1289 C   0  0  0  0  0  0  0  0  0  0  0  0
   -3.6916    3.1281   -1.3689 C   0  0  0  0  0  0  0  0  0  0  0  0
   -5.0338    2.9476   -1.6893 C   0  0  0  0  0  0  0  0  0  0  0  0
  1 12  1  0
  1 18  1  0
  2  5  1  0
  2 15  1  0
  3  8  1  0
  3 17  1  0
  4  6  1  0
  4 10  1  0
  4 12  1  0
  5  6  1  0
  5  7  1  0
  7 11  1  0
  8  9  1  0
  8 13  1  0
  9 14  1  0
 10 19  1  0
 11 15  1  0
 13 18  1  0
 14 16  1  0
 16 17  1  0
 19 20  1  0
 19 21  2  0
 20 22  2  0
 20 24  1  0
 21 23  1  0
 22 25  1  0
 22 26  1  0
 23 25  2  0
 24 27  2  0
 26 28  2  0
 27 28  1  0
M  END
>  <PUBCHEM_COMPOUND_CID>  (1) 
27169

>  <PUBCHEM_CONFORMER_RMSD>  (1) 
1.4

>  <PUBCHEM_CONFORMER_DIVERSEORDER>  (1) 
1
15
102
66
82
120
12
5
83
91
27
47
31
140
130
110
79
95
118
114
8
6
35
14
26
117
18
133
65
34
59
41
54
42
3
19
97
76
71
138
55
29
77
125
7
139
67
115
107
53
61
23
37
93
108
50
48
72
20
33
136
43
122
89
100
46
134
9
30
69
64
111
81
80
52
86
112
105
36
32
21
57
68
70
127
85
90
11
40
39
106
22
101
16
88
124
58
94
99
92
98
137
10
119
44
123
17
129
25
13
132
128
84
73
62
4
38
28
24
51
96
103
121
135
141
63
75
49
109
45
60
131
126
116
87
56
78
2
104
113
74

>  <PUBCHEM_MMFF94_PARTIAL_CHARGES>  (1) 
26
1 -0.46
10 0.14
12 0.23
15 0.28
17 0.27
18 0.23
19 -0.14
2 -0.56
21 -0.15
23 -0.15
24 -0.15
25 -0.15
26 -0.15
27 -0.15
28 -0.15
3 -0.9
5 0.28
52 0.36
57 0.15
58 0.15
59 0.15
60 0.15
61 0.15
62 0.15
63 0.15
8 0.27

>  <PUBCHEM_EFFECTIVE_ROTOR_COUNT>  (1) 
11.2

>  <PUBCHEM_PHARMACOPHORE_FEATURES>  (1) 
9
1 2 acceptor
1 3 cation
1 3 donor
3 1 13 18 hydrophobe
4 4 6 10 12 hydrophobe
5 2 5 7 11 15 rings
6 19 20 21 22 23 25 rings
6 20 22 24 26 27 28 rings
6 3 8 9 14 16 17 rings

>  <PUBCHEM_HEAVY_ATOM_COUNT>  (1) 
28

>  <PUBCHEM_ATOM_DEF_STEREO_COUNT>  (1) 
0

>  <PUBCHEM_ATOM_UDEF_STEREO_COUNT>  (1) 
3

>  <PUBCHEM_BOND_DEF_STEREO_COUNT>  (1) 
0

>  <PUBCHEM_BOND_UDEF_STEREO_COUNT>  (1) 
0

>  <PUBCHEM_ISOTOPIC_ATOM_COUNT>  (1) 
0

>  <PUBCHEM_COMPONENT_COUNT>  (1) 
1

>  <PUBCHEM_CACTVS_TAUTO_COUNT>  (1) 
1

>  <PUBCHEM_CONFORMER_ID>  (1) 
00006A2100000001

>  <PUBCHEM_MMFF94_ENERGY>  (1) 
57.9562

>  <PUBCHEM_FEATURE_SELFOVERLAP>  (1) 
45.698

>  <PUBCHEM_SHAPE_FINGERPRINT>  (1) 
10190108 129 18128531764581420639
10369192 42 18409732859220790221
11488393 25 18126288540883450131
11578080 2 18267871567314084249
11991303 11 18270680986441519582
12516196 113 7997970180342422832
13257819 37 18413108385302705246
13911987 19 18272650138799628577
14202776 33 18115309015220325975
14251751 18 11887666295064212200
14747281 78 17697606494382715357
14930077 153 18117844515115270964
15183329 4 17060335219642262756
15357212 105 17910683060153167417
15575132 122 18333729134882710337
15876981 60 17168998948640101795
15961568 22 17894909590446238365
17980427 23 17458347438070466653
18915476 22 18128810855623629595
19958102 18 18129370665428423862
21033648 29 18270943730812885553
23559900 14 17905316335281021747
249057 3 18340773732580044344
3298306 158 18342168943034897986
340366 18 18269278031453736488
3729539 64 17988933228073719914
4046055 25 17122250067700950775
4058900 60 18339366253567555338
4173938 306 17988065739712222264
44249763 50 18125152986686724224
44802255 64 18337120063598330246
5265222 85 18339361980396816248
550186 7 18186799192976493355
57527585 21 18121470515923413749
58260988 521 18269573782801753179
59755656 520 17989209282347924827
6669772 16 18060144215232998774

>  <PUBCHEM_SHAPE_MULTIPOLES>  (1) 
569.23
18.03
4.72
1.86
26.3
6.38
0.12
-17.23
3.77
-1.61
3.82
-0.28
0.23
1.54

>  <PUBCHEM_SHAPE_SELFOVERLAP>  (1) 
1176.259

>  <PUBCHEM_SHAPE_VOLUME>  (1) 
327.2

>  <PUBCHEM_COORDINATE_TYPE>  (1) 
2
5
10

$$$$
