27166
     RDKit          3D

 20 22  0  0  0  0  0  0  0  0999 V2000
   -3.9251   -1.4303   -0.0138 O   0  0  0  0  0  0  0  0  0  0  0  0
   -4.5675    0.8320    0.5087 O   0  0  0  0  0  0  0  0  0  0  0  0
   -1.2427   -2.2006   -0.6102 O   0  0  0  0  0  0  0  0  0  0  0  0
    1.6519    0.8339   -0.5481 N   0  0  0  0  0  0  0  0  0  0  0  0
    3.7629    0.1523    0.4548 C   0  0  0  0  0  0  0  0  0  0  0  0
    5.2502   -0.1860    0.2531 C   0  0  0  0  0  0  0  0  0  0  0  0
    3.0469    0.5166   -0.8430 C   0  0  0  0  0  0  0  0  0  0  0  0
   -0.5940    0.1094   -0.2987 C   0  0  0  0  0  0  0  0  0  0  0  0
   -0.9699    1.4465    0.0093 C   0  0  0  0  0  0  0  0  0  0  0  0
    0.7479   -0.1538   -0.5748 C   0  0  0  0  0  0  0  0  0  0  0  0
    5.4554   -1.3537   -0.7128 C   0  0  0  0  0  0  0  0  0  0  0  0
    5.8971   -0.5104    1.6018 C   0  0  0  0  0  0  0  0  0  0  0  0
    1.3292    2.1004   -0.2619 C   0  0  0  0  0  0  0  0  0  0  0  0
   -1.5604   -0.9104   -0.3208 C   0  0  0  0  0  0  0  0  0  0  0  0
    0.0147    2.4408    0.0236 C   0  0  0  0  0  0  0  0  0  0  0  0
   -2.8678   -0.5735   -0.0371 C   0  0  0  0  0  0  0  0  0  0  0  0
   -3.2341    0.7166    0.2609 C   0  0  0  0  0  0  0  0  0  0  0  0
   -2.3142    1.7453    0.2924 C   0  0  0  0  0  0  0  0  0  0  0  0
   -4.9992   -0.5327    0.3326 C   0  0  0  0  0  0  0  0  0  0  0  0
   -0.8813   -3.0427    0.4841 C   0  0  0  0  0  0  0  0  0  0  0  0
  1 16  1  0
  1 19  1  0
  2 17  1  0
  2 19  1  0
  3 14  1  0
  3 20  1  0
  4  7  1  0
  4 10  2  0
  4 13  1  0
  5  6  1  0
  5  7  1  0
  6 11  1  0
  6 12  1  0
  8  9  2  0
  8 10  1  0
  8 14  1  0
  9 15  1  0
  9 18  1  0
 13 15  2  0
 14 16  2  0
 16 17  1  0
 17 18  2  0
M  CHG  1   4   1
M  END
>  <PUBCHEM_COMPOUND_CID>  (1) 
27166

>  <PUBCHEM_CONFORMER_RMSD>  (1) 
0.6

>  <PUBCHEM_CONFORMER_DIVERSEORDER>  (1) 
1
9
8
7
4
3
5
10
6
2

>  <PUBCHEM_MMFF94_PARTIAL_CHARGES>  (1) 
18
1 -0.36
10 0.21
13 0.21
14 0.08
15 -0.15
16 0.08
17 0.08
18 -0.15
19 0.56
2 -0.36
20 0.28
26 0.15
3 -0.36
33 0.15
34 0.15
35 0.15
4 -0.21
7 0.49

>  <PUBCHEM_EFFECTIVE_ROTOR_COUNT>  (1) 
4.6

>  <PUBCHEM_PHARMACOPHORE_FEATURES>  (1) 
7
1 1 acceptor
1 2 acceptor
1 3 acceptor
3 6 11 12 hydrophobe
5 1 2 16 17 19 rings
6 4 8 9 10 13 15 rings
6 8 9 14 16 17 18 rings

>  <PUBCHEM_HEAVY_ATOM_COUNT>  (1) 
20

>  <PUBCHEM_ATOM_DEF_STEREO_COUNT>  (1) 
0

>  <PUBCHEM_ATOM_UDEF_STEREO_COUNT>  (1) 
0

>  <PUBCHEM_BOND_DEF_STEREO_COUNT>  (1) 
0

>  <PUBCHEM_BOND_UDEF_STEREO_COUNT>  (1) 
0

>  <PUBCHEM_ISOTOPIC_ATOM_COUNT>  (1) 
0

>  <PUBCHEM_COMPONENT_COUNT>  (1) 
1

>  <PUBCHEM_CACTVS_TAUTO_COUNT>  (1) 
1

>  <PUBCHEM_CONFORMER_ID>  (1) 
00006A1E00000001

>  <PUBCHEM_MMFF94_ENERGY>  (1) 
61.9606

>  <PUBCHEM_FEATURE_SELFOVERLAP>  (1) 
35.707

>  <PUBCHEM_SHAPE_FINGERPRINT>  (1) 
12236239 1 17894632543648900428
12403260 363 18342176730454001725
12553582 1 18334844022883516826
13140716 1 18196654209758268363
13288520 33 18410014316780111820
13402501 40 18129671790471819126
13551218 46 18338233765518717578
13862211 1 18412263973763870991
14115302 16 18041289866905862846
14178342 30 18128270986139161417
14341114 176 18131632284170415592
14466204 15 18340208479828255705
15042514 8 18338521957982547655
15183329 4 9655306986295437424
15196674 1 18339646736485947893
15209289 33 18408604777037797531
16945 1 18270417099614036725
17804303 29 18342460361071888588
17859628 97 18260546727380355058
17977361 122 18334851719153837322
1813 80 17676211243450771716
19141452 34 18130786784812767846
200 152 16515685520468309796
20028762 73 18129947922356596495
20600515 1 18342465854335222820
21267235 1 18409741659186520022
21637258 2 16660358212009304265
21859007 373 18042663057992740125
22182313 1 18128545863961164325
2297311 6 18271817778933667588
23366157 5 17972600167358350956
23402539 116 18272082803705430805
23559900 14 18343026627362535404
2748010 2 18124892170053677797
296302 2 12967136007877884469
3004659 81 18259992574289465692
335352 9 18411140238604902909
3383291 50 18334858363242229691
351380 3 17894907409172037890
43471831 8 18263928743653583443
4409770 3 17970049059536668901
465052 167 18041574640834220651
5104073 3 18270410524024336481
5364581 5 17912622878105827800
559249 180 18114174182071579776
58807428 26 18267879284726431713
5924683 9 17631719595047341566
59755656 215 18338519621076980615
6138700 20 18409733915445180191

>  <PUBCHEM_SHAPE_MULTIPOLES>  (1) 
389
11.19
2.45
0.91
11.44
0.61
-0.14
3.43
-2.83
-1.06
-0.04
1
0.12
-0.24

>  <PUBCHEM_SHAPE_SELFOVERLAP>  (1) 
840.562

>  <PUBCHEM_SHAPE_VOLUME>  (1) 
216

>  <PUBCHEM_COORDINATE_TYPE>  (1) 
2
5
10

$$$$
