27189
     RDKit          3D

 20 21  0  0  1  0  0  0  0  0999 V2000
   -0.0800   -0.7074   -1.3672 O   0  0  0  0  0  0  0  0  0  0  0  0
   -2.1239    1.0353   -1.5410 O   0  0  0  0  0  0  0  0  0  0  0  0
   -3.0089    0.3172    0.4754 N   0  0  0  0  0  0  0  0  0  0  0  0
   -1.3072   -1.0606   -0.7373 C   0  0  0  0  0  0  0  0  0  0  0  0
   -2.1782    0.1898   -0.6413 C   0  0  0  0  0  0  0  0  0  0  0  0
   -3.8867    1.4647    0.6748 C   0  0  0  0  0  0  0  0  0  0  0  0
   -3.0651   -0.6888    1.5335 C   0  0  0  0  0  0  0  0  0  0  0  0
    1.0623   -0.8843   -0.6329 C   0  0  0  0  0  0  0  0  0  0  0  0
    1.9081    0.1936   -0.3327 C   0  0  0  0  0  0  0  0  0  0  0  0
   -1.9800   -2.1486   -1.5615 C   0  0  0  0  0  0  0  0  0  0  0  0
    3.0779   -0.0396    0.4289 C   0  0  0  0  0  0  0  0  0  0  0  0
   -5.2532    1.2245    0.0557 C   0  0  0  0  0  0  0  0  0  0  0  0
   -2.0502   -0.3948    2.6252 C   0  0  0  0  0  0  0  0  0  0  0  0
    1.3597   -2.1726   -0.1926 C   0  0  0  0  0  0  0  0  0  0  0  0
    1.6215    1.4972   -0.7695 C   0  0  0  0  0  0  0  0  0  0  0  0
    3.3644   -1.3432    0.8662 C   0  0  0  0  0  0  0  0  0  0  0  0
    2.5100   -2.4018    0.5567 C   0  0  0  0  0  0  0  0  0  0  0  0
    3.9267    1.0376    0.7312 C   0  0  0  0  0  0  0  0  0  0  0  0
    2.4762    2.5556   -0.4602 C   0  0  0  0  0  0  0  0  0  0  0  0
    3.6267    2.3263    0.2887 C   0  0  0  0  0  0  0  0  0  0  0  0
  1  4  1  0
  1  8  1  0
  2  5  2  0
  3  5  1  0
  3  6  1  0
  3  7  1  0
  4  5  1  0
  4 10  1  0
  6 12  1  0
  7 13  1  0
  8  9  2  0
  8 14  1  0
  9 11  1  0
  9 15  1  0
 11 16  2  0
 11 18  1  0
 14 17  2  0
 15 19  2  0
 16 17  1  0
 18 20  2  0
 19 20  1  0
M  END
>  <PUBCHEM_COMPOUND_CID>  (1) 
27189

>  <PUBCHEM_CONFORMER_RMSD>  (1) 
0.8

>  <PUBCHEM_CONFORMER_DIVERSEORDER>  (1) 
1
64
84
57
22
27
81
62
74
80
76
51
77
73
85
12
28
23
82
39
10
56
21
30
17
59
53
49
68
36
46
66
6
14
9
38
72
31
8
32
83
3
65
55
18
40
33
43
37
34
47
58
67
13
2
48
61
41
11
70
24
45
63
52
69
71
75
35
15
5
54
20
60
50
79
4
26
42
78
44
29
7
25
19
16

>  <PUBCHEM_MMFF94_PARTIAL_CHARGES>  (1) 
22
1 -0.36
14 -0.15
15 -0.15
16 -0.15
17 -0.15
18 -0.15
19 -0.15
2 -0.57
20 -0.15
3 -0.66
35 0.15
36 0.15
37 0.15
38 0.15
39 0.15
4 0.34
40 0.15
41 0.15
5 0.57
6 0.3
7 0.3
8 0.08

>  <PUBCHEM_EFFECTIVE_ROTOR_COUNT>  (1) 
6

>  <PUBCHEM_PHARMACOPHORE_FEATURES>  (1) 
4
1 1 acceptor
1 2 acceptor
6 8 9 11 14 16 17 rings
6 9 11 15 18 19 20 rings

>  <PUBCHEM_HEAVY_ATOM_COUNT>  (1) 
20

>  <PUBCHEM_ATOM_DEF_STEREO_COUNT>  (1) 
0

>  <PUBCHEM_ATOM_UDEF_STEREO_COUNT>  (1) 
1

>  <PUBCHEM_BOND_DEF_STEREO_COUNT>  (1) 
0

>  <PUBCHEM_BOND_UDEF_STEREO_COUNT>  (1) 
0

>  <PUBCHEM_ISOTOPIC_ATOM_COUNT>  (1) 
0

>  <PUBCHEM_COMPONENT_COUNT>  (1) 
1

>  <PUBCHEM_CACTVS_TAUTO_COUNT>  (1) 
1

>  <PUBCHEM_CONFORMER_ID>  (1) 
00006A3500000001

>  <PUBCHEM_MMFF94_ENERGY>  (1) 
58.0417

>  <PUBCHEM_FEATURE_SELFOVERLAP>  (1) 
20.331

>  <PUBCHEM_SHAPE_FINGERPRINT>  (1) 
10366900 7 17967258602093258799
10382601 240 18261100881978732008
10465860 228 18412823590759094188
10498660 4 14907907003406254105
11370993 70 18186806910848491587
11471102 22 18186517730868983266
11640471 11 17917994983594885474
12166972 35 17774718641408015435
12403259 327 17677058945034859347
12633257 1 17168140178213356880
12670545 47 18041574571703468859
12670546 177 11311764069045490409
13140716 1 18410566319072716678
13583140 156 18335148608931515603
13764800 53 16916798421684755099
14251764 38 18195809562108041857
14790565 3 18189623920328227356
14844126 61 16893946979731350402
15238133 3 18044387023615605940
15527383 91 18262235517664496762
1813 80 17556313765281793406
18981168 100 17059237936559233559
19049666 15 17678167200962764094
20157964 124 18339074896667512389
20510252 161 17184743040527281974
20715895 44 17840306615177879553
20739085 24 18260829289822151964
21475661 188 17974566888928786733
21503847 285 18343025458735440942
21524375 3 18053095409532480262
21756936 100 17831033673290197044
21864079 5 18267589198441032180
22854114 111 18409447003181966324
23184049 59 18269269067207870454
23557571 272 14045155520736509917
23559900 14 17386304107355275295
2748010 2 17692517924071365942
351380 180 18262799558666276681
3797600 57 17699036142143369427
4409770 3 14888234227698163071
474 4 18337103557479563004
49207404 50 18115600364358329752
5048184 11 18341614879374053964
7097593 13 18337102380674796446
7832392 63 18343014506484466382

>  <PUBCHEM_SHAPE_MULTIPOLES>  (1) 
394.87
8.3
2.67
1.62
5.02
0.02
-0.62
4.07
-2.3
-1.94
0.37
1.34
-0.42
-0.54

>  <PUBCHEM_SHAPE_SELFOVERLAP>  (1) 
826.92

>  <PUBCHEM_SHAPE_VOLUME>  (1) 
224.3

>  <PUBCHEM_COORDINATE_TYPE>  (1) 
2
5
10

$$$$
