27180
     RDKit          3D

 21 22  0  0  0  0  0  0  0  0999 V2000
   -4.7755   -0.4614   -0.4127 O   0  0  0  0  0  0  0  0  0  0  0  0
    2.9494   -1.5640    0.2121 N   0  0  0  0  0  0  0  0  0  0  0  0
    1.5486   -1.3968   -0.1736 C   0  0  0  0  0  0  0  0  0  0  0  0
    0.6761   -0.9153    0.9830 C   0  0  0  0  0  0  0  0  0  0  0  0
   -0.7764   -0.7659    0.6020 C   0  0  0  0  0  0  0  0  0  0  0  0
    3.5057   -0.2950    0.6798 C   0  0  0  0  0  0  0  0  0  0  0  0
    3.7304   -2.0817   -0.9108 C   0  0  0  0  0  0  0  0  0  0  0  0
   -1.2653    0.4329    0.1025 C   0  0  0  0  0  0  0  0  0  0  0  0
   -1.6092   -1.8644    0.7663 C   0  0  0  0  0  0  0  0  0  0  0  0
   -0.4069    1.5873   -0.0741 C   0  0  0  0  0  0  0  0  0  0  0  0
   -2.6137    0.5360   -0.2395 C   0  0  0  0  0  0  0  0  0  0  0  0
    4.9390   -0.4546    1.1429 C   0  0  0  0  0  0  0  0  0  0  0  0
    3.1737   -3.3973   -1.4142 C   0  0  0  0  0  0  0  0  0  0  0  0
   -2.9575   -1.7614    0.4243 C   0  0  0  0  0  0  0  0  0  0  0  0
   -3.4598   -0.5612   -0.0788 C   0  0  0  0  0  0  0  0  0  0  0  0
   -0.2522    2.5040    0.9641 C   0  0  0  0  0  0  0  0  0  0  0  0
    0.2632    1.7762   -1.2812 C   0  0  0  0  0  0  0  0  0  0  0  0
    0.5756    3.6137    0.7944 C   0  0  0  0  0  0  0  0  0  0  0  0
    1.0911    2.8859   -1.4508 C   0  0  0  0  0  0  0  0  0  0  0  0
    1.2473    3.8047   -0.4130 C   0  0  0  0  0  0  0  0  0  0  0  0
   -5.5835   -1.6219   -0.2227 C   0  0  0  0  0  0  0  0  0  0  0  0
  1 15  1  0
  1 21  1  0
  2  3  1  0
  2  6  1  0
  2  7  1  0
  3  4  1  0
  4  5  1  0
  5  8  2  0
  5  9  1  0
  6 12  1  0
  7 13  1  0
  8 10  1  0
  8 11  1  0
  9 14  2  0
 10 16  2  0
 10 17  1  0
 11 15  2  0
 14 15  1  0
 16 18  1  0
 17 19  2  0
 18 20  2  0
 19 20  1  0
M  END
>  <PUBCHEM_COMPOUND_CID>  (1) 
27180

>  <PUBCHEM_CONFORMER_RMSD>  (1) 
0.8

>  <PUBCHEM_CONFORMER_DIVERSEORDER>  (1) 
1
22
20
3
24
19
8
2
23
12
6
16
4
15
17
11
21
7
14
18
13
5
10
9

>  <PUBCHEM_MMFF94_PARTIAL_CHARGES>  (1) 
25
1 -0.36
11 -0.15
14 -0.15
15 0.08
16 -0.15
17 -0.15
18 -0.15
19 -0.15
2 -0.81
20 -0.15
21 0.28
3 0.27
30 0.15
31 0.15
38 0.15
39 0.15
4 0.14
40 0.15
41 0.15
42 0.15
43 0.15
5 -0.14
6 0.27
7 0.27
9 -0.15

>  <PUBCHEM_EFFECTIVE_ROTOR_COUNT>  (1) 
7

>  <PUBCHEM_PHARMACOPHORE_FEATURES>  (1) 
4
1 1 acceptor
1 2 cation
6 10 16 17 18 19 20 rings
6 5 8 9 11 14 15 rings

>  <PUBCHEM_HEAVY_ATOM_COUNT>  (1) 
21

>  <PUBCHEM_ATOM_DEF_STEREO_COUNT>  (1) 
0

>  <PUBCHEM_ATOM_UDEF_STEREO_COUNT>  (1) 
0

>  <PUBCHEM_BOND_DEF_STEREO_COUNT>  (1) 
0

>  <PUBCHEM_BOND_UDEF_STEREO_COUNT>  (1) 
0

>  <PUBCHEM_ISOTOPIC_ATOM_COUNT>  (1) 
0

>  <PUBCHEM_COMPONENT_COUNT>  (1) 
1

>  <PUBCHEM_CACTVS_TAUTO_COUNT>  (1) 
1

>  <PUBCHEM_CONFORMER_ID>  (1) 
00006A2C00000001

>  <PUBCHEM_MMFF94_ENERGY>  (1) 
65.5077

>  <PUBCHEM_FEATURE_SELFOVERLAP>  (1) 
20.297

>  <PUBCHEM_SHAPE_FINGERPRINT>  (1) 
11045515 52 18262241006268639333
11680986 33 18044376256528149451
11963148 33 17036127555243717115
12166972 35 17385722470310482830
12553582 1 18265074503573247970
13004483 165 18268138769281254175
13140716 1 18189621725530769747
13149001 5 18041565844441063707
13681431 1 18336558208339121900
14170010 4 18338226185138264985
14347332 77 18120089482021532106
14790565 3 17617373983578283909
15475509 8 18197224642346481693
15927050 60 17476641353268181052
15961568 22 18335423466075857460
167882 2 18046062924060054828
17357779 13 18339065013119439780
17492 54 17968671535313651644
1813 80 18410297982221772343
18393751 57 18056735819929390986
18785283 64 18044663228899487889
19591789 44 16825597986261385464
20028762 73 16106167282012381883
20510252 161 18192987119784495648
20600515 1 17967531268524711430
20642791 13 18341609270083345313
20905425 154 17614014305460596762
21029758 11 18410287000164268521
21618674 68 18341049636514595638
22182313 1 17605812894200718893
23366157 5 17679296631311631521
23402539 116 18337097969722225962
23419403 2 17898258797411448132
23557571 272 18337669703337246898
23559900 14 18266735964305629377
350125 39 18333730218005883205
495365 180 17982165931325373353
59755656 215 17539690618074029459
621550 34 18130494263697240362
6442390 28 17188417070899868809
6443956 14 18410571820535842089
6913067 236 18057860529713820418
7364860 26 18266739271588917033
7399639 24 18129930175609257346
81228 2 18191318073981555794
84936 31 18057031622035870000

>  <PUBCHEM_SHAPE_MULTIPOLES>  (1) 
421.32
8.1
4.48
1.22
4.23
3.59
0.18
-8.04
0.11
-3.11
1.05
-0.9
0.1
0.65

>  <PUBCHEM_SHAPE_SELFOVERLAP>  (1) 
878.983

>  <PUBCHEM_SHAPE_VOLUME>  (1) 
241.7

>  <PUBCHEM_COORDINATE_TYPE>  (1) 
2
5
10

$$$$
