27199
     RDKit          3D

 13 14  0  0  0  0  0  0  0  0999 V2000
   -1.9913    1.6463    0.0104 O   0  0  0  0  0  0  0  0  0  0  0  0
    0.6987   -2.0463    0.0033 N   0  0  0  0  0  0  0  0  0  0  0  0
   -3.1280   -0.3619   -0.0102 N   0  0  0  0  0  0  0  0  0  0  0  0
   -4.3587    0.2678    0.0103 N   0  0  0  0  0  0  0  0  0  0  0  0
    0.6127    0.1829   -0.0025 C   0  0  0  0  0  0  0  0  0  0  0  0
    1.4793   -0.9123    0.0019 C   0  0  0  0  0  0  0  0  0  0  0  0
   -0.7132   -0.3336   -0.0039 C   0  0  0  0  0  0  0  0  0  0  0  0
   -0.6275   -1.7068   -0.0003 C   0  0  0  0  0  0  0  0  0  0  0  0
    1.1606    1.4812   -0.0047 C   0  0  0  0  0  0  0  0  0  0  0  0
    2.8718   -0.7736    0.0045 C   0  0  0  0  0  0  0  0  0  0  0  0
   -1.9485    0.3976   -0.0089 C   0  0  0  0  0  0  0  0  0  0  0  0
    2.5518    1.6351   -0.0023 C   0  0  0  0  0  0  0  0  0  0  0  0
    3.3923    0.5236    0.0023 C   0  0  0  0  0  0  0  0  0  0  0  0
  1 11  2  0
  2  6  1  0
  2  8  1  0
  3  4  1  0
  3 11  1  0
  5  6  2  0
  5  7  1  0
  5  9  1  0
  6 10  1  0
  7  8  2  0
  7 11  1  0
  9 12  2  0
 10 13  2  0
 12 13  1  0
M  END
>  <PUBCHEM_COMPOUND_CID>  (1) 
27199

>  <PUBCHEM_CONFORMER_RMSD>  (1) 
0.6

>  <PUBCHEM_CONFORMER_DIVERSEORDER>  (1) 
1
2
3

>  <PUBCHEM_MMFF94_PARTIAL_CHARGES>  (1) 
21
1 -0.57
10 -0.15
11 0.72
12 -0.15
13 -0.15
14 0.27
15 0.15
16 0.15
17 0.15
18 0.15
19 0.15
2 0.03
20 0.37
21 0.36
22 0.36
3 -0.42
4 -0.73
6 -0.15
7 -0.09
8 -0.3
9 -0.15

>  <PUBCHEM_EFFECTIVE_ROTOR_COUNT>  (1) 
2

>  <PUBCHEM_PHARMACOPHORE_FEATURES>  (1) 
7
1 1 acceptor
1 2 cation
1 2 donor
1 3 donor
1 4 donor
5 2 5 6 7 8 rings
6 5 6 9 10 12 13 rings

>  <PUBCHEM_HEAVY_ATOM_COUNT>  (1) 
13

>  <PUBCHEM_ATOM_DEF_STEREO_COUNT>  (1) 
0

>  <PUBCHEM_ATOM_UDEF_STEREO_COUNT>  (1) 
0

>  <PUBCHEM_BOND_DEF_STEREO_COUNT>  (1) 
0

>  <PUBCHEM_BOND_UDEF_STEREO_COUNT>  (1) 
0

>  <PUBCHEM_ISOTOPIC_ATOM_COUNT>  (1) 
0

>  <PUBCHEM_COMPONENT_COUNT>  (1) 
1

>  <PUBCHEM_CACTVS_TAUTO_COUNT>  (1) 
3

>  <PUBCHEM_CONFORMER_ID>  (1) 
00006A3F00000001

>  <PUBCHEM_MMFF94_ENERGY>  (1) 
23.2579

>  <PUBCHEM_FEATURE_SELFOVERLAP>  (1) 
37.112

>  <PUBCHEM_SHAPE_FINGERPRINT>  (1) 
10219947 1 18334579035700680029
10608611 8 18335698304505396669
10967382 1 18410855464581384646
11471102 20 18411133619617044861
13380535 76 18410855494588529722
14251717 144 18411696582576635383
14325111 11 18410855481703367973
14897335 6 18340763857537302390
14911166 2 18412273830787382702
15775835 57 18342741857291119309
16945 1 18410575102180655658
18186145 218 18343306950443764373
193761 8 17257934793556973678
20645477 70 18340481154643414415
21028194 46 18334858320249389988
21040471 1 18338516456065507844
21501502 16 18194678391974828190
21524375 3 18411418427388241250
23402539 116 18272078431075328012
23402655 69 18342451522218993885
23463225 33 18335135358930994346
23559900 14 18270974552832499084
2748010 2 18122912194192989166
5084963 1 18202282498106487808
528886 8 18411132567508215466
53812653 166 18342171219757656056
63268167 104 18341052926053239288
69090 78 18201152243102988974
7364860 26 18270401577238459406

>  <PUBCHEM_SHAPE_MULTIPOLES>  (1) 
246.72
5.55
1.84
0.59
3.69
0.2
0
-1.42
0.01
-0.49
0
-0.06
0
-0.01

>  <PUBCHEM_SHAPE_SELFOVERLAP>  (1) 
540.313

>  <PUBCHEM_SHAPE_VOLUME>  (1) 
134.8

>  <PUBCHEM_COORDINATE_TYPE>  (1) 
2
5
10

$$$$
