27191
     RDKit          3D

 29 30  0  0  0  0  0  0  0  0999 V2000
    1.8884   -0.1131    3.2287 I   0  0  0  0  0  0  0  0  0  0  0  0
    2.3572   -2.4372   -2.3954 I   0  0  0  0  0  0  0  0  0  0  0  0
    4.5253    3.2527   -1.2542 I   0  0  0  0  0  0  0  0  0  0  0  0
   -4.4134   -0.3455   -0.5499 O   0  0  0  0  0  0  0  0  0  0  0  0
    3.1168   -1.6155    0.6400 O   0  0  0  0  0  0  0  0  0  0  0  0
   -2.9794   -1.9416    0.2965 O   0  0  0  0  0  0  0  0  0  0  0  0
    7.3347    1.8076   -0.4234 O   0  0  0  0  0  0  0  0  0  0  0  0
   -6.9780    0.7547    0.0105 N   0  0  0  0  0  0  0  0  0  0  0  0
   -6.7938   -0.4897   -0.7356 C   0  0  0  0  0  0  0  0  0  0  0  0
   -8.1927    1.4397   -0.4299 C   0  0  0  0  0  0  0  0  0  0  0  0
   -7.0350    0.4857    1.4469 C   0  0  0  0  0  0  0  0  0  0  0  0
   -5.5226   -1.1971   -0.2940 C   0  0  0  0  0  0  0  0  0  0  0  0
   -8.1507    1.7274   -1.9211 C   0  0  0  0  0  0  0  0  0  0  0  0
   -7.1648    1.7738    2.2419 C   0  0  0  0  0  0  0  0  0  0  0  0
   -2.1235    0.1779   -0.5376 C   0  0  0  0  0  0  0  0  0  0  0  0
   -0.7286   -0.2986   -0.2244 C   0  0  0  0  0  0  0  0  0  0  0  0
   -3.1841   -0.8440   -0.2039 C   0  0  0  0  0  0  0  0  0  0  0  0
    0.0094   -0.9800   -1.1924 C   0  0  0  0  0  0  0  0  0  0  0  0
   -0.1759   -0.0595    1.0337 C   0  0  0  0  0  0  0  0  0  0  0  0
    1.8527   -1.1830    0.3561 C   0  0  0  0  0  0  0  0  0  0  0  0
    1.1148   -0.5016    1.3239 C   0  0  0  0  0  0  0  0  0  0  0  0
    1.3000   -1.4221   -0.9021 C   0  0  0  0  0  0  0  0  0  0  0  0
    4.1629   -0.7526    0.3705 C   0  0  0  0  0  0  0  0  0  0  0  0
    3.9069    0.5070   -0.1713 C   0  0  0  0  0  0  0  0  0  0  0  0
    5.4747   -1.1421    0.6408 C   0  0  0  0  0  0  0  0  0  0  0  0
    6.2746    0.9875   -0.1728 C   0  0  0  0  0  0  0  0  0  0  0  0
    4.9627    1.3771   -0.4428 C   0  0  0  0  0  0  0  0  0  0  0  0
    6.5305   -0.2721    0.3691 C   0  0  0  0  0  0  0  0  0  0  0  0
    8.6307    1.3043   -0.1076 C   0  0  0  0  0  0  0  0  0  0  0  0
  1 21  1  0
  2 22  1  0
  3 27  1  0
  4 12  1  0
  4 17  1  0
  5 20  1  0
  5 23  1  0
  6 17  2  0
  7 26  1  0
  7 29  1  0
  8  9  1  0
  8 10  1  0
  8 11  1  0
  9 12  1  0
 10 13  1  0
 11 14  1  0
 15 16  1  0
 15 17  1  0
 16 18  2  0
 16 19  1  0
 18 22  1  0
 19 21  2  0
 20 21  1  0
 20 22  2  0
 23 24  2  0
 23 25  1  0
 24 27  1  0
 25 28  2  0
 26 27  2  0
 26 28  1  0
M  END
>  <PUBCHEM_COMPOUND_CID>  (1) 
27191

>  <PUBCHEM_CONFORMER_RMSD>  (1) 
1.2

>  <PUBCHEM_CONFORMER_DIVERSEORDER>  (1) 
22
36
38
37
20
47
30
63
5
15
53
27
51
16
24
46
58
55
48
42
45
7
1
40
26
32
18
21
60
49
11
54
17
19
41
33
56
9
65
8
31
52
4
61
29
13
28
57
25
10
23
44
59
43
64
12
3
62
14
50
2
35
6
34
39

>  <PUBCHEM_MMFF94_PARTIAL_CHARGES>  (1) 
32
1 -0.08
10 0.27
11 0.27
12 0.28
15 0.2
16 -0.14
17 0.66
18 -0.15
19 -0.15
2 -0.08
20 0.08
21 0.08
22 0.08
23 0.08
24 -0.15
25 -0.15
26 0.08
27 0.08
28 -0.15
29 0.28
3 -0.08
4 -0.43
46 0.15
47 0.15
48 0.15
49 0.15
5 -0.17
50 0.15
6 -0.57
7 -0.36
8 -0.81
9 0.27

>  <PUBCHEM_EFFECTIVE_ROTOR_COUNT>  (1) 
11

>  <PUBCHEM_PHARMACOPHORE_FEATURES>  (1) 
9
1 1 hydrophobe
1 2 hydrophobe
1 3 hydrophobe
1 5 acceptor
1 6 acceptor
1 7 acceptor
1 8 cation
6 16 18 19 20 21 22 rings
6 23 24 25 26 27 28 rings

>  <PUBCHEM_HEAVY_ATOM_COUNT>  (1) 
29

>  <PUBCHEM_ATOM_DEF_STEREO_COUNT>  (1) 
0

>  <PUBCHEM_ATOM_UDEF_STEREO_COUNT>  (1) 
0

>  <PUBCHEM_BOND_DEF_STEREO_COUNT>  (1) 
0

>  <PUBCHEM_BOND_UDEF_STEREO_COUNT>  (1) 
0

>  <PUBCHEM_ISOTOPIC_ATOM_COUNT>  (1) 
0

>  <PUBCHEM_COMPONENT_COUNT>  (1) 
1

>  <PUBCHEM_CACTVS_TAUTO_COUNT>  (1) 
1

>  <PUBCHEM_CONFORMER_ID>  (1) 
00006A3700000016

>  <PUBCHEM_MMFF94_ENERGY>  (1) 
86.4291

>  <PUBCHEM_FEATURE_SELFOVERLAP>  (1) 
45.671

>  <PUBCHEM_SHAPE_FINGERPRINT>  (1) 
10 15 17894912915261978285
10066227 112 18408036304584667173
10554248 39 18130783405032222063
106641 1 13551191117755115982
10673678 19 18272092759613799916
10835480 77 18343304760506530279
10906281 52 18200607951146955699
11135926 11 15357969079944185043
11315181 36 18343019996286126763
11456790 92 17385997378504107960
11607047 141 17751914722861519835
11646440 116 15719392823932583847
12166972 35 11239993473697838211
12522641 24 17241033328537797944
12539765 74 18334862714423667822
13383668 362 13335883715463817780
13540713 5 16557085350095306602
13668630 136 13542455476429351557
14294032 229 17703506602061825557
14461889 52 14996005436843077593
15183329 4 17346314878549217203
15439362 3 16556759023228324856
15461852 350 17489859463482892863
15849732 13 13398628363713927481
17093844 174 17240482495377967277
17134984 74 11743842460959677340
18335252 114 18273494576920688932
19841028 212 10159163630988905020
20157964 124 18260265257610740690
2026 5 10231492808308836084
21150785 3 14908176452590547349
21521721 280 17967533480095324258
22149856 69 14707763992302018215
22224240 67 16008743637146178426
23522609 53 18271541852875641145
23576562 1 17058915844382902517
3178227 256 13839987702854495542
3633792 109 17988372516277982990
3711267 37 18335711549852871564
397830 11 17169001130641529657
4093350 32 17531240613142000610
4169191 19 18343303652700236885
4340502 62 16008746900804638355
44555599 121 18410859867166138289
504579 68 16558739127848204325
57359948 33 18059298639372567621
5758199 1 16877659063004284851
59682541 35 14923943487924432804
59755656 215 15985105197863517519
6328613 192 18413109468288409849

>  <PUBCHEM_SHAPE_MULTIPOLES>  (1) 
604.15
25.32
2.55
2.23
34.56
0.41
-1.17
16.71
4.72
-1.94
1.57
0.36
0.5
-1.42

>  <PUBCHEM_SHAPE_SELFOVERLAP>  (1) 
1190.408

>  <PUBCHEM_SHAPE_VOLUME>  (1) 
372.4

>  <PUBCHEM_COORDINATE_TYPE>  (1) 
2
5
10

$$$$
