27197
     RDKit          3D

 18 19  0  0  1  0  0  0  0  0999 V2000
   -0.2889   -3.0981    0.8471 F   0  0  0  0  0  0  0  0  0  0  0  0
   -4.5179    1.4492    0.0826 O   0  0  0  0  0  0  0  0  0  0  0  0
   -1.6169   -0.8027   -0.0129 N   0  0  0  0  0  0  0  0  0  0  0  0
   -0.3614   -0.1706    0.1069 C   0  0  0  0  0  0  0  0  0  0  0  0
   -2.8074   -0.1775    0.5272 C   0  0  0  0  0  0  0  0  0  0  0  0
   -1.7340   -2.0787   -0.6902 C   0  0  0  0  0  0  0  0  0  0  0  0
    0.7788   -0.7803   -0.4174 C   0  0  0  0  0  0  0  0  0  0  0  0
    2.0361   -0.1644   -0.3069 C   0  0  0  0  0  0  0  0  0  0  0  0
    2.1383    1.0878    0.3445 C   0  0  0  0  0  0  0  0  0  0  0  0
   -0.2609    1.0610    0.7472 C   0  0  0  0  0  0  0  0  0  0  0  0
   -3.3305    0.8688   -0.4423 C   0  0  0  0  0  0  0  0  0  0  0  0
    0.9801    1.6874    0.8660 C   0  0  0  0  0  0  0  0  0  0  0  0
   -1.5268   -3.2115    0.2945 C   0  0  0  0  0  0  0  0  0  0  0  0
    3.1942   -0.7636   -0.8285 C   0  0  0  0  0  0  0  0  0  0  0  0
    3.3954    1.7040    0.4551 C   0  0  0  0  0  0  0  0  0  0  0  0
    4.4352   -0.1373   -0.7093 C   0  0  0  0  0  0  0  0  0  0  0  0
    4.5356    1.0942   -0.0687 C   0  0  0  0  0  0  0  0  0  0  0  0
   -5.0492    2.4322   -0.7950 C   0  0  0  0  0  0  0  0  0  0  0  0
  1 13  1  0
  2 11  1  0
  2 18  1  0
  3  4  1  0
  3  5  1  0
  3  6  1  0
  4  7  2  0
  4 10  1  0
  5 11  1  0
  6 13  1  0
  7  8  1  0
  8  9  2  0
  8 14  1  0
  9 12  1  0
  9 15  1  0
 10 12  2  0
 14 16  2  0
 15 17  2  0
 16 17  1  0
M  END
>  <PUBCHEM_COMPOUND_CID>  (1) 
27197

>  <PUBCHEM_CONFORMER_RMSD>  (1) 
0.8

>  <PUBCHEM_CONFORMER_DIVERSEORDER>  (1) 
6
68
60
12
16
48
43
21
70
64
44
61
47
71
69
22
39
31
14
36
67
46
55
35
53
26
7
41
29
54
59
65
20
18
25
15
58
34
66
56
52
42
50
11
49
28
17
5
9
57
33
32
24
27
45
38
40
51
13
37
23
10
30
4
19
62
8
3
63
2
1

>  <PUBCHEM_MMFF94_PARTIAL_CHARGES>  (1) 
23
1 -0.34
10 -0.15
11 0.28
12 -0.15
13 0.34
14 -0.15
15 -0.15
16 -0.15
17 -0.15
18 0.28
2 -0.56
23 0.15
24 0.15
27 0.15
3 -0.84
30 0.15
31 0.15
32 0.15
33 0.15
4 0.1
5 0.37
6 0.37
7 -0.15

>  <PUBCHEM_EFFECTIVE_ROTOR_COUNT>  (1) 
6

>  <PUBCHEM_PHARMACOPHORE_FEATURES>  (1) 
4
1 2 acceptor
1 3 cation
6 4 7 8 9 10 12 rings
6 8 9 14 15 16 17 rings

>  <PUBCHEM_HEAVY_ATOM_COUNT>  (1) 
18

>  <PUBCHEM_ATOM_DEF_STEREO_COUNT>  (1) 
0

>  <PUBCHEM_ATOM_UDEF_STEREO_COUNT>  (1) 
0

>  <PUBCHEM_BOND_DEF_STEREO_COUNT>  (1) 
0

>  <PUBCHEM_BOND_UDEF_STEREO_COUNT>  (1) 
0

>  <PUBCHEM_ISOTOPIC_ATOM_COUNT>  (1) 
0

>  <PUBCHEM_COMPONENT_COUNT>  (1) 
1

>  <PUBCHEM_CACTVS_TAUTO_COUNT>  (1) 
1

>  <PUBCHEM_CONFORMER_ID>  (1) 
00006A3D00000006

>  <PUBCHEM_MMFF94_ENERGY>  (1) 
61.6163

>  <PUBCHEM_FEATURE_SELFOVERLAP>  (1) 
20.324

>  <PUBCHEM_SHAPE_FINGERPRINT>  (1) 
10608611 8 18198903810844318072
1100329 8 17188423668127234778
11471102 20 18131352994947085860
12500047 106 18411135870079603166
12532896 13 18408319995231927791
12730499 353 18264491690182313065
12969540 114 18262503819955607061
13294875 104 18198317620759451147
13544592 145 18341059523281138310
13760787 19 18260268586014988866
14115302 16 18337965553395502188
14123255 52 18408319960950875477
14911166 2 18201159871038785580
15375358 24 18202283623841515428
16945 1 18130522846387674682
18186145 218 18341336621364563457
19784866 34 18338797802225095001
200 152 16486976180613049832
20602899 9 15482673502485253703
20645477 56 18410294756701456497
20645477 70 17274554191052157190
20871999 31 18339640147953082695
21033648 29 18411412921567781041
221490 88 18126858324820058506
23402539 116 18342731910168136460
23402655 69 17988358183350098149
23493267 7 18337950198839686394
23557571 272 18269282424888554972
23558518 356 17900257812413467408
23559900 14 18272374166308773230
25 1 18342172224684895325
2748010 2 17986960845825642844
293599 30 18409450254504143717
3084891 72 18343019943506900530
335352 9 18340770347649683470
34934 24 18343297076862369074
3759504 43 18187650210671154155
495365 180 17274526707451162144
5104073 3 18200032979732820738
559249 180 18411696582851383574
633830 44 18271518698595983837
81228 2 17975406134148867491
8809292 202 18341057427289910554
9709674 26 18200600314463047126

>  <PUBCHEM_SHAPE_MULTIPOLES>  (1) 
352.31
8.7
2.94
0.91
1.87
2.06
-0.01
-6.1
-2.26
2.8
0.34
0.01
-0.01
1.11

>  <PUBCHEM_SHAPE_SELFOVERLAP>  (1) 
740.71

>  <PUBCHEM_SHAPE_VOLUME>  (1) 
200.6

>  <PUBCHEM_COORDINATE_TYPE>  (1) 
2
5
10

$$$$
