27193
     RDKit          3D

 20 21  0  0  1  0  0  0  0  0999 V2000
   -0.5534   -0.4507    1.5029 O   0  0  0  0  0  0  0  0  0  0  0  0
    1.1040   -1.2461   -2.1405 O   0  0  0  0  0  0  0  0  0  0  0  0
    1.1848    1.3585    1.7658 O   0  0  0  0  0  0  0  0  0  0  0  0
    4.6176   -1.5284    0.7975 O   0  0  0  0  0  0  0  0  0  0  0  0
    2.9051   -1.3124   -0.7211 N   0  0  0  0  0  0  0  0  0  0  0  0
    2.9450   -0.0117    1.2306 N   0  0  0  0  0  0  0  0  0  0  0  0
    1.3097    0.5399   -0.5133 C   0  0  0  0  0  0  0  0  0  0  0  0
   -0.2170    0.6901   -0.5819 C   0  0  0  0  0  0  0  0  0  0  0  0
    1.9695    1.6907   -1.2940 C   0  0  0  0  0  0  0  0  0  0  0  0
   -0.9570   -0.4422    0.1324 C   0  0  0  0  0  0  0  0  0  0  0  0
    1.7254   -0.7592   -1.1963 C   0  0  0  0  0  0  0  0  0  0  0  0
    1.7693    0.6624    0.9361 C   0  0  0  0  0  0  0  0  0  0  0  0
    1.6403    3.0274   -0.6684 C   0  0  0  0  0  0  0  0  0  0  0  0
   -2.4624   -0.3192    0.0894 C   0  0  0  0  0  0  0  0  0  0  0  0
    3.5716   -0.9768    0.4513 C   0  0  0  0  0  0  0  0  0  0  0  0
   -3.2371   -1.4674    0.1042 C   0  0  0  0  0  0  0  0  0  0  0  0
   -3.0384    0.9394    0.0355 C   0  0  0  0  0  0  0  0  0  0  0  0
   -4.6267   -1.3538    0.0642 C   0  0  0  0  0  0  0  0  0  0  0  0
   -4.4280    1.0530   -0.0044 C   0  0  0  0  0  0  0  0  0  0  0  0
   -5.2222   -0.0936    0.0100 C   0  0  0  0  0  0  0  0  0  0  0  0
  1 10  1  0
  2 11  2  0
  3 12  2  0
  4 15  2  0
  5 11  1  0
  5 15  1  0
  6 12  1  0
  6 15  1  0
  7  8  1  0
  7  9  1  0
  7 11  1  0
  7 12  1  0
  8 10  1  0
  9 13  1  0
 10 14  1  0
 14 16  2  0
 14 17  1  0
 16 18  1  0
 17 19  2  0
 18 20  2  0
 19 20  1  0
M  END
>  <PUBCHEM_COMPOUND_CID>  (1) 
27193

>  <PUBCHEM_CONFORMER_RMSD>  (1) 
0.6

>  <PUBCHEM_CONFORMER_DIVERSEORDER>  (1) 
1
10
12
9
6
13
11
2
3
5
8
4
7

>  <PUBCHEM_MMFF94_PARTIAL_CHARGES>  (1) 
25
1 -0.68
10 0.42
11 0.57
12 0.57
14 -0.14
15 0.69
16 -0.15
17 -0.15
18 -0.15
19 -0.15
2 -0.57
20 -0.15
29 0.37
3 -0.57
30 0.37
31 0.4
32 0.15
33 0.15
34 0.15
35 0.15
36 0.15
4 -0.57
5 -0.49
6 -0.49
7 0.12

>  <PUBCHEM_EFFECTIVE_ROTOR_COUNT>  (1) 
4.6

>  <PUBCHEM_PHARMACOPHORE_FEATURES>  (1) 
10
1 1 acceptor
1 1 donor
1 13 hydrophobe
1 2 acceptor
1 3 acceptor
1 4 acceptor
1 5 donor
1 6 donor
6 14 16 17 18 19 20 rings
6 5 6 7 11 12 15 rings

>  <PUBCHEM_HEAVY_ATOM_COUNT>  (1) 
20

>  <PUBCHEM_ATOM_DEF_STEREO_COUNT>  (1) 
0

>  <PUBCHEM_ATOM_UDEF_STEREO_COUNT>  (1) 
1

>  <PUBCHEM_BOND_DEF_STEREO_COUNT>  (1) 
0

>  <PUBCHEM_BOND_UDEF_STEREO_COUNT>  (1) 
0

>  <PUBCHEM_ISOTOPIC_ATOM_COUNT>  (1) 
0

>  <PUBCHEM_COMPONENT_COUNT>  (1) 
1

>  <PUBCHEM_CACTVS_TAUTO_COUNT>  (1) 
5

>  <PUBCHEM_CONFORMER_ID>  (1) 
00006A3900000001

>  <PUBCHEM_MMFF94_ENERGY>  (1) 
66.269

>  <PUBCHEM_FEATURE_SELFOVERLAP>  (1) 
50.805

>  <PUBCHEM_SHAPE_FINGERPRINT>  (1) 
11405975 8 18410581695387900595
11578080 2 16227423271369726076
12011746 2 17418376874812663118
12633257 1 18337399253557493861
12916754 54 18187645847374427139
13134695 92 18201990032525160336
13224815 77 13830139377710706571
13464514 151 17823433754139422364
14252887 29 14261361275166505735
14289901 80 18268153235347746267
14863182 85 17203341000243002974
15163728 17 16302080261129881724
15788980 27 17060337405669508911
16752209 62 16443610330012336133
17349148 13 18202280303826579375
17492 89 18116998982247483603
17834072 14 17632014148151553659
18186145 218 17458911539095994355
19784866 140 13262672583093318770
19862831 5 16805041830907428643
20279233 1 17561366188661763871
20645477 70 18261395589343720527
21033648 29 17488725784155952563
21637258 2 17604697877546332002
2255824 54 17530969128369593140
23402539 116 18270952471740511141
23419403 2 18126256732714358424
23557571 272 18130504133299906689
23558518 356 11101284678415116054
23559900 14 18413394241451688349
26918003 58 17775281647375606467
3060560 45 13551193307460761498
312423 11 18114475543068715137
3286 77 18201995560321857705
42 15 18342173358561705035
474 4 17026007525687993109
4990 188 11602824575136434418
5104073 3 18337120059466608017
54040823 5 18334022709140684716
5895379 119 18270412576607824697
633830 44 17749105625966991595
67856867 119 18266739258646259205
7364860 26 18262238949122060500
74978 22 17895202150753989075
9709674 26 18115593806402535891
9971528 1 18334287669683435584
9981440 41 17467357059181048801

>  <PUBCHEM_SHAPE_MULTIPOLES>  (1) 
378.15
8.86
2.04
1.36
8.31
1.18
0.08
-2.78
-0.84
-1.3
0.32
-1.19
-0.07
-0.25

>  <PUBCHEM_SHAPE_SELFOVERLAP>  (1) 
808.016

>  <PUBCHEM_SHAPE_VOLUME>  (1) 
205.9

>  <PUBCHEM_COORDINATE_TYPE>  (1) 
2
5
10

$$$$
