2721
     RDKit          3D

 27 29  0  0  0  0  0  0  0  0999 V2000
   -0.8500   -3.0616    0.2767 Cl  0  0  0  0  0  0  0  0  0  0  0  0
   -5.1507   -0.5648   -1.7973 O   0  0  0  0  0  0  0  0  0  0  0  0
    1.7956    4.6401    0.2174 O   0  0  0  0  0  0  0  0  0  0  0  0
    5.5126   -1.8543   -0.1103 O   0  0  0  0  0  0  0  0  0  0  0  0
   -0.7834   -0.3354    0.3127 C   0  0  0  0  0  0  0  0  0  0  0  0
   -2.2759   -0.4308    0.4081 C   0  0  0  0  0  0  0  0  0  0  0  0
   -0.1144    0.9558    0.2886 C   0  0  0  0  0  0  0  0  0  0  0  0
   -0.0697   -1.5033    0.2509 C   0  0  0  0  0  0  0  0  0  0  0  0
    1.3972   -1.5952    0.1566 C   0  0  0  0  0  0  0  0  0  0  0  0
   -3.0056   -0.4536   -0.7552 C   0  0  0  0  0  0  0  0  0  0  0  0
    0.2849    1.5577    1.4817 C   0  0  0  0  0  0  0  0  0  0  0  0
    0.1279    1.5921   -0.9288 C   0  0  0  0  0  0  0  0  0  0  0  0
   -2.8478   -0.4904    1.6555 C   0  0  0  0  0  0  0  0  0  0  0  0
   -4.3949   -0.5417   -0.6655 C   0  0  0  0  0  0  0  0  0  0  0  0
    0.9266    2.7959    1.4577 C   0  0  0  0  0  0  0  0  0  0  0  0
    0.7697    2.8304   -0.9530 C   0  0  0  0  0  0  0  0  0  0  0  0
    2.1507   -1.6548    1.3179 C   0  0  0  0  0  0  0  0  0  0  0  0
    1.9963   -1.6207   -1.0928 C   0  0  0  0  0  0  0  0  0  0  0  0
    1.1692    3.4323    0.2403 C   0  0  0  0  0  0  0  0  0  0  0  0
   -4.2368   -0.5785    1.7452 C   0  0  0  0  0  0  0  0  0  0  0  0
   -5.0104   -0.6044    0.5847 C   0  0  0  0  0  0  0  0  0  0  0  0
    3.5399   -1.7420    1.2277 C   0  0  0  0  0  0  0  0  0  0  0  0
    3.3854   -1.7081   -1.1833 C   0  0  0  0  0  0  0  0  0  0  0  0
    4.1574   -1.7689   -0.0229 C   0  0  0  0  0  0  0  0  0  0  0  0
   -6.5650   -0.6540   -1.6317 C   0  0  0  0  0  0  0  0  0  0  0  0
    2.0123    5.2354   -1.0612 C   0  0  0  0  0  0  0  0  0  0  0  0
    6.0790   -1.8772   -1.4198 C   0  0  0  0  0  0  0  0  0  0  0  0
  1  8  1  0
  2 14  1  0
  2 25  1  0
  3 19  1  0
  3 26  1  0
  4 24  1  0
  4 27  1  0
  5  6  1  0
  5  7  1  0
  5  8  2  0
  6 10  2  0
  6 13  1  0
  7 11  2  0
  7 12  1  0
  8  9  1  0
  9 17  2  0
  9 18  1  0
 10 14  1  0
 11 15  1  0
 12 16  2  0
 13 20  2  0
 14 21  2  0
 15 19  2  0
 16 19  1  0
 17 22  1  0
 18 23  2  0
 20 21  1  0
 22 24  2  0
 23 24  1  0
M  END
>  <PUBCHEM_COMPOUND_CID>  (1) 
2721

>  <PUBCHEM_CONFORMER_RMSD>  (1) 
0.8

>  <PUBCHEM_CONFORMER_DIVERSEORDER>  (1) 
1
3
4
2

>  <PUBCHEM_MMFF94_PARTIAL_CHARGES>  (1) 
39
1 -0.14
10 -0.15
11 -0.15
12 -0.15
13 -0.15
14 0.08
15 -0.15
16 -0.15
17 -0.15
18 -0.15
19 0.08
2 -0.36
20 -0.15
21 -0.15
22 -0.15
23 -0.15
24 0.08
25 0.28
26 0.28
27 0.28
28 0.15
29 0.15
3 -0.36
30 0.15
31 0.15
32 0.15
33 0.15
34 0.15
35 0.15
36 0.15
37 0.15
38 0.15
39 0.15
4 -0.36
5 -0.06
6 0.03
7 0.03
8 0.11
9 0.03

>  <PUBCHEM_EFFECTIVE_ROTOR_COUNT>  (1) 
6

>  <PUBCHEM_PHARMACOPHORE_FEATURES>  (1) 
6
1 2 acceptor
1 3 acceptor
1 4 acceptor
6 6 10 13 14 20 21 rings
6 7 11 12 15 16 19 rings
6 9 17 18 22 23 24 rings

>  <PUBCHEM_HEAVY_ATOM_COUNT>  (1) 
27

>  <PUBCHEM_ATOM_DEF_STEREO_COUNT>  (1) 
0

>  <PUBCHEM_ATOM_UDEF_STEREO_COUNT>  (1) 
0

>  <PUBCHEM_BOND_DEF_STEREO_COUNT>  (1) 
0

>  <PUBCHEM_BOND_UDEF_STEREO_COUNT>  (1) 
1

>  <PUBCHEM_ISOTOPIC_ATOM_COUNT>  (1) 
0

>  <PUBCHEM_COMPONENT_COUNT>  (1) 
1

>  <PUBCHEM_CACTVS_TAUTO_COUNT>  (1) 
1

>  <PUBCHEM_CONFORMER_ID>  (1) 
00000AA100000001

>  <PUBCHEM_MMFF94_ENERGY>  (1) 
119.6108

>  <PUBCHEM_FEATURE_SELFOVERLAP>  (1) 
30.448

>  <PUBCHEM_SHAPE_FINGERPRINT>  (1) 
10006869 2 17399249547092286041
102385 1 17977666742418860938
10930396 42 18121466191096542690
11578080 2 17823417282791896063
11582403 64 14976272694695624440
11763715 3 16916800586337736515
12166972 35 18201994439572887083
12788726 201 17829322484703353720
13009979 54 17775291577651127667
13140716 1 17905053895145543240
13149001 5 18335146444004845315
133893 2 18048571988077293494
13540713 4 17897448513677557243
13590594 115 18338519617346833849
13681431 1 18412549811878741249
13911987 19 18261683596813149622
14068700 675 18131341978360941297
14347329 18 15937794230975978135
14347332 77 18052822443034624366
14556957 393 18117584863273346596
14955137 171 18339663186137170155
15198563 99 18194127317827930068
15230672 131 17613165479144802100
15439362 3 18265328589581026565
15927050 60 17836101335045471822
167882 2 18266175226229028669
17357779 13 18269825441729703299
17980427 23 17775574134653563315
1813 80 18272654506448922535
18222031 100 18271797995486451778
18785283 64 18191026904989513833
19053607 189 14567266129769600007
20600515 1 18270421411497587534
21304303 282 16964883075944645164
2132832 1 18202283594083174193
21344244 246 18198338657683210086
21641784 216 18194140538021538148
23402539 116 18270404871594575774
23559900 14 18261667164774105539
23576562 1 18337103575213619951
24771293 8 18273208712460768504
24771750 20 17974584790219919516
283562 15 18193279581377687850
3298306 158 18048607211653032636
3380486 145 18050015389600349433
4017518 198 17840588425557781956
465052 167 13613943552981842207
469060 322 18194703479047460562
5171179 24 18340473509122040501
6669772 16 18049453839917335268
7471813 234 18131067134850892737
7495541 125 17895772776157340731
81228 2 17906746799275248817

>  <PUBCHEM_SHAPE_MULTIPOLES>  (1) 
539.91
10.82
4.96
1.67
6.5
9.31
-0.04
-9
4.75
-6.77
0.63
0.9
-0.03
0.13

>  <PUBCHEM_SHAPE_SELFOVERLAP>  (1) 
1163.267

>  <PUBCHEM_SHAPE_VOLUME>  (1) 
299.9

>  <PUBCHEM_COORDINATE_TYPE>  (1) 
2
5
10

$$$$
