27213
     RDKit          3D

 18 20  0  0  1  0  0  0  0  0999 V2000
   -0.2105    1.7056    0.7669 O   0  0  0  0  0  0  0  0  0  0  0  0
   -3.0713    0.0170    0.0637 N   0  0  0  0  0  0  0  0  0  0  0  0
   -0.0979    0.3833    0.2123 C   0  0  0  0  0  0  0  0  0  0  0  0
   -0.8755   -0.5910    1.1460 C   0  0  0  0  0  0  0  0  0  0  0  0
   -0.8789    0.3412   -1.1355 C   0  0  0  0  0  0  0  0  0  0  0  0
   -0.8054   -2.0367    0.6074 C   0  0  0  0  0  0  0  0  0  0  0  0
   -0.8235   -1.0701   -1.7635 C   0  0  0  0  0  0  0  0  0  0  0  0
   -2.3415   -0.1127    1.3274 C   0  0  0  0  0  0  0  0  0  0  0  0
   -2.3422    0.8152   -0.9251 C   0  0  0  0  0  0  0  0  0  0  0  0
   -1.2833   -2.1962   -0.8363 C   0  0  0  0  0  0  0  0  0  0  0  0
    1.4146    0.1414    0.1288 C   0  0  0  0  0  0  0  0  0  0  0  0
   -4.4173    0.5405    0.2796 C   0  0  0  0  0  0  0  0  0  0  0  0
    2.0942   -0.3927    1.2220 C   0  0  0  0  0  0  0  0  0  0  0  0
    2.1052    0.4568   -1.0397 C   0  0  0  0  0  0  0  0  0  0  0  0
    0.4205    2.6714   -0.0614 C   0  0  0  0  0  0  0  0  0  0  0  0
    3.4695   -0.6123    1.1460 C   0  0  0  0  0  0  0  0  0  0  0  0
    3.4805    0.2369   -1.1158 C   0  0  0  0  0  0  0  0  0  0  0  0
    4.1628   -0.2976   -0.0229 C   0  0  0  0  0  0  0  0  0  0  0  0
  1  3  1  0
  1 15  1  0
  2  8  1  0
  2  9  1  0
  2 12  1  0
  3  4  1  0
  3  5  1  0
  3 11  1  0
  4  6  1  0
  4  8  1  0
  5  7  1  0
  5  9  1  0
  6 10  1  0
  7 10  1  0
 11 13  2  0
 11 14  1  0
 13 16  1  0
 14 17  2  0
 16 18  2  0
 17 18  1  0
M  END
>  <PUBCHEM_COMPOUND_CID>  (1) 
27213

>  <PUBCHEM_CONFORMER_RMSD>  (1) 
0.6

>  <PUBCHEM_CONFORMER_DIVERSEORDER>  (1) 
1
3
2

>  <PUBCHEM_MMFF94_PARTIAL_CHARGES>  (1) 
18
1 -0.56
11 -0.14
12 0.27
13 -0.15
14 -0.15
15 0.28
16 -0.15
17 -0.15
18 -0.15
2 -0.81
3 0.42
34 0.15
35 0.15
39 0.15
40 0.15
41 0.15
8 0.27
9 0.27

>  <PUBCHEM_EFFECTIVE_ROTOR_COUNT>  (1) 
3.4

>  <PUBCHEM_PHARMACOPHORE_FEATURES>  (1) 
5
1 1 acceptor
1 2 cation
6 11 13 14 16 17 18 rings
6 2 3 4 5 8 9 rings
6 3 4 5 6 7 10 rings

>  <PUBCHEM_HEAVY_ATOM_COUNT>  (1) 
18

>  <PUBCHEM_ATOM_DEF_STEREO_COUNT>  (1) 
0

>  <PUBCHEM_ATOM_UDEF_STEREO_COUNT>  (1) 
2

>  <PUBCHEM_BOND_DEF_STEREO_COUNT>  (1) 
0

>  <PUBCHEM_BOND_UDEF_STEREO_COUNT>  (1) 
0

>  <PUBCHEM_ISOTOPIC_ATOM_COUNT>  (1) 
0

>  <PUBCHEM_COMPONENT_COUNT>  (1) 
1

>  <PUBCHEM_CACTVS_TAUTO_COUNT>  (1) 
1

>  <PUBCHEM_CONFORMER_ID>  (1) 
00006A4D00000001

>  <PUBCHEM_MMFF94_ENERGY>  (1) 
68.312

>  <PUBCHEM_FEATURE_SELFOVERLAP>  (1) 
27.006

>  <PUBCHEM_SHAPE_FINGERPRINT>  (1) 
10863032 1 16805614680370038187
10948715 1 17749390321710245013
11578080 2 17825075303440654748
12173636 292 17312818281829797174
12403814 3 16443059512814089599
12423570 1 16171803539507375807
12491281 212 15410626864835128579
12592029 89 18340209596519473019
13024252 1 17603301553106799927
13083527 12 17120539201885117490
13172582 1 18343581849872946077
13538477 17 18334579074671948818
13581323 91 18411975849892734970
14115302 16 18186526514076993244
14943859 89 18411135835793795699
14993402 34 18343303669310218309
15048467 5 17022910046734194477
15309172 13 18412551989643353643
15375462 189 18113896082944367314
15852999 172 16917075472528438951
1601671 61 18268149764935602121
16752209 62 18337955571664678592
16945 1 18202280290635728789
17844478 74 14851602172088068894
18186145 218 16845288307027405801
18511873 20 18411701006303298873
18981168 100 15069716726080302388
19868273 325 18410571833763167582
200 152 17822009787896898600
20528008 55 15769772459697049118
20645476 183 17967825975852711722
21501502 16 18123183773427990845
22344851 262 16702013201516920821
22802520 49 14780365883593435030
23402539 116 18200866301397129332
23419403 2 16262005218112227269
23559900 14 15339114641855550734
2748010 2 18197208372456593416
296302 2 17060050488853254640
3286 77 18262512710584940065
34934 24 18338523057425519316
465052 167 18262249914511106115
74978 22 18268709583303385424
81228 2 18129111043398634080
90525 40 18114742638157367182

>  <PUBCHEM_SHAPE_MULTIPOLES>  (1) 
359.58
6.02
1.86
1.47
1.54
0.25
-0.2
0.12
0.46
-0.49
-0.07
0.03
-0.29
-0.38

>  <PUBCHEM_SHAPE_SELFOVERLAP>  (1) 
765.586

>  <PUBCHEM_SHAPE_VOLUME>  (1) 
196.8

>  <PUBCHEM_COORDINATE_TYPE>  (1) 
2
5
10

$$$$
