27217
     RDKit          3D

 20 20  0  0  0  0  0  0  0  0999 V2000
   -2.2627   -1.6613   -0.2184 O   0  0  0  0  0  0  0  0  0  0  0  0
   -1.0773   -0.2263    1.8516 O   0  0  0  0  0  0  0  0  0  0  0  0
   -2.5019    3.9045   -0.1619 N   0  0  0  0  0  0  0  0  0  0  0  0
    2.3065   -2.3579    0.7238 C   0  0  0  0  0  0  0  0  0  0  0  0
    3.4646   -1.4545    0.2907 C   0  0  0  0  0  0  0  0  0  0  0  0
    1.2240   -2.5145   -0.3464 C   0  0  0  0  0  0  0  0  0  0  0  0
    3.0405   -0.0093    0.0194 C   0  0  0  0  0  0  0  0  0  0  0  0
    0.0786   -3.4007    0.1500 C   0  0  0  0  0  0  0  0  0  0  0  0
    4.2461    0.8634   -0.3380 C   0  0  0  0  0  0  0  0  0  0  0  0
   -0.9914   -3.5830   -0.9305 C   0  0  0  0  0  0  0  0  0  0  0  0
    3.8313    2.3159   -0.5722 C   0  0  0  0  0  0  0  0  0  0  0  0
   -1.6288   -2.2606   -1.3391 C   0  0  0  0  0  0  0  0  0  0  0  0
    5.0309    3.1924   -0.8944 C   0  0  0  0  0  0  0  0  0  0  0  0
   -2.3159   -0.2914   -0.1963 C   0  0  0  0  0  0  0  0  0  0  0  0
   -1.7211    0.4245    0.8426 C   0  0  0  0  0  0  0  0  0  0  0  0
   -2.9721    0.3862   -1.2239 C   0  0  0  0  0  0  0  0  0  0  0  0
   -1.7825    1.8180    0.8538 C   0  0  0  0  0  0  0  0  0  0  0  0
   -3.0338    1.7797   -1.2125 C   0  0  0  0  0  0  0  0  0  0  0  0
   -2.4389    2.4956   -0.1736 C   0  0  0  0  0  0  0  0  0  0  0  0
   -0.4961    0.5791    2.8752 C   0  0  0  0  0  0  0  0  0  0  0  0
  1 12  1  0
  1 14  1  0
  2 15  1  0
  2 20  1  0
  3 19  1  0
  4  5  1  0
  4  6  1  0
  5  7  1  0
  6  8  1  0
  7  9  1  0
  8 10  1  0
  9 11  1  0
 10 12  1  0
 11 13  1  0
 14 15  2  0
 14 16  1  0
 15 17  1  0
 16 18  2  0
 17 19  2  0
 18 19  1  0
M  END
>  <PUBCHEM_COMPOUND_CID>  (1) 
27217

>  <PUBCHEM_CONFORMER_RMSD>  (1) 
1.2

>  <PUBCHEM_CONFORMER_DIVERSEORDER>  (1) 
5
13
9
97
42
70
25
8
17
77
15
69
10
90
22
85
66
43
37
26
72
57
48
47
83
98
18
6
74
76
19
35
75
89
67
3
71
81
55
44
1
93
59
14
29
51
32
78
54
11
30
7
50
36
38
12
23
94
39
28
45
87
64
41
86
96
40
88
82
20
62
46
21
2
92
33
58
95
34
63
16
91
73
52
4
56
31
68
99
61
65
80
49
53
79
27
84
24
60

>  <PUBCHEM_MMFF94_PARTIAL_CHARGES>  (1) 
16
1 -0.36
12 0.28
14 0.08
15 0.08
16 -0.15
17 -0.15
18 -0.15
19 0.1
2 -0.36
20 0.28
3 -0.9
42 0.15
43 0.15
44 0.15
45 0.4
46 0.4

>  <PUBCHEM_EFFECTIVE_ROTOR_COUNT>  (1) 
11

>  <PUBCHEM_PHARMACOPHORE_FEATURES>  (1) 
6
1 1 acceptor
1 13 hydrophobe
1 2 acceptor
1 3 cation
1 3 donor
6 14 15 16 17 18 19 rings

>  <PUBCHEM_HEAVY_ATOM_COUNT>  (1) 
20

>  <PUBCHEM_ATOM_DEF_STEREO_COUNT>  (1) 
0

>  <PUBCHEM_ATOM_UDEF_STEREO_COUNT>  (1) 
0

>  <PUBCHEM_BOND_DEF_STEREO_COUNT>  (1) 
0

>  <PUBCHEM_BOND_UDEF_STEREO_COUNT>  (1) 
0

>  <PUBCHEM_ISOTOPIC_ATOM_COUNT>  (1) 
0

>  <PUBCHEM_COMPONENT_COUNT>  (1) 
1

>  <PUBCHEM_CACTVS_TAUTO_COUNT>  (1) 
1

>  <PUBCHEM_CONFORMER_ID>  (1) 
00006A5100000005

>  <PUBCHEM_MMFF94_ENERGY>  (1) 
53.4523

>  <PUBCHEM_FEATURE_SELFOVERLAP>  (1) 
30.45

>  <PUBCHEM_SHAPE_FINGERPRINT>  (1) 
10670039 82 18047761683311821452
10871710 139 18194406812396935486
11370993 70 18197760129656825410
11725454 13 16953366881491784927
13583140 156 17606403146792313963
13617811 41 18267277955499940309
13994607 96 17244437609826614300
14123250 116 18336825402808127398
14468879 13 18187085056972255329
18785283 64 17764042272192370233
19930381 70 18121495756992199837
21095088 737 18122908896043403016
22749437 52 18270951337547547394
22907989 373 18272927245725657151
23379529 103 11849973340194880757
23419403 2 16016919858866166203
469060 322 17686356655972915354
474 4 17620186538732295663
5048184 11 18409731785584435276

>  <PUBCHEM_SHAPE_MULTIPOLES>  (1) 
394.87
7.62
5.13
1.64
10.68
0.51
-1.21
-7.13
2.73
0.17
1.42
-0.8
-0.25
-1.44

>  <PUBCHEM_SHAPE_SELFOVERLAP>  (1) 
773.588

>  <PUBCHEM_SHAPE_VOLUME>  (1) 
238.4

>  <PUBCHEM_COORDINATE_TYPE>  (1) 
2
5
10

$$$$
