27229
     RDKit          3D

 20 21  0  0  0  0  0  0  0  0999 V2000
    1.3560    1.2641    0.8519 O   0  0  0  0  0  0  0  0  0  0  0  0
    1.6265   -1.4783    1.2156 O   0  0  0  0  0  0  0  0  0  0  0  0
    5.5500   -1.4735   -1.5678 N   0  0  0  0  0  0  0  0  0  0  0  0
   -1.4288    1.3906    0.0875 C   0  0  0  0  0  0  0  0  0  0  0  0
   -0.5985    2.6030    0.5036 C   0  0  0  0  0  0  0  0  0  0  0  0
   -2.9011    1.5707    0.4635 C   0  0  0  0  0  0  0  0  0  0  0  0
    0.8750    2.4154    0.1719 C   0  0  0  0  0  0  0  0  0  0  0  0
   -3.7360    0.3947    0.0255 C   0  0  0  0  0  0  0  0  0  0  0  0
   -4.3185    0.4035   -1.2333 C   0  0  0  0  0  0  0  0  0  0  0  0
   -3.9089   -0.6777    0.8879 C   0  0  0  0  0  0  0  0  0  0  0  0
    2.3861    0.5811    0.2593 C   0  0  0  0  0  0  0  0  0  0  0  0
    2.5158   -0.7908    0.4461 C   0  0  0  0  0  0  0  0  0  0  0  0
   -5.0912   -0.6847   -1.6388 C   0  0  0  0  0  0  0  0  0  0  0  0
   -4.6816   -1.7659    0.4824 C   0  0  0  0  0  0  0  0  0  0  0  0
    3.2967    1.2776   -0.5281 C   0  0  0  0  0  0  0  0  0  0  0  0
   -5.2727   -1.7694   -0.7809 C   0  0  0  0  0  0  0  0  0  0  0  0
    3.5687   -1.4745   -0.1619 C   0  0  0  0  0  0  0  0  0  0  0  0
    4.4854   -0.7822   -0.9529 C   0  0  0  0  0  0  0  0  0  0  0  0
    4.3495    0.5939   -1.1360 C   0  0  0  0  0  0  0  0  0  0  0  0
    1.9277   -1.5977    2.6045 C   0  0  0  0  0  0  0  0  0  0  0  0
  1  7  1  0
  1 11  1  0
  2 12  1  0
  2 20  1  0
  3 18  1  0
  4  5  1  0
  4  6  1  0
  5  7  1  0
  6  8  1  0
  8  9  2  0
  8 10  1  0
  9 13  1  0
 10 14  2  0
 11 12  2  0
 11 15  1  0
 12 17  1  0
 13 16  2  0
 14 16  1  0
 15 19  2  0
 17 18  2  0
 18 19  1  0
M  END
>  <PUBCHEM_COMPOUND_CID>  (1) 
27229

>  <PUBCHEM_CONFORMER_RMSD>  (1) 
0.8

>  <PUBCHEM_CONFORMER_DIVERSEORDER>  (1) 
3
48
80
172
30
146
170
64
160
4
187
70
18
75
40
155
157
73
77
53
168
116
165
173
115
5
190
25
184
6
189
100
118
57
136
1
124
139
83
154
32
86
84
45
38
127
96
149
22
114
192
142
10
89
128
119
121
23
94
72
54
131
65
110
182
186
141
162
79
163
28
46
193
117
145
90
135
56
59
60
50
196
49
47
111
2
198
55
120
191
167
35
171
87
140
188
199
181
44
150
152
112
34
26
166
37
41
61
104
9
66
138
130
126
175
74
88
185
158
17
58
151
179
68
144
31
125
27
102
178
91
81
20
129
101
161
13
62
43
12
39
11
177
108
99
51
123
16
176
24
7
71
197
106
113
105
109
19
29
78
159
92
194
67
195
21
36
107
85
143
174
169
122
200
93
164
63
103
82
137
52
147
97
15
180
133
95
183
42
153
156
8
98
148
33
14
69
132
134
76

>  <PUBCHEM_MMFF94_PARTIAL_CHARGES>  (1) 
28
1 -0.36
10 -0.15
11 0.08
12 0.08
13 -0.15
14 -0.15
15 -0.15
16 -0.15
17 -0.15
18 0.1
19 -0.15
2 -0.36
20 0.28
29 0.15
3 -0.9
30 0.15
31 0.15
32 0.15
33 0.15
34 0.15
35 0.15
36 0.15
37 0.4
38 0.4
6 0.14
7 0.28
8 -0.14
9 -0.15

>  <PUBCHEM_EFFECTIVE_ROTOR_COUNT>  (1) 
7

>  <PUBCHEM_PHARMACOPHORE_FEATURES>  (1) 
6
1 1 acceptor
1 2 acceptor
1 3 cation
1 3 donor
6 11 12 15 17 18 19 rings
6 8 9 10 13 14 16 rings

>  <PUBCHEM_HEAVY_ATOM_COUNT>  (1) 
20

>  <PUBCHEM_ATOM_DEF_STEREO_COUNT>  (1) 
0

>  <PUBCHEM_ATOM_UDEF_STEREO_COUNT>  (1) 
0

>  <PUBCHEM_BOND_DEF_STEREO_COUNT>  (1) 
0

>  <PUBCHEM_BOND_UDEF_STEREO_COUNT>  (1) 
0

>  <PUBCHEM_ISOTOPIC_ATOM_COUNT>  (1) 
0

>  <PUBCHEM_COMPONENT_COUNT>  (1) 
1

>  <PUBCHEM_CACTVS_TAUTO_COUNT>  (1) 
1

>  <PUBCHEM_CONFORMER_ID>  (1) 
00006A5D00000003

>  <PUBCHEM_MMFF94_ENERGY>  (1) 
74.7425

>  <PUBCHEM_FEATURE_SELFOVERLAP>  (1) 
30.45

>  <PUBCHEM_SHAPE_FINGERPRINT>  (1) 
10319688 77 15363291592485522930
108634 29 18188783871631549178
10928967 22 18273209803171991103
10968037 57 18131353016643098173
11069576 57 17678437693650934762
11545043 162 16773795862061204465
12553582 1 18336263462219617193
12592606 108 18201721800024516439
12788726 201 18196088833729405593
13103583 49 14979962453886456227
13533116 47 17986670592452834929
14123255 352 10665228176475802229
14251740 57 17844799472817222607
14251764 30 16845305903751037308
14251764 38 12253059332022291711
14576447 43 18409451354353030820
14767858 380 18264786496537336996
14931854 50 18186517709352410135
14950920 106 14692279673454434991
14951699 99 8429439387360437982
15188451 53 15554434220353066037
15352361 1 18342458153516454485
15537594 2 18261399901643477169
17870717 6 18114178662344793047
18222031 100 17988912397439766133
18915474 69 18410296895468575932
193927 3 18202849859276308157
20291156 8 18343017805030204337
20621476 21 17273716260260400214
20645477 70 18267856349881048373
20715895 44 9294751765454232895
21054139 6 18187364320699970450
21304253 335 9079111155357254066
221357 26 18409168844125885891
2215653 11 18338222848270494661
22393880 68 18261387823794890613
22950370 63 18201447973181805869
23379529 103 17841727213948998950
23503958 8 17417820482657131161
235170 7 16515399668898585135
23559900 14 18272078431735295577
23596394 208 17968084344211221213
2838139 119 14562820984056257150
2871803 45 18260829306242404888
312425 83 15937518261614967023
3472631 163 13334735734966692295
351380 3 18273217517101383983
3737641 26 16915959373969159182
4259306 186 18412826893288485517
46194498 28 17314511641991512149
6328613 192 9511451248318921026
7970288 3 18131349734877271223
960060 61 18113607989565601653

>  <PUBCHEM_SHAPE_MULTIPOLES>  (1) 
394.87
13.1
2.54
1.61
5.32
0.79
-0.4
-7.18
6.54
0.03
-0.57
-0.59
-0.86
-0.33

>  <PUBCHEM_SHAPE_SELFOVERLAP>  (1) 
824.012

>  <PUBCHEM_SHAPE_VOLUME>  (1) 
224.6

>  <PUBCHEM_COORDINATE_TYPE>  (1) 
2
5
10

$$$$
