27234
     RDKit          3D

 22 23  0  0  0  0  0  0  0  0999 V2000
   -2.2065   -1.2576   -0.8973 O   0  0  0  0  0  0  0  0  0  0  0  0
   -2.3028    1.4920   -0.5067 O   0  0  0  0  0  0  0  0  0  0  0  0
   -6.8910    1.1444    0.8984 N   0  0  0  0  0  0  0  0  0  0  0  0
    2.0274   -0.9415   -0.1626 C   0  0  0  0  0  0  0  0  0  0  0  0
    0.5099   -0.9018    0.0246 C   0  0  0  0  0  0  0  0  0  0  0  0
    2.6551    0.4283    0.1042 C   0  0  0  0  0  0  0  0  0  0  0  0
   -0.1228   -2.2594   -0.2733 C   0  0  0  0  0  0  0  0  0  0  0  0
    4.1547    0.3923   -0.0434 C   0  0  0  0  0  0  0  0  0  0  0  0
   -1.6281   -2.2392   -0.0482 C   0  0  0  0  0  0  0  0  0  0  0  0
    4.9623    0.1007    1.0470 C   0  0  0  0  0  0  0  0  0  0  0  0
    4.7051    0.6568   -1.2902 C   0  0  0  0  0  0  0  0  0  0  0  0
    6.3479    0.0729    0.8876 C   0  0  0  0  0  0  0  0  0  0  0  0
    4.3817   -0.1843    2.3931 C   0  0  0  0  0  0  0  0  0  0  0  0
    6.0905    0.6288   -1.4494 C   0  0  0  0  0  0  0  0  0  0  0  0
    6.9119    0.3369   -0.3606 C   0  0  0  0  0  0  0  0  0  0  0  0
   -3.3565   -0.6571   -0.4549 C   0  0  0  0  0  0  0  0  0  0  0  0
   -3.3978    0.7195   -0.2620 C   0  0  0  0  0  0  0  0  0  0  0  0
   -4.4770   -1.4414   -0.2031 C   0  0  0  0  0  0  0  0  0  0  0  0
   -4.5741    1.3191    0.1884 C   0  0  0  0  0  0  0  0  0  0  0  0
   -5.7017    0.5384    0.4429 C   0  0  0  0  0  0  0  0  0  0  0  0
   -5.6530   -0.8419    0.2472 C   0  0  0  0  0  0  0  0  0  0  0  0
   -2.4352    2.8941   -0.2818 C   0  0  0  0  0  0  0  0  0  0  0  0
  1  9  1  0
  1 16  1  0
  2 17  1  0
  2 22  1  0
  3 20  1  0
  4  5  1  0
  4  6  1  0
  5  7  1  0
  6  8  1  0
  7  9  1  0
  8 10  2  0
  8 11  1  0
 10 12  1  0
 10 13  1  0
 11 14  2  0
 12 15  2  0
 14 15  1  0
 16 17  2  0
 16 18  1  0
 17 19  1  0
 18 21  2  0
 19 20  2  0
 20 21  1  0
M  END
>  <PUBCHEM_COMPOUND_CID>  (1) 
27234

>  <PUBCHEM_CONFORMER_RMSD>  (1) 
1

>  <PUBCHEM_CONFORMER_DIVERSEORDER>  (1) 
3
640
695
63
122
809
20
833
385
1
532
835
115
25
499
167
894
351
58
40
779
6
264
406
409
696
166
85
275
59
808
17
475
458
215
806
524
8
619
384
530
777
665
21
819
2
282
440
68
561
551
641
891
394
14
654
30
102
325
367
56
876
19
155
886
112
51
332
445
464
745
331
260
319
341
18
361
333
100
206
435
184
706
50
151
907
293
54
15
10
365
27
846
780
72
693
219
190
776
45
141
43
131
770
805
314
598
84
899
908
774
537
159
823
412
647
471
196
816
721
883
410
323
32
11
74
910
649
248
41
826
726
149
105
366
273
858
838
158
377
482
34
476
4
26
547
402
831
165
281
575
64
540
851
9
798
615
469
508
205
180
29
878
113
903
144
28
139
565
271
177
465
259
569
419
538
82
253
69
183
315
87
690
182
110
492
630
213
683
490
191
239
217
123
91
204
481
306
89
338
65
316
873
346
848
246
46
395
48
892
231
81
337
866
210
161
344
856
712
728
297
317

>  <PUBCHEM_MMFF94_PARTIAL_CHARGES>  (1) 
28
1 -0.36
10 -0.14
11 -0.15
12 -0.15
13 0.14
14 -0.15
15 -0.15
16 0.08
17 0.08
18 -0.15
19 -0.15
2 -0.36
20 0.1
21 -0.15
22 0.28
3 -0.9
33 0.15
34 0.15
38 0.15
39 0.15
40 0.15
41 0.15
42 0.15
43 0.4
44 0.4
6 0.14
8 -0.14
9 0.28

>  <PUBCHEM_EFFECTIVE_ROTOR_COUNT>  (1) 
8

>  <PUBCHEM_PHARMACOPHORE_FEATURES>  (1) 
7
1 1 acceptor
1 2 acceptor
1 3 cation
1 3 donor
4 4 5 6 7 hydrophobe
6 16 17 18 19 20 21 rings
6 8 10 11 12 14 15 rings

>  <PUBCHEM_HEAVY_ATOM_COUNT>  (1) 
22

>  <PUBCHEM_ATOM_DEF_STEREO_COUNT>  (1) 
0

>  <PUBCHEM_ATOM_UDEF_STEREO_COUNT>  (1) 
0

>  <PUBCHEM_BOND_DEF_STEREO_COUNT>  (1) 
0

>  <PUBCHEM_BOND_UDEF_STEREO_COUNT>  (1) 
0

>  <PUBCHEM_ISOTOPIC_ATOM_COUNT>  (1) 
0

>  <PUBCHEM_COMPONENT_COUNT>  (1) 
1

>  <PUBCHEM_CACTVS_TAUTO_COUNT>  (1) 
1

>  <PUBCHEM_CONFORMER_ID>  (1) 
00006A6200000003

>  <PUBCHEM_MMFF94_ENERGY>  (1) 
78.2189

>  <PUBCHEM_FEATURE_SELFOVERLAP>  (1) 
35.524

>  <PUBCHEM_SHAPE_FINGERPRINT>  (1) 
10 15 18113623370202054793
10670039 82 18410294688287831292
10730089 173 18411703188041164372
10803635 8 11600012024703936787
11646440 116 17988933291959997249
12107183 9 17537702310350892210
12236239 1 17822007618975278806
12390115 104 18129953269363324697
12516196 113 12540695924808456918
12596602 18 17167579397117732072
12838862 33 18339066126276033853
13402501 40 18131069346278982656
13533116 47 17095234805302697720
14251764 18 18113616816055658718
14341114 176 16226045596089824894
14341114 328 18113336397335006427
15183329 4 16200157568885889950
15419008 47 17632295679538437368
15575132 122 18114179714068975133
15685185 35 16808441650337968404
20281389 69 18334573551544446692
20621476 66 18412829118345126236
21033648 29 17632001053455833210
21623969 137 14779258709954818074
22061861 79 16056886836158034046
23198884 109 15985107401387462003
5385378 56 18342181012077992538
59682541 35 18188217584904815737
59755656 215 17989492905130095534
59755656 520 17530683242382972283

>  <PUBCHEM_SHAPE_MULTIPOLES>  (1) 
436.03
19.46
2.07
1.25
6.96
0.2
0.47
5.13
2.13
-2.99
-0.29
2.19
0.06
-0.99

>  <PUBCHEM_SHAPE_SELFOVERLAP>  (1) 
905.667

>  <PUBCHEM_SHAPE_VOLUME>  (1) 
249.5

>  <PUBCHEM_COORDINATE_TYPE>  (1) 
2
5
10

$$$$
