27232
     RDKit          3D

 23 24  0  0  0  0  0  0  0  0999 V2000
    2.9982    1.0462   -0.6610 O   0  0  0  0  0  0  0  0  0  0  0  0
    5.0015    1.6371    1.1785 O   0  0  0  0  0  0  0  0  0  0  0  0
    7.1502   -2.5607    0.2250 N   0  0  0  0  0  0  0  0  0  0  0  0
   -1.8619    1.7366   -0.3556 C   0  0  0  0  0  0  0  0  0  0  0  0
   -3.2423    1.1858   -0.7198 C   0  0  0  0  0  0  0  0  0  0  0  0
   -0.7454    0.8551   -0.9172 C   0  0  0  0  0  0  0  0  0  0  0  0
   -4.3587    2.0518   -0.1283 C   0  0  0  0  0  0  0  0  0  0  0  0
    0.6318    1.3863   -0.5257 C   0  0  0  0  0  0  0  0  0  0  0  0
   -5.7615    1.5539   -0.4940 C   0  0  0  0  0  0  0  0  0  0  0  0
    1.7479    0.4910   -1.0448 C   0  0  0  0  0  0  0  0  0  0  0  0
   -6.0583    0.1574   -0.0088 C   0  0  0  0  0  0  0  0  0  0  0  0
   -6.6256   -0.0378    1.2506 C   0  0  0  0  0  0  0  0  0  0  0  0
   -5.7653   -0.9396   -0.8192 C   0  0  0  0  0  0  0  0  0  0  0  0
    4.0238    0.1649   -0.4366 C   0  0  0  0  0  0  0  0  0  0  0  0
   -6.8997   -1.3297    1.6994 C   0  0  0  0  0  0  0  0  0  0  0  0
   -6.0395   -2.2314   -0.3704 C   0  0  0  0  0  0  0  0  0  0  0  0
   -6.6067   -2.4265    0.8888 C   0  0  0  0  0  0  0  0  0  0  0  0
    5.0260    0.4640    0.4864 C   0  0  0  0  0  0  0  0  0  0  0  0
    4.0598   -1.0395   -1.1396 C   0  0  0  0  0  0  0  0  0  0  0  0
    6.0644   -0.4412    0.7061 C   0  0  0  0  0  0  0  0  0  0  0  0
    5.0980   -1.9445   -0.9198 C   0  0  0  0  0  0  0  0  0  0  0  0
    6.1003   -1.6454    0.0030 C   0  0  0  0  0  0  0  0  0  0  0  0
    6.0630    1.8664    2.1029 C   0  0  0  0  0  0  0  0  0  0  0  0
  1 10  1  0
  1 14  1  0
  2 18  1  0
  2 23  1  0
  3 22  1  0
  4  5  1  0
  4  6  1  0
  5  7  1  0
  6  8  1  0
  7  9  1  0
  8 10  1  0
  9 11  1  0
 11 12  2  0
 11 13  1  0
 12 15  1  0
 13 16  2  0
 14 18  2  0
 14 19  1  0
 15 17  2  0
 16 17  1  0
 18 20  1  0
 19 21  2  0
 20 22  2  0
 21 22  1  0
M  END
>  <PUBCHEM_COMPOUND_CID>  (1) 
27232

>  <PUBCHEM_CONFORMER_RMSD>  (1) 
1.2

>  <PUBCHEM_CONFORMER_DIVERSEORDER>  (1) 
7
513
147
151
84
74
248
44
264
1
288
31
257
176
226
64
28
457
90
19
469
5
497
386
2
132
12
313
366
448
377
193
67
154
164
38
402
162
24
102
182
405
137
159
270
22
188
17
33
14
460
109
276
492
75
153
219
18
99
53
223
55
357
481
8
104
149
389
9
371
368
29
106
274
97
275
93
165
119
77
113
66
186
58
283
523
152
302
266
192
505
21
20
105
269
35
23
91
538
413
138
4
537
190
217
372
179
47
349
364
401
544
211
191
494
15
527
196

>  <PUBCHEM_MMFF94_PARTIAL_CHARGES>  (1) 
28
1 -0.36
10 0.28
11 -0.14
12 -0.15
13 -0.15
14 0.08
15 -0.15
16 -0.15
17 -0.15
18 0.08
19 -0.15
2 -0.36
20 -0.15
21 -0.15
22 0.1
23 0.28
3 -0.9
38 0.15
39 0.15
40 0.15
41 0.15
42 0.15
43 0.15
44 0.15
45 0.15
46 0.4
47 0.4
9 0.14

>  <PUBCHEM_EFFECTIVE_ROTOR_COUNT>  (1) 
10

>  <PUBCHEM_PHARMACOPHORE_FEATURES>  (1) 
8
1 1 acceptor
1 2 acceptor
1 3 cation
1 3 donor
3 4 6 8 hydrophobe
3 5 7 9 hydrophobe
6 11 12 13 15 16 17 rings
6 14 18 19 20 21 22 rings

>  <PUBCHEM_HEAVY_ATOM_COUNT>  (1) 
23

>  <PUBCHEM_ATOM_DEF_STEREO_COUNT>  (1) 
0

>  <PUBCHEM_ATOM_UDEF_STEREO_COUNT>  (1) 
0

>  <PUBCHEM_BOND_DEF_STEREO_COUNT>  (1) 
0

>  <PUBCHEM_BOND_UDEF_STEREO_COUNT>  (1) 
0

>  <PUBCHEM_ISOTOPIC_ATOM_COUNT>  (1) 
0

>  <PUBCHEM_COMPONENT_COUNT>  (1) 
1

>  <PUBCHEM_CACTVS_TAUTO_COUNT>  (1) 
1

>  <PUBCHEM_CONFORMER_ID>  (1) 
00006A6000000007

>  <PUBCHEM_MMFF94_ENERGY>  (1) 
73.4999

>  <PUBCHEM_FEATURE_SELFOVERLAP>  (1) 
40.598

>  <PUBCHEM_SHAPE_FINGERPRINT>  (1) 
10066227 112 8862942771179185519
10378564 45 7853579019712732900
10554248 39 13118274837740616488
11761917 87 17059227929982033526
11991303 11 13912617095000825649
12596602 18 18201999915160363313
13167372 99 11095883748423866988
1361 4 17970921174632095151
13627175 4 16805609144331540769
13668630 136 17385726885030077543
13782708 43 18113898264714212349
14211702 104 18335146396986622943
14461889 52 18339918316227027240
15183329 4 15574716897906389851
15348495 7 18202561791493305393
15352257 5 18411702084271791187
15419008 91 18115568418661738189
15475509 35 17970615309111195690
16994733 274 12247671656474509438
17780758 139 18130796655586578369
190975 80 18059571442641196581
20281389 69 11527952240438422853
20398071 356 18334584533828758575
21424621 283 11959727166198980677
21623969 137 17988927751473251871
21781055 127 14549025386541418468
229767 44 18272373118110705959
2303208 19 18412263917570658581
23081809 10 15213299690483649533
312425 54 18343027662217402289
3383291 50 18041000691512493499
3663271 9 17775286084102969633
397830 11 18340762723450249549
5104073 3 18131071497968180720
59682541 52 12251894889558871800
6328613 192 10159697989017358439
636775 72 10879407514007597142
999808 66 18335424569376082631

>  <PUBCHEM_SHAPE_MULTIPOLES>  (1) 
456.61
26.24
2.71
1.42
4.51
0.92
0.6
13.03
8.83
0.42
0.25
-0.42
-0.16
3.02

>  <PUBCHEM_SHAPE_SELFOVERLAP>  (1) 
937.233

>  <PUBCHEM_SHAPE_VOLUME>  (1) 
263.7

>  <PUBCHEM_COORDINATE_TYPE>  (1) 
2
5
10

$$$$
