27230
     RDKit          3D

 21 22  0  0  0  0  0  0  0  0999 V2000
    2.0768    0.0264   -0.7433 O   0  0  0  0  0  0  0  0  0  0  0  0
    3.8416    2.1268   -0.2977 O   0  0  0  0  0  0  0  0  0  0  0  0
    7.3723   -1.0152    0.6032 N   0  0  0  0  0  0  0  0  0  0  0  0
   -1.4069   -0.6174    0.5081 C   0  0  0  0  0  0  0  0  0  0  0  0
   -2.7817   -0.1833   -0.0029 C   0  0  0  0  0  0  0  0  0  0  0  0
   -0.2885   -0.0887   -0.3872 C   0  0  0  0  0  0  0  0  0  0  0  0
   -3.9022   -0.7420    0.8768 C   0  0  0  0  0  0  0  0  0  0  0  0
    1.0850   -0.4810    0.1386 C   0  0  0  0  0  0  0  0  0  0  0  0
   -5.2601   -0.2914    0.4025 C   0  0  0  0  0  0  0  0  0  0  0  0
   -5.9483   -1.0605   -0.5241 C   0  0  0  0  0  0  0  0  0  0  0  0
   -5.8005    0.8849    0.9006 C   0  0  0  0  0  0  0  0  0  0  0  0
    3.3838   -0.2203   -0.4119 C   0  0  0  0  0  0  0  0  0  0  0  0
   -7.2051   -0.6438   -0.9627 C   0  0  0  0  0  0  0  0  0  0  0  0
   -7.0573    1.3017    0.4621 C   0  0  0  0  0  0  0  0  0  0  0  0
    4.2611    0.8353   -0.1887 C   0  0  0  0  0  0  0  0  0  0  0  0
    3.8175   -1.5371   -0.3010 C   0  0  0  0  0  0  0  0  0  0  0  0
   -7.7596    0.5374   -0.4695 C   0  0  0  0  0  0  0  0  0  0  0  0
    5.5883    0.5711    0.1494 C   0  0  0  0  0  0  0  0  0  0  0  0
    6.0301   -0.7472    0.2622 C   0  0  0  0  0  0  0  0  0  0  0  0
    5.1447   -1.8012    0.0370 C   0  0  0  0  0  0  0  0  0  0  0  0
    4.8090    3.1454   -0.0515 C   0  0  0  0  0  0  0  0  0  0  0  0
  1  8  1  0
  1 12  1  0
  2 15  1  0
  2 21  1  0
  3 19  1  0
  4  5  1  0
  4  6  1  0
  5  7  1  0
  6  8  1  0
  7  9  1  0
  9 10  2  0
  9 11  1  0
 10 13  1  0
 11 14  2  0
 12 15  2  0
 12 16  1  0
 13 17  2  0
 14 17  1  0
 15 18  1  0
 16 20  2  0
 18 19  2  0
 19 20  1  0
M  END
>  <PUBCHEM_COMPOUND_CID>  (1) 
27230

>  <PUBCHEM_CONFORMER_RMSD>  (1) 
1

>  <PUBCHEM_CONFORMER_DIVERSEORDER>  (1) 
3
48
246
12
514
77
99
61
447
313
522
505
13
432
105
336
27
130
198
164
16
7
201
66
343
4
470
44
320
1
260
17
484
55
435
18
15
274
423
229
194
218
495
9
156
58
442
2
33
217
128
34
6
271
381
231
29
85
489
113
301
257
22
31
295
253
64
384
35
82
457
155
247
286
24
19
117
182
87
72
47
95
387
212
383
189
56
141
487
486
311
477
168
51
197
372
366
60
186
279
391
443
206
428
378
481

>  <PUBCHEM_MMFF94_PARTIAL_CHARGES>  (1) 
28
1 -0.36
10 -0.15
11 -0.15
12 0.08
13 -0.15
14 -0.15
15 0.08
16 -0.15
17 -0.15
18 -0.15
19 0.1
2 -0.36
20 -0.15
21 0.28
3 -0.9
32 0.15
33 0.15
34 0.15
35 0.15
36 0.15
37 0.15
38 0.15
39 0.15
40 0.4
41 0.4
7 0.14
8 0.28
9 -0.14

>  <PUBCHEM_EFFECTIVE_ROTOR_COUNT>  (1) 
8

>  <PUBCHEM_PHARMACOPHORE_FEATURES>  (1) 
7
1 1 acceptor
1 2 acceptor
1 3 cation
1 3 donor
4 4 5 6 7 hydrophobe
6 12 15 16 18 19 20 rings
6 9 10 11 13 14 17 rings

>  <PUBCHEM_HEAVY_ATOM_COUNT>  (1) 
21

>  <PUBCHEM_ATOM_DEF_STEREO_COUNT>  (1) 
0

>  <PUBCHEM_ATOM_UDEF_STEREO_COUNT>  (1) 
0

>  <PUBCHEM_BOND_DEF_STEREO_COUNT>  (1) 
0

>  <PUBCHEM_BOND_UDEF_STEREO_COUNT>  (1) 
0

>  <PUBCHEM_ISOTOPIC_ATOM_COUNT>  (1) 
0

>  <PUBCHEM_COMPONENT_COUNT>  (1) 
1

>  <PUBCHEM_CACTVS_TAUTO_COUNT>  (1) 
1

>  <PUBCHEM_CONFORMER_ID>  (1) 
00006A5E00000003

>  <PUBCHEM_MMFF94_ENERGY>  (1) 
73.7731

>  <PUBCHEM_FEATURE_SELFOVERLAP>  (1) 
35.524

>  <PUBCHEM_SHAPE_FINGERPRINT>  (1) 
10162869 55 18272358806566836718
10411042 1 18122063093115129910
10835480 77 18263082270013365425
11089746 13 18409450289032329963
11315181 36 17060619993733982395
11719270 70 17561365054263423406
11724838 91 17988921176379481254
12091667 2 18272653442336250323
12236239 1 18343584049418558103
125118 31 18335141994555876541
13167372 99 18341898467527519393
13533116 47 17385714760490603394
13878862 14 18339066190305054084
14123256 10 15051731980589501639
14251764 18 18412263934855704244
14251764 46 16415478242325524502
14347424 109 18335415790626674360
14429380 56 18411409635806477685
14933364 13 18408324389225824381
15183329 4 18342462530177845489
15348495 7 18041288775936671075
15419008 47 17385436618335038477
20157964 124 18413111666947739778
20281389 69 18260830389244076501
21150785 3 11600001054914299067
21315763 28 18411699889938875463
220451 1 11458425756179161985
22224240 67 17275098427749238566
23035841 295 7853852780943640287
23081809 10 17917717907218521961
23198884 109 18409448086357795675
23536379 177 18341896277500126931
249057 25 17988373601981887624
255183 451 17985840220730341734
28498 318 17603582989613785146
29717793 49 18272938202013448182
328310 630 18342750637048648601
397830 11 17387146458027161145
4073 2 18041565857067477018
4325135 7 18131631179809724607
44555599 121 18272380754488627121
59755656 215 17022899021453113771
999808 66 11023816311328972189

>  <PUBCHEM_SHAPE_MULTIPOLES>  (1) 
415.45
25.39
1.93
0.85
20.21
1.5
-0.02
1.4
0.07
-3.53
0.05
0.77
-0.05
-0.89

>  <PUBCHEM_SHAPE_SELFOVERLAP>  (1) 
861.424

>  <PUBCHEM_SHAPE_VOLUME>  (1) 
237.7

>  <PUBCHEM_COORDINATE_TYPE>  (1) 
2
5
10

$$$$
