27236
     RDKit          3D

 24 25  0  0  0  0  0  0  0  0999 V2000
    3.5299    0.2666    0.0875 S   0  0  0  0  0  0  0  0  0  0  0  0
   -1.5493   -2.5397    0.0391 O   0  0  0  0  0  0  0  0  0  0  0  0
    4.1820   -0.0674   -1.1675 O   0  0  0  0  0  0  0  0  0  0  0  0
    4.2806    0.9119    1.1514 O   0  0  0  0  0  0  0  0  0  0  0  0
   -0.9265   -0.6071    1.9368 O   0  0  0  0  0  0  0  0  0  0  0  0
   -4.0511    2.4261   -0.1087 N   0  0  0  0  0  0  0  0  0  0  0  0
    1.8670   -1.8913   -0.2314 C   0  0  0  0  0  0  0  0  0  0  0  0
    1.2553   -3.1757    0.3341 C   0  0  0  0  0  0  0  0  0  0  0  0
    2.7951   -1.1924    0.7524 C   0  0  0  0  0  0  0  0  0  0  0  0
    0.3277   -3.8406   -0.6815 C   0  0  0  0  0  0  0  0  0  0  0  0
   -0.7976   -2.9088   -1.1089 C   0  0  0  0  0  0  0  0  0  0  0  0
    2.1508    1.3003   -0.3083 C   0  0  0  0  0  0  0  0  0  0  0  0
    1.5807    1.2128   -1.5662 C   0  0  0  0  0  0  0  0  0  0  0  0
    1.6682    2.1771    0.6472 C   0  0  0  0  0  0  0  0  0  0  0  0
   -2.1601   -1.3129    0.0103 C   0  0  0  0  0  0  0  0  0  0  0  0
    0.4933    2.0286   -1.8788 C   0  0  0  0  0  0  0  0  0  0  0  0
    0.5806    2.9927    0.3348 C   0  0  0  0  0  0  0  0  0  0  0  0
   -0.0068    2.9186   -0.9282 C   0  0  0  0  0  0  0  0  0  0  0  0
   -1.8440   -0.3506    0.9630 C   0  0  0  0  0  0  0  0  0  0  0  0
   -3.0975   -1.0460   -0.9817 C   0  0  0  0  0  0  0  0  0  0  0  0
   -2.4729    0.8939    0.9233 C   0  0  0  0  0  0  0  0  0  0  0  0
   -3.7267    0.1983   -1.0213 C   0  0  0  0  0  0  0  0  0  0  0  0
   -3.4143    1.1683   -0.0689 C   0  0  0  0  0  0  0  0  0  0  0  0
   -0.6644    0.4376    2.8717 C   0  0  0  0  0  0  0  0  0  0  0  0
  1  3  2  0
  1  4  2  0
  1  9  1  0
  1 12  1  0
  2 11  1  0
  2 15  1  0
  5 19  1  0
  5 24  1  0
  6 23  1  0
  7  8  1  0
  7  9  1  0
  8 10  1  0
 10 11  1  0
 12 13  2  0
 12 14  1  0
 13 16  1  0
 14 17  2  0
 15 19  2  0
 15 20  1  0
 16 18  2  0
 17 18  1  0
 19 21  1  0
 20 22  2  0
 21 23  2  0
 22 23  1  0
M  END
>  <PUBCHEM_COMPOUND_CID>  (1) 
27236

>  <PUBCHEM_CONFORMER_RMSD>  (1) 
1

>  <PUBCHEM_CONFORMER_DIVERSEORDER>  (1) 
50
34
141
199
143
326
2
102
171
26
282
174
279
290
3
202
46
101
218
77
203
377
28
262
13
393
296
277
1
55
222
47
12
4
293
150
135
54
42
320
45
127
346
249
18
104
181
292
78
63
142
269
57
350
81
84
251
92
205
69
190
294
164
373
7
30
329
358
29
380
267
400
132
287
67
328
112
82
129
392
160
273
384
175
196
148
145
162
389
268
23
319
285
114
235
403
133
378
117
244
250
72
398
382
39
385
243
71
53
76
396
100
182
186
106
228
204
221
353
310
259
219
297
15
86
122
43
223
166
324
394
370
10
51
126
138
27
74
391
105
191
368
6
365
339
161
152
107
233
8
404
35
11
168
304
80
258
291
41
130
207
255
98
256
113
248
337
95
134
351
317
154
75
188
19
332
178
37
260
275
313
14
348
208
386
330
128
73
38
395
187
44
264
334
21
253
33
158
261
155
305
327
115
120
364
325
48
211
184
336
241
85
226
210
238
183
195
192
36
311
185
335
111
206
372
276
88
110
56
131
68
308
198
66
263
343
177
169
159
357
9
94
123
213
139
31
201
246
151
170
224
144
209
108
309
146
355
239
227
61
149
173
60
383
374
318
116
25
40
99
271
119
216
375
379
179
288
193
314
340
225
234
79
58
388
97
217
49
136
59
240
70
338
356
341
236
89
194
220
62
347
300
229
390
163
331
323
344
200
245
5
312
93
176
156
91
124
399
371
237
22
315
367
281
402
381
189
352
83
90
215
157
265
140
278
109
125
387
231
172
16
118
298
103
87
52
301
363
242
307
342
316
280
197
359
349
376
360
397
17
165
180
286
96
299
212
303
65
283
167
295
137
247
266
369
354
214
24
252
147
121
20
345
270
284
32
306
232
322
153
257
366
302
362
64
333
272
361
274
321
401
289
230
254

>  <PUBCHEM_MMFF94_PARTIAL_CHARGES>  (1) 
31
1 1.2
11 0.28
12 -0.01
13 -0.15
14 -0.15
15 0.08
16 -0.15
17 -0.15
18 -0.15
19 0.08
2 -0.36
20 -0.15
21 -0.15
22 -0.15
23 0.1
24 0.28
3 -0.65
35 0.15
36 0.15
37 0.15
38 0.15
39 0.15
4 -0.65
40 0.15
41 0.15
42 0.15
43 0.4
44 0.4
5 -0.36
6 -0.9
9 0.11

>  <PUBCHEM_EFFECTIVE_ROTOR_COUNT>  (1) 
9

>  <PUBCHEM_PHARMACOPHORE_FEATURES>  (1) 
8
1 2 acceptor
1 3 acceptor
1 4 acceptor
1 5 acceptor
1 6 cation
1 6 donor
6 12 13 14 16 17 18 rings
6 15 19 20 21 22 23 rings

>  <PUBCHEM_HEAVY_ATOM_COUNT>  (1) 
24

>  <PUBCHEM_ATOM_DEF_STEREO_COUNT>  (1) 
0

>  <PUBCHEM_ATOM_UDEF_STEREO_COUNT>  (1) 
0

>  <PUBCHEM_BOND_DEF_STEREO_COUNT>  (1) 
0

>  <PUBCHEM_BOND_UDEF_STEREO_COUNT>  (1) 
0

>  <PUBCHEM_ISOTOPIC_ATOM_COUNT>  (1) 
0

>  <PUBCHEM_COMPONENT_COUNT>  (1) 
1

>  <PUBCHEM_CACTVS_TAUTO_COUNT>  (1) 
1

>  <PUBCHEM_CONFORMER_ID>  (1) 
00006A6400000032

>  <PUBCHEM_MMFF94_ENERGY>  (1) 
71.2972

>  <PUBCHEM_FEATURE_SELFOVERLAP>  (1) 
40.619

>  <PUBCHEM_SHAPE_FINGERPRINT>  (1) 
104564 63 18190749635160293260
10708813 3 18413102879191412270
11370993 70 18271229633984487632
12156800 1 16532771939563855922
12422481 6 17901647294516020128
12539773 59 17632293445880558127
12553582 1 18261398827633218620
12592029 89 18410867555484152283
12596599 1 17846230925166001278
128993 33 17612908149259801757
13122387 1 18410011039577633734
13140716 1 18336823083357541058
19930381 70 18266171726231290807
20764821 26 16970837983665873598
20905425 154 17607790713080650953
21285901 2 17823415977243345917
238 59 17899705844580470039
35225 105 17768832079312043023

>  <PUBCHEM_SHAPE_MULTIPOLES>  (1) 
469.3
6.26
4.25
1.77
0.2
2.21
-0.77
-1.66
0.39
0.22
1.11
-0.11
-0.44
-0.3

>  <PUBCHEM_SHAPE_SELFOVERLAP>  (1) 
964.955

>  <PUBCHEM_SHAPE_VOLUME>  (1) 
270.2

>  <PUBCHEM_COORDINATE_TYPE>  (1) 
2
5
10

$$$$
