27235
     RDKit          3D

 23 24  0  0  0  0  0  0  0  0999 V2000
   -2.7386   -1.2586   -0.8440 O   0  0  0  0  0  0  0  0  0  0  0  0
    7.7230    0.1338    0.1324 O   0  0  0  0  0  0  0  0  0  0  0  0
   -2.8135    1.4918   -0.4508 O   0  0  0  0  0  0  0  0  0  0  0  0
   -7.4719    1.2095    0.7192 N   0  0  0  0  0  0  0  0  0  0  0  0
   -0.0666   -0.9459    0.2135 C   0  0  0  0  0  0  0  0  0  0  0  0
    1.4576   -1.0083    0.1023 C   0  0  0  0  0  0  0  0  0  0  0  0
   -0.7041   -2.2931   -0.1194 C   0  0  0  0  0  0  0  0  0  0  0  0
    2.0918    0.3512    0.4037 C   0  0  0  0  0  0  0  0  0  0  0  0
   -2.2183   -2.2504    0.0303 C   0  0  0  0  0  0  0  0  0  0  0  0
    3.5962    0.2928    0.3311 C   0  0  0  0  0  0  0  0  0  0  0  0
    4.2302    0.5479   -0.8757 C   0  0  0  0  0  0  0  0  0  0  0  0
    4.3221   -0.0143    1.4722 C   0  0  0  0  0  0  0  0  0  0  0  0
   -3.9001   -0.6415   -0.4579 C   0  0  0  0  0  0  0  0  0  0  0  0
    5.6225    0.4947   -0.9429 C   0  0  0  0  0  0  0  0  0  0  0  0
    5.7143   -0.0675    1.4049 C   0  0  0  0  0  0  0  0  0  0  0  0
    6.3645    0.1869    0.1973 C   0  0  0  0  0  0  0  0  0  0  0  0
   -3.9311    0.7352   -0.2645 C   0  0  0  0  0  0  0  0  0  0  0  0
   -5.0433   -1.4096   -0.2648 C   0  0  0  0  0  0  0  0  0  0  0  0
   -5.1196    1.3515    0.1268 C   0  0  0  0  0  0  0  0  0  0  0  0
   -6.2700    0.5873    0.3225 C   0  0  0  0  0  0  0  0  0  0  0  0
   -6.2318   -0.7933    0.1267 C   0  0  0  0  0  0  0  0  0  0  0  0
    8.3237    0.4045   -1.1331 C   0  0  0  0  0  0  0  0  0  0  0  0
   -2.9369    2.8954   -0.2299 C   0  0  0  0  0  0  0  0  0  0  0  0
  1  9  1  0
  1 13  1  0
  2 16  1  0
  2 22  1  0
  3 17  1  0
  3 23  1  0
  4 20  1  0
  5  6  1  0
  5  7  1  0
  6  8  1  0
  7  9  1  0
  8 10  1  0
 10 11  2  0
 10 12  1  0
 11 14  1  0
 12 15  2  0
 13 17  2  0
 13 18  1  0
 14 16  2  0
 15 16  1  0
 17 19  1  0
 18 21  2  0
 19 20  2  0
 20 21  1  0
M  END
>  <PUBCHEM_COMPOUND_CID>  (1) 
27235

>  <PUBCHEM_CONFORMER_RMSD>  (1) 
1

>  <PUBCHEM_CONFORMER_DIVERSEORDER>  (1) 
2
200
98
10
148
58
89
169
205
9
3
207
69
167
4
182
216
27
87
15
53
150
100
157
39
71
126
208
46
165
159
129
195
8
1
214
113
133
160
13
118
52
55
86
48
213
61
156
104
31
60
132
186
7
153
140
63
174
43
161
19
166
124
171
193
155
154
121
79
175
72
22
149
138
94
210
37
99
35
221
170
209
220
109
47
163
142
67
134
97
197
36
112
23
173
21
6
93
180
122
11
57
102
95
158
172
54
42
204
70
59
218
111
137
107
164
144
152
202
125
75
50
151
78
17
44
85
114
116
183
77
128
5
49
18
215
91
26
177
127
162
181
64
198
74
217
147
12
41
66
130
136
25
90
184
190
65
119
81
201
101
80
108
168
196
38
178
33
115
76
188
135
88
185
34
16
139
120
56
176
146
68
117
103
212
30
123
20
187
51
106
143
62
45
141
131
96
179
73
194
211
84
92
206
24
110
82
203
29
219
32
83
28
189
14
40
191
145
199
105
192

>  <PUBCHEM_MMFF94_PARTIAL_CHARGES>  (1) 
29
1 -0.36
10 -0.14
11 -0.15
12 -0.15
13 0.08
14 -0.15
15 -0.15
16 0.08
17 0.08
18 -0.15
19 -0.15
2 -0.36
20 0.1
21 -0.15
22 0.28
23 0.28
3 -0.36
34 0.15
35 0.15
36 0.15
37 0.15
38 0.15
39 0.15
4 -0.9
40 0.15
41 0.4
42 0.4
8 0.14
9 0.28

>  <PUBCHEM_EFFECTIVE_ROTOR_COUNT>  (1) 
9

>  <PUBCHEM_PHARMACOPHORE_FEATURES>  (1) 
8
1 1 acceptor
1 2 acceptor
1 3 acceptor
1 4 cation
1 4 donor
4 5 6 7 8 hydrophobe
6 10 11 12 14 15 16 rings
6 13 17 18 19 20 21 rings

>  <PUBCHEM_HEAVY_ATOM_COUNT>  (1) 
23

>  <PUBCHEM_ATOM_DEF_STEREO_COUNT>  (1) 
0

>  <PUBCHEM_ATOM_UDEF_STEREO_COUNT>  (1) 
0

>  <PUBCHEM_BOND_DEF_STEREO_COUNT>  (1) 
0

>  <PUBCHEM_BOND_UDEF_STEREO_COUNT>  (1) 
0

>  <PUBCHEM_ISOTOPIC_ATOM_COUNT>  (1) 
0

>  <PUBCHEM_COMPONENT_COUNT>  (1) 
1

>  <PUBCHEM_CACTVS_TAUTO_COUNT>  (1) 
1

>  <PUBCHEM_CONFORMER_ID>  (1) 
00006A6300000002

>  <PUBCHEM_MMFF94_ENERGY>  (1) 
87.9656

>  <PUBCHEM_FEATURE_SELFOVERLAP>  (1) 
40.6

>  <PUBCHEM_SHAPE_FINGERPRINT>  (1) 
10 15 18040719152089407067
10299344 5 18040714771207083658
10411042 1 17907014329607310527
106641 1 15430042075518044571
10670039 82 18410569578520540212
10730089 173 18411419514067565277
11315181 36 17458626744204769387
12236239 1 17821723936248260402
12516196 113 12107786302362394662
12596602 18 17094958853448149249
12838862 33 18338781348569692797
13402501 40 18202843266459343297
14251764 18 18040713684459070850
14933364 13 18413670214585894074
15183329 4 17060341803526596738
15419008 47 17704068499975120128
1577012 14 18259979375148355778
18336668 15 17967253109162981989
19611394 137 17970360423923814187
20281389 69 18261106383520601680
21033648 29 17702928353851134178
21623969 137 14490183895951116818
22224240 67 13839985530128525824
3009799 131 16845854603045434482
4325135 7 18333452032256501629
5385378 56 18341054012469650619
59755656 215 18060423504150106318
59755656 520 17458060495289645643

>  <PUBCHEM_SHAPE_MULTIPOLES>  (1) 
450.74
23.45
2.02
1.01
18.74
0.17
0.13
6.06
-0.36
-3.66
-0.18
1.5
0.05
-0.79

>  <PUBCHEM_SHAPE_SELFOVERLAP>  (1) 
934.848

>  <PUBCHEM_SHAPE_VOLUME>  (1) 
258.4

>  <PUBCHEM_COORDINATE_TYPE>  (1) 
2
5
10

$$$$
