27249
     RDKit          3D

 29 34  0  0  0  0  0  0  0  0999 V2000
    1.7641    1.5310   -1.1766 O   0  0  0  0  0  0  0  0  0  0  0  0
   -0.4172   -1.1836    1.2757 N   0  0  0  0  0  0  0  0  0  0  0  0
   -0.4268   -1.2233   -1.1778 N   0  0  0  0  0  0  0  0  0  0  0  0
   -0.3202    0.9868    0.0138 C   0  0  0  0  0  0  0  0  0  0  0  0
    1.6852   -0.5883    0.0299 C   0  0  0  0  0  0  0  0  0  0  0  0
    1.2394    0.9092   -0.0006 C   0  0  0  0  0  0  0  0  0  0  0  0
   -0.8352    0.2339    1.2744 C   0  0  0  0  0  0  0  0  0  0  0  0
   -0.8506    0.1916   -1.2160 C   0  0  0  0  0  0  0  0  0  0  0  0
    1.0597   -1.2510    1.2968 C   0  0  0  0  0  0  0  0  0  0  0  0
    1.0497   -1.2961   -1.2077 C   0  0  0  0  0  0  0  0  0  0  0  0
   -0.9149   -1.8888    0.0626 C   0  0  0  0  0  0  0  0  0  0  0  0
   -0.8188    2.3941    0.0110 C   0  0  0  0  0  0  0  0  0  0  0  0
    3.1709   -0.7299    0.0389 C   0  0  0  0  0  0  0  0  0  0  0  0
   -2.4030   -2.0761    0.0724 C   0  0  0  0  0  0  0  0  0  0  0  0
   -0.4882    3.2516    1.0594 C   0  0  0  0  0  0  0  0  0  0  0  0
    3.9160   -0.1852    1.0843 C   0  0  0  0  0  0  0  0  0  0  0  0
   -1.6144    2.8487   -1.0397 C   0  0  0  0  0  0  0  0  0  0  0  0
    3.8126   -1.4065   -0.9977 C   0  0  0  0  0  0  0  0  0  0  0  0
   -3.1006   -2.1138   -1.1301 C   0  0  0  0  0  0  0  0  0  0  0  0
   -3.0728   -2.2104    1.2837 C   0  0  0  0  0  0  0  0  0  0  0  0
   -0.9539    4.5664    1.0569 C   0  0  0  0  0  0  0  0  0  0  0  0
    5.3045   -0.3175    1.0929 C   0  0  0  0  0  0  0  0  0  0  0  0
   -2.0801    4.1636   -1.0420 C   0  0  0  0  0  0  0  0  0  0  0  0
    5.2012   -1.5387   -0.9890 C   0  0  0  0  0  0  0  0  0  0  0  0
   -1.7499    5.0225    0.0062 C   0  0  0  0  0  0  0  0  0  0  0  0
    5.9472   -0.9942    0.0563 C   0  0  0  0  0  0  0  0  0  0  0  0
   -4.4845   -2.2880   -1.1211 C   0  0  0  0  0  0  0  0  0  0  0  0
   -4.4568   -2.3846    1.2927 C   0  0  0  0  0  0  0  0  0  0  0  0
   -5.1626   -2.4234    0.0903 C   0  0  0  0  0  0  0  0  0  0  0  0
  1  6  1  0
  2  7  1  0
  2  9  1  0
  2 11  1  0
  3  8  1  0
  3 10  1  0
  3 11  1  0
  4  6  1  0
  4  7  1  0
  4  8  1  0
  4 12  1  0
  5  6  1  0
  5  9  1  0
  5 10  1  0
  5 13  1  0
 11 14  1  0
 12 15  2  0
 12 17  1  0
 13 16  2  0
 13 18  1  0
 14 19  2  0
 14 20  1  0
 15 21  1  0
 16 22  1  0
 17 23  2  0
 18 24  2  0
 19 27  1  0
 20 28  2  0
 21 25  2  0
 22 26  2  0
 23 25  1  0
 24 26  1  0
 27 29  2  0
 28 29  1  0
M  END
>  <PUBCHEM_COMPOUND_CID>  (1) 
27249

>  <PUBCHEM_CONFORMER_RMSD>  (1) 
0.8

>  <PUBCHEM_CONFORMER_DIVERSEORDER>  (1) 
1

>  <PUBCHEM_MMFF94_PARTIAL_CHARGES>  (1) 
45
1 -0.68
10 0.27
11 0.68
12 -0.14
13 -0.14
14 -0.14
15 -0.15
16 -0.15
17 -0.15
18 -0.15
19 -0.15
2 -0.81
20 -0.15
21 -0.15
22 -0.15
23 -0.15
24 -0.15
25 -0.15
26 -0.15
27 -0.15
28 -0.15
29 -0.15
3 -0.81
4 0.14
40 0.4
41 0.15
42 0.15
43 0.15
44 0.15
45 0.15
46 0.15
47 0.15
48 0.15
49 0.15
5 0.14
50 0.15
51 0.15
52 0.15
53 0.15
54 0.15
55 0.15
6 0.28
7 0.27
8 0.27
9 0.27

>  <PUBCHEM_EFFECTIVE_ROTOR_COUNT>  (1) 
4.2

>  <PUBCHEM_PHARMACOPHORE_FEATURES>  (1) 
11
1 1 acceptor
1 1 donor
1 2 cation
1 3 cation
6 12 15 17 21 23 25 rings
6 13 16 18 22 24 26 rings
6 14 19 20 27 28 29 rings
6 2 3 4 7 8 11 rings
6 2 3 5 9 10 11 rings
6 2 4 5 6 7 9 rings
6 3 4 5 6 8 10 rings

>  <PUBCHEM_HEAVY_ATOM_COUNT>  (1) 
29

>  <PUBCHEM_ATOM_DEF_STEREO_COUNT>  (1) 
0

>  <PUBCHEM_ATOM_UDEF_STEREO_COUNT>  (1) 
0

>  <PUBCHEM_BOND_DEF_STEREO_COUNT>  (1) 
0

>  <PUBCHEM_BOND_UDEF_STEREO_COUNT>  (1) 
0

>  <PUBCHEM_ISOTOPIC_ATOM_COUNT>  (1) 
0

>  <PUBCHEM_COMPONENT_COUNT>  (1) 
1

>  <PUBCHEM_CACTVS_TAUTO_COUNT>  (1) 
1

>  <PUBCHEM_CONFORMER_ID>  (1) 
00006A7100000001

>  <PUBCHEM_MMFF94_ENERGY>  (1) 
115.5434

>  <PUBCHEM_FEATURE_SELFOVERLAP>  (1) 
68.89

>  <PUBCHEM_SHAPE_FINGERPRINT>  (1) 
102385 1 18049724010013043515
10411042 1 18338797921983285751
10764073 3 16699520488566570759
10930396 42 18049408687141924250
10940486 97 17771906296976271039
1100329 8 18408603635004336317
11115154 58 18339345453985186503
11331351 85 18130798879920455003
11505856 67 18190767261675110076
11578080 2 17560219406043556745
11991303 11 17973735670478991829
12058002 1 17460341912960692934
12107698 1 18408600388583352522
12156800 1 18046873092636996513
12160290 23 18048628965118827313
12293681 4 18338791231041125061
12422481 6 17988379099656037939
12516196 113 18338515369033340746
12788726 201 18334285457733359850
13004483 165 18339922718304787050
13134695 92 18193559097817253839
13140716 1 18409735079492022377
13540713 4 17987515910768176838
13590594 115 18338240466057667585
13690498 29 18201175264993034894
13899415 180 18268138924242747535
14028597 1 17821722802071264939
14068700 675 18187926218254749926
14556957 393 18189357773830417956
14713325 29 18269837519235827118
15081414 286 18121499317562006753
15198563 99 18411136905251651013
15219462 58 17979315787038638538
15439362 3 17762332914063532809
15775530 1 17770235855256095510
15927050 60 17834116346795107342
16087824 20 18338235948211507861
17980427 23 17702961356290126755
17980427 26 17405986735613602285
1813 80 18200043956931146831
18365409 1 18265891346799088085
19301676 85 16686837420109569590
19301679 30 18337397045465074555
20587220 17 16762561924893005425
20587220 46 14385304651025534696
20600515 1 18261971741895020647
20739085 24 18127978722072117131
21041028 32 18336825393817181804
21049683 118 17832403324906063424
21120745 212 18337127716824240412
21304303 282 17973702711137345533
2132832 1 18187370956393067628
21641784 216 18189070796942767020
22182313 1 17917152676722207238
23175994 123 18335983189860427923
23419403 2 17975103712099748421
23558518 356 18117283553689704218
23559900 14 17386567019747193614
23845131 108 17691694389783689913
23929065 36 18266718243703290992
24771750 20 17107352801592995957
249057 25 17629501932852744915
283562 15 18334292050576724346
3027735 51 18334576789554857514
314173 85 18340771532565356266
3380486 145 17982989413889215260
345986 75 18042103453855194202
3493558 16 17604989393481536612
3886686 26 17543033842334945938
4258327 124 17823718394744583012
4408954 87 17484550862309518377
4409770 3 18336823070836103429
5080951 261 18058998472429178282
508180 173 18265029463195428383
513202 73 18270408187351819062
5171179 24 18127957797498386105
5969126 39 18411980265393539014
59755656 520 17975410209919727364
6677587 24 15604185119759713573
70251023 43 18410018757950616210
7164475 11 18409737248756085382
7226269 152 18333726888899378503
7399639 24 18130494328242926234
79837 15 18051696538093868344
9658208 31 17981052912109665532
9981440 41 17770472284895081130

>  <PUBCHEM_SHAPE_MULTIPOLES>  (1) 
580.98
9.29
5.47
1.46
9.38
9.61
0.06
-9.78
0.18
-7.66
0.1
-0.23
-0.19
0.78

>  <PUBCHEM_SHAPE_SELFOVERLAP>  (1) 
1312.291

>  <PUBCHEM_SHAPE_VOLUME>  (1) 
293.9

>  <PUBCHEM_COORDINATE_TYPE>  (1) 
2
5
10

$$$$
