27242
     RDKit          3D

 27 28  0  0  1  0  0  0  0  0999 V2000
    1.6455    0.0017   -1.1871 O   0  0  0  0  0  0  0  0  0  0  0  0
   -3.5890   -1.4335    0.3300 O   0  0  0  0  0  0  0  0  0  0  0  0
    1.7118    1.9513    0.0505 O   0  0  0  0  0  0  0  0  0  0  0  0
   -2.2467   -0.0005   -1.6364 O   0  0  0  0  0  0  0  0  0  0  0  0
   -3.1042    4.0923    0.7432 N   0  0  0  0  0  0  0  0  0  0  0  0
    0.8534   -2.8299   -0.8705 C   0  0  0  0  0  0  0  0  0  0  0  0
   -0.2140   -2.7960    0.2264 C   0  0  0  0  0  0  0  0  0  0  0  0
    2.1926   -2.2242   -0.4369 C   0  0  0  0  0  0  0  0  0  0  0  0
   -1.4970   -3.4938   -0.2320 C   0  0  0  0  0  0  0  0  0  0  0  0
    2.1567   -0.7315   -0.0708 C   0  0  0  0  0  0  0  0  0  0  0  0
   -2.5744   -3.5598    0.8565 C   0  0  0  0  0  0  0  0  0  0  0  0
    3.5068   -0.1541    0.2853 C   0  0  0  0  0  0  0  0  0  0  0  0
   -3.0286   -2.2029    1.3833 C   0  0  0  0  0  0  0  0  0  0  0  0
    4.2950    0.3937   -0.7135 C   0  0  0  0  0  0  0  0  0  0  0  0
    3.9305   -0.1840    1.6040 C   0  0  0  0  0  0  0  0  0  0  0  0
    5.5415    0.9263   -0.3844 C   0  0  0  0  0  0  0  0  0  0  0  0
    5.1769    0.3487    1.9330 C   0  0  0  0  0  0  0  0  0  0  0  0
    1.4729    1.3389   -0.9815 C   0  0  0  0  0  0  0  0  0  0  0  0
   -3.4644   -0.0711    0.4236 C   0  0  0  0  0  0  0  0  0  0  0  0
    5.9824    0.9038    0.9388 C   0  0  0  0  0  0  0  0  0  0  0  0
   -2.7919    0.6394   -0.5643 C   0  0  0  0  0  0  0  0  0  0  0  0
    0.9358    1.9734   -2.2285 C   0  0  0  0  0  0  0  0  0  0  0  0
   -4.0189    0.5861    1.5163 C   0  0  0  0  0  0  0  0  0  0  0  0
   -2.6719    2.0251   -0.4579 C   0  0  0  0  0  0  0  0  0  0  0  0
   -3.8989    1.9716    1.6226 C   0  0  0  0  0  0  0  0  0  0  0  0
   -3.2254    2.6912    0.6355 C   0  0  0  0  0  0  0  0  0  0  0  0
   -3.0762   -0.1622   -2.7852 C   0  0  0  0  0  0  0  0  0  0  0  0
  1 10  1  0
  1 18  1  0
  2 13  1  0
  2 19  1  0
  3 18  2  0
  4 21  1  0
  4 27  1  0
  5 26  1  0
  6  7  1  0
  6  8  1  0
  7  9  1  0
  8 10  1  0
  9 11  1  0
 10 12  1  0
 11 13  1  0
 12 14  2  0
 12 15  1  0
 14 16  1  0
 15 17  2  0
 16 20  2  0
 17 20  1  0
 18 22  1  0
 19 21  2  0
 19 23  1  0
 21 24  1  0
 23 25  2  0
 24 26  2  0
 25 26  1  0
M  END
>  <PUBCHEM_COMPOUND_CID>  (1) 
27242

>  <PUBCHEM_CONFORMER_RMSD>  (1) 
1.2

>  <PUBCHEM_CONFORMER_DIVERSEORDER>  (1) 
1
134
353
211
233
279
201
152
111
143
17
187
159
298
13
133
168
289
103
189
342
145
252
124
235
45
164
302
314
106
167
86
24
22
349
193
109
318
192
138
356
18
217
258
36
295
64
97
130
346
161
98
56
251
195
370
31
194
178
225
311
57
149
231
6
77
120
186
14
316
94
273
66
368
363
326
243
305
352
338
175
190
263
183
42
118
230
73
79
84
28
250
221
223
171
51
249
293
196
313
63
245
335
131
82
96
10
199
110
202
72
176
246
197
239
364
41
337
248
121
35
301
49
32
216
265
203
350
367
136
191
177
150
344
132
83
257
113
5
43
242
76
355
119
288
85
123
165
157
68
237
229
325
321
354
198
39
220
283
253
29
2
264
360
319
275
277
78
333
200
100
256
115
292
48
169
359
204
286
270
336
7
67
80
238
244
99
91
137
19
361
11
278
112
92
174
234
38
148
108
247
44
182
219
232
228
280
269
8
173
331
317
304
307
102
291
330
210
343
162
274
207
266
271
181
369
160
357
125
339
25
122
255
47
218
69
308
262
21
163
332
294
324
26
236
65
75
290
153
158
268
156
147
371
170
27
334
127
90
141
40
70
297
53
340
226
358
129
55
222
259
172
52
300
12
60
296
306
93
241
214
89
23
315
59
9
348
209
116
261
61
322
30
62
34
227
135
341
114
276
15
224
212
54
87
185
151
208
33
267
16
74
4
299
240
155
347
281
107
215
329
320
37
345
126
50
365
95
88
287
310
362
205
213
105
282
284
144
312
3
104
128
272
327
366
154
46
184
142
81
166
328
179
140
20
351
58
180
117
71
139
254
101
146
188
309
323
285
260
303
206

>  <PUBCHEM_MMFF94_PARTIAL_CHARGES>  (1) 
32
1 -0.43
10 0.42
12 -0.14
13 0.28
14 -0.15
15 -0.15
16 -0.15
17 -0.15
18 0.66
19 0.08
2 -0.36
20 -0.15
21 0.08
22 0.06
23 -0.15
24 -0.15
25 -0.15
26 0.1
27 0.28
3 -0.57
4 -0.36
41 0.15
42 0.15
43 0.15
44 0.15
45 0.15
49 0.15
5 -0.9
50 0.15
51 0.15
52 0.4
53 0.4

>  <PUBCHEM_EFFECTIVE_ROTOR_COUNT>  (1) 
12

>  <PUBCHEM_PHARMACOPHORE_FEATURES>  (1) 
8
1 2 acceptor
1 3 acceptor
1 4 acceptor
1 5 cation
1 5 donor
5 6 7 8 9 11 hydrophobe
6 12 14 15 16 17 20 rings
6 19 21 23 24 25 26 rings

>  <PUBCHEM_HEAVY_ATOM_COUNT>  (1) 
27

>  <PUBCHEM_ATOM_DEF_STEREO_COUNT>  (1) 
0

>  <PUBCHEM_ATOM_UDEF_STEREO_COUNT>  (1) 
1

>  <PUBCHEM_BOND_DEF_STEREO_COUNT>  (1) 
0

>  <PUBCHEM_BOND_UDEF_STEREO_COUNT>  (1) 
0

>  <PUBCHEM_ISOTOPIC_ATOM_COUNT>  (1) 
0

>  <PUBCHEM_COMPONENT_COUNT>  (1) 
1

>  <PUBCHEM_CACTVS_TAUTO_COUNT>  (1) 
1

>  <PUBCHEM_CONFORMER_ID>  (1) 
00006A6A00000001

>  <PUBCHEM_MMFF94_ENERGY>  (1) 
87.7765

>  <PUBCHEM_FEATURE_SELFOVERLAP>  (1) 
40.599

>  <PUBCHEM_SHAPE_FINGERPRINT>  (1) 
10366900 7 18201146724233452833
11552529 35 18264483052254118058
12422481 6 18262787451296037378
12633257 1 18040726882619232399
12788726 201 18046923846254859470
12925494 130 17616549354690418665
12978246 48 18335710441903484361
13140716 1 18120940765465367723
14068700 675 18123731308912832791
14178342 30 18335990795846147311
15003188 8 18188770531378595109
15021287 119 17095516310803101900
20764821 26 18125163985432726921
21033648 29 17846493768769780642
22956985 138 16240408842590722523
3117164 225 18263915554437083890
4616759 239 17173477363106705288
508706 21 18342744034908259610
5895379 119 18265351636712393718
7064713 232 18410579474262171272
7288768 16 18334862667236588763

>  <PUBCHEM_SHAPE_MULTIPOLES>  (1) 
527.19
11.26
4.17
1.96
12.24
1.54
0.65
-4.79
-4.76
-5.02
-0.57
-0.61
-0.53
-0.33

>  <PUBCHEM_SHAPE_SELFOVERLAP>  (1) 
1088.2

>  <PUBCHEM_SHAPE_VOLUME>  (1) 
301.4

>  <PUBCHEM_COORDINATE_TYPE>  (1) 
2
5
10

$$$$
