27259
     RDKit          3D

 20 22  0  0  1  0  0  0  0  0999 V2000
    1.6418   -2.4421   -0.0328 O   0  0  0  0  0  0  0  0  0  0  0  0
   -0.7614   -1.1370   -0.1348 N   0  0  0  0  0  0  0  0  0  0  0  0
    0.4203   -0.4767   -0.1101 N   0  0  0  0  0  0  0  0  0  0  0  0
    5.1925    1.0311    0.0713 N   0  0  0  0  0  0  0  0  0  0  0  0
   -3.2451   -0.7934   -0.1780 C   0  0  0  0  0  0  0  0  0  0  0  0
   -3.2307    1.4525   -0.0542 C   0  0  0  0  0  0  0  0  0  0  0  0
   -1.6903    1.1597   -0.1024 C   0  0  0  0  0  0  0  0  0  0  0  0
   -3.8250    0.3766   -0.9806 C   0  0  0  0  0  0  0  0  0  0  0  0
   -3.7909   -0.5234    1.2360 C   0  0  0  0  0  0  0  0  0  0  0  0
   -3.8653    1.0170    1.2871 C   0  0  0  0  0  0  0  0  0  0  0  0
   -1.7889   -0.3577   -0.1495 C   0  0  0  0  0  0  0  0  0  0  0  0
   -3.5376   -2.1636   -0.7373 C   0  0  0  0  0  0  0  0  0  0  0  0
   -0.9809    1.7264   -1.3307 C   0  0  0  0  0  0  0  0  0  0  0  0
   -0.9763    1.6207    1.1719 C   0  0  0  0  0  0  0  0  0  0  0  0
    1.5880   -1.2151   -0.0586 C   0  0  0  0  0  0  0  0  0  0  0  0
    2.8483   -0.4292   -0.0123 C   0  0  0  0  0  0  0  0  0  0  0  0
    3.9573   -0.9837    0.5810 C   0  0  0  0  0  0  0  0  0  0  0  0
    2.8689    0.8291   -0.5654 C   0  0  0  0  0  0  0  0  0  0  0  0
    5.1075   -0.2115    0.5972 C   0  0  0  0  0  0  0  0  0  0  0  0
    4.0680    1.5202   -0.4977 C   0  0  0  0  0  0  0  0  0  0  0  0
  1 15  2  0
  2  3  1  0
  2 11  2  0
  3 15  1  0
  4 19  2  0
  4 20  1  0
  5  8  1  0
  5  9  1  0
  5 11  1  0
  5 12  1  0
  6  7  1  0
  6  8  1  0
  6 10  1  0
  7 11  1  0
  7 13  1  0
  7 14  1  0
  9 10  1  0
 15 16  1  0
 16 17  2  0
 16 18  1  0
 17 19  1  0
 18 20  2  0
M  END
>  <PUBCHEM_COMPOUND_CID>  (1) 
27259

>  <PUBCHEM_CONFORMER_RMSD>  (1) 
0.6

>  <PUBCHEM_CONFORMER_DIVERSEORDER>  (1) 
2
4
1
3

>  <PUBCHEM_MMFF94_PARTIAL_CHARGES>  (1) 
18
1 -0.57
11 0.33
15 0.54
16 0.09
17 -0.15
18 -0.15
19 0.16
2 -0.51
20 0.16
3 -0.37
37 0.37
38 0.15
39 0.15
4 -0.62
40 0.15
41 0.15
5 0.06
7 0.06

>  <PUBCHEM_EFFECTIVE_ROTOR_COUNT>  (1) 
3.8

>  <PUBCHEM_PHARMACOPHORE_FEATURES>  (1) 
7
1 1 acceptor
1 2 acceptor
1 3 donor
1 4 acceptor
3 7 13 14 hydrophobe
6 4 16 17 18 19 20 rings
7 5 6 7 8 9 10 11 rings

>  <PUBCHEM_HEAVY_ATOM_COUNT>  (1) 
20

>  <PUBCHEM_ATOM_DEF_STEREO_COUNT>  (1) 
0

>  <PUBCHEM_ATOM_UDEF_STEREO_COUNT>  (1) 
2

>  <PUBCHEM_BOND_DEF_STEREO_COUNT>  (1) 
0

>  <PUBCHEM_BOND_UDEF_STEREO_COUNT>  (1) 
1

>  <PUBCHEM_ISOTOPIC_ATOM_COUNT>  (1) 
0

>  <PUBCHEM_COMPONENT_COUNT>  (1) 
1

>  <PUBCHEM_CACTVS_TAUTO_COUNT>  (1) 
2

>  <PUBCHEM_CONFORMER_ID>  (1) 
00006A7B00000002

>  <PUBCHEM_MMFF94_ENERGY>  (1) 
86.0208

>  <PUBCHEM_FEATURE_SELFOVERLAP>  (1) 
35.526

>  <PUBCHEM_SHAPE_FINGERPRINT>  (1) 
10014705 185 18261668191134054773
10062212 137 18409166640643944333
10366900 7 17561072601465705067
10498660 4 18343019982393851076
11132069 177 18411700963116216719
11759241 127 18334295366217214718
11961588 58 17532911867401954357
12107183 9 17759795949574184498
12173636 292 17845373245961486277
12403814 3 18260547805870404421
12507557 5 18186796985279212156
128620 24 18272936024696858116
13214271 11 18186522098956108047
13224815 77 18410294713566926838
13583140 156 16443336606919033042
14289901 80 18411697651680847706
14341114 176 18335144150924371082
14341114 328 18272657856792432336
14787075 74 18338799043069840515
15163728 17 15265394453309049297
15196674 1 18409446994745057988
15788980 27 17676204667328300652
15927050 60 16974490041585705229
17349148 13 17531252776731663318
17492 89 18336825299434377154
17802600 8 18335132094845728076
19050596 39 18409169891749571114
19489759 90 15430028864182765885
200 152 18341322349372719023
20715895 44 17973996254962348933
21267235 1 18409455794774591702
21623110 236 18337956817115686029
21637258 2 14996869718087449097
21652331 79 18334575746130453156
22854114 59 18334295357891010748
23402539 116 17676201373014544612
23557571 272 17846509165715827014
23559900 14 18199182880808576710
26918003 58 17167864162165991641
2916195 48 17774993648802353600
34934 24 18334571301039488967
351380 180 17967809445014005024
4409770 3 16243498896019786214
474 4 18187086169885424506
4921388 177 15195273270249553204
5104073 3 18409165506846458034
542803 24 17632579357753651120
9709674 26 18335425647017709210

>  <PUBCHEM_SHAPE_MULTIPOLES>  (1) 
390.78
10.36
2.06
1.08
9.26
0.42
-0.11
-0.57
-1.19
-0.43
0.25
-0.83
-0.28
-0.7

>  <PUBCHEM_SHAPE_SELFOVERLAP>  (1) 
849.041

>  <PUBCHEM_SHAPE_VOLUME>  (1) 
216.9

>  <PUBCHEM_COORDINATE_TYPE>  (1) 
2
5
10

$$$$
