27254
     RDKit          3D

 12 13  0  0  1  0  0  0  0  0999 V2000
   -1.1312    2.0689    0.0404 O   0  0  0  0  0  0  0  0  0  0  0  0
    0.9000    0.6931    0.0981 C   0  0  0  0  0  0  0  0  0  0  0  0
   -0.0979   -1.3097   -0.0972 C   0  0  0  0  0  0  0  0  0  0  0  0
    0.9900   -0.5111   -0.8569 C   0  0  0  0  0  0  0  0  0  0  0  0
   -1.3461   -0.3587   -0.1838 C   0  0  0  0  0  0  0  0  0  0  0  0
    1.0895    0.0736    1.4975 C   0  0  0  0  0  0  0  0  0  0  0  0
    0.4822   -1.3351    1.3373 C   0  0  0  0  0  0  0  0  0  0  0  0
   -0.6031    0.9683   -0.0171 C   0  0  0  0  0  0  0  0  0  0  0  0
    1.7804    1.8787   -0.2119 C   0  0  0  0  0  0  0  0  0  0  0  0
    2.3528   -1.1830   -0.9841 C   0  0  0  0  0  0  0  0  0  0  0  0
   -2.3777   -0.5587    0.9262 C   0  0  0  0  0  0  0  0  0  0  0  0
   -2.0388   -0.4264   -1.5485 C   0  0  0  0  0  0  0  0  0  0  0  0
  1  8  2  0
  2  4  1  0
  2  6  1  0
  2  8  1  0
  2  9  1  0
  3  4  1  0
  3  5  1  0
  3  7  1  0
  4 10  1  0
  5  8  1  0
  5 11  1  0
  5 12  1  0
  6  7  1  0
M  END
>  <PUBCHEM_COMPOUND_CID>  (1) 
27254

>  <PUBCHEM_CONFORMER_RMSD>  (1) 
0.4

>  <PUBCHEM_CONFORMER_DIVERSEORDER>  (1) 
2
1
3
4

>  <PUBCHEM_MMFF94_PARTIAL_CHARGES>  (1) 
4
1 -0.57
2 0.06
5 0.06
8 0.45

>  <PUBCHEM_EFFECTIVE_ROTOR_COUNT>  (1) 
0.8

>  <PUBCHEM_PHARMACOPHORE_FEATURES>  (1) 
3
1 1 acceptor
3 5 11 12 hydrophobe
7 2 3 4 5 6 7 8 rings

>  <PUBCHEM_HEAVY_ATOM_COUNT>  (1) 
12

>  <PUBCHEM_ATOM_DEF_STEREO_COUNT>  (1) 
0

>  <PUBCHEM_ATOM_UDEF_STEREO_COUNT>  (1) 
3

>  <PUBCHEM_BOND_DEF_STEREO_COUNT>  (1) 
0

>  <PUBCHEM_BOND_UDEF_STEREO_COUNT>  (1) 
0

>  <PUBCHEM_ISOTOPIC_ATOM_COUNT>  (1) 
0

>  <PUBCHEM_COMPONENT_COUNT>  (1) 
1

>  <PUBCHEM_CACTVS_TAUTO_COUNT>  (1) 
1

>  <PUBCHEM_CONFORMER_ID>  (1) 
00006A7600000002

>  <PUBCHEM_MMFF94_ENERGY>  (1) 
47.8478

>  <PUBCHEM_FEATURE_SELFOVERLAP>  (1) 
15.223

>  <PUBCHEM_SHAPE_FINGERPRINT>  (1) 
10353120 184 18335432230980384791
12423570 1 14719101361480341314
13024252 1 17174668975443437702
137420 1 14045443579449705019
14128692 85 17489873734720486726
15557651 10 17535469549763323549
16945 1 18412828014380275734
23419403 2 15800243336991087464
241688 4 18341898463168897769
2748010 2 18408324414658096117
369184 2 17173193679868028424
5084963 1 17845921987783284439
528886 8 18056771054891254396
53812654 72 16558468591293411791
54276843 12 17824007643142035079
68250623 7 18053701076697916313

>  <PUBCHEM_SHAPE_MULTIPOLES>  (1) 
241.09
2.73
1.78
1.38
0.52
0.68
-0.1
-0.17
0.52
-0.53
0.01
0.08
-0.42
0.16

>  <PUBCHEM_SHAPE_SELFOVERLAP>  (1) 
510.931

>  <PUBCHEM_SHAPE_VOLUME>  (1) 
142.6

>  <PUBCHEM_COORDINATE_TYPE>  (1) 
2
5
10

$$$$
