27256
     RDKit          3D

 16 17  0  0  0  0  0  0  0  0999 V2000
   -0.8886    2.2392    0.4259 O   0  0  0  0  0  0  0  0  0  0  0  0
    1.3502    1.0879   -0.6404 N   0  0  0  0  0  0  0  0  0  0  0  0
    0.1618    0.4434   -0.5900 N   0  0  0  0  0  0  0  0  0  0  0  0
   -4.5530   -1.0994    0.0948 N   0  0  0  0  0  0  0  0  0  0  0  0
    4.4877   -1.2025    0.6985 C   0  0  0  0  0  0  0  0  0  0  0  0
    4.5581    0.3232    0.6092 C   0  0  0  0  0  0  0  0  0  0  0  0
    3.0397   -1.6923    0.7630 C   0  0  0  0  0  0  0  0  0  0  0  0
    3.7698    0.8558   -0.5816 C   0  0  0  0  0  0  0  0  0  0  0  0
    2.2213   -1.1975   -0.4243 C   0  0  0  0  0  0  0  0  0  0  0  0
    2.3694    0.2993   -0.5433 C   0  0  0  0  0  0  0  0  0  0  0  0
   -0.9198    1.1003   -0.0334 C   0  0  0  0  0  0  0  0  0  0  0  0
   -2.1902    0.3309    0.0116 C   0  0  0  0  0  0  0  0  0  0  0  0
   -3.1131    0.6256    0.9868 C   0  0  0  0  0  0  0  0  0  0  0  0
   -2.4062   -0.6531   -0.9237 C   0  0  0  0  0  0  0  0  0  0  0  0
   -4.2811   -0.1196    0.9858 C   0  0  0  0  0  0  0  0  0  0  0  0
   -3.6060   -1.3412   -0.8392 C   0  0  0  0  0  0  0  0  0  0  0  0
  1 11  2  0
  2  3  1  0
  2 10  2  3
  3 11  1  0
  4 15  2  0
  4 16  1  0
  5  6  1  0
  5  7  1  0
  6  8  1  0
  7  9  1  0
  8 10  1  0
  9 10  1  0
 11 12  1  0
 12 13  2  0
 12 14  1  0
 13 15  1  0
 14 16  2  0
M  END
>  <PUBCHEM_COMPOUND_CID>  (1) 
27256

>  <PUBCHEM_CONFORMER_RMSD>  (1) 
0.6

>  <PUBCHEM_CONFORMER_DIVERSEORDER>  (1) 
1
2
4
3

>  <PUBCHEM_MMFF94_PARTIAL_CHARGES>  (1) 
18
1 -0.57
10 0.33
11 0.54
12 0.09
13 -0.15
14 -0.15
15 0.16
16 0.16
2 -0.51
27 0.37
28 0.15
29 0.15
3 -0.37
30 0.15
31 0.15
4 -0.62
8 0.06
9 0.06

>  <PUBCHEM_EFFECTIVE_ROTOR_COUNT>  (1) 
4

>  <PUBCHEM_PHARMACOPHORE_FEATURES>  (1) 
6
1 1 acceptor
1 2 acceptor
1 3 donor
1 4 acceptor
6 4 12 13 14 15 16 rings
6 5 6 7 8 9 10 rings

>  <PUBCHEM_HEAVY_ATOM_COUNT>  (1) 
16

>  <PUBCHEM_ATOM_DEF_STEREO_COUNT>  (1) 
0

>  <PUBCHEM_ATOM_UDEF_STEREO_COUNT>  (1) 
0

>  <PUBCHEM_BOND_DEF_STEREO_COUNT>  (1) 
0

>  <PUBCHEM_BOND_UDEF_STEREO_COUNT>  (1) 
0

>  <PUBCHEM_ISOTOPIC_ATOM_COUNT>  (1) 
0

>  <PUBCHEM_COMPONENT_COUNT>  (1) 
1

>  <PUBCHEM_CACTVS_TAUTO_COUNT>  (1) 
2

>  <PUBCHEM_CONFORMER_ID>  (1) 
00006A7800000001

>  <PUBCHEM_MMFF94_ENERGY>  (1) 
43.183

>  <PUBCHEM_FEATURE_SELFOVERLAP>  (1) 
30.453

>  <PUBCHEM_SHAPE_FINGERPRINT>  (1) 
10447042 23 18336533993218750342
11132069 177 17846221037940048871
12251169 10 17704074005779807509
12553582 1 18341899597034989373
13167823 11 18409730651317215634
14123260 362 9007053591178492199
14178342 30 18123467172977162104
1420 369 18334858298996339970
14251764 18 18412268337999035993
14252887 29 18059586784164131782
14341114 328 18273215322272920880
15375462 189 18412546534792171072
17834072 14 17385436609844738548
17870717 6 14346077481950198971
1813 80 18187378618166194413
18186145 218 14201402689769069205
19050596 39 18342457028245461960
19862831 5 11241972568456266398
1986462 14 14273454777774727431
200 152 18260263053369195853
20279233 1 16443066105747060034
20281475 54 18336265742678192525
20432913 95 18186803582005912170
20645477 70 17313106367124991194
20671657 53 17240485809858727068
21501925 9 18259983756426252892
21503847 285 15051729811652149218
22485316 2 18410012135010493877
2255824 54 18265059217885342868
22646028 1 18407760339270087006
22646028 28 18334856104062206442
231179 274 12895078396654520186
23402539 116 18260543407581085696
23559900 14 16701480977670059589
26918003 58 18113056038664560315
351380 3 18408044004833463114
4028521 119 10735875054056073243
4921388 177 15430326858025684075
5104073 3 18411983529062197984
573450 72 18272933812873064385
602551 16 16916778647660547838
83771 10 18409446998786941093
90316 7 18271535195417986297
9882013 296 18273213093026671018

>  <PUBCHEM_SHAPE_MULTIPOLES>  (1) 
308.46
10.27
1.67
1.03
0.92
0.07
0.05
-3.17
2.09
0.27
0.08
-0.25
-0.09
-1.03

>  <PUBCHEM_SHAPE_SELFOVERLAP>  (1) 
645.076

>  <PUBCHEM_SHAPE_VOLUME>  (1) 
171.8

>  <PUBCHEM_COORDINATE_TYPE>  (1) 
2
5
10

$$$$
