27265
     RDKit          3D

 24 23  0  0  1  0  0  0  0  0999 V2000
   -3.1477   -1.3636   -3.0075 Br  0  0  0  0  0  0  0  0  0  0  0  0
    3.0843    1.5034    3.0593 Br  0  0  0  0  0  0  0  0  0  0  0  0
    0.3663   -1.7734   -0.2350 O   0  0  0  0  0  0  0  0  0  0  0  0
   -0.3494    1.7989    0.1390 O   0  0  0  0  0  0  0  0  0  0  0  0
   -2.6021    0.3724   -0.1410 O   0  0  0  0  0  0  0  0  0  0  0  0
    2.5614   -0.3754    0.2409 O   0  0  0  0  0  0  0  0  0  0  0  0
   -0.6248   -2.9979    1.4547 O   0  0  0  0  0  0  0  0  0  0  0  0
    0.7262    2.9382   -1.5586 O   0  0  0  0  0  0  0  0  0  0  0  0
   -3.3928   -0.9501    1.5802 O   0  0  0  0  0  0  0  0  0  0  0  0
    3.3974    0.8659   -1.5189 O   0  0  0  0  0  0  0  0  0  0  0  0
   -0.4108   -0.6282    0.1323 C   0  0  0  0  0  0  0  0  0  0  0  0
    0.4357    0.6327   -0.1407 C   0  0  0  0  0  0  0  0  0  0  0  0
   -1.7705   -0.6959   -0.5909 C   0  0  0  0  0  0  0  0  0  0  0  0
    1.7537    0.7382    0.6472 C   0  0  0  0  0  0  0  0  0  0  0  0
   -1.6015   -0.5812   -2.1033 C   0  0  0  0  0  0  0  0  0  0  0  0
    1.5621    0.6689    2.1567 C   0  0  0  0  0  0  0  0  0  0  0  0
    0.1533   -2.8906    0.5165 C   0  0  0  0  0  0  0  0  0  0  0  0
   -0.0939    2.8781   -0.6525 C   0  0  0  0  0  0  0  0  0  0  0  0
   -3.3635    0.1043    0.9602 C   0  0  0  0  0  0  0  0  0  0  0  0
    3.3333   -0.1639   -0.8611 C   0  0  0  0  0  0  0  0  0  0  0  0
    1.0284   -4.0015    0.0206 C   0  0  0  0  0  0  0  0  0  0  0  0
   -0.9829    4.0149   -0.2484 C   0  0  0  0  0  0  0  0  0  0  0  0
   -4.1795    1.3100    1.3159 C   0  0  0  0  0  0  0  0  0  0  0  0
    4.1174   -1.4042   -1.1655 C   0  0  0  0  0  0  0  0  0  0  0  0
  1 15  1  0
  2 16  1  0
  3 11  1  0
  3 17  1  0
  4 12  1  0
  4 18  1  0
  5 13  1  0
  5 19  1  0
  6 14  1  0
  6 20  1  0
  7 17  2  0
  8 18  2  0
  9 19  2  0
 10 20  2  0
 11 12  1  0
 11 13  1  0
 12 14  1  0
 13 15  1  0
 14 16  1  0
 17 21  1  0
 18 22  1  0
 19 23  1  0
 20 24  1  0
M  END
>  <PUBCHEM_COMPOUND_CID>  (1) 
27265

>  <PUBCHEM_CONFORMER_RMSD>  (1) 
1

>  <PUBCHEM_CONFORMER_DIVERSEORDER>  (1) 
1
60
64
38
173
296
185
192
210
32
30
285
74
90
146
202
116
61
259
112
241
184
220
242
234
103
183
261
163
244
4
21
54
71
53
288
221
106
57
147
117
272
247
49
309
271
250
59
115
167
276
84
305
284
17
19
297
127
201
266
91
206
287
252
100
229
302
170
256
81
240
290
68
97
169
193
219
181
277
148
94
291
159
255
101
86
306
130
141
293
131
102
87
40
33
269
233
227
294
172
299
175
73
236
77
274
286
44
228
105
39
123
208
118
153
88
216
160
191
144
161
113
267
34
313
16
136
158
156
265
187
27
243
20
223
263
188
209
37
120
166
143
196
254
198
92
149
14
124
195
58
203
80
178
139
282
125
280
165
104
78
273
96
200
109
56
25
204
222
129
224
257
283
22
312
180
211
162
95
230
114
140
301
145
142
108
46
111
316
121
231
157
217
262
270
155
310
50
239
11
303
24
245
45
251
152
275
281
214
28
138
226
18
215
83
9
258
278
307
311
66
186
150
279
76
10
63
171
151
235
35
289
55
232
107
182
179
314
190
194
52
43
238
93
248
12
89
300
51
253
67
176
36
98
213
264
308
119
133
99
249
237
177
6
48
132
205
197
7
41
189
69
318
62
199
304
47
295
128
65
218
122
317
212
72
29
26
70
174
134
15
82
75
168
85
260
225
110
5
126
79
298
268
292
164
8
154
315
31
23
207
42
135
246
3
13
2
137

>  <PUBCHEM_MMFF94_PARTIAL_CHARGES>  (1) 
24
1 -0.23
10 -0.57
11 0.28
12 0.28
13 0.28
14 0.28
15 0.23
16 0.23
17 0.66
18 0.66
19 0.66
2 -0.23
20 0.66
21 0.06
22 0.06
23 0.06
24 0.06
3 -0.43
4 -0.43
5 -0.43
6 -0.43
7 -0.57
8 -0.57
9 -0.57

>  <PUBCHEM_EFFECTIVE_ROTOR_COUNT>  (1) 
13

>  <PUBCHEM_PHARMACOPHORE_FEATURES>  (1) 
6
1 1 hydrophobe
1 10 acceptor
1 2 hydrophobe
1 7 acceptor
1 8 acceptor
1 9 acceptor

>  <PUBCHEM_HEAVY_ATOM_COUNT>  (1) 
24

>  <PUBCHEM_ATOM_DEF_STEREO_COUNT>  (1) 
0

>  <PUBCHEM_ATOM_UDEF_STEREO_COUNT>  (1) 
4

>  <PUBCHEM_BOND_DEF_STEREO_COUNT>  (1) 
0

>  <PUBCHEM_BOND_UDEF_STEREO_COUNT>  (1) 
0

>  <PUBCHEM_ISOTOPIC_ATOM_COUNT>  (1) 
0

>  <PUBCHEM_COMPONENT_COUNT>  (1) 
1

>  <PUBCHEM_CACTVS_TAUTO_COUNT>  (1) 
1

>  <PUBCHEM_CONFORMER_ID>  (1) 
00006A8100000001

>  <PUBCHEM_MMFF94_ENERGY>  (1) 
38.701

>  <PUBCHEM_FEATURE_SELFOVERLAP>  (1) 
30.449

>  <PUBCHEM_SHAPE_FINGERPRINT>  (1) 
10906281 52 17979894318621946592
11578080 2 17268303342614728249
12633257 1 17821446881130787569
12788726 201 18195556747458166708
14178342 30 18198049481408579746
14790565 3 18191894316696078860
15238133 3 17677592195558999653
16945 1 17632582617032403030
20691752 17 18339345444661651544
20905425 154 17908437856817267983
23419403 2 17406532733293975153
23558518 356 18057318607619443959
238 59 17826200112515202183
2748010 2 18337659910326274938
3380486 77 17756945160514872568
5845 1 11130912895868331661
70251023 43 17906710541715971071
81228 2 18341597252933928688

>  <PUBCHEM_SHAPE_MULTIPOLES>  (1) 
458.84
6.13
4.18
2.57
0.23
0.11
0.08
-0.01
0.2
-0.2
-0.1
0.12
-0.22
0.08

>  <PUBCHEM_SHAPE_SELFOVERLAP>  (1) 
873.101

>  <PUBCHEM_SHAPE_VOLUME>  (1) 
287

>  <PUBCHEM_COORDINATE_TYPE>  (1) 
2
5
10

$$$$
