27275
     RDKit          3D

 22 23  0  0  1  0  0  0  0  0999 V2000
    2.7169   -2.4448   -1.1865 S   0  0  0  0  0  0  0  0  0  0  0  0
    2.8451    0.3736   -1.4949 O   0  0  0  0  0  0  0  0  0  0  0  0
   -0.5231   -0.0457   -0.3064 O   0  0  0  0  0  0  0  0  0  0  0  0
    0.3151    0.6790   -2.3268 O   0  0  0  0  0  0  0  0  0  0  0  0
   -4.2057   -0.2131   -0.2021 N   0  0  0  0  0  0  0  0  0  0  0  0
    2.0147    1.1672    0.5905 C   0  0  0  0  0  0  0  0  0  0  0  0
    1.8415    0.1277   -0.5070 C   0  0  0  0  0  0  0  0  0  0  0  0
    3.4342    1.1650    1.1771 C   0  0  0  0  0  0  0  0  0  0  0  0
    3.7663    2.6260    1.4815 C   0  0  0  0  0  0  0  0  0  0  0  0
    1.8759    2.5746    0.0969 C   0  0  0  0  0  0  0  0  0  0  0  0
    2.8313    3.3692    0.5886 C   0  0  0  0  0  0  0  0  0  0  0  0
    2.0121   -1.3334   -0.0909 C   0  0  0  0  0  0  0  0  0  0  0  0
    0.4760    0.2921   -1.1754 C   0  0  0  0  0  0  0  0  0  0  0  0
    1.6654   -1.9315    1.1007 C   0  0  0  0  0  0  0  0  0  0  0  0
   -1.8542    0.0747   -0.8179 C   0  0  0  0  0  0  0  0  0  0  0  0
   -2.8344   -0.3368    0.2691 C   0  0  0  0  0  0  0  0  0  0  0  0
    1.9827   -3.3203    1.1144 C   0  0  0  0  0  0  0  0  0  0  0  0
   -4.6394    1.1859   -0.1734 C   0  0  0  0  0  0  0  0  0  0  0  0
   -5.1076   -1.0383    0.6053 C   0  0  0  0  0  0  0  0  0  0  0  0
    2.5598   -3.7310   -0.0672 C   0  0  0  0  0  0  0  0  0  0  0  0
   -6.0458    1.3361   -0.7279 C   0  0  0  0  0  0  0  0  0  0  0  0
   -5.1268   -0.5761    2.0524 C   0  0  0  0  0  0  0  0  0  0  0  0
  1 12  1  0
  1 20  1  0
  2  7  1  0
  3 13  1  0
  3 15  1  0
  4 13  2  0
  5 16  1  0
  5 18  1  0
  5 19  1  0
  6  7  1  0
  6  8  1  0
  6 10  1  0
  7 12  1  0
  7 13  1  0
  8  9  1  0
  9 11  1  0
 10 11  2  0
 12 14  2  0
 14 17  1  0
 15 16  1  0
 17 20  2  0
 18 21  1  0
 19 22  1  0
M  END
>  <PUBCHEM_COMPOUND_CID>  (1) 
27275

>  <PUBCHEM_CONFORMER_RMSD>  (1) 
1

>  <PUBCHEM_CONFORMER_DIVERSEORDER>  (1) 
1
34
106
231
96
312
278
223
175
221
269
30
130
297
187
188
78
177
272
7
265
24
166
85
242
59
87
192
54
289
264
208
149
67
52
98
199
211
171
207
306
282
40
317
126
26
307
108
148
38
249
156
56
138
296
167
83
43
285
102
233
107
73
72
39
165
88
169
214
250
215
14
217
47
81
178
168
25
234
150
22
75
239
16
27
74
257
90
186
161
293
189
104
216
60
31
109
113
245
53
287
237
35
319
158
135
137
110
71
247
301
42
230
229
79
197
134
201
153
122
191
19
86
302
116
33
248
299
124
240
29
57
252
12
194
185
204
222
176
23
329
140
298
94
281
112
162
119
244
173
68
284
170
154
159
315
101
251
228
45
46
323
225
84
259
220
41
13
131
300
182
32
160
314
144
205
4
210
203
254
283
141
55
2
243
21
100
117
121
200
63
324
246
280
279
92
37
258
206
10
294
179
193
321
48
152
198
292
180
184
6
322
209
291
157
255
181
308
142
172
256
129
15
288
95
263
236
118
145
65
77
69
241
266
64
51
275
196
97
9
313
111
62
218
44
58
253
147
270
28
61
99
66
273
212
80
224
326
195
103
49
295
93
136
8
174
213
260
123
76
318
151
309
89
164
132
316
20
238
18
82
183
202
139
128
277
36
235
327
155
267
133
305
320
127
5
261
325
328
286
290
227
91
11
50
274
3
262
146
268
114
163
190
311
276
271
105
120
143
17
304
232
125
303
219
226
310
70
115

>  <PUBCHEM_MMFF94_PARTIAL_CHARGES>  (1) 
25
1 -0.08
10 -0.29
11 -0.29
12 -0.14
13 0.66
14 -0.15
15 0.28
16 0.27
17 -0.15
18 0.27
19 0.27
2 -0.68
20 -0.11
28 0.15
29 0.15
3 -0.43
30 0.4
31 0.15
4 -0.57
40 0.15
41 0.15
5 -0.81
6 0.14
7 0.52
9 0.14

>  <PUBCHEM_EFFECTIVE_ROTOR_COUNT>  (1) 
9.6

>  <PUBCHEM_PHARMACOPHORE_FEATURES>  (1) 
6
1 2 acceptor
1 2 donor
1 4 acceptor
1 5 cation
5 1 12 14 17 20 rings
5 6 8 9 10 11 rings

>  <PUBCHEM_HEAVY_ATOM_COUNT>  (1) 
22

>  <PUBCHEM_ATOM_DEF_STEREO_COUNT>  (1) 
0

>  <PUBCHEM_ATOM_UDEF_STEREO_COUNT>  (1) 
2

>  <PUBCHEM_BOND_DEF_STEREO_COUNT>  (1) 
0

>  <PUBCHEM_BOND_UDEF_STEREO_COUNT>  (1) 
0

>  <PUBCHEM_ISOTOPIC_ATOM_COUNT>  (1) 
0

>  <PUBCHEM_COMPONENT_COUNT>  (1) 
1

>  <PUBCHEM_CACTVS_TAUTO_COUNT>  (1) 
1

>  <PUBCHEM_CONFORMER_ID>  (1) 
00006A8B00000001

>  <PUBCHEM_MMFF94_ENERGY>  (1) 
35.0921

>  <PUBCHEM_FEATURE_SELFOVERLAP>  (1) 
30.454

>  <PUBCHEM_SHAPE_FINGERPRINT>  (1) 
11405975 8 18337676304965504257
114674 6 18114181908612913443
11475781 23 17096624597223520935
11578080 2 17825379692231251076
12035758 1 18337094753693496746
12596602 18 17916882334543535363
12892183 10 18409169926774006269
13533116 47 18336549318500585251
13583140 156 18411981373669038309
13675066 3 18187087256833981821
13955234 65 18413392037764687771
14178342 30 18116993501710685319
15142526 21 17770494549646919529
17868525 174 18196088833481225545
17980427 26 18270666684542912764
20157964 124 18341319047144541005
20369508 70 18338795589968927647
20645477 70 18341889663261086343
20681651 13 18201442510843320051
20739085 24 18261104223184447564
20832881 197 18046347431621195923
21065199 12 18334858329609490401
21120745 212 17549276835229736414
21421861 104 18341892961379128080
21731228 192 18122049073581447640
21756936 100 17766551735826813408
23558518 356 17263265732555588476
23559900 14 17968383355739731799
268830 7 17917724483050959217
298252 57 16557347261674909796
31174 14 18337943494190177870
3421961 26 18337668598998005834
427121 178 18265899232004828794
474 4 18199748218341613736
495365 180 18335697222268421107
5104073 3 18408890603828976161
58260988 521 18113610202011901122
633830 44 18057318590508133972
6442390 28 18121502611775341014
6823239 73 17313402105493302891
7364860 26 18341609300554297974
77188 2 18053378795806677442
8272917 22 18341607127026546080
9841814 1 18269277867764911710
9999458 23 18411982503092677372

>  <PUBCHEM_SHAPE_MULTIPOLES>  (1) 
434.01
10.69
3.94
1.62
22.91
1.08
-0.07
-2.39
2.51
-6.7
1.13
0.02
0.05
1.79

>  <PUBCHEM_SHAPE_SELFOVERLAP>  (1) 
880.841

>  <PUBCHEM_SHAPE_VOLUME>  (1) 
255.8

>  <PUBCHEM_COORDINATE_TYPE>  (1) 
2
5
10

$$$$
