27277
     RDKit          3D

 22 22  0  0  1  0  0  0  0  0999 V2000
    3.7107   -0.4729    0.5471 O   0  0  0  0  0  0  0  0  0  0  0  0
    0.2392   -1.3641    0.5213 O   0  0  0  0  0  0  0  0  0  0  0  0
    1.9944   -1.9735    1.8820 O   0  0  0  0  0  0  0  0  0  0  0  0
   -3.9098   -0.5401    0.2157 N   0  0  0  0  0  0  0  0  0  0  0  0
    2.3916   -0.4847   -0.0149 C   0  0  0  0  0  0  0  0  0  0  0  0
    2.4935   -1.1082   -1.4483 C   0  0  0  0  0  0  0  0  0  0  0  0
    1.8400    0.9462    0.0418 C   0  0  0  0  0  0  0  0  0  0  0  0
    1.5463   -1.3613    0.9197 C   0  0  0  0  0  0  0  0  0  0  0  0
    3.3730   -0.2832   -2.4054 C   0  0  0  0  0  0  0  0  0  0  0  0
    3.0481   -2.5421   -1.4181 C   0  0  0  0  0  0  0  0  0  0  0  0
   -2.5565   -0.6094    0.7534 C   0  0  0  0  0  0  0  0  0  0  0  0
   -2.0539   -2.0494    0.7385 C   0  0  0  0  0  0  0  0  0  0  0  0
   -0.6488   -2.1567    1.3154 C   0  0  0  0  0  0  0  0  0  0  0  0
   -4.5935    0.6634    0.6927 C   0  0  0  0  0  0  0  0  0  0  0  0
   -3.8849   -0.5631   -1.2480 C   0  0  0  0  0  0  0  0  0  0  0  0
    2.3379    1.8489    0.9815 C   0  0  0  0  0  0  0  0  0  0  0  0
    0.8410    1.3444   -0.8466 C   0  0  0  0  0  0  0  0  0  0  0  0
   -3.8911    1.9213    0.2107 C   0  0  0  0  0  0  0  0  0  0  0  0
   -5.2919   -0.5583   -1.8211 C   0  0  0  0  0  0  0  0  0  0  0  0
    1.8368    3.1496    1.0330 C   0  0  0  0  0  0  0  0  0  0  0  0
    0.3400    2.6453   -0.7951 C   0  0  0  0  0  0  0  0  0  0  0  0
    0.8380    3.5477    0.1448 C   0  0  0  0  0  0  0  0  0  0  0  0
  1  5  1  0
  2  8  1  0
  2 13  1  0
  3  8  2  0
  4 11  1  0
  4 14  1  0
  4 15  1  0
  5  6  1  0
  5  7  1  0
  5  8  1  0
  6  9  1  0
  6 10  1  0
  7 16  2  0
  7 17  1  0
 11 12  1  0
 12 13  1  0
 14 18  1  0
 15 19  1  0
 16 20  1  0
 17 21  2  0
 20 22  2  0
 21 22  1  0
M  END
>  <PUBCHEM_COMPOUND_CID>  (1) 
27277

>  <PUBCHEM_CONFORMER_RMSD>  (1) 
1.2

>  <PUBCHEM_CONFORMER_DIVERSEORDER>  (1) 
1
56
70
29
42
60
85
20
86
5
12
59
80
57
68
37
53
48
32
22
65
4
34
76
35
52
31
17
26
81
7
46
33
64
15
41
36
63
66
39
21
47
6
13
74
11
43
84
54
73
69
44
16
10
38
30
51
62
40
23
58
18
19
9
14
3
49
71
75
82
2
28
27
72
50
77
45
78
24
55
61
25
67
79
83
8

>  <PUBCHEM_MMFF94_PARTIAL_CHARGES>  (1) 
22
1 -0.68
11 0.27
13 0.28
14 0.27
15 0.27
16 -0.15
17 -0.15
2 -0.43
20 -0.15
21 -0.15
22 -0.15
3 -0.57
4 -0.81
40 0.4
41 0.15
42 0.15
49 0.15
5 0.48
50 0.15
51 0.15
7 -0.14
8 0.66

>  <PUBCHEM_EFFECTIVE_ROTOR_COUNT>  (1) 
10

>  <PUBCHEM_PHARMACOPHORE_FEATURES>  (1) 
6
1 1 acceptor
1 1 donor
1 3 acceptor
1 4 cation
3 6 9 10 hydrophobe
6 7 16 17 20 21 22 rings

>  <PUBCHEM_HEAVY_ATOM_COUNT>  (1) 
22

>  <PUBCHEM_ATOM_DEF_STEREO_COUNT>  (1) 
0

>  <PUBCHEM_ATOM_UDEF_STEREO_COUNT>  (1) 
1

>  <PUBCHEM_BOND_DEF_STEREO_COUNT>  (1) 
0

>  <PUBCHEM_BOND_UDEF_STEREO_COUNT>  (1) 
0

>  <PUBCHEM_ISOTOPIC_ATOM_COUNT>  (1) 
0

>  <PUBCHEM_COMPONENT_COUNT>  (1) 
1

>  <PUBCHEM_CACTVS_TAUTO_COUNT>  (1) 
1

>  <PUBCHEM_CONFORMER_ID>  (1) 
00006A8D00000001

>  <PUBCHEM_MMFF94_ENERGY>  (1) 
43.7689

>  <PUBCHEM_FEATURE_SELFOVERLAP>  (1) 
30.455

>  <PUBCHEM_SHAPE_FINGERPRINT>  (1) 
104564 63 17975144140542327337
11221954 11 17903080275799289424
11370993 70 18048020059437579033
116883 192 18053117129040028518
12553582 1 18263365798258587761
12596599 1 18130221563185468221
12778500 126 11676257585797324935
12788726 201 17978248071027712014
13134695 92 18342469127179040518
13294875 104 18040707117237947418
13726171 33 15864354580443875029
14713325 29 15730983046927009836
15210252 30 17823439157076353900
15806764 133 18120967063787615363
17492 89 18201719600384251695
18186145 218 18334859433263234619
20233049 118 18040434386788173250
20600515 1 18260270728945304116
21524375 3 17259634067286943746
21860390 5 18342455979936111412
21864079 5 18411981339325143961
22749437 52 18118958329274201745
238 59 17983010343306948969
3060560 45 18343016692328077006
484985 159 15258378344662696014
5262128 65 18058748973341217043
5895379 119 18131066026311298841
5939293 188 18410011078406354336
6049 1 17972623222568352467
81228 2 18121245107406677034
9709674 26 18341617074566189115

>  <PUBCHEM_SHAPE_MULTIPOLES>  (1) 
430.16
8.43
3.66
1.81
11.84
2.6
0.62
-1.47
3.07
-2.23
-0.66
-0.55
-0.85
0.61

>  <PUBCHEM_SHAPE_SELFOVERLAP>  (1) 
860.233

>  <PUBCHEM_SHAPE_VOLUME>  (1) 
254.8

>  <PUBCHEM_COORDINATE_TYPE>  (1) 
2
5
10

$$$$
