2728
     RDKit          3D

 14 14  0  0  0  0  0  0  0  0999 V2000
    4.5925    1.7643    0.2368 Cl  0  0  0  0  0  0  0  0  0  0  0  0
   -2.5850    0.5664   -0.5069 O   0  0  0  0  0  0  0  0  0  0  0  0
   -1.5708   -1.4800   -0.3901 O   0  0  0  0  0  0  0  0  0  0  0  0
   -0.3446    0.5161   -0.2746 N   0  0  0  0  0  0  0  0  0  0  0  0
   -3.8183    0.0579    0.0146 C   0  0  0  0  0  0  0  0  0  0  0  0
   -3.6460   -0.2535    1.4935 C   0  0  0  0  0  0  0  0  0  0  0  0
   -4.9218    1.0770   -0.2252 C   0  0  0  0  0  0  0  0  0  0  0  0
    0.9773    0.0924   -0.1351 C   0  0  0  0  0  0  0  0  0  0  0  0
   -1.4973   -0.2572   -0.3893 C   0  0  0  0  0  0  0  0  0  0  0  0
    2.0040    1.0310   -0.0319 C   0  0  0  0  0  0  0  0  0  0  0  0
    1.2719   -1.2704   -0.0963 C   0  0  0  0  0  0  0  0  0  0  0  0
    3.3252    0.6067    0.1100 C   0  0  0  0  0  0  0  0  0  0  0  0
    2.5930   -1.6947    0.0456 C   0  0  0  0  0  0  0  0  0  0  0  0
    3.6197   -0.7560    0.1488 C   0  0  0  0  0  0  0  0  0  0  0  0
  1 12  1  0
  2  5  1  0
  2  9  1  0
  3  9  2  0
  4  8  1  0
  4  9  1  0
  5  6  1  0
  5  7  1  0
  8 10  2  0
  8 11  1  0
 10 12  1  0
 11 13  2  0
 12 14  2  0
 13 14  1  0
M  END
>  <PUBCHEM_COMPOUND_CID>  (1) 
2728

>  <PUBCHEM_CONFORMER_RMSD>  (1) 
0.6

>  <PUBCHEM_CONFORMER_DIVERSEORDER>  (1) 
2
28
16
24
8
34
23
33
7
15
26
27
1
25
31
32
10
9
18
17
35
3
11
12
4
36
13
6
14
5
29
21
30
22
19
20

>  <PUBCHEM_MMFF94_PARTIAL_CHARGES>  (1) 
17
1 -0.18
10 -0.15
11 -0.15
12 0.18
13 -0.15
14 -0.15
2 -0.43
22 0.37
23 0.15
24 0.15
25 0.15
26 0.15
3 -0.57
4 -0.55
5 0.28
8 0.12
9 0.78

>  <PUBCHEM_EFFECTIVE_ROTOR_COUNT>  (1) 
4

>  <PUBCHEM_PHARMACOPHORE_FEATURES>  (1) 
4
1 3 acceptor
1 4 donor
3 5 6 7 hydrophobe
6 8 10 11 12 13 14 rings

>  <PUBCHEM_HEAVY_ATOM_COUNT>  (1) 
14

>  <PUBCHEM_ATOM_DEF_STEREO_COUNT>  (1) 
0

>  <PUBCHEM_ATOM_UDEF_STEREO_COUNT>  (1) 
0

>  <PUBCHEM_BOND_DEF_STEREO_COUNT>  (1) 
0

>  <PUBCHEM_BOND_UDEF_STEREO_COUNT>  (1) 
0

>  <PUBCHEM_ISOTOPIC_ATOM_COUNT>  (1) 
0

>  <PUBCHEM_COMPONENT_COUNT>  (1) 
1

>  <PUBCHEM_CACTVS_TAUTO_COUNT>  (1) 
2

>  <PUBCHEM_CONFORMER_ID>  (1) 
00000AA800000002

>  <PUBCHEM_MMFF94_ENERGY>  (1) 
34.1071

>  <PUBCHEM_FEATURE_SELFOVERLAP>  (1) 
20.297

>  <PUBCHEM_SHAPE_FINGERPRINT>  (1) 
11471102 20 18412542098359849740
12346645 6 18343582923968276206
12507560 40 18333737909838116465
13214271 11 18113899403070072959
13675066 3 18186524302010645129
14144814 61 18272090474311201867
14252887 29 18040722450133731968
14445660 50 18343303694821565671
14897335 6 18342172293051138990
15219456 202 18333170569937683626
15375358 24 18113617884985505323
15775835 57 18271806864925668678
17834072 33 18131344245913789007
18186145 218 18272939305761864934
200 152 18201993340235053479
20279233 1 17894916217770088635
20645477 70 18339919307916469367
21065199 12 18260271836972942307
212847 35 18131347483960635465
22485316 2 17894911819597035491
22854114 59 18408324397356810137
23048698 100 18202003205057520643
23402539 116 11097846411002359331
23402655 69 18272928319309394429
23532345 1 18410009922806781416
23559900 14 17386294185996859994
26918003 58 18186800257769777425
3268164 11 14692282890701554977
4047638 21 18411419505667495750
42 15 18187085022833835319
449060 50 18409450310069498389
449060 62 18341893009114280668
5104073 3 18408040710461412859
69090 78 18411694387975298495
77779 3 18410293601397172535
90127 26 18337963302605668529

>  <PUBCHEM_SHAPE_MULTIPOLES>  (1) 
273.26
9.73
1.59
0.82
5.08
0.13
0.24
-3.69
1.21
-1.49
-0.02
0.64
0.03
0.32

>  <PUBCHEM_SHAPE_SELFOVERLAP>  (1) 
548.351

>  <PUBCHEM_SHAPE_VOLUME>  (1) 
161.7

>  <PUBCHEM_COORDINATE_TYPE>  (1) 
2
5
10

$$$$
