27282
     RDKit          3D

 12 11  0  0  1  0  0  0  0  0999 V2000
   -4.2556   -1.8994    0.1225 I   0  0  0  0  0  0  0  0  0  0  0  0
    4.2421   -1.9290   -0.0807 I   0  0  0  0  0  0  0  0  0  0  0  0
   -1.3640    2.0467    0.0184 O   0  0  0  0  0  0  0  0  0  0  0  0
    1.3698    2.0474   -0.0197 O   0  0  0  0  0  0  0  0  0  0  0  0
   -1.8047   -0.3913   -1.4453 O   0  0  0  0  0  0  0  0  0  0  0  0
    1.7963   -0.3407    1.4284 O   0  0  0  0  0  0  0  0  0  0  0  0
   -0.6948    0.8216    0.3366 C   0  0  0  0  0  0  0  0  0  0  0  0
    0.6889    0.8289   -0.3460 C   0  0  0  0  0  0  0  0  0  0  0  0
   -1.6163   -0.3596   -0.0314 C   0  0  0  0  0  0  0  0  0  0  0  0
    1.6195   -0.3481    0.0048 C   0  0  0  0  0  0  0  0  0  0  0  0
   -2.9873   -0.2349    0.6477 C   0  0  0  0  0  0  0  0  0  0  0  0
    3.0062   -0.2415   -0.6353 C   0  0  0  0  0  0  0  0  0  0  0  0
  1 11  1  0
  2 12  1  0
  3  7  1  0
  4  8  1  0
  5  9  1  0
  6 10  1  0
  7  8  1  0
  7  9  1  0
  8 10  1  0
  9 11  1  0
 10 12  1  0
M  END
>  <PUBCHEM_COMPOUND_CID>  (1) 
27282

>  <PUBCHEM_CONFORMER_RMSD>  (1) 
0.6

>  <PUBCHEM_CONFORMER_DIVERSEORDER>  (1) 
11
257
186
59
245
33
126
110
237
45
22
277
8
167
27
256
254
156
289
169
98
178
140
102
327
17
310
16
266
103
295
77
38
328
50
235
125
172
290
320
246
41
214
322
36
180
175
249
94
4
314
313
1
306
301
264
221
243
72
123
234
324
176
326
190
30
174
111
302
252
330
26
315
229
7
272
116
287
258
316
279
31
100
66
181
49
132
87
206
135
329
297
197
268
183
14
273
51
285
201
286
163
251
21
255
73
136
6
303
86
294
97
29
282
244
241
231
319
177
80
238
182
185
109
90
307
166
265
179
242
74
204
233
215
92
230
57
198
223
88
64
209
189
227
312
129
5
284
15
34
291
48
220
208
193
13
288
52
61
318
147
218
269
195
203
236
39
253
267
12
134
317
281
152
71
105
239
2
113
107
75
120
137
325
283
226
225
196
115
202
101
151
217
228
141
232
124
130
271
142
321
62
240
210
298
309
128
304
104
192
191
56
250
165
247
161
274
40
63
184
211
138
118
89
157
28
25
20
276
219
146
155
159
158
200
83
261
23
199
275
18
143
150
248
35
93
308
153
280
127
85
84
99
145
58
170
224
79
95
121
60
262
114
47
37
205
299
112
131
148
305
82
108
173
296
311
19
68
300
42
212
32
160
278
43
194
164
55
323
154
260
96
44
213
187
9
171
139
207
65
222
67
292
91
69
122
149
259
24
263
10
106
168
188
144
293
54
78
3
81
133
270
46
162
216
117
53
76
70
119

>  <PUBCHEM_MMFF94_PARTIAL_CHARGES>  (1) 
16
1 -0.19
10 0.28
11 0.19
12 0.19
2 -0.19
21 0.4
22 0.4
23 0.4
24 0.4
3 -0.68
4 -0.68
5 -0.68
6 -0.68
7 0.28
8 0.28
9 0.28

>  <PUBCHEM_EFFECTIVE_ROTOR_COUNT>  (1) 
5

>  <PUBCHEM_PHARMACOPHORE_FEATURES>  (1) 
10
1 1 hydrophobe
1 2 hydrophobe
1 3 acceptor
1 3 donor
1 4 acceptor
1 4 donor
1 5 acceptor
1 5 donor
1 6 acceptor
1 6 donor

>  <PUBCHEM_HEAVY_ATOM_COUNT>  (1) 
12

>  <PUBCHEM_ATOM_DEF_STEREO_COUNT>  (1) 
0

>  <PUBCHEM_ATOM_UDEF_STEREO_COUNT>  (1) 
4

>  <PUBCHEM_BOND_DEF_STEREO_COUNT>  (1) 
0

>  <PUBCHEM_BOND_UDEF_STEREO_COUNT>  (1) 
0

>  <PUBCHEM_ISOTOPIC_ATOM_COUNT>  (1) 
0

>  <PUBCHEM_COMPONENT_COUNT>  (1) 
1

>  <PUBCHEM_CACTVS_TAUTO_COUNT>  (1) 
1

>  <PUBCHEM_CONFORMER_ID>  (1) 
00006A920000000B

>  <PUBCHEM_MMFF94_ENERGY>  (1) 
26.759

>  <PUBCHEM_FEATURE_SELFOVERLAP>  (1) 
50.769

>  <PUBCHEM_SHAPE_FINGERPRINT>  (1) 
11806522 49 18334860545506523502
12006461 19 18341899597030214523
12032990 46 18410578383203548811
122479 349 10592039159023890358
12251169 10 15769774667025623494
12932764 1 17703782609602515060
14123255 352 10663826239132278227
14123260 362 8718531853146591894
14251710 61 18410576184175278347
14252887 29 18339080526636291171
15477762 27 18336831986897981502
15501527 24 18115888419953042350
19422 9 18410586079779395650
20112054 13 11743834759808741846
20281475 54 18410301310562762466
20645477 70 18190736621589046063
20671657 53 18335143102329754725
20871998 184 18058167224326445540
20871998 22 18411981398768961409
20871999 31 18114463362019257046
22485316 2 18410577287981581099
23402539 116 18335138653150162134
23402655 69 12468631742290781083
23557571 272 17241312694247917421
328317 168 8862940546391888259
449060 23 18334581217649821362

>  <PUBCHEM_SHAPE_MULTIPOLES>  (1) 
247.35
8.01
2.2
0.98
0.02
0.12
0.01
-7.4
-0.04
-0.03
-0.01
0.01
-0.13
-0.07

>  <PUBCHEM_SHAPE_SELFOVERLAP>  (1) 
423.194

>  <PUBCHEM_SHAPE_VOLUME>  (1) 
170.5

>  <PUBCHEM_COORDINATE_TYPE>  (1) 
2
5
10

$$$$
