27294
     RDKit          3D

 30 32  0  0  0  0  0  0  0  0999 V2000
   -4.1920    4.1291    0.1868 S   0  0  0  0  0  0  0  0  0  0  0  0
   -3.3107    5.2611   -0.0560 O   0  0  0  0  0  0  0  0  0  0  0  0
   -5.4457    4.0165   -0.5443 O   0  0  0  0  0  0  0  0  0  0  0  0
    6.6982    0.6177    0.4852 O   0  0  0  0  0  0  0  0  0  0  0  0
   -0.8971   -0.6999   -0.5947 N   0  0  0  0  0  0  0  0  0  0  0  0
   -1.7641   -4.2963   -0.1028 N   0  0  0  0  0  0  0  0  0  0  0  0
    0.1445    1.1869   -0.0518 N   0  0  0  0  0  0  0  0  0  0  0  0
    1.4031   -0.8772   -0.4015 N   0  0  0  0  0  0  0  0  0  0  0  0
   -1.1910   -2.0708   -0.9424 C   0  0  0  0  0  0  0  0  0  0  0  0
   -1.4469   -2.9298    0.2926 C   0  0  0  0  0  0  0  0  0  0  0  0
   -1.8162    0.3142   -0.4534 C   0  0  0  0  0  0  0  0  0  0  0  0
    0.2669   -0.1423   -0.3469 C   0  0  0  0  0  0  0  0  0  0  0  0
   -1.1872    1.5084   -0.1127 C   0  0  0  0  0  0  0  0  0  0  0  0
   -1.4923   -5.2273    0.9940 C   0  0  0  0  0  0  0  0  0  0  0  0
   -3.1632   -4.4007   -0.5216 C   0  0  0  0  0  0  0  0  0  0  0  0
   -3.2135    0.2939   -0.6003 C   0  0  0  0  0  0  0  0  0  0  0  0
   -1.8745    2.7049    0.0945 C   0  0  0  0  0  0  0  0  0  0  0  0
   -3.2646    2.6664   -0.0560 C   0  0  0  0  0  0  0  0  0  0  0  0
   -3.9243    1.4834   -0.3971 C   0  0  0  0  0  0  0  0  0  0  0  0
   -2.3710   -4.9298    2.1971 C   0  0  0  0  0  0  0  0  0  0  0  0
   -3.4897   -5.8053   -0.9997 C   0  0  0  0  0  0  0  0  0  0  0  0
    2.7546   -0.4956   -0.1756 C   0  0  0  0  0  0  0  0  0  0  0  0
   -4.5962    4.1100    1.9181 C   0  0  0  0  0  0  0  0  0  0  0  0
    3.7587   -1.4636   -0.1556 C   0  0  0  0  0  0  0  0  0  0  0  0
    3.0759    0.8468    0.0263 C   0  0  0  0  0  0  0  0  0  0  0  0
    5.0840   -1.0894    0.0663 C   0  0  0  0  0  0  0  0  0  0  0  0
    4.4011    1.2210    0.2482 C   0  0  0  0  0  0  0  0  0  0  0  0
    5.4051    0.2529    0.2683 C   0  0  0  0  0  0  0  0  0  0  0  0
    7.0886    1.9180    0.0462 C   0  0  0  0  0  0  0  0  0  0  0  0
    8.5594    1.8967   -0.3115 C   0  0  0  0  0  0  0  0  0  0  0  0
  1  2  2  0
  1  3  2  0
  1 18  1  0
  1 23  1  0
  4 28  1  0
  4 29  1  0
  5  9  1  0
  5 11  1  0
  5 12  1  0
  6 10  1  0
  6 14  1  0
  6 15  1  0
  7 12  2  0
  7 13  1  0
  8 12  1  0
  8 22  1  0
  9 10  1  0
 11 13  2  0
 11 16  1  0
 13 17  1  0
 14 20  1  0
 15 21  1  0
 16 19  2  0
 17 18  2  0
 18 19  1  0
 22 24  2  0
 22 25  1  0
 24 26  1  0
 25 27  2  0
 26 28  2  0
 27 28  1  0
 29 30  1  0
M  END
>  <PUBCHEM_COMPOUND_CID>  (1) 
27294

>  <PUBCHEM_CONFORMER_RMSD>  (1) 
1

>  <PUBCHEM_CONFORMER_DIVERSEORDER>  (1) 
1
34
10
31
28
16
13
38
23
30
26
35
14
32
47
22
44
29
45
18
6
43
7
41
19
27
33
21
5
39
15
40
8
12
25
11
17
9
4
24
3
48
42
2
37
46
20
36

>  <PUBCHEM_MMFF94_PARTIAL_CHARGES>  (1) 
35
1 1.2
10 0.27
11 -0.15
12 0.27
13 0.23
14 0.27
15 0.27
16 -0.15
17 -0.15
18 -0.01
19 -0.15
2 -0.65
22 0.1
23 0.11
24 -0.15
25 -0.15
26 -0.15
27 -0.15
28 0.08
29 0.28
3 -0.65
39 0.15
4 -0.36
40 0.15
41 0.15
42 0.4
5 0.05
52 0.15
53 0.15
54 0.15
55 0.15
6 -0.81
7 -0.57
8 -0.58
9 0.26

>  <PUBCHEM_EFFECTIVE_ROTOR_COUNT>  (1) 
10

>  <PUBCHEM_PHARMACOPHORE_FEATURES>  (1) 
9
1 2 acceptor
1 3 acceptor
1 4 acceptor
1 6 cation
1 8 donor
4 5 7 8 12 cation
5 5 7 11 12 13 rings
6 11 13 16 17 18 19 rings
6 22 24 25 26 27 28 rings

>  <PUBCHEM_HEAVY_ATOM_COUNT>  (1) 
30

>  <PUBCHEM_ATOM_DEF_STEREO_COUNT>  (1) 
0

>  <PUBCHEM_ATOM_UDEF_STEREO_COUNT>  (1) 
0

>  <PUBCHEM_BOND_DEF_STEREO_COUNT>  (1) 
0

>  <PUBCHEM_BOND_UDEF_STEREO_COUNT>  (1) 
0

>  <PUBCHEM_ISOTOPIC_ATOM_COUNT>  (1) 
0

>  <PUBCHEM_COMPONENT_COUNT>  (1) 
1

>  <PUBCHEM_CACTVS_TAUTO_COUNT>  (1) 
2

>  <PUBCHEM_CONFORMER_ID>  (1) 
00006A9E00000001

>  <PUBCHEM_MMFF94_ENERGY>  (1) 
75.4945

>  <PUBCHEM_FEATURE_SELFOVERLAP>  (1) 
45.796

>  <PUBCHEM_SHAPE_FINGERPRINT>  (1) 
10050765 1 18411417316026024326
10411042 1 17907293604610803751
10675989 125 17838338480446632280
11007060 377 18342176652437624401
11062273 19 16968292614083951142
11297010 23 17329694436955326853
12107183 9 18119799224062976690
12677640 9 18339364192226612548
12788726 201 18264754606046694939
13248334 5 17475232401820017039
13540713 4 18131364003454804782
13631057 29 18192424389328541462
138480 1 16897926060513525047
13955234 65 17616823128473145257
14790565 3 18195525879032097285
15064981 194 18261965162068439868
15347591 1 18411699912194505302
15400415 2 18195524801127811336
15878777 1 12663248629270558671
15927050 60 18339359652187750278
16087824 20 18411696630766073759
16992752 21 18049730908452253054
17980427 26 17907565944228499559
18393751 57 18263370187652601233
19319366 153 17983570802443407533
20101258 96 18124594446804339694
20238998 120 17979631557234541103
21033648 29 18265910072318154836
21120745 212 18048332311806833837
21796203 349 17324672331780951258
23845131 108 18191026699363956971
283562 15 18262510532879207586
3418910 222 17829330530027068460
3627633 1 18195244649032150495
376196 1 17916011365839430628
4058900 60 18124322596833638888
4073 2 18408603682987136562
4403749 210 18336266760918413705
5104073 3 18261952943249940480
563151 97 18193826060521913157
57634706 229 18129398037181674832
5969126 39 18125714832279552150
6058803 2 18260544559270436310
6673363 416 17833283283187779564
6697151 62 16386754292041348949
6700243 42 17768568154162483092
77188 2 17762616592073551879
79837 15 18409735028253017195
9981440 41 18264774247137257489

>  <PUBCHEM_SHAPE_MULTIPOLES>  (1) 
583.7
15.23
8.86
1.08
40.2
7.19
-0.55
-13.46
-0.65
-21.37
-1.99
-1.29
0.73
-0.67

>  <PUBCHEM_SHAPE_SELFOVERLAP>  (1) 
1217.474

>  <PUBCHEM_SHAPE_VOLUME>  (1) 
336.2

>  <PUBCHEM_COORDINATE_TYPE>  (1) 
2
5
10

$$$$
