27290
     RDKit          3D

 13 14  0  0  0  0  0  0  0  0999 V2000
   -1.1299   -1.2085    0.0000 S   0  0  0  0  0  0  0  0  0  0  0  0
   -1.3927   -1.8424   -1.2737 O   0  0  0  0  0  0  0  0  0  0  0  0
   -1.3942   -1.8390    1.2750 O   0  0  0  0  0  0  0  0  0  0  0  0
   -0.8916    2.6290    0.0012 O   0  0  0  0  0  0  0  0  0  0  0  0
   -1.7285    0.4061   -0.0028 N   0  0  0  0  0  0  0  0  0  0  0  0
    0.5182   -0.6438    0.0000 C   0  0  0  0  0  0  0  0  0  0  0  0
    0.5962    0.7487   -0.0006 C   0  0  0  0  0  0  0  0  0  0  0  0
   -0.7165    1.4241   -0.0011 C   0  0  0  0  0  0  0  0  0  0  0  0
    1.6347   -1.4541    0.0008 C   0  0  0  0  0  0  0  0  0  0  0  0
    1.8279    1.3800   -0.0006 C   0  0  0  0  0  0  0  0  0  0  0  0
   -3.1789    0.6428    0.0010 C   0  0  0  0  0  0  0  0  0  0  0  0
    2.8796   -0.8235    0.0008 C   0  0  0  0  0  0  0  0  0  0  0  0
    2.9759    0.5805    0.0000 C   0  0  0  0  0  0  0  0  0  0  0  0
  1  2  2  0
  1  3  2  0
  1  5  1  0
  1  6  1  0
  4  8  2  0
  5  8  1  0
  5 11  1  0
  6  7  2  0
  6  9  1  0
  7  8  1  0
  7 10  1  0
  9 12  2  0
 10 13  2  0
 12 13  1  0
M  END
>  <PUBCHEM_COMPOUND_CID>  (1) 
27290

>  <PUBCHEM_CONFORMER_RMSD>  (1) 
0.4

>  <PUBCHEM_CONFORMER_DIVERSEORDER>  (1) 
1

>  <PUBCHEM_MMFF94_PARTIAL_CHARGES>  (1) 
17
1 1.45
10 -0.15
11 0.36
12 -0.15
13 -0.15
14 0.15
18 0.15
19 0.15
2 -0.65
20 0.15
3 -0.65
4 -0.57
5 -0.73
6 -0.01
7 0.09
8 0.72
9 -0.15

>  <PUBCHEM_EFFECTIVE_ROTOR_COUNT>  (1) 
0.2

>  <PUBCHEM_PHARMACOPHORE_FEATURES>  (1) 
5
1 2 acceptor
1 3 acceptor
1 4 acceptor
5 1 5 6 7 8 rings
6 6 7 9 10 12 13 rings

>  <PUBCHEM_HEAVY_ATOM_COUNT>  (1) 
13

>  <PUBCHEM_ATOM_DEF_STEREO_COUNT>  (1) 
0

>  <PUBCHEM_ATOM_UDEF_STEREO_COUNT>  (1) 
0

>  <PUBCHEM_BOND_DEF_STEREO_COUNT>  (1) 
0

>  <PUBCHEM_BOND_UDEF_STEREO_COUNT>  (1) 
0

>  <PUBCHEM_ISOTOPIC_ATOM_COUNT>  (1) 
0

>  <PUBCHEM_COMPONENT_COUNT>  (1) 
1

>  <PUBCHEM_CACTVS_TAUTO_COUNT>  (1) 
1

>  <PUBCHEM_CONFORMER_ID>  (1) 
00006A9A00000001

>  <PUBCHEM_MMFF94_ENERGY>  (1) 
25.0111

>  <PUBCHEM_FEATURE_SELFOVERLAP>  (1) 
25.454

>  <PUBCHEM_SHAPE_FINGERPRINT>  (1) 
10967382 1 18410856525322301188
12382932 28 18338517542338968648
12423570 1 15445216774874395423
12524768 44 18413112744662628422
13380535 76 18410008810589827226
16945 1 18338797814740523886
193761 8 17834395996568290601
20588541 1 18410860949170375080
20871998 184 18272093802853029015
21040471 1 18194401091827609444
21501502 16 18411414055290752054
22802520 49 18269857370748911414
2334 1 18122626321175081064
23402539 116 18269540680960612717
23552423 10 18261955266521148996
23559900 14 17910399382359056006
241688 4 17044867010415056226
2748010 2 18267304429134325492
5084963 1 18128531553072065752
528886 8 18410851092352189242
53812654 25 18270382928368751050
8809292 202 18261117365641389874

>  <PUBCHEM_SHAPE_MULTIPOLES>  (1) 
248.79
4.02
2.26
0.79
0.55
0.34
0
0.19
0
-0.61
0
-0.25
-0.36
0

>  <PUBCHEM_SHAPE_SELFOVERLAP>  (1) 
524.176

>  <PUBCHEM_SHAPE_VOLUME>  (1) 
141.4

>  <PUBCHEM_COORDINATE_TYPE>  (1) 
2
5
10

$$$$
