27299
     RDKit          3D

 40 45  0  0  1  0  0  0  0  0999 V2000
    3.3340   -2.7994    1.2801 O   0  0  0  0  0  0  0  0  0  0  0  0
   -0.1765    1.5055    1.9916 O   0  0  0  0  0  0  0  0  0  0  0  0
    0.8223    2.3062   -1.9931 O   0  0  0  0  0  0  0  0  0  0  0  0
   -4.1505    0.4441   -0.4174 O   0  0  0  0  0  0  0  0  0  0  0  0
    8.0404    1.8784   -0.5389 O   0  0  0  0  0  0  0  0  0  0  0  0
   -5.4876   -1.4998   -0.1837 O   0  0  0  0  0  0  0  0  0  0  0  0
    9.8162    0.4319   -0.3159 O   0  0  0  0  0  0  0  0  0  0  0  0
   -6.8920   -0.0327    1.9140 O   0  0  0  0  0  0  0  0  0  0  0  0
   -8.3150    1.5382    0.0568 O   0  0  0  0  0  0  0  0  0  0  0  0
   -8.3940   -1.2375   -0.1080 O   0  0  0  0  0  0  0  0  0  0  0  0
    1.7708   -1.1517    0.4124 C   0  0  0  0  0  0  0  0  0  0  0  0
    3.2406   -1.6727    0.4014 C   0  0  0  0  0  0  0  0  0  0  0  0
    1.6435    0.2663   -0.1952 C   0  0  0  0  0  0  0  0  0  0  0  0
    4.3383   -0.6034    0.7543 C   0  0  0  0  0  0  0  0  0  0  0  0
    0.1350    0.7429   -0.3218 C   0  0  0  0  0  0  0  0  0  0  0  0
   -0.6451    0.5520    1.0282 C   0  0  0  0  0  0  0  0  0  0  0  0
    2.5741    1.2814    0.5143 C   0  0  0  0  0  0  0  0  0  0  0  0
    3.7346    0.6930    1.3147 C   0  0  0  0  0  0  0  0  0  0  0  0
    5.0540   -0.3446   -0.6090 C   0  0  0  0  0  0  0  0  0  0  0  0
    1.0612   -1.2171    1.7767 C   0  0  0  0  0  0  0  0  0  0  0  0
    3.6215   -2.1933   -1.0154 C   0  0  0  0  0  0  0  0  0  0  0  0
   -0.4182   -0.8489    1.6380 C   0  0  0  0  0  0  0  0  0  0  0  0
    5.0416   -1.7150   -1.2750 C   0  0  0  0  0  0  0  0  0  0  0  0
   -0.5645   -0.0967   -1.4426 C   0  0  0  0  0  0  0  0  0  0  0  0
   -2.1566    0.8176    0.8553 C   0  0  0  0  0  0  0  0  0  0  0  0
    0.1116    2.2290   -0.7815 C   0  0  0  0  0  0  0  0  0  0  0  0
    5.3358   -1.1365    1.8170 C   0  0  0  0  0  0  0  0  0  0  0  0
   -2.0616    0.1759   -1.5856 C   0  0  0  0  0  0  0  0  0  0  0  0
   -2.8025    0.0077   -0.2645 C   0  0  0  0  0  0  0  0  0  0  0  0
    6.4177    0.2635   -0.5500 C   0  0  0  0  0  0  0  0  0  0  0  0
    6.6202    1.7243   -0.6316 C   0  0  0  0  0  0  0  0  0  0  0  0
    7.5772   -0.3766   -0.4243 C   0  0  0  0  0  0  0  0  0  0  0  0
   -5.0324   -0.2873    0.4286 C   0  0  0  0  0  0  0  0  0  0  0  0
    8.6211    0.6493   -0.4167 C   0  0  0  0  0  0  0  0  0  0  0  0
   -6.2085    0.6030    0.8352 C   0  0  0  0  0  0  0  0  0  0  0  0
   -7.1555    0.8209   -0.3493 C   0  0  0  0  0  0  0  0  0  0  0  0
   -6.3006   -1.3053   -1.3492 C   0  0  0  0  0  0  0  0  0  0  0  0
   -7.5623   -0.5013   -1.0038 C   0  0  0  0  0  0  0  0  0  0  0  0
   -6.6138   -2.6854   -1.9156 C   0  0  0  0  0  0  0  0  0  0  0  0
   -7.9745    2.7737    0.6698 C   0  0  0  0  0  0  0  0  0  0  0  0
  1 12  1  0
  2 16  1  0
  3 26  1  0
  4 29  1  0
  4 33  1  0
  5 31  1  0
  5 34  1  0
  6 33  1  0
  6 37  1  0
  7 34  2  0
  8 35  1  0
  9 36  1  0
  9 40  1  0
 10 38  1  0
 11 12  1  0
 11 13  1  0
 11 20  1  0
 12 14  1  0
 12 21  1  0
 13 15  1  0
 13 17  1  0
 14 18  1  0
 14 19  1  0
 14 27  1  0
 15 16  1  0
 15 24  1  0
 15 26  1  0
 16 22  1  0
 16 25  1  0
 17 18  1  0
 19 23  1  0
 19 30  1  0
 20 22  1  0
 21 23  1  0
 24 28  1  0
 25 29  1  0
 28 29  1  0
 30 31  1  0
 30 32  2  0
 32 34  1  0
 33 35  1  0
 35 36  1  0
 36 38  1  0
 37 38  1  0
 37 39  1  0
M  END
>  <PUBCHEM_COMPOUND_CID>  (1) 
27299

>  <PUBCHEM_CONFORMER_RMSD>  (1) 
1

>  <PUBCHEM_CONFORMER_DIVERSEORDER>  (1) 
2
270
7
246
291
211
135
132
133
190
217
232
78
254
261
204
17
48
241
116
196
3
293
243
174
282
244
225
274
230
170
54
109
115
183
114
144
267
259
171
208
239
304
268
93
235
265
200
296
159
41
172
187
30
289
184
247
264
51
50
88
223
59
236
299
300
145
137
173
49
201
80
284
16
126
185
242
61
117
256
210
151
302
222
224
266
161
175
202
112
262
237
36
240
63
124
91
163
77
257
226
154
260
234
104
216
160
142
76
301
143
233
39
165
42
258
32
186
118
191
134
250
146
120
43
218
199
106
288
83
127
178
35
221
286
162
20
123
214
209
280
283
75
141
188
197
113
252
179
297
215
181
156
292
167
99
155
64
207
279
31
87
277
168
37
11
92
193
194
169
19
152
72
108
107
281
294
158
97
285
89
205
71
273
150
219
148
131
21
228
192
206
18
130
231
102
166
69
253
25
24
255
140
189
248
275
195
6
238
14
86
213
182
269
138
9
70
34
96
249
40
68
176
290
95
101
5
98
287
84
121
298
74
227
53
55
27
94
149
157
62
271
4
272
139
110
73
180
52
251
125
65
79
1
129
164
90
105
26
60
198
82
276
10
122
220
46
22
44
303
111
263
245
136
45
13
66
147
229
85
100
153
295
58
103
203
67
278
212
56
119
128
33
47
12
177
57
81
28
8
29
38
23
15

>  <PUBCHEM_MMFF94_PARTIAL_CHARGES>  (1) 
31
1 -0.68
10 -0.68
12 0.28
16 0.28
19 0.14
2 -0.68
26 0.28
29 0.28
3 -0.68
30 -0.28
31 0.42
32 -0.14
33 0.56
34 0.71
35 0.28
36 0.28
37 0.28
38 0.28
4 -0.56
40 0.28
5 -0.43
6 -0.56
68 0.4
69 0.4
7 -0.57
72 0.4
73 0.15
79 0.4
8 -0.68
83 0.4
9 -0.56

>  <PUBCHEM_EFFECTIVE_ROTOR_COUNT>  (1) 
8.8

>  <PUBCHEM_PHARMACOPHORE_FEATURES>  (1) 
20
1 1 acceptor
1 1 donor
1 10 acceptor
1 10 donor
1 2 acceptor
1 2 donor
1 3 acceptor
1 3 donor
1 4 acceptor
1 6 acceptor
1 7 acceptor
1 8 acceptor
1 8 donor
1 9 acceptor
5 12 14 19 21 23 rings
5 5 30 31 32 34 rings
6 11 12 13 14 17 18 rings
6 11 13 15 16 20 22 rings
6 15 16 24 25 28 29 rings
6 6 33 35 36 37 38 rings

>  <PUBCHEM_HEAVY_ATOM_COUNT>  (1) 
40

>  <PUBCHEM_ATOM_DEF_STEREO_COUNT>  (1) 
8

>  <PUBCHEM_ATOM_UDEF_STEREO_COUNT>  (1) 
5

>  <PUBCHEM_BOND_DEF_STEREO_COUNT>  (1) 
0

>  <PUBCHEM_BOND_UDEF_STEREO_COUNT>  (1) 
0

>  <PUBCHEM_ISOTOPIC_ATOM_COUNT>  (1) 
0

>  <PUBCHEM_COMPONENT_COUNT>  (1) 
1

>  <PUBCHEM_CACTVS_TAUTO_COUNT>  (1) 
1

>  <PUBCHEM_CONFORMER_ID>  (1) 
00006AA300000002

>  <PUBCHEM_MMFF94_ENERGY>  (1) 
154.4851

>  <PUBCHEM_FEATURE_SELFOVERLAP>  (1) 
101.878

>  <PUBCHEM_SHAPE_FINGERPRINT>  (1) 
10299344 5 18201719561054000574
10580692 12 18343021073917112861
11135926 11 17240481408050219547
11181472 205 18128825148842689969
11456790 92 11097851908998264324
11828532 37 12324539639653332580
12013929 94 18131069394167558799
12144603 126 18412267212338088753
13811026 1 17531252789400177200
14117953 113 17748835120690092668
14118638 360 16950556641509001444
1454969 45 18335138704842386774
14856354 85 17775565364963256927
15183329 4 18408600362449792243
15276724 80 18187358801128983749
15301273 46 15770057224349761216
15361156 5 18413108377408881999
15419008 145 8141819269662274070
15439362 3 17983572198836118512
15461852 350 16630517441854117853
15849732 13 17775282772693786037
16728433 281 17843971330262052977
1754911 235 18411139138908548260
18365409 1 18267868452587868222
19304144 158 13984648245057219927
19841028 212 18130228151861207038
20105231 36 16487257689939002134
21150785 3 18412263947777490492
21521721 280 17822012012199347675
21781051 124 14836408034173713332
21792938 703 18188493609458173611
21792961 116 15626230083056851060
23516275 137 18057908886287129287
24771293 8 18113059324568308316
24893992 56 9223225261523364479
249057 3 16630522960206513144
2838139 119 11025799803839330703
335507 130 18410859888919887205
3633792 109 18410016524425236504
4017518 198 15123789583064729141
4073 2 18261115179772347699
4325135 7 18113616798643785038
4625314 4 18342177765340452326
5028188 123 18202283645480071204
6523845 18 14764627487233387228

>  <PUBCHEM_SHAPE_MULTIPOLES>  (1) 
764.49
27.35
2.33
1.7
10.63
0.2
0.27
-2.99
-4.91
1.39
-0.42
0.23
0.26
-2.34

>  <PUBCHEM_SHAPE_SELFOVERLAP>  (1) 
1641.927

>  <PUBCHEM_SHAPE_VOLUME>  (1) 
417.6

>  <PUBCHEM_COORDINATE_TYPE>  (1) 
2
5
10

$$$$
