27297
     RDKit          3D

 14 15  0  0  0  0  0  0  0  0999 V2000
    3.3736   -2.3322    0.0011 Br  0  0  0  0  0  0  0  0  0  0  0  0
    4.2142    0.6736   -0.0016 O   0  0  0  0  0  0  0  0  0  0  0  0
    0.0874    0.2117    0.0010 C   0  0  0  0  0  0  0  0  0  0  0  0
   -1.3520    0.0638    0.0004 C   0  0  0  0  0  0  0  0  0  0  0  0
    0.9054   -0.9181    0.0004 C   0  0  0  0  0  0  0  0  0  0  0  0
    0.6570    1.4850    0.0010 C   0  0  0  0  0  0  0  0  0  0  0  0
   -2.0464   -0.0072    1.2080 C   0  0  0  0  0  0  0  0  0  0  0  0
   -2.0451   -0.0078   -1.2079 C   0  0  0  0  0  0  0  0  0  0  0  0
    2.2929   -0.7748   -0.0004 C   0  0  0  0  0  0  0  0  0  0  0  0
    2.0444    1.6285    0.0003 C   0  0  0  0  0  0  0  0  0  0  0  0
    2.8623    0.4985   -0.0005 C   0  0  0  0  0  0  0  0  0  0  0  0
   -3.4340   -0.1497    1.2074 C   0  0  0  0  0  0  0  0  0  0  0  0
   -3.4327   -0.1501   -1.2085 C   0  0  0  0  0  0  0  0  0  0  0  0
   -4.1271   -0.2211   -0.0008 C   0  0  0  0  0  0  0  0  0  0  0  0
  1  9  1  0
  2 11  1  0
  3  4  1  0
  3  5  2  0
  3  6  1  0
  4  7  2  0
  4  8  1  0
  5  9  1  0
  6 10  2  0
  7 12  1  0
  8 13  2  0
  9 11  2  0
 10 11  1  0
 12 14  2  0
 13 14  1  0
M  END
>  <PUBCHEM_COMPOUND_CID>  (1) 
27297

>  <PUBCHEM_CONFORMER_RMSD>  (1) 
0.4

>  <PUBCHEM_CONFORMER_DIVERSEORDER>  (1) 
1
2

>  <PUBCHEM_MMFF94_PARTIAL_CHARGES>  (1) 
21
1 -0.11
10 -0.15
11 0.08
12 -0.15
13 -0.15
14 -0.15
15 0.15
16 0.15
17 0.15
18 0.15
19 0.15
2 -0.53
20 0.15
21 0.15
22 0.15
23 0.45
5 -0.15
6 -0.15
7 -0.15
8 -0.15
9 0.11

>  <PUBCHEM_EFFECTIVE_ROTOR_COUNT>  (1) 
1

>  <PUBCHEM_PHARMACOPHORE_FEATURES>  (1) 
4
1 1 hydrophobe
1 2 donor
6 3 5 6 9 10 11 rings
6 4 7 8 12 13 14 rings

>  <PUBCHEM_HEAVY_ATOM_COUNT>  (1) 
14

>  <PUBCHEM_ATOM_DEF_STEREO_COUNT>  (1) 
0

>  <PUBCHEM_ATOM_UDEF_STEREO_COUNT>  (1) 
0

>  <PUBCHEM_BOND_DEF_STEREO_COUNT>  (1) 
0

>  <PUBCHEM_BOND_UDEF_STEREO_COUNT>  (1) 
0

>  <PUBCHEM_ISOTOPIC_ATOM_COUNT>  (1) 
0

>  <PUBCHEM_COMPONENT_COUNT>  (1) 
1

>  <PUBCHEM_CACTVS_TAUTO_COUNT>  (1) 
3

>  <PUBCHEM_CONFORMER_ID>  (1) 
00006AA100000001

>  <PUBCHEM_MMFF94_ENERGY>  (1) 
42.2764

>  <PUBCHEM_FEATURE_SELFOVERLAP>  (1) 
20.297

>  <PUBCHEM_SHAPE_FINGERPRINT>  (1) 
10219947 1 18413109454817906390
11471102 20 18409166619190206860
12032990 46 18262241023490803714
12236239 1 17703792530903154729
12932764 1 17775280564758913777
13296908 3 18113337479218423795
13581323 91 15213010579123229161
14144814 61 17989489623526797461
14251717 144 18411978057405977702
14252887 29 18334580139886979658
14576447 43 18129648833090568783
14993402 34 17988923396302443444
15219456 202 18040151812167751583
15375462 189 17988926677752331712
16945 1 18410574019933390532
17844478 74 17967254199973495485
1813 80 18057901142940071238
18175812 5 17603866762218235413
18186145 218 17531246106526042299
19026448 4 17748544827206740207
19026448 5 17775848999459301611
19049666 15 17749942246419339797
19422 9 17917712387753309175
200 152 18272082816864515549
20201158 50 18186239536825189899
20279233 1 17748826327958529443
204376 136 18194118745157407472
20645477 70 18337101276709991535
20671657 53 18116996589897503682
20871998 22 18056203466901090062
21501925 9 18338507539819176002
2255824 54 18271527589151633084
23402539 116 16081357592399265023
23402655 69 18412538799909693981
23557571 272 16950280706517883077
23559900 14 17023178285012062834
2748010 2 18193546780062155892
474 4 17771894193784694160
573450 72 17060618871940448179
581208 293 18411978083391676024
6049 1 17821451240000242629
77492 1 17703792530829301701

>  <PUBCHEM_SHAPE_MULTIPOLES>  (1) 
288.19
7.56
1.61
1.04
1.08
0.32
0
1.7
0
-2.35
0
1.12
0.08
0

>  <PUBCHEM_SHAPE_SELFOVERLAP>  (1) 
612.203

>  <PUBCHEM_SHAPE_VOLUME>  (1) 
166.2

>  <PUBCHEM_COORDINATE_TYPE>  (1) 
2
5
10

$$$$
