27298
     RDKit          3D

 14 15  0  0  0  0  0  0  0  0999 V2000
    3.8133    2.0449   -0.0113 Cl  0  0  0  0  0  0  0  0  0  0  0  0
    4.5872   -1.0968    0.0379 Cl  0  0  0  0  0  0  0  0  0  0  0  0
   -2.2409   -1.4335   -0.0191 O   0  0  0  0  0  0  0  0  0  0  0  0
   -3.3809    0.5910   -0.0553 N   0  0  0  0  0  0  0  0  0  0  0  0
   -1.0907    0.6148   -0.0358 N   0  0  0  0  0  0  0  0  0  0  0  0
   -4.5998    0.1503   -0.6676 C   0  0  0  0  0  0  0  0  0  0  0  0
   -4.5043    0.3282    0.7956 C   0  0  0  0  0  0  0  0  0  0  0  0
   -2.2242   -0.2048   -0.0345 C   0  0  0  0  0  0  0  0  0  0  0  0
    0.2670    0.2221   -0.0191 C   0  0  0  0  0  0  0  0  0  0  0  0
    1.2728    1.1884   -0.0227 C   0  0  0  0  0  0  0  0  0  0  0  0
    0.6009   -1.1321    0.0021 C   0  0  0  0  0  0  0  0  0  0  0  0
    2.6126    0.8007   -0.0053 C   0  0  0  0  0  0  0  0  0  0  0  0
    1.9406   -1.5198    0.0194 C   0  0  0  0  0  0  0  0  0  0  0  0
    2.9464   -0.5534    0.0157 C   0  0  0  0  0  0  0  0  0  0  0  0
  1 12  1  0
  2 14  1  0
  3  8  2  0
  4  6  1  0
  4  7  1  0
  4  8  1  0
  5  8  1  0
  5  9  1  0
  6  7  1  0
  9 10  2  0
  9 11  1  0
 10 12  1  0
 11 13  2  0
 12 14  2  0
 13 14  1  0
M  END
>  <PUBCHEM_COMPOUND_CID>  (1) 
27298

>  <PUBCHEM_CONFORMER_RMSD>  (1) 
0.6

>  <PUBCHEM_CONFORMER_DIVERSEORDER>  (1) 
1
6
15
7
12
16
4
8
14
17
13
18
9
5
11
2
3
10

>  <PUBCHEM_MMFF94_PARTIAL_CHARGES>  (1) 
22
1 -0.18
10 -0.15
11 -0.15
12 0.18
13 -0.15
14 0.18
15 0.1
16 0.1
17 0.1
18 0.1
19 0.37
2 -0.18
20 0.15
21 0.15
22 0.15
3 -0.57
4 -0.36
5 -0.55
6 -0.05
7 -0.05
8 0.69
9 0.12

>  <PUBCHEM_EFFECTIVE_ROTOR_COUNT>  (1) 
3.6

>  <PUBCHEM_PHARMACOPHORE_FEATURES>  (1) 
3
1 3 acceptor
1 5 donor
6 9 10 11 12 13 14 rings

>  <PUBCHEM_HEAVY_ATOM_COUNT>  (1) 
14

>  <PUBCHEM_ATOM_DEF_STEREO_COUNT>  (1) 
0

>  <PUBCHEM_ATOM_UDEF_STEREO_COUNT>  (1) 
0

>  <PUBCHEM_BOND_DEF_STEREO_COUNT>  (1) 
0

>  <PUBCHEM_BOND_UDEF_STEREO_COUNT>  (1) 
0

>  <PUBCHEM_ISOTOPIC_ATOM_COUNT>  (1) 
0

>  <PUBCHEM_COMPONENT_COUNT>  (1) 
1

>  <PUBCHEM_CACTVS_TAUTO_COUNT>  (1) 
2

>  <PUBCHEM_CONFORMER_ID>  (1) 
00006AA200000001

>  <PUBCHEM_MMFF94_ENERGY>  (1) 
45.0079

>  <PUBCHEM_FEATURE_SELFOVERLAP>  (1) 
15.223

>  <PUBCHEM_SHAPE_FINGERPRINT>  (1) 
10608611 8 18335134280678289085
11471102 20 18410853265669022412
12346645 6 18411982472932811124
12932764 1 17385710400850825219
13675066 3 17967254217126880305
13760787 5 18342738516249681221
14144814 61 18412266108241102897
14251717 144 18412823568814954166
14252887 29 18130793296178464558
14325111 11 18338516442848368052
14415576 193 18410295808852269708
14897335 6 18411979204140815423
15196674 1 18410574032454393007
15219456 202 18261960742256415338
15375358 24 18113898281941242457
15536298 74 18341894112752038196
15775835 57 18342459291366289812
17834072 33 18272646887593541183
18186145 218 17967808362191655462
200 152 18131347492777156747
20279233 1 17822014207397179691
20645477 70 18413108351101261654
20871998 22 18126851487032137702
21267235 1 18411991229912340963
212847 35 18131071528138310473
21452121 103 18341321271805861528
23402539 116 17917986140790219765
23402655 69 18342732997290611037
23559900 14 18341332275611871536
29717793 49 17846776278685870901
3071541 37 18334863848668924092
42 15 18334861597689095553
449060 50 18335142033273437453
449060 62 18412546535182619568
4990 188 17917723421835379908
5104073 3 18410012177733340451
522135 26 18409731751034493844
69090 78 18411414016884252127
7364860 26 18342458128089477054
77779 3 18410576205939693515
8809292 202 18187369839063390283
9999458 23 18186239533232030990

>  <PUBCHEM_SHAPE_MULTIPOLES>  (1) 
276.02
9.49
1.65
0.69
6.18
0.21
-0.02
0.84
-0.14
-1.95
0
0.31
0.02
-0.08

>  <PUBCHEM_SHAPE_SELFOVERLAP>  (1) 
560.748

>  <PUBCHEM_SHAPE_VOLUME>  (1) 
162.9

>  <PUBCHEM_COORDINATE_TYPE>  (1) 
2
5
10

$$$$
