27293
     RDKit          3D

 29 31  0  0  0  0  0  0  0  0999 V2000
   -4.7440    4.8354   -0.3331 O   0  0  0  0  0  0  0  0  0  0  0  0
    6.5813    0.0022    0.4430 O   0  0  0  0  0  0  0  0  0  0  0  0
   -1.1264   -0.4063   -0.5647 N   0  0  0  0  0  0  0  0  0  0  0  0
   -2.4022   -3.8826   -0.1009 N   0  0  0  0  0  0  0  0  0  0  0  0
    0.1342    1.3394   -0.0136 N   0  0  0  0  0  0  0  0  0  0  0  0
    1.1391   -0.8533   -0.3998 N   0  0  0  0  0  0  0  0  0  0  0  0
   -1.5821   -1.7293   -0.9235 C   0  0  0  0  0  0  0  0  0  0  0  0
   -1.9234   -2.5673    0.3053 C   0  0  0  0  0  0  0  0  0  0  0  0
   -1.9192    0.7064   -0.4015 C   0  0  0  0  0  0  0  0  0  0  0  0
    0.0972    0.0086   -0.3245 C   0  0  0  0  0  0  0  0  0  0  0  0
   -1.1513    1.8149   -0.0556 C   0  0  0  0  0  0  0  0  0  0  0  0
   -3.8084   -3.8181   -0.5041 C   0  0  0  0  0  0  0  0  0  0  0  0
   -2.2294   -4.8521    0.9826 C   0  0  0  0  0  0  0  0  0  0  0  0
   -3.3108    0.8509   -0.5319 C   0  0  0  0  0  0  0  0  0  0  0  0
   -1.6919    3.0809    0.1722 C   0  0  0  0  0  0  0  0  0  0  0  0
   -3.0786    3.2067    0.0379 C   0  0  0  0  0  0  0  0  0  0  0  0
   -4.3018   -5.1692   -0.9932 C   0  0  0  0  0  0  0  0  0  0  0  0
   -3.0544   -4.4686    2.1992 C   0  0  0  0  0  0  0  0  0  0  0  0
   -3.8756    2.1128   -0.3078 C   0  0  0  0  0  0  0  0  0  0  0  0
    2.5282   -0.6348   -0.1851 C   0  0  0  0  0  0  0  0  0  0  0  0
   -3.7007    4.5028    0.2630 C   0  0  0  0  0  0  0  0  0  0  0  0
    3.0062    0.6583    0.0276 C   0  0  0  0  0  0  0  0  0  0  0  0
    3.4124   -1.7137   -0.1871 C   0  0  0  0  0  0  0  0  0  0  0  0
   -3.0813    5.4920    1.2436 C   0  0  0  0  0  0  0  0  0  0  0  0
    4.3682    0.8724    0.2386 C   0  0  0  0  0  0  0  0  0  0  0  0
    4.7745   -1.4996    0.0239 C   0  0  0  0  0  0  0  0  0  0  0  0
    5.2523   -0.2065    0.2368 C   0  0  0  0  0  0  0  0  0  0  0  0
    7.1166    1.2531    0.0136 C   0  0  0  0  0  0  0  0  0  0  0  0
    8.5712    1.0646   -0.3608 C   0  0  0  0  0  0  0  0  0  0  0  0
  1 21  2  0
  2 27  1  0
  2 28  1  0
  3  7  1  0
  3  9  1  0
  3 10  1  0
  4  8  1  0
  4 12  1  0
  4 13  1  0
  5 10  2  0
  5 11  1  0
  6 10  1  0
  6 20  1  0
  7  8  1  0
  9 11  2  0
  9 14  1  0
 11 15  1  0
 12 17  1  0
 13 18  1  0
 14 19  2  0
 15 16  2  0
 16 19  1  0
 16 21  1  0
 20 22  2  0
 20 23  1  0
 21 24  1  0
 22 25  1  0
 23 26  2  0
 25 27  2  0
 26 27  1  0
 28 29  1  0
M  END
>  <PUBCHEM_COMPOUND_CID>  (1) 
27293

>  <PUBCHEM_CONFORMER_RMSD>  (1) 
1

>  <PUBCHEM_CONFORMER_DIVERSEORDER>  (1) 
1
23
10
22
6
16
5
11
21
7
13
18
8
2
14
9
19
15
3
24
17
25
20
4
26
12

>  <PUBCHEM_MMFF94_PARTIAL_CHARGES>  (1) 
34
1 -0.57
10 0.27
11 0.23
12 0.27
13 0.27
14 -0.15
15 -0.15
16 0.09
19 -0.15
2 -0.36
20 0.1
21 0.42
22 -0.15
23 -0.15
24 0.06
25 -0.15
26 -0.15
27 0.08
28 0.28
3 0.05
38 0.15
39 0.15
4 -0.81
40 0.4
47 0.15
48 0.15
49 0.15
5 -0.57
50 0.15
51 0.15
6 -0.58
7 0.26
8 0.27
9 -0.15

>  <PUBCHEM_EFFECTIVE_ROTOR_COUNT>  (1) 
10

>  <PUBCHEM_PHARMACOPHORE_FEATURES>  (1) 
8
1 1 acceptor
1 2 acceptor
1 4 cation
1 6 donor
4 3 5 6 10 cation
5 3 5 9 10 11 rings
6 20 22 23 25 26 27 rings
6 9 11 14 15 16 19 rings

>  <PUBCHEM_HEAVY_ATOM_COUNT>  (1) 
29

>  <PUBCHEM_ATOM_DEF_STEREO_COUNT>  (1) 
0

>  <PUBCHEM_ATOM_UDEF_STEREO_COUNT>  (1) 
0

>  <PUBCHEM_BOND_DEF_STEREO_COUNT>  (1) 
0

>  <PUBCHEM_BOND_UDEF_STEREO_COUNT>  (1) 
0

>  <PUBCHEM_ISOTOPIC_ATOM_COUNT>  (1) 
0

>  <PUBCHEM_COMPONENT_COUNT>  (1) 
1

>  <PUBCHEM_CACTVS_TAUTO_COUNT>  (1) 
4

>  <PUBCHEM_CONFORMER_ID>  (1) 
00006A9D00000001

>  <PUBCHEM_MMFF94_ENERGY>  (1) 
83.2903

>  <PUBCHEM_FEATURE_SELFOVERLAP>  (1) 
40.703

>  <PUBCHEM_SHAPE_FINGERPRINT>  (1) 
10411042 1 18051691341558064623
11056379 131 18410864295440847214
11227688 84 17838322344022321989
12788726 201 18336531790375729259
13140716 1 18267306628252597989
13248334 5 17259342168503785197
13631057 29 18264483052718361078
138480 1 16609696758198465855
13955234 65 17328593821826624321
14790565 3 17979635637010146113
14844126 61 18335421326180428627
15042514 8 18338517542787406799
15064981 194 18335149716817540844
15347591 1 18411981352774742726
15400415 2 18123467177040962632
15927050 60 18267302028290701647
16087824 20 18411979179537024575
16992752 21 18194128640888359766
17980427 26 17764014775647607375
18393751 57 18119536440109406081
19427546 20 18409447011930241308
20101258 96 18197214960762416979
20238998 120 18196367255057773023
21120745 212 18192730044322191765
21796203 349 17541691707551229954
23845131 108 18046912580808518499
23929065 36 18268129006967842074
283562 15 18262512701663560282
3418910 222 17972884932865709356
3627633 1 18267302213158073783
376196 1 17771333184792032172
4058900 60 17980488853622360288
4073 2 18408604752386624442
4144715 1 18411145719310018378
4403749 210 18336266735212017441
5104073 3 18116716214616933864
5309563 4 18050845821184717430
563151 97 18049430462610978837
57634706 229 18057621883818845432
5969126 39 18269548515213621486
6058803 2 18260547823408677478
6673363 416 18050583034655210684
6700243 42 17841749419014036700
77188 2 17907013229472118799
79837 15 18337959974375136507
9981440 41 18121223078519896849

>  <PUBCHEM_SHAPE_MULTIPOLES>  (1) 
565.14
14.95
8.36
1.01
41.21
0.13
0.4
2.87
-0.25
-22.06
2.32
-1.05
-0.87
-0.19

>  <PUBCHEM_SHAPE_SELFOVERLAP>  (1) 
1194.103

>  <PUBCHEM_SHAPE_VOLUME>  (1) 
320.5

>  <PUBCHEM_COORDINATE_TYPE>  (1) 
2
5
10

$$$$
