27308
     RDKit          3D

 23 26  0  0  0  0  0  0  0  0999 V2000
    0.8480   -1.1271    0.2879 O   0  0  0  0  0  0  0  0  0  0  0  0
    4.5024   -0.6287   -0.0016 N   0  0  0  0  0  0  0  0  0  0  0  0
   -0.2858   -0.4542   -0.2241 C   0  0  0  0  0  0  0  0  0  0  0  0
   -2.4130    0.7708   -1.1805 C   0  0  0  0  0  0  0  0  0  0  0  0
   -0.2645   -0.4616   -1.7814 C   0  0  0  0  0  0  0  0  0  0  0  0
   -1.5225    0.2650   -2.3464 C   0  0  0  0  0  0  0  0  0  0  0  0
   -0.3725    1.0197    0.1861 C   0  0  0  0  0  0  0  0  0  0  0  0
   -1.6028   -1.1265    0.1740 C   0  0  0  0  0  0  0  0  0  0  0  0
   -1.5215    1.6744   -0.3354 C   0  0  0  0  0  0  0  0  0  0  0  0
   -2.7463   -0.4610   -0.3456 C   0  0  0  0  0  0  0  0  0  0  0  0
    0.5220    1.7150    0.9898 C   0  0  0  0  0  0  0  0  0  0  0  0
   -1.7529   -2.2598    0.9630 C   0  0  0  0  0  0  0  0  0  0  0  0
    2.0620   -0.5283   -0.1531 C   0  0  0  0  0  0  0  0  0  0  0  0
   -1.7667    3.0123   -0.0578 C   0  0  0  0  0  0  0  0  0  0  0  0
   -4.0255   -0.9288   -0.0779 C   0  0  0  0  0  0  0  0  0  0  0  0
    3.2409   -1.2810    0.4314 C   0  0  0  0  0  0  0  0  0  0  0  0
    0.2731    3.0619    1.2653 C   0  0  0  0  0  0  0  0  0  0  0  0
   -3.0419   -2.7286    1.2288 C   0  0  0  0  0  0  0  0  0  0  0  0
   -0.8601    3.7047    0.7459 C   0  0  0  0  0  0  0  0  0  0  0  0
   -4.1675   -2.0696    0.7132 C   0  0  0  0  0  0  0  0  0  0  0  0
    4.5410    0.8370    0.4518 C   0  0  0  0  0  0  0  0  0  0  0  0
    5.7196   -1.3462    0.5972 C   0  0  0  0  0  0  0  0  0  0  0  0
    4.6344   -0.6592   -1.5304 C   0  0  0  0  0  0  0  0  0  0  0  0
  1  3  1  0
  1 13  1  0
  2 16  1  0
  2 21  1  0
  2 22  1  0
  2 23  1  0
  3  5  1  0
  3  7  1  0
  3  8  1  0
  4  6  1  0
  4  9  1  0
  4 10  1  0
  5  6  1  0
  7  9  2  0
  7 11  1  0
  8 10  2  0
  8 12  1  0
  9 14  1  0
 10 15  1  0
 11 17  2  0
 12 18  2  0
 13 16  1  0
 14 19  2  0
 15 20  2  0
 17 19  1  0
 18 20  1  0
M  CHG  1   2   1
M  END
>  <PUBCHEM_COMPOUND_CID>  (1) 
27308

>  <PUBCHEM_CONFORMER_RMSD>  (1) 
0.8

>  <PUBCHEM_CONFORMER_DIVERSEORDER>  (1) 
1
3
2

>  <PUBCHEM_MMFF94_PARTIAL_CHARGES>  (1) 
29
1 -0.56
10 -0.14
11 -0.15
12 -0.15
13 0.28
14 -0.15
15 -0.15
16 0.5
17 -0.15
18 -0.15
19 -0.15
2 -1.01
20 -0.15
21 0.5
22 0.5
23 0.5
29 0.15
3 0.57
30 0.15
33 0.15
34 0.15
37 0.15
38 0.15
39 0.15
4 0.29
40 0.15
7 -0.14
8 -0.14
9 -0.14

>  <PUBCHEM_EFFECTIVE_ROTOR_COUNT>  (1) 
4.4

>  <PUBCHEM_PHARMACOPHORE_FEATURES>  (1) 
5
1 1 acceptor
1 2 cation
6 7 9 11 14 17 19 rings
6 8 10 12 15 18 20 rings
8 3 4 5 6 7 8 9 10 rings

>  <PUBCHEM_HEAVY_ATOM_COUNT>  (1) 
23

>  <PUBCHEM_ATOM_DEF_STEREO_COUNT>  (1) 
0

>  <PUBCHEM_ATOM_UDEF_STEREO_COUNT>  (1) 
0

>  <PUBCHEM_BOND_DEF_STEREO_COUNT>  (1) 
0

>  <PUBCHEM_BOND_UDEF_STEREO_COUNT>  (1) 
0

>  <PUBCHEM_ISOTOPIC_ATOM_COUNT>  (1) 
0

>  <PUBCHEM_COMPONENT_COUNT>  (1) 
1

>  <PUBCHEM_CACTVS_TAUTO_COUNT>  (1) 
1

>  <PUBCHEM_CONFORMER_ID>  (1) 
00006AAC00000001

>  <PUBCHEM_MMFF94_ENERGY>  (1) 
109.9531

>  <PUBCHEM_FEATURE_SELFOVERLAP>  (1) 
25.393

>  <PUBCHEM_SHAPE_FINGERPRINT>  (1) 
10764073 3 15977560202791844003
10906281 52 18129390315278752197
1100329 8 18411143494053502289
11036077 51 17977380530082069474
11315181 36 18186801341056564690
11578080 2 17751062803703729045
12082328 90 18341060606615723806
12166972 35 17894630371118109532
12173636 292 18192147088416029380
12293681 160 17980455903145266861
12403814 3 17632571643554498830
12422481 6 17630914653804081809
12596602 18 17895737557941946024
12714826 92 18041268950273037467
12788726 201 18267292132764250729
12969540 37 17541943534210316778
13027679 85 18408881867317012133
13140716 1 18341899597272795001
133893 2 17555151902980434045
13544653 18 18261680383992625330
13631057 29 18113619014894902378
14468879 13 17630041547187614804
14787075 74 18116995696549438002
14790565 3 17979356357121063257
14840074 17 17631453548152398324
14863182 85 16026775953948677795
16945 1 18115038419917982959
17492 89 18339923702385710378
17804303 29 18261958565256979627
17980427 23 17417268610136315257
1813 80 17917723438688051972
18785283 64 17832702752893686408
18927931 339 18201434741025825214
20510252 161 18335700494722309899
20600515 1 18262255390362235071
21041028 32 18271529787922096897
21524375 3 17264401038345896288
2297311 6 18339938064423694838
23175994 123 18341614849562172231
23419403 2 18118950615449329749
23557571 272 18341343193054923366
23558518 356 17979640039483441398
23559900 14 18115019830835204676
2748010 2 18122881360744434689
3759504 43 18119246156238810117
394222 165 16738594825736907313
4058900 60 17402906517965587505
497634 4 18041569057503577166
5104073 3 18270674278387749754
59755656 520 17972036937993859886
81228 2 18125185769591078945
9709674 26 18127410056150656566
9862522 239 10303817540336719491
9981440 41 17770766936657473574

>  <PUBCHEM_SHAPE_MULTIPOLES>  (1) 
462.48
8.46
3.51
1.48
13.16
3
-0.75
-6.3
0.55
-2.47
1.82
-0.26
0
1.05

>  <PUBCHEM_SHAPE_SELFOVERLAP>  (1) 
1010.241

>  <PUBCHEM_SHAPE_VOLUME>  (1) 
253.6

>  <PUBCHEM_COORDINATE_TYPE>  (1) 
2
5
10

$$$$
