27302
     RDKit          3D

 14 15  0  0  1  0  0  0  0  0999 V2000
    1.8008    2.0028   -0.1262 N   0  0  0  0  0  0  0  0  0  0  0  0
   -3.8811   -1.2697    0.8104 N   0  0  0  0  0  0  0  0  0  0  0  0
   -1.3930    0.4910    0.7937 C   0  0  0  0  0  0  0  0  0  0  0  0
   -2.3475    0.2485   -0.3989 C   0  0  0  0  0  0  0  0  0  0  0  0
   -0.0071    0.8345    0.4160 C   0  0  0  0  0  0  0  0  0  0  0  0
   -3.8047   -0.0579   -0.0062 C   0  0  0  0  0  0  0  0  0  0  0  0
    1.0645   -0.0773    0.2031 C   0  0  0  0  0  0  0  0  0  0  0  0
    2.1870    0.6814   -0.1357 C   0  0  0  0  0  0  0  0  0  0  0  0
    0.4767    2.1054    0.2062 C   0  0  0  0  0  0  0  0  0  0  0  0
   -4.6698   -0.2281   -1.2555 C   0  0  0  0  0  0  0  0  0  0  0  0
    1.1874   -1.4795    0.2663 C   0  0  0  0  0  0  0  0  0  0  0  0
    3.4313    0.1055   -0.4155 C   0  0  0  0  0  0  0  0  0  0  0  0
    2.4260   -2.0694   -0.0111 C   0  0  0  0  0  0  0  0  0  0  0  0
    3.5294   -1.2871   -0.3466 C   0  0  0  0  0  0  0  0  0  0  0  0
  1  8  1  0
  1  9  1  0
  2  6  1  0
  3  4  1  0
  3  5  1  0
  4  6  1  0
  5  7  1  0
  5  9  2  0
  6 10  1  0
  7  8  2  0
  7 11  1  0
  8 12  1  0
 11 13  2  0
 12 14  2  0
 13 14  1  0
M  END
>  <PUBCHEM_COMPOUND_CID>  (1) 
27302

>  <PUBCHEM_CONFORMER_RMSD>  (1) 
0.6

>  <PUBCHEM_CONFORMER_DIVERSEORDER>  (1) 
1
13
23
20
8
14
11
19
15
22
25
24
16
2
21
7
3
10
12
27
9
5
18
17
26
6
4

>  <PUBCHEM_MMFF94_PARTIAL_CHARGES>  (1) 
19
1 0.03
11 -0.15
12 -0.15
13 -0.15
14 -0.15
2 -0.99
20 0.15
21 0.27
25 0.15
26 0.15
27 0.36
28 0.36
29 0.15
3 0.18
30 0.15
5 -0.18
6 0.27
8 -0.15
9 -0.3

>  <PUBCHEM_EFFECTIVE_ROTOR_COUNT>  (1) 
3

>  <PUBCHEM_PHARMACOPHORE_FEATURES>  (1) 
6
1 1 cation
1 1 donor
1 2 cation
1 2 donor
5 1 5 7 8 9 rings
6 7 8 11 12 13 14 rings

>  <PUBCHEM_HEAVY_ATOM_COUNT>  (1) 
14

>  <PUBCHEM_ATOM_DEF_STEREO_COUNT>  (1) 
0

>  <PUBCHEM_ATOM_UDEF_STEREO_COUNT>  (1) 
1

>  <PUBCHEM_BOND_DEF_STEREO_COUNT>  (1) 
0

>  <PUBCHEM_BOND_UDEF_STEREO_COUNT>  (1) 
0

>  <PUBCHEM_ISOTOPIC_ATOM_COUNT>  (1) 
0

>  <PUBCHEM_COMPONENT_COUNT>  (1) 
1

>  <PUBCHEM_CACTVS_TAUTO_COUNT>  (1) 
1

>  <PUBCHEM_CONFORMER_ID>  (1) 
00006AA600000001

>  <PUBCHEM_MMFF94_ENERGY>  (1) 
13.3447

>  <PUBCHEM_FEATURE_SELFOVERLAP>  (1) 
30.538

>  <PUBCHEM_SHAPE_FINGERPRINT>  (1) 
10498660 4 16081913846931195965
11471102 20 18410008853370526300
11543360 7 16443643370684333431
11806522 49 18342457032582685720
13705890 14 18334014994930989184
14251717 144 18411135839935834214
14252887 29 17775010063750620630
14576447 43 18343297080572125054
15375462 189 17988646324073341067
15477762 27 18411700997460098198
15757776 16 18410291376593700078
16945 1 18336282162660009456
17834074 16 18335142033389546955
1798214 20 18342451517802577255
18186145 218 17822007606143299881
200 152 18273493468697371841
20201158 50 18334579031548293643
20645477 70 18412821404599810631
20671657 53 18411421670072628077
20871998 22 18057331591310594822
21256008 61 18341892987254341820
21501925 9 18340761568467465936
21637258 2 16271932545986551414
221490 88 18263652920832722507
2255824 54 18270683189627632796
23402539 116 18265896861309748090
23402655 69 18409165498182695765
2748010 2 17977122454598682184
2838139 119 15720257126462135326
2871803 45 18335983073442247126
3323516 105 18260552255398501011
581208 293 18341044207090358168
7364860 26 18200870785485664520
94968 8 18412545401052771174

>  <PUBCHEM_SHAPE_MULTIPOLES>  (1) 
278.15
7.66
1.96
0.86
8
0.22
0.07
-3.08
1.91
-1.43
-0.13
0.65
-0.07
0.07

>  <PUBCHEM_SHAPE_SELFOVERLAP>  (1) 
586.808

>  <PUBCHEM_SHAPE_VOLUME>  (1) 
158.1

>  <PUBCHEM_COORDINATE_TYPE>  (1) 
2
5
10

$$$$
