27304
     RDKit          3D

 10  9  0  0  0  0  0  0  0  0999 V2000
   -1.5616    0.1407   -0.0680 P   0  0  0  0  0  0  0  0  0  0  0  0
    1.6351    0.0979    0.0619 P   0  0  0  0  0  0  0  0  0  0  0  0
    0.0198   -1.8604    0.0575 O   0  0  0  0  0  0  0  0  0  0  0  0
   -2.6605   -0.7992    0.6542 O   0  0  0  0  0  0  0  0  0  0  0  0
   -1.6924    1.5428    0.7246 O   0  0  0  0  0  0  0  0  0  0  0  0
    1.5372    0.2723   -1.5415 O   0  0  0  0  0  0  0  0  0  0  0  0
    1.6180    1.6202    0.6038 O   0  0  0  0  0  0  0  0  0  0  0  0
   -1.6812    0.2382   -1.5595 O   0  0  0  0  0  0  0  0  0  0  0  0
    2.7797   -0.7393    0.5489 O   0  0  0  0  0  0  0  0  0  0  0  0
    0.0060   -0.5131    0.5182 C   0  0  0  0  0  0  0  0  0  0  0  0
  1  4  1  0
  1  5  1  0
  1  8  2  0
  1 10  1  0
  2  6  1  0
  2  7  1  0
  2  9  2  0
  2 10  1  0
  3 10  1  0
M  END
>  <PUBCHEM_COMPOUND_CID>  (1) 
27304

>  <PUBCHEM_CONFORMER_RMSD>  (1) 
0.4

>  <PUBCHEM_CONFORMER_DIVERSEORDER>  (1) 
1

>  <PUBCHEM_MMFF94_PARTIAL_CHARGES>  (1) 
15
1 1.24
10 0.28
12 0.4
13 0.5
14 0.5
15 0.5
16 0.5
2 1.24
3 -0.68
4 -0.77
5 -0.77
6 -0.77
7 -0.77
8 -0.7
9 -0.7

>  <PUBCHEM_EFFECTIVE_ROTOR_COUNT>  (1) 
2

>  <PUBCHEM_PHARMACOPHORE_FEATURES>  (1) 
10
1 3 acceptor
1 3 donor
1 4 acceptor
1 5 acceptor
1 6 acceptor
1 7 acceptor
1 8 acceptor
1 9 acceptor
4 1 4 5 8 anion
4 2 6 7 9 anion

>  <PUBCHEM_HEAVY_ATOM_COUNT>  (1) 
10

>  <PUBCHEM_ATOM_DEF_STEREO_COUNT>  (1) 
0

>  <PUBCHEM_ATOM_UDEF_STEREO_COUNT>  (1) 
0

>  <PUBCHEM_BOND_DEF_STEREO_COUNT>  (1) 
0

>  <PUBCHEM_BOND_UDEF_STEREO_COUNT>  (1) 
0

>  <PUBCHEM_ISOTOPIC_ATOM_COUNT>  (1) 
0

>  <PUBCHEM_COMPONENT_COUNT>  (1) 
1

>  <PUBCHEM_CACTVS_TAUTO_COUNT>  (1) 
1

>  <PUBCHEM_CONFORMER_ID>  (1) 
00006AA800000001

>  <PUBCHEM_MMFF94_ENERGY>  (1) 
-53.1844

>  <PUBCHEM_FEATURE_SELFOVERLAP>  (1) 
50.825

>  <PUBCHEM_SHAPE_FINGERPRINT>  (1) 
21040471 1 18335989747932110394
23235687 12 16988840613616174420
24536 1 18264199219387464387
29004967 10 14476956809169925138
5084963 1 17821447966997714627

>  <PUBCHEM_SHAPE_MULTIPOLES>  (1) 
172.41
3.46
1.43
1.14
0.13
0.01
-0.52
-0.03
0.34
0.01
0.34
-0.1
0.2
0

>  <PUBCHEM_SHAPE_SELFOVERLAP>  (1) 
297.442

>  <PUBCHEM_SHAPE_VOLUME>  (1) 
114.7

>  <PUBCHEM_COORDINATE_TYPE>  (1) 
2
5
10

$$$$
