27303
     RDKit          3D

 14 15  0  0  0  0  0  0  0  0999 V2000
   -0.8677    2.1022    0.1598 N   0  0  0  0  0  0  0  0  0  0  0  0
    2.3142   -0.6820    2.0566 N   0  0  0  0  0  0  0  0  0  0  0  0
    1.9503   -0.1526   -0.3942 C   0  0  0  0  0  0  0  0  0  0  0  0
    0.6540    0.5229   -0.1825 C   0  0  0  0  0  0  0  0  0  0  0  0
    2.2839   -1.2439    0.7072 C   0  0  0  0  0  0  0  0  0  0  0  0
   -0.6256   -0.0971   -0.1258 C   0  0  0  0  0  0  0  0  0  0  0  0
    1.9891   -0.9140   -1.7714 C   0  0  0  0  0  0  0  0  0  0  0  0
    3.2131    0.7916   -0.4543 C   0  0  0  0  0  0  0  0  0  0  0  0
    0.4724    1.8750   -0.0036 C   0  0  0  0  0  0  0  0  0  0  0  0
   -1.5626    0.9159    0.0898 C   0  0  0  0  0  0  0  0  0  0  0  0
   -1.0781   -1.4268   -0.2374 C   0  0  0  0  0  0  0  0  0  0  0  0
   -2.9349    0.6644    0.1998 C   0  0  0  0  0  0  0  0  0  0  0  0
   -2.4479   -1.6933   -0.1296 C   0  0  0  0  0  0  0  0  0  0  0  0
   -3.3602   -0.6622    0.0857 C   0  0  0  0  0  0  0  0  0  0  0  0
  1  9  1  0
  1 10  1  0
  2  5  1  0
  3  4  1  0
  3  5  1  0
  3  7  1  0
  3  8  1  0
  4  6  1  0
  4  9  2  0
  6 10  2  0
  6 11  1  0
 10 12  1  0
 11 13  2  0
 12 14  2  0
 13 14  1  0
M  END
>  <PUBCHEM_COMPOUND_CID>  (1) 
27303

>  <PUBCHEM_CONFORMER_RMSD>  (1) 
0.6

>  <PUBCHEM_CONFORMER_DIVERSEORDER>  (1) 
1
4
7
3
5
6
2

>  <PUBCHEM_MMFF94_PARTIAL_CHARGES>  (1) 
19
1 0.03
10 -0.15
11 -0.15
12 -0.15
13 -0.15
14 -0.15
2 -0.99
23 0.15
24 0.27
25 0.15
26 0.36
27 0.36
28 0.15
29 0.15
3 0.18
30 0.15
4 -0.18
5 0.27
9 -0.3

>  <PUBCHEM_EFFECTIVE_ROTOR_COUNT>  (1) 
2

>  <PUBCHEM_PHARMACOPHORE_FEATURES>  (1) 
7
1 1 cation
1 1 donor
1 2 cation
1 2 donor
3 3 7 8 hydrophobe
5 1 4 6 9 10 rings
6 6 10 11 12 13 14 rings

>  <PUBCHEM_HEAVY_ATOM_COUNT>  (1) 
14

>  <PUBCHEM_ATOM_DEF_STEREO_COUNT>  (1) 
0

>  <PUBCHEM_ATOM_UDEF_STEREO_COUNT>  (1) 
0

>  <PUBCHEM_BOND_DEF_STEREO_COUNT>  (1) 
0

>  <PUBCHEM_BOND_UDEF_STEREO_COUNT>  (1) 
0

>  <PUBCHEM_ISOTOPIC_ATOM_COUNT>  (1) 
0

>  <PUBCHEM_COMPONENT_COUNT>  (1) 
1

>  <PUBCHEM_CACTVS_TAUTO_COUNT>  (1) 
1

>  <PUBCHEM_CONFORMER_ID>  (1) 
00006AA700000001

>  <PUBCHEM_MMFF94_ENERGY>  (1) 
31.3692

>  <PUBCHEM_FEATURE_SELFOVERLAP>  (1) 
35.612

>  <PUBCHEM_SHAPE_FINGERPRINT>  (1) 
10130415 120 18335136497097262883
10857977 72 18201715154543940833
11578080 2 17460004376297750508
12382932 28 18343299288211403011
12524768 44 18343871025736516229
12932764 1 17968102988395182413
13538477 17 18260829246049286338
14115302 16 17458917040400909590
14144814 61 18410577296898362003
14252887 29 18199767979586258795
15076042 46 18266455399803963026
15375462 175 18197232368222793239
15375462 189 18187930615915937947
15775835 57 18113622278568224495
16945 1 18339926996139667189
17990270 104 18272097157185440599
193761 8 17258786919395167933
20201158 50 18272377498375265615
20510252 161 18130515123947260833
20645476 183 17677351462388565431
20645477 70 17909548703465761631
20871998 22 18271540774384857295
22445834 79 17896876552281167386
22802520 49 17914640283482529646
232386 152 18334006181790297954
23402539 116 18412823607939054646
23419403 2 15687510409974179151
23463225 33 18335701598497217339
23552423 10 18045504363837146453
23559900 14 18271530776275888406
2748010 2 17763191232969949517
3312278 4 18262243325461269243
34934 24 18410853308455327517
53812654 25 18339629101334204851
7364860 26 17913776290760738817
77492 1 17822297846710379182
8030462 33 17749402429122780126
81228 2 18199191685338435945

>  <PUBCHEM_SHAPE_MULTIPOLES>  (1) 
278.15
4.93
1.87
1.15
0.76
0.42
-0.23
-0.98
-0.15
0.41
0
-1.16
-0.43
-0.25

>  <PUBCHEM_SHAPE_SELFOVERLAP>  (1) 
594.279

>  <PUBCHEM_SHAPE_VOLUME>  (1) 
157

>  <PUBCHEM_COORDINATE_TYPE>  (1) 
2
5
10

$$$$
