27315
     RDKit          3D

 14 13  0  0  0  0  0  0  0  0999 V2000
    1.0802    0.6509   -2.1759 O   0  0  0  0  0  0  0  0  0  0  0  0
    1.0173    2.2807    0.8126 O   0  0  0  0  0  0  0  0  0  0  0  0
    0.3217   -1.1744    2.0547 O   0  0  0  0  0  0  0  0  0  0  0  0
    0.4314   -1.4098   -1.7966 O   0  0  0  0  0  0  0  0  0  0  0  0
    2.6959    0.9551    0.3244 O   0  0  0  0  0  0  0  0  0  0  0  0
    1.7031   -1.8971    0.5143 O   0  0  0  0  0  0  0  0  0  0  0  0
    0.7071   -0.2609   -1.4232 N   0  0  0  0  0  0  0  0  0  0  0  0
    1.4842    1.2035    0.4184 N   0  0  0  0  0  0  0  0  0  0  0  0
    0.8847   -1.0779    0.9539 N   0  0  0  0  0  0  0  0  0  0  0  0
   -4.4473    0.5209    0.1216 N   0  0  0  0  0  0  0  0  0  0  0  0
    0.4986    0.0899    0.0490 C   0  0  0  0  0  0  0  0  0  0  0  0
   -0.9617    0.5437    0.2480 C   0  0  0  0  0  0  0  0  0  0  0  0
   -2.0329   -0.4974   -0.1176 C   0  0  0  0  0  0  0  0  0  0  0  0
   -3.3822    0.0728    0.0165 C   0  0  0  0  0  0  0  0  0  0  0  0
  1  7  1  0
  2  8  1  0
  3  9  1  0
  4  7  2  0
  5  8  2  0
  6  9  2  0
  7 11  1  0
  8 11  1  0
  9 11  1  0
 10 14  3  0
 11 12  1  0
 12 13  1  0
 13 14  1  0
M  CHG  6   1  -1   2  -1   3  -1   7   1   8   1   9   1
M  END
>  <PUBCHEM_COMPOUND_CID>  (1) 
27315

>  <PUBCHEM_CONFORMER_RMSD>  (1) 
0.6

>  <PUBCHEM_CONFORMER_DIVERSEORDER>  (1) 
1
10
13
8
7
11
3
12
14
5
6
4
2
9

>  <PUBCHEM_MMFF94_PARTIAL_CHARGES>  (1) 
13
1 -0.52
10 -0.56
11 0.72
13 0.2
14 0.36
2 -0.52
3 -0.52
4 -0.52
5 -0.52
6 -0.52
7 0.8
8 0.8
9 0.8

>  <PUBCHEM_EFFECTIVE_ROTOR_COUNT>  (1) 
5

>  <PUBCHEM_PHARMACOPHORE_FEATURES>  (1) 
10
1 1 acceptor
1 1 anion
1 10 acceptor
1 2 acceptor
1 2 anion
1 3 acceptor
1 3 anion
1 4 acceptor
1 5 acceptor
1 6 acceptor

>  <PUBCHEM_HEAVY_ATOM_COUNT>  (1) 
14

>  <PUBCHEM_ATOM_DEF_STEREO_COUNT>  (1) 
0

>  <PUBCHEM_ATOM_UDEF_STEREO_COUNT>  (1) 
0

>  <PUBCHEM_BOND_DEF_STEREO_COUNT>  (1) 
0

>  <PUBCHEM_BOND_UDEF_STEREO_COUNT>  (1) 
0

>  <PUBCHEM_ISOTOPIC_ATOM_COUNT>  (1) 
0

>  <PUBCHEM_COMPONENT_COUNT>  (1) 
1

>  <PUBCHEM_CACTVS_TAUTO_COUNT>  (1) 
1

>  <PUBCHEM_CONFORMER_ID>  (1) 
00006AB300000001

>  <PUBCHEM_MMFF94_ENERGY>  (1) 
34.1319

>  <PUBCHEM_FEATURE_SELFOVERLAP>  (1) 
51.009

>  <PUBCHEM_SHAPE_FINGERPRINT>  (1) 
10702982 57 17985248923200806142
12423570 1 14298032448932335218
12725867 57 16878497926036242303
12932764 1 18408328778977676613
14344429 50 18410856521375493523
14817 1 12818268515661142342
15775835 57 18335982051609146345
16945 1 18337092545162349632
170605 34 18200313341943937201
20708731 107 16805619018603791075
21730867 7 18113892763124544985
3248919 1 16805326609067333481
3250762 1 16231351693107810504
528886 8 17417812889144414925

>  <PUBCHEM_SHAPE_MULTIPOLES>  (1) 
232.97
4.35
1.64
1.59
6.54
0.24
0.43
1.01
-0.24
-1.15
-0.3
-0.85
-0.54
-0.07

>  <PUBCHEM_SHAPE_SELFOVERLAP>  (1) 
455.748

>  <PUBCHEM_SHAPE_VOLUME>  (1) 
134.9

>  <PUBCHEM_COORDINATE_TYPE>  (1) 
2
5
10

$$$$
