27314
     RDKit          3D

  9  8  0  0  0  0  0  0  0  0999 V2000
   -2.4199    1.3748    0.0071 O   0  0  0  0  0  0  0  0  0  0  0  0
    2.9431    0.2829    1.1267 O   0  0  0  0  0  0  0  0  0  0  0  0
    2.9796    0.3270   -1.0758 O   0  0  0  0  0  0  0  0  0  0  0  0
    2.4827   -0.0170    0.0111 N   0  0  0  0  0  0  0  0  0  0  0  0
   -3.6321   -0.5790    0.0274 N   0  0  0  0  0  0  0  0  0  0  0  0
    0.0659    0.0614   -0.0489 C   0  0  0  0  0  0  0  0  0  0  0  0
   -1.2328   -0.7404   -0.0232 C   0  0  0  0  0  0  0  0  0  0  0  0
    1.2745   -0.8577   -0.0286 C   0  0  0  0  0  0  0  0  0  0  0  0
   -2.4610    0.1481    0.0042 C   0  0  0  0  0  0  0  0  0  0  0  0
  1  9  2  0
  2  4  1  0
  3  4  2  0
  4  8  1  0
  5  9  1  0
  6  7  1  0
  6  8  1  0
  7  9  1  0
M  CHG  2   2  -1   4   1
M  END
>  <PUBCHEM_COMPOUND_CID>  (1) 
27314

>  <PUBCHEM_CONFORMER_RMSD>  (1) 
0.6

>  <PUBCHEM_CONFORMER_DIVERSEORDER>  (1) 
1
27
34
20
16
28
13
4
31
12
3
19
30
15
32
25
18
11
37
8
33
6
17
9
29
7
24
36
23
5
26
14
35
2
21
22
10

>  <PUBCHEM_MMFF94_PARTIAL_CHARGES>  (1) 
10
1 -0.57
16 0.37
17 0.37
2 -0.52
3 -0.52
4 0.8
5 -0.8
7 0.06
8 0.24
9 0.57

>  <PUBCHEM_EFFECTIVE_ROTOR_COUNT>  (1) 
4

>  <PUBCHEM_PHARMACOPHORE_FEATURES>  (1) 
5
1 1 acceptor
1 2 acceptor
1 2 anion
1 3 acceptor
1 5 donor

>  <PUBCHEM_HEAVY_ATOM_COUNT>  (1) 
9

>  <PUBCHEM_ATOM_DEF_STEREO_COUNT>  (1) 
0

>  <PUBCHEM_ATOM_UDEF_STEREO_COUNT>  (1) 
0

>  <PUBCHEM_BOND_DEF_STEREO_COUNT>  (1) 
0

>  <PUBCHEM_BOND_UDEF_STEREO_COUNT>  (1) 
0

>  <PUBCHEM_ISOTOPIC_ATOM_COUNT>  (1) 
0

>  <PUBCHEM_COMPONENT_COUNT>  (1) 
1

>  <PUBCHEM_CACTVS_TAUTO_COUNT>  (1) 
4

>  <PUBCHEM_CONFORMER_ID>  (1) 
00006AB200000001

>  <PUBCHEM_MMFF94_ENERGY>  (1) 
8.7175

>  <PUBCHEM_FEATURE_SELFOVERLAP>  (1) 
25.45

>  <PUBCHEM_SHAPE_FINGERPRINT>  (1) 
10857977 72 18409443708984209393
11062470 55 15213017163461074799
12932741 1 17561368413075066990
12932764 1 17917989464609551727
14325111 11 18410575050477569783
14390081 3 18273210876601941833
29004967 10 13479136787132820494
3248919 1 17967533462831019523
5460574 1 9295288339601636503

>  <PUBCHEM_SHAPE_MULTIPOLES>  (1) 
157.65
5.85
0.96
0.79
0.23
0.1
-0.02
0.54
-0.07
0.46
0
-0.66
0.06
0

>  <PUBCHEM_SHAPE_SELFOVERLAP>  (1) 
293.419

>  <PUBCHEM_SHAPE_VOLUME>  (1) 
98.9

>  <PUBCHEM_COORDINATE_TYPE>  (1) 
2
5
10

$$$$
