2732
     RDKit          3D

 22 24  0  0  1  0  0  0  0  0999 V2000
   -4.7187   -1.0015    0.6077 Cl  0  0  0  0  0  0  0  0  0  0  0  0
   -3.1006    1.6618   -0.2592 S   0  0  0  0  0  0  0  0  0  0  0  0
    1.7196   -2.5910   -0.3098 O   0  0  0  0  0  0  0  0  0  0  0  0
    3.0446    0.8709   -2.6267 O   0  0  0  0  0  0  0  0  0  0  0  0
   -2.3002    2.4665   -1.1681 O   0  0  0  0  0  0  0  0  0  0  0  0
   -4.5087    1.4301   -0.5389 O   0  0  0  0  0  0  0  0  0  0  0  0
    1.6044   -0.7674   -1.7471 N   0  0  0  0  0  0  0  0  0  0  0  0
   -2.9475    2.2905    1.3209 N   0  0  0  0  0  0  0  0  0  0  0  0
    1.2245   -1.2617   -0.4270 C   0  0  0  0  0  0  0  0  0  0  0  0
    2.0393   -0.3736    0.4742 C   0  0  0  0  0  0  0  0  0  0  0  0
   -0.2700   -1.1824   -0.1698 C   0  0  0  0  0  0  0  0  0  0  0  0
    2.8035    0.5160   -0.2860 C   0  0  0  0  0  0  0  0  0  0  0  0
    2.5328    0.2649   -1.7043 C   0  0  0  0  0  0  0  0  0  0  0  0
   -0.9419    0.0345   -0.3069 C   0  0  0  0  0  0  0  0  0  0  0  0
    2.1225   -0.3512    1.8561 C   0  0  0  0  0  0  0  0  0  0  0  0
   -0.9781   -2.3264    0.2047 C   0  0  0  0  0  0  0  0  0  0  0  0
   -2.3146    0.1068   -0.0705 C   0  0  0  0  0  0  0  0  0  0  0  0
    3.6525    1.4472    0.2797 C   0  0  0  0  0  0  0  0  0  0  0  0
    2.9749    0.5829    2.4540 C   0  0  0  0  0  0  0  0  0  0  0  0
   -2.3510   -2.2540    0.4411 C   0  0  0  0  0  0  0  0  0  0  0  0
   -3.0192   -1.0374    0.3034 C   0  0  0  0  0  0  0  0  0  0  0  0
    3.7320    1.4746    1.6725 C   0  0  0  0  0  0  0  0  0  0  0  0
  1 21  1  0
  2  5  2  0
  2  6  2  0
  2  8  1  0
  2 17  1  0
  3  9  1  0
  4 13  2  0
  7  9  1  0
  7 13  1  0
  9 10  1  0
  9 11  1  0
 10 12  2  0
 10 15  1  0
 11 14  2  0
 11 16  1  0
 12 13  1  0
 12 18  1  0
 14 17  1  0
 15 19  2  0
 16 20  2  0
 17 21  2  0
 18 22  2  0
 19 22  1  0
 20 21  1  0
M  END
>  <PUBCHEM_COMPOUND_CID>  (1) 
2732

>  <PUBCHEM_CONFORMER_RMSD>  (1) 
0.6

>  <PUBCHEM_CONFORMER_DIVERSEORDER>  (1) 
5
22
17
12
15
3
10
19
13
4
7
21
18
16
9
2
6
11
14
1
20
8

>  <PUBCHEM_MMFF94_PARTIAL_CHARGES>  (1) 
33
1 -0.18
10 -0.14
11 -0.14
12 0.09
13 0.54
14 -0.15
15 -0.15
16 -0.15
17 -0.01
18 -0.15
19 -0.15
2 1.45
20 -0.15
21 0.18
22 -0.15
23 0.37
24 0.15
25 0.15
26 0.15
27 0.15
28 0.4
29 0.15
3 -0.68
30 0.15
31 0.15
32 0.42
33 0.42
4 -0.57
5 -0.65
6 -0.65
7 -0.73
8 -0.98
9 0.87

>  <PUBCHEM_EFFECTIVE_ROTOR_COUNT>  (1) 
2.4

>  <PUBCHEM_PHARMACOPHORE_FEATURES>  (1) 
10
1 3 acceptor
1 3 donor
1 4 acceptor
1 5 acceptor
1 6 acceptor
1 7 donor
1 8 donor
5 7 9 10 12 13 rings
6 10 12 15 18 19 22 rings
6 11 14 16 17 20 21 rings

>  <PUBCHEM_HEAVY_ATOM_COUNT>  (1) 
22

>  <PUBCHEM_ATOM_DEF_STEREO_COUNT>  (1) 
0

>  <PUBCHEM_ATOM_UDEF_STEREO_COUNT>  (1) 
1

>  <PUBCHEM_BOND_DEF_STEREO_COUNT>  (1) 
0

>  <PUBCHEM_BOND_UDEF_STEREO_COUNT>  (1) 
0

>  <PUBCHEM_ISOTOPIC_ATOM_COUNT>  (1) 
0

>  <PUBCHEM_COMPONENT_COUNT>  (1) 
1

>  <PUBCHEM_CACTVS_TAUTO_COUNT>  (1) 
2

>  <PUBCHEM_CONFORMER_ID>  (1) 
00000AAC00000005

>  <PUBCHEM_MMFF94_ENERGY>  (1) 
50.0949

>  <PUBCHEM_FEATURE_SELFOVERLAP>  (1) 
50.896

>  <PUBCHEM_SHAPE_FINGERPRINT>  (1) 
10165383 225 17982491210446331747
10498660 4 18413111654078850585
10646746 165 18411981351460894096
10764073 3 17550642445787896178
11471102 22 14852150884715462178
11595378 159 17894629266578219769
11640471 11 17531251711505830030
11715629 250 18272089413501947463
11725454 13 17416378031129021314
11759241 127 17630879594112378551
12173636 292 18336827486157267117
12236239 1 17458623475344214958
12553582 1 18046639064417484195
12788726 201 17606414399770309483
12892183 10 17969761108144044264
13134695 92 17557135104556662414
13140716 1 17977387466781235075
13224815 77 18411702063118409281
13533116 47 14923944535959873593
13764800 53 18412544327463707331
13965767 371 17751913627644702757
14081887 123 18341327877233012123
14429115 67 12902419892097897705
14739800 52 17901380423098833584
14787075 74 16016666927856819810
16945 1 18337955713488426119
17349148 13 18114729517137987631
18186145 218 17846508010527892611
18981168 100 18271534117006057545
19862831 5 12823300134220090555
20510252 161 18411421722155639315
20715895 44 17388232573973987117
21427221 339 17531235137459266696
21486144 27 17274550926476507191
21639500 275 15985106370479240626
22149856 69 18263938653440724673
22749437 52 18263636278108620541
23419403 2 17261556628051504170
23557571 272 18342178929044649631
23559900 14 18263927640036892679
238 59 16773786013595790560
25 1 16271371953896451930
341906 21 18334290976882138917
350125 39 18337962177292932723
3524813 1 18060136599785932152
3797600 57 17098368528957596000
469060 322 18262534701039049019
495365 180 17916573246488601783
5281201 14 16917078719581775485
57527585 21 17560508603704774809
6049 1 17988658401173282551
633830 44 16917079828237258347
7097593 13 17532632595073501490
7615 1 17530959228390932647
7808743 9 18195527223641840552
81228 2 18336558200197833787
90316 7 17531231855840716781

>  <PUBCHEM_SHAPE_MULTIPOLES>  (1) 
425.03
8.06
2.51
1.87
3.55
0.03
0.15
3.28
-1.49
1.89
-0.03
-2.49
0.57
0.86

>  <PUBCHEM_SHAPE_SELFOVERLAP>  (1) 
920.337

>  <PUBCHEM_SHAPE_VOLUME>  (1) 
236.2

>  <PUBCHEM_COORDINATE_TYPE>  (1) 
2
5
10

$$$$
