27329
     RDKit          3D

 26 27  0  0  0  0  0  0  0  0999 V2000
   -1.0598    0.1807   -2.7206 Cl  0  0  0  0  0  0  0  0  0  0  0  0
   -0.4715   -2.4443    2.0318 Cl  0  0  0  0  0  0  0  0  0  0  0  0
    2.6818   -0.6006   -0.4777 O   0  0  0  0  0  0  0  0  0  0  0  0
   -5.0025   -1.0911    0.2023 O   0  0  0  0  0  0  0  0  0  0  0  0
    1.2073    0.8464    0.5032 O   0  0  0  0  0  0  0  0  0  0  0  0
    6.1877    0.5251   -0.3120 N   0  0  0  0  0  0  0  0  0  0  0  0
    0.5038   -1.1442   -0.5084 N   0  0  0  0  0  0  0  0  0  0  0  0
    6.3196    0.6854    1.1429 C   0  0  0  0  0  0  0  0  0  0  0  0
    7.4246   -0.0058   -0.9022 C   0  0  0  0  0  0  0  0  0  0  0  0
    7.4700    1.6308    1.4918 C   0  0  0  0  0  0  0  0  0  0  0  0
    8.6112    0.9173   -0.6202 C   0  0  0  0  0  0  0  0  0  0  0  0
    8.7820    1.1593    0.8751 C   0  0  0  0  0  0  0  0  0  0  0  0
    5.0550   -0.3436   -0.6304 C   0  0  0  0  0  0  0  0  0  0  0  0
    3.7543    0.2663   -0.1326 C   0  0  0  0  0  0  0  0  0  0  0  0
   -7.7770    1.4342   -0.0837 C   0  0  0  0  0  0  0  0  0  0  0  0
   -6.9655    0.2629    0.4656 C   0  0  0  0  0  0  0  0  0  0  0  0
   -9.0021    1.7178    0.7851 C   0  0  0  0  0  0  0  0  0  0  0  0
    1.4234   -0.1979   -0.0996 C   0  0  0  0  0  0  0  0  0  0  0  0
   -5.7206    0.0007   -0.3701 C   0  0  0  0  0  0  0  0  0  0  0  0
   -9.7942    2.9049    0.2606 C   0  0  0  0  0  0  0  0  0  0  0  0
   -0.8979   -1.1307   -0.3274 C   0  0  0  0  0  0  0  0  0  0  0  0
   -3.6526   -1.1040    0.0281 C   0  0  0  0  0  0  0  0  0  0  0  0
   -1.7077   -0.5435   -1.2910 C   0  0  0  0  0  0  0  0  0  0  0  0
   -1.4474   -1.7048    0.8116 C   0  0  0  0  0  0  0  0  0  0  0  0
   -3.0910   -0.5302   -1.1123 C   0  0  0  0  0  0  0  0  0  0  0  0
   -2.8308   -1.6912    0.9902 C   0  0  0  0  0  0  0  0  0  0  0  0
  1 23  1  0
  2 24  1  0
  3 14  1  0
  3 18  1  0
  4 19  1  0
  4 22  1  0
  5 18  2  0
  6  8  1  0
  6  9  1  0
  6 13  1  0
  7 18  1  0
  7 21  1  0
  8 10  1  0
  9 11  1  0
 10 12  1  0
 11 12  1  0
 13 14  1  0
 15 16  1  0
 15 17  1  0
 16 19  1  0
 17 20  1  0
 21 23  2  0
 21 24  1  0
 22 25  2  0
 22 26  1  0
 23 25  1  0
 24 26  2  0
M  END
>  <PUBCHEM_COMPOUND_CID>  (1) 
27329

>  <PUBCHEM_CONFORMER_RMSD>  (1) 
1.2

>  <PUBCHEM_CONFORMER_DIVERSEORDER>  (1) 
1
6
26
62
32
53
42
29
31
41
17
27
66
18
47
40
55
2
28
20
22
16
50
24
54
11
30
46
64
13
36
63
39
45
10
52
12
34
4
7
14
8
19
33
23
44
57
35
49
9
60
37
15
48
43
3
61
56
25
51
65
58
21
38
5
59

>  <PUBCHEM_MMFF94_PARTIAL_CHARGES>  (1) 
22
1 -0.18
13 0.27
14 0.28
18 0.78
19 0.28
2 -0.18
21 0.12
22 0.08
23 0.18
24 0.18
25 -0.15
26 -0.15
3 -0.43
4 -0.36
5 -0.57
52 0.37
53 0.15
54 0.15
6 -0.81
7 -0.55
8 0.27
9 0.27

>  <PUBCHEM_EFFECTIVE_ROTOR_COUNT>  (1) 
12.2

>  <PUBCHEM_PHARMACOPHORE_FEATURES>  (1) 
7
1 20 hydrophobe
1 4 acceptor
1 5 acceptor
1 6 cation
1 7 donor
6 21 22 23 24 25 26 rings
6 6 8 9 10 11 12 rings

>  <PUBCHEM_HEAVY_ATOM_COUNT>  (1) 
26

>  <PUBCHEM_ATOM_DEF_STEREO_COUNT>  (1) 
0

>  <PUBCHEM_ATOM_UDEF_STEREO_COUNT>  (1) 
0

>  <PUBCHEM_BOND_DEF_STEREO_COUNT>  (1) 
0

>  <PUBCHEM_BOND_UDEF_STEREO_COUNT>  (1) 
0

>  <PUBCHEM_ISOTOPIC_ATOM_COUNT>  (1) 
0

>  <PUBCHEM_COMPONENT_COUNT>  (1) 
1

>  <PUBCHEM_CACTVS_TAUTO_COUNT>  (1) 
2

>  <PUBCHEM_CONFORMER_ID>  (1) 
00006AC100000001

>  <PUBCHEM_MMFF94_ENERGY>  (1) 
64.0018

>  <PUBCHEM_FEATURE_SELFOVERLAP>  (1) 
35.52

>  <PUBCHEM_SHAPE_FINGERPRINT>  (1) 
10165383 225 18113899356004923699
10299344 5 15936403473368566322
106641 1 16732709350752371745
11181472 205 17559966432448891723
11315181 36 15697723717803431334
11524674 6 18336827606517506642
12236239 1 16487258815890248790
13540713 4 16300339464236478751
13540713 5 14044082260445323495
14251764 18 17822006540406250930
14344974 52 17846493756417569517
14429380 56 15769773585595802808
15183329 4 14620522250876454366
15461852 350 15697995267300359205
155225 1 18341333311031851425
15690457 1 8358257038235707356
15706992 2 18340217323719279713
15849732 13 17346882286093135828
1818759 1 8070024480731375473
18335252 98 12612752410934785000
2026 5 8070034371856903465
20721686 146 18340769218606535037
21267235 1 11458423535554579615
21304253 13 18041000673994799717
21781055 127 17895771607809775958
21792934 111 17846492614051052394
22224240 67 17676209074582275771
23576562 1 15912744199215578537
246663 6 11169909485492312560
24771293 8 18040434387347505143
3178227 256 16370730326556174357
3633792 109 16702311135024529310
4093350 32 18341048532687544738
4760202 170 16917058989066872024
484989 97 14476379605111462903
5385378 56 17894627015662494531
54039377 194 10303802191284477809
5758199 1 18113900446953224659
58260988 521 13190341262431713419
5937810 71 17346044351893219729
59682541 35 14273741767347346301
636775 72 18341614790124480369

>  <PUBCHEM_SHAPE_MULTIPOLES>  (1) 
511.24
30.95
2.1
1.6
1.34
0.11
-0.46
29.19
8.15
-4.11
1.11
0.65
-0.14
0.35

>  <PUBCHEM_SHAPE_SELFOVERLAP>  (1) 
1015.566

>  <PUBCHEM_SHAPE_VOLUME>  (1) 
304

>  <PUBCHEM_COORDINATE_TYPE>  (1) 
2
5
10

$$$$
