27347
     RDKit          3D

 17 17  0  0  0  0  0  0  0  0999 V2000
   -1.7433   -2.2230    0.0250 O   0  0  0  0  0  0  0  0  0  0  0  0
    3.1615   -0.0253    0.1724 N   0  0  0  0  0  0  0  0  0  0  0  0
   -0.3100   -0.0783   -0.8660 N   0  0  0  0  0  0  0  0  0  0  0  0
    2.6929   -0.5313   -1.1120 C   0  0  0  0  0  0  0  0  0  0  0  0
    1.8637    0.5100   -1.8693 C   0  0  0  0  0  0  0  0  0  0  0  0
    4.0021    1.1585   -0.0154 C   0  0  0  0  0  0  0  0  0  0  0  0
    3.8993   -1.0617    0.8969 C   0  0  0  0  0  0  0  0  0  0  0  0
    0.6178    0.9869   -1.1254 C   0  0  0  0  0  0  0  0  0  0  0  0
    4.4462    1.7398    1.3109 C   0  0  0  0  0  0  0  0  0  0  0  0
    3.0539   -2.3009    1.1066 C   0  0  0  0  0  0  0  0  0  0  0  0
   -1.5319    0.1186   -0.2750 C   0  0  0  0  0  0  0  0  0  0  0  0
   -2.3199   -1.1405   -0.0867 C   0  0  0  0  0  0  0  0  0  0  0  0
   -1.9490    1.3373    0.1061 C   0  0  0  0  0  0  0  0  0  0  0  0
   -3.8010   -1.1310   -0.1637 C   0  0  0  0  0  0  0  0  0  0  0  0
   -3.1382    1.7223    0.8195 C   0  0  0  0  0  0  0  0  0  0  0  0
   -4.6365   -0.1597    0.2140 C   0  0  0  0  0  0  0  0  0  0  0  0
   -4.3078    1.0787    0.8622 C   0  0  0  0  0  0  0  0  0  0  0  0
  1 12  2  0
  2  4  1  0
  2  6  1  0
  2  7  1  0
  3  8  1  0
  3 11  1  0
  4  5  1  0
  5  8  1  0
  6  9  1  0
  7 10  1  0
 11 12  1  0
 11 13  2  0
 12 14  1  0
 13 15  1  0
 14 16  2  0
 15 17  2  0
 16 17  1  0
M  END
>  <PUBCHEM_COMPOUND_CID>  (1) 
27347

>  <PUBCHEM_CONFORMER_RMSD>  (1) 
0.8

>  <PUBCHEM_CONFORMER_DIVERSEORDER>  (1) 
1
133
107
44
64
96
145
122
135
83
14
72
62
100
67
120
128
111
108
21
13
65
16
103
104
19
137
63
69
134
29
38
132
79
5
139
46
99
84
55
73
11
51
70
152
127
90
93
50
68
117
57
101
80
147
6
144
23
78
92
98
81
130
105
52
31
53
61
42
151
39
131
102
28
75
66
58
18
140
43
9
87
124
86
4
82
123
142
94
20
95
106
54
89
56
146
112
60
47
25
115
8
143
148
7
10
27
15
110
129
138
24
150
119
113
141
116
91
71
17
33
121
118
97
3
136
26
114
149
2
109
12
126
76
41
37
74
85
40
49
77
125
59
30
88
48
36
34
22
45
35
32

>  <PUBCHEM_MMFF94_PARTIAL_CHARGES>  (1) 
20
1 -0.57
11 0.11
12 0.54
13 -0.15
14 -0.14
15 -0.15
16 -0.15
17 -0.15
2 -0.81
28 0.4
3 -0.87
35 0.15
36 0.15
37 0.15
38 0.15
39 0.15
4 0.27
6 0.27
7 0.27
8 0.37

>  <PUBCHEM_EFFECTIVE_ROTOR_COUNT>  (1) 
7

>  <PUBCHEM_PHARMACOPHORE_FEATURES>  (1) 
5
1 1 acceptor
1 2 cation
1 3 cation
1 3 donor
7 11 12 13 14 15 16 17 rings

>  <PUBCHEM_HEAVY_ATOM_COUNT>  (1) 
17

>  <PUBCHEM_ATOM_DEF_STEREO_COUNT>  (1) 
0

>  <PUBCHEM_ATOM_UDEF_STEREO_COUNT>  (1) 
0

>  <PUBCHEM_BOND_DEF_STEREO_COUNT>  (1) 
0

>  <PUBCHEM_BOND_UDEF_STEREO_COUNT>  (1) 
0

>  <PUBCHEM_ISOTOPIC_ATOM_COUNT>  (1) 
0

>  <PUBCHEM_COMPONENT_COUNT>  (1) 
1

>  <PUBCHEM_CACTVS_TAUTO_COUNT>  (1) 
1

>  <PUBCHEM_CONFORMER_ID>  (1) 
00006AD300000001

>  <PUBCHEM_MMFF94_ENERGY>  (1) 
42.2054

>  <PUBCHEM_FEATURE_SELFOVERLAP>  (1) 
25.371

>  <PUBCHEM_SHAPE_FINGERPRINT>  (1) 
10498660 4 14979948212017294864
11128504 68 10735870673241970905
11132069 177 18271538515727957733
11543360 7 8718532930971841004
12107183 9 17834675989702170152
12553582 1 17458351840248200342
12633257 1 18270392777140126816
12670546 56 18411415103210005269
12892183 10 18410011052377905521
13533116 47 18409165476597466179
13583140 156 18339342128847211700
13675066 3 17749109967641078653
14178342 30 18260830457546828354
14252887 29 17312819364699599680
14341114 328 18340199799925801016
15142526 21 18052809540942032248
15375358 24 17846503642408827309
1813 80 16805324358114113142
20645477 70 16226055517274140830
20671657 53 14490190513978878820
21065198 48 18411417302175284112
21756936 100 17700961405127842936
2255824 54 17460051762513372980
23402539 116 18272929445381889661
23557571 272 16916797300840352149
23559900 14 17773890704888936182
3009799 131 18270668862576439973
5104073 3 18412551985501302803
5374978 207 18272092699130738805
573450 72 18411420588183903147
7097593 13 18335138687414695244
90316 7 18261683575565108013

>  <PUBCHEM_SHAPE_MULTIPOLES>  (1) 
334.02
10.28
2.1
1.34
0.12
0.6
0.27
-1.15
-3.71
0.61
-0.74
1.2
-0.21
-0.69

>  <PUBCHEM_SHAPE_SELFOVERLAP>  (1) 
660.304

>  <PUBCHEM_SHAPE_VOLUME>  (1) 
197.2

>  <PUBCHEM_COORDINATE_TYPE>  (1) 
2
5
10

$$$$
