27348
     RDKit          3D

 21 22  0  0  0  0  0  0  0  0999 V2000
    1.1471    3.3567    0.5744 O   0  0  0  0  0  0  0  0  0  0  0  0
    4.0945   -2.6058    0.7674 O   0  0  0  0  0  0  0  0  0  0  0  0
   -4.1217   -0.1017    0.3647 N   0  0  0  0  0  0  0  0  0  0  0  0
   -0.6794    1.3513    0.1882 N   0  0  0  0  0  0  0  0  0  0  0  0
    4.8157   -0.6466   -0.2699 N   0  0  0  0  0  0  0  0  0  0  0  0
   -4.0743   -0.9407   -0.8410 C   0  0  0  0  0  0  0  0  0  0  0  0
   -5.4468    0.5111    0.5336 C   0  0  0  0  0  0  0  0  0  0  0  0
   -5.1208   -2.0545   -0.7799 C   0  0  0  0  0  0  0  0  0  0  0  0
   -6.5382   -0.5551    0.6396 C   0  0  0  0  0  0  0  0  0  0  0  0
   -6.5201   -1.4891   -0.5651 C   0  0  0  0  0  0  0  0  0  0  0  0
   -3.0847    0.9284    0.3123 C   0  0  0  0  0  0  0  0  0  0  0  0
   -1.6952    0.3097    0.2689 C   0  0  0  0  0  0  0  0  0  0  0  0
    0.6626    1.0851    0.1034 C   0  0  0  0  0  0  0  0  0  0  0  0
    1.1453   -0.1675    0.0880 C   0  0  0  0  0  0  0  0  0  0  0  0
    1.5208    2.3075    0.0503 C   0  0  0  0  0  0  0  0  0  0  0  0
    2.5095   -0.6313    0.1097 C   0  0  0  0  0  0  0  0  0  0  0  0
    2.7651    2.3139   -0.7540 C   0  0  0  0  0  0  0  0  0  0  0  0
    3.6057   -0.0036   -0.3395 C   0  0  0  0  0  0  0  0  0  0  0  0
    3.6312    1.3119   -0.9342 C   0  0  0  0  0  0  0  0  0  0  0  0
    4.9752   -1.9093    0.2677 C   0  0  0  0  0  0  0  0  0  0  0  0
    6.4084   -2.3704    0.2154 C   0  0  0  0  0  0  0  0  0  0  0  0
  1 15  2  0
  2 20  2  0
  3  6  1  0
  3  7  1  0
  3 11  1  0
  4 12  1  0
  4 13  1  0
  5 18  1  0
  5 20  1  0
  6  8  1  0
  7  9  1  0
  8 10  1  0
  9 10  1  0
 11 12  1  0
 13 14  2  0
 13 15  1  0
 14 16  1  0
 15 17  1  0
 16 18  2  0
 17 19  2  0
 18 19  1  0
 20 21  1  0
M  END
>  <PUBCHEM_COMPOUND_CID>  (1) 
27348

>  <PUBCHEM_CONFORMER_RMSD>  (1) 
0.8

>  <PUBCHEM_CONFORMER_DIVERSEORDER>  (1) 
1
45
124
89
30
19
54
13
74
17
14
130
34
51
82
122
79
92
61
31
9
49
63
7
18
53
12
94
86
43
25
58
99
76
40
3
127
15
38
27
106
118
46
73
24
55
6
78
44
8
69
35
75
125
50
37
84
28
72
115
2
101
26
85
5
88
11
29
39
87
10
90
128
41
95
67
47
21
114
96
36
81
107
116
48
97
16
119
60
52
62
103
131
4
108
113
102
93
111
98
120
33
20
129
64
66
109
132
117
23
65
126
104
22
56
57
70
110
71
42
133
59
77
105
91
83
68
32
80
112
121
100
123

>  <PUBCHEM_MMFF94_PARTIAL_CHARGES>  (1) 
24
1 -0.57
11 0.27
12 0.37
13 0.11
14 -0.15
15 0.54
16 -0.15
17 -0.14
18 0.11
19 -0.15
2 -0.57
20 0.57
21 0.06
3 -0.81
36 0.4
37 0.15
38 0.15
39 0.15
4 -0.87
40 0.15
41 0.37
5 -0.54
6 0.27
7 0.27

>  <PUBCHEM_EFFECTIVE_ROTOR_COUNT>  (1) 
7.2

>  <PUBCHEM_PHARMACOPHORE_FEATURES>  (1) 
8
1 1 acceptor
1 2 acceptor
1 3 cation
1 4 cation
1 4 donor
1 5 donor
6 3 6 7 8 9 10 rings
7 13 14 15 16 17 18 19 rings

>  <PUBCHEM_HEAVY_ATOM_COUNT>  (1) 
21

>  <PUBCHEM_ATOM_DEF_STEREO_COUNT>  (1) 
0

>  <PUBCHEM_ATOM_UDEF_STEREO_COUNT>  (1) 
0

>  <PUBCHEM_BOND_DEF_STEREO_COUNT>  (1) 
0

>  <PUBCHEM_BOND_UDEF_STEREO_COUNT>  (1) 
0

>  <PUBCHEM_ISOTOPIC_ATOM_COUNT>  (1) 
0

>  <PUBCHEM_COMPONENT_COUNT>  (1) 
1

>  <PUBCHEM_CACTVS_TAUTO_COUNT>  (1) 
9

>  <PUBCHEM_CONFORMER_ID>  (1) 
00006AD400000001

>  <PUBCHEM_MMFF94_ENERGY>  (1) 
61.9478

>  <PUBCHEM_FEATURE_SELFOVERLAP>  (1) 
40.596

>  <PUBCHEM_SHAPE_FINGERPRINT>  (1) 
10595046 47 18268995457012825213
10622 236 17607231066310944242
10670039 82 14635143482586206671
12107183 9 18197787609475128009
12166972 35 18113904844667095332
12236239 1 18272092703731713313
12616971 3 18343303691222943791
13073987 5 18342459270282259337
13167823 11 18271809085877460869
13533116 47 18410576222887694641
13540713 5 18266198157772240948
13862211 1 18409730621537554074
13955234 65 18197497543788592697
14251751 18 18202559583969429009
14347332 77 18409165489841005669
14576447 43 18411141350837921452
15188451 53 16630231602847483327
15250474 111 18129654344008727175
15728490 51 18343577448512909406
17857418 61 18343302587257989103
18222031 100 18410290281609018626
20028762 73 18342738486148805574
20645477 70 18186521024771282904
21267235 1 18338804412443618142
21585483 132 18339342159234541527
22061861 79 17749387079284450983
221357 26 18187362125708126509
23522609 53 18122941734910512109
23559900 14 17895199964410069481
23622692 118 18410854330573258264
25147074 1 18267604449922881808
270888 7 9150878482726301098
3004659 81 18259702289796987722
314194 84 18408892836178339178
3411729 13 16915929863591948312
351380 3 18411980239191445707
3680242 22 18341902882996603111
4214541 1 18343024402659198593
46194498 28 17313385668711341252
465052 167 18341899601287869078
5104073 3 17774166828969405403
5281201 14 17894628171303875349
531348 171 18409727349473685405
559249 180 18343018866456604687
59682541 35 18342163476765149730
6025842 7 18188496886486097860
76465 3 18411417297811900892
7970288 3 18339075978519917894
960060 61 18113624520499208644

>  <PUBCHEM_SHAPE_MULTIPOLES>  (1) 
405.49
17.03
2.97
0.85
14.48
0.59
0.09
-13.67
0.11
-3.95
-0.13
0.27
-0.03
-1.82

>  <PUBCHEM_SHAPE_SELFOVERLAP>  (1) 
830.783

>  <PUBCHEM_SHAPE_VOLUME>  (1) 
230.5

>  <PUBCHEM_COORDINATE_TYPE>  (1) 
2
5
10

$$$$
