27354
     RDKit          3D

 19 19  0  0  0  0  0  0  0  0999 V2000
    0.0312    4.1833    0.0927 S   0  0  0  0  0  0  0  0  0  0  0  0
   -1.3756    2.0036   -0.0020 O   0  0  0  0  0  0  0  0  0  0  0  0
    4.2091   -1.0382    0.2106 O   0  0  0  0  0  0  0  0  0  0  0  0
   -3.4433   -1.0451   -0.1305 N   0  0  0  0  0  0  0  0  0  0  0  0
   -3.1336    0.3834   -0.0806 C   0  0  0  0  0  0  0  0  0  0  0  0
   -2.9006   -1.7271    1.0437 C   0  0  0  0  0  0  0  0  0  0  0  0
   -4.8884   -1.2518   -0.2193 C   0  0  0  0  0  0  0  0  0  0  0  0
   -1.6303    0.6053   -0.0322 C   0  0  0  0  0  0  0  0  0  0  0  0
   -3.1600   -3.2227    0.9786 C   0  0  0  0  0  0  0  0  0  0  0  0
   -5.4698   -0.5496   -1.4346 C   0  0  0  0  0  0  0  0  0  0  0  0
   -0.1172    2.5225    0.0623 C   0  0  0  0  0  0  0  0  0  0  0  0
    1.0132    1.5909    0.1016 C   0  0  0  0  0  0  0  0  0  0  0  0
    1.5973    1.1708   -1.0870 C   0  0  0  0  0  0  0  0  0  0  0  0
    1.4887    1.1385    1.3264 C   0  0  0  0  0  0  0  0  0  0  0  0
    3.1577   -0.1749    0.1746 C   0  0  0  0  0  0  0  0  0  0  0  0
    2.6737    0.2845   -1.0503 C   0  0  0  0  0  0  0  0  0  0  0  0
    2.5652    0.2522    1.3629 C   0  0  0  0  0  0  0  0  0  0  0  0
    4.3587   -1.9259   -0.8963 C   0  0  0  0  0  0  0  0  0  0  0  0
    5.0242   -3.1996   -0.4205 C   0  0  0  0  0  0  0  0  0  0  0  0
  1 11  2  0
  2  8  1  0
  2 11  1  0
  3 15  1  0
  3 18  1  0
  4  5  1  0
  4  6  1  0
  4  7  1  0
  5  8  1  0
  6  9  1  0
  7 10  1  0
 11 12  1  0
 12 13  2  0
 12 14  1  0
 13 16  1  0
 14 17  2  0
 15 16  2  0
 15 17  1  0
 18 19  1  0
M  END
>  <PUBCHEM_COMPOUND_CID>  (1) 
27354

>  <PUBCHEM_CONFORMER_RMSD>  (1) 
0.8

>  <PUBCHEM_CONFORMER_DIVERSEORDER>  (1) 
1
289
138
168
159
58
249
291
281
300
255
89
171
215
190
11
27
274
206
230
30
43
9
183
205
161
235
22
179
75
131
185
276
163
296
152
191
155
283
61
285
14
199
60
137
50
156
184
288
211
269
119
177
23
259
295
107
208
98
214
77
7
280
186
304
294
226
217
19
236
194
284
181
196
29
204
303
16
299
150
57
157
167
15
95
173
189
34
71
105
267
73
297
145
216
251
212
229
69
109
90
4
174
25
257
129
85
227
136
224
124
260
153
286
53
21
28
147
247
146
238
86
74
108
207
104
26
192
175
162
100
2
13
263
232
38
12
10
277
245
210
142
270
72
101
219
279
113
197
188
140
33
82
97
241
116
246
220
54
41
81
201
239
62
143
80
32
70
213
164
271
144
123
228
193
45
178
139
141
209
67
154
223
93
135
117
166
132
46
52
122
36
268
49
59
127
84
287
56
292
114
48
198
118
37
88
298
180
87
176
130
96
83
47
262
8
265
42
231
158
17
266
273
272
282
254
248
110
24
64
92
125
35
240
128
233
68
221
234
244
290
126
170
200
148
106
261
182
237
51
202
252
78
278
55
250
115
195
222
256
20
111
151
149
6
253
99
79
91
121
160
258
134
76
133
293
65
102
187
66
40
103
203
264
94
63
243
172
301
169
225
120
302
165
242
5
275
218
18
3
31
39
44
112

>  <PUBCHEM_MMFF94_PARTIAL_CHARGES>  (1) 
20
1 -0.38
11 0.44
12 0.09
13 -0.15
14 -0.15
15 0.08
16 -0.15
17 -0.15
18 0.28
2 -0.43
3 -0.36
34 0.15
35 0.15
36 0.15
37 0.15
4 -0.81
5 0.27
6 0.27
7 0.27
8 0.28

>  <PUBCHEM_EFFECTIVE_ROTOR_COUNT>  (1) 
9

>  <PUBCHEM_PHARMACOPHORE_FEATURES>  (1) 
4
1 1 acceptor
1 3 acceptor
1 4 cation
6 12 13 14 15 16 17 rings

>  <PUBCHEM_HEAVY_ATOM_COUNT>  (1) 
19

>  <PUBCHEM_ATOM_DEF_STEREO_COUNT>  (1) 
0

>  <PUBCHEM_ATOM_UDEF_STEREO_COUNT>  (1) 
0

>  <PUBCHEM_BOND_DEF_STEREO_COUNT>  (1) 
0

>  <PUBCHEM_BOND_UDEF_STEREO_COUNT>  (1) 
0

>  <PUBCHEM_ISOTOPIC_ATOM_COUNT>  (1) 
0

>  <PUBCHEM_COMPONENT_COUNT>  (1) 
1

>  <PUBCHEM_CACTVS_TAUTO_COUNT>  (1) 
1

>  <PUBCHEM_CONFORMER_ID>  (1) 
00006ADA00000001

>  <PUBCHEM_MMFF94_ENERGY>  (1) 
56.9555

>  <PUBCHEM_FEATURE_SELFOVERLAP>  (1) 
20.297

>  <PUBCHEM_SHAPE_FINGERPRINT>  (1) 
11796584 16 17967523606144871363
12363563 72 18412832395099289645
12553582 1 18334862722991983745
12555020 224 18335132108089586111
12596602 18 15123500424112144614
12633257 1 16128649769284673518
13533116 47 18197498648559797955
13955234 65 17911522305056730577
14866123 147 18124882257437944193
15052358 14 18261661581527429341
15352361 1 18411420609131647734
15422964 175 18340197583226946688
16752209 62 18114446891405434025
17859628 70 17905901618663241083
20403669 9 18343025449771557950
20645477 70 18121774195801227581
21452121 199 18409730668814044120
221490 88 18046069521308754001
23379529 103 18337967730960134894
23557571 272 18337938035477032176
23559900 14 18265047106177495777
3004659 81 18113053835552221654
314173 41 18334574698026291449
3421961 26 18342454901931078664
5207 123 18413101763001055877
5365585 94 18336840679796406706
59755656 520 17623849024707804129
633830 44 11458412531995969617
6442390 28 9007055807582726617
7970288 3 18412261739975266999

>  <PUBCHEM_SHAPE_MULTIPOLES>  (1) 
378.14
10.48
4.23
1.21
3.97
1.42
-0.04
-12.08
2.85
-1.31
-0.39
0.07
-0.22
1.28

>  <PUBCHEM_SHAPE_SELFOVERLAP>  (1) 
742.867

>  <PUBCHEM_SHAPE_VOLUME>  (1) 
230.1

>  <PUBCHEM_COORDINATE_TYPE>  (1) 
2
5
10

$$$$
