27361
     RDKit          3D

 15 17  0  0  1  0  0  0  0  0999 V2000
    4.9966   -0.4922    0.4119 Cl  0  0  0  0  0  0  0  0  0  0  0  0
   -1.2301    2.2411    0.8852 O   0  0  0  0  0  0  0  0  0  0  0  0
   -3.8956   -1.4909    0.2869 O   0  0  0  0  0  0  0  0  0  0  0  0
   -2.7921    0.4994    0.8463 N   0  0  0  0  0  0  0  0  0  0  0  0
   -0.8905    0.2886   -0.4541 C   0  0  0  0  0  0  0  0  0  0  0  0
   -1.7741   -0.9378   -0.6536 C   0  0  0  0  0  0  0  0  0  0  0  0
   -1.4578   -0.0300   -1.8081 C   0  0  0  0  0  0  0  0  0  0  0  0
   -1.6275    1.1500    0.5079 C   0  0  0  0  0  0  0  0  0  0  0  0
    0.5687    0.0950   -0.2396 C   0  0  0  0  0  0  0  0  0  0  0  0
   -2.9645   -0.7068    0.2066 C   0  0  0  0  0  0  0  0  0  0  0  0
    1.0261   -0.9616    0.5501 C   0  0  0  0  0  0  0  0  0  0  0  0
    1.4849    0.9694   -0.8274 C   0  0  0  0  0  0  0  0  0  0  0  0
    2.3943   -1.1433    0.7513 C   0  0  0  0  0  0  0  0  0  0  0  0
    2.8533    0.7877   -0.6264 C   0  0  0  0  0  0  0  0  0  0  0  0
    3.3080   -0.2686    0.1630 C   0  0  0  0  0  0  0  0  0  0  0  0
  1 15  1  0
  2  8  2  0
  3 10  2  0
  4  8  1  0
  4 10  1  0
  5  6  1  0
  5  7  1  0
  5  8  1  0
  5  9  1  0
  6  7  1  0
  6 10  1  0
  9 11  2  0
  9 12  1  0
 11 13  1  0
 12 14  2  0
 13 15  2  0
 14 15  1  0
M  END
>  <PUBCHEM_COMPOUND_CID>  (1) 
27361

>  <PUBCHEM_CONFORMER_RMSD>  (1) 
0.6

>  <PUBCHEM_CONFORMER_DIVERSEORDER>  (1) 
1
4
2
3

>  <PUBCHEM_MMFF94_PARTIAL_CHARGES>  (1) 
23
1 -0.18
10 0.63
11 -0.15
12 -0.15
13 -0.15
14 -0.15
15 0.18
16 0.1
17 0.1
18 0.1
19 0.37
2 -0.57
20 0.15
21 0.15
22 0.15
23 0.15
3 -0.57
4 -0.49
5 0.03
6 -0.1
7 -0.2
8 0.63
9 -0.03

>  <PUBCHEM_EFFECTIVE_ROTOR_COUNT>  (1) 
1.4

>  <PUBCHEM_PHARMACOPHORE_FEATURES>  (1) 
5
1 2 acceptor
1 3 acceptor
1 4 donor
6 4 5 6 7 8 10 rings
6 9 11 12 13 14 15 rings

>  <PUBCHEM_HEAVY_ATOM_COUNT>  (1) 
15

>  <PUBCHEM_ATOM_DEF_STEREO_COUNT>  (1) 
0

>  <PUBCHEM_ATOM_UDEF_STEREO_COUNT>  (1) 
2

>  <PUBCHEM_BOND_DEF_STEREO_COUNT>  (1) 
0

>  <PUBCHEM_BOND_UDEF_STEREO_COUNT>  (1) 
0

>  <PUBCHEM_ISOTOPIC_ATOM_COUNT>  (1) 
0

>  <PUBCHEM_COMPONENT_COUNT>  (1) 
1

>  <PUBCHEM_CACTVS_TAUTO_COUNT>  (1) 
3

>  <PUBCHEM_CONFORMER_ID>  (1) 
00006AE100000001

>  <PUBCHEM_MMFF94_ENERGY>  (1) 
38.5834

>  <PUBCHEM_FEATURE_SELFOVERLAP>  (1) 
25.371

>  <PUBCHEM_SHAPE_FINGERPRINT>  (1) 
10014705 185 9223221949708342502
10922523 26 17631461072665471724
11031198 65 13039193619042810520
11578080 2 18192684912832771261
11615757 297 18040718065330773212
11769659 78 18186799214235298379
124424 183 15123503680076636950
12916754 54 17822009822087870870
12932764 1 17060326410500691422
13024252 1 13045946768216272517
13214271 11 18201998815759244981
13538477 17 18339646646307393921
13581323 91 17989207044854333118
13675066 3 17917992746476197214
13764800 53 17059786498635834385
15076042 46 18199473173125649547
15309172 13 18113621162124952786
15375462 189 18336828718438691675
15375462 478 18341613706810851188
15653759 3 16773792598028451578
16945 1 16988848297729307581
17844478 74 16271937007861517971
19422 9 18409737248534642910
200 152 18261385667810868279
20201158 50 16153426146987867634
20279233 1 15719393936497775304
20645464 45 15482670186543582223
20645477 56 16630522925783321904
22112679 90 17416397882362452909
22445834 79 18335140834682039474
2306618 200 18041550343597942436
23402539 116 17989196062464708503
26918003 58 18187082875476963547
3286 77 18114463452445659284
57812782 119 16225761934884849234
77492 1 18409736174544944668

>  <PUBCHEM_SHAPE_MULTIPOLES>  (1) 
293.84
6.94
1.47
1.12
4.84
0.26
-0.28
-2.17
1.02
-0.52
0.32
-0.49
0.22
-0.63

>  <PUBCHEM_SHAPE_SELFOVERLAP>  (1) 
641.945

>  <PUBCHEM_SHAPE_VOLUME>  (1) 
162.4

>  <PUBCHEM_COORDINATE_TYPE>  (1) 
2
5
10

$$$$
