27369
     RDKit          3D

 10 10  0  0  0  0  0  0  0  0999 V2000
   -0.0001    2.2945    0.0001 S   0  0  0  0  0  0  0  0  0  0  0  0
    3.2165    0.2249   -0.5874 O   0  0  0  0  0  0  0  0  0  0  0  0
   -3.2165    0.2248    0.5874 O   0  0  0  0  0  0  0  0  0  0  0  0
    1.0972   -0.2199    0.2892 N   0  0  0  0  0  0  0  0  0  0  0  0
   -1.0971   -0.2199   -0.2893 N   0  0  0  0  0  0  0  0  0  0  0  0
    0.7531   -1.6129    0.0898 C   0  0  0  0  0  0  0  0  0  0  0  0
   -0.7530   -1.6128   -0.0897 C   0  0  0  0  0  0  0  0  0  0  0  0
    0.0000    0.6229    0.0000 C   0  0  0  0  0  0  0  0  0  0  0  0
    2.4669    0.1491    0.6098 C   0  0  0  0  0  0  0  0  0  0  0  0
   -2.4670    0.1492   -0.6099 C   0  0  0  0  0  0  0  0  0  0  0  0
  1  8  2  0
  2  9  1  0
  3 10  1  0
  4  6  1  0
  4  8  1  0
  4  9  1  0
  5  7  1  0
  5  8  1  0
  5 10  1  0
  6  7  1  0
M  END
>  <PUBCHEM_COMPOUND_CID>  (1) 
27369

>  <PUBCHEM_CONFORMER_RMSD>  (1) 
0.6

>  <PUBCHEM_CONFORMER_DIVERSEORDER>  (1) 
1
4
2
3

>  <PUBCHEM_MMFF94_PARTIAL_CHARGES>  (1) 
12
1 -0.38
10 0.58
19 0.4
2 -0.68
20 0.4
3 -0.68
4 -0.66
5 -0.66
6 0.3
7 0.3
8 0.5
9 0.58

>  <PUBCHEM_EFFECTIVE_ROTOR_COUNT>  (1) 
2.8

>  <PUBCHEM_PHARMACOPHORE_FEATURES>  (1) 
6
1 1 acceptor
1 2 acceptor
1 2 donor
1 3 acceptor
1 3 donor
5 4 5 6 7 8 rings

>  <PUBCHEM_HEAVY_ATOM_COUNT>  (1) 
10

>  <PUBCHEM_ATOM_DEF_STEREO_COUNT>  (1) 
0

>  <PUBCHEM_ATOM_UDEF_STEREO_COUNT>  (1) 
0

>  <PUBCHEM_BOND_DEF_STEREO_COUNT>  (1) 
0

>  <PUBCHEM_BOND_UDEF_STEREO_COUNT>  (1) 
0

>  <PUBCHEM_ISOTOPIC_ATOM_COUNT>  (1) 
0

>  <PUBCHEM_COMPONENT_COUNT>  (1) 
1

>  <PUBCHEM_CACTVS_TAUTO_COUNT>  (1) 
1

>  <PUBCHEM_CONFORMER_ID>  (1) 
00006AE900000001

>  <PUBCHEM_MMFF94_ENERGY>  (1) 
23.9057

>  <PUBCHEM_FEATURE_SELFOVERLAP>  (1) 
30.446

>  <PUBCHEM_SHAPE_FINGERPRINT>  (1) 
10219947 1 18409730651417319009
14993402 34 18411978087502046701
15310529 11 16732972124671368356
161256 15 18055360136596508487
16714656 1 18411133641086502556
16945 1 18410562994330179652
193761 8 17690840055962364386
21040471 1 18410844469380977218
23235685 24 18410570690911567590
23402655 69 18195506127363947909
23552423 10 17974848371914578830
2748010 2 18049995885631404100
29004967 10 18261673684133306771
5084963 1 18129372877420847187

>  <PUBCHEM_SHAPE_MULTIPOLES>  (1) 
187.94
3.87
1.9
0.74
0
0.57
0
0.19
0
0
0
0
0.04
-0.06

>  <PUBCHEM_SHAPE_SELFOVERLAP>  (1) 
355.821

>  <PUBCHEM_SHAPE_VOLUME>  (1) 
119.4

>  <PUBCHEM_COORDINATE_TYPE>  (1) 
2
5
10

$$$$
