27379
     RDKit          3D

 19 19  0  0  0  0  0  0  0  0999 V2000
    2.8016   -0.3417   -1.0776 O   0  0  0  0  0  0  0  0  0  0  0  0
   -2.6633   -1.6867    1.2407 O   0  0  0  0  0  0  0  0  0  0  0  0
   -5.3438   -1.6986    1.5872 O   0  0  0  0  0  0  0  0  0  0  0  0
   -4.7517   -1.0200    0.5138 N   0  0  0  0  0  0  0  0  0  0  0  0
   -0.5980    0.6953   -0.2100 C   0  0  0  0  0  0  0  0  0  0  0  0
   -1.2710    1.7936    0.5457 C   0  0  0  0  0  0  0  0  0  0  0  0
   -1.3415   -0.3105   -0.8272 C   0  0  0  0  0  0  0  0  0  0  0  0
   -1.5984    2.9964   -0.3490 C   0  0  0  0  0  0  0  0  0  0  0  0
    0.7942    0.6852   -0.2944 C   0  0  0  0  0  0  0  0  0  0  0  0
    1.4333   -0.3308   -0.9954 C   0  0  0  0  0  0  0  0  0  0  0  0
   -2.8328   -0.3209   -0.7505 C   0  0  0  0  0  0  0  0  0  0  0  0
   -0.6927   -1.3265   -1.5289 C   0  0  0  0  0  0  0  0  0  0  0  0
    4.8623   -0.4698    0.1350 C   0  0  0  0  0  0  0  0  0  0  0  0
    3.5139    0.2257    0.0131 C   0  0  0  0  0  0  0  0  0  0  0  0
    0.6996   -1.3366   -1.6133 C   0  0  0  0  0  0  0  0  0  0  0  0
    5.6773    0.0814    1.3015 C   0  0  0  0  0  0  0  0  0  0  0  0
   -2.3134    4.0965    0.4194 C   0  0  0  0  0  0  0  0  0  0  0  0
   -3.3803   -1.0867    0.4439 C   0  0  0  0  0  0  0  0  0  0  0  0
    7.0049   -0.6453    1.4461 C   0  0  0  0  0  0  0  0  0  0  0  0
  1 10  1  0
  1 14  1  0
  2 18  2  0
  3  4  1  0
  4 18  1  0
  5  6  1  0
  5  7  2  0
  5  9  1  0
  6  8  1  0
  7 11  1  0
  7 12  1  0
  8 17  1  0
  9 10  2  0
 10 15  1  0
 11 18  1  0
 12 15  2  0
 13 14  1  0
 13 16  1  0
 16 19  1  0
M  END
>  <PUBCHEM_COMPOUND_CID>  (1) 
27379

>  <PUBCHEM_CONFORMER_RMSD>  (1) 
0.8

>  <PUBCHEM_CONFORMER_DIVERSEORDER>  (1) 
1
391
427
402
43
276
196
266
68
151
374
193
197
317
299
139
143
77
423
85
174
401
269
165
4
126
156
37
369
142
244
386
376
110
13
371
20
60
100
328
5
382
314
248
412
232
209
96
390
243
167
181
14
300
204
198
217
294
270
309
363
260
33
172
340
201
73
157
187
393
289
182
265
162
127
335
163
17
394
298
365
241
42
28
81
191
63
421
53
122
358
170
233
334
178
141
106
195
268
292
83
46
398
347
351
111
117
177
362
418
134
3
345
251
400
349
286
410
207
290
19
56
223
331
415
86
395
148
58
109
306
166
322
234
158
146
216
155
263
252
119
364
344
67
189
236
82
368
54
2
210
161
218
55
303
65
304
429
150
31
383
179
422
219
64
15
325
97
180
413
336
227
147
213
78
21
160
397
50
282
307
273
113
275
366
10
229
105
246
341
230
220
137
9
164
240
357
89
384
280
149
92
372
392
205
409
186
360
428
98
256
267
272
95
245
152
79
264
59
324
71
420
312
403
6
125
327
41
342
329
80
238
326
396
35
262
99
355
118
255
57
411
259
7
112
288
87
48
321
228
200
323
222
380
154
337
129
281
377
49
254
76
311
29
32
171
84
131
121
206
184
239
370
406
253
208
8
343
90
237
72
333
34
257
375
22
69
140
91
159
51
47
190
416
104
40
279
385
242
414
102
258
405
388
153
18
274
346
285
173
39
66
318
271
108
287
132
339
225
107
212
283
291
305
38
261
123
379
215
425
308
221
367
74
378
168
407
115
404
389
350
133
44
249
120
128
296
226
301
116
93
130
88
297
169
135
16
316
302
352
250
348
192
145
338
183
214
52
399
408
313
75
203
319
320
194
176
26
417
373
353
332
278
284
70
381
185
202
354
61
199
356
62
30
235
124
103
94
25
310
114
144
175
277
426
224
211
424
293
138
330
136
419
188
247
387
361
27
24
295
11
101
12
45
36
359
231
23
315

>  <PUBCHEM_MMFF94_PARTIAL_CHARGES>  (1) 
19
1 -0.36
10 0.08
11 0.2
12 -0.15
14 0.28
15 -0.15
18 0.57
2 -0.57
24 0.15
27 0.15
3 -0.44
32 0.15
4 -0.39
41 0.37
42 0.4
5 -0.14
6 0.14
7 -0.14
9 -0.15

>  <PUBCHEM_EFFECTIVE_ROTOR_COUNT>  (1) 
9

>  <PUBCHEM_PHARMACOPHORE_FEATURES>  (1) 
6
1 1 acceptor
1 17 hydrophobe
1 19 hydrophobe
1 2 acceptor
1 4 donor
6 5 7 9 10 12 15 rings

>  <PUBCHEM_HEAVY_ATOM_COUNT>  (1) 
19

>  <PUBCHEM_ATOM_DEF_STEREO_COUNT>  (1) 
0

>  <PUBCHEM_ATOM_UDEF_STEREO_COUNT>  (1) 
0

>  <PUBCHEM_BOND_DEF_STEREO_COUNT>  (1) 
0

>  <PUBCHEM_BOND_UDEF_STEREO_COUNT>  (1) 
0

>  <PUBCHEM_ISOTOPIC_ATOM_COUNT>  (1) 
0

>  <PUBCHEM_COMPONENT_COUNT>  (1) 
1

>  <PUBCHEM_CACTVS_TAUTO_COUNT>  (1) 
3

>  <PUBCHEM_CONFORMER_ID>  (1) 
00006AF300000001

>  <PUBCHEM_MMFF94_ENERGY>  (1) 
40.4207

>  <PUBCHEM_FEATURE_SELFOVERLAP>  (1) 
30.446

>  <PUBCHEM_SHAPE_FINGERPRINT>  (1) 
10465860 250 18261680363029173447
11132069 177 17704078416521310486
12403259 415 17632017456020189700
12403814 3 18130782386623649852
12507560 40 18201154339848837342
12555020 224 11025785484339043072
12596602 18 17967525784168083328
12670543 26 11819257967297313014
12788726 201 18262819435136651608
12892183 10 18338229372072914590
12895836 83 11024109836823235746
12895837 130 12607109777738792986
12930653 34 18338797789076559558
13140716 1 18057038236380548870
13288520 33 16732696160027286094
13540713 4 17914627055088538822
14178342 30 18262243192549274924
14420673 8 17763458414839720758
15048467 5 15267348430777821050
15099037 37 18411421682920853684
15209294 21 16415205584911430190
15880784 105 16732699463574119740
19784866 240 16877944940618112986
200 152 16226042297691948694
20602899 9 16153431666163573713
20645477 56 17632287987398994580
21033648 29 17631147746596721320
21304303 282 17826495692439001285
21339142 126 18273209807271117085
21637258 2 17313376889545317611
22182313 1 17916597418643626644
22224240 67 17418095446711795431
22713019 99 13551468202331205711
23379529 103 14058721368130143473
23402539 116 18341609339404189303
23557571 272 18199486380229778332
23559900 14 17023465386042347772
26918003 58 18186234047904763646
2748010 2 17843700858288758668
2838139 119 13183026202608184474
3187 122 18409727356956610532
5104073 3 18197775510604820770
59554788 62 17703796916154604527
69474 34 17988924521737050769
81228 2 18049194140482505805
9981440 41 17985813844369967596

>  <PUBCHEM_SHAPE_MULTIPOLES>  (1) 
368.42
11.78
2.86
1.47
19.7
4.12
0.13
-3.97
8.62
-4.86
0.24
-0.02
-0.8
1.1

>  <PUBCHEM_SHAPE_SELFOVERLAP>  (1) 
736.68

>  <PUBCHEM_SHAPE_VOLUME>  (1) 
217.7

>  <PUBCHEM_COORDINATE_TYPE>  (1) 
2
5
10

$$$$
