27374
     RDKit          3D

 12 11  0  0  1  0  0  0  0  0999 V2000
    0.7396   -0.3099    1.6558 O   0  0  0  0  0  0  0  0  0  0  0  0
   -0.7707    0.3337   -1.6139 O   0  0  0  0  0  0  0  0  0  0  0  0
    1.7149    1.9401    0.1251 O   0  0  0  0  0  0  0  0  0  0  0  0
   -1.7145   -1.9436   -0.1696 O   0  0  0  0  0  0  0  0  0  0  0  0
    3.5590   -1.2234   -0.4128 N   0  0  0  0  0  0  0  0  0  0  0  0
   -3.5068    1.2535    0.3565 N   0  0  0  0  0  0  0  0  0  0  0  0
    0.6919   -0.2800    0.2314 C   0  0  0  0  0  0  0  0  0  0  0  0
   -0.6985    0.2505   -0.1919 C   0  0  0  0  0  0  0  0  0  0  0  0
    1.8532    0.5876   -0.3068 C   0  0  0  0  0  0  0  0  0  0  0  0
   -1.8700   -0.6125    0.3279 C   0  0  0  0  0  0  0  0  0  0  0  0
    3.2575    0.1113    0.0963 C   0  0  0  0  0  0  0  0  0  0  0  0
   -3.2556   -0.1072   -0.0980 C   0  0  0  0  0  0  0  0  0  0  0  0
  1  7  1  0
  2  8  1  0
  3  9  1  0
  4 10  1  0
  5 11  1  0
  6 12  1  0
  7  8  1  0
  7  9  1  0
  8 10  1  0
  9 11  1  0
 10 12  1  0
M  END
>  <PUBCHEM_COMPOUND_CID>  (1) 
27374

>  <PUBCHEM_CONFORMER_RMSD>  (1) 
0.6

>  <PUBCHEM_CONFORMER_DIVERSEORDER>  (1) 
2
74
5
172
19
217
227
196
238
206
195
211
128
124
182
224
37
44
247
57
220
115
151
239
163
184
72
194
77
47
17
9
18
178
30
152
216
67
64
215
177
158
232
156
219
237
240
209
39
51
54
181
218
141
29
176
241
45
164
1
87
85
71
245
210
6
193
200
159
197
50
226
149
91
126
129
92
14
231
153
68
130
185
28
187
166
32
8
198
155
3
80
207
70
203
41
190
160
20
179
11
208
61
229
123
97
53
60
236
62
202
143
138
102
183
242
222
221
84
204
223
119
65
134
33
212
161
105
117
122
34
12
170
191
36
244
192
243
111
234
48
106
188
27
112
95
35
246
157
145
180
46
114
154
228
173
25
175
56
83
69
120
147
148
108
169
21
165
22
66
213
174
162
235
144
81
133
24
132
100
205
167
230
135
142
13
104
201
118
7
233
42
31
86
38
15
88
16
136
150
116
63
225
139
125
78
59
55
199
79
171
76
127
121
94
131
90
189
26
4
75
103
214
101
109
89
110
93
96
58
10
98
23
73
186
140
82
146
40
49
113
52
168
107
43
137
99

>  <PUBCHEM_MMFF94_PARTIAL_CHARGES>  (1) 
20
1 -0.68
10 0.28
11 0.27
12 0.27
2 -0.68
21 0.4
22 0.4
23 0.4
24 0.4
25 0.36
26 0.36
27 0.36
28 0.36
3 -0.68
4 -0.68
5 -0.99
6 -0.99
7 0.28
8 0.28
9 0.28

>  <PUBCHEM_EFFECTIVE_ROTOR_COUNT>  (1) 
5

>  <PUBCHEM_PHARMACOPHORE_FEATURES>  (1) 
12
1 1 acceptor
1 1 donor
1 2 acceptor
1 2 donor
1 3 acceptor
1 3 donor
1 4 acceptor
1 4 donor
1 5 cation
1 5 donor
1 6 cation
1 6 donor

>  <PUBCHEM_HEAVY_ATOM_COUNT>  (1) 
12

>  <PUBCHEM_ATOM_DEF_STEREO_COUNT>  (1) 
0

>  <PUBCHEM_ATOM_UDEF_STEREO_COUNT>  (1) 
4

>  <PUBCHEM_BOND_DEF_STEREO_COUNT>  (1) 
0

>  <PUBCHEM_BOND_UDEF_STEREO_COUNT>  (1) 
0

>  <PUBCHEM_ISOTOPIC_ATOM_COUNT>  (1) 
0

>  <PUBCHEM_COMPONENT_COUNT>  (1) 
1

>  <PUBCHEM_CACTVS_TAUTO_COUNT>  (1) 
1

>  <PUBCHEM_CONFORMER_ID>  (1) 
00006AEE00000002

>  <PUBCHEM_MMFF94_ENERGY>  (1) 
17.7689

>  <PUBCHEM_FEATURE_SELFOVERLAP>  (1) 
60.91

>  <PUBCHEM_SHAPE_FINGERPRINT>  (1) 
10130415 120 17846785095910636642
10219947 1 13110962024521962968
10857977 72 15936407866587353445
11062470 55 16200430265012387344
124424 183 17060618871681810058
12932764 1 17531513352123094506
14325111 11 18410857706411907840
14993402 34 18113328726723888783
15310529 11 17844811588434395032
15775835 57 17894629257724398138
16945 1 16443615895736063461
18511873 20 18413393111537731225
20653085 51 18261965131844880193
20711983 171 18273221910621098437
207724 885 18412549790419612017
23402539 116 17988920060009731133
3248919 1 18268697471500891990
5084963 1 17676483986326491332
93112 12 18340770432916032791
9939556 21 18340769342052296932

>  <PUBCHEM_SHAPE_MULTIPOLES>  (1) 
213.52
5.68
1.41
0.99
0.13
0.01
0.02
-0.01
-0.07
-0.02
-0.02
0.01
-0.01
0.01

>  <PUBCHEM_SHAPE_SELFOVERLAP>  (1) 
397.806

>  <PUBCHEM_SHAPE_VOLUME>  (1) 
133.4

>  <PUBCHEM_COORDINATE_TYPE>  (1) 
2
5
10

$$$$
