27377
     RDKit          3D

 17 17  0  0  0  0  0  0  0  0999 V2000
   -2.7372   -1.0702    0.0199 S   0  0  0  0  0  0  0  0  0  0  0  0
    3.7500    0.6928    1.5806 O   0  0  0  0  0  0  0  0  0  0  0  0
    5.2757    2.2326   -0.0338 O   0  0  0  0  0  0  0  0  0  0  0  0
    4.6812    1.0534   -0.5018 N   0  0  0  0  0  0  0  0  0  0  0  0
   -4.5508    0.7835    1.0606 C   0  0  0  0  0  0  0  0  0  0  0  0
   -3.0624    0.5246    0.8277 C   0  0  0  0  0  0  0  0  0  0  0  0
   -5.3727    0.8507   -0.2294 C   0  0  0  0  0  0  0  0  0  0  0  0
   -0.9747   -1.0060   -0.0735 C   0  0  0  0  0  0  0  0  0  0  0  0
   -0.2963   -0.4556   -1.1759 C   0  0  0  0  0  0  0  0  0  0  0  0
    1.8356   -0.9405   -0.1477 C   0  0  0  0  0  0  0  0  0  0  0  0
    1.0977   -0.4232   -1.2125 C   0  0  0  0  0  0  0  0  0  0  0  0
   -0.2147   -1.5223    0.9902 C   0  0  0  0  0  0  0  0  0  0  0  0
    1.1793   -1.4899    0.9536 C   0  0  0  0  0  0  0  0  0  0  0  0
    3.3262   -0.9064   -0.1863 C   0  0  0  0  0  0  0  0  0  0  0  0
   -6.8229    1.2103    0.0572 C   0  0  0  0  0  0  0  0  0  0  0  0
   -1.0425    0.1103   -2.3418 C   0  0  0  0  0  0  0  0  0  0  0  0
    3.9284    0.3559    0.4128 C   0  0  0  0  0  0  0  0  0  0  0  0
  1  6  1  0
  1  8  1  0
  2 17  2  0
  3  4  1  0
  4 17  1  0
  5  6  1  0
  5  7  1  0
  7 15  1  0
  8  9  2  0
  8 12  1  0
  9 11  1  0
  9 16  1  0
 10 11  2  0
 10 13  1  0
 10 14  1  0
 12 13  2  0
 14 17  1  0
M  END
>  <PUBCHEM_COMPOUND_CID>  (1) 
27377

>  <PUBCHEM_CONFORMER_RMSD>  (1) 
0.8

>  <PUBCHEM_CONFORMER_DIVERSEORDER>  (1) 
1
146
126
43
140
110
99
28
103
24
52
134
30
2
129
111
115
123
25
48
90
61
7
152
34
86
55
136
155
97
22
113
75
89
62
156
114
163
74
139
9
27
84
121
118
142
127
19
145
31
148
117
96
78
151
21
98
94
72
16
70
158
33
58
102
147
4
12
53
154
87
159
57
10
135
51
150
153
29
144
85
14
69
23
59
160
79
40
108
105
54
100
161
8
39
141
66
15
133
81
38
77
35
60
42
119
95
71
67
112
116
20
88
50
44
125
32
132
157
128
6
68
65
104
11
143
64
137
13
63
73
17
93
5
131
80
120
18
91
41
3
56
101
130
76
46
106
37
122
107
26
49
149
83
45
36
109
47
138
82
124
92
162

>  <PUBCHEM_MMFF94_PARTIAL_CHARGES>  (1) 
19
1 -0.33
10 -0.14
11 -0.15
12 -0.15
13 -0.15
14 0.2
16 0.14
17 0.57
2 -0.57
24 0.15
25 0.15
26 0.15
3 -0.44
35 0.37
36 0.4
4 -0.39
6 0.23
8 0.1
9 -0.14

>  <PUBCHEM_EFFECTIVE_ROTOR_COUNT>  (1) 
7

>  <PUBCHEM_PHARMACOPHORE_FEATURES>  (1) 
5
1 15 hydrophobe
1 2 acceptor
1 4 donor
4 1 5 6 7 hydrophobe
6 8 9 10 11 12 13 rings

>  <PUBCHEM_HEAVY_ATOM_COUNT>  (1) 
17

>  <PUBCHEM_ATOM_DEF_STEREO_COUNT>  (1) 
0

>  <PUBCHEM_ATOM_UDEF_STEREO_COUNT>  (1) 
0

>  <PUBCHEM_BOND_DEF_STEREO_COUNT>  (1) 
0

>  <PUBCHEM_BOND_UDEF_STEREO_COUNT>  (1) 
0

>  <PUBCHEM_ISOTOPIC_ATOM_COUNT>  (1) 
0

>  <PUBCHEM_COMPONENT_COUNT>  (1) 
1

>  <PUBCHEM_CACTVS_TAUTO_COUNT>  (1) 
3

>  <PUBCHEM_CONFORMER_ID>  (1) 
00006AF100000001

>  <PUBCHEM_MMFF94_ENERGY>  (1) 
34.0795

>  <PUBCHEM_FEATURE_SELFOVERLAP>  (1) 
25.372

>  <PUBCHEM_SHAPE_FINGERPRINT>  (1) 
10591671 39 17274821394089958893
10693767 8 12103568533035836229
11132069 177 17603587434662265367
11796584 16 11674877805888711369
11961588 58 16845562145404590675
12555020 224 13973699333799981268
12596602 18 17458631141750374577
12616999 72 15410613627909426799
12633257 1 17968085486793912976
12670543 26 13973974177246608689
12670546 177 14979954778806291545
14251764 30 9871451137798665989
14911166 2 14261349154457852359
15048467 5 18408323293518585969
15209294 21 18260548943662132979
15342168 16 18335985358712832964
15885798 251 14707214292744685327
16945 1 17022902358859194726
17980427 23 18262241122844693023
193927 3 8502371174165817113
19784866 140 11671781551232863183
19784866 240 8142088688480531313
200 152 8718831985286741030
20567600 234 18040720290176969901
21344244 181 11815893479207775773
21475661 188 18340481282970440864
21637258 2 10809343377742482601
22182313 1 16733815372791745199
22218785 32 14836404726663708557
22713019 99 12319735860445506375
23253445 4 16877944944738831613
23379529 103 11095294462027165325
23557571 272 17988371484816217543
270888 7 18267584787931846352
2748010 2 16879895358213514878
2838139 119 17917707993806833752
33382 64 7853574616975583021
3472631 163 18341615948878816277
3759504 43 17203604908830028551
4072396 5 16226048868965615715
474 4 18410578413415883248
4990 188 12607399975334826723
5104073 3 17894907468758398010
5374978 207 15357701885532740174
56616090 284 12679466390987544020
69474 34 17313387854818182549
76465 3 9655311315015504488

>  <PUBCHEM_SHAPE_MULTIPOLES>  (1) 
336.98
12.49
1.63
1.48
9.97
0.23
0.56
9.36
-3.07
-1.23
-0.3
0.01
0.1
0.03

>  <PUBCHEM_SHAPE_SELFOVERLAP>  (1) 
660.309

>  <PUBCHEM_SHAPE_VOLUME>  (1) 
203.5

>  <PUBCHEM_COORDINATE_TYPE>  (1) 
2
5
10

$$$$
