27380
     RDKit          3D

 16 16  0  0  0  0  0  0  0  0999 V2000
    0.7332    2.4275   -1.3897 Cl  0  0  0  0  0  0  0  0  0  0  0  0
    2.0041    0.7115    0.7271 O   0  0  0  0  0  0  0  0  0  0  0  0
   -5.4244   -0.9810   -0.5519 O   0  0  0  0  0  0  0  0  0  0  0  0
   -3.3340   -1.5464   -1.2334 O   0  0  0  0  0  0  0  0  0  0  0  0
    4.1149   -0.1089   -0.0504 C   0  0  0  0  0  0  0  0  0  0  0  0
    4.9686   -1.3456   -0.3166 C   0  0  0  0  0  0  0  0  0  0  0  0
    2.7517   -0.4784    0.5170 C   0  0  0  0  0  0  0  0  0  0  0  0
    0.6404    0.6100    0.6323 C   0  0  0  0  0  0  0  0  0  0  0  0
   -2.1270    0.3632    0.4863 C   0  0  0  0  0  0  0  0  0  0  0  0
    6.3123   -0.9749   -0.9234 C   0  0  0  0  0  0  0  0  0  0  0  0
   -0.0697    1.3512   -0.3065 C   0  0  0  0  0  0  0  0  0  0  0  0
   -0.0220   -0.2538    1.4987 C   0  0  0  0  0  0  0  0  0  0  0  0
   -1.4571    1.2273   -0.3798 C   0  0  0  0  0  0  0  0  0  0  0  0
   -1.4095   -0.3773    1.4257 C   0  0  0  0  0  0  0  0  0  0  0  0
   -3.6105    0.2307    0.4086 C   0  0  0  0  0  0  0  0  0  0  0  0
   -4.0711   -0.8551   -0.5440 C   0  0  0  0  0  0  0  0  0  0  0  0
  1 11  1  0
  2  7  1  0
  2  8  1  0
  3 16  1  0
  4 16  2  0
  5  6  1  0
  5  7  1  0
  6 10  1  0
  8 11  2  0
  8 12  1  0
  9 13  2  0
  9 14  1  0
  9 15  1  0
 11 13  1  0
 12 14  2  0
 15 16  1  0
M  END
>  <PUBCHEM_COMPOUND_CID>  (1) 
27380

>  <PUBCHEM_CONFORMER_RMSD>  (1) 
0.8

>  <PUBCHEM_CONFORMER_DIVERSEORDER>  (1) 
1
48
22
45
17
59
56
42
47
44
49
2
62
52
41
60
27
70
53
61
50
39
69
15
65
23
46
37
35
19
6
64
43
29
31
4
33
18
58
11
12
63
28
40
7
9
5
57
10
32
13
24
36
20
55
38
66
34
54
51
30
25
16
21
67
68
8
3
26
14

>  <PUBCHEM_MMFF94_PARTIAL_CHARGES>  (1) 
17
1 -0.18
11 0.18
12 -0.15
13 -0.15
14 -0.15
15 0.2
16 0.66
2 -0.36
26 0.15
27 0.15
28 0.15
3 -0.65
31 0.5
4 -0.57
7 0.28
8 0.08
9 -0.14

>  <PUBCHEM_EFFECTIVE_ROTOR_COUNT>  (1) 
6

>  <PUBCHEM_PHARMACOPHORE_FEATURES>  (1) 
6
1 10 hydrophobe
1 2 acceptor
1 3 acceptor
1 4 acceptor
3 3 4 16 anion
6 8 9 11 12 13 14 rings

>  <PUBCHEM_HEAVY_ATOM_COUNT>  (1) 
16

>  <PUBCHEM_ATOM_DEF_STEREO_COUNT>  (1) 
0

>  <PUBCHEM_ATOM_UDEF_STEREO_COUNT>  (1) 
0

>  <PUBCHEM_BOND_DEF_STEREO_COUNT>  (1) 
0

>  <PUBCHEM_BOND_UDEF_STEREO_COUNT>  (1) 
0

>  <PUBCHEM_ISOTOPIC_ATOM_COUNT>  (1) 
0

>  <PUBCHEM_COMPONENT_COUNT>  (1) 
1

>  <PUBCHEM_CACTVS_TAUTO_COUNT>  (1) 
1

>  <PUBCHEM_CONFORMER_ID>  (1) 
00006AF400000001

>  <PUBCHEM_MMFF94_ENERGY>  (1) 
32.6874

>  <PUBCHEM_FEATURE_SELFOVERLAP>  (1) 
30.504

>  <PUBCHEM_SHAPE_FINGERPRINT>  (1) 
10014705 185 14851902373755108170
10465860 250 16415479363533275427
106641 1 12535333632569959751
12251169 10 13038898920209773600
12596602 18 12823283616045415614
12670543 26 17604141536982725583
13288520 33 18060138734674639755
13675066 3 15195566775798794680
14178000 29 18410854390871469260
14350574 20 17603591871964511915
14739800 52 11026063724867699006
14911166 2 17530681026384925945
14993402 34 17822007622869423609
16945 1 17458613545575220265
17834072 33 18060421343897354032
18186145 218 17386553791374268873
18222031 100 18335697252285602600
187816 3 17530686493862391544
19784866 240 18273218625155603343
200 152 18411704262131083106
20300324 65 18188214195891022272
20374829 77 18409163277700395378
20645476 183 15068628213879518354
20735858 18 12247676085023102045
20871999 31 17603866667723875060
21029758 11 18040997357989973940
21637258 2 17703497840001097918
22224240 67 11600001051115106693
22620623 9 18263073323506999364
22713019 99 18334010609764345875
23379529 103 18048599519256355219
23402539 116 18041000592516546588
23557571 272 18262807250884112820
23559900 14 17846205696200985896
26918003 58 16702302330056677298
2838139 119 12901542459811378086
2916195 48 7925905972191950526
3286 77 17988922275812052840
4325135 7 18272651282036148892
465052 167 16128372730929954279
58807428 26 12535628267353118700
76465 3 16629947958722455279

>  <PUBCHEM_SHAPE_MULTIPOLES>  (1) 
313.53
11.1
1.73
1.28
9.92
1.19
0.03
-6.88
-5.24
0.06
-0.68
-0.37
-0.24
-0.28

>  <PUBCHEM_SHAPE_SELFOVERLAP>  (1) 
625.699

>  <PUBCHEM_SHAPE_VOLUME>  (1) 
185.7

>  <PUBCHEM_COORDINATE_TYPE>  (1) 
2
5
10

$$$$
