27387
     RDKit          3D

 21 21  0  0  0  0  0  0  0  0999 V2000
    4.4096    1.8089    0.8741 O   0  0  0  0  0  0  0  0  0  0  0  0
    2.3054    1.0224   -0.7407 N   0  0  0  0  0  0  0  0  0  0  0  0
    3.5098    0.3385   -0.6791 N   0  0  0  0  0  0  0  0  0  0  0  0
    8.1573   -1.4166    0.1514 N   0  0  0  0  0  0  0  0  0  0  0  0
   -3.8482   -0.2212    0.0109 C   0  0  0  0  0  0  0  0  0  0  0  0
   -5.1885    0.5025   -0.1358 C   0  0  0  0  0  0  0  0  0  0  0  0
   -2.6404    0.6616   -0.3164 C   0  0  0  0  0  0  0  0  0  0  0  0
   -6.3612   -0.4440    0.1318 C   0  0  0  0  0  0  0  0  0  0  0  0
   -7.7022    0.2850    0.0175 C   0  0  0  0  0  0  0  0  0  0  0  0
   -1.2990   -0.0548   -0.1459 C   0  0  0  0  0  0  0  0  0  0  0  0
   -8.8741   -0.6705    0.2529 C   0  0  0  0  0  0  0  0  0  0  0  0
   -0.1295    0.8648   -0.5075 C   0  0  0  0  0  0  0  0  0  0  0  0
  -10.2396    0.0160    0.1801 C   0  0  0  0  0  0  0  0  0  0  0  0
    1.2071    0.1370   -0.3724 C   0  0  0  0  0  0  0  0  0  0  0  0
  -11.4101   -0.9413    0.3426 C   0  0  0  0  0  0  0  0  0  0  0  0
    4.5019    0.8127    0.1609 C   0  0  0  0  0  0  0  0  0  0  0  0
    5.7708    0.0390    0.1574 C   0  0  0  0  0  0  0  0  0  0  0  0
    6.9710    0.6649    0.4755 C   0  0  0  0  0  0  0  0  0  0  0  0
    5.7625   -1.3139   -0.1636 C   0  0  0  0  0  0  0  0  0  0  0  0
    8.1260   -0.1003    0.4583 C   0  0  0  0  0  0  0  0  0  0  0  0
    6.9715   -1.9906   -0.1522 C   0  0  0  0  0  0  0  0  0  0  0  0
  1 16  2  0
  2  3  1  0
  2 14  1  0
  3 16  1  0
  4 20  2  0
  4 21  1  0
  5  6  1  0
  5  7  1  0
  6  8  1  0
  7 10  1  0
  8  9  1  0
  9 11  1  0
 10 12  1  0
 11 13  1  0
 12 14  1  0
 13 15  1  0
 16 17  1  0
 17 18  2  0
 17 19  1  0
 18 20  1  0
 19 21  2  0
M  END
>  <PUBCHEM_COMPOUND_CID>  (1) 
27387

>  <PUBCHEM_CONFORMER_RMSD>  (1) 
1.2

>  <PUBCHEM_CONFORMER_DIVERSEORDER>  (1) 
1
29
42
50
6
92
18
96
86
26
64
23
88
4
60
71
84
98
46
81
51
52
37
85
89
17
79
33
69
34
78
13
16
30
61
95
24
58
67
36
59
48
21
31
49
12
76
94
45
20
53
55
70
47
11
41
66
57
10
27
80
39
82
22
44
43
68
38
28
83
9
7
5
91
35
2
77
32
73
56
87
63
74
3
19
40
97
62
14
54
93
90
72
8
15
25
75
65

>  <PUBCHEM_MMFF94_PARTIAL_CHARGES>  (1) 
17
1 -0.57
14 0.27
16 0.54
17 0.09
18 -0.15
19 -0.15
2 -0.64
20 0.16
21 0.16
3 -0.42
4 -0.62
45 0.36
46 0.37
47 0.15
48 0.15
49 0.15
50 0.15

>  <PUBCHEM_EFFECTIVE_ROTOR_COUNT>  (1) 
13

>  <PUBCHEM_PHARMACOPHORE_FEATURES>  (1) 
6
1 1 acceptor
1 15 hydrophobe
1 2 donor
1 3 donor
1 4 acceptor
6 4 17 18 19 20 21 rings

>  <PUBCHEM_HEAVY_ATOM_COUNT>  (1) 
21

>  <PUBCHEM_ATOM_DEF_STEREO_COUNT>  (1) 
0

>  <PUBCHEM_ATOM_UDEF_STEREO_COUNT>  (1) 
0

>  <PUBCHEM_BOND_DEF_STEREO_COUNT>  (1) 
0

>  <PUBCHEM_BOND_UDEF_STEREO_COUNT>  (1) 
0

>  <PUBCHEM_ISOTOPIC_ATOM_COUNT>  (1) 
0

>  <PUBCHEM_COMPONENT_COUNT>  (1) 
1

>  <PUBCHEM_CACTVS_TAUTO_COUNT>  (1) 
3

>  <PUBCHEM_CONFORMER_ID>  (1) 
00006AFB00000001

>  <PUBCHEM_MMFF94_ENERGY>  (1) 
19.4779

>  <PUBCHEM_FEATURE_SELFOVERLAP>  (1) 
31.93

>  <PUBCHEM_SHAPE_FINGERPRINT>  (1) 
10666366 153 17313379024829301381
11315181 36 8070026684666439517
11638347 137 18413390930100676071
13617811 41 16298389037655477702
13685833 64 18334857200101578844
13885169 127 18261391109940880717
14202775 3 18187652427645159755
14216079 64 18187364307614751266
14251764 18 17917712396585856280
14251764 46 18410293613997159817
14344974 52 10231746787711077421
14428016 248 10881398721887805015
15510794 2 18334298691260737147
155225 1 11024105451677463546
15690457 1 18409446994724023951
1754911 235 8718826475534556483
1818759 1 17385446527483439867
20812841 46 17704349996331487616
21095086 128 18260547818934440115
21102433 48 18131064953730875583
21150785 3 12179845000264621533
21315763 28 18412263943820665865
21362267 313 15482125860338801415
22224240 67 13902185984668774220
232437 2 18410856573690703995
246663 6 17312823775572925525
28498 318 18187363221019492205
33532 11 18334573517237800226
335352 9 12757151295234068361
33684 2 18334858325578117685
4325135 7 11025797591825288306
5283156 175 18411983559617461653
5758199 1 13039189204117169661
57828716 42 18340771418363909798
59520757 100 15502670337565788546
59521099 67 16805329916039626932
59682541 35 13614521870765591735
67123 10 18410575093258294757
8209 1 8502655909254755429
9663363 56 16370442272491510636

>  <PUBCHEM_SHAPE_MULTIPOLES>  (1) 
411.36
40.23
1.33
0.73
71.88
0.29
0.01
13.95
6.8
-2.55
0.04
-0.28
-0.08
0.72

>  <PUBCHEM_SHAPE_SELFOVERLAP>  (1) 
797.39

>  <PUBCHEM_SHAPE_VOLUME>  (1) 
247.4

>  <PUBCHEM_COORDINATE_TYPE>  (1) 
2
5
10

$$$$
