27388
     RDKit          3D

 18 18  0  0  0  0  0  0  0  0999 V2000
   -3.2852    1.5651   -0.3453 O   0  0  0  0  0  0  0  0  0  0  0  0
    1.9913   -2.0014   -0.3048 O   0  0  0  0  0  0  0  0  0  0  0  0
   -4.7447    0.0495    0.6337 N   0  0  0  0  0  0  0  0  0  0  0  0
    0.0372   -0.6397    1.1032 N   0  0  0  0  0  0  0  0  0  0  0  0
    1.2930   -0.1111    0.8458 N   0  0  0  0  0  0  0  0  0  0  0  0
    6.0056    0.9152   -0.4931 N   0  0  0  0  0  0  0  0  0  0  0  0
   -2.3801   -0.3123    0.8879 C   0  0  0  0  0  0  0  0  0  0  0  0
   -5.9607    0.6967    0.2027 C   0  0  0  0  0  0  0  0  0  0  0  0
   -0.9948    0.2261    0.5463 C   0  0  0  0  0  0  0  0  0  0  0  0
   -6.4414    0.1869   -1.1507 C   0  0  0  0  0  0  0  0  0  0  0  0
   -3.4908    0.5505    0.3154 C   0  0  0  0  0  0  0  0  0  0  0  0
   -6.7544   -1.3026   -1.1408 C   0  0  0  0  0  0  0  0  0  0  0  0
    2.2017   -0.8724    0.1319 C   0  0  0  0  0  0  0  0  0  0  0  0
    3.5322   -0.2471   -0.0865 C   0  0  0  0  0  0  0  0  0  0  0  0
    4.6289   -1.0580   -0.2568 C   0  0  0  0  0  0  0  0  0  0  0  0
    3.6272    1.1239   -0.1122 C   0  0  0  0  0  0  0  0  0  0  0  0
    5.8459   -0.4268   -0.4574 C   0  0  0  0  0  0  0  0  0  0  0  0
    4.8891    1.6575   -0.3193 C   0  0  0  0  0  0  0  0  0  0  0  0
  1 11  2  0
  2 13  2  0
  3  8  1  0
  3 11  1  0
  4  5  1  0
  4  9  1  0
  5 13  1  0
  6 17  2  0
  6 18  1  0
  7  9  1  0
  7 11  1  0
  8 10  1  0
 10 12  1  0
 13 14  1  0
 14 15  2  0
 14 16  1  0
 15 17  1  0
 16 18  2  0
M  END
>  <PUBCHEM_COMPOUND_CID>  (1) 
27388

>  <PUBCHEM_CONFORMER_RMSD>  (1) 
0.8

>  <PUBCHEM_CONFORMER_DIVERSEORDER>  (1) 
1
233
86
251
244
70
162
130
127
249
106
49
254
99
120
159
164
200
226
231
190
192
111
242
138
116
187
97
160
202
121
40
184
85
163
25
253
9
194
174
139
241
197
51
206
56
252
216
113
169
173
157
203
228
39
98
81
158
151
27
199
172
185
57
255
93
101
109
210
20
26
129
152
22
248
29
19
146
74
236
68
212
119
126
96
12
100
147
84
110
246
211
48
13
208
188
34
227
117
67
30
71
66
65
128
232
223
76
176
92
177
79
148
21
112
214
182
207
90
38
114
238
237
193
125
132
118
178
15
2
33
234
198
150
80
31
144
133
78
69
42
186
46
115
179
11
73
161
43
4
44
140
5
209
107
243
102
149
122
222
105
153
229
14
61
171
221
167
180
181
134
58
7
91
131
6
47
50
17
62
45
60
247
3
250
219
24
28
142
155
54
239
245
77
37
204
123
55
32
165
8
95
217
87
166
191
141
89
195
10
94
75
103
145
36
218
23
235
63
224
82
240
205
196
35
168
143
215
154
52
104
220
189
72
18
59
137
53
16
83
170
108
201
64
183
41
88
225
136
175
156
213
230
135
124

>  <PUBCHEM_MMFF94_PARTIAL_CHARGES>  (1) 
23
1 -0.57
11 0.57
13 0.54
14 0.09
15 -0.15
16 -0.15
17 0.16
18 0.16
2 -0.57
27 0.37
28 0.36
3 -0.73
32 0.37
33 0.15
34 0.15
35 0.15
36 0.15
4 -0.64
5 -0.42
6 -0.62
7 0.06
8 0.3
9 0.27

>  <PUBCHEM_EFFECTIVE_ROTOR_COUNT>  (1) 
9

>  <PUBCHEM_PHARMACOPHORE_FEATURES>  (1) 
8
1 1 acceptor
1 12 hydrophobe
1 2 acceptor
1 3 donor
1 4 donor
1 5 donor
1 6 acceptor
6 6 14 15 16 17 18 rings

>  <PUBCHEM_HEAVY_ATOM_COUNT>  (1) 
18

>  <PUBCHEM_ATOM_DEF_STEREO_COUNT>  (1) 
0

>  <PUBCHEM_ATOM_UDEF_STEREO_COUNT>  (1) 
0

>  <PUBCHEM_BOND_DEF_STEREO_COUNT>  (1) 
0

>  <PUBCHEM_BOND_UDEF_STEREO_COUNT>  (1) 
0

>  <PUBCHEM_ISOTOPIC_ATOM_COUNT>  (1) 
0

>  <PUBCHEM_COMPONENT_COUNT>  (1) 
1

>  <PUBCHEM_CACTVS_TAUTO_COUNT>  (1) 
6

>  <PUBCHEM_CONFORMER_ID>  (1) 
00006AFC00000001

>  <PUBCHEM_MMFF94_ENERGY>  (1) 
25.1321

>  <PUBCHEM_FEATURE_SELFOVERLAP>  (1) 
42.081

>  <PUBCHEM_SHAPE_FINGERPRINT>  (1) 
10299344 5 17846782910474026023
10595046 47 18342458110635294841
10693767 8 17843696474193630502
10912923 1 18201158750526971579
12236239 1 17704076170211118824
12714333 28 17822010904350992705
13533116 47 16878215364643705666
13668630 136 17203334398798919932
13685833 64 12895354395379194789
13968360 50 18272089362443057206
14123256 10 18411699898512888399
14123256 34 15626224650060488559
14251718 22 18273495676352798943
14528608 73 18412545418132303105
14617045 38 13614526259399677621
14729087 3 15791727512280897517
15003188 100 18334012834684245996
15348495 7 10447631522904642407
15501527 24 18131353007494066011
15537594 2 14979952545660681749
16079462 125 17240478117957109613
17834072 33 18272930531570882041
20157964 124 18408044013908408642
20645477 70 18270970029540865534
21150785 3 17917992814657642745
220451 1 17775287141166207779
221357 26 18411418397376756936
2297311 6 14979961363344363929
23035841 295 15626223515904234167
23081809 10 18131635552054848587
23402539 116 17749392597826919970
23424782 7 18058443373897344707
23559900 14 18336543927926641825
2767999 5 16225761917947586327
29717793 49 17846506894126299196
300161 21 16588021316643814947
33382 64 12319466467544121916
335352 9 18410018733124804814
351380 3 15626220204489684493
3545911 37 18041003933542121682
4325135 7 18342174471221823127
7062679 117 18343863338541842599
8863177 126 16127515138237144327

>  <PUBCHEM_SHAPE_MULTIPOLES>  (1) 
338.77
19.28
1.46
0.97
15.03
0.06
-0.02
-0.99
-6.87
-0.8
-0.26
0.98
0.1
-0.67

>  <PUBCHEM_SHAPE_SELFOVERLAP>  (1) 
678.784

>  <PUBCHEM_SHAPE_VOLUME>  (1) 
197.2

>  <PUBCHEM_COORDINATE_TYPE>  (1) 
2
5
10

$$$$
