27386
     RDKit          3D

 17 18  0  0  1  0  0  0  0  0999 V2000
   -3.8574    1.3571   -0.3121 O   0  0  0  0  0  0  0  0  0  0  0  0
    1.1950   -1.8052   -0.3032 O   0  0  0  0  0  0  0  0  0  0  0  0
   -0.7165   -0.1749    0.8573 N   0  0  0  0  0  0  0  0  0  0  0  0
    0.6071    0.2060    0.6938 N   0  0  0  0  0  0  0  0  0  0  0  0
    5.5022    0.6653   -0.2437 N   0  0  0  0  0  0  0  0  0  0  0  0
   -3.0589    0.4019    0.3948 C   0  0  0  0  0  0  0  0  0  0  0  0
   -3.3625   -1.0127   -0.1044 C   0  0  0  0  0  0  0  0  0  0  0  0
   -4.8517   -1.3193    0.0212 C   0  0  0  0  0  0  0  0  0  0  0  0
   -5.6821   -0.2157   -0.6245 C   0  0  0  0  0  0  0  0  0  0  0  0
   -5.2553    1.1518   -0.1083 C   0  0  0  0  0  0  0  0  0  0  0  0
   -1.5964    0.7600    0.1696 C   0  0  0  0  0  0  0  0  0  0  0  0
    1.4871   -0.6824    0.1011 C   0  0  0  0  0  0  0  0  0  0  0  0
    2.8913   -0.2109   -0.0206 C   0  0  0  0  0  0  0  0  0  0  0  0
    3.9046   -1.1392   -0.0509 C   0  0  0  0  0  0  0  0  0  0  0  0
    3.1360    1.1395   -0.0976 C   0  0  0  0  0  0  0  0  0  0  0  0
    5.1958   -0.6490   -0.1638 C   0  0  0  0  0  0  0  0  0  0  0  0
    4.4616    1.5277   -0.2085 C   0  0  0  0  0  0  0  0  0  0  0  0
  1  6  1  0
  1 10  1  0
  2 12  2  0
  3  4  1  0
  3 11  1  0
  4 12  1  0
  5 16  2  0
  5 17  1  0
  6  7  1  0
  6 11  1  0
  7  8  1  0
  8  9  1  0
  9 10  1  0
 12 13  1  0
 13 14  2  0
 13 15  1  0
 14 16  1  0
 15 17  2  0
M  END
>  <PUBCHEM_COMPOUND_CID>  (1) 
27386

>  <PUBCHEM_CONFORMER_RMSD>  (1) 
0.8

>  <PUBCHEM_CONFORMER_DIVERSEORDER>  (1) 
1
26
17
33
22
9
29
2
39
32
40
10
7
35
30
5
13
41
15
34
28
4
3
6
12
31
24
27
37
19
11
16
38
20
14
36
25
21
23
8
18

>  <PUBCHEM_MMFF94_PARTIAL_CHARGES>  (1) 
20
1 -0.56
10 0.28
11 0.27
12 0.54
13 0.09
14 -0.15
15 -0.15
16 0.16
17 0.16
2 -0.57
29 0.36
3 -0.64
30 0.37
31 0.15
32 0.15
33 0.15
34 0.15
4 -0.42
5 -0.62
6 0.28

>  <PUBCHEM_EFFECTIVE_ROTOR_COUNT>  (1) 
6.2

>  <PUBCHEM_PHARMACOPHORE_FEATURES>  (1) 
7
1 1 acceptor
1 2 acceptor
1 3 donor
1 4 donor
1 5 acceptor
6 1 6 7 8 9 10 rings
6 5 13 14 15 16 17 rings

>  <PUBCHEM_HEAVY_ATOM_COUNT>  (1) 
17

>  <PUBCHEM_ATOM_DEF_STEREO_COUNT>  (1) 
0

>  <PUBCHEM_ATOM_UDEF_STEREO_COUNT>  (1) 
1

>  <PUBCHEM_BOND_DEF_STEREO_COUNT>  (1) 
0

>  <PUBCHEM_BOND_UDEF_STEREO_COUNT>  (1) 
0

>  <PUBCHEM_ISOTOPIC_ATOM_COUNT>  (1) 
0

>  <PUBCHEM_COMPONENT_COUNT>  (1) 
1

>  <PUBCHEM_CACTVS_TAUTO_COUNT>  (1) 
3

>  <PUBCHEM_CONFORMER_ID>  (1) 
00006AFA00000001

>  <PUBCHEM_MMFF94_ENERGY>  (1) 
32.5757

>  <PUBCHEM_FEATURE_SELFOVERLAP>  (1) 
37.002

>  <PUBCHEM_SHAPE_FINGERPRINT>  (1) 
10595046 47 18410292523181059113
10968037 39 18411135853659376311
11089746 13 14418134058339262470
11287383 113 18409450301489957379
12107183 9 17617940231780622233
12236239 1 18060701680169608940
13167823 11 18410290298298666874
13533116 47 16733253561536686696
1420 363 18260555536737580419
14251718 22 18412824703108137975
14251764 18 18040712576832080488
14528608 73 18410293635635663196
15196674 1 18410575093263569517
17834072 33 18343018908614915509
17834076 25 16081088177500641961
17844677 252 18412270536104848441
1813 80 14261637239499735752
19489759 90 16805321098223502361
200 152 18202563973394402377
20621476 66 18058456409629880385
20645477 70 18341334392735804142
20871999 31 18411975871831704227
21709351 56 18407755936875991476
23402539 116 18113897160801784287
23402655 69 18413671296548374538
23536379 177 18409729543110034945
23557571 272 18334577902088127949
23559900 14 18341884247523837753
29717793 49 17846785074752389140
300161 21 17821721724350743499
3004659 81 18411700950827692970
314173 85 14548738400235541523
34797466 226 17917439760219447845
351380 180 18187083962093100672
3545911 37 18408042901242834069
4214541 1 18411138013648332281
42788 4 18409730659738221707
4325135 7 18411981381863321095
474229 33 18342740736315600886
5104073 3 18409730655490747641
5283173 99 18262232227593298245
542803 24 17385726893535590101
58051976 378 18201442445437407831
59755656 520 17530961406019038450
7495541 125 17846776347162481520
77779 3 18411138022042828203
9971528 1 17530686502694997468

>  <PUBCHEM_SHAPE_MULTIPOLES>  (1) 
323.17
14.88
1.53
0.7
3.64
0.03
0.02
-1.29
-2.34
-0.11
-0.12
0.17
0
-0.05

>  <PUBCHEM_SHAPE_SELFOVERLAP>  (1) 
666.778

>  <PUBCHEM_SHAPE_VOLUME>  (1) 
182.8

>  <PUBCHEM_COORDINATE_TYPE>  (1) 
2
5
10

$$$$
