27384
     RDKit          3D

 17 17  0  0  0  0  0  0  0  0999 V2000
    1.3332    2.5812   -1.5025 Br  0  0  0  0  0  0  0  0  0  0  0  0
    2.3881    0.6704    0.7283 O   0  0  0  0  0  0  0  0  0  0  0  0
   -3.5879   -0.3676   -1.6522 O   0  0  0  0  0  0  0  0  0  0  0  0
   -5.2350   -2.2212   -0.5769 O   0  0  0  0  0  0  0  0  0  0  0  0
   -4.6534   -1.2194    0.2113 N   0  0  0  0  0  0  0  0  0  0  0  0
    4.4019   -0.3533   -0.0653 C   0  0  0  0  0  0  0  0  0  0  0  0
    5.1311   -1.6675   -0.3292 C   0  0  0  0  0  0  0  0  0  0  0  0
    3.0168   -0.5868    0.5211 C   0  0  0  0  0  0  0  0  0  0  0  0
   -1.7602    0.7077    0.5438 C   0  0  0  0  0  0  0  0  0  0  0  0
    1.0198    0.6981    0.6499 C   0  0  0  0  0  0  0  0  0  0  0  0
    6.4964   -1.4313   -0.9547 C   0  0  0  0  0  0  0  0  0  0  0  0
   -3.2506    0.7125    0.4875 C   0  0  0  0  0  0  0  0  0  0  0  0
   -1.0258    1.4988   -0.3397 C   0  0  0  0  0  0  0  0  0  0  0  0
   -1.1009   -0.0881    1.4806 C   0  0  0  0  0  0  0  0  0  0  0  0
    0.3680    1.4939   -0.2865 C   0  0  0  0  0  0  0  0  0  0  0  0
    0.2929   -0.0929    1.5337 C   0  0  0  0  0  0  0  0  0  0  0  0
   -3.8342   -0.3348   -0.4493 C   0  0  0  0  0  0  0  0  0  0  0  0
  1 15  1  0
  2  8  1  0
  2 10  1  0
  3 17  2  0
  4  5  1  0
  5 17  1  0
  6  7  1  0
  6  8  1  0
  7 11  1  0
  9 12  1  0
  9 13  2  0
  9 14  1  0
 10 15  2  0
 10 16  1  0
 12 17  1  0
 13 15  1  0
 14 16  2  0
M  END
>  <PUBCHEM_COMPOUND_CID>  (1) 
27384

>  <PUBCHEM_CONFORMER_RMSD>  (1) 
0.8

>  <PUBCHEM_CONFORMER_DIVERSEORDER>  (1) 
4
18
135
85
13
33
105
126
127
39
44
64
122
121
67
40
29
119
128
75
87
138
78
96
134
83
124
93
139
12
120
104
115
131
70
50
97
123
46
112
136
133
9
140
31
6
11
79
49
100
103
59
84
25
108
81
43
26
62
5
109
132
54
14
92
86
114
110
102
73
82
53
95
2
68
3
111
101
27
80
107
91
15
38
42
117
24
48
60
28
66
63
89
94
65
61
69
118
77
71
137
130
74
57
21
20
32
113
116
23
51
58
76
56
88
36
72
8
10
90
99
125
47
34
1
41
52
30
106
35
129
19
37
16
98
45
55
7
17
22

>  <PUBCHEM_MMFF94_PARTIAL_CHARGES>  (1) 
19
1 -0.11
10 0.08
12 0.2
13 -0.15
14 -0.15
15 0.11
16 -0.15
17 0.57
2 -0.36
29 0.15
3 -0.57
30 0.15
31 0.15
32 0.37
33 0.4
4 -0.44
5 -0.39
8 0.28
9 -0.14

>  <PUBCHEM_EFFECTIVE_ROTOR_COUNT>  (1) 
7

>  <PUBCHEM_PHARMACOPHORE_FEATURES>  (1) 
6
1 1 hydrophobe
1 11 hydrophobe
1 2 acceptor
1 3 acceptor
1 5 donor
6 9 10 13 14 15 16 rings

>  <PUBCHEM_HEAVY_ATOM_COUNT>  (1) 
17

>  <PUBCHEM_ATOM_DEF_STEREO_COUNT>  (1) 
0

>  <PUBCHEM_ATOM_UDEF_STEREO_COUNT>  (1) 
0

>  <PUBCHEM_BOND_DEF_STEREO_COUNT>  (1) 
0

>  <PUBCHEM_BOND_UDEF_STEREO_COUNT>  (1) 
0

>  <PUBCHEM_ISOTOPIC_ATOM_COUNT>  (1) 
0

>  <PUBCHEM_COMPONENT_COUNT>  (1) 
1

>  <PUBCHEM_CACTVS_TAUTO_COUNT>  (1) 
3

>  <PUBCHEM_CONFORMER_ID>  (1) 
00006AF800000004

>  <PUBCHEM_MMFF94_ENERGY>  (1) 
38.2927

>  <PUBCHEM_FEATURE_SELFOVERLAP>  (1) 
30.446

>  <PUBCHEM_SHAPE_FINGERPRINT>  (1) 
11961588 58 14418134066649544140
12633257 1 15482386573026709527
12670546 177 17385444349170343815
13288520 33 18201721730133537937
13583140 156 16271356384339531616
14123255 352 11241972572688287326
14178000 29 18408887343268647252
14350574 20 17749395896894248123
14576447 43 18260823804484296594
14739800 52 7853584456703402462
14911166 2 17458345238456438617
15061688 2 10881398720732335264
16945 1 17458336438395828225
18186145 218 17458898327755967129
18222031 100 18333728014207235744
193927 3 18130795572115440591
19784866 240 18343587356311117899
200 152 18341897351305053272
20374829 77 18335417920544928562
20388580 30 18335139833859928389
20621476 21 17918281947883419782
20871999 31 17603868849788846444
21069387 34 18410017658053561105
21637258 2 17846487115490879038
22182313 1 17024889287770561289
22224240 67 11743830357361677725
22713019 99 18260828206651461370
23379529 103 18119533395251835147
23402539 116 18115591439917578108
23559900 14 18130496500900396408
26918003 58 16486970653016254024
270888 7 11314571114126980735
2838139 119 12685091501340110934
2916195 48 7997677693364840734
3286 77 18060416902838068064
351380 3 18131912650312594014
56616090 284 18040999514453479210
58807428 26 12679458669180171684

>  <PUBCHEM_SHAPE_MULTIPOLES>  (1) 
333.21
11.72
2.15
1.37
8.52
0.97
-0.03
-10.36
-5.39
0.06
-1.02
-0.35
-0.03
-0.34

>  <PUBCHEM_SHAPE_SELFOVERLAP>  (1) 
657.442

>  <PUBCHEM_SHAPE_VOLUME>  (1) 
203.4

>  <PUBCHEM_COORDINATE_TYPE>  (1) 
2
5
10

$$$$
