27385
     RDKit          3D

 17 17  0  0  0  0  0  0  0  0999 V2000
    0.6297    2.5677    0.0624 F   0  0  0  0  0  0  0  0  0  0  0  0
    2.2855    0.4571    0.6779 O   0  0  0  0  0  0  0  0  0  0  0  0
   -3.9529   -1.3898    0.8566 O   0  0  0  0  0  0  0  0  0  0  0  0
   -5.9739    0.4045    0.8144 O   0  0  0  0  0  0  0  0  0  0  0  0
   -4.9779    0.4066   -0.1711 N   0  0  0  0  0  0  0  0  0  0  0  0
    4.6204    0.1384    0.2543 C   0  0  0  0  0  0  0  0  0  0  0  0
    5.7139   -0.8653   -0.1002 C   0  0  0  0  0  0  0  0  0  0  0  0
    3.2573   -0.5302    0.3620 C   0  0  0  0  0  0  0  0  0  0  0  0
   -1.5801   -0.2259   -0.6712 C   0  0  0  0  0  0  0  0  0  0  0  0
    1.0085    0.2327    0.2327 C   0  0  0  0  0  0  0  0  0  0  0  0
    7.0662   -0.1866   -0.2491 C   0  0  0  0  0  0  0  0  0  0  0  0
   -2.9686   -0.4720   -1.1554 C   0  0  0  0  0  0  0  0  0  0  0  0
   -1.1130    1.0805   -0.5266 C   0  0  0  0  0  0  0  0  0  0  0  0
   -0.7483   -1.3022   -0.3623 C   0  0  0  0  0  0  0  0  0  0  0  0
    0.1857    1.3107   -0.0730 C   0  0  0  0  0  0  0  0  0  0  0  0
    0.5505   -1.0720    0.0912 C   0  0  0  0  0  0  0  0  0  0  0  0
   -4.0031   -0.5542   -0.0425 C   0  0  0  0  0  0  0  0  0  0  0  0
  1 15  1  0
  2  8  1  0
  2 10  1  0
  3 17  2  0
  4  5  1  0
  5 17  1  0
  6  7  1  0
  6  8  1  0
  7 11  1  0
  9 12  1  0
  9 13  2  0
  9 14  1  0
 10 15  2  0
 10 16  1  0
 12 17  1  0
 13 15  1  0
 14 16  2  0
M  END
>  <PUBCHEM_COMPOUND_CID>  (1) 
27385

>  <PUBCHEM_CONFORMER_RMSD>  (1) 
0.8

>  <PUBCHEM_CONFORMER_DIVERSEORDER>  (1) 
4
101
74
92
38
66
85
144
131
159
138
130
20
88
170
80
58
128
53
150
164
12
59
166
154
10
34
152
62
167
76
35
86
97
8
55
63
122
82
135
28
64
108
116
110
160
78
147
6
141
83
65
126
39
158
118
54
15
153
142
121
114
44
3
43
96
19
104
87
14
51
7
95
68
168
73
37
100
93
109
134
105
36
103
50
67
112
24
145
21
79
77
111
70
124
18
45
113
151
90
11
117
52
169
107
31
146
57
41
42
40
127
139
120
132
46
143
69
149
75
13
156
133
157
25
60
48
163
98
49
155
2
89
32
125
56
33
119
162
171
27
140
91
61
165
16
5
123
102
30
22
99
1
161
137
115
17
71
29
23
148
129
136
81
26
84
72
47
94
106
9

>  <PUBCHEM_MMFF94_PARTIAL_CHARGES>  (1) 
19
1 -0.19
10 0.08
12 0.2
13 -0.15
14 -0.15
15 0.19
16 -0.15
17 0.57
2 -0.36
29 0.15
3 -0.57
30 0.15
31 0.15
32 0.37
33 0.4
4 -0.44
5 -0.39
8 0.28
9 -0.14

>  <PUBCHEM_EFFECTIVE_ROTOR_COUNT>  (1) 
7

>  <PUBCHEM_PHARMACOPHORE_FEATURES>  (1) 
5
1 11 hydrophobe
1 2 acceptor
1 3 acceptor
1 5 donor
6 9 10 13 14 15 16 rings

>  <PUBCHEM_HEAVY_ATOM_COUNT>  (1) 
17

>  <PUBCHEM_ATOM_DEF_STEREO_COUNT>  (1) 
0

>  <PUBCHEM_ATOM_UDEF_STEREO_COUNT>  (1) 
0

>  <PUBCHEM_BOND_DEF_STEREO_COUNT>  (1) 
0

>  <PUBCHEM_BOND_UDEF_STEREO_COUNT>  (1) 
0

>  <PUBCHEM_ISOTOPIC_ATOM_COUNT>  (1) 
0

>  <PUBCHEM_COMPONENT_COUNT>  (1) 
1

>  <PUBCHEM_CACTVS_TAUTO_COUNT>  (1) 
3

>  <PUBCHEM_CONFORMER_ID>  (1) 
00006AF900000004

>  <PUBCHEM_MMFF94_ENERGY>  (1) 
36.2685

>  <PUBCHEM_FEATURE_SELFOVERLAP>  (1) 
25.371

>  <PUBCHEM_SHAPE_FINGERPRINT>  (1) 
10968037 39 18408884058008815630
11089746 13 16845565414222921177
12236239 1 17632574976496670971
12670546 56 15123516873683615026
13288520 33 18413107247616101508
13533116 47 10879725256352443244
13740256 8 18261675981682704490
13760787 5 18336820987164931517
13862211 1 18411127044207120702
14123256 10 9295286132452553265
1420 363 18333450937451154826
14251718 22 14779266406182764622
15048467 5 17131833157370463171
15527383 91 18201718461595100833
187816 3 17967812743575125810
19141452 34 17774998020451514798
19489759 90 13398634952320496143
19784866 170 18410855430475139783
200 152 14201393876448594246
21029758 27 18260827111561602668
21054139 6 8358249324786011761
21267235 1 18410578391798459358
21304253 13 18131069333584543928
2297311 6 18341899572109119860
23035841 295 17967250888474595602
23402539 116 18060411426205905598
23557571 272 18271810078009833068
23559900 14 18340479084833050936
23622692 88 11743834786068792634
335352 9 18411697695142028925
4325135 7 11602542030987134883
4463277 17 18410855464845349616

>  <PUBCHEM_SHAPE_MULTIPOLES>  (1) 
319.99
13.7
1.45
0.83
11.34
0.61
-0.05
-2.3
1.05
-0.25
0.03
-0.51
-0.08
0.12

>  <PUBCHEM_SHAPE_SELFOVERLAP>  (1) 
647.26

>  <PUBCHEM_SHAPE_VOLUME>  (1) 
187.8

>  <PUBCHEM_COORDINATE_TYPE>  (1) 
2
5
10

$$$$
