27382
     RDKit          3D

 18 18  0  0  0  0  0  0  0  0999 V2000
    2.3334   -0.1511    1.0267 O   0  0  0  0  0  0  0  0  0  0  0  0
    0.8534    2.1906    0.8054 O   0  0  0  0  0  0  0  0  0  0  0  0
   -3.6246   -1.4420   -1.2530 O   0  0  0  0  0  0  0  0  0  0  0  0
   -5.2863    0.5115   -2.1058 O   0  0  0  0  0  0  0  0  0  0  0  0
   -4.7088    0.5528   -0.8299 N   0  0  0  0  0  0  0  0  0  0  0  0
    4.3530   -0.1549   -0.2596 C   0  0  0  0  0  0  0  0  0  0  0  0
    3.0227   -0.8483   -0.0019 C   0  0  0  0  0  0  0  0  0  0  0  0
    5.1423   -0.8445   -1.3688 C   0  0  0  0  0  0  0  0  0  0  0  0
    0.9637   -0.1937    0.9921 C   0  0  0  0  0  0  0  0  0  0  0  0
   -1.8144   -0.3053    0.9266 C   0  0  0  0  0  0  0  0  0  0  0  0
    0.2295    0.9822    0.8814 C   0  0  0  0  0  0  0  0  0  0  0  0
   -1.1640    0.9262    0.8486 C   0  0  0  0  0  0  0  0  0  0  0  0
   -3.3040   -0.3652    0.8909 C   0  0  0  0  0  0  0  0  0  0  0  0
    0.3217   -1.4248    1.0703 C   0  0  0  0  0  0  0  0  0  0  0  0
   -1.0716   -1.4808    1.0375 C   0  0  0  0  0  0  0  0  0  0  0  0
    6.4503   -0.1237   -1.6527 C   0  0  0  0  0  0  0  0  0  0  0  0
   -3.8812   -0.4975   -0.5106 C   0  0  0  0  0  0  0  0  0  0  0  0
    1.1850    2.6683   -0.4971 C   0  0  0  0  0  0  0  0  0  0  0  0
  1  7  1  0
  1  9  1  0
  2 11  1  0
  2 18  1  0
  3 17  2  0
  4  5  1  0
  5 17  1  0
  6  7  1  0
  6  8  1  0
  8 16  1  0
  9 11  2  0
  9 14  1  0
 10 12  2  0
 10 13  1  0
 10 15  1  0
 11 12  1  0
 13 17  1  0
 14 15  2  0
M  END
>  <PUBCHEM_COMPOUND_CID>  (1) 
27382

>  <PUBCHEM_CONFORMER_RMSD>  (1) 
0.8

>  <PUBCHEM_CONFORMER_DIVERSEORDER>  (1) 
1
105
155
59
146
32
9
206
212
101
53
227
125
152
164
202
139
172
44
108
54
14
104
91
113
175
66
173
213
222
46
111
110
223
57
128
229
142
210
100
184
75
67
25
21
86
129
204
83
192
167
162
74
198
26
161
3
156
224
208
85
87
171
106
51
132
144
58
154
98
136
138
197
95
157
82
190
174
6
201
68
135
228
41
35
65
150
92
63
127
143
191
50
176
97
10
220
151
207
137
177
112
79
90
188
185
215
88
187
225
33
116
16
20
200
196
226
72
153
94
159
218
12
181
165
140
17
43
89
7
99
133
130
189
5
169
28
170
121
42
148
19
186
117
221
30
193
141
123
31
114
168
40
39
199
78
64
2
122
134
48
119
18
93
217
70
180
11
203
131
38
15
160
80
13
84
211
183
209
45
24
22
73
34
216
61
103
109
4
77
163
178
52
115
37
195
29
36
194
69
62
219
8
23
102
182
71
145
76
96
56
214
107
166
149
147
205
158
55
124
126
60
49
81
27
47
120
179
118

>  <PUBCHEM_MMFF94_PARTIAL_CHARGES>  (1) 
20
1 -0.36
10 -0.14
11 0.08
12 -0.15
13 0.2
14 -0.15
15 -0.15
17 0.57
18 0.28
2 -0.36
25 0.15
28 0.15
29 0.15
3 -0.57
36 0.37
37 0.4
4 -0.44
5 -0.39
7 0.28
9 0.08

>  <PUBCHEM_EFFECTIVE_ROTOR_COUNT>  (1) 
8

>  <PUBCHEM_PHARMACOPHORE_FEATURES>  (1) 
6
1 1 acceptor
1 16 hydrophobe
1 2 acceptor
1 3 acceptor
1 5 donor
6 9 10 11 12 14 15 rings

>  <PUBCHEM_HEAVY_ATOM_COUNT>  (1) 
18

>  <PUBCHEM_ATOM_DEF_STEREO_COUNT>  (1) 
0

>  <PUBCHEM_ATOM_UDEF_STEREO_COUNT>  (1) 
0

>  <PUBCHEM_BOND_DEF_STEREO_COUNT>  (1) 
0

>  <PUBCHEM_BOND_UDEF_STEREO_COUNT>  (1) 
0

>  <PUBCHEM_ISOTOPIC_ATOM_COUNT>  (1) 
0

>  <PUBCHEM_COMPONENT_COUNT>  (1) 
1

>  <PUBCHEM_CACTVS_TAUTO_COUNT>  (1) 
3

>  <PUBCHEM_CONFORMER_ID>  (1) 
00006AF600000001

>  <PUBCHEM_MMFF94_ENERGY>  (1) 
52.6885

>  <PUBCHEM_FEATURE_SELFOVERLAP>  (1) 
30.45

>  <PUBCHEM_SHAPE_FINGERPRINT>  (1) 
10756046 5 18122625217125951354
11796584 16 15626504973859233885
12293681 160 18041002821689249120
12596602 18 12391510871838321438
12670543 26 18336547118775846126
12839892 36 11239993455911060669
13288520 33 16200156473516066843
13914758 101 16660360356300518252
14178000 29 17704354385687557448
14178342 30 11167678619576523259
14508225 48 18411708664700155204
14911166 2 18407760343533568507
14993402 34 18410293609755154810
15048467 5 16588025701441439894
15209294 21 11891329854838455771
15295992 7 11891918132825841334
16945 1 18261105288187871419
17959699 21 17095535036559812804
18186145 218 18335128839413193505
18222031 100 17917707990075783898
18769570 83 15863787309774478028
193927 3 15985111837714243190
19784866 240 17346881174018411215
20871999 31 18337114471160514096
21069387 34 17203610423319810843
21304304 249 13901900129194836573
21637258 2 16056593219166553990
22182313 1 18045786955215093864
22224240 67 8646764478648897181
22620623 9 17987245417236962328
23379529 103 17627501971818404743
23402539 116 18340499872057843730
23559900 14 18339370768437883320
25147074 1 18047752603112446442
270888 7 16009299904304502591
2748010 2 18046066235595534523
2838139 119 16225765229293798542
2916195 48 13912326801991823726
3009799 131 18334294275770437228
3286 77 16558751200652951474
392239 28 11098150937358555717
465052 167 13758067532565082732
5718773 13 14045155516858612509
58807428 26 9583518694563777168
76465 3 14836112282762692215
7808743 9 16081637886750365853

>  <PUBCHEM_SHAPE_MULTIPOLES>  (1) 
341.97
11.47
1.83
1.63
8.24
1.1
-0.66
-0.51
-10.13
0.03
0.29
-0.63
0.07
0.54

>  <PUBCHEM_SHAPE_SELFOVERLAP>  (1) 
687.551

>  <PUBCHEM_SHAPE_VOLUME>  (1) 
201.3

>  <PUBCHEM_COORDINATE_TYPE>  (1) 
2
5
10

$$$$
