27392
     RDKit          3D

 17 17  0  0  1  0  0  0  0  0999 V2000
   -4.5728    0.4019   -0.5072 O   0  0  0  0  0  0  0  0  0  0  0  0
    1.0066   -1.7071   -1.3652 O   0  0  0  0  0  0  0  0  0  0  0  0
   -0.9329   -1.8487    0.5999 N   0  0  0  0  0  0  0  0  0  0  0  0
    0.2137   -1.0813    0.7237 N   0  0  0  0  0  0  0  0  0  0  0  0
   -3.3398    1.0932   -0.3020 C   0  0  0  0  0  0  0  0  0  0  0  0
   -2.1737    0.0794   -0.3759 C   0  0  0  0  0  0  0  0  0  0  0  0
   -2.1168   -1.0009    0.7255 C   0  0  0  0  0  0  0  0  0  0  0  0
   -3.1939    2.1177   -1.4340 C   0  0  0  0  0  0  0  0  0  0  0  0
   -3.4050    1.8142    1.0461 C   0  0  0  0  0  0  0  0  0  0  0  0
   -3.3582   -1.8919    0.6563 C   0  0  0  0  0  0  0  0  0  0  0  0
    1.1254   -1.0770   -0.3173 C   0  0  0  0  0  0  0  0  0  0  0  0
    2.3399   -0.2473   -0.1041 C   0  0  0  0  0  0  0  0  0  0  0  0
    3.5040   -0.5912   -0.7588 C   0  0  0  0  0  0  0  0  0  0  0  0
    2.2632    0.8400    0.7410 C   0  0  0  0  0  0  0  0  0  0  0  0
    4.6438    0.1875   -0.5591 C   0  0  0  0  0  0  0  0  0  0  0  0
    3.4031    1.6187    0.9406 C   0  0  0  0  0  0  0  0  0  0  0  0
    4.5934    1.2926    0.2905 C   0  0  0  0  0  0  0  0  0  0  0  0
  1  5  1  0
  2 11  2  0
  3  4  1  0
  3  7  1  0
  4 11  1  0
  5  6  1  0
  5  8  1  0
  5  9  1  0
  6  7  1  0
  7 10  1  0
 11 12  1  0
 12 13  2  0
 12 14  1  0
 13 15  1  0
 14 16  2  0
 15 17  2  0
 16 17  1  0
M  END
>  <PUBCHEM_COMPOUND_CID>  (1) 
27392

>  <PUBCHEM_CONFORMER_RMSD>  (1) 
0.8

>  <PUBCHEM_CONFORMER_DIVERSEORDER>  (1) 
7
17
11
27
4
20
5
29
15
8
28
21
13
19
1
25
22
26
30
18
9
2
12
3
10
6
24
23
14
16

>  <PUBCHEM_MMFF94_PARTIAL_CHARGES>  (1) 
21
1 -0.68
11 0.54
12 0.09
13 -0.15
14 -0.15
15 -0.15
16 -0.15
17 -0.15
2 -0.57
3 -0.64
30 0.36
31 0.4
32 0.37
33 0.15
34 0.15
35 0.15
36 0.15
37 0.15
4 -0.42
5 0.28
7 0.27

>  <PUBCHEM_EFFECTIVE_ROTOR_COUNT>  (1) 
6

>  <PUBCHEM_PHARMACOPHORE_FEATURES>  (1) 
7
1 1 acceptor
1 1 donor
1 2 acceptor
1 3 donor
1 4 donor
3 5 8 9 hydrophobe
6 12 13 14 15 16 17 rings

>  <PUBCHEM_HEAVY_ATOM_COUNT>  (1) 
17

>  <PUBCHEM_ATOM_DEF_STEREO_COUNT>  (1) 
0

>  <PUBCHEM_ATOM_UDEF_STEREO_COUNT>  (1) 
1

>  <PUBCHEM_BOND_DEF_STEREO_COUNT>  (1) 
0

>  <PUBCHEM_BOND_UDEF_STEREO_COUNT>  (1) 
0

>  <PUBCHEM_ISOTOPIC_ATOM_COUNT>  (1) 
0

>  <PUBCHEM_COMPONENT_COUNT>  (1) 
1

>  <PUBCHEM_CACTVS_TAUTO_COUNT>  (1) 
2

>  <PUBCHEM_CONFORMER_ID>  (1) 
00006B0000000007

>  <PUBCHEM_MMFF94_ENERGY>  (1) 
38.8991

>  <PUBCHEM_FEATURE_SELFOVERLAP>  (1) 
37.011

>  <PUBCHEM_SHAPE_FINGERPRINT>  (1) 
10498660 4 18261665991799959053
10608611 8 18412546539298044066
10646746 165 18408323293861360426
11132069 177 18113337509304268221
11543360 7 17131823283351348141
11595378 159 17312814979010567417
11615756 256 18338806701038935040
12403259 415 18200880685690905664
12500047 106 18334858337883258186
12596602 18 15791740740532684232
12730499 353 18342464712127019003
13464514 151 18198913508737885282
14123250 116 17986679177575969665
14123255 352 18335417984795624364
14251764 38 18341613758519900456
18186145 218 18412829053619975552
19862831 5 15554440786577072805
200 152 16702304529480801000
20281475 54 8286195063220387242
20645477 56 18408893927421869899
20645477 70 17775010046781930286
20671657 53 13758064191033339907
20767249 271 18334010579699425052
221357 26 17989486303485981473
22182937 141 18341059540529943089
231179 274 18411699885612175274
23402539 116 18262796414550210671
23402655 69 17918277558610926308
23500284 214 18335145263046444857
23557571 272 18337681926730048027
23559900 14 18341615868028986834
25 1 18271810073108048154
3268164 11 18337666524824149223
341906 21 18113330933946759984
351380 180 18412257354812864896
3524813 1 18411130350994412953
4028521 119 18411132511542122525
5281201 14 18271536372328053028
548570 60 18411416219880689056
633830 44 16629707118246682830

>  <PUBCHEM_SHAPE_MULTIPOLES>  (1) 
328.15
9.88
2.21
1.16
2.45
0.09
-0.13
4.21
-0.48
-1.63
0.08
-0.3
0.22
1.44

>  <PUBCHEM_SHAPE_SELFOVERLAP>  (1) 
663.068

>  <PUBCHEM_SHAPE_VOLUME>  (1) 
192.5

>  <PUBCHEM_COORDINATE_TYPE>  (1) 
2
5
10

$$$$
