27395
     RDKit          3D

 23 24  0  0  0  0  0  0  0  0999 V2000
   -1.3618   -2.3714    0.6284 O   0  0  0  0  0  0  0  0  0  0  0  0
    3.2509    1.9329   -0.2428 O   0  0  0  0  0  0  0  0  0  0  0  0
   -2.9888   -1.4269   -0.7304 N   0  0  0  0  0  0  0  0  0  0  0  0
    1.6347   -0.0564   -1.2847 N   0  0  0  0  0  0  0  0  0  0  0  0
    2.9425   -0.2768   -0.8800 N   0  0  0  0  0  0  0  0  0  0  0  0
    7.7012   -0.1061    0.7613 N   0  0  0  0  0  0  0  0  0  0  0  0
   -4.7481   -1.4082    1.0046 C   0  0  0  0  0  0  0  0  0  0  0  0
   -4.1057   -2.1470   -0.1670 C   0  0  0  0  0  0  0  0  0  0  0  0
   -0.7046   -0.7348   -1.0311 C   0  0  0  0  0  0  0  0  0  0  0  0
   -5.3042   -0.0602    0.6167 C   0  0  0  0  0  0  0  0  0  0  0  0
    0.7272   -0.9210   -0.5406 C   0  0  0  0  0  0  0  0  0  0  0  0
   -1.6911   -1.6064   -0.2740 C   0  0  0  0  0  0  0  0  0  0  0  0
   -4.4984    1.0757    0.6963 C   0  0  0  0  0  0  0  0  0  0  0  0
   -6.6238    0.0502    0.1783 C   0  0  0  0  0  0  0  0  0  0  0  0
   -5.0123    2.3220    0.3375 C   0  0  0  0  0  0  0  0  0  0  0  0
   -7.1376    1.2964   -0.1805 C   0  0  0  0  0  0  0  0  0  0  0  0
   -6.3317    2.4322   -0.1008 C   0  0  0  0  0  0  0  0  0  0  0  0
    3.6696    0.7850   -0.3714 C   0  0  0  0  0  0  0  0  0  0  0  0
    5.0691    0.4756    0.0216 C   0  0  0  0  0  0  0  0  0  0  0  0
    6.0362    1.4746    0.0039 C   0  0  0  0  0  0  0  0  0  0  0  0
    5.4165   -0.8139    0.4089 C   0  0  0  0  0  0  0  0  0  0  0  0
    7.3260    1.1353    0.3794 C   0  0  0  0  0  0  0  0  0  0  0  0
    6.7342   -1.0508    0.7663 C   0  0  0  0  0  0  0  0  0  0  0  0
  1 12  2  0
  2 18  2  0
  3  8  1  0
  3 12  1  0
  4  5  1  0
  4 11  1  0
  5 18  1  0
  6 22  2  0
  6 23  1  0
  7  8  1  0
  7 10  1  0
  9 11  1  0
  9 12  1  0
 10 13  2  0
 10 14  1  0
 13 15  1  0
 14 16  2  0
 15 17  2  0
 16 17  1  0
 18 19  1  0
 19 20  2  0
 19 21  1  0
 20 22  1  0
 21 23  2  0
M  END
>  <PUBCHEM_COMPOUND_CID>  (1) 
27395

>  <PUBCHEM_CONFORMER_RMSD>  (1) 
1

>  <PUBCHEM_CONFORMER_DIVERSEORDER>  (1) 
1
39
91
3
190
30
10
162
147
135
180
84
161
29
189
87
118
150
179
165
174
22
156
81
75
16
191
2
139
197
52
172
178
193
185
26
199
19
182
64
192
40
17
200
60
6
195
50
73
152
129
12
71
177
196
33
125
121
176
100
106
18
36
114
117
149
112
171
83
124
99
143
68
110
46
41
90
76
74
120
70
4
47
128
21
42
82
116
94
145
169
183
148
113
96
48
184
101
107
157
104
80
27
55
54
127
132
11
109
186
45
53
105
28
198
141
72
123
32
137
69
77
92
146
130
15
173
25
85
119
78
187
122
188
38
23
59
97
63
93
160
67
144
79
8
194
201
65
24
151
44
31
56
35
111
62
131
154
13
136
155
133
49
126
166
61
168
175
5
57
140
66
43
138
102
170
88
37
163
89
9
134
98
108
20
14
7
167
95
34
103
142
159
86
153
115
164
158
58
181
51

>  <PUBCHEM_MMFF94_PARTIAL_CHARGES>  (1) 
35
1 -0.57
10 -0.14
11 0.27
12 0.57
13 -0.15
14 -0.15
15 -0.15
16 -0.15
17 -0.15
18 0.54
19 0.09
2 -0.57
20 -0.15
21 -0.15
22 0.16
23 0.16
3 -0.73
30 0.37
33 0.15
34 0.15
35 0.36
36 0.15
37 0.15
38 0.37
39 0.15
4 -0.64
40 0.15
41 0.15
42 0.15
43 0.15
5 -0.42
6 -0.62
7 0.14
8 0.3
9 0.06

>  <PUBCHEM_EFFECTIVE_ROTOR_COUNT>  (1) 
10

>  <PUBCHEM_PHARMACOPHORE_FEATURES>  (1) 
8
1 1 acceptor
1 2 acceptor
1 3 donor
1 4 donor
1 5 donor
1 6 acceptor
6 10 13 14 15 16 17 rings
6 6 19 20 21 22 23 rings

>  <PUBCHEM_HEAVY_ATOM_COUNT>  (1) 
23

>  <PUBCHEM_ATOM_DEF_STEREO_COUNT>  (1) 
0

>  <PUBCHEM_ATOM_UDEF_STEREO_COUNT>  (1) 
0

>  <PUBCHEM_BOND_DEF_STEREO_COUNT>  (1) 
0

>  <PUBCHEM_BOND_UDEF_STEREO_COUNT>  (1) 
0

>  <PUBCHEM_ISOTOPIC_ATOM_COUNT>  (1) 
0

>  <PUBCHEM_COMPONENT_COUNT>  (1) 
1

>  <PUBCHEM_CACTVS_TAUTO_COUNT>  (1) 
6

>  <PUBCHEM_CONFORMER_ID>  (1) 
00006B0300000001

>  <PUBCHEM_MMFF94_ENERGY>  (1) 
44.2976

>  <PUBCHEM_FEATURE_SELFOVERLAP>  (1) 
42.082

>  <PUBCHEM_SHAPE_FINGERPRINT>  (1) 
10 15 18410016545804704885
100830 39 18410573963872423609
10554248 39 14979688710605499548
10666366 153 18060148609606365878
10674148 151 18187082854856656706
11297750 10 16340024433517717127
12107183 9 18333168375346461004
12596602 18 17531534299174645033
13167372 99 18411138052323961588
13668630 136 11674866785392734066
13673619 4 12685092600661685583
14123256 10 9727632808791761828
14123256 34 12540693721585075598
14251752 14 18412825785155125384
14251764 18 18335982042882081438
14347424 109 18410568475800466282
14428016 545 18335699400070054330
14767858 380 12679460889224225526
15003188 100 12103840173212385978
15021287 119 16950285121923748053
15142383 8 18413668011784694432
15183329 4 18343586248140932120
15352257 5 11386362642918562328
15419008 145 18261947441360339448
15461852 350 17560797770977481655
15537594 2 13767921359941858000
20281389 69 18412827996915680233
21033648 29 17774141514505937570
21130935 74 18334573586163414914
21150785 3 12175619581389954398
21267235 1 9439395836150480357
21591340 7 18409162217492456231
21859007 373 18340209574743593084
22288116 15 12247675002185201141
23081809 10 18114466776682028358
23424782 7 8718818787216289398
23522609 53 17604734255744938132
2838139 119 18201715167909131213
312425 54 17749107811652054954
3663271 9 18261109716462845850
4073 2 18113624529537900090
54039377 194 10663808707887717453
6299153 45 18335138644259326658
7226269 152 18201722846978152457
8863177 126 12035741945476762261
9981440 41 18188221931639137883
999808 66 12901542442440883666

>  <PUBCHEM_SHAPE_MULTIPOLES>  (1) 
441.67
25.03
2.41
0.95
17.24
0.25
-0.04
10.32
5.79
-3.32
0.12
0.07
-0.18
-0.23

>  <PUBCHEM_SHAPE_SELFOVERLAP>  (1) 
917.052

>  <PUBCHEM_SHAPE_VOLUME>  (1) 
247.9

>  <PUBCHEM_COORDINATE_TYPE>  (1) 
2
5
10

$$$$
