27396
     RDKit          3D

 13 12  0  0  0  0  0  0  0  0999 V2000
   -2.0554    1.9592    0.0087 O   0  0  0  0  0  0  0  0  0  0  0  0
   -4.6361   -1.8438   -0.0103 O   0  0  0  0  0  0  0  0  0  0  0  0
   -3.4059    0.0807   -0.0006 N   0  0  0  0  0  0  0  0  0  0  0  0
   -3.4805   -1.4063   -0.0089 N   0  0  0  0  0  0  0  0  0  0  0  0
    1.6002   -0.3498    0.0216 C   0  0  0  0  0  0  0  0  0  0  0  0
    2.9419    0.3859   -0.0594 C   0  0  0  0  0  0  0  0  0  0  0  0
    0.3898    0.5899    0.0156 C   0  0  0  0  0  0  0  0  0  0  0  0
    4.1932   -0.4953    0.0044 C   0  0  0  0  0  0  0  0  0  0  0  0
    5.4991    0.2990   -0.0245 C   0  0  0  0  0  0  0  0  0  0  0  0
   -0.9379   -0.1731    0.0131 C   0  0  0  0  0  0  0  0  0  0  0  0
    6.7089   -0.6213    0.0336 C   0  0  0  0  0  0  0  0  0  0  0  0
   -2.1705    0.7313    0.0020 C   0  0  0  0  0  0  0  0  0  0  0  0
   -4.6468    0.8437    0.0047 C   0  0  0  0  0  0  0  0  0  0  0  0
  1 12  2  0
  2  4  2  0
  3  4  1  0
  3 12  1  0
  3 13  1  0
  5  6  1  0
  5  7  1  0
  6  8  1  0
  7 10  1  0
  8  9  1  0
  9 11  1  0
 10 12  1  0
M  END
>  <PUBCHEM_COMPOUND_CID>  (1) 
27396

>  <PUBCHEM_CONFORMER_RMSD>  (1) 
0.8

>  <PUBCHEM_CONFORMER_DIVERSEORDER>  (1) 
1
259
308
224
91
338
92
211
294
324
143
56
253
9
134
124
323
67
33
34
18
279
74
189
4
256
142
13
330
30
260
269
262
44
86
304
176
276
50
193
121
5
76
114
187
42
99
25
133
152
159
265
97
326
3
59
136
234
301
202
78
11
287
140
334
322
83
192
73
52
273
155
105
231
181
335
27
111
222
96
175
125
131
264
268
31
306
123
144
263
258
20
239
38
311
77
218
36
90
112
316
332
290
190
89
281
295
167
216
37
327
177
150
247
118
61
158
6
87
135
58
119
22
274
240
333
146
328
139
236
115
255
8
72
55
337
312
2
75
270
21
60
249
299
80
293
275
169
164
178
250
204
107
106
237
199
45
19
62
309
314
266
280
10
188
297
122
205
227
128
149
278
208
229
116
12
196
162
233
160
29
284
242
147
161
320
184
7
217
252
261
321
292
26
226
241
23
68
127
257
70
331
307
183
272
101
14
296
98
283
35
243
43
319
232
206
64
201
171
54
24
282
163
191
16
214
51
289
300
195
182
120
40
108
329
180
310
104
32
153
246
267
85
84
63
186
286
137
340
57
49
81
251
215
82
248
17
100
210
69
288
203
88
95
223
94
254
212
157
179
47
194
318
126
213
305
141
130
132
303
48
28
129
172
313
151
39
228
109
110
102
93
66
317
168
225
165
230
145
220
156
235
71
209
53
277
174
113
79
46
219
197
65
221
315
238
15
166
339
298
148
245
336
117
198
207
138
185
103
271
154
291
173
302
285
325
41
170
200
244

>  <PUBCHEM_MMFF94_PARTIAL_CHARGES>  (1) 
7
1 -0.57
10 0.06
12 0.57
13 0.3
2 -0.16
3 -0.18
4 -0.02

>  <PUBCHEM_EFFECTIVE_ROTOR_COUNT>  (1) 
8

>  <PUBCHEM_PHARMACOPHORE_FEATURES>  (1) 
4
1 1 acceptor
1 11 hydrophobe
3 5 7 10 hydrophobe
3 6 8 9 hydrophobe

>  <PUBCHEM_HEAVY_ATOM_COUNT>  (1) 
13

>  <PUBCHEM_ATOM_DEF_STEREO_COUNT>  (1) 
0

>  <PUBCHEM_ATOM_UDEF_STEREO_COUNT>  (1) 
0

>  <PUBCHEM_BOND_DEF_STEREO_COUNT>  (1) 
0

>  <PUBCHEM_BOND_UDEF_STEREO_COUNT>  (1) 
0

>  <PUBCHEM_ISOTOPIC_ATOM_COUNT>  (1) 
0

>  <PUBCHEM_COMPONENT_COUNT>  (1) 
1

>  <PUBCHEM_CACTVS_TAUTO_COUNT>  (1) 
1

>  <PUBCHEM_CONFORMER_ID>  (1) 
00006B0400000001

>  <PUBCHEM_MMFF94_ENERGY>  (1) 
10.6222

>  <PUBCHEM_FEATURE_SELFOVERLAP>  (1) 
20.31

>  <PUBCHEM_SHAPE_FINGERPRINT>  (1) 
10912923 1 18113336384777217120
11287383 113 18272088318870687008
12091667 2 17385726876656550572
12757275 245 18409167748872484011
13167823 11 18408881811619944650
13288520 33 18411138056597855887
14123238 8 18059856160471163948
1420 363 18060423517092737998
14251718 22 18408886252700076466
14251732 16 18340485677380932008
17834072 33 18260832622526694404
17834076 25 14418136201222052876
20645477 70 17560244596971350526
20828058 44 18341895194688131951
21426921 1 18408602526865642877
220451 1 18113902628764800058
22485316 2 18335419041204422954
22896161 15 18338799026522655566
23402539 116 18334290972312650860
23557571 272 18130510721484677124
23559900 14 18411410743718363120
4214541 1 18410856538518666788
42788 4 18410575080937921252
57483677 66 18335700521061884290
59345606 84 18411418414381831648
7062679 117 18334297591073804458

>  <PUBCHEM_SHAPE_MULTIPOLES>  (1) 
245.83
14.54
1.36
0.59
14.77
0.15
0
3.11
-0.02
-2.04
0
0.1
-0.01
-0.04

>  <PUBCHEM_SHAPE_SELFOVERLAP>  (1) 
446.541

>  <PUBCHEM_SHAPE_VOLUME>  (1) 
157.4

>  <PUBCHEM_COORDINATE_TYPE>  (1) 
2
5
10

$$$$
