27397
     RDKit          3D

 12 11  0  0  0  0  0  0  0  0999 V2000
   -1.5023    0.0192   -0.2871 O   0  0  0  0  0  0  0  0  0  0  0  0
    0.7251   -1.8390   -0.9695 O   0  0  0  0  0  0  0  0  0  0  0  0
   -3.3657    1.1033    0.5433 O   0  0  0  0  0  0  0  0  0  0  0  0
    1.3382    0.2442   -0.1406 N   0  0  0  0  0  0  0  0  0  0  0  0
    0.5310    1.0300   -1.0704 C   0  0  0  0  0  0  0  0  0  0  0  0
    2.1123    1.0186    0.8212 C   0  0  0  0  0  0  0  0  0  0  0  0
   -0.8511    1.2677   -0.4862 C   0  0  0  0  0  0  0  0  0  0  0  0
    1.3661   -1.1505   -0.1710 C   0  0  0  0  0  0  0  0  0  0  0  0
    3.4880    1.3547    0.2840 C   0  0  0  0  0  0  0  0  0  0  0  0
    2.2441   -1.8320    0.8485 C   0  0  0  0  0  0  0  0  0  0  0  0
   -2.7634    0.0830    0.2375 C   0  0  0  0  0  0  0  0  0  0  0  0
   -3.3222   -1.2992    0.3902 C   0  0  0  0  0  0  0  0  0  0  0  0
  1  7  1  0
  1 11  1  0
  2  8  2  0
  3 11  2  0
  4  5  1  0
  4  6  1  0
  4  8  1  0
  5  7  1  0
  6  9  1  0
  8 10  1  0
 11 12  1  0
M  END
>  <PUBCHEM_COMPOUND_CID>  (1) 
27397

>  <PUBCHEM_CONFORMER_RMSD>  (1) 
0.6

>  <PUBCHEM_CONFORMER_DIVERSEORDER>  (1) 
1
34
53
144
112
147
148
173
87
88
179
15
31
8
84
37
49
132
181
183
70
153
141
68
61
110
58
28
118
175
39
142
23
83
163
48
69
91
167
95
99
4
162
170
56
2
157
75
172
42
151
90
35
77
143
158
40
145
52
6
176
124
80
165
46
65
122
133
50
134
51
11
174
187
164
126
26
44
3
155
106
177
102
186
7
86
107
103
29
33
45
32
159
20
82
16
64
85
27
121
24
101
125
19
135
169
136
67
182
79
146
18
5
123
38
105
96
166
108
30
149
154
94
25
62
116
21
17
71
150
36
113
12
13
168
10
57
131
14
161
100
184
171
54
60
55
74
22
92
78
63
97
138
128
152
104
114
59
117
43
180
89
73
160
76
127
140
81
119
130
137
72
185
66
120
109
115
129
93
47
111
178
9
139
156
98
41

>  <PUBCHEM_MMFF94_PARTIAL_CHARGES>  (1) 
11
1 -0.43
10 0.06
11 0.66
12 0.06
2 -0.57
3 -0.57
4 -0.66
5 0.3
6 0.3
7 0.28
8 0.57

>  <PUBCHEM_EFFECTIVE_ROTOR_COUNT>  (1) 
6

>  <PUBCHEM_PHARMACOPHORE_FEATURES>  (1) 
2
1 2 acceptor
1 3 acceptor

>  <PUBCHEM_HEAVY_ATOM_COUNT>  (1) 
12

>  <PUBCHEM_ATOM_DEF_STEREO_COUNT>  (1) 
0

>  <PUBCHEM_ATOM_UDEF_STEREO_COUNT>  (1) 
0

>  <PUBCHEM_BOND_DEF_STEREO_COUNT>  (1) 
0

>  <PUBCHEM_BOND_UDEF_STEREO_COUNT>  (1) 
0

>  <PUBCHEM_ISOTOPIC_ATOM_COUNT>  (1) 
0

>  <PUBCHEM_COMPONENT_COUNT>  (1) 
1

>  <PUBCHEM_CACTVS_TAUTO_COUNT>  (1) 
1

>  <PUBCHEM_CONFORMER_ID>  (1) 
00006B0500000001

>  <PUBCHEM_MMFF94_ENERGY>  (1) 
15.1629

>  <PUBCHEM_FEATURE_SELFOVERLAP>  (1) 
10.149

>  <PUBCHEM_SHAPE_FINGERPRINT>  (1) 
10219947 1 18114177587949230836
10922049 32 18270969063157061884
12346645 44 18272087240333054120
12382932 28 18409731763903688513
12932764 1 18261681363561231701
14252887 29 17967824846619087793
15219456 202 18189042119140169212
15775835 57 18201720694914544251
201361 129 18131360678279588344
20201158 50 18040997392639356163
20645477 70 18339634547769630287
20711985 327 17022620909435711509
20711985 344 16444744931227761925
21061003 4 17840291234519670890
21730867 7 18411700980417541536
528862 383 18411409601504559674
549884 4 9439407921444944883
58554843 112 18335139782578757530

>  <PUBCHEM_SHAPE_MULTIPOLES>  (1) 
224.37
5.6
1.98
0.95
2.83
0.74
-0.07
-0.49
1.79
-0.8
0
-0.21
0.02
0.06

>  <PUBCHEM_SHAPE_SELFOVERLAP>  (1) 
420.546

>  <PUBCHEM_SHAPE_VOLUME>  (1) 
140.2

>  <PUBCHEM_COORDINATE_TYPE>  (1) 
2
5
10

$$$$
