27391
     RDKit          3D

 19 19  0  0  0  0  0  0  0  0999 V2000
   -3.1298    1.9465   -0.0206 O   0  0  0  0  0  0  0  0  0  0  0  0
   -1.6551   -2.6068   -0.1919 O   0  0  0  0  0  0  0  0  0  0  0  0
   -3.7162   -0.7592   -0.0991 O   0  0  0  0  0  0  0  0  0  0  0  0
    1.9031    2.0399    0.4097 O   0  0  0  0  0  0  0  0  0  0  0  0
    3.8597    0.4724   -0.7551 N   0  0  0  0  0  0  0  0  0  0  0  0
    2.5216    0.1158   -0.7306 N   0  0  0  0  0  0  0  0  0  0  0  0
    4.6633   -0.5582   -0.0994 C   0  0  0  0  0  0  0  0  0  0  0  0
    0.2045    0.5113   -0.1169 C   0  0  0  0  0  0  0  0  0  0  0  0
    6.1432   -0.2193   -0.2481 C   0  0  0  0  0  0  0  0  0  0  0  0
    4.2733   -0.6774    1.3711 C   0  0  0  0  0  0  0  0  0  0  0  0
   -0.0568   -0.8424   -0.1573 C   0  0  0  0  0  0  0  0  0  0  0  0
   -0.8007    1.4545   -0.0711 C   0  0  0  0  0  0  0  0  0  0  0  0
   -2.1276    1.0246   -0.0658 C   0  0  0  0  0  0  0  0  0  0  0  0
   -1.3837   -1.2723   -0.1519 C   0  0  0  0  0  0  0  0  0  0  0  0
   -2.4192   -0.3388   -0.1063 C   0  0  0  0  0  0  0  0  0  0  0  0
    1.6182    0.9698   -0.1224 C   0  0  0  0  0  0  0  0  0  0  0  0
   -4.5445   -0.3201   -1.1732 C   0  0  0  0  0  0  0  0  0  0  0  0
   -3.5876    2.3432    1.2705 C   0  0  0  0  0  0  0  0  0  0  0  0
   -1.7658   -3.2834    1.0586 C   0  0  0  0  0  0  0  0  0  0  0  0
  1 13  1  0
  1 18  1  0
  2 14  1  0
  2 19  1  0
  3 15  1  0
  3 17  1  0
  4 16  2  0
  5  6  1  0
  5  7  1  0
  6 16  1  0
  7  9  1  0
  7 10  1  0
  8 11  2  0
  8 12  1  0
  8 16  1  0
 11 14  1  0
 12 13  2  0
 13 15  1  0
 14 15  2  0
M  END
>  <PUBCHEM_COMPOUND_CID>  (1) 
27391

>  <PUBCHEM_CONFORMER_RMSD>  (1) 
0.8

>  <PUBCHEM_CONFORMER_DIVERSEORDER>  (1) 
2
10
12
14
15
17
11
6
5
16
3
9
4
1
8
7
13

>  <PUBCHEM_MMFF94_PARTIAL_CHARGES>  (1) 
21
1 -0.36
11 -0.15
12 -0.15
13 0.08
14 0.08
15 0.08
16 0.54
17 0.28
18 0.28
19 0.28
2 -0.36
21 0.36
28 0.15
29 0.15
3 -0.36
30 0.37
4 -0.57
5 -0.64
6 -0.42
7 0.27
8 0.09

>  <PUBCHEM_EFFECTIVE_ROTOR_COUNT>  (1) 
7

>  <PUBCHEM_PHARMACOPHORE_FEATURES>  (1) 
8
1 1 acceptor
1 2 acceptor
1 3 acceptor
1 4 acceptor
1 5 donor
1 6 donor
3 7 9 10 hydrophobe
6 8 11 12 13 14 15 rings

>  <PUBCHEM_HEAVY_ATOM_COUNT>  (1) 
19

>  <PUBCHEM_ATOM_DEF_STEREO_COUNT>  (1) 
0

>  <PUBCHEM_ATOM_UDEF_STEREO_COUNT>  (1) 
0

>  <PUBCHEM_BOND_DEF_STEREO_COUNT>  (1) 
0

>  <PUBCHEM_BOND_UDEF_STEREO_COUNT>  (1) 
0

>  <PUBCHEM_ISOTOPIC_ATOM_COUNT>  (1) 
0

>  <PUBCHEM_COMPONENT_COUNT>  (1) 
1

>  <PUBCHEM_CACTVS_TAUTO_COUNT>  (1) 
2

>  <PUBCHEM_CONFORMER_ID>  (1) 
00006AFF00000002

>  <PUBCHEM_MMFF94_ENERGY>  (1) 
71.1681

>  <PUBCHEM_FEATURE_SELFOVERLAP>  (1) 
42.095

>  <PUBCHEM_SHAPE_FINGERPRINT>  (1) 
10616163 171 18336267924859838458
11315181 36 18334859437684678996
12236239 1 17966968318755763526
12555020 224 18335411383299307823
13140716 1 18196098969640772435
13288520 33 18342176661328232780
13583140 156 16660650652042893373
13862211 1 18340485681655190143
14115302 16 18187087290645211318
15042514 8 18266181811005107259
15196674 1 18341051801051583942
15375358 24 17917994945462412956
16752209 62 18337093610525144707
16945 1 18339367482423787757
17804303 29 18412263947735597700
19489759 90 18131066017821532076
200 152 17418089931714772445
20681677 155 18409452458238753920
21267235 1 18410581703308149302
21524375 3 18340487764508139093
23402539 116 18272081708694505253
23557571 272 18059863848409902428
23558518 356 18191033497743376424
23559900 14 18339073925656951488
2748010 2 17764586921379274621
335352 9 18410854387040420589
350125 39 18410573951467335849
4214541 1 18411139134671771884
5104073 3 18412263956694863192
53777708 50 18117011076906686932
54173680 148 18192716858994086587
559249 180 18337387137454719278
573450 72 18409442570912762984
58051976 100 18187363276812089990
58807428 26 18265340499598587547
81228 2 18193552492310676217
8809292 202 18336548338356764535
9709674 26 18196647621289076660

>  <PUBCHEM_SHAPE_MULTIPOLES>  (1) 
357.57
10.23
2.61
1
13.36
1.34
-0.2
-0.25
0.51
-3
-1
-0.17
0.05
-0.66

>  <PUBCHEM_SHAPE_SELFOVERLAP>  (1) 
727.836

>  <PUBCHEM_SHAPE_VOLUME>  (1) 
210

>  <PUBCHEM_COORDINATE_TYPE>  (1) 
2
5
10

$$$$
