27409
     RDKit          3D

 20 21  0  0  1  0  0  0  0  0999 V2000
    0.4022   -0.3183    0.9223 O   0  0  0  0  0  0  0  0  0  0  0  0
    1.8297   -2.1126    0.6405 O   0  0  0  0  0  0  0  0  0  0  0  0
   -2.6281   -1.5229   -2.0174 O   0  0  0  0  0  0  0  0  0  0  0  0
    3.6454    0.1910   -0.4028 C   0  0  0  0  0  0  0  0  0  0  0  0
    2.6111    1.2620   -0.2161 C   0  0  0  0  0  0  0  0  0  0  0  0
    2.7006    0.1296    0.7457 C   0  0  0  0  0  0  0  0  0  0  0  0
    5.0807    0.5262   -0.1640 C   0  0  0  0  0  0  0  0  0  0  0  0
    3.4514   -0.8212   -1.4828 C   0  0  0  0  0  0  0  0  0  0  0  0
    3.0392    2.6019    0.2822 C   0  0  0  0  0  0  0  0  0  0  0  0
    1.4665    1.3319   -1.1724 C   0  0  0  0  0  0  0  0  0  0  0  0
    1.6235   -0.9124    0.7595 C   0  0  0  0  0  0  0  0  0  0  0  0
   -0.7145   -1.1963    0.9529 C   0  0  0  0  0  0  0  0  0  0  0  0
   -0.8837   -1.8914   -0.3928 C   0  0  0  0  0  0  0  0  0  0  0  0
   -1.9731   -0.3923    1.1366 C   0  0  0  0  0  0  0  0  0  0  0  0
   -2.8093   -0.4266    0.0899 C   0  0  0  0  0  0  0  0  0  0  0  0
   -2.1607   -1.2977   -0.9104 C   0  0  0  0  0  0  0  0  0  0  0  0
   -2.1688    0.3474    2.4192 C   0  0  0  0  0  0  0  0  0  0  0  0
   -4.1194    0.2179   -0.1598 C   0  0  0  0  0  0  0  0  0  0  0  0
   -3.9821    1.5729   -0.7940 C   0  0  0  0  0  0  0  0  0  0  0  0
   -4.4105    2.7111   -0.2362 C   0  0  0  0  0  0  0  0  0  0  0  0
  1 11  1  0
  1 12  1  0
  2 11  2  0
  3 16  2  0
  4  5  1  0
  4  6  1  0
  4  7  1  0
  4  8  1  0
  5  6  1  0
  5  9  1  0
  5 10  1  0
  6 11  1  0
 12 13  1  0
 12 14  1  0
 13 16  1  0
 14 15  2  0
 14 17  1  0
 15 16  1  0
 15 18  1  0
 18 19  1  0
 19 20  2  0
M  END
>  <PUBCHEM_COMPOUND_CID>  (1) 
27409

>  <PUBCHEM_CONFORMER_RMSD>  (1) 
0.8

>  <PUBCHEM_CONFORMER_DIVERSEORDER>  (1) 
7
62
66
53
49
60
56
17
42
58
31
43
12
39
46
36
51
68
4
63
21
44
55
19
35
3
40
52
41
50
23
64
67
47
9
6
59
32
11
37
13
15
61
18
30
33
57
45
69
22
5
34
2
29
25
8
14
38
65
1
27
54
20
48
10
24
16
28
26

>  <PUBCHEM_MMFF94_PARTIAL_CHARGES>  (1) 
24
1 -0.43
10 0.09
11 0.72
12 0.42
13 0.06
14 -0.28
15 -0.12
16 0.49
17 0.14
18 0.28
19 -0.29
2 -0.57
20 -0.3
21 0.1
3 -0.57
4 -0.19
42 0.15
43 0.15
44 0.15
5 -0.19
6 -0.1
7 0.09
8 0.09
9 0.09

>  <PUBCHEM_EFFECTIVE_ROTOR_COUNT>  (1) 
6

>  <PUBCHEM_PHARMACOPHORE_FEATURES>  (1) 
6
1 2 acceptor
1 20 hydrophobe
1 3 acceptor
3 4 7 8 hydrophobe
3 5 9 10 hydrophobe
5 12 13 14 15 16 rings

>  <PUBCHEM_HEAVY_ATOM_COUNT>  (1) 
20

>  <PUBCHEM_ATOM_DEF_STEREO_COUNT>  (1) 
0

>  <PUBCHEM_ATOM_UDEF_STEREO_COUNT>  (1) 
1

>  <PUBCHEM_BOND_DEF_STEREO_COUNT>  (1) 
0

>  <PUBCHEM_BOND_UDEF_STEREO_COUNT>  (1) 
0

>  <PUBCHEM_ISOTOPIC_ATOM_COUNT>  (1) 
0

>  <PUBCHEM_COMPONENT_COUNT>  (1) 
1

>  <PUBCHEM_CACTVS_TAUTO_COUNT>  (1) 
5

>  <PUBCHEM_CONFORMER_ID>  (1) 
00006B1100000007

>  <PUBCHEM_MMFF94_ENERGY>  (1) 
38.5043

>  <PUBCHEM_FEATURE_SELFOVERLAP>  (1) 
30.469

>  <PUBCHEM_SHAPE_FINGERPRINT>  (1) 
10366900 7 15574992948065125250
10498660 4 18412544292961907785
10646746 165 18335418002012488260
11370993 70 17489872643788302734
11552529 35 16226910993070808089
11615756 256 17531537571459832605
11640471 11 18343021090484708243
12173636 292 18261953054766452939
12251169 10 13262393388496575834
12506688 2 10159396748622133509
12596602 18 13840567141651979837
12633257 1 15864074294904195453
15163728 17 17985555442659678349
15238133 3 17458632164105435044
15295992 7 17894631461037645432
1601671 61 18113621145092750764
16752209 62 16916785111728655387
19862831 5 18059857285172411858
19868273 293 18201711851967473195
19930381 70 17324647073315088061
200 152 12607406593805563735
20645476 183 18343014506495580999
21475661 188 17242725391160673797
21864079 5 18334289902924121609
231179 274 18335708221516090426
23227448 37 18338796818682631829
23402539 116 18411134771280144868
23402655 69 18412263922023718804
23503958 8 7925645417937667821
23557571 272 17488159660295864179
23559900 14 16916778617864646066
25 1 18040149621914097250
26918003 58 9295289417701705435
2838139 119 18189602857739633181
392239 28 11531067212334640380
4028521 119 18342740710614031145
474 4 17676205758550836725
5161694 15 17988931084483755422
59027123 10 18343017843384041452
633830 44 18113622309065609926
76465 3 13398344625289230902
7832392 63 18408599262347333765

>  <PUBCHEM_SHAPE_MULTIPOLES>  (1) 
393.98
9.03
2.37
1.57
0.73
1.06
0.24
4.68
-1.83
-0.91
-0.34
-0.81
-0.33
0.02

>  <PUBCHEM_SHAPE_SELFOVERLAP>  (1) 
820.236

>  <PUBCHEM_SHAPE_VOLUME>  (1) 
229

>  <PUBCHEM_COORDINATE_TYPE>  (1) 
2
5
10

$$$$
