27404
     RDKit          3D

 26 28  0  0  1  0  0  0  0  0999 V2000
    5.9682    1.7284   -0.1595 Cl  0  0  0  0  0  0  0  0  0  0  0  0
   -1.3833    0.3710   -1.9204 S   0  0  0  0  0  0  0  0  0  0  0  0
    1.2581   -2.8314    1.0462 O   0  0  0  0  0  0  0  0  0  0  0  0
   -2.0749    3.2473    0.9016 N   0  0  0  0  0  0  0  0  0  0  0  0
   -0.0018   -1.3228   -0.2491 N   0  0  0  0  0  0  0  0  0  0  0  0
    1.0676    0.6348   -1.1057 N   0  0  0  0  0  0  0  0  0  0  0  0
   -1.8955    1.8959    0.3149 C   0  0  0  0  0  0  0  0  0  0  0  0
   -1.6333    1.9984   -1.1867 C   0  0  0  0  0  0  0  0  0  0  0  0
   -2.2577    3.1611    2.4231 C   0  0  0  0  0  0  0  0  0  0  0  0
   -0.8528    4.1313    0.6170 C   0  0  0  0  0  0  0  0  0  0  0  0
   -3.3116    3.9383    0.3109 C   0  0  0  0  0  0  0  0  0  0  0  0
   -2.8018    2.6818   -1.8912 C   0  0  0  0  0  0  0  0  0  0  0  0
    0.0262   -0.1267   -0.9876 C   0  0  0  0  0  0  0  0  0  0  0  0
    1.1676   -1.8072    0.3730 C   0  0  0  0  0  0  0  0  0  0  0  0
    2.3648   -0.9506    0.2315 C   0  0  0  0  0  0  0  0  0  0  0  0
    2.2570    0.2450   -0.4806 C   0  0  0  0  0  0  0  0  0  0  0  0
   -1.2018   -2.0877   -0.0511 C   0  0  0  0  0  0  0  0  0  0  0  0
    3.5782   -1.3219    0.8233 C   0  0  0  0  0  0  0  0  0  0  0  0
    3.3825    1.0696   -0.5949 C   0  0  0  0  0  0  0  0  0  0  0  0
   -2.0274   -1.8002    1.0276 C   0  0  0  0  0  0  0  0  0  0  0  0
   -1.5191   -3.1054   -0.9408 C   0  0  0  0  0  0  0  0  0  0  0  0
    4.6914   -0.4916    0.7009 C   0  0  0  0  0  0  0  0  0  0  0  0
    4.5939    0.7041   -0.0066 C   0  0  0  0  0  0  0  0  0  0  0  0
   -3.1916   -2.5439    1.2202 C   0  0  0  0  0  0  0  0  0  0  0  0
   -2.6834   -3.8491   -0.7482 C   0  0  0  0  0  0  0  0  0  0  0  0
   -3.5196   -3.5683    0.3321 C   0  0  0  0  0  0  0  0  0  0  0  0
  1 23  1  0
  2  8  1  0
  2 13  1  0
  3 14  2  0
  4  7  1  0
  4  9  1  0
  4 10  1  0
  4 11  1  0
  5 13  1  0
  5 14  1  0
  5 17  1  0
  6 13  2  0
  6 16  1  0
  7  8  1  0
  8 12  1  0
 14 15  1  0
 15 16  2  0
 15 18  1  0
 16 19  1  0
 17 20  2  0
 17 21  1  0
 18 22  2  0
 19 23  2  0
 20 24  1  0
 21 25  2  0
 22 23  1  0
 24 26  2  0
 25 26  1  0
M  CHG  1   4   1
M  END
>  <PUBCHEM_COMPOUND_CID>  (1) 
27404

>  <PUBCHEM_CONFORMER_RMSD>  (1) 
0.8

>  <PUBCHEM_CONFORMER_DIVERSEORDER>  (1) 
4
15
7
8
11
5
1
12
9
2
3
10
14
6
13

>  <PUBCHEM_MMFF94_PARTIAL_CHARGES>  (1) 
33
1 -0.18
10 0.5
11 0.5
13 0.65
14 0.54
15 0.09
16 0.18
17 0.12
18 -0.15
19 -0.15
2 -0.37
20 -0.15
21 -0.15
22 -0.15
23 0.18
24 -0.15
25 -0.15
26 -0.15
3 -0.57
4 -1.01
42 0.15
43 0.15
44 0.15
45 0.15
46 0.15
47 0.15
48 0.15
49 0.15
5 -0.24
6 -0.63
7 0.5
8 0.23
9 0.5

>  <PUBCHEM_EFFECTIVE_ROTOR_COUNT>  (1) 
5

>  <PUBCHEM_PHARMACOPHORE_FEATURES>  (1) 
6
1 12 hydrophobe
1 3 acceptor
1 4 cation
6 15 16 18 19 22 23 rings
6 17 20 21 24 25 26 rings
6 5 6 13 14 15 16 rings

>  <PUBCHEM_HEAVY_ATOM_COUNT>  (1) 
26

>  <PUBCHEM_ATOM_DEF_STEREO_COUNT>  (1) 
0

>  <PUBCHEM_ATOM_UDEF_STEREO_COUNT>  (1) 
1

>  <PUBCHEM_BOND_DEF_STEREO_COUNT>  (1) 
0

>  <PUBCHEM_BOND_UDEF_STEREO_COUNT>  (1) 
0

>  <PUBCHEM_ISOTOPIC_ATOM_COUNT>  (1) 
0

>  <PUBCHEM_COMPONENT_COUNT>  (1) 
1

>  <PUBCHEM_CACTVS_TAUTO_COUNT>  (1) 
1

>  <PUBCHEM_CONFORMER_ID>  (1) 
00006B0C00000004

>  <PUBCHEM_MMFF94_ENERGY>  (1) 
126.1311

>  <PUBCHEM_FEATURE_SELFOVERLAP>  (1) 
30.475

>  <PUBCHEM_SHAPE_FINGERPRINT>  (1) 
10006869 2 18409726227907433755
1100329 8 18339083812734963933
11045515 52 18119240920668304103
11370993 70 17976544914341046609
11421498 54 17696434466515986613
11552529 35 18410008845181557282
11578080 2 17913747673614860763
11640471 11 17053282745602856709
12160290 23 18261974971810212319
12390115 104 18335148600869348428
12788726 201 18120110608706438612
13004483 165 18337388365593923907
13134695 92 17905889541336680055
13140716 1 18264492969443958519
13540713 5 18186235122659339906
13965767 371 17766605362587674323
14787075 74 18268410392272634965
14955137 171 17833861608137604875
15131766 46 15623677210504881480
17138139 8 17836881778116633301
17980427 23 17414451785826800647
19319366 153 17554044343043095873
20510252 161 18262511628158411430
20600515 1 17627253464619702423
21049683 271 17539692821028028454
21641784 216 17896610668405058900
21731228 192 18048600317808126333
21756936 100 18200592489201471068
22182937 141 18410008793583907932
23419403 2 17557973220052943753
23845131 108 18194122911228374313
283562 15 18261669397872490034
345986 75 18116697698659700754
350125 39 18188771781483064692
392239 28 18266743669825637904
4409770 3 18410004455809357559
469060 322 17750238156850158836
474 4 17836357151544807589
5104073 3 18115570618554320952
5171179 24 17838881982872475045
59755656 520 18267587897039308308
9981440 41 17701795744857306022

>  <PUBCHEM_SHAPE_MULTIPOLES>  (1) 
519.97
8.31
5.95
1.61
13.67
2.82
0.03
0.05
0.93
-8.88
1.48
-1.34
0.98
-0.71

>  <PUBCHEM_SHAPE_SELFOVERLAP>  (1) 
1086.799

>  <PUBCHEM_SHAPE_VOLUME>  (1) 
300

>  <PUBCHEM_COORDINATE_TYPE>  (1) 
2
5
10

$$$$
