27408
     RDKit          3D

 25 27  0  0  0  0  0  0  0  0999 V2000
    6.0547    1.0406   -0.1118 Cl  0  0  0  0  0  0  0  0  0  0  0  0
   -1.3596    0.5629   -2.0580 S   0  0  0  0  0  0  0  0  0  0  0  0
    0.7559   -2.8055    1.1376 O   0  0  0  0  0  0  0  0  0  0  0  0
   -1.7660    3.6708    0.5719 N   0  0  0  0  0  0  0  0  0  0  0  0
   -0.2590   -1.2117   -0.2663 N   0  0  0  0  0  0  0  0  0  0  0  0
    1.0812    0.5464   -1.1734 N   0  0  0  0  0  0  0  0  0  0  0  0
   -1.7200    2.2718    0.0813 C   0  0  0  0  0  0  0  0  0  0  0  0
   -0.3975    4.3491    0.4170 C   0  0  0  0  0  0  0  0  0  0  0  0
   -2.7965    4.4917   -0.2162 C   0  0  0  0  0  0  0  0  0  0  0  0
   -2.1550    3.7165    2.0563 C   0  0  0  0  0  0  0  0  0  0  0  0
   -1.4144    2.2430   -1.4073 C   0  0  0  0  0  0  0  0  0  0  0  0
   -0.0539   -0.0669   -1.0565 C   0  0  0  0  0  0  0  0  0  0  0  0
    2.1218   -1.1263    0.2770 C   0  0  0  0  0  0  0  0  0  0  0  0
    0.8191   -1.8125    0.4162 C   0  0  0  0  0  0  0  0  0  0  0  0
    2.1914    0.0368   -0.4915 C   0  0  0  0  0  0  0  0  0  0  0  0
   -1.5540   -1.8039   -0.0749 C   0  0  0  0  0  0  0  0  0  0  0  0
    3.2591   -1.6223    0.9257 C   0  0  0  0  0  0  0  0  0  0  0  0
    3.4180    0.7019   -0.6045 C   0  0  0  0  0  0  0  0  0  0  0  0
   -2.3638   -1.3588    0.9614 C   0  0  0  0  0  0  0  0  0  0  0  0
   -1.9779   -2.8138   -0.9285 C   0  0  0  0  0  0  0  0  0  0  0  0
    4.4745   -0.9503    0.8039 C   0  0  0  0  0  0  0  0  0  0  0  0
    4.5543    0.2118    0.0404 C   0  0  0  0  0  0  0  0  0  0  0  0
   -3.6208   -1.9340    1.1473 C   0  0  0  0  0  0  0  0  0  0  0  0
   -3.2352   -3.3887   -0.7425 C   0  0  0  0  0  0  0  0  0  0  0  0
   -4.0566   -2.9489    0.2954 C   0  0  0  0  0  0  0  0  0  0  0  0
  1 22  1  0
  2 11  1  0
  2 12  1  0
  3 14  2  0
  4  7  1  0
  4  8  1  0
  4  9  1  0
  4 10  1  0
  5 12  1  0
  5 14  1  0
  5 16  1  0
  6 12  2  0
  6 15  1  0
  7 11  1  0
 13 14  1  0
 13 15  2  0
 13 17  1  0
 15 18  1  0
 16 19  2  0
 16 20  1  0
 17 21  2  0
 18 22  2  0
 19 23  1  0
 20 24  2  0
 21 22  1  0
 23 25  2  0
 24 25  1  0
M  CHG  1   4   1
M  END
>  <PUBCHEM_COMPOUND_CID>  (1) 
27408

>  <PUBCHEM_CONFORMER_RMSD>  (1) 
0.8

>  <PUBCHEM_CONFORMER_DIVERSEORDER>  (1) 
1
4
7
3
9
8
6
2
5

>  <PUBCHEM_MMFF94_PARTIAL_CHARGES>  (1) 
33
1 -0.18
10 0.5
11 0.23
12 0.65
13 0.09
14 0.54
15 0.18
16 0.12
17 -0.15
18 -0.15
19 -0.15
2 -0.37
20 -0.15
21 -0.15
22 0.18
23 -0.15
24 -0.15
25 -0.15
3 -0.57
39 0.15
4 -1.01
40 0.15
41 0.15
42 0.15
43 0.15
44 0.15
45 0.15
46 0.15
5 -0.24
6 -0.63
7 0.5
8 0.5
9 0.5

>  <PUBCHEM_EFFECTIVE_ROTOR_COUNT>  (1) 
5

>  <PUBCHEM_PHARMACOPHORE_FEATURES>  (1) 
5
1 3 acceptor
1 4 cation
6 13 15 17 18 21 22 rings
6 16 19 20 23 24 25 rings
6 5 6 12 13 14 15 rings

>  <PUBCHEM_HEAVY_ATOM_COUNT>  (1) 
25

>  <PUBCHEM_ATOM_DEF_STEREO_COUNT>  (1) 
0

>  <PUBCHEM_ATOM_UDEF_STEREO_COUNT>  (1) 
0

>  <PUBCHEM_BOND_DEF_STEREO_COUNT>  (1) 
0

>  <PUBCHEM_BOND_UDEF_STEREO_COUNT>  (1) 
0

>  <PUBCHEM_ISOTOPIC_ATOM_COUNT>  (1) 
0

>  <PUBCHEM_COMPONENT_COUNT>  (1) 
1

>  <PUBCHEM_CACTVS_TAUTO_COUNT>  (1) 
1

>  <PUBCHEM_CONFORMER_ID>  (1) 
00006B1000000001

>  <PUBCHEM_MMFF94_ENERGY>  (1) 
101.4648

>  <PUBCHEM_FEATURE_SELFOVERLAP>  (1) 
25.401

>  <PUBCHEM_SHAPE_FINGERPRINT>  (1) 
10006869 2 18337104550102526211
1100329 8 18410577322911350141
11370993 70 17759806944580185833
11552529 35 18409162182520768538
11578080 2 17983265383092307747
11640471 11 16836538195899279717
12160290 23 18189070715201023615
12236239 1 18268715098401116031
12390115 104 18335431140982000772
12788726 201 18263945382636197132
13004483 165 18409727396032789755
13134695 92 18049440641340130543
13140716 1 18335984272028058645
13540713 5 18113897114475366642
13965767 371 17695391055392464819
14178342 30 18263632997085883426
14787075 74 18196916804745074637
14955137 171 18049467003707461923
15131766 46 15910784985538049376
15775530 1 17843982346229979782
17138139 8 17764261195486766405
17980427 23 17558845116053115895
17980427 26 17188969558855490639
20510252 161 18261103119371882478
20600515 1 17700435824840682967
21731228 192 17905046945846136501
21756936 100 18199180681937951204
22182937 141 18338232640163056172
23419403 2 17903613513659658869
23558518 356 18261401001118577486
23559900 14 17690553509152439211
23845131 108 18049724014676944585
283562 15 18261106409195778306
345986 75 18115571764245335738
392239 28 18337955705067361920
469060 322 17603871130353346020
474 4 17619900661060847661
5104073 3 18187910748420632930
5171179 24 17981307195827864501
532947 4 17402328668827839412
6004065 56 17977938317585579583
84936 182 17331974227386844415

>  <PUBCHEM_SHAPE_MULTIPOLES>  (1) 
499.4
8.38
5.85
1.47
11.91
7.2
-0.1
-3.15
1.24
-8.17
1.57
-0.84
0.53
-0.96

>  <PUBCHEM_SHAPE_SELFOVERLAP>  (1) 
1042.729

>  <PUBCHEM_SHAPE_VOLUME>  (1) 
289

>  <PUBCHEM_COORDINATE_TYPE>  (1) 
2
5
10

$$$$
