27418
     RDKit          3D

 22 24  0  0  0  0  0  0  0  0999 V2000
    1.3031   -0.0904    0.0808 O   0  0  0  0  0  0  0  0  0  0  0  0
    4.1265   -0.3979    0.0880 N   0  0  0  0  0  0  0  0  0  0  0  0
    0.0471   -0.0458    0.7495 C   0  0  0  0  0  0  0  0  0  0  0  0
   -1.0543   -0.0229   -2.5579 C   0  0  0  0  0  0  0  0  0  0  0  0
   -0.7394    1.2330    0.5074 C   0  0  0  0  0  0  0  0  0  0  0  0
   -0.7847   -1.2925    0.5036 C   0  0  0  0  0  0  0  0  0  0  0  0
   -0.3805    1.2517   -2.0451 C   0  0  0  0  0  0  0  0  0  0  0  0
   -0.4219   -1.3195   -2.0472 C   0  0  0  0  0  0  0  0  0  0  0  0
   -0.9592    1.8020   -0.7633 C   0  0  0  0  0  0  0  0  0  0  0  0
   -1.0222   -1.8518   -0.7680 C   0  0  0  0  0  0  0  0  0  0  0  0
   -1.3303    1.8448    1.6346 C   0  0  0  0  0  0  0  0  0  0  0  0
   -1.4006   -1.8841    1.6284 C   0  0  0  0  0  0  0  0  0  0  0  0
   -1.7582    2.9606   -0.8605 C   0  0  0  0  0  0  0  0  0  0  0  0
   -1.8631   -2.9800   -0.8691 C   0  0  0  0  0  0  0  0  0  0  0  0
    2.1410    0.9739    0.4972 C   0  0  0  0  0  0  0  0  0  0  0  0
    3.4712    0.8619   -0.2305 C   0  0  0  0  0  0  0  0  0  0  0  0
   -2.1118    2.9927    1.5171 C   0  0  0  0  0  0  0  0  0  0  0  0
   -2.2232   -3.0026    1.5075 C   0  0  0  0  0  0  0  0  0  0  0  0
   -2.3273    3.5509    0.2664 C   0  0  0  0  0  0  0  0  0  0  0  0
   -2.4563   -3.5508    0.2556 C   0  0  0  0  0  0  0  0  0  0  0  0
    4.3437   -0.5187    1.5317 C   0  0  0  0  0  0  0  0  0  0  0  0
    5.4004   -0.5145   -0.6261 C   0  0  0  0  0  0  0  0  0  0  0  0
  1  3  1  0
  1 15  1  0
  2 16  1  0
  2 21  1  0
  2 22  1  0
  3  5  1  0
  3  6  1  0
  4  7  1  0
  4  8  1  0
  5  9  2  0
  5 11  1  0
  6 10  2  0
  6 12  1  0
  7  9  1  0
  8 10  1  0
  9 13  1  0
 10 14  1  0
 11 17  2  0
 12 18  2  0
 13 19  2  0
 14 20  2  0
 15 16  1  0
 17 19  1  0
 18 20  1  0
M  END
>  <PUBCHEM_COMPOUND_CID>  (1) 
27418

>  <PUBCHEM_CONFORMER_RMSD>  (1) 
0.8

>  <PUBCHEM_CONFORMER_DIVERSEORDER>  (1) 
5
13
9
10
2
12
4
17
7
3
16
1
14
6
8
11
15

>  <PUBCHEM_MMFF94_PARTIAL_CHARGES>  (1) 
29
1 -0.56
10 -0.14
11 -0.15
12 -0.15
13 -0.15
14 -0.15
15 0.28
16 0.27
17 -0.15
18 -0.15
19 -0.15
2 -0.81
20 -0.15
21 0.27
22 0.27
3 0.57
30 0.15
31 0.15
32 0.15
33 0.15
38 0.15
39 0.15
40 0.15
41 0.15
5 -0.14
6 -0.14
7 0.14
8 0.14
9 -0.14

>  <PUBCHEM_EFFECTIVE_ROTOR_COUNT>  (1) 
4.8

>  <PUBCHEM_PHARMACOPHORE_FEATURES>  (1) 
4
1 1 acceptor
1 2 cation
6 5 9 11 13 17 19 rings
6 6 10 12 14 18 20 rings

>  <PUBCHEM_HEAVY_ATOM_COUNT>  (1) 
22

>  <PUBCHEM_ATOM_DEF_STEREO_COUNT>  (1) 
0

>  <PUBCHEM_ATOM_UDEF_STEREO_COUNT>  (1) 
0

>  <PUBCHEM_BOND_DEF_STEREO_COUNT>  (1) 
0

>  <PUBCHEM_BOND_UDEF_STEREO_COUNT>  (1) 
0

>  <PUBCHEM_ISOTOPIC_ATOM_COUNT>  (1) 
0

>  <PUBCHEM_COMPONENT_COUNT>  (1) 
1

>  <PUBCHEM_CACTVS_TAUTO_COUNT>  (1) 
1

>  <PUBCHEM_CONFORMER_ID>  (1) 
00006B1A00000005

>  <PUBCHEM_MMFF94_ENERGY>  (1) 
70.5962

>  <PUBCHEM_FEATURE_SELFOVERLAP>  (1) 
20.297

>  <PUBCHEM_SHAPE_FINGERPRINT>  (1) 
10764073 3 17200551504678075771
12643181 29 18053395297720746294
12788726 201 18339624690360990235
13004483 165 18267586990521620914
13134695 92 17836084846671336159
13135754 10 18265354892139828850
133893 2 17045129802315950785
13681431 1 17615120422452571153
14817 1 10759419708385223493
17980427 23 16914555512785669507
1813 80 17909852142377333030
20600515 1 17463116187192573984
21120745 212 18119836813063077524
21524375 3 18054781789280692240
22907989 373 18411136974224101172
23352939 185 17242459553600387142
23419403 2 17616787256632352525
23526113 38 17541902779370412943
23557571 272 18046602750352458496
23598288 3 18342466966942534580
266924 78 17252832007152632957
298252 57 16986577659862462620
3027735 51 18272359854729416990
3729539 64 17184775501859249766
3759504 43 18268714909421898848
394222 165 17337573567360486121
6786 2 18051143492471785271
7097593 13 17478057514995549323
81228 2 18335691797371389720
9981440 41 17343464935725284642

>  <PUBCHEM_SHAPE_MULTIPOLES>  (1) 
441.9
5.94
4.49
2.09
13.8
0.16
-0.75
-1.38
1.17
-6.42
0.94
-0.81
-0.08
-0.07

>  <PUBCHEM_SHAPE_SELFOVERLAP>  (1) 
934.609

>  <PUBCHEM_SHAPE_VOLUME>  (1) 
247.2

>  <PUBCHEM_COORDINATE_TYPE>  (1) 
2
5
10

$$$$
