27425
     RDKit          3D

 48 48  0  0  1  0  0  0  0  0999 V2000
   -1.3587   -0.8486   -1.5648 O   0  0  0  0  0  0  0  0  0  0  0  0
    1.3802   -1.1719    1.3682 O   0  0  0  0  0  0  0  0  0  0  0  0
   -3.6421   -2.8283    1.8731 O   0  0  0  0  0  0  0  0  0  0  0  0
    4.5059   -2.6867   -2.1545 O   0  0  0  0  0  0  0  0  0  0  0  0
    0.4458    5.1889    2.7981 O   0  0  0  0  0  0  0  0  0  0  0  0
   -6.6144    3.4718    0.1799 O   0  0  0  0  0  0  0  0  0  0  0  0
    3.9099    4.5235   -0.3672 O   0  0  0  0  0  0  0  0  0  0  0  0
    2.8972    2.6346    2.7156 O   0  0  0  0  0  0  0  0  0  0  0  0
   -0.4254   -3.6280    1.2018 O   0  0  0  0  0  0  0  0  0  0  0  0
   -8.1147    1.5579   -2.3944 O   0  0  0  0  0  0  0  0  0  0  0  0
    6.0439    3.2972   -2.9134 O   0  0  0  0  0  0  0  0  0  0  0  0
    1.8027   -5.7946   -1.2656 O   0  0  0  0  0  0  0  0  0  0  0  0
    0.7956    0.2596   -0.3644 N   0  0  0  0  0  0  0  0  0  0  0  0
   -2.6629   -0.4571    0.3160 N   0  0  0  0  0  0  0  0  0  0  0  0
    3.2597   -2.3290   -0.2353 N   0  0  0  0  0  0  0  0  0  0  0  0
   -2.7978   -3.5696   -0.1582 N   0  0  0  0  0  0  0  0  0  0  0  0
    1.0136    3.9474    2.5596 N   0  0  0  0  0  0  0  0  0  0  0  0
   -7.0530    2.3557   -0.5151 N   0  0  0  0  0  0  0  0  0  0  0  0
    4.7301    3.6441   -1.0563 N   0  0  0  0  0  0  0  0  0  0  0  0
    3.2935   -4.9796    0.3176 N   0  0  0  0  0  0  0  0  0  0  0  0
   -0.1530   -5.8690    0.6664 N   0  0  0  0  0  0  0  0  0  0  0  0
   -0.5115    0.6391    0.1495 C   0  0  0  0  0  0  0  0  0  0  0  0
   -0.8471    2.0794   -0.2049 C   0  0  0  0  0  0  0  0  0  0  0  0
   -3.7580   -1.3500   -0.0357 C   0  0  0  0  0  0  0  0  0  0  0  0
    2.8843   -0.9514   -0.5130 C   0  0  0  0  0  0  0  0  0  0  0  0
    0.1399    3.0572    0.4369 C   0  0  0  0  0  0  0  0  0  0  0  0
   -5.0897   -0.7816    0.4306 C   0  0  0  0  0  0  0  0  0  0  0  0
    3.9838    0.0203   -0.1084 C   0  0  0  0  0  0  0  0  0  0  0  0
   -1.5280   -0.3125   -0.4713 C   0  0  0  0  0  0  0  0  0  0  0  0
    1.6138   -0.6619    0.2741 C   0  0  0  0  0  0  0  0  0  0  0  0
   -5.3979    0.5518   -0.2540 C   0  0  0  0  0  0  0  0  0  0  0  0
    3.8346    1.3619   -0.8283 C   0  0  0  0  0  0  0  0  0  0  0  0
    0.1044    3.0098    1.9608 C   0  0  0  0  0  0  0  0  0  0  0  0
   -3.4363   -2.6591    0.6726 C   0  0  0  0  0  0  0  0  0  0  0  0
   -6.7558    1.1169    0.1491 C   0  0  0  0  0  0  0  0  0  0  0  0
    4.8884    2.3769   -0.3979 C   0  0  0  0  0  0  0  0  0  0  0  0
    4.0044   -3.1009   -1.1096 C   0  0  0  0  0  0  0  0  0  0  0  0
   -2.3062   -4.8507    0.3043 C   0  0  0  0  0  0  0  0  0  0  0  0
    4.2979   -4.5053   -0.6123 C   0  0  0  0  0  0  0  0  0  0  0  0
    2.3391    3.7207    2.9016 C   0  0  0  0  0  0  0  0  0  0  0  0
   -0.8701   -4.6849    0.7602 C   0  0  0  0  0  0  0  0  0  0  0  0
   -7.7046    2.5148   -1.7297 C   0  0  0  0  0  0  0  0  0  0  0  0
    5.3031    4.0364   -2.2575 C   0  0  0  0  0  0  0  0  0  0  0  0
    1.2330   -5.9727    1.0728 C   0  0  0  0  0  0  0  0  0  0  0  0
    2.1109   -5.5752   -0.0963 C   0  0  0  0  0  0  0  0  0  0  0  0
    3.1234    4.8549    3.5281 C   0  0  0  0  0  0  0  0  0  0  0  0
   -7.9154    3.9204   -2.2532 C   0  0  0  0  0  0  0  0  0  0  0  0
    5.0034    5.4277   -2.7758 C   0  0  0  0  0  0  0  0  0  0  0  0
  1 29  2  0
  2 30  2  0
  3 34  2  0
  4 37  2  0
  5 17  1  0
  6 18  1  0
  7 19  1  0
  8 40  2  0
  9 41  2  0
 10 42  2  0
 11 43  2  0
 12 45  2  0
 13 22  1  0
 13 30  1  0
 14 24  1  0
 14 29  1  0
 15 25  1  0
 15 37  1  0
 16 34  1  0
 16 38  1  0
 17 33  1  0
 17 40  1  0
 18 35  1  0
 18 42  1  0
 19 36  1  0
 19 43  1  0
 20 39  1  0
 20 45  1  0
 21 41  1  0
 21 44  1  0
 22 23  1  0
 22 29  1  0
 23 26  1  0
 24 27  1  0
 24 34  1  0
 25 28  1  0
 25 30  1  0
 26 33  1  0
 27 31  1  0
 28 32  1  0
 31 35  1  0
 32 36  1  0
 37 39  1  0
 38 41  1  0
 40 46  1  0
 42 47  1  0
 43 48  1  0
 44 45  1  0
M  CHG  3   5  -1   6  -1   7  -1
M  END
>  <PUBCHEM_COMPOUND_CID>  (1) 
27425

>  <PUBCHEM_CONFORMER_RMSD>  (1) 
1.6

>  <PUBCHEM_CONFORMER_DIVERSEORDER>  (1) 
1
132
107
215
46
265
275
272
334
163
151
350
235
306
313
239
93
321
277
340
349
222
281
292
245
345
238
352
176
276
269
193
41
139
264
311
262
322
37
318
204
255
194
161
326
226
259
224
354
9
254
100
337
84
227
344
117
30
308
251
87
21
246
166
133
257
45
212
256
230
60
181
258
331
253
73
289
287
189
296
83
221
167
91
307
31
268
183
109
290
202
138
286
260
231
86
300
197
104
14
279
270
336
232
191
250
198
304
315
314
219
106
302
228
284
217
177
209
298
101
342
199
338
124
329
129
143
282
243
267
214
122
293
353
216
351
208
144
266
59
130
294
18
126
295
225
114
223
327
153
103
218
99
346
283
113
324
341
205
261
76
165
203
25
187
303
43
134
16
188
330
78
348
201
28
278
299
5
168
192
162
7
186
51
320
195
72
128
200
61
36
211
40
310
110
309
244
115
156
160
291
210
12
142
317
96
305
157
312
229
79
170
323
213
325
66
19
120
343
27
67
164
297
206
335
54
171
180
333
285
95
249
33
105
234
3
56
182
347
241
147
155
97
2
178
146
62
301
49
55
332
174
150
11
355
8
220
280
112
328
127
152
63
116
316
119
135
17
32
242
118
88
82
237
288
20
339
35
57
196
274
145
247
252
77
13
263
44
185
111
233
108
184
64
6
47
69
42
81
22
102
94
319
190
172
38
158
240
90
123
179
29
10
80
131
141
52
4
85
173
75
48
70
39
271
50
207
140
136
34
23
24
74
26
92
71
248
236
125
58
137
159
65
98
68
175
273
154
89
121
148
53
149
169
15

>  <PUBCHEM_MMFF94_PARTIAL_CHARGES>  (1) 
48
1 -0.57
10 -0.57
11 -0.57
12 -0.57
13 -0.73
14 -0.73
15 -0.73
16 -0.73
17 -0.65
18 -0.65
19 -0.65
2 -0.57
20 -0.73
21 -0.73
22 0.36
24 0.36
25 0.36
29 0.57
3 -0.57
30 0.57
33 0.3
34 0.57
35 0.3
36 0.3
37 0.57
38 0.36
39 0.36
4 -0.57
40 0.57
41 0.57
42 0.57
43 0.57
44 0.36
45 0.57
46 0.06
47 0.06
48 0.06
5 -0.71
6 -0.71
60 0.37
61 0.37
68 0.37
7 -0.71
73 0.37
78 0.37
8 -0.57
81 0.37
9 -0.57

>  <PUBCHEM_EFFECTIVE_ROTOR_COUNT>  (1) 
17.4

>  <PUBCHEM_PHARMACOPHORE_FEATURES>  (1) 
15
1 1 acceptor
1 10 acceptor
1 11 acceptor
1 12 acceptor
1 13 donor
1 14 donor
1 15 donor
1 16 donor
1 2 acceptor
1 20 donor
1 21 donor
1 3 acceptor
1 4 acceptor
1 8 acceptor
1 9 acceptor

>  <PUBCHEM_HEAVY_ATOM_COUNT>  (1) 
48

>  <PUBCHEM_ATOM_DEF_STEREO_COUNT>  (1) 
0

>  <PUBCHEM_ATOM_UDEF_STEREO_COUNT>  (1) 
3

>  <PUBCHEM_BOND_DEF_STEREO_COUNT>  (1) 
0

>  <PUBCHEM_BOND_UDEF_STEREO_COUNT>  (1) 
0

>  <PUBCHEM_ISOTOPIC_ATOM_COUNT>  (1) 
0

>  <PUBCHEM_COMPONENT_COUNT>  (1) 
1

>  <PUBCHEM_CACTVS_TAUTO_COUNT>  (1) 
64

>  <PUBCHEM_CONFORMER_ID>  (1) 
00006B2100000001

>  <PUBCHEM_MMFF94_ENERGY>  (1) 
106.4258

>  <PUBCHEM_FEATURE_SELFOVERLAP>  (1) 
76.144

>  <PUBCHEM_SHAPE_FINGERPRINT>  (1) 
10290309 65 18337405936073127019
10675989 125 18336549300545580951
10864689 126 18126013895552995132
11093857 5 17908419504680910600
12422481 6 16110637905533870802
12440610 7 18266444594341609759
13617811 41 18048028575962250339
15351339 4 17758112605836308699
15400415 2 18337115673624457735
3534868 343 18127700327014368892

>  <PUBCHEM_SHAPE_MULTIPOLES>  (1) 
872.56
16.29
11.84
2.7
32.8
9.35
1.01
-21.62
-13.34
-11.33
1.54
-2.68
-5.59
2.83

>  <PUBCHEM_SHAPE_SELFOVERLAP>  (1) 
1735.925

>  <PUBCHEM_SHAPE_VOLUME>  (1) 
509.7

>  <PUBCHEM_COORDINATE_TYPE>  (1) 
2
5
10

$$$$
