27427
     RDKit          3D

 12 12  0  0  0  0  0  0  0  0999 V2000
    2.5601   -0.8445   -1.4653 Cl  0  0  0  0  0  0  0  0  0  0  0  0
    2.7064    1.6299    0.0053 Cl  0  0  0  0  0  0  0  0  0  0  0  0
    2.5529   -0.8568    1.4613 Cl  0  0  0  0  0  0  0  0  0  0  0  0
   -0.1786   -1.1933   -0.0002 N   0  0  0  0  0  0  0  0  0  0  0  0
   -0.1737    1.2063    0.0007 N   0  0  0  0  0  0  0  0  0  0  0  0
   -2.2542    0.0108   -0.0005 N   0  0  0  0  0  0  0  0  0  0  0  0
    0.4268    0.0053    0.0003 C   0  0  0  0  0  0  0  0  0  0  0  0
   -1.5189   -1.1129   -0.0007 C   0  0  0  0  0  0  0  0  0  0  0  0
   -1.5144    1.1314    0.0002 C   0  0  0  0  0  0  0  0  0  0  0  0
    1.9177    0.0023    0.0005 C   0  0  0  0  0  0  0  0  0  0  0  0
   -2.2670   -2.4025   -0.0016 C   0  0  0  0  0  0  0  0  0  0  0  0
   -2.2571    2.4240    0.0000 C   0  0  0  0  0  0  0  0  0  0  0  0
  1 10  1  0
  2 10  1  0
  3 10  1  0
  4  7  2  0
  4  8  1  0
  5  7  1  0
  5  9  2  0
  6  8  2  0
  6  9  1  0
  7 10  1  0
  8 11  1  0
  9 12  1  0
M  END
>  <PUBCHEM_COMPOUND_CID>  (1) 
27427

>  <PUBCHEM_CONFORMER_RMSD>  (1) 
0.4

>  <PUBCHEM_CONFORMER_DIVERSEORDER>  (1) 
1

>  <PUBCHEM_MMFF94_PARTIAL_CHARGES>  (1) 
12
1 -0.29
10 1.01
11 0.14
12 0.14
2 -0.29
3 -0.29
4 -0.62
5 -0.62
6 -0.62
7 0.48
8 0.48
9 0.48

>  <PUBCHEM_EFFECTIVE_ROTOR_COUNT>  (1) 
1

>  <PUBCHEM_PHARMACOPHORE_FEATURES>  (1) 
4
3 4 5 7 cation
3 4 6 8 cation
3 5 6 9 cation
6 4 5 6 7 8 9 rings

>  <PUBCHEM_HEAVY_ATOM_COUNT>  (1) 
12

>  <PUBCHEM_ATOM_DEF_STEREO_COUNT>  (1) 
0

>  <PUBCHEM_ATOM_UDEF_STEREO_COUNT>  (1) 
0

>  <PUBCHEM_BOND_DEF_STEREO_COUNT>  (1) 
0

>  <PUBCHEM_BOND_UDEF_STEREO_COUNT>  (1) 
0

>  <PUBCHEM_ISOTOPIC_ATOM_COUNT>  (1) 
0

>  <PUBCHEM_COMPONENT_COUNT>  (1) 
1

>  <PUBCHEM_CACTVS_TAUTO_COUNT>  (1) 
1

>  <PUBCHEM_CONFORMER_ID>  (1) 
00006B2300000001

>  <PUBCHEM_MMFF94_ENERGY>  (1) 
21.4029

>  <PUBCHEM_FEATURE_SELFOVERLAP>  (1) 
23.07

>  <PUBCHEM_SHAPE_FINGERPRINT>  (1) 
12524768 44 18341898553336733262
12716758 59 18269841929961537615
12932764 1 17968099694250172812
13538477 17 18187361017226664971
14252887 29 17981343492100948475
14648413 74 18271815588173246820
15279308 100 18267874886769883644
15775835 57 18041849389575920180
16945 1 18338797819009214855
18186145 218 17913487939636384657
18380122 1 18058729259552020266
19973954 147 18413111675437525604
20082192 1 18272381849345824528
20645464 45 18059281055354093762
20645476 183 17896620391604289815
20645477 70 17043445913602453847
20711985 344 18337402603188892487
20871998 184 18201158874727672911
20871998 22 18052553341362405343
21040471 1 18194682570809046117
21501502 16 18410571807914456888
21524375 3 17899414182390057493
22445834 79 17968363542781438458
22802520 49 18200892694134622198
23552423 10 18115309002504059940
23559900 14 18055643816026066366
2748010 2 18340770428668525357
3248919 1 18059851749117809712
369184 2 18187074074735331616
5084963 1 17988648436880739336
74978 22 18337389336155896596
8030462 33 17894915152375657922
81228 2 18411139164683457699
88987 49 18410009893090137604

>  <PUBCHEM_SHAPE_MULTIPOLES>  (1) 
237.62
4.48
2.41
1.01
1.07
0.34
0
0.09
0
-1.78
0
1.03
-0.34
0

>  <PUBCHEM_SHAPE_SELFOVERLAP>  (1) 
455.712

>  <PUBCHEM_SHAPE_VOLUME>  (1) 
143.4

>  <PUBCHEM_COORDINATE_TYPE>  (1) 
2
5
10

$$$$
