27426
     RDKit          3D

 10 10  0  0  0  0  0  0  0  0999 V2000
    3.3048   -0.0001    0.8768 Cl  0  0  0  0  0  0  0  0  0  0  0  0
    0.3125   -1.1998   -0.2307 N   0  0  0  0  0  0  0  0  0  0  0  0
    0.3126    1.1997   -0.2305 N   0  0  0  0  0  0  0  0  0  0  0  0
   -1.7267    0.0001    0.1694 N   0  0  0  0  0  0  0  0  0  0  0  0
    0.9042    0.0000   -0.3468 C   0  0  0  0  0  0  0  0  0  0  0  0
   -1.0029   -1.1221    0.0273 C   0  0  0  0  0  0  0  0  0  0  0  0
   -1.0029    1.1222    0.0274 C   0  0  0  0  0  0  0  0  0  0  0  0
    2.3671    0.0000   -0.6341 C   0  0  0  0  0  0  0  0  0  0  0  0
   -1.7345   -2.4132    0.1706 C   0  0  0  0  0  0  0  0  0  0  0  0
   -1.7344    2.4132    0.1705 C   0  0  0  0  0  0  0  0  0  0  0  0
  1  8  1  0
  2  5  2  0
  2  6  1  0
  3  5  1  0
  3  7  2  0
  4  6  2  0
  4  7  1  0
  5  8  1  0
  6  9  1  0
  7 10  1  0
M  END
>  <PUBCHEM_COMPOUND_CID>  (1) 
27426

>  <PUBCHEM_CONFORMER_RMSD>  (1) 
0.4

>  <PUBCHEM_CONFORMER_DIVERSEORDER>  (1) 
1
2

>  <PUBCHEM_MMFF94_PARTIAL_CHARGES>  (1) 
10
1 -0.29
10 0.14
2 -0.62
3 -0.62
4 -0.62
5 0.48
6 0.48
7 0.48
8 0.43
9 0.14

>  <PUBCHEM_EFFECTIVE_ROTOR_COUNT>  (1) 
1

>  <PUBCHEM_PHARMACOPHORE_FEATURES>  (1) 
4
3 2 3 5 cation
3 2 4 6 cation
3 3 4 7 cation
6 2 3 4 5 6 7 rings

>  <PUBCHEM_HEAVY_ATOM_COUNT>  (1) 
10

>  <PUBCHEM_ATOM_DEF_STEREO_COUNT>  (1) 
0

>  <PUBCHEM_ATOM_UDEF_STEREO_COUNT>  (1) 
0

>  <PUBCHEM_BOND_DEF_STEREO_COUNT>  (1) 
0

>  <PUBCHEM_BOND_UDEF_STEREO_COUNT>  (1) 
0

>  <PUBCHEM_ISOTOPIC_ATOM_COUNT>  (1) 
0

>  <PUBCHEM_COMPONENT_COUNT>  (1) 
1

>  <PUBCHEM_CACTVS_TAUTO_COUNT>  (1) 
1

>  <PUBCHEM_CONFORMER_ID>  (1) 
00006B2200000001

>  <PUBCHEM_MMFF94_ENERGY>  (1) 
16.8859

>  <PUBCHEM_FEATURE_SELFOVERLAP>  (1) 
23.07

>  <PUBCHEM_SHAPE_FINGERPRINT>  (1) 
1 1 17689437079283636509
10857977 72 18198901594667528122
12716758 59 18269561550491598750
16945 1 18410582781265572471
20645464 45 18131067083226583576
20871998 184 18272653493037178958
21040471 1 18194130624456420252
23552423 10 17826801631037187380
2748010 2 18049176470575268829
3071541 236 18334285440468607035
369184 2 18341040870201241642
54338 74 18261384602563857832
81228 2 18411144653372145555

>  <PUBCHEM_SHAPE_MULTIPOLES>  (1) 
192.72
3.66
2.34
0.76
3.51
0
-0.04
0
-0.78
-2.43
-0.18
0.39
0
0

>  <PUBCHEM_SHAPE_SELFOVERLAP>  (1) 
379.827

>  <PUBCHEM_SHAPE_VOLUME>  (1) 
115.9

>  <PUBCHEM_COORDINATE_TYPE>  (1) 
2
5
10

$$$$
