27443
     RDKit          3D

 24 26  0  0  0  0  0  0  0  0999 V2000
    1.5263   -1.0299   -0.0097 O   0  0  0  0  0  0  0  0  0  0  0  0
   -0.3008    2.5505   -0.6511 O   0  0  0  0  0  0  0  0  0  0  0  0
   -4.7315    0.0964    0.1979 N   0  0  0  0  0  0  0  0  0  0  0  0
   -4.0930   -0.9733   -0.5709 C   0  0  0  0  0  0  0  0  0  0  0  0
   -2.6086   -0.9695   -0.4248 C   0  0  0  0  0  0  0  0  0  0  0  0
   -0.5125    0.2270   -0.3718 C   0  0  0  0  0  0  0  0  0  0  0  0
   -4.4297   -0.0486    1.6209 C   0  0  0  0  0  0  0  0  0  0  0  0
   -6.1767    0.0896   -0.0227 C   0  0  0  0  0  0  0  0  0  0  0  0
   -1.9032    0.2316   -0.5098 C   0  0  0  0  0  0  0  0  0  0  0  0
    0.1662   -0.9671   -0.1511 C   0  0  0  0  0  0  0  0  0  0  0  0
   -1.9285   -2.1673   -0.2033 C   0  0  0  0  0  0  0  0  0  0  0  0
    0.2569    1.4779   -0.4560 C   0  0  0  0  0  0  0  0  0  0  0  0
    1.7357    1.3714   -0.2933 C   0  0  0  0  0  0  0  0  0  0  0  0
   -0.5403   -2.1675   -0.0664 C   0  0  0  0  0  0  0  0  0  0  0  0
    2.2553    0.1438   -0.0908 C   0  0  0  0  0  0  0  0  0  0  0  0
   -5.0793    1.0473    2.4403 C   0  0  0  0  0  0  0  0  0  0  0  0
   -6.5161    0.2982   -1.4842 C   0  0  0  0  0  0  0  0  0  0  0  0
    3.6961   -0.0904    0.0764 C   0  0  0  0  0  0  0  0  0  0  0  0
    2.4938    2.6655   -0.3637 C   0  0  0  0  0  0  0  0  0  0  0  0
    4.2661   -0.0530    1.3491 C   0  0  0  0  0  0  0  0  0  0  0  0
    4.4948   -0.3499   -1.0376 C   0  0  0  0  0  0  0  0  0  0  0  0
    5.6340   -0.2752    1.5077 C   0  0  0  0  0  0  0  0  0  0  0  0
    5.8626   -0.5724   -0.8789 C   0  0  0  0  0  0  0  0  0  0  0  0
    6.4322   -0.5351    0.3937 C   0  0  0  0  0  0  0  0  0  0  0  0
  1 10  1  0
  1 15  1  0
  2 12  2  0
  3  4  1  0
  3  7  1  0
  3  8  1  0
  4  5  1  0
  5  9  2  0
  5 11  1  0
  6  9  1  0
  6 10  2  0
  6 12  1  0
  7 16  1  0
  8 17  1  0
 10 14  1  0
 11 14  2  0
 12 13  1  0
 13 15  2  0
 13 19  1  0
 15 18  1  0
 18 20  2  0
 18 21  1  0
 20 22  1  0
 21 23  2  0
 22 24  2  0
 23 24  1  0
M  END
>  <PUBCHEM_COMPOUND_CID>  (1) 
27443

>  <PUBCHEM_CONFORMER_RMSD>  (1) 
0.8

>  <PUBCHEM_CONFORMER_DIVERSEORDER>  (1) 
1
2
7
8
4
9
6
3
5
10

>  <PUBCHEM_MMFF94_PARTIAL_CHARGES>  (1) 
30
1 -0.16
10 0.08
11 -0.15
12 0.47
13 -0.12
14 -0.15
15 0.05
18 0.03
19 0.14
2 -0.57
20 -0.15
21 -0.15
22 -0.15
23 -0.15
24 -0.15
3 -0.81
31 0.15
32 0.15
33 0.15
4 0.41
43 0.15
44 0.15
45 0.15
46 0.15
47 0.15
5 -0.14
6 0.09
7 0.27
8 0.27
9 -0.15

>  <PUBCHEM_EFFECTIVE_ROTOR_COUNT>  (1) 
5

>  <PUBCHEM_PHARMACOPHORE_FEATURES>  (1) 
6
1 1 acceptor
1 2 acceptor
1 3 cation
6 1 6 10 12 13 15 rings
6 18 20 21 22 23 24 rings
6 5 6 9 10 11 14 rings

>  <PUBCHEM_HEAVY_ATOM_COUNT>  (1) 
24

>  <PUBCHEM_ATOM_DEF_STEREO_COUNT>  (1) 
0

>  <PUBCHEM_ATOM_UDEF_STEREO_COUNT>  (1) 
0

>  <PUBCHEM_BOND_DEF_STEREO_COUNT>  (1) 
0

>  <PUBCHEM_BOND_UDEF_STEREO_COUNT>  (1) 
0

>  <PUBCHEM_ISOTOPIC_ATOM_COUNT>  (1) 
0

>  <PUBCHEM_COMPONENT_COUNT>  (1) 
1

>  <PUBCHEM_CACTVS_TAUTO_COUNT>  (1) 
1

>  <PUBCHEM_CONFORMER_ID>  (1) 
00006B3300000001

>  <PUBCHEM_MMFF94_ENERGY>  (1) 
66.9621

>  <PUBCHEM_FEATURE_SELFOVERLAP>  (1) 
30.474

>  <PUBCHEM_SHAPE_FINGERPRINT>  (1) 
10906281 52 18339662117254211630
11089746 13 17632576054533352097
11646440 116 18201444692248428057
11796584 16 16225766298392261779
12236239 1 17846497045845397847
12553582 1 18333723624845565606
12633257 1 18408603694843286550
12788726 201 18114458964352710160
13140716 1 18264486363810709082
13533116 47 17131558245779397622
13590594 115 18334581226156028920
13862211 1 18335414673270370158
14251758 9 18409450301579615283
14251764 18 18340486771800929527
15099037 51 18408884057360235639
15142383 8 17240754069415947892
15183329 4 18412549816284264174
15196674 1 18265050413091154935
15475509 8 18128280929394088268
15537594 2 18040148522624243146
17980427 23 17489595575701595753
19141452 34 18131064974319001174
19489759 90 16917069962644482475
20028762 73 18272929453350092255
20612939 158 18335986466487757093
20739085 24 18188786044436802708
21267235 1 18335424577332936566
21298829 104 18271245998717805441
21344244 181 12396574071307822928
21521721 280 7925620129381284222
21792961 116 17604418597324042726
21859007 373 18043506396433159821
22182313 1 18193839245358978574
23035841 295 13695865922267389537
23402539 116 18271799146653465623
23516275 137 15503501413727508777
23522609 53 18044404744582676036
23536379 177 16128657435664309079
23559900 14 18270400615814300364
23569914 2 15621957281902620176
23569943 247 17914344467822008182
23622692 88 18410855468718142078
25147074 1 18266460004246294476
2838139 119 15267063592983773081
3004659 81 18186522120705212558
314173 85 18411983559385560996
3178227 256 18187374228899313801
33382 64 15646772275799267824
335352 9 18408881862542120951
3411729 13 18195799898879856648
350125 39 18333447633988737181
3633792 109 18272642429897685205
3680242 22 18334575729161658722
404807 14 15476243334947871350
4325135 7 10809340044399597971
4340502 62 14836125472253870108
465052 167 17967258606646799498
5104073 3 18265617765211903859
5385378 56 18270409274099688651
59755656 215 18409727318391303126
6328613 192 18340777047667296132
7226269 152 17989493995846086753
7495541 125 16733273434018048652
8863177 126 17460047381504293307

>  <PUBCHEM_SHAPE_MULTIPOLES>  (1) 
477.19
15.7
1.94
1.41
2
0.61
-0.77
-0.78
-2.26
0
0.31
1.14
0.33
-0.75

>  <PUBCHEM_SHAPE_SELFOVERLAP>  (1) 
1027.476

>  <PUBCHEM_SHAPE_VOLUME>  (1) 
264.3

>  <PUBCHEM_COORDINATE_TYPE>  (1) 
2
5
10

$$$$
