27441
     RDKit          3D

 18 21  0  0  0  0  0  0  0  0999 V2000
    0.7085    0.0000    0.0000 C   0  0  0  0  0  0  0  0  0  0  0  0
   -0.7085    0.0000    0.0000 C   0  0  0  0  0  0  0  0  0  0  0  0
    1.4154    1.2251    0.0000 C   0  0  0  0  0  0  0  0  0  0  0  0
   -1.4154    1.2251    0.0000 C   0  0  0  0  0  0  0  0  0  0  0  0
    1.4154   -1.2251    0.0000 C   0  0  0  0  0  0  0  0  0  0  0  0
   -1.4154   -1.2251    0.0000 C   0  0  0  0  0  0  0  0  0  0  0  0
    0.6981    2.4290    0.0000 C   0  0  0  0  0  0  0  0  0  0  0  0
   -0.6982    2.4290    0.0000 C   0  0  0  0  0  0  0  0  0  0  0  0
    0.6982   -2.4290    0.0000 C   0  0  0  0  0  0  0  0  0  0  0  0
   -0.6981   -2.4290    0.0000 C   0  0  0  0  0  0  0  0  0  0  0  0
    2.8178    1.2083    0.0000 C   0  0  0  0  0  0  0  0  0  0  0  0
   -2.8178    1.2083    0.0000 C   0  0  0  0  0  0  0  0  0  0  0  0
    2.8178   -1.2083    0.0000 C   0  0  0  0  0  0  0  0  0  0  0  0
   -2.8179   -1.2083   -0.0001 C   0  0  0  0  0  0  0  0  0  0  0  0
    3.5126    0.0000    0.0000 C   0  0  0  0  0  0  0  0  0  0  0  0
   -3.5126    0.0000    0.0000 C   0  0  0  0  0  0  0  0  0  0  0  0
    5.0044    0.0001    0.0000 C   0  0  0  0  0  0  0  0  0  0  0  0
   -5.0045    0.0000    0.0001 C   0  0  0  0  0  0  0  0  0  0  0  0
  1  2  2  0
  1  3  1  0
  1  5  1  0
  2  4  1  0
  2  6  1  0
  3  7  2  0
  3 11  1  0
  4  8  2  0
  4 12  1  0
  5  9  1  0
  5 13  2  0
  6 10  1  0
  6 14  2  0
  7  8  1  0
  9 10  2  0
 11 15  2  0
 12 16  2  0
 13 15  1  0
 14 16  1  0
 15 17  1  0
 16 18  1  0
M  END
>  <PUBCHEM_COMPOUND_CID>  (1) 
27441

>  <PUBCHEM_CONFORMER_RMSD>  (1) 
0.4

>  <PUBCHEM_CONFORMER_DIVERSEORDER>  (1) 
1

>  <PUBCHEM_MMFF94_PARTIAL_CHARGES>  (1) 
20
10 -0.15
11 -0.15
12 -0.15
13 -0.15
14 -0.15
15 -0.14
16 -0.14
17 0.14
18 0.14
19 0.15
20 0.15
21 0.15
22 0.15
23 0.15
24 0.15
25 0.15
26 0.15
7 -0.15
8 -0.15
9 -0.15

>  <PUBCHEM_EFFECTIVE_ROTOR_COUNT>  (1) 
0

>  <PUBCHEM_PHARMACOPHORE_FEATURES>  (1) 
4
6 1 2 3 4 7 8 rings
6 1 2 5 6 9 10 rings
6 1 3 5 11 13 15 rings
6 2 4 6 12 14 16 rings

>  <PUBCHEM_HEAVY_ATOM_COUNT>  (1) 
18

>  <PUBCHEM_ATOM_DEF_STEREO_COUNT>  (1) 
0

>  <PUBCHEM_ATOM_UDEF_STEREO_COUNT>  (1) 
0

>  <PUBCHEM_BOND_DEF_STEREO_COUNT>  (1) 
0

>  <PUBCHEM_BOND_UDEF_STEREO_COUNT>  (1) 
0

>  <PUBCHEM_ISOTOPIC_ATOM_COUNT>  (1) 
0

>  <PUBCHEM_COMPONENT_COUNT>  (1) 
1

>  <PUBCHEM_CACTVS_TAUTO_COUNT>  (1) 
1

>  <PUBCHEM_CONFORMER_ID>  (1) 
00006B3100000001

>  <PUBCHEM_MMFF94_ENERGY>  (1) 
60.4522

>  <PUBCHEM_FEATURE_SELFOVERLAP>  (1) 
20.429

>  <PUBCHEM_SHAPE_FINGERPRINT>  (1) 
10411042 1 17545884184464683458
10693767 8 18130490952035213639
10906281 52 18338818756811369481
10967382 1 18410573980877732263
1100329 8 18338799038616305865
11132069 177 18412821395751198624
11471102 20 18410288116897931013
11680986 33 18122342651348828065
12011746 2 18410575080368111942
12403814 3 17603301548653616533
12838862 33 18338496599904638977
13140716 1 18266741470348181888
13221675 6 18410575088963483366
13380535 76 18410857663446826371
13862211 1 18410568487593682534
14115302 16 18187374267474956652
14178342 30 18051967022634260792
14790565 3 18410867554756924804
15042514 8 18337672013713654274
15099037 51 18410293635487898711
15196674 1 18410573985151451137
15536298 74 18344145890679384838
16945 1 18410856563934756870
17804303 29 18340771532802310792
1813 80 16879065232120892362
193761 8 17834114139086127117
19591789 44 18410576188470128707
200 152 18131345311234450765
20028762 73 18057888142101278007
20510252 161 18272088236818344496
20588541 1 18410577283691635214
20905425 154 18125160424852084318
21029758 11 18343016709449592449
21029758 27 18187936109036957285
21267235 1 18410865355733026146
21421861 104 17826231787814230843
21501502 16 18122626050344117809
221490 88 18120096332224902107
2334 1 17978511167210913797
23402539 116 18343293790743168910
23419403 2 16041600449981403361
23463225 33 18408322176927237824
23493267 7 17676199165644207745
23559900 14 18270683177660687100
2748010 2 18122905588290551847
2871803 45 18337669715678596093
335352 9 18410573998036353468
34934 24 18410848867364184778
350125 39 18409732854567431829
4072396 5 18262781991579986947
43471831 8 18263642870862457434
5104073 3 18338799034321339353
528886 8 18411414024978119794
537710 114 18409172112147657292
53812653 166 18341610429813945514
54173680 148 18192997247143760802
589210 1 17690279730207567701
69090 78 18343016713765515823
7832392 63 18268706280674371678
8809292 202 18261395601875051787
9709674 26 18412832399442216918

>  <PUBCHEM_SHAPE_MULTIPOLES>  (1) 
370.43
7.14
2.59
0.62
0
0
0
0
0
0
0
0
0
0

>  <PUBCHEM_SHAPE_SELFOVERLAP>  (1) 
855.716

>  <PUBCHEM_SHAPE_VOLUME>  (1) 
176.6

>  <PUBCHEM_COORDINATE_TYPE>  (1) 
2
5
10

$$$$
