27450
     RDKit          3D

 18 19  0  0  1  0  0  0  0  0999 V2000
   -5.2964    1.2372    0.3060 Br  0  0  0  0  0  0  0  0  0  0  0  0
   -2.5277   -3.7019   -0.0617 Br  0  0  0  0  0  0  0  0  0  0  0  0
    3.3743   -1.0829    0.0326 O   0  0  0  0  0  0  0  0  0  0  0  0
    0.1778    2.0204    0.4251 O   0  0  0  0  0  0  0  0  0  0  0  0
   -2.4024    2.3398    0.0940 O   0  0  0  0  0  0  0  0  0  0  0  0
    1.0130    0.2903   -0.8725 N   0  0  0  0  0  0  0  0  0  0  0  0
    3.2526    0.3485    0.0870 C   0  0  0  0  0  0  0  0  0  0  0  0
    4.6666    0.8970    0.0023 C   0  0  0  0  0  0  0  0  0  0  0  0
    5.4457   -0.1672    0.7336 C   0  0  0  0  0  0  0  0  0  0  0  0
    4.7432   -1.4319    0.2871 C   0  0  0  0  0  0  0  0  0  0  0  0
    2.3483    0.8314   -1.0303 C   0  0  0  0  0  0  0  0  0  0  0  0
    0.0322    0.9436   -0.1475 C   0  0  0  0  0  0  0  0  0  0  0  0
   -1.2759    0.2451   -0.0579 C   0  0  0  0  0  0  0  0  0  0  0  0
   -2.4409    0.9757    0.0596 C   0  0  0  0  0  0  0  0  0  0  0  0
   -1.2764   -1.1354   -0.0954 C   0  0  0  0  0  0  0  0  0  0  0  0
   -3.6574    0.2985    0.1431 C   0  0  0  0  0  0  0  0  0  0  0  0
   -2.4930   -1.8126   -0.0122 C   0  0  0  0  0  0  0  0  0  0  0  0
   -3.6835   -1.0956    0.1071 C   0  0  0  0  0  0  0  0  0  0  0  0
  1 16  1  0
  2 17  1  0
  3  7  1  0
  3 10  1  0
  4 12  2  0
  5 14  1  0
  6 11  1  0
  6 12  1  0
  7  8  1  0
  7 11  1  0
  8  9  1  0
  9 10  1  0
 12 13  1  0
 13 14  2  0
 13 15  1  0
 14 16  1  0
 15 17  2  0
 16 18  2  0
 17 18  1  0
M  END
>  <PUBCHEM_COMPOUND_CID>  (1) 
27450

>  <PUBCHEM_CONFORMER_RMSD>  (1) 
0.6

>  <PUBCHEM_CONFORMER_DIVERSEORDER>  (1) 
14
39
63
36
26
27
61
44
64
56
35
47
67
11
54
33
4
62
59
1
49
51
60
20
45
41
17
53
55
2
13
24
46
40
65
25
52
28
23
29
16
37
42
21
3
18
8
43
5
6
66
30
50
7
57
48
32
12
10
22
34
15
58
19
9
38
31

>  <PUBCHEM_MMFF94_PARTIAL_CHARGES>  (1) 
20
1 -0.11
10 0.28
11 0.3
12 0.54
13 0.09
14 0.08
15 -0.15
16 0.11
17 0.11
18 -0.15
2 -0.11
28 0.37
29 0.15
3 -0.56
30 0.15
31 0.45
4 -0.57
5 -0.53
6 -0.73
7 0.28

>  <PUBCHEM_EFFECTIVE_ROTOR_COUNT>  (1) 
5

>  <PUBCHEM_PHARMACOPHORE_FEATURES>  (1) 
8
1 1 hydrophobe
1 2 hydrophobe
1 3 acceptor
1 4 acceptor
1 5 donor
1 6 donor
5 3 7 8 9 10 rings
6 13 14 15 16 17 18 rings

>  <PUBCHEM_HEAVY_ATOM_COUNT>  (1) 
18

>  <PUBCHEM_ATOM_DEF_STEREO_COUNT>  (1) 
0

>  <PUBCHEM_ATOM_UDEF_STEREO_COUNT>  (1) 
1

>  <PUBCHEM_BOND_DEF_STEREO_COUNT>  (1) 
0

>  <PUBCHEM_BOND_UDEF_STEREO_COUNT>  (1) 
0

>  <PUBCHEM_ISOTOPIC_ATOM_COUNT>  (1) 
0

>  <PUBCHEM_COMPONENT_COUNT>  (1) 
1

>  <PUBCHEM_CACTVS_TAUTO_COUNT>  (1) 
7

>  <PUBCHEM_CONFORMER_ID>  (1) 
00006B3A0000000E

>  <PUBCHEM_MMFF94_ENERGY>  (1) 
40.2566

>  <PUBCHEM_FEATURE_SELFOVERLAP>  (1) 
40.596

>  <PUBCHEM_SHAPE_FINGERPRINT>  (1) 
10062212 137 18261671562298604427
10366900 7 17346880044062100496
10465860 250 18272650155847654792
10616163 171 18411140281254349886
10670039 82 10303819817387110442
10906281 52 17988098733002558997
11045977 3 18059851788147055624
12107183 9 17760364397275694192
12236239 1 17967253091602940112
12555020 224 18337098030347562751
12616971 3 17530681031027974750
13140716 1 18198348549119603625
13167823 11 18260829306648353002
13533116 47 17916867898630834734
13551218 46 18263082132585084995
13675066 3 18113623390891115488
13760787 19 18334866051644164748
13862211 1 18339363067582789183
14341114 176 18413393129329738008
14420673 8 18193279590173772826
14790565 3 18196095448057993441
15042514 8 18336552715698689523
15196674 1 18409730681540430626
15375358 24 17917717889579768973
15537594 2 17821730499159275346
17804303 29 18341052999073048817
17859628 97 18334012761833533755
1813 80 16950288373456408750
18186145 218 14490473135791030356
19050596 39 18410574011480541116
19141452 34 18407759239795473511
20281475 54 18263363757784963022
20645477 70 13912593923863350656
21065198 57 18412261774455778760
21267235 1 18335992990869873626
21478907 32 18051130599724475695
21673915 165 18408601491994860794
22485316 2 18409729586365734280
23366157 5 17901388110293650205
23402539 116 18343013381409049085
23503953 91 18408038528950399952
23557571 272 18059585663346810244
23559900 14 18341610443195128696
23728640 28 18411140255621650747
26918003 58 18342172263497966840
3084891 72 18341898450948568993
335352 9 18410293597371458333
42 15 18335140882169344132
4214541 1 18409729547695366764
4921388 177 16153996862326699691
5104073 3 18340208599638466800
5281201 14 10953731176161781466
53777708 50 18045230589657845381
559249 180 18260824886874103163
573450 72 18335979839447768330
5924683 9 18200306744705709935
633830 44 16298386893886600012
67856867 119 18189055472742508660
7226269 152 18059859420272695137
9709674 26 18342743996559684710

>  <PUBCHEM_SHAPE_MULTIPOLES>  (1) 
359.73
11.45
2.82
0.76
10.21
2.55
0.05
-0.07
-2.05
-3.31
-0.05
0.27
-0.04
-0.53

>  <PUBCHEM_SHAPE_SELFOVERLAP>  (1) 
729.222

>  <PUBCHEM_SHAPE_VOLUME>  (1) 
215.1

>  <PUBCHEM_COORDINATE_TYPE>  (1) 
2
5
10

$$$$
