27454
     RDKit          3D

 23 24  0  0  1  0  0  0  0  0999 V2000
    5.0697   -2.1294   -0.1552 O   0  0  0  0  0  0  0  0  0  0  0  0
   -2.4239   -2.2072   -0.5041 O   0  0  0  0  0  0  0  0  0  0  0  0
   -6.4262    0.3275    1.3063 O   0  0  0  0  0  0  0  0  0  0  0  0
    1.6160   -0.8926   -0.7611 N   0  0  0  0  0  0  0  0  0  0  0  0
    2.6584   -1.7706   -0.2148 C   0  0  0  0  0  0  0  0  0  0  0  0
    4.0497   -1.2557   -0.6474 C   0  0  0  0  0  0  0  0  0  0  0  0
    0.2967   -1.3930   -0.4161 C   0  0  0  0  0  0  0  0  0  0  0  0
    2.4932   -1.8102    1.3056 C   0  0  0  0  0  0  0  0  0  0  0  0
    4.3736    0.1293   -0.1294 C   0  0  0  0  0  0  0  0  0  0  0  0
   -0.7996   -0.4918   -0.9844 C   0  0  0  0  0  0  0  0  0  0  0  0
    4.0294    1.2324   -0.8910 C   0  0  0  0  0  0  0  0  0  0  0  0
    5.0064    0.2618    1.0941 C   0  0  0  0  0  0  0  0  0  0  0  0
   -2.1922   -1.0100   -0.6564 C   0  0  0  0  0  0  0  0  0  0  0  0
   -3.3083   -0.0284   -0.5174 C   0  0  0  0  0  0  0  0  0  0  0  0
    4.3276    2.5087   -0.4138 C   0  0  0  0  0  0  0  0  0  0  0  0
    5.3045    1.5383    1.5713 C   0  0  0  0  0  0  0  0  0  0  0  0
    4.9650    2.6617    0.8172 C   0  0  0  0  0  0  0  0  0  0  0  0
   -4.3448   -0.3255    0.3377 C   0  0  0  0  0  0  0  0  0  0  0  0
   -3.2571    1.1357   -1.2495 C   0  0  0  0  0  0  0  0  0  0  0  0
   -5.3874    0.5918    0.4678 C   0  0  0  0  0  0  0  0  0  0  0  0
   -4.2996    2.0530   -1.1194 C   0  0  0  0  0  0  0  0  0  0  0  0
   -5.3647    1.7813   -0.2608 C   0  0  0  0  0  0  0  0  0  0  0  0
   -6.3861   -0.9069    2.0208 C   0  0  0  0  0  0  0  0  0  0  0  0
  1  6  1  0
  2 13  2  0
  3 20  1  0
  3 23  1  0
  4  5  1  0
  4  7  1  0
  5  6  1  0
  5  8  1  0
  6  9  1  0
  7 10  1  0
  9 11  2  0
  9 12  1  0
 10 13  1  0
 11 15  1  0
 12 16  2  0
 13 14  1  0
 14 18  2  0
 14 19  1  0
 15 17  2  0
 16 17  1  0
 18 20  1  0
 19 21  2  0
 20 22  2  0
 21 22  1  0
M  END
>  <PUBCHEM_COMPOUND_CID>  (1) 
27454

>  <PUBCHEM_CONFORMER_RMSD>  (1) 
1

>  <PUBCHEM_CONFORMER_DIVERSEORDER>  (1) 
82
234
293
71
16
181
384
141
400
32
117
415
14
46
367
155
125
292
7
266
282
113
175
423
151
69
217
8
306
74
165
381
56
185
315
264
9
283
53
405
272
411
250
431
20
76
353
358
114
200
29
248
174
357
334
401
297
261
398
422
98
203
330
1
352
243
133
278
36
169
432
403
221
320
27
70
11
323
351
268
136
354
259
166
227
428
208
286
373
256
10
364
79
388
366
340
131
305
159
65
142
40
362
173
404
316
426
346
383
319
339
201
237
190
22
213
61
291
238
123
132
214
380
279
375
312
138
392
189
31
152
333
249
290
255
24
84
78
73
318
301
285
6
277
107
348
105
324
156
5
378
397
187
104
37
23
396
17
251
257
421
308
193
409
321
92
139
328
254
59
427
412
26
83
202
331
180
130
33
160
177
281
424
307
371
149
349
86
263
158
406
77
171
298
43
163
399
110
387
211
42
329
21
326
270
389
347
121
94
162
219
343
408
418
336
178
183
355
50
311
386
231
197
233
3
245
370
287
414
109
51
391
309
395
294
115
267
137
235
335
218
164
100
81
140
4
269
327
101
313
135
258
192
209
359
374
226
303
382
134
44
284
99
54
413
239
204
48
126
322
280
34
246
148
212
215
186
317
72
417
194
2
229
332
385
344
240
369
390
206
172
265
80
88
39
429
182
379
338
58
337
124
198
365
232
407
122
25
57
49
425
62
147
368
170
244
41
64
108
161
342
45
236
402
222
146
38
296
271
252
184
393
420
253
90
97
230
304
394
95
102
434
275
289
191
416
52
167
168
410
127
157
225
241
325
299
310
103
144
106
55
360
96
112
179
273
145
262
153
87
35
196
60
91
216
67
199
150
433
63
274
260
119
228
75
341
247
68
314
242
350
376
30
93
345
220
176
66
295
430
116
143
377
13
47
288
15
356
129
300
435
18
154
372
361
118
12
276
28
207
223
19
419
128
224
210
205
188
363
195
302
120
89
111
85

>  <PUBCHEM_MMFF94_PARTIAL_CHARGES>  (1) 
33
1 -0.68
10 0.06
11 -0.15
12 -0.15
13 0.42
14 0.09
15 -0.15
16 -0.15
17 -0.15
18 -0.15
19 -0.15
2 -0.57
20 0.08
21 -0.15
22 -0.15
23 0.28
26 0.36
3 -0.36
34 0.15
35 0.15
36 0.4
37 0.15
38 0.15
39 0.15
4 -0.9
40 0.15
41 0.15
42 0.15
43 0.15
5 0.27
6 0.42
7 0.27
9 -0.14

>  <PUBCHEM_EFFECTIVE_ROTOR_COUNT>  (1) 
8

>  <PUBCHEM_PHARMACOPHORE_FEATURES>  (1) 
8
1 1 acceptor
1 1 donor
1 2 acceptor
1 3 acceptor
1 4 cation
1 4 donor
6 14 18 19 20 21 22 rings
6 9 11 12 15 16 17 rings

>  <PUBCHEM_HEAVY_ATOM_COUNT>  (1) 
23

>  <PUBCHEM_ATOM_DEF_STEREO_COUNT>  (1) 
0

>  <PUBCHEM_ATOM_UDEF_STEREO_COUNT>  (1) 
2

>  <PUBCHEM_BOND_DEF_STEREO_COUNT>  (1) 
0

>  <PUBCHEM_BOND_UDEF_STEREO_COUNT>  (1) 
0

>  <PUBCHEM_ISOTOPIC_ATOM_COUNT>  (1) 
0

>  <PUBCHEM_COMPONENT_COUNT>  (1) 
1

>  <PUBCHEM_CACTVS_TAUTO_COUNT>  (1) 
2

>  <PUBCHEM_CONFORMER_ID>  (1) 
00006B3E00000052

>  <PUBCHEM_MMFF94_ENERGY>  (1) 
66.1446

>  <PUBCHEM_FEATURE_SELFOVERLAP>  (1) 
40.596

>  <PUBCHEM_SHAPE_FINGERPRINT>  (1) 
10 15 18259986006678029073
10319926 262 17676770885957634245
11070050 100 17385716985552603682
11088757 655 17388271293283651627
11405975 8 18410004425766224454
11475781 23 12103287036578786571
11595378 159 16878210970744806124
12596602 18 18409174294645035531
12616971 3 18201148884623277542
12892183 10 17895194355636604479
12925494 130 18118960292101279669
13955234 65 18340486647759535730
14251764 75 18049446139099411180
15183329 4 11167950143087375227
15188451 53 16298387994062710107
15348495 7 18333453148721178019
16760501 71 18411704322192378021
17810953 82 18413668015863617844
17844677 252 18340209583402027479
17870717 6 11167939169767583589
1813 80 16008751311730530165
19377110 9 18040994094104778091
20028762 73 12829479359857576816
20691028 202 18130791106072386737
21315764 119 11455897953488298755
21792934 111 17968106301028556717
2215653 11 9871753481356387785
22849339 104 14117219724756026645
23559900 14 18129943360842611910
25122255 55 8070032194038815809
25269216 80 14907604775301069589
3882209 13 17250908317477747547
397830 11 18334864952243508187
465052 167 11963386319969755224
5104073 3 18115024100449428569
531348 171 11747209196039881995
5364581 5 18261681471463493545
57724786 102 17846505785581904591
59682541 52 10303542658488405169
653340 110 17896326993983820482
8988823 20 12829498081545724846
960060 61 12751242540757149300

>  <PUBCHEM_SHAPE_MULTIPOLES>  (1) 
450.74
17.89
2.69
1.44
9.98
0.67
-0.55
6.65
-6.95
-2.67
0.09
0.76
0.06
1.75

>  <PUBCHEM_SHAPE_SELFOVERLAP>  (1) 
943.889

>  <PUBCHEM_SHAPE_VOLUME>  (1) 
255

>  <PUBCHEM_COORDINATE_TYPE>  (1) 
2
5
10

$$$$
