27451
     RDKit          3D

 19 20  0  0  0  0  0  0  0  0999 V2000
   -4.7858   -2.4637   -0.6497 Br  0  0  0  0  0  0  0  0  0  0  0  0
   -4.3883    3.1513   -0.2547 Br  0  0  0  0  0  0  0  0  0  0  0  0
    6.7822    0.0096   -0.0961 Br  0  0  0  0  0  0  0  0  0  0  0  0
   -1.5225   -2.6421    0.2184 S   0  0  0  0  0  0  0  0  0  0  0  0
    0.0968    0.0030    1.9149 O   0  0  0  0  0  0  0  0  0  0  0  0
    0.7138    0.1405   -0.3446 N   0  0  0  0  0  0  0  0  0  0  0  0
   -1.6088    0.1112    0.3369 C   0  0  0  0  0  0  0  0  0  0  0  0
    2.1289    0.1100   -0.2867 C   0  0  0  0  0  0  0  0  0  0  0  0
   -0.1989    0.0878    0.7149 C   0  0  0  0  0  0  0  0  0  0  0  0
   -2.3447   -1.0455    0.0795 C   0  0  0  0  0  0  0  0  0  0  0  0
   -2.2180    1.3619    0.2372 C   0  0  0  0  0  0  0  0  0  0  0  0
   -3.6900   -0.9515   -0.2773 C   0  0  0  0  0  0  0  0  0  0  0  0
   -3.5632    1.4561   -0.1197 C   0  0  0  0  0  0  0  0  0  0  0  0
    2.7531    0.0169    0.9452 C   0  0  0  0  0  0  0  0  0  0  0  0
    2.8551    0.1739   -1.4635 C   0  0  0  0  0  0  0  0  0  0  0  0
   -4.2992    0.2994   -0.3770 C   0  0  0  0  0  0  0  0  0  0  0  0
    4.1464   -0.0131    1.0023 C   0  0  0  0  0  0  0  0  0  0  0  0
    4.2485    0.1439   -1.4066 C   0  0  0  0  0  0  0  0  0  0  0  0
    4.8943    0.0502   -0.1736 C   0  0  0  0  0  0  0  0  0  0  0  0
  1 12  1  0
  2 13  1  0
  3 19  1  0
  4 10  1  0
  5  9  2  0
  6  8  1  0
  6  9  1  0
  7  9  1  0
  7 10  2  0
  7 11  1  0
  8 14  2  0
  8 15  1  0
 10 12  1  0
 11 13  2  0
 12 16  2  0
 13 16  1  0
 14 17  1  0
 15 18  2  0
 17 19  2  0
 18 19  1  0
M  END
>  <PUBCHEM_COMPOUND_CID>  (1) 
27451

>  <PUBCHEM_CONFORMER_RMSD>  (1) 
0.6

>  <PUBCHEM_CONFORMER_DIVERSEORDER>  (1) 
1
3
5
2
4

>  <PUBCHEM_MMFF94_PARTIAL_CHARGES>  (1) 
27
1 -0.11
10 0.1
11 -0.15
12 0.11
13 0.11
14 -0.15
15 -0.15
16 -0.15
17 -0.15
18 -0.15
19 0.11
2 -0.11
20 0.37
21 0.15
22 0.15
23 0.15
24 0.15
25 0.15
26 0.15
27 0.18
3 -0.11
4 -0.28
5 -0.57
6 -0.55
7 0.09
8 0.12
9 0.54

>  <PUBCHEM_EFFECTIVE_ROTOR_COUNT>  (1) 
3

>  <PUBCHEM_PHARMACOPHORE_FEATURES>  (1) 
7
1 1 hydrophobe
1 2 hydrophobe
1 3 hydrophobe
1 5 acceptor
1 6 donor
6 7 10 11 12 13 16 rings
6 8 14 15 17 18 19 rings

>  <PUBCHEM_HEAVY_ATOM_COUNT>  (1) 
19

>  <PUBCHEM_ATOM_DEF_STEREO_COUNT>  (1) 
0

>  <PUBCHEM_ATOM_UDEF_STEREO_COUNT>  (1) 
0

>  <PUBCHEM_BOND_DEF_STEREO_COUNT>  (1) 
0

>  <PUBCHEM_BOND_UDEF_STEREO_COUNT>  (1) 
0

>  <PUBCHEM_ISOTOPIC_ATOM_COUNT>  (1) 
0

>  <PUBCHEM_COMPONENT_COUNT>  (1) 
1

>  <PUBCHEM_CACTVS_TAUTO_COUNT>  (1) 
7

>  <PUBCHEM_CONFORMER_ID>  (1) 
00006B3B00000001

>  <PUBCHEM_MMFF94_ENERGY>  (1) 
60.0233

>  <PUBCHEM_FEATURE_SELFOVERLAP>  (1) 
35.522

>  <PUBCHEM_SHAPE_FINGERPRINT>  (1) 
10411042 1 18122905593693925231
105312 117 18339921490318986189
10595046 47 18334295405183110884
10912923 1 17894907430166800312
11089746 13 17967253118206291316
11315181 36 17967816084964710508
11796584 16 18200314308570386054
12107183 9 17829036620496608506
12236239 1 17821443556087303162
12390115 104 18057049013239971913
12403259 415 17989480840276713440
12500047 106 18412824672880031462
13288520 33 18342457075506114823
13583140 156 17846491526390487974
14294032 229 18263640676941596285
14386348 63 17418098745288532326
14508225 48 18267853056163268373
15183329 4 17458340836975010866
15788980 27 18333736823221953002
16752209 62 18409440419139909827
17844677 252 18341335577861863320
17870717 6 18202010927614596783
1813 80 14333142908839449400
18186145 218 17988927747299480209
19489759 90 18413670214380178758
200 152 17749105616770454030
20279233 1 17703796924765617926
20300324 65 18335140916602890093
20645477 56 18340488872604790441
20645477 70 16630252411689621894
20871999 31 18412543215193881893
21033648 29 17346302796257678520
21033650 10 18191330211654359148
21065201 7 18342453729473325314
21426921 1 18411417315603576413
21756936 100 17676214541548259705
23081809 10 17894632552760866580
23175994 123 17060339643321337233
23366157 5 17754451253891246923
23402539 116 18409444786725699180
23557571 272 18272370879778148624
23559900 14 18059295353685311374
25147074 1 18041826317328052699
26918003 58 17060623304325540282
2838139 119 16226869079255008999
3268164 11 18411692197573386069
34797466 226 17987815136691812828
4214541 1 18411136935226419148
474 4 17095244700432593584
5283173 99 18343299258389842336
542803 24 17821451257575685468
559249 180 18337106779058924122
573450 72 18334003973939432330
6327066 14 17971465205439896277
633830 44 17241055292441340795

>  <PUBCHEM_SHAPE_MULTIPOLES>  (1) 
401.84
13.64
2.43
1.17
15.76
0.22
0.05
1.04
-2.61
-6.27
-0.26
0.92
-0.01
-0.3

>  <PUBCHEM_SHAPE_SELFOVERLAP>  (1) 
808.117

>  <PUBCHEM_SHAPE_VOLUME>  (1) 
245.8

>  <PUBCHEM_COORDINATE_TYPE>  (1) 
2
5
10

$$$$
