27459
     RDKit          3D

 15 16  0  0  0  0  0  0  0  0999 V2000
   -2.7663   -2.0546   -0.1727 Cl  0  0  0  0  0  0  0  0  0  0  0  0
   -2.8635    0.9228   -0.3268 O   0  0  0  0  0  0  0  0  0  0  0  0
   -0.6150    2.5069   -0.2539 O   0  0  0  0  0  0  0  0  0  0  0  0
    0.0733   -2.7891    0.0537 O   0  0  0  0  0  0  0  0  0  0  0  0
    0.9028    0.7160   -0.0638 C   0  0  0  0  0  0  0  0  0  0  0  0
    1.0797   -0.6659    0.0174 C   0  0  0  0  0  0  0  0  0  0  0  0
   -0.4487    1.2946   -0.1830 C   0  0  0  0  0  0  0  0  0  0  0  0
   -0.0821   -1.5754   -0.0151 C   0  0  0  0  0  0  0  0  0  0  0  0
   -1.6045    0.3651   -0.2141 C   0  0  0  0  0  0  0  0  0  0  0  0
    2.0152    1.5657   -0.0317 C   0  0  0  0  0  0  0  0  0  0  0  0
   -1.4272   -0.9603   -0.1358 C   0  0  0  0  0  0  0  0  0  0  0  0
    2.3697   -1.1987    0.1313 C   0  0  0  0  0  0  0  0  0  0  0  0
    3.2987    1.0307    0.0815 C   0  0  0  0  0  0  0  0  0  0  0  0
    3.4757   -0.3488    0.1629 C   0  0  0  0  0  0  0  0  0  0  0  0
   -3.4078    1.1908    0.9500 C   0  0  0  0  0  0  0  0  0  0  0  0
  1 11  1  0
  2  9  1  0
  2 15  1  0
  3  7  2  0
  4  8  2  0
  5  6  2  0
  5  7  1  0
  5 10  1  0
  6  8  1  0
  6 12  1  0
  7  9  1  0
  8 11  1  0
  9 11  2  0
 10 13  2  0
 12 14  2  0
 13 14  1  0
M  END
>  <PUBCHEM_COMPOUND_CID>  (1) 
27459

>  <PUBCHEM_CONFORMER_RMSD>  (1) 
0.4

>  <PUBCHEM_CONFORMER_DIVERSEORDER>  (1) 
2
1

>  <PUBCHEM_MMFF94_PARTIAL_CHARGES>  (1) 
19
1 -0.14
10 -0.15
11 0.15
12 -0.15
13 -0.15
14 -0.15
15 0.28
16 0.15
17 0.15
18 0.15
19 0.15
2 -0.36
3 -0.57
4 -0.57
5 0.09
6 0.09
7 0.47
8 0.47
9 0.09

>  <PUBCHEM_EFFECTIVE_ROTOR_COUNT>  (1) 
1

>  <PUBCHEM_PHARMACOPHORE_FEATURES>  (1) 
5
1 2 acceptor
1 3 acceptor
1 4 acceptor
6 5 6 10 12 13 14 rings
6 5 6 7 8 9 11 rings

>  <PUBCHEM_HEAVY_ATOM_COUNT>  (1) 
15

>  <PUBCHEM_ATOM_DEF_STEREO_COUNT>  (1) 
0

>  <PUBCHEM_ATOM_UDEF_STEREO_COUNT>  (1) 
0

>  <PUBCHEM_BOND_DEF_STEREO_COUNT>  (1) 
0

>  <PUBCHEM_BOND_UDEF_STEREO_COUNT>  (1) 
0

>  <PUBCHEM_ISOTOPIC_ATOM_COUNT>  (1) 
0

>  <PUBCHEM_COMPONENT_COUNT>  (1) 
1

>  <PUBCHEM_CACTVS_TAUTO_COUNT>  (1) 
1

>  <PUBCHEM_CONFORMER_ID>  (1) 
00006B4300000002

>  <PUBCHEM_MMFF94_ENERGY>  (1) 
45.5094

>  <PUBCHEM_FEATURE_SELFOVERLAP>  (1) 
25.398

>  <PUBCHEM_SHAPE_FINGERPRINT>  (1) 
10967382 1 18338233747958475086
11132069 177 18412256220994272448
11471102 20 18265891367735333821
12251169 10 18411704261746227505
12382932 28 18412263938839558769
12491281 212 18411427227728673816
13140716 1 18410291406368256243
13380535 21 18411991251429187158
13380535 76 18411696552359136791
13897977 150 18411133623700963557
14325111 11 18410854390871339100
15196674 1 18410572920474289420
15309172 13 18410016506996979625
15442244 35 18410570669869624674
15775835 57 18410579474357188232
16945 1 18265890250795644078
17844478 74 17822298937685112293
18186145 218 18341614789353625844
193761 8 17545881529651849660
20510252 161 18200314458192153937
20588541 1 18339927000133856679
20871998 184 18200876278627328559
21267235 1 18337679714420924974
21501502 16 18410574032702066014
22802520 49 18201173061157736446
2334 1 18338233889676636607
23388829 49 18051970621526340455
23402539 116 18198891698809956654
23419403 2 15462884672423022255
23463225 33 18335420183612891732
23559900 14 18343025523925237892
2748010 2 18410009974351735367
335352 9 18194681462581000590
5104073 3 18410851092832140514
528886 8 18411131424677669104
53812653 166 18342172271845314952
58807428 26 18409158888186095946
6333449 129 18411695525819456180
7364860 26 18053946147579604206
81228 2 18048587415531307451
8809292 202 18334580118349170762

>  <PUBCHEM_SHAPE_MULTIPOLES>  (1) 
292.95
5.21
2.56
0.69
0.45
0.51
-0.06
-0.6
-0.64
-0.94
0.03
-0.21
-0.09
-0.34

>  <PUBCHEM_SHAPE_SELFOVERLAP>  (1) 
631.85

>  <PUBCHEM_SHAPE_VOLUME>  (1) 
162.2

>  <PUBCHEM_COORDINATE_TYPE>  (1) 
2
5
10

$$$$
