27469
     RDKit          3D

 12 12  0  0  0  0  0  0  0  0999 V2000
    4.5244    0.7424    0.1528 Cl  0  0  0  0  0  0  0  0  0  0  0  0
   -4.7987    1.2753    0.3536 Cl  0  0  0  0  0  0  0  0  0  0  0  0
   -1.6181   -1.8384   -0.4181 O   0  0  0  0  0  0  0  0  0  0  0  0
    0.1502   -0.3311   -0.0869 C   0  0  0  0  0  0  0  0  0  0  0  0
    0.5685    0.9631   -0.3960 C   0  0  0  0  0  0  0  0  0  0  0  0
    1.0845   -1.2933    0.2963 C   0  0  0  0  0  0  0  0  0  0  0  0
    1.9213    1.2950   -0.3222 C   0  0  0  0  0  0  0  0  0  0  0  0
    2.4373   -0.9612    0.3703 C   0  0  0  0  0  0  0  0  0  0  0  0
   -1.2601   -0.6779   -0.1643 C   0  0  0  0  0  0  0  0  0  0  0  0
    2.8556    0.3329    0.0611 C   0  0  0  0  0  0  0  0  0  0  0  0
   -2.2811    0.3900    0.0998 C   0  0  0  0  0  0  0  0  0  0  0  0
   -3.5837    0.1031    0.0535 C   0  0  0  0  0  0  0  0  0  0  0  0
  1 10  1  0
  2 12  1  0
  3  9  2  0
  4  5  2  0
  4  6  1  0
  4  9  1  0
  5  7  1  0
  6  8  2  0
  7 10  2  0
  8 10  1  0
  9 11  1  0
 11 12  2  0
M  END
>  <PUBCHEM_COMPOUND_CID>  (1) 
27469

>  <PUBCHEM_CONFORMER_RMSD>  (1) 
0.6

>  <PUBCHEM_CONFORMER_DIVERSEORDER>  (1) 
1
3
2

>  <PUBCHEM_MMFF94_PARTIAL_CHARGES>  (1) 
18
1 -0.18
10 0.18
11 -0.14
12 -0.01
13 0.15
14 0.15
15 0.15
16 0.15
17 0.15
18 0.15
2 -0.14
3 -0.57
4 0.09
5 -0.15
6 -0.15
7 -0.15
8 -0.15
9 0.47

>  <PUBCHEM_EFFECTIVE_ROTOR_COUNT>  (1) 
2

>  <PUBCHEM_PHARMACOPHORE_FEATURES>  (1) 
2
1 3 acceptor
6 4 5 6 7 8 10 rings

>  <PUBCHEM_HEAVY_ATOM_COUNT>  (1) 
12

>  <PUBCHEM_ATOM_DEF_STEREO_COUNT>  (1) 
0

>  <PUBCHEM_ATOM_UDEF_STEREO_COUNT>  (1) 
0

>  <PUBCHEM_BOND_DEF_STEREO_COUNT>  (1) 
0

>  <PUBCHEM_BOND_UDEF_STEREO_COUNT>  (1) 
1

>  <PUBCHEM_ISOTOPIC_ATOM_COUNT>  (1) 
0

>  <PUBCHEM_COMPONENT_COUNT>  (1) 
1

>  <PUBCHEM_CACTVS_TAUTO_COUNT>  (1) 
1

>  <PUBCHEM_CONFORMER_ID>  (1) 
00006B4D00000001

>  <PUBCHEM_MMFF94_ENERGY>  (1) 
30.1052

>  <PUBCHEM_FEATURE_SELFOVERLAP>  (1) 
10.148

>  <PUBCHEM_SHAPE_FINGERPRINT>  (1) 
10354089 29 18334867099595267777
10980938 120 18333730186933160187
11062470 55 17775566446377214784
11471102 20 18335698312778462869
12251169 10 18334294283727239053
12346645 6 18341050727014321846
12500047 106 17988919011288728510
12932764 1 17240749709924084190
13380535 76 18411138051907639463
13760787 5 17604140515423970550
14144814 61 18410292497532490273
14252887 29 12468636097445511768
14325111 11 18410856560188396279
14897335 6 18413106173563190479
15775835 57 18411139147160859385
16945 1 18334282176509739910
177051 138 8070027765811313481
17844478 74 17168141209131718669
18511873 20 18409449206310375940
19026448 4 17131272488735551454
20645477 70 18339922597935348959
20871998 22 18050001087285751162
22485316 2 7997678784587097217
23402539 116 17846492634666402813
23402655 69 18271519819598168229
23559900 14 18131633422468604608
5104073 3 18408601478492307099
528886 8 18408879668151351370
53655031 270 18409165498309439104
53812653 166 18411695521841169064
7364860 26 18270963427970403270

>  <PUBCHEM_SHAPE_MULTIPOLES>  (1) 
244.82
8.04
1.52
0.68
3.99
0.27
0.01
-3.55
1.16
0.1
-0.06
0.01
-0.01
-0.41

>  <PUBCHEM_SHAPE_SELFOVERLAP>  (1) 
490.511

>  <PUBCHEM_SHAPE_VOLUME>  (1) 
146.3

>  <PUBCHEM_COORDINATE_TYPE>  (1) 
2
5
10

$$$$
