27465
     RDKit          3D

 18 19  0  0  0  0  0  0  0  0999 V2000
   -0.4847   -1.9699   -1.9984 Cl  0  0  0  0  0  0  0  0  0  0  0  0
    0.4848   -1.9706    1.9977 Cl  0  0  0  0  0  0  0  0  0  0  0  0
   -3.7476    1.9592    1.5976 Cl  0  0  0  0  0  0  0  0  0  0  0  0
    3.7476    1.9598   -1.5969 Cl  0  0  0  0  0  0  0  0  0  0  0  0
   -4.9061    0.0357   -0.4562 N   0  0  0  0  0  0  0  0  0  0  0  0
    4.9061    0.0355    0.4562 N   0  0  0  0  0  0  0  0  0  0  0  0
   -0.7213   -0.0347   -0.0774 C   0  0  0  0  0  0  0  0  0  0  0  0
    0.7213   -0.0348    0.0773 C   0  0  0  0  0  0  0  0  0  0  0  0
   -1.3625   -0.8732   -0.9891 C   0  0  0  0  0  0  0  0  0  0  0  0
    1.3626   -0.8736    0.9889 C   0  0  0  0  0  0  0  0  0  0  0  0
   -1.4695    0.8343    0.7168 C   0  0  0  0  0  0  0  0  0  0  0  0
    1.4696    0.8346   -0.7165 C   0  0  0  0  0  0  0  0  0  0  0  0
   -3.5003    0.0265   -0.3129 C   0  0  0  0  0  0  0  0  0  0  0  0
    3.5003    0.0264    0.3129 C   0  0  0  0  0  0  0  0  0  0  0  0
   -2.8590    0.8650    0.5989 C   0  0  0  0  0  0  0  0  0  0  0  0
    2.8590    0.8652   -0.5987 C   0  0  0  0  0  0  0  0  0  0  0  0
   -2.7520   -0.8426   -1.1069 C   0  0  0  0  0  0  0  0  0  0  0  0
    2.7520   -0.8429    1.1066 C   0  0  0  0  0  0  0  0  0  0  0  0
  1  9  1  0
  2 10  1  0
  3 15  1  0
  4 16  1  0
  5 13  1  0
  6 14  1  0
  7  8  1  0
  7  9  2  0
  7 11  1  0
  8 10  2  0
  8 12  1  0
  9 17  1  0
 10 18  1  0
 11 15  2  0
 12 16  2  0
 13 15  1  0
 13 17  2  0
 14 16  1  0
 14 18  2  0
M  END
>  <PUBCHEM_COMPOUND_CID>  (1) 
27465

>  <PUBCHEM_CONFORMER_RMSD>  (1) 
0.6

>  <PUBCHEM_CONFORMER_DIVERSEORDER>  (1) 
2
1

>  <PUBCHEM_MMFF94_PARTIAL_CHARGES>  (1) 
24
1 -0.18
10 0.18
11 -0.15
12 -0.15
13 0.1
14 0.1
15 0.18
16 0.18
17 -0.15
18 -0.15
19 0.15
2 -0.18
20 0.15
21 0.15
22 0.15
23 0.4
24 0.4
25 0.4
26 0.4
3 -0.18
4 -0.18
5 -0.9
6 -0.9
9 0.18

>  <PUBCHEM_EFFECTIVE_ROTOR_COUNT>  (1) 
1

>  <PUBCHEM_PHARMACOPHORE_FEATURES>  (1) 
6
1 5 cation
1 5 donor
1 6 cation
1 6 donor
6 7 9 11 13 15 17 rings
6 8 10 12 14 16 18 rings

>  <PUBCHEM_HEAVY_ATOM_COUNT>  (1) 
18

>  <PUBCHEM_ATOM_DEF_STEREO_COUNT>  (1) 
0

>  <PUBCHEM_ATOM_UDEF_STEREO_COUNT>  (1) 
0

>  <PUBCHEM_BOND_DEF_STEREO_COUNT>  (1) 
0

>  <PUBCHEM_BOND_UDEF_STEREO_COUNT>  (1) 
0

>  <PUBCHEM_ISOTOPIC_ATOM_COUNT>  (1) 
0

>  <PUBCHEM_COMPONENT_COUNT>  (1) 
1

>  <PUBCHEM_CACTVS_TAUTO_COUNT>  (1) 
1

>  <PUBCHEM_CONFORMER_ID>  (1) 
00006B4900000002

>  <PUBCHEM_MMFF94_ENERGY>  (1) 
71.8603

>  <PUBCHEM_FEATURE_SELFOVERLAP>  (1) 
30.446

>  <PUBCHEM_SHAPE_FINGERPRINT>  (1) 
10498660 4 17560522790060439841
11471102 20 17603863395280308312
11578080 2 17689945268214837540
12236239 1 18410849962570035913
12390115 104 17172956160124955748
12500047 106 17346590872688761030
12788726 201 17979356687469392374
12916748 109 17846782927010252033
13140716 1 17630879616151866547
13538477 17 18269823350175855159
13583140 156 17678470658284372081
13965767 371 17910686366633965473
14787075 74 18044382857861455843
15309172 13 17458063772233082386
15342168 16 17168996753795659292
15375358 24 15502369011614036211
16752209 62 17917979582327517207
16945 1 18410864260516248743
1813 80 18046062658463308842
18175812 5 15719395044267177523
18186145 218 18040156232026689932
19422 9 18410571790423448707
200 152 18040425595169213001
204376 136 17603873346450494994
20510252 161 17132114632885101481
20645476 183 18411128169493801375
20645477 70 17241313686232485762
21486144 27 17168143498576069052
21524375 3 18410857663446397637
21756936 100 18118709796670492084
22079108 93 18042136516639882945
22854114 59 17167863075476059581
23366157 5 17983310231035792183
23402539 116 17346306103224363901
23493267 7 18271814510141847179
23526113 38 15339120160498454526
23557571 272 16917067776242541032
23559900 14 16630253520023396380
23598291 2 18409450254208640773
2748010 2 17199642376740420991
298252 57 18202288008628942026
4340502 62 17821731646015477795
474 4 18115307911915241340
633830 44 18261972768265077372
77492 1 18410568487593318755
81228 2 16411503658479207607
8272917 22 17968652701591732635

>  <PUBCHEM_SHAPE_MULTIPOLES>  (1) 
367.95
8.04
1.89
1.79
0
0.02
0
-3.6
0
0
0
0
0.56
-2.26

>  <PUBCHEM_SHAPE_SELFOVERLAP>  (1) 
763.892

>  <PUBCHEM_SHAPE_VOLUME>  (1) 
210.9

>  <PUBCHEM_COORDINATE_TYPE>  (1) 
2
5
10

$$$$
