27466
     RDKit          3D

 15 15  0  0  0  0  0  0  0  0999 V2000
   -0.0001   -1.9365   -0.1714 Si  0  0  0  0  0  4  0  0  0  0  0  0
    2.2814    0.2205    0.2923 Si  0  0  0  0  0  4  0  0  0  0  0  0
   -2.2814    0.2205    0.2924 Si  0  0  0  0  0  4  0  0  0  0  0  0
    0.0001    2.4110    0.3717 Si  0  0  0  0  0  4  0  0  0  0  0  0
    1.3670   -1.1741    0.4173 O   0  0  0  0  0  0  0  0  0  0  0  0
   -1.3670   -1.1740    0.4174 O   0  0  0  0  0  0  0  0  0  0  0  0
    1.3688    1.5439    0.7540 O   0  0  0  0  0  0  0  0  0  0  0  0
   -1.3688    1.5439    0.7539 O   0  0  0  0  0  0  0  0  0  0  0  0
    0.0000   -1.9560   -2.0521 C   0  0  0  0  0  0  0  0  0  0  0  0
   -0.0002   -3.7342    0.3990 C   0  0  0  0  0  0  0  0  0  0  0  0
    3.7861    0.0790    1.4199 C   0  0  0  0  0  0  0  0  0  0  0  0
    2.9263    0.4390   -1.4616 C   0  0  0  0  0  0  0  0  0  0  0  0
   -2.9262    0.4390   -1.4617 C   0  0  0  0  0  0  0  0  0  0  0  0
   -3.7862    0.0792    1.4198 C   0  0  0  0  0  0  0  0  0  0  0  0
    0.0001    2.9987   -1.3907 C   0  0  0  0  0  0  0  0  0  0  0  0
  1  5  1  0
  1  6  1  0
  1  9  1  0
  1 10  1  0
  2  5  1  0
  2  7  1  0
  2 11  1  0
  2 12  1  0
  3  6  1  0
  3  8  1  0
  3 13  1  0
  3 14  1  0
  4  7  1  0
  4  8  1  0
  4 15  1  0
M  END
>  <PUBCHEM_COMPOUND_CID>  (1) 
27466

>  <PUBCHEM_CONFORMER_RMSD>  (1) 
0.6

>  <PUBCHEM_CONFORMER_DIVERSEORDER>  (1) 
4
1
3
2
5
6

>  <PUBCHEM_MMFF94_PARTIAL_CHARGES>  (1) 
16
1 0.76
10 -0.08
11 -0.08
12 -0.08
13 -0.08
14 -0.08
15 -0.08
16 -0.2
2 0.76
3 0.76
4 0.88
5 -0.59
6 -0.59
7 -0.59
8 -0.59
9 -0.08

>  <PUBCHEM_EFFECTIVE_ROTOR_COUNT>  (1) 
1.6

>  <PUBCHEM_PHARMACOPHORE_FEATURES>  (1) 
0

>  <PUBCHEM_HEAVY_ATOM_COUNT>  (1) 
15

>  <PUBCHEM_ATOM_DEF_STEREO_COUNT>  (1) 
0

>  <PUBCHEM_ATOM_UDEF_STEREO_COUNT>  (1) 
0

>  <PUBCHEM_BOND_DEF_STEREO_COUNT>  (1) 
0

>  <PUBCHEM_BOND_UDEF_STEREO_COUNT>  (1) 
0

>  <PUBCHEM_ISOTOPIC_ATOM_COUNT>  (1) 
0

>  <PUBCHEM_COMPONENT_COUNT>  (1) 
1

>  <PUBCHEM_CACTVS_TAUTO_COUNT>  (1) 
1

>  <PUBCHEM_CONFORMER_ID>  (1) 
00006B4A00000004

>  <PUBCHEM_MMFF94_ENERGY>  (1) 
-0.6108

>  <PUBCHEM_FEATURE_SELFOVERLAP>  (1) 
0

>  <PUBCHEM_SHAPE_FINGERPRINT>  (1) 
10382601 240 18127142882924210739
104564 63 18268440026893121833
10863032 1 16008749112686207165
11132069 177 18272083872825298120
12596599 1 17632571660808344701
12633257 1 18117016531599296267
13132413 78 18048023371005128424
13140716 1 18268709596167253896
13172582 1 18412825810735089912
1420 336 18055627567109301830
14251711 518 18051409862201399174
14251745 187 18057909973192079252
14614273 12 18120928417313143936
14817 1 11974160709040299989
15775835 57 18060133219646540082
15852999 172 17469290683817644048
15881359 60 18265307608459615477
16945 1 18412826884476900865
18219364 16 18408035230452251609
19930374 2 18264470815992434168
20511035 2 18053954131844413393
20600515 1 18271526493914289712
20645476 183 18041287685120517910
20905425 154 17982178811678852638
21524375 3 18201431480444254650
229495 10 16878215484902997230
2334 1 17908135826032185080
23402539 116 18129077044299998262
23419403 2 15665827739715645473
23557571 272 16543564449160237670
23558518 356 17545031603085526093
2748010 2 18052258384208669192
3060560 45 18195778913046396229
3250762 1 17687742735970387697
465052 167 17969238887608220587
589210 1 17689156029318718906
70251023 43 17840022936777236799
81228 2 18126829724147966706

>  <PUBCHEM_SHAPE_MULTIPOLES>  (1) 
358.07
4.8
3.65
1.67
0
1.22
0.59
-0.79
-1.4
0
0.48
0
-0.04
0

>  <PUBCHEM_SHAPE_SELFOVERLAP>  (1) 
628.061

>  <PUBCHEM_SHAPE_VOLUME>  (1) 
233.7

>  <PUBCHEM_COORDINATE_TYPE>  (1) 
2
5
10

$$$$
