27479
     RDKit          3D

 16 18  0  0  0  0  0  0  0  0999 V2000
    0.4726    2.0689   -0.2003 S   0  0  0  0  0  0  0  0  0  0  0  0
    0.1319   -2.3354   -0.2639 O   0  0  0  0  0  0  0  0  0  0  0  0
   -1.0133   -0.3067   -0.0605 C   0  0  0  0  0  0  0  0  0  0  0  0
   -0.9993    1.0903   -0.0753 C   0  0  0  0  0  0  0  0  0  0  0  0
    1.5716   -0.5070   -0.0345 C   0  0  0  0  0  0  0  0  0  0  0  0
    0.2250   -1.1180   -0.1307 C   0  0  0  0  0  0  0  0  0  0  0  0
    1.7735    0.8755   -0.0476 C   0  0  0  0  0  0  0  0  0  0  0  0
   -2.2396   -0.9898    0.0229 C   0  0  0  0  0  0  0  0  0  0  0  0
   -3.4422   -0.2879    0.0928 C   0  0  0  0  0  0  0  0  0  0  0  0
   -2.2197    1.7842   -0.0060 C   0  0  0  0  0  0  0  0  0  0  0  0
   -3.4325    1.1006    0.0787 C   0  0  0  0  0  0  0  0  0  0  0  0
    2.6762   -1.3707    0.0725 C   0  0  0  0  0  0  0  0  0  0  0  0
    3.0845    1.3732    0.0471 C   0  0  0  0  0  0  0  0  0  0  0  0
   -4.7350   -1.0259    0.1822 C   0  0  0  0  0  0  0  0  0  0  0  0
    3.9708   -0.8623    0.1675 C   0  0  0  0  0  0  0  0  0  0  0  0
    4.1755    0.5111    0.1551 C   0  0  0  0  0  0  0  0  0  0  0  0
  1  4  1  0
  1  7  1  0
  2  6  2  0
  3  4  2  0
  3  6  1  0
  3  8  1  0
  4 10  1  0
  5  6  1  0
  5  7  2  0
  5 12  1  0
  7 13  1  0
  8  9  2  0
  9 11  1  0
  9 14  1  0
 10 11  2  0
 12 15  2  0
 13 16  2  0
 15 16  1  0
M  END
>  <PUBCHEM_COMPOUND_CID>  (1) 
27479

>  <PUBCHEM_CONFORMER_RMSD>  (1) 
0.4

>  <PUBCHEM_CONFORMER_DIVERSEORDER>  (1) 
1

>  <PUBCHEM_MMFF94_PARTIAL_CHARGES>  (1) 
23
1 -0.2
10 -0.15
11 -0.15
12 -0.15
13 -0.15
14 0.14
15 -0.15
16 -0.15
17 0.15
18 0.15
19 0.15
2 -0.57
20 0.15
21 0.15
25 0.15
26 0.15
3 0.09
4 0.1
5 0.09
6 0.4
7 0.1
8 -0.15
9 -0.14

>  <PUBCHEM_EFFECTIVE_ROTOR_COUNT>  (1) 
0

>  <PUBCHEM_PHARMACOPHORE_FEATURES>  (1) 
4
1 2 acceptor
6 1 3 4 5 6 7 rings
6 3 4 8 9 10 11 rings
6 5 7 12 13 15 16 rings

>  <PUBCHEM_HEAVY_ATOM_COUNT>  (1) 
16

>  <PUBCHEM_ATOM_DEF_STEREO_COUNT>  (1) 
0

>  <PUBCHEM_ATOM_UDEF_STEREO_COUNT>  (1) 
0

>  <PUBCHEM_BOND_DEF_STEREO_COUNT>  (1) 
0

>  <PUBCHEM_BOND_UDEF_STEREO_COUNT>  (1) 
0

>  <PUBCHEM_ISOTOPIC_ATOM_COUNT>  (1) 
0

>  <PUBCHEM_COMPONENT_COUNT>  (1) 
1

>  <PUBCHEM_CACTVS_TAUTO_COUNT>  (1) 
1

>  <PUBCHEM_CONFORMER_ID>  (1) 
00006B5700000001

>  <PUBCHEM_MMFF94_ENERGY>  (1) 
47.2997

>  <PUBCHEM_FEATURE_SELFOVERLAP>  (1) 
20.325

>  <PUBCHEM_SHAPE_FINGERPRINT>  (1) 
10062212 137 18411410688089159035
10411042 1 15456494805686994381
10608611 8 18338232669879830077
10967382 1 18410575123333615358
10980938 120 18410013230274601170
11132069 177 18410007710914643200
11471102 20 18410006658663311100
11806522 49 18409728504134202575
12032990 46 18410859832547300478
12251169 10 18410011065268101662
12403259 226 18410286987026665604
13140716 1 18267017250457006696
13214271 11 18412259506871029357
13221675 6 18410009944302736398
13380535 76 18410293609728923571
13862211 1 18410568513458561775
14144814 61 18410573967997994792
14325111 11 18411136918062367684
15196674 1 18410573968013981352
15309172 13 18413395332115132931
15442244 35 18194401083216563034
15536298 74 18342739611413483644
15775835 57 18272090512923774368
16945 1 18194400215358888524
17802600 8 18411132545690682393
17804303 29 18412548695266371868
18186145 218 18272658900485185964
18522853 276 18412262843791742233
193761 8 17762337320003347348
19591789 44 18411137996173343398
200 152 18201709661924354277
20261772 1 18272373130589015967
20510252 161 18272653424148949257
21249577 43 18410573968019223668
21267235 1 18410301310737108610
21501502 16 18337955580148903865
2334 1 18410855464602691604
23402539 116 18342728628775958694
23463225 33 18408041788651236068
23559900 14 18124308312152265650
2748010 2 18410571751969112404
2871803 45 18334007290039325911
335352 9 17978509737092455620
43471831 8 18334854961659272474
474 4 17169279337301453348
5104073 3 18410855430100418905
537710 114 18410298046514549460
69090 78 18343579672224495206
7364860 26 18126286337575542766
84936 31 16198746792430365734
8809292 202 18187370969066972643
9709674 26 18410580569394916326

>  <PUBCHEM_SHAPE_MULTIPOLES>  (1) 
327.25
7.78
2.11
0.63
1.21
0.17
0
-0.98
-0.73
0.01
0.1
-0.01
0.02
0.02

>  <PUBCHEM_SHAPE_SELFOVERLAP>  (1) 
714.761

>  <PUBCHEM_SHAPE_VOLUME>  (1) 
178.2

>  <PUBCHEM_COORDINATE_TYPE>  (1) 
2
5
10

$$$$
