2747
     RDKit          3D

 20 23  0  0  1  0  0  0  0  0999 V2000
    2.2643   -2.2352    0.7577 N   0  0  0  0  0  0  0  0  0  0  0  0
    2.6968   -0.7575   -0.9335 N   0  0  0  0  0  0  0  0  0  0  0  0
   -0.4336   -0.2525   -0.5714 C   0  0  0  0  0  0  0  0  0  0  0  0
    0.4002   -1.4990   -0.6402 C   0  0  0  0  0  0  0  0  0  0  0  0
   -0.0360   -0.8162   -1.9040 C   0  0  0  0  0  0  0  0  0  0  0  0
    0.2013    1.0285   -0.1491 C   0  0  0  0  0  0  0  0  0  0  0  0
   -1.8579   -0.3996   -0.1560 C   0  0  0  0  0  0  0  0  0  0  0  0
    1.8286   -1.4799   -0.2814 C   0  0  0  0  0  0  0  0  0  0  0  0
    0.8528    1.1111    1.0812 C   0  0  0  0  0  0  0  0  0  0  0  0
   -2.8780    0.0479   -0.9948 C   0  0  0  0  0  0  0  0  0  0  0  0
    0.1415    2.1442   -0.9838 C   0  0  0  0  0  0  0  0  0  0  0  0
   -2.1686   -0.9826    1.0722 C   0  0  0  0  0  0  0  0  0  0  0  0
    3.6774   -2.0558    0.9123 C   0  0  0  0  0  0  0  0  0  0  0  0
    3.9817   -1.0581   -0.2221 C   0  0  0  0  0  0  0  0  0  0  0  0
    1.4447    2.3104    1.4774 C   0  0  0  0  0  0  0  0  0  0  0  0
   -4.2105   -0.0874   -0.6050 C   0  0  0  0  0  0  0  0  0  0  0  0
    0.7336    3.3435   -0.5875 C   0  0  0  0  0  0  0  0  0  0  0  0
   -3.5012   -1.1180    1.4618 C   0  0  0  0  0  0  0  0  0  0  0  0
    1.3851    3.4265    0.6430 C   0  0  0  0  0  0  0  0  0  0  0  0
   -4.5221   -0.6704    0.6231 C   0  0  0  0  0  0  0  0  0  0  0  0
  1  8  1  0
  1 13  1  0
  2  8  2  0
  2 14  1  0
  3  4  1  0
  3  5  1  0
  3  6  1  0
  3  7  1  0
  4  5  1  0
  4  8  1  0
  6  9  2  0
  6 11  1  0
  7 10  2  0
  7 12  1  0
  9 15  1  0
 10 16  1  0
 11 17  2  0
 12 18  2  0
 13 14  1  0
 15 19  2  0
 16 20  2  0
 17 19  1  0
 18 20  1  0
M  END
>  <PUBCHEM_COMPOUND_CID>  (1) 
2747

>  <PUBCHEM_CONFORMER_RMSD>  (1) 
0.6

>  <PUBCHEM_CONFORMER_DIVERSEORDER>  (1) 
1
5
4
6
2
3
8
7

>  <PUBCHEM_MMFF94_PARTIAL_CHARGES>  (1) 
34
1 -0.82
10 -0.15
11 -0.15
12 -0.15
13 0.37
14 0.25
15 -0.15
16 -0.15
17 -0.15
18 -0.15
19 -0.15
2 -0.7
20 -0.15
21 0.1
22 0.1
23 0.1
24 0.4
25 0.15
26 0.15
27 0.15
28 0.15
3 0.06
33 0.15
34 0.15
35 0.15
36 0.15
37 0.15
38 0.15
4 -0.1
5 -0.2
6 -0.03
7 -0.03
8 0.5
9 -0.15

>  <PUBCHEM_EFFECTIVE_ROTOR_COUNT>  (1) 
4.2

>  <PUBCHEM_PHARMACOPHORE_FEATURES>  (1) 
5
1 1 donor
3 1 2 8 cation
5 1 2 8 13 14 rings
6 6 9 11 15 17 19 rings
6 7 10 12 16 18 20 rings

>  <PUBCHEM_HEAVY_ATOM_COUNT>  (1) 
20

>  <PUBCHEM_ATOM_DEF_STEREO_COUNT>  (1) 
0

>  <PUBCHEM_ATOM_UDEF_STEREO_COUNT>  (1) 
1

>  <PUBCHEM_BOND_DEF_STEREO_COUNT>  (1) 
0

>  <PUBCHEM_BOND_UDEF_STEREO_COUNT>  (1) 
0

>  <PUBCHEM_ISOTOPIC_ATOM_COUNT>  (1) 
0

>  <PUBCHEM_COMPONENT_COUNT>  (1) 
1

>  <PUBCHEM_CACTVS_TAUTO_COUNT>  (1) 
1

>  <PUBCHEM_CONFORMER_ID>  (1) 
00000ABB00000001

>  <PUBCHEM_MMFF94_ENERGY>  (1) 
60.1897

>  <PUBCHEM_FEATURE_SELFOVERLAP>  (1) 
25.373

>  <PUBCHEM_SHAPE_FINGERPRINT>  (1) 
10382601 240 18269258231590971400
104564 63 18127421055092227604
10465860 250 18260264101420675099
11578080 2 17603851304446522965
11640471 11 17487331792791698985
12592029 89 18119539979241066072
12788726 201 17902223417107647170
13132413 78 18198917928264884249
13134695 92 18411132528721816613
13140716 1 17908417305610156000
13294875 104 17558548264392041296
133893 2 18052228955324723188
13681431 1 18341066158578530861
14022349 108 18270956963849164712
14181834 199 18130783516168393861
14713325 29 17195195625305826014
14787075 74 18115037419159350462
14943834 7 17698988906035116686
14955137 171 17916607430138715462
15238133 3 18122931762528492745
1601671 61 18059303041217965269
16945 1 17917711275298776807
17357779 13 18128805361606149093
17876694 64 17775017742999107265
17980427 23 17775288210301971305
1813 80 17987534648913664302
18222031 100 18131068203701845543
18785283 64 18117561953353623896
20097449 115 18411420570450275928
20510252 161 18122057607607897462
20600515 1 18197522678010652358
20723712 36 17489602146447241787
21029758 27 18412546483542538572
21041028 32 18342746191203583329
21304253 335 17059226830369678265
21524375 3 17552647258716164221
21731228 192 17618500325565441225
23175994 123 18336832991878267279
23184049 59 18130782369380463999
23419403 2 18190153763971546140
23557571 272 18053386492103203310
23558518 356 17548977110314135614
23559900 14 17676773184039613215
2748010 2 18126539285637910116
350125 39 17908713073932033463
3729539 64 17902266552060833364
497634 4 17607532324308147870
57672749 33 18411982493990812240
5895379 119 16340927995635575305
6049 1 18040996284885933821
69474 34 18271514343277255138
7364860 26 18340208617029370697
7495541 125 18261682553489147547
81228 2 17764325945738207205
9981440 41 14423537161225424391
9999458 23 18120104036958362140

>  <PUBCHEM_SHAPE_MULTIPOLES>  (1) 
401.63
6.48
3.31
1.46
4.52
3.24
0
-4.13
-1.41
-3.55
-0.52
0.24
-0.01
0.5

>  <PUBCHEM_SHAPE_SELFOVERLAP>  (1) 
885.572

>  <PUBCHEM_SHAPE_VOLUME>  (1) 
213.9

>  <PUBCHEM_COORDINATE_TYPE>  (1) 
2
5
10

$$$$
