27475
     RDKit          3D

  8  8  0  0  0  0  0  0  0  0999 V2000
    2.6096   -0.8839   -0.0161 O   0  0  0  0  0  0  0  0  0  0  0  0
    1.9267    1.2750    0.0268 O   0  0  0  0  0  0  0  0  0  0  0  0
    0.1973   -0.5307   -0.0130 C   0  0  0  0  0  0  0  0  0  0  0  0
   -0.7448    0.0232   -1.1029 C   0  0  0  0  0  0  0  0  0  0  0  0
   -0.7434   -0.0271    1.1023 C   0  0  0  0  0  0  0  0  0  0  0  0
   -1.7793    0.0168    0.0008 C   0  0  0  0  0  0  0  0  0  0  0  0
    1.6464    0.0790   -0.0001 C   0  0  0  0  0  0  0  0  0  0  0  0
   -3.1125    0.0476    0.0023 C   0  0  0  0  0  0  0  0  0  0  0  0
  1  7  1  0
  2  7  2  0
  3  4  1  0
  3  5  1  0
  3  7  1  0
  4  6  1  0
  5  6  1  0
  6  8  2  0
M  END
>  <PUBCHEM_COMPOUND_CID>  (1) 
27475

>  <PUBCHEM_CONFORMER_RMSD>  (1) 
0.4

>  <PUBCHEM_CONFORMER_DIVERSEORDER>  (1) 
1
5
3
4
2

>  <PUBCHEM_MMFF94_PARTIAL_CHARGES>  (1) 
11
1 -0.65
14 0.15
15 0.15
16 0.5
2 -0.57
3 0.05
4 0.14
5 0.14
6 -0.31
7 0.67
8 -0.27

>  <PUBCHEM_EFFECTIVE_ROTOR_COUNT>  (1) 
1.6

>  <PUBCHEM_PHARMACOPHORE_FEATURES>  (1) 
4
1 1 acceptor
1 2 acceptor
3 1 2 7 anion
4 3 4 5 6 rings

>  <PUBCHEM_HEAVY_ATOM_COUNT>  (1) 
8

>  <PUBCHEM_ATOM_DEF_STEREO_COUNT>  (1) 
0

>  <PUBCHEM_ATOM_UDEF_STEREO_COUNT>  (1) 
0

>  <PUBCHEM_BOND_DEF_STEREO_COUNT>  (1) 
0

>  <PUBCHEM_BOND_UDEF_STEREO_COUNT>  (1) 
0

>  <PUBCHEM_ISOTOPIC_ATOM_COUNT>  (1) 
0

>  <PUBCHEM_COMPONENT_COUNT>  (1) 
1

>  <PUBCHEM_CACTVS_TAUTO_COUNT>  (1) 
1

>  <PUBCHEM_CONFORMER_ID>  (1) 
00006B5300000001

>  <PUBCHEM_MMFF94_ENERGY>  (1) 
8.8165

>  <PUBCHEM_FEATURE_SELFOVERLAP>  (1) 
20.357

>  <PUBCHEM_SHAPE_FINGERPRINT>  (1) 
10857977 72 16298389101789745385
11062470 55 9871746893029465035
12932764 1 17749101184538349371
14390081 3 18040710368607207389
15310529 11 18201716284146758901
16714656 1 15719397217615568327
21040471 1 15936402325778718491
23552423 10 16772974505178801959
29004967 10 18408605850753130842
369184 2 18411135852978848723
5084963 1 17917997135341832723
5460574 1 9367347033098347239

>  <PUBCHEM_SHAPE_MULTIPOLES>  (1) 
152.9
3.82
0.92
0.86
0.41
0
-0.11
0
-0.01
0.24
0
-0.49
0
0.01

>  <PUBCHEM_SHAPE_SELFOVERLAP>  (1) 
301.585

>  <PUBCHEM_SHAPE_VOLUME>  (1) 
91.5

>  <PUBCHEM_COORDINATE_TYPE>  (1) 
2
5
10

$$$$
