27488
     RDKit          3D

  7  6  0  0  0  0  0  0  0  0999 V2000
    0.7737    1.6234    0.0005 O   0  0  0  0  0  0  0  0  0  0  0  0
    2.2313   -0.1207   -0.0003 O   0  0  0  0  0  0  0  0  0  0  0  0
   -2.5063    0.5232   -0.0003 N   0  0  0  0  0  0  0  0  0  0  0  0
   -0.1438   -0.5255    0.0001 C   0  0  0  0  0  0  0  0  0  0  0  0
    1.0866    0.3054   -0.0004 C   0  0  0  0  0  0  0  0  0  0  0  0
    0.0044   -1.8575    0.0003 C   0  0  0  0  0  0  0  0  0  0  0  0
   -1.4458    0.0517    0.0000 C   0  0  0  0  0  0  0  0  0  0  0  0
  1  5  1  0
  2  5  2  0
  3  7  3  0
  4  5  1  0
  4  6  2  0
  4  7  1  0
M  END
>  <PUBCHEM_COMPOUND_CID>  (1) 
27488

>  <PUBCHEM_CONFORMER_RMSD>  (1) 
0.4

>  <PUBCHEM_CONFORMER_DIVERSEORDER>  (1) 
1
2

>  <PUBCHEM_MMFF94_PARTIAL_CHARGES>  (1) 
10
1 -0.65
10 0.5
2 -0.57
3 -0.56
4 0.08
5 0.71
6 -0.3
7 0.49
8 0.15
9 0.15

>  <PUBCHEM_EFFECTIVE_ROTOR_COUNT>  (1) 
1

>  <PUBCHEM_PHARMACOPHORE_FEATURES>  (1) 
5
1 1 acceptor
1 2 acceptor
1 3 acceptor
1 6 hydrophobe
3 1 2 5 anion

>  <PUBCHEM_HEAVY_ATOM_COUNT>  (1) 
7

>  <PUBCHEM_ATOM_DEF_STEREO_COUNT>  (1) 
0

>  <PUBCHEM_ATOM_UDEF_STEREO_COUNT>  (1) 
0

>  <PUBCHEM_BOND_DEF_STEREO_COUNT>  (1) 
0

>  <PUBCHEM_BOND_UDEF_STEREO_COUNT>  (1) 
0

>  <PUBCHEM_ISOTOPIC_ATOM_COUNT>  (1) 
0

>  <PUBCHEM_COMPONENT_COUNT>  (1) 
1

>  <PUBCHEM_CACTVS_TAUTO_COUNT>  (1) 
1

>  <PUBCHEM_CONFORMER_ID>  (1) 
00006B6000000001

>  <PUBCHEM_MMFF94_ENERGY>  (1) 
9.0296

>  <PUBCHEM_FEATURE_SELFOVERLAP>  (1) 
25.429

>  <PUBCHEM_SHAPE_FINGERPRINT>  (1) 
16714656 1 18408326570794800340
20096714 4 18410292557514371761
21040471 1 18338516451301087620
24536 1 17978212083047657116
29004967 10 18263370200320348491

>  <PUBCHEM_SHAPE_MULTIPOLES>  (1) 
127.34
2.52
1.52
0.58
0.67
0.38
0
-0.66
0
-0.19
0
0.01
0.03
0

>  <PUBCHEM_SHAPE_SELFOVERLAP>  (1) 
245.722

>  <PUBCHEM_SHAPE_VOLUME>  (1) 
76

>  <PUBCHEM_COORDINATE_TYPE>  (1) 
2
5
10

$$$$
