27480
     RDKit          3D

 16 17  0  0  0  0  0  0  0  0999 V2000
    3.0371   -1.1384   -0.9721 O   0  0  0  0  0  0  0  0  0  0  0  0
    3.8268    0.3726    0.7311 O   0  0  0  0  0  0  0  0  0  0  0  0
   -1.8753    1.3240   -1.5634 O   0  0  0  0  0  0  0  0  0  0  0  0
   -2.4597   -0.2817    0.0318 N   0  0  0  0  0  0  0  0  0  0  0  0
   -3.8806   -0.3069   -0.2852 C   0  0  0  0  0  0  0  0  0  0  0  0
   -2.0345   -1.1783    1.1045 C   0  0  0  0  0  0  0  0  0  0  0  0
   -0.1522    0.5323   -0.2651 C   0  0  0  0  0  0  0  0  0  0  0  0
   -1.5547    0.5517   -0.6504 C   0  0  0  0  0  0  0  0  0  0  0  0
    2.0450   -0.3439   -0.4855 C   0  0  0  0  0  0  0  0  0  0  0  0
    0.7243   -0.3616   -0.8846 C   0  0  0  0  0  0  0  0  0  0  0  0
    2.4960    0.5188    0.4872 C   0  0  0  0  0  0  0  0  0  0  0  0
    0.3086    1.4137    0.7287 C   0  0  0  0  0  0  0  0  0  0  0  0
    1.6512    1.4113    1.1144 C   0  0  0  0  0  0  0  0  0  0  0  0
   -4.6508    0.7047    0.5382 C   0  0  0  0  0  0  0  0  0  0  0  0
   -1.6445   -2.5400    0.5677 C   0  0  0  0  0  0  0  0  0  0  0  0
    4.1632   -0.6784   -0.1973 C   0  0  0  0  0  0  0  0  0  0  0  0
  1  9  1  0
  1 16  1  0
  2 11  1  0
  2 16  1  0
  3  8  2  0
  4  5  1  0
  4  6  1  0
  4  8  1  0
  5 14  1  0
  6 15  1  0
  7  8  1  0
  7 10  1  0
  7 12  2  0
  9 10  2  0
  9 11  1  0
 11 13  2  0
 12 13  1  0
M  END
>  <PUBCHEM_COMPOUND_CID>  (1) 
27480

>  <PUBCHEM_CONFORMER_RMSD>  (1) 
0.6

>  <PUBCHEM_CONFORMER_DIVERSEORDER>  (1) 
1
7
10
2
9
8
4
14
11
12
3
13
6
5

>  <PUBCHEM_MMFF94_PARTIAL_CHARGES>  (1) 
17
1 -0.36
10 -0.15
11 0.08
12 -0.15
13 -0.15
16 0.56
2 -0.36
21 0.15
22 0.15
23 0.15
3 -0.57
4 -0.66
5 0.3
6 0.3
7 0.09
8 0.54
9 0.08

>  <PUBCHEM_EFFECTIVE_ROTOR_COUNT>  (1) 
4.6

>  <PUBCHEM_PHARMACOPHORE_FEATURES>  (1) 
5
1 1 acceptor
1 2 acceptor
1 3 acceptor
5 1 2 9 11 16 rings
6 7 9 10 11 12 13 rings

>  <PUBCHEM_HEAVY_ATOM_COUNT>  (1) 
16

>  <PUBCHEM_ATOM_DEF_STEREO_COUNT>  (1) 
0

>  <PUBCHEM_ATOM_UDEF_STEREO_COUNT>  (1) 
0

>  <PUBCHEM_BOND_DEF_STEREO_COUNT>  (1) 
0

>  <PUBCHEM_BOND_UDEF_STEREO_COUNT>  (1) 
0

>  <PUBCHEM_ISOTOPIC_ATOM_COUNT>  (1) 
0

>  <PUBCHEM_COMPONENT_COUNT>  (1) 
1

>  <PUBCHEM_CACTVS_TAUTO_COUNT>  (1) 
1

>  <PUBCHEM_CONFORMER_ID>  (1) 
00006B5800000001

>  <PUBCHEM_MMFF94_ENERGY>  (1) 
38.918

>  <PUBCHEM_FEATURE_SELFOVERLAP>  (1) 
25.527

>  <PUBCHEM_SHAPE_FINGERPRINT>  (1) 
11471102 20 17989201547180337980
11471102 22 17846219985799661722
11543360 7 17604162479928953078
12186901 62 17241041007749295149
12236239 1 15719391715656921805
124424 183 18343585148365586011
12500047 106 18409728499575731555
12507560 18 18271811185762976321
12932764 1 16515954964840502997
13581323 91 17458058257326217001
14115302 16 18261404355070927622
15219456 202 18268710678662587864
15279308 132 18407760339592074403
15375358 24 18343580758998693314
15375462 478 16774082855997134809
15653759 3 18408317796050150352
16752209 62 17241024558251411213
16945 1 17967525779102651117
18175812 5 18339923821842233492
18186145 218 18411129226240099257
19049666 15 18267861692413792908
19422 9 15502649352228932721
200 152 17131827681782838039
20201158 50 18342177769224241962
20279233 1 18413109476393119018
20281407 28 18335145314380427778
20645476 183 15936407857997497291
20645477 70 17775004557423173454
21501502 16 18120093037699798661
23048698 100 15913329100161020634
23402539 116 18261382343864676317
23559900 14 18408324393774005750
296302 2 18343022228545585528
3286 77 18058723732140120029
474 4 15983390067240639080
568465 68 17988085611771760674
57426455 114 18410007758438806539
69090 78 18342734144078663863
77492 1 15769771385723272565
81228 2 17914078424482670808
8809292 202 18409731780856866698

>  <PUBCHEM_SHAPE_MULTIPOLES>  (1) 
306.68
7.38
1.69
1.15
0.99
0.7
-0.08
0.46
0.45
0.52
0.37
0.1
-0.14
0.95

>  <PUBCHEM_SHAPE_SELFOVERLAP>  (1) 
647.414

>  <PUBCHEM_SHAPE_VOLUME>  (1) 
173.7

>  <PUBCHEM_COORDINATE_TYPE>  (1) 
2
5
10

$$$$
