27497
     RDKit          3D

 20 21  0  0  1  0  0  0  0  0999 V2000
    4.0187   -2.0059   -0.5471 O   0  0  0  0  0  0  0  0  0  0  0  0
   -5.5391    0.9762   -0.4513 O   0  0  0  0  0  0  0  0  0  0  0  0
    0.4173   -1.1466   -0.2065 N   0  0  0  0  0  0  0  0  0  0  0  0
    1.6610   -1.8792    0.0626 C   0  0  0  0  0  0  0  0  0  0  0  0
    2.8119   -1.2715   -0.7705 C   0  0  0  0  0  0  0  0  0  0  0  0
    1.9290   -1.8176    1.5676 C   0  0  0  0  0  0  0  0  0  0  0  0
    3.1109    0.1733   -0.4315 C   0  0  0  0  0  0  0  0  0  0  0  0
   -0.6907   -1.7400    0.5216 C   0  0  0  0  0  0  0  0  0  0  0  0
   -1.9847   -1.0151    0.2622 C   0  0  0  0  0  0  0  0  0  0  0  0
    2.4489    1.1780   -1.1153 C   0  0  0  0  0  0  0  0  0  0  0  0
    4.0390    0.4575    0.5549 C   0  0  0  0  0  0  0  0  0  0  0  0
   -2.7940   -1.4182   -0.7903 C   0  0  0  0  0  0  0  0  0  0  0  0
   -2.3490    0.0456    1.0794 C   0  0  0  0  0  0  0  0  0  0  0  0
    2.7240    2.5094   -0.8030 C   0  0  0  0  0  0  0  0  0  0  0  0
    4.3140    1.7889    0.8672 C   0  0  0  0  0  0  0  0  0  0  0  0
    3.6565    2.8147    0.1882 C   0  0  0  0  0  0  0  0  0  0  0  0
   -3.9926   -0.7466   -1.0309 C   0  0  0  0  0  0  0  0  0  0  0  0
   -3.5477    0.7173    0.8390 C   0  0  0  0  0  0  0  0  0  0  0  0
   -4.3696    0.3212   -0.2161 C   0  0  0  0  0  0  0  0  0  0  0  0
   -5.8636    2.0587    0.4197 C   0  0  0  0  0  0  0  0  0  0  0  0
  1  5  1  0
  2 19  1  0
  2 20  1  0
  3  4  1  0
  3  8  1  0
  4  5  1  0
  4  6  1  0
  5  7  1  0
  7 10  2  0
  7 11  1  0
  8  9  1  0
  9 12  2  0
  9 13  1  0
 10 14  1  0
 11 15  2  0
 12 17  1  0
 13 18  2  0
 14 16  2  0
 15 16  1  0
 17 19  2  0
 18 19  1  0
M  END
>  <PUBCHEM_COMPOUND_CID>  (1) 
27497

>  <PUBCHEM_CONFORMER_RMSD>  (1) 
0.8

>  <PUBCHEM_CONFORMER_DIVERSEORDER>  (1) 
14
18
32
15
11
9
3
17
29
13
20
34
1
25
22
2
12
6
35
23
24
5
33
27
19
16
26
8
28
4
31
21
10
7
36
30

>  <PUBCHEM_MMFF94_PARTIAL_CHARGES>  (1) 
30
1 -0.68
10 -0.15
11 -0.15
12 -0.15
13 -0.15
14 -0.15
15 -0.15
16 -0.15
17 -0.15
18 -0.15
19 0.08
2 -0.36
20 0.28
23 0.36
29 0.15
3 -0.9
30 0.15
31 0.4
32 0.15
33 0.15
34 0.15
35 0.15
36 0.15
37 0.15
38 0.15
4 0.27
5 0.42
7 -0.14
8 0.41
9 -0.14

>  <PUBCHEM_EFFECTIVE_ROTOR_COUNT>  (1) 
6

>  <PUBCHEM_PHARMACOPHORE_FEATURES>  (1) 
7
1 1 acceptor
1 1 donor
1 2 acceptor
1 3 cation
1 3 donor
6 7 10 11 14 15 16 rings
6 9 12 13 17 18 19 rings

>  <PUBCHEM_HEAVY_ATOM_COUNT>  (1) 
20

>  <PUBCHEM_ATOM_DEF_STEREO_COUNT>  (1) 
0

>  <PUBCHEM_ATOM_UDEF_STEREO_COUNT>  (1) 
2

>  <PUBCHEM_BOND_DEF_STEREO_COUNT>  (1) 
0

>  <PUBCHEM_BOND_UDEF_STEREO_COUNT>  (1) 
0

>  <PUBCHEM_ISOTOPIC_ATOM_COUNT>  (1) 
0

>  <PUBCHEM_COMPONENT_COUNT>  (1) 
1

>  <PUBCHEM_CACTVS_TAUTO_COUNT>  (1) 
1

>  <PUBCHEM_CONFORMER_ID>  (1) 
00006B690000000E

>  <PUBCHEM_MMFF94_ENERGY>  (1) 
60.5796

>  <PUBCHEM_FEATURE_SELFOVERLAP>  (1) 
35.52

>  <PUBCHEM_SHAPE_FINGERPRINT>  (1) 
10498660 4 17989209282300250937
10928967 22 10375610216629472413
11089746 13 18335979783576608047
12633257 1 15864071017843901625
12839892 36 13623536745079717457
13103583 49 11531301322201052911
13965767 371 17968082166789168700
14251764 30 11026612291466814904
14251764 38 18117559749919057672
14251764 75 18265066893008088593
14420673 8 11171282728107799769
14848178 96 18409168847999002892
15239191 94 9150905961504755974
17810953 82 18409451366747854965
17844677 252 18412271618853325339
17959699 21 18341892983207346497
18186145 218 18186803569121471262
18335252 114 18121212074881976869
19752476 56 18413389847557914432
20157964 124 18410007724453478141
20511986 3 18201704172349877965
20621476 13 18338237196970993600
20715895 44 18339920412071171873
21033648 29 17023177189837373519
21298829 104 18342458127731625689
21315763 76 18411409614405844529
21452121 103 18411694400923179066
21475661 188 18260548961095151280
21503847 285 18409169883407705686
21860390 5 18342464763750783004
21864079 5 18411420592278495035
22079108 93 17895203195058952163
22122407 14 18120950412779885161
22224240 67 8862355602364806950
22749437 52 18337394971068813752
22956985 138 8342890371427816214
23227448 37 18410856590358753615
23466295 7 12402979783212459712
23559900 14 18059574650723855982
2838139 119 17985259927408581264
3472631 163 18272088280147552749
474 4 18334294309528749882
5104073 3 18260267447637990907
543358 83 18412545379493441297
57724786 102 17604155925371471020
5895379 119 17488193595038178856
6328613 192 18116718616047497076
633830 44 18411132520311678183
67856867 119 18272079505155106242
960060 61 12751243622550786073
9971528 1 18342739564533282110
9981440 41 18195241354987524202

>  <PUBCHEM_SHAPE_MULTIPOLES>  (1) 
394.87
12.03
2.87
1.16
11.42
0.92
-0.12
7.34
0.16
-2.28
-0.09
-0.18
-0.12
-0.46

>  <PUBCHEM_SHAPE_SELFOVERLAP>  (1) 
828.368

>  <PUBCHEM_SHAPE_VOLUME>  (1) 
223.7

>  <PUBCHEM_COORDINATE_TYPE>  (1) 
2
5
10

$$$$
