27490
     RDKit          3D

 22 23  0  0  1  0  0  0  0  0999 V2000
   -0.6647   -1.1854   -0.7784 O   0  0  0  0  0  0  0  0  0  0  0  0
    0.5858   -1.9137    1.0076 O   0  0  0  0  0  0  0  0  0  0  0  0
   -3.7578    0.3889    0.1548 N   0  0  0  0  0  0  0  0  0  0  0  0
   -2.5659    0.1935    1.0986 C   0  0  0  0  0  0  0  0  0  0  0  0
   -3.4415   -0.1619   -1.2401 C   0  0  0  0  0  0  0  0  0  0  0  0
   -1.8159   -1.8286   -0.2344 C   0  0  0  0  0  0  0  0  0  0  0  0
   -2.1162   -1.2639    1.1507 C   0  0  0  0  0  0  0  0  0  0  0  0
   -2.9881   -1.6185   -1.1866 C   0  0  0  0  0  0  0  0  0  0  0  0
   -5.0271   -0.2425    0.7259 C   0  0  0  0  0  0  0  0  0  0  0  0
   -4.0183    1.8951    0.0234 C   0  0  0  0  0  0  0  0  0  0  0  0
    1.6192   -0.5127   -0.7185 C   0  0  0  0  0  0  0  0  0  0  0  0
    3.0220   -1.1724   -0.5231 C   0  0  0  0  0  0  0  0  0  0  0  0
    0.4906   -1.3047   -0.0505 C   0  0  0  0  0  0  0  0  0  0  0  0
    3.5453   -0.9644    0.9163 C   0  0  0  0  0  0  0  0  0  0  0  0
    1.5661    0.9746   -0.3880 C   0  0  0  0  0  0  0  0  0  0  0  0
    3.0716   -2.6489   -0.9341 C   0  0  0  0  0  0  0  0  0  0  0  0
    4.9491   -1.5121    1.1383 C   0  0  0  0  0  0  0  0  0  0  0  0
    2.0414    1.8784   -1.3142 C   0  0  0  0  0  0  0  0  0  0  0  0
    1.0447    1.3674    0.8263 C   0  0  0  0  0  0  0  0  0  0  0  0
    1.9930    3.2392   -1.0120 C   0  0  0  0  0  0  0  0  0  0  0  0
    0.9963    2.7283    1.1286 C   0  0  0  0  0  0  0  0  0  0  0  0
    1.4703    3.6643    0.2095 C   0  0  0  0  0  0  0  0  0  0  0  0
  1  6  1  0
  1 13  1  0
  2 13  2  0
  3  4  1  0
  3  5  1  0
  3  9  1  0
  3 10  1  0
  4  7  1  0
  5  8  1  0
  6  7  1  0
  6  8  1  0
 11 12  1  0
 11 13  1  0
 11 15  1  0
 12 14  1  0
 12 16  1  0
 14 17  1  0
 15 18  2  0
 15 19  1  0
 18 20  1  0
 19 21  2  0
 20 22  2  0
 21 22  1  0
M  CHG  1   3   1
M  END
>  <PUBCHEM_COMPOUND_CID>  (1) 
27490

>  <PUBCHEM_CONFORMER_RMSD>  (1) 
0.8

>  <PUBCHEM_CONFORMER_DIVERSEORDER>  (1) 
9
340
30
76
129
178
21
118
175
94
310
272
80
37
5
126
52
98
191
124
225
51
274
222
109
325
194
87
162
333
258
72
67
179
206
160
205
101
237
347
86
167
337
26
65
11
271
233
170
130
270
127
267
121
116
131
17
107
211
339
133
346
145
84
200
158
326
103
136
102
227
149
257
352
134
249
61
259
231
55
186
174
242
60
93
123
105
146
177
25
182
240
276
168
23
303
143
70
50
246
265
114
357
57
195
3
122
287
31
247
144
234
56
297
280
45
302
329
90
307
155
323
135
230
2
286
125
88
29
15
353
152
42
163
83
208
12
356
119
349
35
46
241
252
74
161
360
255
32
291
172
39
229
156
112
91
321
33
202
351
277
181
171
215
111
312
295
108
188
69
201
4
316
275
77
217
236
138
261
147
226
139
58
318
92
285
260
19
306
142
8
289
293
151
150
335
330
193
279
238
34
183
354
59
97
38
244
48
137
209
281
278
24
140
169
207
148
342
89
232
44
13
115
40
128
290
359
22
228
251
319
99
324
266
292
344
1
166
294
75
245
20
43
192
221
10
348
309
311
282
164
79
18
54
28
334
288
132
322
305
216
256
214
308
153
273
141
254
268
317
284
198
331
104
184
41
82
358
328
165
68
338
250
235
204
196
210
199
154
239
62
66
176
203
220
336
300
332
157
16
343
315
7
106
253
264
14
304
47
283
81
159
224
95
173
190
219
6
180
248
100
269
350
314
320
64
263
185
110
243
53
213
212
197
27
187
262
189
355
113
73
71
78
341
117
301
345
96
298
299
36
63
49
296
361
223
218
327
85
120
313

>  <PUBCHEM_MMFF94_PARTIAL_CHARGES>  (1) 
21
1 -0.43
10 0.5
11 0.2
13 0.66
15 -0.14
18 -0.15
19 -0.15
2 -0.57
20 -0.15
21 -0.15
22 -0.15
3 -1.01
4 0.5
48 0.15
49 0.15
5 0.5
50 0.15
51 0.15
52 0.15
6 0.28
9 0.5

>  <PUBCHEM_EFFECTIVE_ROTOR_COUNT>  (1) 
7.2

>  <PUBCHEM_PHARMACOPHORE_FEATURES>  (1) 
6
1 16 hydrophobe
1 17 hydrophobe
1 2 acceptor
1 3 cation
6 15 18 19 20 21 22 rings
6 3 4 5 6 7 8 rings

>  <PUBCHEM_HEAVY_ATOM_COUNT>  (1) 
22

>  <PUBCHEM_ATOM_DEF_STEREO_COUNT>  (1) 
0

>  <PUBCHEM_ATOM_UDEF_STEREO_COUNT>  (1) 
2

>  <PUBCHEM_BOND_DEF_STEREO_COUNT>  (1) 
0

>  <PUBCHEM_BOND_UDEF_STEREO_COUNT>  (1) 
0

>  <PUBCHEM_ISOTOPIC_ATOM_COUNT>  (1) 
0

>  <PUBCHEM_COMPONENT_COUNT>  (1) 
1

>  <PUBCHEM_CACTVS_TAUTO_COUNT>  (1) 
1

>  <PUBCHEM_CONFORMER_ID>  (1) 
00006B6200000009

>  <PUBCHEM_MMFF94_ENERGY>  (1) 
61.3582

>  <PUBCHEM_FEATURE_SELFOVERLAP>  (1) 
30.447

>  <PUBCHEM_SHAPE_FINGERPRINT>  (1) 
10165383 225 17541980857475560357
104564 63 17907303152185302788
10906281 52 18336276691146091222
11265709 11 18336827486151998402
116883 192 17983587303649685038
12035759 4 18193586439948546620
12403260 363 18411414029911344895
12507557 5 18410007707220835275
12553582 1 18340499871831224430
12788726 201 18118407242189075274
128993 33 18263935508527703125
13004483 165 18120644739503422938
13132413 78 18411133598284672036
13134695 92 18411694392201375684
13140716 1 18336827601678486595
13464514 151 18265345091103451028
13583140 156 18040710334727731371
13681431 1 18410298038420123358
14022347 108 18192163611477593798
14181834 199 18338232782039323940
14223421 5 18048046451795257035
14466204 15 18190174598873294091
14713325 29 16741457292653891428
14790565 3 18049721021501756420
14866123 147 16751285285354396699
14955137 171 18410301276367158866
15163728 17 17173802792314817876
15238133 3 18042414525361428319
15295992 7 18186811296299997435
15463212 79 16966320670408523160
1601671 61 18342175566517676214
17041 49 18409444786963212230
17357779 13 18197486342819163884
17492 89 18270399519981293135
17980427 23 17845639447860243740
1813 80 18335986359646246438
18335252 114 18124305014313812637
18769570 83 18191579757559081968
18785283 64 18262529207127153657
18981168 100 17677893616041429823
19078846 21 18260545580713237778
192875 21 18272930518612237729
20600515 1 18259985947049874178
20671657 1 18339640169359418733
21033648 29 17773861026702156219
21041028 32 18409449141970522540
21304253 335 17989205919325085960
21524375 3 17547862205797688804
23175994 123 18187930530069702954
23402539 116 18270669867003213794
23419403 2 18053345952213208312
23557571 272 15554168198178172807
23558518 356 18193549197638847619
23559900 14 18270671078115458475
238 59 18126000718018201485
312423 11 18269554017304032903
3286 77 18260270767542130567
345986 75 17461698624863191106
350125 39 18192156107842537195
474 4 18264485259766743503
5104073 3 18264501731678617507
5895379 119 17488483921705259065
7226269 152 18189325772044957706
7471813 234 17914590960035884927
74978 22 18411420656539863831
7615 1 18129657655064157847
7832392 63 18342738477341884935
81228 2 18050016497791426330
84936 182 18126004003573522840
9971528 1 18272933782792910902
9981440 41 17619054470920107384

>  <PUBCHEM_SHAPE_MULTIPOLES>  (1) 
436.03
8.21
3.73
1.36
4.76
3.18
0.01
-2.59
-1.11
-3.14
0.33
-0.16
-0.04
-0.67

>  <PUBCHEM_SHAPE_SELFOVERLAP>  (1) 
886.834

>  <PUBCHEM_SHAPE_VOLUME>  (1) 
252.8

>  <PUBCHEM_COORDINATE_TYPE>  (1) 
2
5
10

$$$$
