275
     RDKit          3D

 12 11  0  0  1  0  0  0  0  0999 V2000
   -1.2035   -0.0745    0.3878 O   0  0  0  0  0  0  0  0  0  0  0  0
    3.2369    1.4577    0.7480 O   0  0  0  0  0  0  0  0  0  0  0  0
    4.1331   -0.1102   -0.6229 O   0  0  0  0  0  0  0  0  0  0  0  0
    1.7246   -1.0995   -1.3214 N   0  0  0  0  0  0  0  0  0  0  0  0
   -2.4875   -0.6357    0.3262 N   0  0  0  0  0  0  0  0  0  0  0  0
   -4.6625   -0.0846   -0.3189 N   0  0  0  0  0  0  0  0  0  0  0  0
   -3.0489    1.5160   -0.5625 N   0  0  0  0  0  0  0  0  0  0  0  0
    1.1035   -0.5091    1.0177 C   0  0  0  0  0  0  0  0  0  0  0  0
    1.7106   -0.0397   -0.3135 C   0  0  0  0  0  0  0  0  0  0  0  0
   -0.3207   -1.0509    0.9202 C   0  0  0  0  0  0  0  0  0  0  0  0
    3.1498    0.3987   -0.1005 C   0  0  0  0  0  0  0  0  0  0  0  0
   -3.3354    0.2318   -0.1599 C   0  0  0  0  0  0  0  0  0  0  0  0
  1  5  1  0
  1 10  1  0
  2 11  1  0
  3 11  2  0
  4  9  1  0
  5 12  2  3
  6 12  1  0
  7 12  1  0
  8  9  1  0
  8 10  1  0
  9 11  1  0
M  END
>  <PUBCHEM_COMPOUND_CID>  (1) 
275

>  <PUBCHEM_CONFORMER_RMSD>  (1) 
0.6

>  <PUBCHEM_CONFORMER_DIVERSEORDER>  (1) 
3
148
5
44
90
145
1
149
27
69
86
84
116
9
93
141
7
88
4
147
127
28
131
43
38
146
73
48
144
108
36
128
112
150
47
78
51
53
126
56
11
134
132
80
130
26
77
95
71
25
54
142
63
140
8
10
16
106
143
87
32
46
139
83
40
120
31
111
123
34
121
22
13
94
100
136
105
137
41
35
92
96
30
129
60
42
138
85
66
82
97
57
68
23
115
55
98
89
113
151
6
19
58
37
72
21
67
135
107
91
61
59
17
119
109
39
29
24
101
14
65
118
104
125
122
45
75
20
2
110
114
49
99
102
12
33
15
103
117
133
81
18
52
124
76
62
64
79
74
50
70

>  <PUBCHEM_MMFF94_PARTIAL_CHARGES>  (1) 
18
1 -0.22
10 0.28
11 0.66
12 0.55
18 0.36
19 0.36
2 -0.65
20 0.5
21 0.4
22 0.4
23 0.4
24 0.4
3 -0.57
4 -0.99
5 -0.51
6 -0.85
7 -0.85
9 0.33

>  <PUBCHEM_EFFECTIVE_ROTOR_COUNT>  (1) 
5

>  <PUBCHEM_PHARMACOPHORE_FEATURES>  (1) 
8
1 2 acceptor
1 3 acceptor
1 4 cation
1 4 donor
1 6 donor
1 7 donor
3 2 3 11 anion
4 5 6 7 12 cation

>  <PUBCHEM_HEAVY_ATOM_COUNT>  (1) 
12

>  <PUBCHEM_ATOM_DEF_STEREO_COUNT>  (1) 
0

>  <PUBCHEM_ATOM_UDEF_STEREO_COUNT>  (1) 
1

>  <PUBCHEM_BOND_DEF_STEREO_COUNT>  (1) 
0

>  <PUBCHEM_BOND_UDEF_STEREO_COUNT>  (1) 
0

>  <PUBCHEM_ISOTOPIC_ATOM_COUNT>  (1) 
0

>  <PUBCHEM_COMPONENT_COUNT>  (1) 
1

>  <PUBCHEM_CACTVS_TAUTO_COUNT>  (1) 
2

>  <PUBCHEM_CONFORMER_ID>  (1) 
0000011300000003

>  <PUBCHEM_MMFF94_ENERGY>  (1) 
18.2619

>  <PUBCHEM_FEATURE_SELFOVERLAP>  (1) 
40.709

>  <PUBCHEM_SHAPE_FINGERPRINT>  (1) 
10149128 111 16950570969118831199
12251169 10 13190345685662562707
14390081 3 18186519882621095049
14897335 6 17603581928693442907
15775835 57 17675924287478586265
177051 138 10231746804120852329
18186145 218 18342466936555717994
18342897 14 13262396661240309574
20281407 28 10303820894848491944
20606313 2 18202281450504116136
20645477 70 17846225414586129006
20671657 53 17486511303682861222
20767249 442 17748823025023092777
21119208 17 17632579348609796148
21293036 1 18201999941162008915
22169311 14 11097859583925434711
22485316 2 12103847838873940428
23402539 116 18336258020100277462
23402655 69 17917996057300026400
23557571 272 18263658397221895411
42 15 7997974582957928105

>  <PUBCHEM_SHAPE_MULTIPOLES>  (1) 
209.42
8.08
1.17
0.99
3.79
0.19
0.13
2.41
1.1
0.21
-0.16
-0.71
-0.13
0.49

>  <PUBCHEM_SHAPE_SELFOVERLAP>  (1) 
396.645

>  <PUBCHEM_SHAPE_VOLUME>  (1) 
128.8

>  <PUBCHEM_COORDINATE_TYPE>  (1) 
2
5
10

$$$$
