2750
     RDKit          3D

 23 25  0  0  1  0  0  0  0  0999 V2000
    4.2126    1.5318    0.1752 S   0  0  0  0  0  0  0  0  0  0  0  0
   -2.2421   -0.5712    0.2774 O   0  0  0  0  0  0  0  0  0  0  0  0
    5.8829   -1.9466    0.2472 O   0  0  0  0  0  0  0  0  0  0  0  0
    6.6066    2.6097    0.0373 O   0  0  0  0  0  0  0  0  0  0  0  0
    6.4469    0.2940    0.1497 N   0  0  0  0  0  0  0  0  0  0  0  0
   -4.4239    0.3999    0.3089 C   0  0  0  0  0  0  0  0  0  0  0  0
   -5.2291    1.6468   -0.1225 C   0  0  0  0  0  0  0  0  0  0  0  0
   -5.0088   -0.8622   -0.3649 C   0  0  0  0  0  0  0  0  0  0  0  0
   -6.7375    1.4934    0.0724 C   0  0  0  0  0  0  0  0  0  0  0  0
   -6.5176   -1.0115   -0.1698 C   0  0  0  0  0  0  0  0  0  0  0  0
   -7.2693    0.2390   -0.6118 C   0  0  0  0  0  0  0  0  0  0  0  0
   -2.9594    0.5716   -0.1359 C   0  0  0  0  0  0  0  0  0  0  0  0
   -4.4382    0.2503    1.8425 C   0  0  0  0  0  0  0  0  0  0  0  0
   -0.9197   -0.6427    0.0149 C   0  0  0  0  0  0  0  0  0  0  0  0
   -0.1792   -1.7632    0.4116 C   0  0  0  0  0  0  0  0  0  0  0  0
   -0.2722    0.4023   -0.6558 C   0  0  0  0  0  0  0  0  0  0  0  0
    1.8241   -0.7920   -0.5267 C   0  0  0  0  0  0  0  0  0  0  0  0
    3.2847   -0.8716   -0.8161 C   0  0  0  0  0  0  0  0  0  0  0  0
    4.1325   -0.2805    0.3076 C   0  0  0  0  0  0  0  0  0  0  0  0
    1.1874   -1.8374    0.1419 C   0  0  0  0  0  0  0  0  0  0  0  0
    1.0943    0.3279   -0.9256 C   0  0  0  0  0  0  0  0  0  0  0  0
    5.5636   -0.7626    0.2319 C   0  0  0  0  0  0  0  0  0  0  0  0
    5.9614    1.5747    0.1106 C   0  0  0  0  0  0  0  0  0  0  0  0
  1 19  1  0
  1 23  1  0
  2 12  1  0
  2 14  1  0
  3 22  2  0
  4 23  2  0
  5 22  1  0
  5 23  1  0
  6  7  1  0
  6  8  1  0
  6 12  1  0
  6 13  1  0
  7  9  1  0
  8 10  1  0
  9 11  1  0
 10 11  1  0
 14 15  2  0
 14 16  1  0
 15 20  1  0
 16 21  2  0
 17 18  1  0
 17 20  2  0
 17 21  1  0
 18 19  1  0
 19 22  1  0
M  END
>  <PUBCHEM_COMPOUND_CID>  (1) 
2750

>  <PUBCHEM_CONFORMER_RMSD>  (1) 
0.8

>  <PUBCHEM_CONFORMER_DIVERSEORDER>  (1) 
2
183
51
118
79
141
176
157
198
194
195
75
178
134
112
86
9
148
192
58
93
185
19
129
3
189
50
149
171
105
66
62
81
140
106
186
131
16
142
179
173
168
82
15
26
151
204
30
102
199
13
109
40
193
49
111
132
145
158
64
153
4
196
188
181
124
147
165
61
87
133
144
1
107
92
83
69
97
122
200
32
95
203
190
80
24
70
76
154
162
38
23
57
22
77
42
170
108
136
166
113
84
146
28
56
12
187
14
99
74
169
125
41
67
39
139
52
172
34
152
18
174
25
143
54
117
114
53
44
90
161
163
55
29
46
68
78
85
59
156
36
43
104
115
126
72
201
130
137
7
123
5
10
202
89
164
98
184
197
48
160
21
63
37
100
177
175
17
6
138
120
182
96
91
191
180
103
33
159
167
8
135
65
73
128
155
27
127
35
116
94
121
31
119
47
110
88
71
20
11
150
101
60
45

>  <PUBCHEM_MMFF94_PARTIAL_CHARGES>  (1) 
21
1 -0.37
12 0.28
14 0.08
15 -0.15
16 -0.15
17 -0.14
18 0.14
19 0.29
2 -0.36
20 -0.15
21 -0.15
22 0.57
23 0.77
3 -0.57
39 0.15
4 -0.57
40 0.15
44 0.15
45 0.15
46 0.37
5 -0.49

>  <PUBCHEM_EFFECTIVE_ROTOR_COUNT>  (1) 
6.8

>  <PUBCHEM_PHARMACOPHORE_FEATURES>  (1) 
6
1 2 acceptor
1 3 acceptor
1 5 donor
5 1 5 19 22 23 rings
6 14 15 16 17 20 21 rings
6 6 7 8 9 10 11 rings

>  <PUBCHEM_HEAVY_ATOM_COUNT>  (1) 
23

>  <PUBCHEM_ATOM_DEF_STEREO_COUNT>  (1) 
0

>  <PUBCHEM_ATOM_UDEF_STEREO_COUNT>  (1) 
1

>  <PUBCHEM_BOND_DEF_STEREO_COUNT>  (1) 
0

>  <PUBCHEM_BOND_UDEF_STEREO_COUNT>  (1) 
0

>  <PUBCHEM_ISOTOPIC_ATOM_COUNT>  (1) 
0

>  <PUBCHEM_COMPONENT_COUNT>  (1) 
1

>  <PUBCHEM_CACTVS_TAUTO_COUNT>  (1) 
3

>  <PUBCHEM_CONFORMER_ID>  (1) 
00000ABE00000002

>  <PUBCHEM_MMFF94_ENERGY>  (1) 
56.4836

>  <PUBCHEM_FEATURE_SELFOVERLAP>  (1) 
30.447

>  <PUBCHEM_SHAPE_FINGERPRINT>  (1) 
10 15 17894630383396486040
10411042 1 17906733597654647694
10595046 47 18272369750845087543
11089746 13 18408886222218690971
11315181 36 18202565082318858505
11524674 6 14418137322810132153
11719270 70 17917709072102250374
11796584 16 13912615952059300896
11991303 11 16773789350706122989
12166972 35 18408887342915569964
12236239 1 18343300358101644231
12403259 415 18040990705538768012
125118 31 18411139108369555841
12596602 18 18408604764221383475
12925494 130 18122903402849381712
13167372 99 18342740676528696824
13533116 47 17458618957397595826
13631057 29 18201152269986356567
14123256 10 16200149889589567441
14251732 16 18411418440489446959
14251764 18 18409166636148692484
14347424 109 18260822697210604064
14849402 71 18340771562741287017
14933364 13 18411700980311981525
15183329 4 17132119051958276904
15348495 7 17240776132452301584
15475509 35 16443610300638577930
15788980 27 12901553446806641071
19489759 90 17676489432883086185
20157964 124 18343585127497664350
20281389 69 18334857203563239284
21130935 74 18259987050508576555
21150785 3 17489583468335864269
21315763 28 18412824659736679783
21315764 268 18334008376629687556
21641784 216 15697731340963726760
220451 1 12468646027240802779
22224240 67 18113897169486963299
22956985 138 13408727275896308728
23035841 295 10447929464585525125
23081809 10 16200158642627674903
23402539 116 18408602548535236127
23559900 14 18339917221469523377
23622692 88 15864072078542763099
249057 25 17560529400088617274
255183 451 17771635542955609438
28498 318 9223237338802536875
2916195 48 18409729564579674489
300161 21 18261391110257040847
335352 9 18412267229982097326
34797466 226 17560809843787724029
397830 11 16516826920637921160
4073 2 18187649153877474378
4325135 7 18060418027960880141
465052 167 11169911680605794440
5104073 3 18115032883900220315
559249 180 10665225961011227193
5758199 1 18334016090390418203
59682541 35 18334866060729984891
59755656 520 18260542334209169975
999808 66 11599715221537878709

>  <PUBCHEM_SHAPE_MULTIPOLES>  (1) 
454.59
21.15
1.95
0.91
3.55
0.38
-0.2
7.22
-0.71
-2.16
-0.09
0.65
0
-0.06

>  <PUBCHEM_SHAPE_SELFOVERLAP>  (1) 
945.16

>  <PUBCHEM_SHAPE_VOLUME>  (1) 
260.7

>  <PUBCHEM_COORDINATE_TYPE>  (1) 
2
5
10

$$$$
