27508
     RDKit          3D

 13 14  0  0  0  0  0  0  0  0999 V2000
   -2.8463   -0.2367    0.2778 S   0  0  0  0  0  0  0  0  0  0  0  0
    1.9777    0.5596   -0.5635 O   0  0  0  0  0  0  0  0  0  0  0  0
   -0.8404    1.3080   -0.2138 N   0  0  0  0  0  0  0  0  0  0  0  0
   -2.9246    2.4008   -0.0166 N   0  0  0  0  0  0  0  0  0  0  0  0
   -0.3433    0.0149   -0.1407 C   0  0  0  0  0  0  0  0  0  0  0  0
    1.0052   -0.3697   -0.3055 C   0  0  0  0  0  0  0  0  0  0  0  0
   -1.2958   -0.9744    0.1223 C   0  0  0  0  0  0  0  0  0  0  0  0
    1.3593   -1.7181   -0.2036 C   0  0  0  0  0  0  0  0  0  0  0  0
   -0.9471   -2.3306    0.2259 C   0  0  0  0  0  0  0  0  0  0  0  0
    0.3943   -2.6841    0.0587 C   0  0  0  0  0  0  0  0  0  0  0  0
    3.0361    0.6588    0.3822 C   0  0  0  0  0  0  0  0  0  0  0  0
   -2.1369    1.2928   -0.0104 C   0  0  0  0  0  0  0  0  0  0  0  0
    3.5616    2.0786    0.3871 C   0  0  0  0  0  0  0  0  0  0  0  0
  1  7  1  0
  1 12  1  0
  2  6  1  0
  2 11  1  0
  3  5  1  0
  3 12  2  0
  4 12  1  0
  5  6  1  0
  5  7  2  0
  6  8  2  0
  7  9  1  0
  8 10  1  0
  9 10  2  0
 11 13  1  0
M  END
>  <PUBCHEM_COMPOUND_CID>  (1) 
27508

>  <PUBCHEM_CONFORMER_RMSD>  (1) 
0.6

>  <PUBCHEM_CONFORMER_DIVERSEORDER>  (1) 
1
5
4
2
3

>  <PUBCHEM_MMFF94_PARTIAL_CHARGES>  (1) 
17
1 -0.08
10 -0.15
11 0.28
12 0.46
14 0.15
15 0.15
16 0.15
2 -0.36
22 0.4
23 0.4
3 -0.57
4 -0.88
5 0.23
6 0.08
7 0.04
8 -0.15
9 -0.15

>  <PUBCHEM_EFFECTIVE_ROTOR_COUNT>  (1) 
2

>  <PUBCHEM_PHARMACOPHORE_FEATURES>  (1) 
5
1 2 acceptor
1 4 donor
3 3 4 12 cation
5 1 3 5 7 12 rings
6 5 6 7 8 9 10 rings

>  <PUBCHEM_HEAVY_ATOM_COUNT>  (1) 
13

>  <PUBCHEM_ATOM_DEF_STEREO_COUNT>  (1) 
0

>  <PUBCHEM_ATOM_UDEF_STEREO_COUNT>  (1) 
0

>  <PUBCHEM_BOND_DEF_STEREO_COUNT>  (1) 
0

>  <PUBCHEM_BOND_UDEF_STEREO_COUNT>  (1) 
0

>  <PUBCHEM_ISOTOPIC_ATOM_COUNT>  (1) 
0

>  <PUBCHEM_COMPONENT_COUNT>  (1) 
1

>  <PUBCHEM_CACTVS_TAUTO_COUNT>  (1) 
2

>  <PUBCHEM_CONFORMER_ID>  (1) 
00006B7400000001

>  <PUBCHEM_MMFF94_ENERGY>  (1) 
30.6225

>  <PUBCHEM_FEATURE_SELFOVERLAP>  (1) 
25.443

>  <PUBCHEM_SHAPE_FINGERPRINT>  (1) 
10608611 8 18411139095552835980
13140716 1 18192154802335470675
13380535 76 18410569587179078926
13897977 150 18265332794480135597
14648413 74 18049444747064796315
15490181 7 18411145705518268471
16945 1 18264219156504463031
17846911 113 18340200915968210936
193761 8 18337955588865900127
20510252 161 18270123559630885280
20871998 184 18054234507441663926
21501502 16 18338792312856029059
21524375 3 18342733022743695542
21650355 55 17545306940822385666
220403 375 18335975393972065526
2334 1 18409173173220603815
23402539 116 17983569998978795791
23552423 10 18192152586275049767
23559900 14 18270978847709767398
2748010 2 18263375706668992471
305870 269 18336261245778835810
3071541 12 18196093231369045590
53812653 166 18121221982865268974
5706482 22 18338782498950593026
6333449 129 18196370535848070298
7364860 26 18124876746414771270
81228 2 18049169052982450498

>  <PUBCHEM_SHAPE_MULTIPOLES>  (1) 
255.55
4.77
2.92
0.67
2.9
0.56
-0.02
-3.84
-0.67
-0.59
-0.11
0.08
0.01
0.34

>  <PUBCHEM_SHAPE_SELFOVERLAP>  (1) 
533.434

>  <PUBCHEM_SHAPE_VOLUME>  (1) 
147.5

>  <PUBCHEM_COORDINATE_TYPE>  (1) 
2
5
10

$$$$
