27507
     RDKit          3D

  8  8  0  0  0  0  0  0  0  0999 V2000
   -2.6745    0.0000    0.0004 O   0  0  0  0  0  0  0  0  0  0  0  0
    1.8447    1.3954   -0.0004 O   0  0  0  0  0  0  0  0  0  0  0  0
    1.8447   -1.3954    0.0006 O   0  0  0  0  0  0  0  0  0  0  0  0
   -0.5994    1.2564    0.0002 C   0  0  0  0  0  0  0  0  0  0  0  0
   -0.5995   -1.2564   -0.0009 C   0  0  0  0  0  0  0  0  0  0  0  0
   -1.4508    0.0000    0.0000 C   0  0  0  0  0  0  0  0  0  0  0  0
    0.8175    0.7502    0.0001 C   0  0  0  0  0  0  0  0  0  0  0  0
    0.8174   -0.7502    0.0000 C   0  0  0  0  0  0  0  0  0  0  0  0
  1  6  2  0
  2  7  2  0
  3  8  2  0
  4  6  1  0
  4  7  1  0
  5  6  1  0
  5  8  1  0
  7  8  1  0
M  END
>  <PUBCHEM_COMPOUND_CID>  (1) 
27507

>  <PUBCHEM_CONFORMER_RMSD>  (1) 
0.4

>  <PUBCHEM_CONFORMER_DIVERSEORDER>  (1) 
1

>  <PUBCHEM_MMFF94_PARTIAL_CHARGES>  (1) 
8
1 -0.57
2 -0.57
3 -0.57
4 0.12
5 0.12
6 0.45
7 0.51
8 0.51

>  <PUBCHEM_EFFECTIVE_ROTOR_COUNT>  (1) 
0.4

>  <PUBCHEM_PHARMACOPHORE_FEATURES>  (1) 
6
1 1 acceptor
1 2 acceptor
1 3 acceptor
1 4 anion
1 5 anion
5 4 5 6 7 8 rings

>  <PUBCHEM_HEAVY_ATOM_COUNT>  (1) 
8

>  <PUBCHEM_ATOM_DEF_STEREO_COUNT>  (1) 
0

>  <PUBCHEM_ATOM_UDEF_STEREO_COUNT>  (1) 
0

>  <PUBCHEM_BOND_DEF_STEREO_COUNT>  (1) 
0

>  <PUBCHEM_BOND_UDEF_STEREO_COUNT>  (1) 
0

>  <PUBCHEM_ISOTOPIC_ATOM_COUNT>  (1) 
0

>  <PUBCHEM_COMPONENT_COUNT>  (1) 
1

>  <PUBCHEM_CACTVS_TAUTO_COUNT>  (1) 
5

>  <PUBCHEM_CONFORMER_ID>  (1) 
00006B7300000001

>  <PUBCHEM_MMFF94_ENERGY>  (1) 
6.1992

>  <PUBCHEM_FEATURE_SELFOVERLAP>  (1) 
30.468

>  <PUBCHEM_SHAPE_FINGERPRINT>  (1) 
18185500 45 18341608278072311807
20096714 4 18339644545941506243
21040471 1 18266741466074436641
23552423 10 18334016090037029271
29004967 10 18187933914540582801

>  <PUBCHEM_SHAPE_MULTIPOLES>  (1) 
147.03
2.56
1.57
0.58
0.79
0
0
0
0
-0.61
0
0.01
0
0

>  <PUBCHEM_SHAPE_SELFOVERLAP>  (1) 
301.912

>  <PUBCHEM_SHAPE_VOLUME>  (1) 
85.5

>  <PUBCHEM_COORDINATE_TYPE>  (1) 
2
5
10

$$$$
