27517
     RDKit          3D

 11 11  0  0  1  0  0  0  0  0999 V2000
    1.8211    0.2831    0.2290 O   0  0  0  0  0  0  0  0  0  0  0  0
    1.0332   -1.7493   -0.5360 O   0  0  0  0  0  0  0  0  0  0  0  0
   -1.4400   -1.1892    0.1284 N   0  0  0  0  0  0  0  0  0  0  0  0
   -0.4732   -0.1253    0.4013 C   0  0  0  0  0  0  0  0  0  0  0  0
   -0.8049    1.1528   -0.3700 C   0  0  0  0  0  0  0  0  0  0  0  0
   -2.2271    1.6184   -0.0744 C   0  0  0  0  0  0  0  0  0  0  0  0
   -3.2176    0.4797   -0.2959 C   0  0  0  0  0  0  0  0  0  0  0  0
   -2.8014   -0.7739    0.4713 C   0  0  0  0  0  0  0  0  0  0  0  0
    0.8601   -0.6487   -0.0303 C   0  0  0  0  0  0  0  0  0  0  0  0
    3.1537   -0.0898   -0.1364 C   0  0  0  0  0  0  0  0  0  0  0  0
    4.0959    1.0422    0.2130 C   0  0  0  0  0  0  0  0  0  0  0  0
  1  9  1  0
  1 10  1  0
  2  9  2  0
  3  4  1  0
  3  8  1  0
  4  5  1  0
  4  9  1  0
  5  6  1  0
  6  7  1  0
  7  8  1  0
 10 11  1  0
M  END
>  <PUBCHEM_COMPOUND_CID>  (1) 
27517

>  <PUBCHEM_CONFORMER_RMSD>  (1) 
0.6

>  <PUBCHEM_CONFORMER_DIVERSEORDER>  (1) 
1
42
60
30
52
45
14
66
40
10
9
21
41
65
4
59
58
5
37
7
64
47
12
16
18
23
43
13
20
11
61
51
34
19
36
56
17
32
62
6
67
48
39
8
27
26
35
55
57
33
15
50
2
68
44
63
49
38
53
31
46
22
28
3
54
29
24
25

>  <PUBCHEM_MMFF94_PARTIAL_CHARGES>  (1) 
8
1 -0.43
10 0.28
2 -0.57
21 0.36
3 -0.9
4 0.33
8 0.27
9 0.66

>  <PUBCHEM_EFFECTIVE_ROTOR_COUNT>  (1) 
4.2

>  <PUBCHEM_PHARMACOPHORE_FEATURES>  (1) 
4
1 2 acceptor
1 3 cation
1 3 donor
6 3 4 5 6 7 8 rings

>  <PUBCHEM_HEAVY_ATOM_COUNT>  (1) 
11

>  <PUBCHEM_ATOM_DEF_STEREO_COUNT>  (1) 
0

>  <PUBCHEM_ATOM_UDEF_STEREO_COUNT>  (1) 
1

>  <PUBCHEM_BOND_DEF_STEREO_COUNT>  (1) 
0

>  <PUBCHEM_BOND_UDEF_STEREO_COUNT>  (1) 
0

>  <PUBCHEM_ISOTOPIC_ATOM_COUNT>  (1) 
0

>  <PUBCHEM_COMPONENT_COUNT>  (1) 
1

>  <PUBCHEM_CACTVS_TAUTO_COUNT>  (1) 
1

>  <PUBCHEM_CONFORMER_ID>  (1) 
00006B7D00000001

>  <PUBCHEM_MMFF94_ENERGY>  (1) 
2.3888

>  <PUBCHEM_FEATURE_SELFOVERLAP>  (1) 
20.297

>  <PUBCHEM_SHAPE_FINGERPRINT>  (1) 
10608611 8 18338796710944809668
11062470 55 17240198841666037845
11132069 177 18334293180000031652
12897270 3 18412826863086362773
12932764 1 16988267703760090339
13380535 76 18409727335470815154
14325111 11 18410855447644212536
14390081 3 18411699850725072080
15219456 202 18340773637030369766
16945 1 18410581690649821333
17846911 113 18411130346820485712
18186145 218 17703798037299226168
20201158 50 18412261718541770697
20871998 184 18341619269173606479
21028194 46 18411139130292187576
21501502 16 18268144258333432195
22485316 2 9367347024872604384
23235685 24 18410567370902029708
23402539 116 18261384602933460847
23402655 69 18270667664054100693
23552423 10 18117280255212609259
2748010 2 18264499381798638991
369184 2 16732701627794583649
6333449 129 18410572890203887477
7364860 26 18194117413443453522
75552 356 18186523232489928971

>  <PUBCHEM_SHAPE_MULTIPOLES>  (1) 
209.66
6.11
1.53
0.68
4.3
0
0
1.72
0.27
-0.35
-0.12
-0.05
-0.02
0.38

>  <PUBCHEM_SHAPE_SELFOVERLAP>  (1) 
407.196

>  <PUBCHEM_SHAPE_VOLUME>  (1) 
126.3

>  <PUBCHEM_COORDINATE_TYPE>  (1) 
2
5
10

$$$$
