27516
     RDKit          3D

 18 18  0  0  0  0  0  0  0  0999 V2000
    3.5318    0.1471   -0.5065 O   0  0  0  0  0  0  0  0  0  0  0  0
   -4.0458   -0.9549   -0.6978 O   0  0  0  0  0  0  0  0  0  0  0  0
   -0.3598    3.1454    0.0042 O   0  0  0  0  0  0  0  0  0  0  0  0
   -2.1001    1.8296    0.2472 O   0  0  0  0  0  0  0  0  0  0  0  0
   -1.7027   -0.7680    2.5355 O   0  0  0  0  0  0  0  0  0  0  0  0
   -1.9094   -0.6521    0.2330 N   0  0  0  0  0  0  0  0  0  0  0  0
   -0.8704    2.0035    0.0800 N   0  0  0  0  0  0  0  0  0  0  0  0
   -2.5239   -0.8358    1.6152 N   0  0  0  0  0  0  0  0  0  0  0  0
   -0.5411   -0.4290    0.0496 C   0  0  0  0  0  0  0  0  0  0  0  0
   -0.0241    0.8642   -0.0283 C   0  0  0  0  0  0  0  0  0  0  0  0
    2.1962   -0.0414   -0.3237 C   0  0  0  0  0  0  0  0  0  0  0  0
    1.3446    1.0581   -0.2150 C   0  0  0  0  0  0  0  0  0  0  0  0
    0.3104   -1.5283   -0.0591 C   0  0  0  0  0  0  0  0  0  0  0  0
    1.6790   -1.3345   -0.2457 C   0  0  0  0  0  0  0  0  0  0  0  0
    4.4063   -0.8488    0.0216 C   0  0  0  0  0  0  0  0  0  0  0  0
   -2.8331   -0.7823   -0.8453 C   0  0  0  0  0  0  0  0  0  0  0  0
    5.7256   -0.2028    0.3875 C   0  0  0  0  0  0  0  0  0  0  0  0
   -2.2835   -0.6699   -2.2523 C   0  0  0  0  0  0  0  0  0  0  0  0
  1 11  1  0
  1 15  1  0
  2 16  2  0
  3  7  1  0
  4  7  2  0
  5  8  2  0
  6  8  1  0
  6  9  1  0
  6 16  1  0
  7 10  1  0
  9 10  2  0
  9 13  1  0
 10 12  1  0
 11 12  2  0
 11 14  1  0
 13 14  2  0
 15 17  1  0
 16 18  1  0
M  CHG  2   3  -1   7   1
M  END
>  <PUBCHEM_COMPOUND_CID>  (1) 
27516

>  <PUBCHEM_CONFORMER_RMSD>  (1) 
0.8

>  <PUBCHEM_CONFORMER_DIVERSEORDER>  (1) 
1
11
10
2
8
9
7
12
4
5
6
3

>  <PUBCHEM_MMFF94_PARTIAL_CHARGES>  (1) 
20
1 -0.36
10 0.13
11 0.08
12 -0.15
13 -0.15
14 -0.15
15 0.28
16 0.57
18 0.06
19 0.15
2 -0.57
20 0.15
21 0.15
3 -0.52
4 -0.52
5 -0.16
6 0.01
7 0.91
8 -0.02
9 0.12

>  <PUBCHEM_EFFECTIVE_ROTOR_COUNT>  (1) 
6

>  <PUBCHEM_PHARMACOPHORE_FEATURES>  (1) 
6
1 1 acceptor
1 2 acceptor
1 3 acceptor
1 3 anion
1 4 acceptor
6 9 10 11 12 13 14 rings

>  <PUBCHEM_HEAVY_ATOM_COUNT>  (1) 
18

>  <PUBCHEM_ATOM_DEF_STEREO_COUNT>  (1) 
0

>  <PUBCHEM_ATOM_UDEF_STEREO_COUNT>  (1) 
0

>  <PUBCHEM_BOND_DEF_STEREO_COUNT>  (1) 
0

>  <PUBCHEM_BOND_UDEF_STEREO_COUNT>  (1) 
0

>  <PUBCHEM_ISOTOPIC_ATOM_COUNT>  (1) 
0

>  <PUBCHEM_COMPONENT_COUNT>  (1) 
1

>  <PUBCHEM_CACTVS_TAUTO_COUNT>  (1) 
1

>  <PUBCHEM_CONFORMER_ID>  (1) 
00006B7C00000001

>  <PUBCHEM_MMFF94_ENERGY>  (1) 
83.311

>  <PUBCHEM_FEATURE_SELFOVERLAP>  (1) 
30.53

>  <PUBCHEM_SHAPE_FINGERPRINT>  (1) 
11132069 177 17988650674927907302
11315181 36 17894632557287884050
11401426 45 18341886407443754270
11578080 2 17273670188046372137
124424 183 17894628179888385106
13140716 1 18194971966053935330
14289901 80 15913331316665215542
16945 1 18338812185854317622
18534176 82 17022901289464702247
187816 3 18186794790334639551
18927931 339 18410019801970527918
19010151 120 18202002169933563415
200 152 18408595968302629126
20510252 161 18272369729359597904
20525323 117 18339927008919009054
21339142 126 18271804596934990700
21501502 16 18193833739495909930
21524375 3 17398960370664394764
2306618 200 17846217700692509272
23175994 123 18260270775889173317
23402539 116 18342729728609495878
23419403 2 17752496613942001529
23493267 7 17168134637668160168
23526113 38 17897719001447150273
23557571 272 17775007864938277260
23559900 14 17095520734561368284
2748010 2 18052273807889910054
3286 77 18045795730392851019
34934 24 18266737978824996237
53917941 68 17970893484382209749
81228 2 18263373490218343944

>  <PUBCHEM_SHAPE_MULTIPOLES>  (1) 
326.14
7.45
1.99
1.41
10.18
1.82
0.46
-2.37
-0.26
-0.84
-0.08
-1.67
-0.53
-0.21

>  <PUBCHEM_SHAPE_SELFOVERLAP>  (1) 
671.712

>  <PUBCHEM_SHAPE_VOLUME>  (1) 
186.9

>  <PUBCHEM_COORDINATE_TYPE>  (1) 
2
5
10

$$$$
