27511
     RDKit          3D

 15 15  0  0  0  0  0  0  0  0999 V2000
   -4.2500    1.7606   -0.8562 Cl  0  0  0  0  0  0  0  0  0  0  0  0
   -2.7350   -3.0079    0.4169 Cl  0  0  0  0  0  0  0  0  0  0  0  0
    0.8487    2.0567    0.7568 O   0  0  0  0  0  0  0  0  0  0  0  0
    1.6838   -0.0487    0.2745 N   0  0  0  0  0  0  0  0  0  0  0  0
    2.9633    0.3546    0.4443 N   0  0  0  0  0  0  0  0  0  0  0  0
   -3.2772   -0.5462   -0.1853 N   0  0  0  0  0  0  0  0  0  0  0  0
   -0.7076    0.3809    0.2302 C   0  0  0  0  0  0  0  0  0  0  0  0
    0.6744    0.8794    0.4526 C   0  0  0  0  0  0  0  0  0  0  0  0
    3.8812   -0.2460   -0.2505 C   0  0  0  0  0  0  0  0  0  0  0  0
   -1.6798    1.2681   -0.1667 C   0  0  0  0  0  0  0  0  0  0  0  0
   -0.9741   -0.9532    0.4269 C   0  0  0  0  0  0  0  0  0  0  0  0
    5.3587    0.0605   -0.2005 C   0  0  0  0  0  0  0  0  0  0  0  0
    3.4427   -1.3449   -1.1869 C   0  0  0  0  0  0  0  0  0  0  0  0
   -2.9516    0.7540   -0.3617 C   0  0  0  0  0  0  0  0  0  0  0  0
   -2.2775   -1.3680    0.2055 C   0  0  0  0  0  0  0  0  0  0  0  0
  1 14  1  0
  2 15  1  0
  3  8  2  0
  4  5  1  0
  4  8  1  0
  5  9  2  3
  6 14  2  0
  6 15  1  0
  7  8  1  0
  7 10  2  0
  7 11  1  0
  9 12  1  0
  9 13  1  0
 10 14  1  0
 11 15  2  0
M  END
>  <PUBCHEM_COMPOUND_CID>  (1) 
27511

>  <PUBCHEM_CONFORMER_RMSD>  (1) 
0.6

>  <PUBCHEM_CONFORMER_DIVERSEORDER>  (1) 
2
1
3

>  <PUBCHEM_MMFF94_PARTIAL_CHARGES>  (1) 
18
1 -0.18
10 -0.15
11 -0.15
12 0.06
13 0.06
14 0.49
15 0.49
16 0.15
17 0.15
18 0.37
2 -0.18
3 -0.57
4 -0.37
5 -0.51
6 -0.62
7 0.09
8 0.54
9 0.33

>  <PUBCHEM_EFFECTIVE_ROTOR_COUNT>  (1) 
3

>  <PUBCHEM_PHARMACOPHORE_FEATURES>  (1) 
5
1 3 acceptor
1 4 donor
1 5 acceptor
1 6 acceptor
6 6 7 10 11 14 15 rings

>  <PUBCHEM_HEAVY_ATOM_COUNT>  (1) 
15

>  <PUBCHEM_ATOM_DEF_STEREO_COUNT>  (1) 
0

>  <PUBCHEM_ATOM_UDEF_STEREO_COUNT>  (1) 
0

>  <PUBCHEM_BOND_DEF_STEREO_COUNT>  (1) 
0

>  <PUBCHEM_BOND_UDEF_STEREO_COUNT>  (1) 
0

>  <PUBCHEM_ISOTOPIC_ATOM_COUNT>  (1) 
0

>  <PUBCHEM_COMPONENT_COUNT>  (1) 
1

>  <PUBCHEM_CACTVS_TAUTO_COUNT>  (1) 
2

>  <PUBCHEM_CONFORMER_ID>  (1) 
00006B7700000002

>  <PUBCHEM_MMFF94_ENERGY>  (1) 
44.5557

>  <PUBCHEM_FEATURE_SELFOVERLAP>  (1) 
25.377

>  <PUBCHEM_SHAPE_FINGERPRINT>  (1) 
10014705 185 18186802482721410484
12500047 106 18335696126740400975
12555020 224 18267019453522281855
13296908 3 18271807955889572914
13760787 19 18040994025427252618
14115302 16 18335146375110964020
14386348 63 18201723946648093902
14790565 3 17907583523735908777
14911166 2 18411693253961513981
15375358 24 18273210881271403494
17804303 29 18410294748280015185
17870717 6 18341627979425019574
19433438 15 17313112947099395526
200 152 16702015357495512301
20201158 50 18272653424470507414
20279233 1 18273217478430931894
20645476 183 17894348856800962131
20645477 56 18334294245220525349
20645477 70 17489024847530318054
20871998 22 17759526960315667003
20871999 31 18334012821619645094
21079973 296 18412824716177630362
21652331 79 9222645805546874622
22079108 93 14707505684579797349
221490 88 18267026244350386104
22485316 2 18410291402669387538
22943178 12 18270672198679579160
23402539 116 18409158888106883460
23403322 49 18342742897084882486
23557571 272 18410016562979228036
23559900 14 18412824651990530114
2748010 2 18194670682587659689
293599 30 18263079916804083205
3312278 4 18411703175319864306
3759504 43 17676209040058753875
4175511 318 17822287951248128493
4921388 177 17095535023100339866
559249 180 18187356576700310930
573450 72 18040984147165924450
7364860 26 18126002917168700528
81228 2 17915187823389023448
8809292 202 18337392741928111331
9709674 26 18341608269361005886

>  <PUBCHEM_SHAPE_MULTIPOLES>  (1) 
291.62
9.03
2.32
0.86
9.21
1.37
0.13
-0.17
2.35
-2.93
-0.14
0.18
-0.02
1.25

>  <PUBCHEM_SHAPE_SELFOVERLAP>  (1) 
582.822

>  <PUBCHEM_SHAPE_VOLUME>  (1) 
175

>  <PUBCHEM_COORDINATE_TYPE>  (1) 
2
5
10

$$$$
