27515
     RDKit          3D

 15 15  0  0  0  0  0  0  0  0999 V2000
    3.4145   -0.4560    0.1826 O   0  0  0  0  0  0  0  0  0  0  0  0
   -2.2623    2.2538   -0.2241 O   0  0  0  0  0  0  0  0  0  0  0  0
   -2.5360   -2.2880    0.5195 O   0  0  0  0  0  0  0  0  0  0  0  0
   -2.1139   -0.0859   -0.0561 N   0  0  0  0  0  0  0  0  0  0  0  0
   -3.0127   -1.3182   -0.0789 N   0  0  0  0  0  0  0  0  0  0  0  0
   -0.7230   -0.1788    0.0034 C   0  0  0  0  0  0  0  0  0  0  0  0
    2.0579   -0.3646    0.1229 C   0  0  0  0  0  0  0  0  0  0  0  0
    0.0208    0.8523    0.5771 C   0  0  0  0  0  0  0  0  0  0  0  0
   -0.0764   -1.3029   -0.5105 C   0  0  0  0  0  0  0  0  0  0  0  0
    1.4113    0.7594    0.6368 C   0  0  0  0  0  0  0  0  0  0  0  0
    1.3141   -1.3957   -0.4507 C   0  0  0  0  0  0  0  0  0  0  0  0
    4.1501    0.7658    0.1407 C   0  0  0  0  0  0  0  0  0  0  0  0
   -2.8157    1.1532   -0.1563 C   0  0  0  0  0  0  0  0  0  0  0  0
    5.4998    0.5073   -0.4944 C   0  0  0  0  0  0  0  0  0  0  0  0
   -4.3285    1.0985   -0.2119 C   0  0  0  0  0  0  0  0  0  0  0  0
  1  7  1  0
  1 12  1  0
  2 13  2  0
  3  5  2  0
  4  5  1  0
  4  6  1  0
  4 13  1  0
  6  8  2  0
  6  9  1  0
  7 10  2  0
  7 11  1  0
  8 10  1  0
  9 11  2  0
 12 14  1  0
 13 15  1  0
M  END
>  <PUBCHEM_COMPOUND_CID>  (1) 
27515

>  <PUBCHEM_CONFORMER_RMSD>  (1) 
0.6

>  <PUBCHEM_CONFORMER_DIVERSEORDER>  (1) 
1
32
62
25
54
14
43
21
16
18
49
15
63
23
36
35
13
20
50
30
2
19
38
47
59
45
37
53
40
48
33
11
57
4
55
58
42
28
26
56
41
31
46
44
51
60
39
61
65
64
66
29
27
6
22
3
9
17
34
10
12
52
24
8
5
7

>  <PUBCHEM_MMFF94_PARTIAL_CHARGES>  (1) 
18
1 -0.36
10 -0.15
11 -0.15
12 0.28
13 0.57
15 0.06
16 0.15
17 0.15
18 0.15
19 0.15
2 -0.57
3 -0.16
4 0.01
5 -0.02
6 0.12
7 0.08
8 -0.15
9 -0.15

>  <PUBCHEM_EFFECTIVE_ROTOR_COUNT>  (1) 
5

>  <PUBCHEM_PHARMACOPHORE_FEATURES>  (1) 
3
1 1 acceptor
1 2 acceptor
6 6 7 8 9 10 11 rings

>  <PUBCHEM_HEAVY_ATOM_COUNT>  (1) 
15

>  <PUBCHEM_ATOM_DEF_STEREO_COUNT>  (1) 
0

>  <PUBCHEM_ATOM_UDEF_STEREO_COUNT>  (1) 
0

>  <PUBCHEM_BOND_DEF_STEREO_COUNT>  (1) 
0

>  <PUBCHEM_BOND_UDEF_STEREO_COUNT>  (1) 
0

>  <PUBCHEM_ISOTOPIC_ATOM_COUNT>  (1) 
0

>  <PUBCHEM_COMPONENT_COUNT>  (1) 
1

>  <PUBCHEM_CACTVS_TAUTO_COUNT>  (1) 
1

>  <PUBCHEM_CONFORMER_ID>  (1) 
00006B7B00000001

>  <PUBCHEM_MMFF94_ENERGY>  (1) 
59.5435

>  <PUBCHEM_FEATURE_SELFOVERLAP>  (1) 
15.223

>  <PUBCHEM_SHAPE_FINGERPRINT>  (1) 
10608611 8 18341607122678805360
13214271 11 18412823607437914062
13380535 76 18341326691764269455
13760787 19 18259982669762818330
14325111 11 18412260627767822586
14911166 2 17846497028523330992
14993402 34 16343695526141650260
15219456 202 18343308028528236351
16945 1 18339364059007766297
19026448 5 17748820822253502738
200 152 17132109152411840271
20645477 56 18335140864968512365
20645477 70 17202770289473549294
21501502 16 18338224969209261651
23402539 116 18114176458108750151
23402655 69 18058719188244575757
23493267 7 18409726253392115242
23557571 272 18340496641646344860
23559900 14 18342459184905035806
2748010 2 18128520751319220953
3312278 4 18342459235605470698
3545911 37 18409731742196756332
4990 188 17418095403977932700
5104073 3 18411134745320463906
58051976 378 18342739589791181748
8809292 202 18410855456176268019

>  <PUBCHEM_SHAPE_MULTIPOLES>  (1) 
281.12
8.59
1.85
0.72
6.58
0.34
-0.01
-2.75
1.08
-1.7
0.01
0.12
0
0.37

>  <PUBCHEM_SHAPE_SELFOVERLAP>  (1) 
570.834

>  <PUBCHEM_SHAPE_VOLUME>  (1) 
162.9

>  <PUBCHEM_COORDINATE_TYPE>  (1) 
2
5
10

$$$$
