27529
     RDKit          3D

 17 18  0  0  1  0  0  0  0  0999 V2000
   -1.2184   -2.1562    0.6679 O   0  0  0  0  0  0  0  0  0  0  0  0
    0.9941   -1.0768   -0.5212 N   0  0  0  0  0  0  0  0  0  0  0  0
   -0.1991   -0.4396   -0.5044 N   0  0  0  0  0  0  0  0  0  0  0  0
   -4.9474    1.0625    0.0226 N   0  0  0  0  0  0  0  0  0  0  0  0
    4.2573   -0.1689    0.4692 C   0  0  0  0  0  0  0  0  0  0  0  0
    4.1663    1.3651    0.3944 C   0  0  0  0  0  0  0  0  0  0  0  0
    3.4103   -0.8223   -0.6277 C   0  0  0  0  0  0  0  0  0  0  0  0
    2.7158    1.8457    0.4825 C   0  0  0  0  0  0  0  0  0  0  0  0
    1.8460    1.2239   -0.6033 C   0  0  0  0  0  0  0  0  0  0  0  0
    2.0066   -0.2752   -0.5695 C   0  0  0  0  0  0  0  0  0  0  0  0
    5.7102   -0.6284    0.3697 C   0  0  0  0  0  0  0  0  0  0  0  0
   -1.2665   -1.0581    0.1193 C   0  0  0  0  0  0  0  0  0  0  0  0
   -2.5539   -0.3166    0.0844 C   0  0  0  0  0  0  0  0  0  0  0  0
   -3.7312   -1.0230    0.1506 C   0  0  0  0  0  0  0  0  0  0  0  0
   -2.5300    1.0544   -0.0116 C   0  0  0  0  0  0  0  0  0  0  0  0
   -4.9036   -0.2856    0.1160 C   0  0  0  0  0  0  0  0  0  0  0  0
   -3.7563    1.6990   -0.0390 C   0  0  0  0  0  0  0  0  0  0  0  0
  1 12  2  0
  2  3  1  0
  2 10  2  0
  3 12  1  0
  4 16  2  0
  4 17  1  0
  5  6  1  0
  5  7  1  0
  5 11  1  0
  6  8  1  0
  7 10  1  0
  8  9  1  0
  9 10  1  0
 12 13  1  0
 13 14  2  0
 13 15  1  0
 14 16  1  0
 15 17  2  0
M  END
>  <PUBCHEM_COMPOUND_CID>  (1) 
27529

>  <PUBCHEM_CONFORMER_RMSD>  (1) 
0.6

>  <PUBCHEM_CONFORMER_DIVERSEORDER>  (1) 
2
3
6
4
7
8
1
5

>  <PUBCHEM_MMFF94_PARTIAL_CHARGES>  (1) 
18
1 -0.57
10 0.33
12 0.54
13 0.09
14 -0.15
15 -0.15
16 0.16
17 0.16
2 -0.51
3 -0.37
30 0.37
31 0.15
32 0.15
33 0.15
34 0.15
4 -0.62
7 0.06
9 0.06

>  <PUBCHEM_EFFECTIVE_ROTOR_COUNT>  (1) 
4

>  <PUBCHEM_PHARMACOPHORE_FEATURES>  (1) 
6
1 1 acceptor
1 2 acceptor
1 3 donor
1 4 acceptor
6 4 13 14 15 16 17 rings
6 5 6 7 8 9 10 rings

>  <PUBCHEM_HEAVY_ATOM_COUNT>  (1) 
17

>  <PUBCHEM_ATOM_DEF_STEREO_COUNT>  (1) 
0

>  <PUBCHEM_ATOM_UDEF_STEREO_COUNT>  (1) 
1

>  <PUBCHEM_BOND_DEF_STEREO_COUNT>  (1) 
0

>  <PUBCHEM_BOND_UDEF_STEREO_COUNT>  (1) 
1

>  <PUBCHEM_ISOTOPIC_ATOM_COUNT>  (1) 
0

>  <PUBCHEM_COMPONENT_COUNT>  (1) 
1

>  <PUBCHEM_CACTVS_TAUTO_COUNT>  (1) 
2

>  <PUBCHEM_CONFORMER_ID>  (1) 
00006B8900000002

>  <PUBCHEM_MMFF94_ENERGY>  (1) 
46.5095

>  <PUBCHEM_FEATURE_SELFOVERLAP>  (1) 
30.453

>  <PUBCHEM_SHAPE_FINGERPRINT>  (1) 
10608611 8 18412828014169383005
11128504 68 13254791365323393018
12107183 9 17758952623923454856
12251169 10 18260829327885832198
12403260 363 18411134779363677389
12507557 5 18344146990259889985
12596602 18 16298396789596946193
128620 24 12391516386180007992
13081056 2 18341897393933057053
13533116 47 17749380426216813723
13675066 3 18408889554870706466
13922767 16 18343582949817019084
14251764 18 18335133216169497160
14251764 38 18272375256323891513
14341114 176 18335144219279876896
15042514 8 18118128189542966219
15196674 1 18411701010345402825
15531645 54 18411700950779992854
17802600 8 18411698790042366261
1813 80 16298385734841451430
18186145 218 18129677321814124095
18522853 276 18343022185611853657
19433438 28 18334860536826957337
19489759 90 18259983773621926867
200 152 17632857521152236543
20645477 56 18411422808518685855
20645477 70 17346329146193548878
21065198 57 18337110180551430530
21065199 12 18336829817950033762
21279426 13 18123189000862015862
212847 35 18408045117546380652
212916 134 18339909472631161866
21524375 3 18408606942081330687
21618674 57 18186518796089457930
23402539 116 18412537726246783423
23559900 14 18272090461795902854
351380 180 18413669114768402105
3545911 37 18342460330822228439
42 15 18187364333210319334
4214541 1 18410573998041627785
5104073 3 18410295851680442129
6328613 192 18334303097844584852
69090 78 18342737442323416407
7495541 125 17060051626977662955
9709674 26 18341058492130862591

>  <PUBCHEM_SHAPE_MULTIPOLES>  (1) 
329.04
11.94
1.81
0.76
0.96
0.29
-0.02
1.37
1.51
-0.23
0.18
0.33
-0.03
0.4

>  <PUBCHEM_SHAPE_SELFOVERLAP>  (1) 
685.794

>  <PUBCHEM_SHAPE_VOLUME>  (1) 
184.6

>  <PUBCHEM_COORDINATE_TYPE>  (1) 
2
5
10

$$$$
