27520
     RDKit          3D

 10 10  0  0  0  0  0  0  0  0999 V2000
    2.4815   -0.0733   -0.0011 O   0  0  0  0  0  0  0  0  0  0  0  0
    1.0448   -2.4763    0.0000 N   0  0  0  0  0  0  0  0  0  0  0  0
   -3.0813    0.0778   -0.0004 N   0  0  0  0  0  0  0  0  0  0  0  0
    0.4534    1.1883   -0.0003 C   0  0  0  0  0  0  0  0  0  0  0  0
    1.1173   -0.0385    0.0003 C   0  0  0  0  0  0  0  0  0  0  0  0
    0.3867   -1.2269    0.0006 C   0  0  0  0  0  0  0  0  0  0  0  0
   -0.9409    1.2270   -0.0004 C   0  0  0  0  0  0  0  0  0  0  0  0
   -1.6714    0.0388    0.0000 C   0  0  0  0  0  0  0  0  0  0  0  0
   -1.0077   -1.1881    0.0005 C   0  0  0  0  0  0  0  0  0  0  0  0
    1.2177    2.4713    0.0008 C   0  0  0  0  0  0  0  0  0  0  0  0
  1  5  1  0
  2  6  1  0
  3  8  1  0
  4  5  2  0
  4  7  1  0
  4 10  1  0
  5  6  1  0
  6  9  2  0
  7  8  2  0
  8  9  1  0
M  END
>  <PUBCHEM_COMPOUND_CID>  (1) 
27520

>  <PUBCHEM_CONFORMER_RMSD>  (1) 
0.4

>  <PUBCHEM_CONFORMER_DIVERSEORDER>  (1) 
1

>  <PUBCHEM_MMFF94_PARTIAL_CHARGES>  (1) 
17
1 -0.53
10 0.14
11 0.15
12 0.15
16 0.4
17 0.4
18 0.4
19 0.4
2 -0.9
20 0.45
3 -0.9
4 -0.14
5 0.08
6 0.1
7 -0.15
8 0.1
9 -0.15

>  <PUBCHEM_EFFECTIVE_ROTOR_COUNT>  (1) 
0

>  <PUBCHEM_PHARMACOPHORE_FEATURES>  (1) 
6
1 1 donor
1 2 cation
1 2 donor
1 3 cation
1 3 donor
6 4 5 6 7 8 9 rings

>  <PUBCHEM_HEAVY_ATOM_COUNT>  (1) 
10

>  <PUBCHEM_ATOM_DEF_STEREO_COUNT>  (1) 
0

>  <PUBCHEM_ATOM_UDEF_STEREO_COUNT>  (1) 
0

>  <PUBCHEM_BOND_DEF_STEREO_COUNT>  (1) 
0

>  <PUBCHEM_BOND_UDEF_STEREO_COUNT>  (1) 
0

>  <PUBCHEM_ISOTOPIC_ATOM_COUNT>  (1) 
0

>  <PUBCHEM_COMPONENT_COUNT>  (1) 
1

>  <PUBCHEM_CACTVS_TAUTO_COUNT>  (1) 
16

>  <PUBCHEM_CONFORMER_ID>  (1) 
00006B8000000001

>  <PUBCHEM_MMFF94_ENERGY>  (1) 
46.1653

>  <PUBCHEM_FEATURE_SELFOVERLAP>  (1) 
30.45

>  <PUBCHEM_SHAPE_FINGERPRINT>  (1) 
12423570 1 12607414311708755730
16945 1 18410855456028399301
18185500 45 18340205185228954567
193761 8 17762337311587466530
21040471 1 17978510067741789349
23552423 10 18337669848907036655
241688 4 17906173945074430369
2748010 2 18121221140914204189
29004967 10 18335708195666983627
5084963 1 18130790121827977977

>  <PUBCHEM_SHAPE_MULTIPOLES>  (1) 
189.96
2.79
2.37
0.59
1.08
0.54
0
-0.76
0
-0.97
0
0
-0.02
0

>  <PUBCHEM_SHAPE_SELFOVERLAP>  (1) 
397.043

>  <PUBCHEM_SHAPE_VOLUME>  (1) 
108.9

>  <PUBCHEM_COORDINATE_TYPE>  (1) 
2
5
10

$$$$
