27523
     RDKit          3D

  7  6  0  0  1  0  0  0  0  0999 V2000
    2.7066    0.6766   -0.2978 O   0  0  0  0  0  0  0  0  0  0  0  0
   -0.5865   -0.5063    0.3074 C   0  0  0  0  0  0  0  0  0  0  0  0
   -0.9563    0.8850   -0.2483 C   0  0  0  0  0  0  0  0  0  0  0  0
    0.8515   -0.8833   -0.0879 C   0  0  0  0  0  0  0  0  0  0  0  0
   -1.5496   -1.5855   -0.1983 C   0  0  0  0  0  0  0  0  0  0  0  0
   -2.3671    1.3293    0.1129 C   0  0  0  0  0  0  0  0  0  0  0  0
    1.9014    0.0841    0.4121 C   0  0  0  0  0  0  0  0  0  0  0  0
  1  7  2  0
  2  3  1  0
  2  4  1  0
  2  5  1  0
  3  6  1  0
  4  7  1  0
M  END
>  <PUBCHEM_COMPOUND_CID>  (1) 
27523

>  <PUBCHEM_CONFORMER_RMSD>  (1) 
0.4

>  <PUBCHEM_CONFORMER_DIVERSEORDER>  (1) 
1
28
7
5
21
9
22
6
25
3
14
13
2
27
16
26
8
20
18
24
19
12
15
11
10
4
17
23

>  <PUBCHEM_MMFF94_PARTIAL_CHARGES>  (1) 
4
1 -0.57
19 0.06
4 0.06
7 0.45

>  <PUBCHEM_EFFECTIVE_ROTOR_COUNT>  (1) 
3

>  <PUBCHEM_PHARMACOPHORE_FEATURES>  (1) 
3
1 1 acceptor
1 5 hydrophobe
1 6 hydrophobe

>  <PUBCHEM_HEAVY_ATOM_COUNT>  (1) 
7

>  <PUBCHEM_ATOM_DEF_STEREO_COUNT>  (1) 
0

>  <PUBCHEM_ATOM_UDEF_STEREO_COUNT>  (1) 
1

>  <PUBCHEM_BOND_DEF_STEREO_COUNT>  (1) 
0

>  <PUBCHEM_BOND_UDEF_STEREO_COUNT>  (1) 
0

>  <PUBCHEM_ISOTOPIC_ATOM_COUNT>  (1) 
0

>  <PUBCHEM_COMPONENT_COUNT>  (1) 
1

>  <PUBCHEM_CACTVS_TAUTO_COUNT>  (1) 
2

>  <PUBCHEM_CONFORMER_ID>  (1) 
00006B8300000001

>  <PUBCHEM_MMFF94_ENERGY>  (1) 
4.5709

>  <PUBCHEM_FEATURE_SELFOVERLAP>  (1) 
15.224

>  <PUBCHEM_SHAPE_FINGERPRINT>  (1) 
14390081 3 18343577430346531752
16714656 1 18341332313523018991
20096714 4 18265049137311664594
21040471 1 18339919299246932489
23552423 10 18261109664770432570
23552449 1 18340764952548384009
24536 1 18338781356462963774

>  <PUBCHEM_SHAPE_MULTIPOLES>  (1) 
138.19
3.4
1.56
0.67
1.22
0.31
-0.02
-1.31
0.06
-0.92
0.09
0.02
0
-0.12

>  <PUBCHEM_SHAPE_SELFOVERLAP>  (1) 
243.494

>  <PUBCHEM_SHAPE_VOLUME>  (1) 
91

>  <PUBCHEM_COORDINATE_TYPE>  (1) 
2
5
10

$$$$
