27532
     RDKit          3D

 13 12  0  0  0  0  0  0  0  0999 V2000
    3.8841   -0.1596    0.0051 S   0  0  0  0  0  0  0  0  0  0  0  0
   -3.8844   -0.1606    0.0047 S   0  0  0  0  0  0  0  0  0  0  0  0
    2.3982    0.5175   -0.0055 O   0  0  0  0  0  0  0  0  0  0  0  0
   -2.4026    0.5250   -0.0046 O   0  0  0  0  0  0  0  0  0  0  0  0
    4.1190   -0.8251   -1.2601 O   0  0  0  0  0  0  0  0  0  0  0  0
    4.1018   -0.8235    1.2744 O   0  0  0  0  0  0  0  0  0  0  0  0
   -4.0976   -0.8290    1.2724 O   0  0  0  0  0  0  0  0  0  0  0  0
   -4.1161   -0.8243   -1.2621 O   0  0  0  0  0  0  0  0  0  0  0  0
    0.0055    0.5229   -0.0220 C   0  0  0  0  0  0  0  0  0  0  0  0
    1.2607   -0.3339   -0.0127 C   0  0  0  0  0  0  0  0  0  0  0  0
   -1.2599   -0.3202   -0.0145 C   0  0  0  0  0  0  0  0  0  0  0  0
    4.8033    1.3585    0.0104 C   0  0  0  0  0  0  0  0  0  0  0  0
   -4.8121    1.3523    0.0144 C   0  0  0  0  0  0  0  0  0  0  0  0
  1  3  1  0
  1  5  2  0
  1  6  2  0
  1 12  1  0
  2  4  1  0
  2  7  2  0
  2  8  2  0
  2 13  1  0
  3 10  1  0
  4 11  1  0
  9 10  1  0
  9 11  1  0
M  END
>  <PUBCHEM_COMPOUND_CID>  (1) 
27532

>  <PUBCHEM_CONFORMER_RMSD>  (1) 
0.6

>  <PUBCHEM_CONFORMER_DIVERSEORDER>  (1) 
1
87
117
78
70
68
17
49
64
72
71
62
66
76
80
14
4
103
94
33
105
79
65
7
116
5
90
73
47
112
10
106
69
99
113
83
67
104
6
16
101
32
61
102
111
85
24
23
11
114
74
115
21
30
22
89
96
97
93
18
45
59
98
82
37
56
48
20
12
36
92
39
107
8
108
88
75
81
58
3
9
38
57
50
86
15
46
35
110
43
54
34
91
109
120
118
2
19
13
40
60
63
44
119
52
55
51
25
42
29
41
121
53
95
100
31
28
27
26
77
84

>  <PUBCHEM_MMFF94_PARTIAL_CHARGES>  (1) 
12
1 1.38
10 0.28
11 0.28
12 0.11
13 0.11
2 1.38
3 -0.46
4 -0.46
5 -0.65
6 -0.65
7 -0.65
8 -0.65

>  <PUBCHEM_EFFECTIVE_ROTOR_COUNT>  (1) 
6

>  <PUBCHEM_PHARMACOPHORE_FEATURES>  (1) 
4
1 5 acceptor
1 6 acceptor
1 7 acceptor
1 8 acceptor

>  <PUBCHEM_HEAVY_ATOM_COUNT>  (1) 
13

>  <PUBCHEM_ATOM_DEF_STEREO_COUNT>  (1) 
0

>  <PUBCHEM_ATOM_UDEF_STEREO_COUNT>  (1) 
0

>  <PUBCHEM_BOND_DEF_STEREO_COUNT>  (1) 
0

>  <PUBCHEM_BOND_UDEF_STEREO_COUNT>  (1) 
0

>  <PUBCHEM_ISOTOPIC_ATOM_COUNT>  (1) 
0

>  <PUBCHEM_COMPONENT_COUNT>  (1) 
1

>  <PUBCHEM_CACTVS_TAUTO_COUNT>  (1) 
1

>  <PUBCHEM_CONFORMER_ID>  (1) 
00006B8C00000001

>  <PUBCHEM_MMFF94_ENERGY>  (1) 
7.295

>  <PUBCHEM_FEATURE_SELFOVERLAP>  (1) 
20.332

>  <PUBCHEM_SHAPE_FINGERPRINT>  (1) 
10680689 15 18343868818539979309
10912923 1 18413385449279125994
14123238 8 18343300392165762420
14251718 22 17988359377202858580
17834072 33 17846213410062527668
17834076 25 17749111075805769061
20281389 69 17894910668989451109
20645477 70 17775011146362110422
22485316 2 18410290311151536899
23402539 116 18343577439010183029
23402655 69 18131070419952182876
300161 21 18131626803169568876
42788 4 18411138038911623437
522135 26 17676488324596810130
90127 26 18410582781350202424

>  <PUBCHEM_SHAPE_MULTIPOLES>  (1) 
240.02
12.74
1.15
0.98
0.03
0.28
-0.01
1.15
-0.06
0
0
0
-0.33
0

>  <PUBCHEM_SHAPE_SELFOVERLAP>  (1) 
425.546

>  <PUBCHEM_SHAPE_VOLUME>  (1) 
157.2

>  <PUBCHEM_COORDINATE_TYPE>  (1) 
2
5
10

$$$$
