27538
     RDKit          3D

 12 13  0  0  0  0  0  0  0  0999 V2000
   -1.3535    1.9144    0.0002 O   0  0  0  0  0  0  0  0  0  0  0  0
    2.8095    1.1802   -0.0001 O   0  0  0  0  0  0  0  0  0  0  0  0
    2.0224   -0.9983    0.0002 N   0  0  0  0  0  0  0  0  0  0  0  0
    0.0386    2.0531    0.0003 N   0  0  0  0  0  0  0  0  0  0  0  0
    1.0062   -1.9352    0.0000 N   0  0  0  0  0  0  0  0  0  0  0  0
   -0.5287   -0.1459   -0.0005 C   0  0  0  0  0  0  0  0  0  0  0  0
    0.4964    0.8003    0.0000 C   0  0  0  0  0  0  0  0  0  0  0  0
   -0.2376   -1.5474   -0.0006 C   0  0  0  0  0  0  0  0  0  0  0  0
   -1.6786    0.5890   -0.0004 C   0  0  0  0  0  0  0  0  0  0  0  0
    1.8725    0.3885    0.0002 C   0  0  0  0  0  0  0  0  0  0  0  0
   -1.3347   -2.5727    0.0006 C   0  0  0  0  0  0  0  0  0  0  0  0
   -3.1124    0.2739    0.0001 C   0  0  0  0  0  0  0  0  0  0  0  0
  1  4  1  0
  1  9  1  0
  2 10  2  0
  3  5  1  0
  3 10  1  0
  4  7  2  0
  5  8  2  0
  6  7  1  0
  6  8  1  0
  6  9  2  0
  7 10  1  0
  8 11  1  0
  9 12  1  0
M  END
>  <PUBCHEM_COMPOUND_CID>  (1) 
27538

>  <PUBCHEM_CONFORMER_RMSD>  (1) 
0.4

>  <PUBCHEM_CONFORMER_DIVERSEORDER>  (1) 
1

>  <PUBCHEM_MMFF94_PARTIAL_CHARGES>  (1) 
13
1 -0.02
10 0.72
11 0.06
12 0.18
19 0.37
2 -0.57
3 -0.37
4 -0.41
5 -0.51
6 -0.09
7 0.2
8 0.48
9 -0.04

>  <PUBCHEM_EFFECTIVE_ROTOR_COUNT>  (1) 
0

>  <PUBCHEM_PHARMACOPHORE_FEATURES>  (1) 
6
1 2 acceptor
1 3 donor
1 4 acceptor
1 5 acceptor
5 1 4 6 7 9 rings
6 3 5 6 7 8 10 rings

>  <PUBCHEM_HEAVY_ATOM_COUNT>  (1) 
12

>  <PUBCHEM_ATOM_DEF_STEREO_COUNT>  (1) 
0

>  <PUBCHEM_ATOM_UDEF_STEREO_COUNT>  (1) 
0

>  <PUBCHEM_BOND_DEF_STEREO_COUNT>  (1) 
0

>  <PUBCHEM_BOND_UDEF_STEREO_COUNT>  (1) 
0

>  <PUBCHEM_ISOTOPIC_ATOM_COUNT>  (1) 
0

>  <PUBCHEM_COMPONENT_COUNT>  (1) 
1

>  <PUBCHEM_CACTVS_TAUTO_COUNT>  (1) 
2

>  <PUBCHEM_CONFORMER_ID>  (1) 
00006B9200000001

>  <PUBCHEM_MMFF94_ENERGY>  (1) 
26.9498

>  <PUBCHEM_FEATURE_SELFOVERLAP>  (1) 
30.56

>  <PUBCHEM_SHAPE_FINGERPRINT>  (1) 
11206711 2 18049162473002733247
12423570 1 14019016332171172050
13380535 76 18412258450071957294
16945 1 18410855481613703684
193761 8 17689999363575356801
20871998 184 18056484086793888158
21040471 1 18410575067699533024
22802520 49 18129122120134822414
2334 1 17762055849327138533
23552423 10 17976543814676047861
23559900 14 18270972353635209148
241688 4 16032954491867649635
2748010 2 18265052423040962277
5084963 1 17986667065314117514
528886 8 18339636840759660353
66348 1 18265617580560048859

>  <PUBCHEM_SHAPE_MULTIPOLES>  (1) 
220.27
3.3
2.5
0.58
0.02
0.85
0
-0.63
0
-0.55
0
-0.04
0.02
0

>  <PUBCHEM_SHAPE_SELFOVERLAP>  (1) 
477.272

>  <PUBCHEM_SHAPE_VOLUME>  (1) 
123.1

>  <PUBCHEM_COORDINATE_TYPE>  (1) 
2
5
10

$$$$
