2753
     RDKit          3D

 25 27  0  0  0  0  0  0  0  0999 V2000
    3.5965    0.8766    0.5402 O   0  0  0  0  0  0  0  0  0  0  0  0
   -1.3342    0.0047    1.2177 O   0  0  0  0  0  0  0  0  0  0  0  0
   -8.6052    0.1514   -1.0824 O   0  0  0  0  0  0  0  0  0  0  0  0
    4.5597   -1.0073   -0.4075 N   0  0  0  0  0  0  0  0  0  0  0  0
   -6.5305   -0.7230   -0.5968 N   0  0  0  0  0  0  0  0  0  0  0  0
    5.8985   -0.4733   -0.4759 C   0  0  0  0  0  0  0  0  0  0  0  0
    6.4220   -0.1563    0.9270 C   0  0  0  0  0  0  0  0  0  0  0  0
    5.9440    0.7615   -1.3798 C   0  0  0  0  0  0  0  0  0  0  0  0
    7.8178    0.4598    0.8809 C   0  0  0  0  0  0  0  0  0  0  0  0
    7.3411    1.3749   -1.4234 C   0  0  0  0  0  0  0  0  0  0  0  0
    7.8617    1.6883   -0.0236 C   0  0  0  0  0  0  0  0  0  0  0  0
    3.4855   -0.2733    0.1078 C   0  0  0  0  0  0  0  0  0  0  0  0
    4.4058   -2.3686   -0.9146 C   0  0  0  0  0  0  0  0  0  0  0  0
    2.1349   -0.9807    0.1205 C   0  0  0  0  0  0  0  0  0  0  0  0
    0.9986   -0.1342    0.6929 C   0  0  0  0  0  0  0  0  0  0  0  0
   -0.3414   -0.8609    0.6829 C   0  0  0  0  0  0  0  0  0  0  0  0
   -2.6167   -0.1740    0.7686 C   0  0  0  0  0  0  0  0  0  0  0  0
   -4.7918    0.7340    0.2563 C   0  0  0  0  0  0  0  0  0  0  0  0
   -3.4830    0.9144    0.7126 C   0  0  0  0  0  0  0  0  0  0  0  0
   -5.2132   -0.5413   -0.1381 C   0  0  0  0  0  0  0  0  0  0  0  0
   -3.0362   -1.4410    0.3765 C   0  0  0  0  0  0  0  0  0  0  0  0
   -4.3405   -1.6294   -0.0798 C   0  0  0  0  0  0  0  0  0  0  0  0
   -5.7366    1.8456    0.1803 C   0  0  0  0  0  0  0  0  0  0  0  0
   -6.9850    1.6503   -0.2592 C   0  0  0  0  0  0  0  0  0  0  0  0
   -7.4523    0.3020   -0.6831 C   0  0  0  0  0  0  0  0  0  0  0  0
  1 12  2  0
  2 16  1  0
  2 17  1  0
  3 25  2  0
  4  6  1  0
  4 12  1  0
  4 13  1  0
  5 20  1  0
  5 25  1  0
  6  7  1  0
  6  8  1  0
  7  9  1  0
  8 10  1  0
  9 11  1  0
 10 11  1  0
 12 14  1  0
 14 15  1  0
 15 16  1  0
 17 19  2  0
 17 21  1  0
 18 19  1  0
 18 20  2  0
 18 23  1  0
 20 22  1  0
 21 22  2  0
 23 24  2  0
 24 25  1  0
M  END
>  <PUBCHEM_COMPOUND_CID>  (1) 
2753

>  <PUBCHEM_CONFORMER_RMSD>  (1) 
1

>  <PUBCHEM_CONFORMER_DIVERSEORDER>  (1) 
1
303
40
36
178
46
66
291
91
204
104
67
10
82
5
22
47
181
110
158
300
122
319
305
254
165
93
118
144
34
100
84
75
171
86
287
207
202
59
212
249
243
280
105
142
7
48
62
145
166
296
306
63
73
124
39
23
237
68
50
55
211
214
143
265
314
147
31
276
304
71
313
201
117
25
64
260
114
43
213
137
141
250
89
11
323
53
294
325
134
76
52
42
252
235
37
174
238
61
27
175
229
16
259
139
45
14
24
225
81
310
196
54
133
194
77
253
217
179
262
94
149
101
311
230
246
164
90
328
197
190
187
247
78
87
6
191
329
130
222
268
180
3
129
72
315
85
148
302
107
177
318
74
261
307
157
273
316
95
226
234
218
198
41
136
298
244
184
270
320
103
109
278
183
292
284
69
32
125
13
4
330
258
108
182
266
70
255
170
123
264
308
272
203
30
21
2
80
150
156
206
83
221
88
51
236
120
154
317
282
227
192
219
113
290
274
112
97
193
65
233
185
223
312
248
205
324
26
60
33
92
167
8
12
275
38
99
119
189
240
98
232
288
241
29
20
279
251
239
295
140
162
176
163
309
44
159
115
79
326
200
283
127
121
168
188
111
216
289
208
301
9
102
160
96
199
186
263
172
49
285
132
277
209
19
169
58
321
293
267
17
245
28
228
153
231
126
220
286
173
57
155
161
195
269
242
151
256
56
106
131
18
224
297
210
215
322
281
35
15
116
146
257
152
135
128
138
271
327
299

>  <PUBCHEM_MMFF94_PARTIAL_CHARGES>  (1) 
25
1 -0.57
12 0.57
13 0.3
14 0.06
16 0.28
17 0.08
18 0.03
19 -0.15
2 -0.36
20 0.12
21 -0.15
22 -0.15
23 -0.18
24 -0.14
25 0.62
3 -0.57
4 -0.66
46 0.15
47 0.15
48 0.15
49 0.15
5 -0.55
50 0.37
51 0.15
6 0.3

>  <PUBCHEM_EFFECTIVE_ROTOR_COUNT>  (1) 
8.2

>  <PUBCHEM_PHARMACOPHORE_FEATURES>  (1) 
7
1 1 acceptor
1 2 acceptor
1 3 acceptor
1 5 donor
6 17 18 19 20 21 22 rings
6 5 18 20 23 24 25 rings
6 6 7 8 9 10 11 rings

>  <PUBCHEM_HEAVY_ATOM_COUNT>  (1) 
25

>  <PUBCHEM_ATOM_DEF_STEREO_COUNT>  (1) 
0

>  <PUBCHEM_ATOM_UDEF_STEREO_COUNT>  (1) 
0

>  <PUBCHEM_BOND_DEF_STEREO_COUNT>  (1) 
0

>  <PUBCHEM_BOND_UDEF_STEREO_COUNT>  (1) 
0

>  <PUBCHEM_ISOTOPIC_ATOM_COUNT>  (1) 
0

>  <PUBCHEM_COMPONENT_COUNT>  (1) 
1

>  <PUBCHEM_CACTVS_TAUTO_COUNT>  (1) 
2

>  <PUBCHEM_CONFORMER_ID>  (1) 
00000AC100000001

>  <PUBCHEM_MMFF94_ENERGY>  (1) 
62.0906

>  <PUBCHEM_FEATURE_SELFOVERLAP>  (1) 
35.549

>  <PUBCHEM_SHAPE_FINGERPRINT>  (1) 
10 15 11891339754891014734
10076449 9 17917430956675714075
10595046 47 18129947775593536642
10835480 77 18410296921560003194
11135609 127 18337106886913394924
11315181 36 17846781815357410913
11408170 132 18341058398226891452
11646440 116 14273736266042671806
11719270 70 18201999907341055238
12082328 90 18343301440723209015
12166972 35 10879989164570482778
125118 31 18040157314543513188
12616971 3 12901837155082307402
13673619 4 11455891347523116554
14118638 360 17632583712613229618
14150023 24 15285350713737962761
14251764 18 18259985980781605220
14251764 46 18409165511478982707
14344974 52 17749105622246966191
15183329 4 18342742900926019952
15348495 7 13479429317809129148
15461852 350 18130786793824585335
17093844 174 17530686524528543091
1818759 1 14189574165737607221
2026 5 13972864732035406756
20281389 69 16732699441439893838
20554085 129 18334846234929013802
21095086 128 12895359897918181276
21150785 3 17561081410396169128
21267235 1 8862946082910571010
21792934 111 14273732962722470863
22224240 67 15140961764198739537
23035841 295 10087640394546666840
23081809 10 16845021104443694194
23559900 14 18059847381557920689
23576562 1 17986949845982375277
246663 6 13110964236145316229
249057 3 18201998867478265501
33532 11 11527955538984050476
335352 9 18271800226003468549
34797466 226 15626222434120985048
397638 26 13912323503678915376
4073 2 18187370947318375434
44555599 121 17967540086050859764
45377200 153 14620503579909711117
5937810 71 17988932128530905553
5969126 39 14908184127596899003
9953998 17 12251903694711092953

>  <PUBCHEM_SHAPE_MULTIPOLES>  (1) 
486.92
28.96
1.76
1.1
2.51
0.13
0.12
-10.96
6.99
0.3
0.31
1
-0.09
-0.22

>  <PUBCHEM_SHAPE_SELFOVERLAP>  (1) 
1021.259

>  <PUBCHEM_SHAPE_VOLUME>  (1) 
273

>  <PUBCHEM_COORDINATE_TYPE>  (1) 
2
5
10

$$$$
