27531
     RDKit          3D

 17 18  0  0  1  0  0  0  0  0999 V2000
    1.0916    1.6672    1.1878 O   0  0  0  0  0  0  0  0  0  0  0  0
   -0.9366    1.1923   -0.6287 N   0  0  0  0  0  0  0  0  0  0  0  0
    0.3135    0.6040   -0.7222 N   0  0  0  0  0  0  0  0  0  0  0  0
    5.0469   -0.9584   -0.2675 N   0  0  0  0  0  0  0  0  0  0  0  0
   -4.4686   -0.2430   -0.4204 C   0  0  0  0  0  0  0  0  0  0  0  0
   -1.9678    0.1594   -0.5426 C   0  0  0  0  0  0  0  0  0  0  0  0
   -3.3575    0.8067   -0.5757 C   0  0  0  0  0  0  0  0  0  0  0  0
   -4.2625   -1.0728    0.8537 C   0  0  0  0  0  0  0  0  0  0  0  0
   -1.7721   -0.6646    0.7340 C   0  0  0  0  0  0  0  0  0  0  0  0
   -2.8750   -1.7082    0.8952 C   0  0  0  0  0  0  0  0  0  0  0  0
   -5.8431    0.4236   -0.4125 C   0  0  0  0  0  0  0  0  0  0  0  0
    1.2626    0.9065    0.2383 C   0  0  0  0  0  0  0  0  0  0  0  0
    2.5862    0.2541    0.0615 C   0  0  0  0  0  0  0  0  0  0  0  0
    3.7053    0.8710    0.5680 C   0  0  0  0  0  0  0  0  0  0  0  0
    2.6527   -0.9469   -0.6035 C   0  0  0  0  0  0  0  0  0  0  0  0
    4.9149    0.2227    0.3770 C   0  0  0  0  0  0  0  0  0  0  0  0
    3.9095   -1.5137   -0.7423 C   0  0  0  0  0  0  0  0  0  0  0  0
  1 12  2  0
  2  3  1  0
  2  6  1  0
  3 12  1  0
  4 16  2  0
  4 17  1  0
  5  7  1  0
  5  8  1  0
  5 11  1  0
  6  7  1  0
  6  9  1  0
  8 10  1  0
  9 10  1  0
 12 13  1  0
 13 14  2  0
 13 15  1  0
 14 16  1  0
 15 17  2  0
M  END
>  <PUBCHEM_COMPOUND_CID>  (1) 
27531

>  <PUBCHEM_CONFORMER_RMSD>  (1) 
0.6

>  <PUBCHEM_CONFORMER_DIVERSEORDER>  (1) 
12
110
34
46
24
112
19
108
113
21
88
44
100
49
98
17
39
105
70
3
48
57
107
81
59
58
94
27
37
96
51
29
84
47
38
99
83
56
53
90
13
79
72
55
10
16
101
2
85
102
103
60
111
86
74
54
9
87
104
41
8
109
6
97
43
75
40
67
71
36
80
77
31
1
76
63
61
106
69
20
91
32
26
68
50
82
15
25
62
42
95
92
28
73
4
30
64
65
22
66
7
45
52
93
11
78
5
35
14
33
23
89
18

>  <PUBCHEM_MMFF94_PARTIAL_CHARGES>  (1) 
17
1 -0.57
12 0.54
13 0.09
14 -0.15
15 -0.15
16 0.16
17 0.16
2 -0.64
3 -0.42
31 0.36
32 0.37
33 0.15
34 0.15
35 0.15
36 0.15
4 -0.62
6 0.27

>  <PUBCHEM_EFFECTIVE_ROTOR_COUNT>  (1) 
5.2

>  <PUBCHEM_PHARMACOPHORE_FEATURES>  (1) 
6
1 1 acceptor
1 2 donor
1 3 donor
1 4 acceptor
6 4 13 14 15 16 17 rings
6 5 6 7 8 9 10 rings

>  <PUBCHEM_HEAVY_ATOM_COUNT>  (1) 
17

>  <PUBCHEM_ATOM_DEF_STEREO_COUNT>  (1) 
0

>  <PUBCHEM_ATOM_UDEF_STEREO_COUNT>  (1) 
2

>  <PUBCHEM_BOND_DEF_STEREO_COUNT>  (1) 
0

>  <PUBCHEM_BOND_UDEF_STEREO_COUNT>  (1) 
0

>  <PUBCHEM_ISOTOPIC_ATOM_COUNT>  (1) 
0

>  <PUBCHEM_COMPONENT_COUNT>  (1) 
1

>  <PUBCHEM_CACTVS_TAUTO_COUNT>  (1) 
3

>  <PUBCHEM_CONFORMER_ID>  (1) 
00006B8B0000000C

>  <PUBCHEM_MMFF94_ENERGY>  (1) 
27.9613

>  <PUBCHEM_FEATURE_SELFOVERLAP>  (1) 
31.936

>  <PUBCHEM_SHAPE_FINGERPRINT>  (1) 
10366900 7 15626507211084040202
11128504 68 15430042071296936910
12236239 1 15985103020014288109
124424 183 18272652363766598593
12596602 18 15769485512805799134
12815109 37 18413106164746357078
13533116 47 16200434632883741430
13544592 145 18334857221001447915
14115302 16 17895201016581903677
14251731 8 17967813842875782911
14251752 14 16515953779508682967
14252887 29 17561089077398122054
14386348 63 18409168813633833870
14573314 32 18408884010310631173
14617045 38 18040438763513023851
15242439 84 18335136492818145749
15375358 24 18409166623163589614
17804303 29 18114183068638450981
17834072 33 17632290211374532204
17834072 8 18040711472840914647
17834074 16 18408323293487015418
17870717 6 18113344085200060479
18186145 218 12396301465390325264
19141452 34 18412265073280929383
19489759 90 13973966498071962815
200 152 17704349970598106135
20279233 1 18410015441940146022
20374829 77 18186518812921245075
20432913 95 18060702788218508294
20645477 70 18059855022130946110
20681677 155 17240762895784874089
20871999 31 17676209043715547772
21279426 13 18193554455068305365
21618674 57 18343585131718590553
2215653 11 18410287000259292239
22485316 2 18334294279485116738
231179 274 9223234040056754332
23175994 123 18343022198755471849
23402539 116 15574428817385951006
23557571 272 18114175303232572580
23559900 14 18334292123316906900
239999 70 18408042918818433066
26918003 58 18343019999336148730
2871803 45 18335139756977758746
3004659 81 17749388110303715378
33824 294 18343018870488178806
351380 180 18131067143482934185
4047638 21 8502654818264536052
4214541 1 18334857190884241173
5104073 3 18058725781187654554
59755656 215 18113330913242440091
9709674 26 18043536225106994043

>  <PUBCHEM_SHAPE_MULTIPOLES>  (1) 
329.04
12.36
1.49
0.99
1.81
0.25
0.09
2.1
-0.64
-0.12
0.17
0.1
0.03
1.44

>  <PUBCHEM_SHAPE_SELFOVERLAP>  (1) 
679.092

>  <PUBCHEM_SHAPE_VOLUME>  (1) 
186.1

>  <PUBCHEM_COORDINATE_TYPE>  (1) 
2
5
10

$$$$
