27561
     RDKit          3D

 17 19  0  0  0  0  0  0  0  0999 V2000
    1.9420    2.2403    0.2342 O   0  0  0  0  0  0  0  0  0  0  0  0
   -0.3366   -1.8084   -0.1907 N   0  0  0  0  0  0  0  0  0  0  0  0
   -3.6317    1.1721    0.1944 N   0  0  0  0  0  0  0  0  0  0  0  0
   -0.5819    0.4058   -0.1729 C   0  0  0  0  0  0  0  0  0  0  0  0
   -1.2525   -0.7961   -0.3015 C   0  0  0  0  0  0  0  0  0  0  0  0
   -1.2215    1.7527   -0.2397 C   0  0  0  0  0  0  0  0  0  0  0  0
   -2.7018   -1.0517   -0.5238 C   0  0  0  0  0  0  0  0  0  0  0  0
    0.8019    0.0976    0.0238 C   0  0  0  0  0  0  0  0  0  0  0  0
    0.9225   -1.2935    0.0094 C   0  0  0  0  0  0  0  0  0  0  0  0
   -2.4450    1.8930    0.6713 C   0  0  0  0  0  0  0  0  0  0  0  0
   -3.5870   -0.2724    0.4524 C   0  0  0  0  0  0  0  0  0  0  0  0
    1.9677    0.8699    0.2129 C   0  0  0  0  0  0  0  0  0  0  0  0
   -0.6267   -3.2259   -0.2775 C   0  0  0  0  0  0  0  0  0  0  0  0
    2.1471   -1.9507    0.1759 C   0  0  0  0  0  0  0  0  0  0  0  0
    3.1995    0.2271    0.3810 C   0  0  0  0  0  0  0  0  0  0  0  0
    3.2855   -1.1626    0.3628 C   0  0  0  0  0  0  0  0  0  0  0  0
    2.1186    2.9028   -1.0120 C   0  0  0  0  0  0  0  0  0  0  0  0
  1 12  1  0
  1 17  1  0
  2  5  1  0
  2  9  1  0
  2 13  1  0
  3 10  1  0
  3 11  1  0
  4  5  2  0
  4  6  1  0
  4  8  1  0
  5  7  1  0
  6 10  1  0
  7 11  1  0
  8  9  2  0
  8 12  1  0
  9 14  1  0
 12 15  2  0
 14 16  2  0
 15 16  1  0
M  END
>  <PUBCHEM_COMPOUND_CID>  (1) 
27561

>  <PUBCHEM_CONFORMER_RMSD>  (1) 
0.6

>  <PUBCHEM_CONFORMER_DIVERSEORDER>  (1) 
1
2

>  <PUBCHEM_MMFF94_PARTIAL_CHARGES>  (1) 
20
1 -0.36
10 0.27
11 0.27
12 0.08
13 0.26
14 -0.15
15 -0.15
16 -0.15
17 0.28
2 0.05
26 0.36
3 -0.9
30 0.15
31 0.15
32 0.15
4 -0.18
5 -0.33
6 0.18
7 0.18
9 -0.15

>  <PUBCHEM_EFFECTIVE_ROTOR_COUNT>  (1) 
2

>  <PUBCHEM_PHARMACOPHORE_FEATURES>  (1) 
7
1 1 acceptor
1 2 cation
1 3 cation
1 3 donor
5 2 4 5 8 9 rings
6 8 9 12 14 15 16 rings
7 3 4 5 6 7 10 11 rings

>  <PUBCHEM_HEAVY_ATOM_COUNT>  (1) 
17

>  <PUBCHEM_ATOM_DEF_STEREO_COUNT>  (1) 
0

>  <PUBCHEM_ATOM_UDEF_STEREO_COUNT>  (1) 
0

>  <PUBCHEM_BOND_DEF_STEREO_COUNT>  (1) 
0

>  <PUBCHEM_BOND_UDEF_STEREO_COUNT>  (1) 
0

>  <PUBCHEM_ISOTOPIC_ATOM_COUNT>  (1) 
0

>  <PUBCHEM_COMPONENT_COUNT>  (1) 
1

>  <PUBCHEM_CACTVS_TAUTO_COUNT>  (1) 
1

>  <PUBCHEM_CONFORMER_ID>  (1) 
00006BA900000001

>  <PUBCHEM_MMFF94_ENERGY>  (1) 
41.9436

>  <PUBCHEM_FEATURE_SELFOVERLAP>  (1) 
35.643

>  <PUBCHEM_SHAPE_FINGERPRINT>  (1) 
10967382 1 18411416215358582602
11132069 177 18340198579569247035
11471102 22 18262535735672661787
12251169 10 18411137996251912595
12696612 119 18410294670680563924
13132413 78 18268429040651297116
13140716 1 18121492720492272818
13583140 156 17096063884061427531
14144814 61 18411415077276729834
14790565 3 18337966610163535924
15309172 13 18340207397269162875
15442244 35 18411696561059795738
16945 1 18410287051551193982
18186145 218 18343021068862139655
193761 8 18266457800896598070
20510252 161 18202280303473086971
20511035 2 18129933598386618126
20559304 39 18410013243117428464
20671657 1 18336552715350516972
21029758 27 18261398793557836038
21267235 1 18340212894627036411
21501502 16 18340203093505963446
22094290 62 18411417319360434528
2334 1 18339072671288981294
23402539 116 18199173019632074606
23419403 2 15897193788392690904
23463225 33 18409729538762449897
2748010 2 18194954137465205030
335352 9 17979917112107773719
350125 39 18410858754537370121
352729 6 18341331196958447431
7364860 26 18341332275274495196
7832392 63 18268989778401012376

>  <PUBCHEM_SHAPE_MULTIPOLES>  (1) 
334.02
5.42
3.2
0.76
1.55
0.03
-0.04
-0.97
0.81
-0.76
-0.54
-0.01
-0.19
-0.73

>  <PUBCHEM_SHAPE_SELFOVERLAP>  (1) 
722.149

>  <PUBCHEM_SHAPE_VOLUME>  (1) 
183.2

>  <PUBCHEM_COORDINATE_TYPE>  (1) 
2
5
10

$$$$
