27564
     RDKit          3D

 17 19  0  0  0  0  0  0  0  0999 V2000
   -1.7338   -0.3963   -1.5406 S   0  0  0  0  0  0  0  0  0  0  0  0
    2.9156    0.5296   -0.2357 N   0  0  0  0  0  0  0  0  0  0  0  0
   -0.2190   -1.9696    0.0648 N   0  0  0  0  0  0  0  0  0  0  0  0
    1.1078    1.1698   -1.3722 N   0  0  0  0  0  0  0  0  0  0  0  0
    2.0889   -1.5396    0.7315 N   0  0  0  0  0  0  0  0  0  0  0  0
   -2.9219   -0.2704   -0.1799 C   0  0  0  0  0  0  0  0  0  0  0  0
   -4.3052    0.1601   -0.6508 C   0  0  0  0  0  0  0  0  0  0  0  0
   -2.5560    0.8202    0.8192 C   0  0  0  0  0  0  0  0  0  0  0  0
   -4.9858    0.6425    0.6275 C   0  0  0  0  0  0  0  0  0  0  0  0
   -3.8611    1.0790    1.5684 C   0  0  0  0  0  0  0  0  0  0  0  0
   -0.2445   -0.8397   -0.6575 C   0  0  0  0  0  0  0  0  0  0  0  0
    0.8574   -0.0159   -0.7283 C   0  0  0  0  0  0  0  0  0  0  0  0
    1.9703   -0.4311   -0.0148 C   0  0  0  0  0  0  0  0  0  0  0  0
    4.2592    0.5597    0.2893 C   0  0  0  0  0  0  0  0  0  0  0  0
    2.3503    1.4697   -1.0560 C   0  0  0  0  0  0  0  0  0  0  0  0
    0.9391   -2.2481    0.7107 C   0  0  0  0  0  0  0  0  0  0  0  0
    4.3387    1.2800    1.6244 C   0  0  0  0  0  0  0  0  0  0  0  0
  1  6  1  0
  1 11  1  0
  2 13  1  0
  2 14  1  0
  2 15  1  0
  3 11  1  0
  3 16  2  0
  4 12  1  0
  4 15  2  0
  5 13  2  0
  5 16  1  0
  6  7  1  0
  6  8  1  0
  7  9  1  0
  8 10  1  0
  9 10  1  0
 11 12  2  0
 12 13  1  0
 14 17  1  0
M  END
>  <PUBCHEM_COMPOUND_CID>  (1) 
27564

>  <PUBCHEM_CONFORMER_RMSD>  (1) 
0.6

>  <PUBCHEM_CONFORMER_DIVERSEORDER>  (1) 
1
18
27
16
14
35
32
30
34
17
33
12
10
28
29
31
20
15
24
11
13
19
26
9
23
25
3
22
21
2
4
5
7
8
6

>  <PUBCHEM_MMFF94_PARTIAL_CHARGES>  (1) 
14
1 -0.33
11 0.41
12 0.23
13 0.11
14 0.26
15 0.04
16 0.47
2 0.05
29 0.15
3 -0.62
30 0.15
4 -0.57
5 -0.57
6 0.23

>  <PUBCHEM_EFFECTIVE_ROTOR_COUNT>  (1) 
4

>  <PUBCHEM_PHARMACOPHORE_FEATURES>  (1) 
6
1 3 acceptor
3 2 4 15 cation
3 3 5 16 cation
5 2 4 12 13 15 rings
5 6 7 8 9 10 rings
6 3 5 11 12 13 16 rings

>  <PUBCHEM_HEAVY_ATOM_COUNT>  (1) 
17

>  <PUBCHEM_ATOM_DEF_STEREO_COUNT>  (1) 
0

>  <PUBCHEM_ATOM_UDEF_STEREO_COUNT>  (1) 
0

>  <PUBCHEM_BOND_DEF_STEREO_COUNT>  (1) 
0

>  <PUBCHEM_BOND_UDEF_STEREO_COUNT>  (1) 
0

>  <PUBCHEM_ISOTOPIC_ATOM_COUNT>  (1) 
0

>  <PUBCHEM_COMPONENT_COUNT>  (1) 
1

>  <PUBCHEM_CACTVS_TAUTO_COUNT>  (1) 
1

>  <PUBCHEM_CONFORMER_ID>  (1) 
00006BAC00000001

>  <PUBCHEM_MMFF94_ENERGY>  (1) 
26.4926

>  <PUBCHEM_FEATURE_SELFOVERLAP>  (1) 
30.58

>  <PUBCHEM_SHAPE_FINGERPRINT>  (1) 
10465860 228 18339086994735836231
10498660 4 16988288560675570953
10980938 120 18334014960560915847
11132069 177 18186518821548128935
11471102 22 17676206849082062015
11640471 11 18272094881253602597
11796584 16 14201666525146303224
12236239 1 18273209790476356599
12251169 10 17822015319661879391
12390115 104 17755879850245113668
12633257 1 17240491320554968929
13140716 1 17897160437014027596
13965767 371 17840611213868030841
14739800 52 17417225716065997194
14911166 2 11887672909614170908
15209294 21 18342166800093805520
15309172 13 18113337526584409535
15375358 24 17095239194848950999
15775835 57 18202285788378516577
16945 1 18040702693701025414
1813 80 17766286379440449886
18186145 218 18411706460690297055
18769570 83 17346589786262430952
19049666 15 16662039224044895815
193927 3 11097859553718693505
19784866 240 11386369223309379305
20279233 1 16805327674003061859
204376 136 18260834842370600126
20739085 24 18188210880081246350
21524375 3 18341052998935879543
21637258 2 13046207399822502784
21713013 43 11959431393882925757
221357 26 12103567434161933483
22182313 1 17824804677872599806
22854114 59 18187086143989052791
23402539 116 16988838384538879476
23402655 69 12319466463254416035
23503958 8 13623520238781867709
23557571 272 16558180656938978751
23559900 14 15502658118188988914
25147074 1 17607243448838145678
2748010 2 17753305614235045110
276578 36 18409736153165105590
2838139 119 16772939445915205288
3472631 163 17346601838094189489
4340502 62 18334866021959305819
465052 167 16660648457609887592
474 4 18410295843148697869
5104073 3 17825372245348764440
58807428 26 18115008793365775570
77492 1 18272645728073768559

>  <PUBCHEM_SHAPE_MULTIPOLES>  (1) 
333.78
8.96
1.76
1.46
3.59
0.53
-0.11
-4.96
2.63
-0.71
0.6
-0.14
-0.25
-0.79

>  <PUBCHEM_SHAPE_SELFOVERLAP>  (1) 
699.669

>  <PUBCHEM_SHAPE_VOLUME>  (1) 
190.8

>  <PUBCHEM_COORDINATE_TYPE>  (1) 
2
5
10

$$$$
