2757
     RDKit          3D

 22 25  0  0  1  0  0  0  0  0999 V2000
    0.1210    0.2088   -2.7533 O   0  0  0  0  0  0  0  0  0  0  0  0
   -2.3563    0.6086   -1.3774 N   0  0  0  0  0  0  0  0  0  0  0  0
    3.3406   -2.0277    0.2285 N   0  0  0  0  0  0  0  0  0  0  0  0
   -2.5319    0.6811    1.2148 C   0  0  0  0  0  0  0  0  0  0  0  0
   -1.2133   -0.1262   -0.7731 C   0  0  0  0  0  0  0  0  0  0  0  0
   -1.2489   -0.0456    0.7690 C   0  0  0  0  0  0  0  0  0  0  0  0
   -3.7732   -0.0057    0.5995 C   0  0  0  0  0  0  0  0  0  0  0  0
   -2.4579    2.1006    0.6258 C   0  0  0  0  0  0  0  0  0  0  0  0
   -3.6073   -0.0602   -0.9383 C   0  0  0  0  0  0  0  0  0  0  0  0
   -2.3913    2.0110   -0.9062 C   0  0  0  0  0  0  0  0  0  0  0  0
    0.1342    0.3342   -1.3349 C   0  0  0  0  0  0  0  0  0  0  0  0
   -4.0319   -1.3613    1.1852 C   0  0  0  0  0  0  0  0  0  0  0  0
    1.2801   -0.4667   -0.7700 C   0  0  0  0  0  0  0  0  0  0  0  0
    2.3251    0.1373   -0.0698 C   0  0  0  0  0  0  0  0  0  0  0  0
   -5.1456   -1.6897    1.8488 C   0  0  0  0  0  0  0  0  0  0  0  0
    1.2561   -1.8337   -0.9739 C   0  0  0  0  0  0  0  0  0  0  0  0
    3.3529   -0.6951    0.4208 C   0  0  0  0  0  0  0  0  0  0  0  0
    2.3701    1.5246    0.1493 C   0  0  0  0  0  0  0  0  0  0  0  0
    2.3056   -2.5656   -0.4565 C   0  0  0  0  0  0  0  0  0  0  0  0
    4.3993   -0.1004    1.1205 C   0  0  0  0  0  0  0  0  0  0  0  0
    3.4285    2.0926    0.8525 C   0  0  0  0  0  0  0  0  0  0  0  0
    4.4443    1.2788    1.3385 C   0  0  0  0  0  0  0  0  0  0  0  0
  1 11  1  0
  2  5  1  0
  2  9  1  0
  2 10  1  0
  3 17  2  0
  3 19  1  0
  4  6  1  0
  4  7  1  0
  4  8  1  0
  5  6  1  0
  5 11  1  0
  7  9  1  0
  7 12  1  0
  8 10  1  0
 11 13  1  0
 12 15  2  0
 13 14  2  0
 13 16  1  0
 14 17  1  0
 14 18  1  0
 16 19  2  0
 17 20  1  0
 18 21  2  0
 20 22  2  0
 21 22  1  0
M  END
>  <PUBCHEM_COMPOUND_CID>  (1) 
2757

>  <PUBCHEM_CONFORMER_RMSD>  (1) 
0.6

>  <PUBCHEM_CONFORMER_DIVERSEORDER>  (1) 
3
4
28
30
22
26
11
23
5
1
25
24
15
12
7
10
27
8
29
9
6
2
19
20
17
14
18
13
16
21

>  <PUBCHEM_MMFF94_PARTIAL_CHARGES>  (1) 
28
1 -0.68
10 0.27
11 0.42
12 -0.29
13 -0.14
15 -0.3
16 -0.15
17 0.31
18 -0.15
19 0.16
2 -0.81
20 -0.15
21 -0.15
22 -0.15
3 -0.62
35 0.15
36 0.4
37 0.15
38 0.15
39 0.15
40 0.15
41 0.15
42 0.15
43 0.15
44 0.15
5 0.27
7 0.14
9 0.27

>  <PUBCHEM_EFFECTIVE_ROTOR_COUNT>  (1) 
4.2

>  <PUBCHEM_PHARMACOPHORE_FEATURES>  (1) 
8
1 1 acceptor
1 1 donor
1 15 hydrophobe
1 2 cation
1 3 acceptor
6 14 17 18 20 21 22 rings
6 3 13 14 16 17 19 rings
8 2 4 5 6 7 8 9 10 rings

>  <PUBCHEM_HEAVY_ATOM_COUNT>  (1) 
22

>  <PUBCHEM_ATOM_DEF_STEREO_COUNT>  (1) 
0

>  <PUBCHEM_ATOM_UDEF_STEREO_COUNT>  (1) 
4

>  <PUBCHEM_BOND_DEF_STEREO_COUNT>  (1) 
0

>  <PUBCHEM_BOND_UDEF_STEREO_COUNT>  (1) 
0

>  <PUBCHEM_ISOTOPIC_ATOM_COUNT>  (1) 
0

>  <PUBCHEM_COMPONENT_COUNT>  (1) 
1

>  <PUBCHEM_CACTVS_TAUTO_COUNT>  (1) 
1

>  <PUBCHEM_CONFORMER_ID>  (1) 
00000AC500000003

>  <PUBCHEM_MMFF94_ENERGY>  (1) 
73.3195

>  <PUBCHEM_FEATURE_SELFOVERLAP>  (1) 
40.626

>  <PUBCHEM_SHAPE_FINGERPRINT>  (1) 
10366900 7 18335994141646640152
10498660 4 13901914379859199755
11370993 70 18410002226231090763
11640471 11 17274809247542825604
12173636 292 12535342364539250149
12346177 29 16732978696356316949
12363563 72 16298106501315215053
12403814 3 17989484126422618745
12633257 1 18115861915351175544
12892183 10 18412544297256706216
13083527 12 17605561157071104829
13224815 77 16917345922360815633
13533116 47 18338239237560026411
13544653 18 18335704996433507451
13583140 156 18341888550479343661
14178342 30 17749673978704376275
14223421 5 18411705352709923641
14289901 80 18201991110508924555
14341114 328 17632019749015962275
14787075 74 17699548540294689511
15163728 17 14475813386540411586
15188451 53 17385995230481876795
16752209 62 14996278115636834705
17349148 13 15357696392406686331
17492 89 18059288751967793151
1813 80 17168437051217054855
18186145 218 17775564239265100284
19862831 5 11386368140450125952
20626108 58 16515687805274587407
20681677 76 18340480063178278597
20715895 44 17126489342467233905
21065199 12 18410857629144746777
21424621 283 17752186307536168477
21524375 3 17702937162586412756
21756936 100 17701253870714783064
21864079 5 17060343976484604160
22854114 111 18202278096102710344
22854114 59 18412821400062074496
23419403 2 17171501493118908533
23557571 272 18040436603260200193
23559900 14 18187371973677584015
251288 83 17822294625690557650
2637199 183 16486983933318909600
2838139 119 13613084882162038202
3286 77 18334860476634364882
339767 52 12757422882668991560
3797600 57 17560807692009186474
38570 142 17771919491669834832
392239 28 18271242845304208811
469060 322 18054203691082625669
474 4 18201706393253898672
49207404 50 18412827997073864546
5104073 3 18339643330444650377
633830 44 13254790231272587802
7097593 13 17913214152397757519
7808743 9 14549024290328116051
8988823 20 18342464785462891787

>  <PUBCHEM_SHAPE_MULTIPOLES>  (1) 
436.92
9.35
2.31
1.75
1.67
0.26
-0.49
0.9
5.56
-0.89
0.24
0.97
0.06
1.72

>  <PUBCHEM_SHAPE_SELFOVERLAP>  (1) 
957.71

>  <PUBCHEM_SHAPE_VOLUME>  (1) 
231.4

>  <PUBCHEM_COORDINATE_TYPE>  (1) 
2
5
10

$$$$
