27571
     RDKit          3D

 17 17  0  0  0  0  0  0  0  0999 V2000
    2.0730    2.8453    0.3598 Cl  0  0  0  0  0  0  0  0  0  0  0  0
    1.9619    0.1398   -0.9471 O   0  0  0  0  0  0  0  0  0  0  0  0
    2.3155   -0.8513    1.1263 O   0  0  0  0  0  0  0  0  0  0  0  0
    3.8830   -1.0537   -0.5721 N   0  0  0  0  0  0  0  0  0  0  0  0
   -2.8271   -0.5507   -0.3665 C   0  0  0  0  0  0  0  0  0  0  0  0
   -2.6644   -1.9402    0.3238 C   0  0  0  0  0  0  0  0  0  0  0  0
   -1.5666    0.3147   -0.1842 C   0  0  0  0  0  0  0  0  0  0  0  0
   -3.0402   -0.7896   -1.8825 C   0  0  0  0  0  0  0  0  0  0  0  0
   -4.1232    0.1156    0.1550 C   0  0  0  0  0  0  0  0  0  0  0  0
   -2.3783   -1.8932    1.8220 C   0  0  0  0  0  0  0  0  0  0  0  0
   -0.3725   -0.1711   -0.6519 C   0  0  0  0  0  0  0  0  0  0  0  0
   -1.6983    1.5297    0.4376 C   0  0  0  0  0  0  0  0  0  0  0  0
    0.7693    0.6127   -0.4861 C   0  0  0  0  0  0  0  0  0  0  0  0
   -0.5563    2.3135    0.6032 C   0  0  0  0  0  0  0  0  0  0  0  0
    0.6774    1.8551    0.1414 C   0  0  0  0  0  0  0  0  0  0  0  0
    2.6964   -0.6201   -0.0175 C   0  0  0  0  0  0  0  0  0  0  0  0
    4.8505   -1.8565    0.1390 C   0  0  0  0  0  0  0  0  0  0  0  0
  1 15  1  0
  2 13  1  0
  2 16  1  0
  3 16  2  0
  4 16  1  0
  4 17  1  0
  5  6  1  0
  5  7  1  0
  5  8  1  0
  5  9  1  0
  6 10  1  0
  7 11  2  0
  7 12  1  0
 11 13  1  0
 12 14  2  0
 13 15  2  0
 14 15  1  0
M  END
>  <PUBCHEM_COMPOUND_CID>  (1) 
27571

>  <PUBCHEM_CONFORMER_RMSD>  (1) 
0.6

>  <PUBCHEM_CONFORMER_DIVERSEORDER>  (1) 
1
50
116
140
95
46
52
93
43
45
168
108
103
121
149
94
88
157
105
127
174
20
113
37
125
136
169
154
132
146
55
86
72
69
119
74
111
26
21
124
134
163
104
114
51
10
166
91
164
92
60
139
118
147
15
112
172
143
107
135
96
54
82
77
138
71
142
97
32
49
56
123
144
159
115
16
98
156
120
75
70
167
27
128
73
87
141
85
58
173
152
106
130
126
42
30
109
161
66
89
133
57
162
35
90
170
110
39
150
158
65
63
31
81
153
83
122
48
53
100
76
171
151
79
17
68
34
99
7
160
155
33
29
80
101
44
117
24
62
40
145
14
148
41
23
19
13
59
5
38
78
67
102
64
36
4
11
8
131
22
25
84
129
165
137
47
61
28
3
2
18
9
12
6

>  <PUBCHEM_MMFF94_PARTIAL_CHARGES>  (1) 
17
1 -0.18
11 -0.15
12 -0.15
13 0.08
14 -0.15
15 0.18
16 0.78
17 0.3
2 -0.23
29 0.15
3 -0.57
30 0.15
31 0.15
32 0.37
4 -0.73
5 0.14
7 -0.14

>  <PUBCHEM_EFFECTIVE_ROTOR_COUNT>  (1) 
5

>  <PUBCHEM_PHARMACOPHORE_FEATURES>  (1) 
5
1 10 hydrophobe
1 3 acceptor
1 4 donor
3 5 8 9 hydrophobe
6 7 11 12 13 14 15 rings

>  <PUBCHEM_HEAVY_ATOM_COUNT>  (1) 
17

>  <PUBCHEM_ATOM_DEF_STEREO_COUNT>  (1) 
0

>  <PUBCHEM_ATOM_UDEF_STEREO_COUNT>  (1) 
0

>  <PUBCHEM_BOND_DEF_STEREO_COUNT>  (1) 
0

>  <PUBCHEM_BOND_UDEF_STEREO_COUNT>  (1) 
0

>  <PUBCHEM_ISOTOPIC_ATOM_COUNT>  (1) 
0

>  <PUBCHEM_COMPONENT_COUNT>  (1) 
1

>  <PUBCHEM_CACTVS_TAUTO_COUNT>  (1) 
2

>  <PUBCHEM_CONFORMER_ID>  (1) 
00006BB300000001

>  <PUBCHEM_MMFF94_ENERGY>  (1) 
50.6566

>  <PUBCHEM_FEATURE_SELFOVERLAP>  (1) 
25.372

>  <PUBCHEM_SHAPE_FINGERPRINT>  (1) 
10130415 120 18412547621867322253
10803635 8 17023458651708233198
11680986 33 18336828718122024656
12202030 40 17897164843613524051
12363563 72 18341894103782614110
12553582 1 18335693889062569858
13140716 1 18272377468490212905
13296908 3 18337675346628692743
14115302 16 17968107420917372551
16752209 62 18190163604036675373
16945 1 18114165437607874773
18186145 218 17967803977383344373
19049666 15 18190176978712547873
200 152 18114179679861892190
20645477 70 18267856354033337879
20671657 53 18408603656262349460
21452121 71 18335710429393148044
21501502 16 18201159944370071881
21650355 55 18196368122535639328
232386 152 18411426081004086836
23366157 5 18261393403448414660
23402539 116 18200584792013155743
23526113 38 18191852638717605273
23557571 272 17986682467879153052
23559900 14 18408037425365350992
27216 239 11600005440403365015
2748010 2 18190458462015338399
458136 41 17614865318580637721
5104073 3 18130516344260967395
5493415 88 18409732901811474546
5902787 121 18409727391447613482
7364860 26 18271523216796213608
81228 2 18127142869912922065
8809292 202 18334018297892916491
9709674 26 18263920110953519067

>  <PUBCHEM_SHAPE_MULTIPOLES>  (1) 
335
7.19
2.68
1.24
4.34
1.23
0
-5.02
-0.27
1.44
0.85
-0.92
-0.54
0.27

>  <PUBCHEM_SHAPE_SELFOVERLAP>  (1) 
676.673

>  <PUBCHEM_SHAPE_VOLUME>  (1) 
198.9

>  <PUBCHEM_COORDINATE_TYPE>  (1) 
2
5
10

$$$$
