27582
     RDKit          3D

 10 10  0  0  0  0  0  0  0  0999 V2000
    1.7166    2.0986   -0.0008 Cl  0  0  0  0  0  0  0  0  0  0  0  0
   -1.4609    2.2367    0.0007 Cl  0  0  0  0  0  0  0  0  0  0  0  0
   -3.1101   -0.4989   -0.0008 Cl  0  0  0  0  0  0  0  0  0  0  0  0
    2.7690   -0.6651   -0.0001 O   0  0  0  0  0  0  0  0  0  0  0  0
    1.4082   -0.5781    0.0002 C   0  0  0  0  0  0  0  0  0  0  0  0
    0.7542    0.6540    0.0002 C   0  0  0  0  0  0  0  0  0  0  0  0
   -0.6399    0.7035    0.0002 C   0  0  0  0  0  0  0  0  0  0  0  0
    0.6682   -1.7606    0.0001 C   0  0  0  0  0  0  0  0  0  0  0  0
   -1.3797   -0.4791    0.0001 C   0  0  0  0  0  0  0  0  0  0  0  0
   -0.7257   -1.7111    0.0001 C   0  0  0  0  0  0  0  0  0  0  0  0
  1  6  1  0
  2  7  1  0
  3  9  1  0
  4  5  1  0
  5  6  2  0
  5  8  1  0
  6  7  1  0
  7  9  2  0
  8 10  2  0
  9 10  1  0
M  END
>  <PUBCHEM_COMPOUND_CID>  (1) 
27582

>  <PUBCHEM_CONFORMER_RMSD>  (1) 
0.4

>  <PUBCHEM_CONFORMER_DIVERSEORDER>  (1) 
1

>  <PUBCHEM_MMFF94_PARTIAL_CHARGES>  (1) 
13
1 -0.18
10 -0.15
11 0.15
12 0.15
13 0.45
2 -0.18
3 -0.18
4 -0.53
5 0.08
6 0.18
7 0.18
8 -0.15
9 0.18

>  <PUBCHEM_EFFECTIVE_ROTOR_COUNT>  (1) 
0

>  <PUBCHEM_PHARMACOPHORE_FEATURES>  (1) 
2
1 4 donor
6 5 6 7 8 9 10 rings

>  <PUBCHEM_HEAVY_ATOM_COUNT>  (1) 
10

>  <PUBCHEM_ATOM_DEF_STEREO_COUNT>  (1) 
0

>  <PUBCHEM_ATOM_UDEF_STEREO_COUNT>  (1) 
0

>  <PUBCHEM_BOND_DEF_STEREO_COUNT>  (1) 
0

>  <PUBCHEM_BOND_UDEF_STEREO_COUNT>  (1) 
0

>  <PUBCHEM_ISOTOPIC_ATOM_COUNT>  (1) 
0

>  <PUBCHEM_COMPONENT_COUNT>  (1) 
1

>  <PUBCHEM_CACTVS_TAUTO_COUNT>  (1) 
3

>  <PUBCHEM_CONFORMER_ID>  (1) 
00006BBE00000001

>  <PUBCHEM_MMFF94_ENERGY>  (1) 
21.968

>  <PUBCHEM_FEATURE_SELFOVERLAP>  (1) 
10.148

>  <PUBCHEM_SHAPE_FINGERPRINT>  (1) 
11206711 2 18337394837840269637
12423570 1 14367147874344959367
161256 15 18411422833945604709
16945 1 18410575076120915911
18185500 45 18050285868938276115
193761 8 18338798901277825825
21040471 1 18050287273397785186
2334 1 18050286173939255719
23552423 10 18334856155622724599
241688 4 17906736903617994090
2748010 2 18122630714699966543
5084963 1 18131069320445693523
528886 8 18195523929042871113
66348 1 18266172833947971469

>  <PUBCHEM_SHAPE_MULTIPOLES>  (1) 
205.54
3.36
2.45
0.62
0.79
0.89
0
-0.01
0
-0.28
0
0.03
0.02
0

>  <PUBCHEM_SHAPE_SELFOVERLAP>  (1) 
403.75

>  <PUBCHEM_SHAPE_VOLUME>  (1) 
125.9

>  <PUBCHEM_COORDINATE_TYPE>  (1) 
2
5
10

$$$$
