27593
     RDKit          3D

 17 18  0  0  0  0  0  0  0  0999 V2000
    5.2860   -0.0381   -0.5491 O   0  0  0  0  0  0  0  0  0  0  0  0
    4.6338    1.6012    0.7571 O   0  0  0  0  0  0  0  0  0  0  0  0
   -0.8733   -1.3931   -0.0804 N   0  0  0  0  0  0  0  0  0  0  0  0
    4.3904    0.5692    0.0861 N   0  0  0  0  0  0  0  0  0  0  0  0
   -2.1314   -0.7619    0.0107 C   0  0  0  0  0  0  0  0  0  0  0  0
    0.4457   -0.9013   -0.0388 C   0  0  0  0  0  0  0  0  0  0  0  0
   -3.5338    1.1719   -0.3510 C   0  0  0  0  0  0  0  0  0  0  0  0
   -2.2892    0.5484   -0.4410 C   0  0  0  0  0  0  0  0  0  0  0  0
   -3.2183   -1.4485    0.5524 C   0  0  0  0  0  0  0  0  0  0  0  0
    1.4596   -1.5588   -0.7371 C   0  0  0  0  0  0  0  0  0  0  0  0
    0.7418    0.2448    0.7011 C   0  0  0  0  0  0  0  0  0  0  0  0
   -4.6205    0.4852    0.1905 C   0  0  0  0  0  0  0  0  0  0  0  0
   -4.4627   -0.8250    0.6422 C   0  0  0  0  0  0  0  0  0  0  0  0
    3.0604    0.0735    0.0440 C   0  0  0  0  0  0  0  0  0  0  0  0
    2.7660   -1.0719   -0.6958 C   0  0  0  0  0  0  0  0  0  0  0  0
    2.0482    0.7319    0.7425 C   0  0  0  0  0  0  0  0  0  0  0  0
   -3.7029    2.5728   -0.8331 C   0  0  0  0  0  0  0  0  0  0  0  0
  1  4  1  0
  2  4  2  0
  3  5  1  0
  3  6  1  0
  4 14  1  0
  5  8  1  0
  5  9  2  0
  6 10  2  0
  6 11  1  0
  7  8  2  0
  7 12  1  0
  7 17  1  0
  9 13  1  0
 10 15  1  0
 11 16  2  0
 12 13  2  0
 14 15  2  0
 14 16  1  0
M  CHG  2   1  -1   4   1
M  END
>  <PUBCHEM_COMPOUND_CID>  (1) 
27593

>  <PUBCHEM_CONFORMER_RMSD>  (1) 
0.6

>  <PUBCHEM_CONFORMER_DIVERSEORDER>  (1) 
1
7
2
8
4
3
6
5

>  <PUBCHEM_MMFF94_PARTIAL_CHARGES>  (1) 
26
1 -0.52
10 -0.15
11 -0.15
12 -0.15
13 -0.15
14 0.13
15 -0.15
16 -0.15
17 0.14
18 0.4
19 0.15
2 -0.52
20 0.15
21 0.15
22 0.15
23 0.15
24 0.15
25 0.15
26 0.15
3 -0.6
4 0.91
5 0.1
6 0.1
7 -0.14
8 -0.15
9 -0.15

>  <PUBCHEM_EFFECTIVE_ROTOR_COUNT>  (1) 
3

>  <PUBCHEM_PHARMACOPHORE_FEATURES>  (1) 
7
1 1 acceptor
1 1 anion
1 2 acceptor
1 3 cation
1 3 donor
6 5 7 8 9 12 13 rings
6 6 10 11 14 15 16 rings

>  <PUBCHEM_HEAVY_ATOM_COUNT>  (1) 
17

>  <PUBCHEM_ATOM_DEF_STEREO_COUNT>  (1) 
0

>  <PUBCHEM_ATOM_UDEF_STEREO_COUNT>  (1) 
0

>  <PUBCHEM_BOND_DEF_STEREO_COUNT>  (1) 
0

>  <PUBCHEM_BOND_UDEF_STEREO_COUNT>  (1) 
0

>  <PUBCHEM_ISOTOPIC_ATOM_COUNT>  (1) 
0

>  <PUBCHEM_COMPONENT_COUNT>  (1) 
1

>  <PUBCHEM_CACTVS_TAUTO_COUNT>  (1) 
1

>  <PUBCHEM_CONFORMER_ID>  (1) 
00006BC900000001

>  <PUBCHEM_MMFF94_ENERGY>  (1) 
65.0168

>  <PUBCHEM_FEATURE_SELFOVERLAP>  (1) 
35.602

>  <PUBCHEM_SHAPE_FINGERPRINT>  (1) 
10366900 7 18409160043880275987
10498660 4 18189611653574114429
10608611 8 18411135801692448749
10646746 165 18334576815265846148
11046707 91 10663816386450134613
11471102 20 17989209235256206786
11595378 159 17385992949574914089
12107183 9 17392179746943174736
12236239 1 16226046704054172163
12403259 415 18271805752745735304
12596602 18 16371010744934266888
12670546 56 17821998796643227490
12916748 109 18187089455208501411
13081056 2 18341614836487424712
13214271 11 18409447003519628591
14123255 352 18408316670705545413
14251752 14 18336272271777452086
15196674 1 18411136892387340589
15219456 202 18341614793601217767
15375358 24 18412824672653080727
18186145 218 18272381823354773239
19433438 28 18408605880928652378
200 152 16271929294205820770
20510252 161 18410014295890688521
20645477 56 18409733945910507531
20645477 70 17632021844928620982
231179 274 18343019991141924286
23402539 116 18186797028229008503
23402655 69 17917990538546418053
23557571 272 18335148578460556052
23559900 14 18125154936069028730
2916195 48 18340480170858507280
3545911 37 18411985749539144695
4028521 119 18341610374232876845
4214541 1 18408323263490705689
474 4 16082513252187184972
5104073 3 18335140834808673155
5281201 14 18342748394431680804
77779 3 18408042896526003570

>  <PUBCHEM_SHAPE_MULTIPOLES>  (1) 
328.15
10.72
1.87
0.88
4.37
0.64
0
3.45
0.27
-1.34
-0.26
0.08
0.06
1.46

>  <PUBCHEM_SHAPE_SELFOVERLAP>  (1) 
703.715

>  <PUBCHEM_SHAPE_VOLUME>  (1) 
182.1

>  <PUBCHEM_COORDINATE_TYPE>  (1) 
2
5
10

$$$$
