2759
     RDKit          3D

 30 32  0  0  0  0  0  0  0  0999 V2000
   -6.3083   -2.0942    0.2679 O   0  0  0  0  0  0  0  0  0  0  0  0
   -0.0881    1.0116   -2.4399 O   0  0  0  0  0  0  0  0  0  0  0  0
    5.7397   -2.3738    0.3718 O   0  0  0  0  0  0  0  0  0  0  0  0
    6.4112    2.3478    0.8107 O   0  0  0  0  0  0  0  0  0  0  0  0
    7.3524   -0.2415    1.0950 O   0  0  0  0  0  0  0  0  0  0  0  0
   -3.7033   -0.9274    0.3531 N   0  0  0  0  0  0  0  0  0  0  0  0
   -6.9504    0.1098    0.5272 N   0  0  0  0  0  0  0  0  0  0  0  0
   -1.2451   -0.4381   -1.0392 N   0  0  0  0  0  0  0  0  0  0  0  0
   -8.2587   -0.0380   -0.0933 C   0  0  0  0  0  0  0  0  0  0  0  0
   -6.7316    1.4843    0.9670 C   0  0  0  0  0  0  0  0  0  0  0  0
   -8.9948    1.2450    0.2607 C   0  0  0  0  0  0  0  0  0  0  0  0
   -7.8709    2.2709    0.3343 C   0  0  0  0  0  0  0  0  0  0  0  0
   -3.6156    0.1325   -0.6621 C   0  0  0  0  0  0  0  0  0  0  0  0
   -2.4108   -1.1020    1.0327 C   0  0  0  0  0  0  0  0  0  0  0  0
   -4.7568   -0.6260    1.3214 C   0  0  0  0  0  0  0  0  0  0  0  0
   -2.5307   -0.1870   -1.6915 C   0  0  0  0  0  0  0  0  0  0  0  0
   -1.3106   -1.4451    0.0269 C   0  0  0  0  0  0  0  0  0  0  0  0
   -6.0717   -0.9500    0.6585 C   0  0  0  0  0  0  0  0  0  0  0  0
   -0.0974    0.1682   -1.5412 C   0  0  0  0  0  0  0  0  0  0  0  0
    1.2029   -0.2240   -0.9627 C   0  0  0  0  0  0  0  0  0  0  0  0
    2.1886    0.6821   -0.9406 C   0  0  0  0  0  0  0  0  0  0  0  0
    3.5410    0.4402   -0.4078 C   0  0  0  0  0  0  0  0  0  0  0  0
    4.3505    1.5167   -0.0446 C   0  0  0  0  0  0  0  0  0  0  0  0
    4.0118   -0.8651   -0.2663 C   0  0  0  0  0  0  0  0  0  0  0  0
    5.2920   -1.0941    0.2381 C   0  0  0  0  0  0  0  0  0  0  0  0
    5.6306    1.2877    0.4598 C   0  0  0  0  0  0  0  0  0  0  0  0
    6.1013   -0.0176    0.6012 C   0  0  0  0  0  0  0  0  0  0  0  0
    4.8497   -3.4162   -0.0225 C   0  0  0  0  0  0  0  0  0  0  0  0
    5.8544    3.6490    0.6347 C   0  0  0  0  0  0  0  0  0  0  0  0
    8.4187   -0.3055    0.1508 C   0  0  0  0  0  0  0  0  0  0  0  0
  1 18  2  0
  2 19  2  0
  3 25  1  0
  3 28  1  0
  4 26  1  0
  4 29  1  0
  5 27  1  0
  5 30  1  0
  6 13  1  0
  6 14  1  0
  6 15  1  0
  7  9  1  0
  7 10  1  0
  7 18  1  0
  8 16  1  0
  8 17  1  0
  8 19  1  0
  9 11  1  0
 10 12  1  0
 11 12  1  0
 13 16  1  0
 14 17  1  0
 15 18  1  0
 19 20  1  0
 20 21  2  0
 21 22  1  0
 22 23  2  0
 22 24  1  0
 23 26  1  0
 24 25  2  0
 25 27  1  0
 26 27  2  0
M  END
>  <PUBCHEM_COMPOUND_CID>  (1) 
2759

>  <PUBCHEM_CONFORMER_RMSD>  (1) 
1.2

>  <PUBCHEM_CONFORMER_DIVERSEORDER>  (1) 
5
18
7
15
11
16
14
13
3
21
19
1
20
12
17
2
4
6
9
8
10

>  <PUBCHEM_MMFF94_PARTIAL_CHARGES>  (1) 
32
1 -0.57
10 0.3
13 0.27
14 0.27
15 0.33
16 0.3
17 0.3
18 0.57
19 0.62
2 -0.57
20 -0.14
21 -0.18
22 0.03
23 -0.15
24 -0.15
25 0.08
26 0.08
27 0.08
28 0.28
29 0.28
3 -0.36
30 0.28
4 -0.36
49 0.15
5 -0.36
50 0.15
51 0.15
52 0.15
6 -0.81
7 -0.66
8 -0.66
9 0.3

>  <PUBCHEM_EFFECTIVE_ROTOR_COUNT>  (1) 
11.2

>  <PUBCHEM_PHARMACOPHORE_FEATURES>  (1) 
9
1 1 acceptor
1 2 acceptor
1 3 acceptor
1 4 acceptor
1 5 acceptor
1 6 cation
5 7 9 10 11 12 rings
6 22 23 24 25 26 27 rings
6 6 8 13 14 16 17 rings

>  <PUBCHEM_HEAVY_ATOM_COUNT>  (1) 
30

>  <PUBCHEM_ATOM_DEF_STEREO_COUNT>  (1) 
0

>  <PUBCHEM_ATOM_UDEF_STEREO_COUNT>  (1) 
0

>  <PUBCHEM_BOND_DEF_STEREO_COUNT>  (1) 
0

>  <PUBCHEM_BOND_UDEF_STEREO_COUNT>  (1) 
1

>  <PUBCHEM_ISOTOPIC_ATOM_COUNT>  (1) 
0

>  <PUBCHEM_COMPONENT_COUNT>  (1) 
1

>  <PUBCHEM_CACTVS_TAUTO_COUNT>  (1) 
1

>  <PUBCHEM_CONFORMER_ID>  (1) 
00000AC700000005

>  <PUBCHEM_MMFF94_ENERGY>  (1) 
105.7171

>  <PUBCHEM_FEATURE_SELFOVERLAP>  (1) 
45.683

>  <PUBCHEM_SHAPE_FINGERPRINT>  (1) 
10 15 17704072884998967903
10299344 5 11458424635619906841
10429389 143 17489587844918413521
10533779 47 18115322077097082123
10580692 12 18408041788841075203
12373685 5 18060693984311480127
125118 31 18343587351763482481
12596602 18 18412829105196675715
13533116 47 18409733945963618898
13668630 136 11242238663176611288
13673619 4 15502091964490028917
13914758 101 18336551530308399171
14347424 109 18411135818903979578
14767858 380 13973968688774393525
150020 25 11312054344916391417
15003188 100 11095880471775698802
15131766 46 17915169355146012952
15183329 4 16343705443553387993
15461852 350 17275101765428853701
1754911 235 11671782651002954251
20554085 129 15697993011762508262
21130935 74 18335142007562227859
21150785 3 10447928369189516365
21344244 181 9079119959735256501
21792934 111 17967810548794506285
22122407 14 17988654046177042328
3004659 81 15140959582645704558
312425 54 18114181968678606155
3383291 50 16732986444640947339
3663271 9 18341895229259230787
4073 2 18189619508868903898
4093350 32 18341611478055783610
4107672 100 8430328918226522355
99344 41 18411136939817474259

>  <PUBCHEM_SHAPE_MULTIPOLES>  (1) 
573.1
28.98
2.67
1.31
22.53
0.6
0.56
7.97
-9.96
-4.1
-0.69
0.42
0.16
0.47

>  <PUBCHEM_SHAPE_SELFOVERLAP>  (1) 
1193.464

>  <PUBCHEM_SHAPE_VOLUME>  (1) 
328

>  <PUBCHEM_COORDINATE_TYPE>  (1) 
2
5
10

$$$$
