27594
     RDKit          3D

 17 18  0  0  0  0  0  0  0  0999 V2000
    3.7423    2.7749   -0.8372 Cl  0  0  0  0  0  0  0  0  0  0  0  0
   -5.2859   -0.0094   -0.5555 O   0  0  0  0  0  0  0  0  0  0  0  0
   -4.6274    1.5974    0.7877 O   0  0  0  0  0  0  0  0  0  0  0  0
    0.8646   -1.4093   -0.1032 N   0  0  0  0  0  0  0  0  0  0  0  0
   -4.3883    0.5790    0.0946 N   0  0  0  0  0  0  0  0  0  0  0  0
   -0.4536   -0.9105   -0.0534 C   0  0  0  0  0  0  0  0  0  0  0  0
    2.1243   -0.7879    0.0016 C   0  0  0  0  0  0  0  0  0  0  0  0
   -1.4679   -1.5480   -0.7676 C   0  0  0  0  0  0  0  0  0  0  0  0
   -0.7429    0.2207    0.7100 C   0  0  0  0  0  0  0  0  0  0  0  0
   -3.0611    0.0766    0.0448 C   0  0  0  0  0  0  0  0  0  0  0  0
   -2.7716   -1.0545   -0.7186 C   0  0  0  0  0  0  0  0  0  0  0  0
   -2.0466    0.7143    0.7591 C   0  0  0  0  0  0  0  0  0  0  0  0
    2.2906    0.5321   -0.4208 C   0  0  0  0  0  0  0  0  0  0  0  0
    3.2087   -1.4908    0.5290 C   0  0  0  0  0  0  0  0  0  0  0  0
    3.5381    1.1474   -0.3159 C   0  0  0  0  0  0  0  0  0  0  0  0
    4.4561   -0.8755    0.6339 C   0  0  0  0  0  0  0  0  0  0  0  0
    4.6208    0.4436    0.2116 C   0  0  0  0  0  0  0  0  0  0  0  0
  1 15  1  0
  2  5  1  0
  3  5  2  0
  4  6  1  0
  4  7  1  0
  5 10  1  0
  6  8  2  0
  6  9  1  0
  7 13  2  0
  7 14  1  0
  8 11  1  0
  9 12  2  0
 10 11  2  0
 10 12  1  0
 13 15  1  0
 14 16  2  0
 15 17  2  0
 16 17  1  0
M  CHG  2   2  -1   5   1
M  END
>  <PUBCHEM_COMPOUND_CID>  (1) 
27594

>  <PUBCHEM_CONFORMER_RMSD>  (1) 
0.6

>  <PUBCHEM_CONFORMER_DIVERSEORDER>  (1) 
1
10
2
9
3
4
8
7
5
6

>  <PUBCHEM_MMFF94_PARTIAL_CHARGES>  (1) 
26
1 -0.18
10 0.13
11 -0.15
12 -0.15
13 -0.15
14 -0.15
15 0.18
16 -0.15
17 -0.15
18 0.4
19 0.15
2 -0.52
20 0.15
21 0.15
22 0.15
23 0.15
24 0.15
25 0.15
26 0.15
3 -0.52
4 -0.6
5 0.91
6 0.1
7 0.1
8 -0.15
9 -0.15

>  <PUBCHEM_EFFECTIVE_ROTOR_COUNT>  (1) 
3

>  <PUBCHEM_PHARMACOPHORE_FEATURES>  (1) 
7
1 2 acceptor
1 2 anion
1 3 acceptor
1 4 cation
1 4 donor
6 6 8 9 10 11 12 rings
6 7 13 14 15 16 17 rings

>  <PUBCHEM_HEAVY_ATOM_COUNT>  (1) 
17

>  <PUBCHEM_ATOM_DEF_STEREO_COUNT>  (1) 
0

>  <PUBCHEM_ATOM_UDEF_STEREO_COUNT>  (1) 
0

>  <PUBCHEM_BOND_DEF_STEREO_COUNT>  (1) 
0

>  <PUBCHEM_BOND_UDEF_STEREO_COUNT>  (1) 
0

>  <PUBCHEM_ISOTOPIC_ATOM_COUNT>  (1) 
0

>  <PUBCHEM_COMPONENT_COUNT>  (1) 
1

>  <PUBCHEM_CACTVS_TAUTO_COUNT>  (1) 
1

>  <PUBCHEM_CONFORMER_ID>  (1) 
00006BCA00000001

>  <PUBCHEM_MMFF94_ENERGY>  (1) 
63.2063

>  <PUBCHEM_FEATURE_SELFOVERLAP>  (1) 
35.602

>  <PUBCHEM_SHAPE_FINGERPRINT>  (1) 
12236239 1 18342453734053265570
12403814 3 18333726901889827413
12633257 1 17677037041070791408
13675066 3 17312823770950852311
14251764 38 18188206481803471837
15196674 1 18339361967327038084
15342168 16 17896045510564029980
15375358 24 15626218018172112626
17959699 21 18410572890061807065
18186145 218 17967808353876274278
20715895 44 18123749751787659977
21033648 29 16660629774185762685
212847 35 18342174466742460232
21503847 285 18260269651119483392
21652331 79 18334293166978018836
22079108 93 17821734961508586899
2255824 54 18333731321685819258
23402539 116 17703498926595941503
23402655 69 18341896316191509020
23557571 272 14836409107746752130
23559900 14 17775011141882689126
2838139 119 17970050172724294621
34797466 226 15841549729746471297
351380 180 18187080628871496313
3545911 37 18343021086353498414
4340502 62 17749396932198079803
4409770 3 16033254663096138366
474 4 18261111902532328738
5104073 3 18261391191149231298
537710 114 18202283601929043705
633830 44 18409731772472849086
67856867 119 18340196510001847224
8272917 22 18408605825590456158
9971528 1 18412542081876449118
9981440 41 17689146134500592424

>  <PUBCHEM_SHAPE_MULTIPOLES>  (1) 
330.02
10.75
1.98
0.89
4.53
0.91
0
3.64
-0.29
-1.74
0.3
0.13
0.07
-1.52

>  <PUBCHEM_SHAPE_SELFOVERLAP>  (1) 
700.635

>  <PUBCHEM_SHAPE_VOLUME>  (1) 
184.6

>  <PUBCHEM_COORDINATE_TYPE>  (1) 
2
5
10

$$$$
