27610
     RDKit          3D

 21 23  0  0  0  0  0  0  0  0999 V2000
    0.7575   -2.6469   -0.4273 O   0  0  0  0  0  0  0  0  0  0  0  0
   -0.2931    0.1200   -0.4655 N   0  0  0  0  0  0  0  0  0  0  0  0
    3.3960    0.4885   -0.0048 N   0  0  0  0  0  0  0  0  0  0  0  0
   -2.2678   -0.7186    0.1184 C   0  0  0  0  0  0  0  0  0  0  0  0
   -0.9576   -1.0412   -0.1797 C   0  0  0  0  0  0  0  0  0  0  0  0
   -3.2768   -1.7525    0.4838 C   0  0  0  0  0  0  0  0  0  0  0  0
   -2.4052    0.6931   -0.0022 C   0  0  0  0  0  0  0  0  0  0  0  0
   -1.1522    1.1931   -0.3684 C   0  0  0  0  0  0  0  0  0  0  0  0
    1.1063    0.2242   -0.8257 C   0  0  0  0  0  0  0  0  0  0  0  0
   -2.5760   -3.0104    1.0227 C   0  0  0  0  0  0  0  0  0  0  0  0
   -1.4363   -3.4801    0.1058 C   0  0  0  0  0  0  0  0  0  0  0  0
   -0.4141   -2.3793   -0.1737 C   0  0  0  0  0  0  0  0  0  0  0  0
    1.9973    0.4142    0.3985 C   0  0  0  0  0  0  0  0  0  0  0  0
   -3.4726    1.5986    0.1642 C   0  0  0  0  0  0  0  0  0  0  0  0
   -0.9153    2.5569   -0.5756 C   0  0  0  0  0  0  0  0  0  0  0  0
    3.8016   -0.7406   -0.6894 C   0  0  0  0  0  0  0  0  0  0  0  0
    4.2557    0.7300    1.1555 C   0  0  0  0  0  0  0  0  0  0  0  0
   -3.2493    2.9650   -0.0402 C   0  0  0  0  0  0  0  0  0  0  0  0
   -1.9893    3.4346   -0.4044 C   0  0  0  0  0  0  0  0  0  0  0  0
    5.2386   -0.6503   -1.1742 C   0  0  0  0  0  0  0  0  0  0  0  0
    3.8526    2.0019    1.8821 C   0  0  0  0  0  0  0  0  0  0  0  0
  1 12  2  0
  2  5  1  0
  2  8  1  0
  2  9  1  0
  3 13  1  0
  3 16  1  0
  3 17  1  0
  4  5  2  0
  4  6  1  0
  4  7  1  0
  5 12  1  0
  6 10  1  0
  7  8  2  0
  7 14  1  0
  8 15  1  0
  9 13  1  0
 10 11  1  0
 11 12  1  0
 14 18  2  0
 15 19  2  0
 16 20  1  0
 17 21  1  0
 18 19  1  0
M  END
>  <PUBCHEM_COMPOUND_CID>  (1) 
27610

>  <PUBCHEM_CONFORMER_RMSD>  (1) 
0.8

>  <PUBCHEM_CONFORMER_DIVERSEORDER>  (1) 
3
6
8
7
9
1
5
4
2

>  <PUBCHEM_MMFF94_PARTIAL_CHARGES>  (1) 
21
1 -0.57
11 0.06
12 0.59
13 0.27
14 -0.15
15 -0.15
16 0.27
17 0.27
18 -0.15
19 -0.15
2 0.05
3 -0.81
32 0.15
33 0.15
38 0.15
39 0.15
4 -0.18
5 -0.24
6 0.18
8 -0.15
9 0.26

>  <PUBCHEM_EFFECTIVE_ROTOR_COUNT>  (1) 
5.6

>  <PUBCHEM_PHARMACOPHORE_FEATURES>  (1) 
6
1 1 acceptor
1 2 cation
1 3 cation
5 2 4 5 7 8 rings
6 4 5 6 10 11 12 rings
6 7 8 14 15 18 19 rings

>  <PUBCHEM_HEAVY_ATOM_COUNT>  (1) 
21

>  <PUBCHEM_ATOM_DEF_STEREO_COUNT>  (1) 
0

>  <PUBCHEM_ATOM_UDEF_STEREO_COUNT>  (1) 
0

>  <PUBCHEM_BOND_DEF_STEREO_COUNT>  (1) 
0

>  <PUBCHEM_BOND_UDEF_STEREO_COUNT>  (1) 
0

>  <PUBCHEM_ISOTOPIC_ATOM_COUNT>  (1) 
0

>  <PUBCHEM_COMPONENT_COUNT>  (1) 
1

>  <PUBCHEM_CACTVS_TAUTO_COUNT>  (1) 
2

>  <PUBCHEM_CONFORMER_ID>  (1) 
00006BDA00000003

>  <PUBCHEM_MMFF94_ENERGY>  (1) 
33.7078

>  <PUBCHEM_FEATURE_SELFOVERLAP>  (1) 
30.621

>  <PUBCHEM_SHAPE_FINGERPRINT>  (1) 
10165383 225 18122640361291887628
10319926 262 18267846394737304560
10369192 42 16912286189843676432
10411042 1 18049171256496521231
10967382 1 16894554962500154751
12173636 292 18337945701661001636
12553582 1 17833557073417600422
12788726 201 17970637504689635330
13140716 1 18121229937645601539
138480 1 16678940710439000255
14081887 123 18266445676288116616
14178342 30 18261660550497920586
14420673 8 18120080690492490146
15042514 8 18335149725675948115
15230672 131 18119254966098059846
15295992 7 18060133215742131824
15806764 133 17917164861602480228
16945 1 18336282201377849765
19049666 15 18272087176203677330
19591789 44 17976264538664694015
20510252 161 18342457066673535433
21033648 29 18266169539977931896
21524375 3 18125999369440830869
21650355 55 18192422189677031947
2334 1 17545334428808252119
23402539 116 18341604971527983303
23526113 38 17772762576200301246
23557571 272 18341344348095092908
23559900 14 18412830171013157684
2748010 2 18192451696635527631
3091708 16 9200562080121760003
3187 122 17976796994340108832
3298306 158 18128261082461509662
350125 39 18266186023971840051
5265222 85 18267886007379379374
58807428 26 18263363590624123529
59755656 215 18337394846852567599
6049 1 18201723985556078576
633830 44 17915727696272263788
7097593 13 18042104498043488536
7364860 26 17546163009224065197
7808743 9 18334867108507137836
81228 2 18264198274193939837
84936 182 17692528910155038689
90316 7 18264771145748726907
9709674 26 18271519892580788148

>  <PUBCHEM_SHAPE_MULTIPOLES>  (1) 
416.34
7.99
4.26
1.09
11.12
0.55
-0.32
-1.73
-0.85
-4.73
-0.3
1.26
-0.22
1.94

>  <PUBCHEM_SHAPE_SELFOVERLAP>  (1) 
886.092

>  <PUBCHEM_SHAPE_VOLUME>  (1) 
234.8

>  <PUBCHEM_COORDINATE_TYPE>  (1) 
2
5
10

$$$$
