27612
     RDKit          3D

 23 25  0  0  1  0  0  0  0  0999 V2000
    5.2061   -2.8386    0.1369 F   0  0  0  0  0  0  0  0  0  0  0  0
    2.3728    2.6393   -1.0126 O   0  0  0  0  0  0  0  0  0  0  0  0
   -1.4006    1.0077   -0.1787 N   0  0  0  0  0  0  0  0  0  0  0  0
   -2.7804   -1.0229   -0.8055 C   0  0  0  0  0  0  0  0  0  0  0  0
   -3.9282   -0.6087    0.1674 C   0  0  0  0  0  0  0  0  0  0  0  0
   -3.0403   -0.1215    1.3413 C   0  0  0  0  0  0  0  0  0  0  0  0
   -1.8504   -1.8693    0.1082 C   0  0  0  0  0  0  0  0  0  0  0  0
   -2.0230   -1.2720    1.5166 C   0  0  0  0  0  0  0  0  0  0  0  0
   -1.9936    0.2408   -1.2829 C   0  0  0  0  0  0  0  0  0  0  0  0
   -2.2876    1.1800    0.9775 C   0  0  0  0  0  0  0  0  0  0  0  0
   -3.2402   -1.8207   -2.0274 C   0  0  0  0  0  0  0  0  0  0  0  0
   -4.8264   -1.7917    0.6107 C   0  0  0  0  0  0  0  0  0  0  0  0
   -4.8901    0.4643   -0.3770 C   0  0  0  0  0  0  0  0  0  0  0  0
   -0.8501    2.2787   -0.6341 C   0  0  0  0  0  0  0  0  0  0  0  0
   -0.0566    2.9451    0.4915 C   0  0  0  0  0  0  0  0  0  0  0  0
    1.1133    2.0799    0.9686 C   0  0  0  0  0  0  0  0  0  0  0  0
    2.1626    1.8362   -0.1068 C   0  0  0  0  0  0  0  0  0  0  0  0
    2.9752    0.5880   -0.0416 C   0  0  0  0  0  0  0  0  0  0  0  0
    3.2369    0.0332    1.1911 C   0  0  0  0  0  0  0  0  0  0  0  0
    3.4338    0.0360   -1.2169 C   0  0  0  0  0  0  0  0  0  0  0  0
    3.9972   -1.1346    1.2519 C   0  0  0  0  0  0  0  0  0  0  0  0
    4.1940   -1.1320   -1.1562 C   0  0  0  0  0  0  0  0  0  0  0  0
    4.4758   -1.7174    0.0782 C   0  0  0  0  0  0  0  0  0  0  0  0
  1 23  1  0
  2 17  2  0
  3  9  1  0
  3 10  1  0
  3 14  1  0
  4  5  1  0
  4  7  1  0
  4  9  1  0
  4 11  1  0
  5  6  1  0
  5 12  1  0
  5 13  1  0
  6  8  1  0
  6 10  1  0
  7  8  1  0
 14 15  1  0
 15 16  1  0
 16 17  1  0
 17 18  1  0
 18 19  2  0
 18 20  1  0
 19 21  1  0
 20 22  2  0
 21 23  2  0
 22 23  1  0
M  END
>  <PUBCHEM_COMPOUND_CID>  (1) 
27612

>  <PUBCHEM_CONFORMER_RMSD>  (1) 
0.8

>  <PUBCHEM_CONFORMER_DIVERSEORDER>  (1) 
1
43
154
96
79
54
126
51
68
146
58
136
35
151
72
63
114
28
142
3
131
155
61
147
116
73
65
15
153
24
109
41
7
112
66
44
106
149
77
133
38
88
123
57
8
108
139
125
71
80
137
94
29
141
85
150
144
56
30
70
89
135
64
105
121
25
115
26
110
6
49
11
74
87
20
10
95
45
117
13
138
148
2
113
40
36
76
14
98
62
78
128
124
69
23
33
9
119
17
31
86
90
48
16
39
91
120
19
75
5
12
101
92
32
46
93
27
53
18
143
55
129
102
42
47
100
83
60
111
132
59
97
84
4
37
145
140
81
122
127
82
99
104
134
21
130
107
50
103
34
118
152
52
67
22

>  <PUBCHEM_MMFF94_PARTIAL_CHARGES>  (1) 
18
1 -0.19
10 0.27
14 0.27
16 0.06
17 0.42
18 0.09
19 -0.15
2 -0.57
20 -0.15
21 -0.15
22 -0.15
23 0.19
3 -0.81
48 0.15
49 0.15
50 0.15
51 0.15
9 0.27

>  <PUBCHEM_EFFECTIVE_ROTOR_COUNT>  (1) 
6.2

>  <PUBCHEM_PHARMACOPHORE_FEATURES>  (1) 
5
1 2 acceptor
1 3 cation
3 5 12 13 hydrophobe
6 18 19 20 21 22 23 rings
8 3 4 5 6 7 8 9 10 rings

>  <PUBCHEM_HEAVY_ATOM_COUNT>  (1) 
23

>  <PUBCHEM_ATOM_DEF_STEREO_COUNT>  (1) 
0

>  <PUBCHEM_ATOM_UDEF_STEREO_COUNT>  (1) 
2

>  <PUBCHEM_BOND_DEF_STEREO_COUNT>  (1) 
0

>  <PUBCHEM_BOND_UDEF_STEREO_COUNT>  (1) 
0

>  <PUBCHEM_ISOTOPIC_ATOM_COUNT>  (1) 
0

>  <PUBCHEM_COMPONENT_COUNT>  (1) 
1

>  <PUBCHEM_CACTVS_TAUTO_COUNT>  (1) 
2

>  <PUBCHEM_CONFORMER_ID>  (1) 
00006BDC00000001

>  <PUBCHEM_MMFF94_ENERGY>  (1) 
72.6424

>  <PUBCHEM_FEATURE_SELFOVERLAP>  (1) 
25.371

>  <PUBCHEM_SHAPE_FINGERPRINT>  (1) 
10498660 4 8286195059157346502
10670039 82 8430321285695246962
10928967 22 18342181050896300270
11640471 11 8358262518724974184
12173636 292 12540962032756010425
12363563 72 18412262831070292660
12422481 6 17914363245966327465
12553582 1 18410579483089437172
12596599 1 17846790623497032398
12633257 1 16773804726704865795
12788726 201 18342188725818111880
13224815 77 18408887373222382000
13533116 47 18268152148763270555
14341114 328 14620500251510437570
14866123 147 18123192307971431785
15352361 1 18410293588623118490
15475509 8 16950555585400565423
15537594 2 18269849751276214942
16752209 62 18115580444316159888
17349148 13 17059785528437487861
17818456 19 17988375810096438865
1798214 55 9295286149315904834
1813 80 18260269671961811197
19930381 70 18409168792402214379
20291156 8 18410014317012272216
20403669 9 18341897346741222878
20645477 70 18261392320662488160
20832881 197 18409730651686656561
21279426 13 18261383430750176677
21315764 21 15721336666117632554
21403212 168 18055925290749556537
21756936 100 13612801203961783298
235170 7 15719401641637722186
23559900 14 18333728043776400796
3004659 81 18040998423600227594
3027735 51 18193553372504606851
339767 52 18410569570368202202
44062 13 18334852771499822933
46194498 28 16879073133747173164
463206 1 18411132541528272682
56633871 153 18131070415968991535
7064713 232 16988573389641742887
7808743 9 9438814185619639514
7970288 3 18409451345516079474
960060 61 18040720302481441420
9709674 26 18262237845072456665

>  <PUBCHEM_SHAPE_MULTIPOLES>  (1) 
455.21
10.6
3
1.52
3.7
0.97
-0.15
-7.41
-0.09
1.67
-0.1
-0.34
-0.36
-0.42

>  <PUBCHEM_SHAPE_SELFOVERLAP>  (1) 
963.158

>  <PUBCHEM_SHAPE_VOLUME>  (1) 
258.9

>  <PUBCHEM_COORDINATE_TYPE>  (1) 
2
5
10

$$$$
