27616
     RDKit          3D

 21 23  0  0  0  0  0  0  0  0999 V2000
   -7.3928   -0.6836   -0.1180 F   0  0  0  0  0  0  0  0  0  0  0  0
   -1.6590    1.8423    0.2401 O   0  0  0  0  0  0  0  0  0  0  0  0
    4.4513    0.7681   -1.6752 N   0  0  0  0  0  0  0  0  0  0  0  0
    2.9330   -0.5099   -0.0408 C   0  0  0  0  0  0  0  0  0  0  0  0
    5.5629    0.1588    0.5155 C   0  0  0  0  0  0  0  0  0  0  0  0
    3.9191   -1.6952   -0.1490 C   0  0  0  0  0  0  0  0  0  0  0  0
    3.1409    0.2203    1.3051 C   0  0  0  0  0  0  0  0  0  0  0  0
    5.3894   -1.2990    0.0621 C   0  0  0  0  0  0  0  0  0  0  0  0
    4.6025    0.4606    1.6642 C   0  0  0  0  0  0  0  0  0  0  0  0
    3.0950    0.4758   -1.2324 C   0  0  0  0  0  0  0  0  0  0  0  0
    1.4873   -1.0487   -0.0727 C   0  0  0  0  0  0  0  0  0  0  0  0
    5.3942    1.1620   -0.6407 C   0  0  0  0  0  0  0  0  0  0  0  0
    0.4870    0.0869    0.0706 C   0  0  0  0  0  0  0  0  0  0  0  0
   -0.9448   -0.4479    0.0061 C   0  0  0  0  0  0  0  0  0  0  0  0
   -1.9790    0.6631    0.1084 C   0  0  0  0  0  0  0  0  0  0  0  0
   -3.4263    0.3030    0.0479 C   0  0  0  0  0  0  0  0  0  0  0  0
   -3.7704   -1.0212   -0.0983 C   0  0  0  0  0  0  0  0  0  0  0  0
   -4.3602    1.3095    0.1408 C   0  0  0  0  0  0  0  0  0  0  0  0
   -5.1230   -1.3575   -0.1548 C   0  0  0  0  0  0  0  0  0  0  0  0
   -5.7127    0.9732    0.0844 C   0  0  0  0  0  0  0  0  0  0  0  0
   -6.0942   -0.3605   -0.0634 C   0  0  0  0  0  0  0  0  0  0  0  0
  1 21  1  0
  2 15  2  0
  3 10  1  0
  3 12  1  0
  4  6  1  0
  4  7  1  0
  4 10  1  0
  4 11  1  0
  5  8  1  0
  5  9  1  0
  5 12  1  0
  6  8  1  0
  7  9  1  0
 11 13  1  0
 13 14  1  0
 14 15  1  0
 15 16  1  0
 16 17  2  0
 16 18  1  0
 17 19  1  0
 18 20  2  0
 19 21  2  0
 20 21  1  0
M  END
>  <PUBCHEM_COMPOUND_CID>  (1) 
27616

>  <PUBCHEM_CONFORMER_RMSD>  (1) 
0.8

>  <PUBCHEM_CONFORMER_DIVERSEORDER>  (1) 
1
6
26
39
33
18
11
15
4
21
37
7
38
35
12
24
25
20
36
32
22
30
10
31
27
9
34
16
28
13
29
3
23
5
8
19
14
2
17

>  <PUBCHEM_MMFF94_PARTIAL_CHARGES>  (1) 
18
1 -0.19
10 0.27
12 0.27
14 0.06
15 0.42
16 0.09
17 -0.15
18 -0.15
19 -0.15
2 -0.57
20 -0.15
21 0.19
3 -0.9
37 0.36
42 0.15
43 0.15
44 0.15
45 0.15

>  <PUBCHEM_EFFECTIVE_ROTOR_COUNT>  (1) 
6.4

>  <PUBCHEM_PHARMACOPHORE_FEATURES>  (1) 
5
1 2 acceptor
1 3 cation
1 3 donor
6 16 17 18 19 20 21 rings
9 3 4 5 6 7 8 9 10 12 rings

>  <PUBCHEM_HEAVY_ATOM_COUNT>  (1) 
21

>  <PUBCHEM_ATOM_DEF_STEREO_COUNT>  (1) 
0

>  <PUBCHEM_ATOM_UDEF_STEREO_COUNT>  (1) 
0

>  <PUBCHEM_BOND_DEF_STEREO_COUNT>  (1) 
0

>  <PUBCHEM_BOND_UDEF_STEREO_COUNT>  (1) 
0

>  <PUBCHEM_ISOTOPIC_ATOM_COUNT>  (1) 
0

>  <PUBCHEM_COMPONENT_COUNT>  (1) 
1

>  <PUBCHEM_CACTVS_TAUTO_COUNT>  (1) 
2

>  <PUBCHEM_CONFORMER_ID>  (1) 
00006BE000000001

>  <PUBCHEM_MMFF94_ENERGY>  (1) 
59.7018

>  <PUBCHEM_FEATURE_SELFOVERLAP>  (1) 
25.371

>  <PUBCHEM_SHAPE_FINGERPRINT>  (1) 
10 15 18201705293968897592
10354089 29 13254795745947467514
10595046 47 18408325466766724009
10968037 39 18410855473952125543
11287383 113 17703788132587702922
11315181 36 18342459249450572321
11524674 6 16128654167943303543
11724838 91 18041277759741182236
12107183 9 17543064580808558793
12166972 35 18187649085553551916
12236239 1 18114181930166078015
12516196 113 17989204858974676297
12616971 3 17603585239949489759
12730499 353 17203331117707857694
12916748 109 16917352519578230050
13073987 5 17632014139936211162
13533116 47 15864342507174702112
13668630 136 17167865257678467291
1420 363 17846780710965350395
14528608 73 18408888451032352628
14933364 13 18202282494085846705
15183329 4 8574717909712786375
15788980 27 18113621166203343329
17834072 33 18407762546883355172
17844677 252 17775287161965954409
18222031 100 17603868879900765574
19489759 90 18260546706548453409
20157964 124 17095244739414366244
220451 1 18060422417375635311
221357 26 16272212976996311968
23035841 295 18412262827049723035
23081809 10 18411700963622573329
23402539 116 18407755928602470183
23522609 53 18127158370777422121
23536379 177 18335702719652330875
23559900 14 18340480184133831753
239999 70 17418095429900541652
29717793 49 18186524285031353174
300161 21 17822008722465408167
3004659 81 18113338596300064022
3411729 13 18125713733142802112
34797466 226 17703798049809952060
3545911 37 18343581837204360970
4073 2 18186806914964402890
4325135 7 18408041822757598230
5104073 3 18130222640626271691
542803 24 18113338608784084709
5486654 2 18413110584500073111
59755656 215 18342179921393637486
67856867 119 18188494699799319397
7495541 125 18060133250175424464
8988823 20 16081083797182691348

>  <PUBCHEM_SHAPE_MULTIPOLES>  (1) 
414.05
18.2
1.47
1.05
15
0.08
0.02
0.92
-0.11
0.12
-0.07
-1.77
-0.24
-0.38

>  <PUBCHEM_SHAPE_SELFOVERLAP>  (1) 
874.814

>  <PUBCHEM_SHAPE_VOLUME>  (1) 
229.4

>  <PUBCHEM_COORDINATE_TYPE>  (1) 
2
5
10

$$$$
