2761
     RDKit          3D

 28 31  0  0  0  0  0  0  0  0999 V2000
   -1.4228    0.4419   -0.0148 N   0  0  0  0  0  0  0  0  0  0  0  0
    1.1795    1.6947    0.1172 N   0  0  0  0  0  0  0  0  0  0  0  0
   -0.2439   -0.2971    0.4533 C   0  0  0  0  0  0  0  0  0  0  0  0
   -1.2801    1.8731    0.2794 C   0  0  0  0  0  0  0  0  0  0  0  0
   -2.6430   -0.0925    0.5865 C   0  0  0  0  0  0  0  0  0  0  0  0
    1.0362    0.2633   -0.1762 C   0  0  0  0  0  0  0  0  0  0  0  0
    0.0001    2.4343   -0.3489 C   0  0  0  0  0  0  0  0  0  0  0  0
    2.3990    2.2286   -0.4861 C   0  0  0  0  0  0  0  0  0  0  0  0
   -3.8658    0.7545    0.2663 C   0  0  0  0  0  0  0  0  0  0  0  0
   -2.8642   -1.5586    0.2446 C   0  0  0  0  0  0  0  0  0  0  0  0
    3.6211    1.5312    0.0338 C   0  0  0  0  0  0  0  0  0  0  0  0
   -4.2038    1.7873    1.1171 C   0  0  0  0  0  0  0  0  0  0  0  0
   -3.5302   -2.3616    1.1482 C   0  0  0  0  0  0  0  0  0  0  0  0
   -4.6008    0.4646   -0.8652 C   0  0  0  0  0  0  0  0  0  0  0  0
   -2.3918   -2.0419   -0.9586 C   0  0  0  0  0  0  0  0  0  0  0  0
   -5.3250    2.5636    0.8239 C   0  0  0  0  0  0  0  0  0  0  0  0
   -3.7326   -3.7057    0.8350 C   0  0  0  0  0  0  0  0  0  0  0  0
   -5.7220    1.2410   -1.1586 C   0  0  0  0  0  0  0  0  0  0  0  0
   -2.5942   -3.3860   -1.2718 C   0  0  0  0  0  0  0  0  0  0  0  0
    4.4797    0.8651   -0.7545 C   0  0  0  0  0  0  0  0  0  0  0  0
   -6.0841    2.2904   -0.3140 C   0  0  0  0  0  0  0  0  0  0  0  0
   -3.2646   -4.2179   -0.3750 C   0  0  0  0  0  0  0  0  0  0  0  0
    5.6994    0.1803   -0.2947 C   0  0  0  0  0  0  0  0  0  0  0  0
    5.8213   -0.1663    1.0419 C   0  0  0  0  0  0  0  0  0  0  0  0
    6.7032   -0.1057   -1.2066 C   0  0  0  0  0  0  0  0  0  0  0  0
    6.9765   -0.8155    1.4775 C   0  0  0  0  0  0  0  0  0  0  0  0
    7.8583   -0.7551   -0.7710 C   0  0  0  0  0  0  0  0  0  0  0  0
    7.9949   -1.1099    0.5711 C   0  0  0  0  0  0  0  0  0  0  0  0
  1  3  1  0
  1  4  1  0
  1  5  1  0
  2  6  1  0
  2  7  1  0
  2  8  1  0
  3  6  1  0
  4  7  1  0
  5  9  1  0
  5 10  1  0
  8 11  1  0
  9 12  2  0
  9 14  1  0
 10 13  2  0
 10 15  1  0
 11 20  2  0
 12 16  1  0
 13 17  1  0
 14 18  2  0
 15 19  2  0
 16 21  2  0
 17 22  2  0
 18 21  1  0
 19 22  1  0
 20 23  1  0
 23 24  2  0
 23 25  1  0
 24 26  1  0
 25 27  2  0
 26 28  2  0
 27 28  1  0
M  END
>  <PUBCHEM_COMPOUND_CID>  (1) 
2761

>  <PUBCHEM_CONFORMER_RMSD>  (1) 
0.8

>  <PUBCHEM_CONFORMER_DIVERSEORDER>  (1) 
1
23
35
40
20
10
33
19
15
43
26
29
37
27
28
16
32
13
22
30
34
42
38
7
24
39
6
8
9
12
21
14
25
5
17
31
18
4
36
44
11
3
41
2

>  <PUBCHEM_MMFF94_PARTIAL_CHARGES>  (1) 
45
1 -0.81
10 -0.14
11 -0.29
12 -0.15
13 -0.15
14 -0.15
15 -0.15
16 -0.15
17 -0.15
18 -0.15
19 -0.15
2 -0.81
20 -0.18
21 -0.15
22 -0.15
23 0.03
24 -0.15
25 -0.15
26 -0.15
27 -0.15
28 -0.15
3 0.27
4 0.27
40 0.15
41 0.15
42 0.15
43 0.15
44 0.15
45 0.15
46 0.15
47 0.15
48 0.15
49 0.15
5 0.56
50 0.15
51 0.15
52 0.15
53 0.15
54 0.15
55 0.15
56 0.15
6 0.27
7 0.27
8 0.41
9 -0.14

>  <PUBCHEM_EFFECTIVE_ROTOR_COUNT>  (1) 
7.2

>  <PUBCHEM_PHARMACOPHORE_FEATURES>  (1) 
6
1 1 cation
1 2 cation
6 1 2 3 4 6 7 rings
6 10 13 15 17 19 22 rings
6 23 24 25 26 27 28 rings
6 9 12 14 16 18 21 rings

>  <PUBCHEM_HEAVY_ATOM_COUNT>  (1) 
28

>  <PUBCHEM_ATOM_DEF_STEREO_COUNT>  (1) 
0

>  <PUBCHEM_ATOM_UDEF_STEREO_COUNT>  (1) 
0

>  <PUBCHEM_BOND_DEF_STEREO_COUNT>  (1) 
0

>  <PUBCHEM_BOND_UDEF_STEREO_COUNT>  (1) 
1

>  <PUBCHEM_ISOTOPIC_ATOM_COUNT>  (1) 
0

>  <PUBCHEM_COMPONENT_COUNT>  (1) 
1

>  <PUBCHEM_CACTVS_TAUTO_COUNT>  (1) 
1

>  <PUBCHEM_CONFORMER_ID>  (1) 
00000AC900000001

>  <PUBCHEM_MMFF94_ENERGY>  (1) 
90.1705

>  <PUBCHEM_FEATURE_SELFOVERLAP>  (1) 
30.451

>  <PUBCHEM_SHAPE_FINGERPRINT>  (1) 
10050765 1 18266459991335765412
10119406 146 18335699481880681007
10305334 12 18408322163937679178
10319926 262 18271803549427343824
10369192 42 13912326763221112624
10391435 84 18341324566346100368
10577160 183 18042668555660881651
10622 236 18193553591611431062
11101153 10 10519693510267339866
11315181 36 17418093221602043192
11331351 85 17822011982916130708
11524674 6 17846777394891947967
11545043 162 18202282554373631738
11796584 16 18412830192361237348
11809386 21 18335420235290286099
12107183 9 18408606933417692632
12144603 126 18186809063566109636
12422481 6 17775289391723946134
12616971 3 17458349654268283924
12643181 29 18410854348359399110
13073987 5 18264490770637260072
13165053 103 18131062723819844951
14118638 360 18119251911653028324
14347332 77 18195247947614590823
14866123 147 18337957887116424571
15183329 4 18260829267946577196
15347590 135 11887671818782526357
15348495 7 17988638636488284344
15361156 5 17968106347629592948
15439362 3 18124318195362312493
15537594 2 17895189979148949480
17492 89 18050288360124776835
21304303 282 17272876228791863209
21781055 127 17986672572179811513
22311459 1 18337673018978516572
23522609 53 17897192224315542436
23559900 14 18342170124399343936
249057 3 18409448076813462245
2747138 104 9871455556533945948
3004659 81 18187368727679781780
335352 9 18408040697566422173
3383291 50 18273216413421941607
397830 11 17845643885315815688
4017518 198 18059573551312566302
4073 2 18341894121690074032
44062 13 18336827588513834389
444769 64 18334861593151762785
44802255 64 17603858976081065511
484985 159 18336822095841987519
5081480 168 14779547941394448700
5085150 59 18131627893780585055
5104073 3 18200317744338391112
513202 73 18191313873852271667
559249 180 18409448094108836739
58260988 114 17241062010540592219
59755656 215 18341333284744621924
59755656 520 18408318883410164581
613672 6 17775015582957987700
6371380 46 18271237236130161217
6691757 9 18201165377645717449
70251023 43 17689153835366014443
7970288 3 17618786198631412907

>  <PUBCHEM_SHAPE_MULTIPOLES>  (1) 
566.26
20.47
4.06
1.2
42.46
4.04
-0.03
0.64
-0.33
-8.25
0.14
0.22
0.32
-0.72

>  <PUBCHEM_SHAPE_SELFOVERLAP>  (1) 
1221.012

>  <PUBCHEM_SHAPE_VOLUME>  (1) 
307.8

>  <PUBCHEM_COORDINATE_TYPE>  (1) 
2
5
10

$$$$
