27618
     RDKit          3D

 19 21  0  0  1  0  0  0  0  0999 V2000
   -6.7817    0.9324    0.0195 F   0  0  0  0  0  0  0  0  0  0  0  0
   -1.2180   -1.9692   -0.0789 O   0  0  0  0  0  0  0  0  0  0  0  0
    5.3936   -0.2128   -1.4024 N   0  0  0  0  0  0  0  0  0  0  0  0
    3.5004    0.0686    0.0611 C   0  0  0  0  0  0  0  0  0  0  0  0
    4.6450    0.9699    0.5420 C   0  0  0  0  0  0  0  0  0  0  0  0
    3.6980   -0.8295    1.2991 C   0  0  0  0  0  0  0  0  0  0  0  0
    4.9540   -0.0349    1.6738 C   0  0  0  0  0  0  0  0  0  0  0  0
    3.9481   -0.4485   -1.3006 C   0  0  0  0  0  0  0  0  0  0  0  0
    5.6160    1.0138   -0.6269 C   0  0  0  0  0  0  0  0  0  0  0  0
    2.1349    0.7186    0.0221 C   0  0  0  0  0  0  0  0  0  0  0  0
    1.0336   -0.3437   -0.0395 C   0  0  0  0  0  0  0  0  0  0  0  0
   -0.3612    0.2832   -0.0315 C   0  0  0  0  0  0  0  0  0  0  0  0
   -1.4632   -0.7653   -0.0500 C   0  0  0  0  0  0  0  0  0  0  0  0
   -2.8851   -0.3114   -0.0314 C   0  0  0  0  0  0  0  0  0  0  0  0
   -3.1452    1.0393    0.0017 C   0  0  0  0  0  0  0  0  0  0  0  0
   -3.8803   -1.2615   -0.0483 C   0  0  0  0  0  0  0  0  0  0  0  0
   -4.4740    1.4635    0.0190 C   0  0  0  0  0  0  0  0  0  0  0  0
   -5.2091   -0.8376   -0.0311 C   0  0  0  0  0  0  0  0  0  0  0  0
   -5.5060    0.5251    0.0024 C   0  0  0  0  0  0  0  0  0  0  0  0
  1 19  1  0
  2 13  2  0
  3  8  1  0
  3  9  1  0
  4  5  1  0
  4  6  1  0
  4  8  1  0
  4 10  1  0
  5  7  1  0
  5  9  1  0
  6  7  1  0
 10 11  1  0
 11 12  1  0
 12 13  1  0
 13 14  1  0
 14 15  2  0
 14 16  1  0
 15 17  1  0
 16 18  2  0
 17 19  2  0
 18 19  1  0
M  END
>  <PUBCHEM_COMPOUND_CID>  (1) 
27618

>  <PUBCHEM_CONFORMER_RMSD>  (1) 
0.8

>  <PUBCHEM_CONFORMER_DIVERSEORDER>  (1) 
1
91
42
45
61
38
46
9
71
48
19
7
23
60
68
44
52
15
92
8
20
30
65
24
72
17
39
2
36
53
51
50
49
13
5
28
62
41
82
89
78
27
32
75
67
18
77
22
54
26
4
16
12
47
58
76
35
84
56
64
6
29
90
74
25
83
88
3
87
73
31
11
81
86
37
66
63
59
43
79
55
69
57
34
40
80
14
70
21
33
85
10

>  <PUBCHEM_MMFF94_PARTIAL_CHARGES>  (1) 
18
1 -0.19
12 0.06
13 0.42
14 0.09
15 -0.15
16 -0.15
17 -0.15
18 -0.15
19 0.19
2 -0.57
3 -0.9
31 0.36
36 0.15
37 0.15
38 0.15
39 0.15
8 0.27
9 0.27

>  <PUBCHEM_EFFECTIVE_ROTOR_COUNT>  (1) 
6

>  <PUBCHEM_PHARMACOPHORE_FEATURES>  (1) 
6
1 2 acceptor
1 3 cation
1 3 donor
4 4 5 6 7 rings
6 14 15 16 17 18 19 rings
7 3 4 5 6 7 8 9 rings

>  <PUBCHEM_HEAVY_ATOM_COUNT>  (1) 
19

>  <PUBCHEM_ATOM_DEF_STEREO_COUNT>  (1) 
0

>  <PUBCHEM_ATOM_UDEF_STEREO_COUNT>  (1) 
2

>  <PUBCHEM_BOND_DEF_STEREO_COUNT>  (1) 
0

>  <PUBCHEM_BOND_UDEF_STEREO_COUNT>  (1) 
0

>  <PUBCHEM_ISOTOPIC_ATOM_COUNT>  (1) 
0

>  <PUBCHEM_COMPONENT_COUNT>  (1) 
1

>  <PUBCHEM_CACTVS_TAUTO_COUNT>  (1) 
2

>  <PUBCHEM_CONFORMER_ID>  (1) 
00006BE200000001

>  <PUBCHEM_MMFF94_ENERGY>  (1) 
48.9313

>  <PUBCHEM_FEATURE_SELFOVERLAP>  (1) 
34.775

>  <PUBCHEM_SHAPE_FINGERPRINT>  (1) 
10354089 29 17385446527029843452
10912923 1 17748824133256524034
12107183 9 17466491318354022769
12166972 35 12319739180798501170
12236239 1 17821726139376592251
12390115 104 18129390294009657201
12596602 18 17167582696001080433
12616971 3 16950553398582015146
12916748 109 18413109450496623953
13533116 47 15769503045141688454
13668630 136 14549023182031498284
13955234 65 15936402361024979272
14251764 18 18040435512602231323
14251764 75 15215303143067666526
14341114 176 14634870833709000182
14573314 32 17989211425510082444
15183329 4 18060144201862072074
15788980 27 17489868254094141021
17349148 13 12535632695231817618
17834072 33 17967249823106181272
17844677 252 16343991299006584432
19489759 90 18343019995547525073
200 152 14333413336959606290
20281389 69 17967810527425144917
20645477 56 18273494589599511535
20645477 70 16702031850897845414
21033648 29 16988552485793171240
220451 1 17530685419920386795
22061861 79 16630531717254355516
221357 26 16845574192809202352
2215653 11 17561366179491470292
2297311 6 18272941522392413429
23081809 10 17894907447151600955
23402539 116 18272081725932279573
23559900 14 17988922314144920624
239999 70 18131635591231676478
300161 21 17894908546610214774
3004659 81 18409169922184023044
34797466 226 18059581329292149004
3545911 37 18272092682204005855
5104073 3 18114459067057242840
542803 24 17894630361515194811
59682541 52 16271643369727660573
59755656 215 18202007590235279239
90127 26 18410019865993857520

>  <PUBCHEM_SHAPE_MULTIPOLES>  (1) 
372.89
16.64
1.34
1.06
5.56
0.11
0.08
-3.52
-0.2
1.06
0.01
-2.09
0.12
-0.26

>  <PUBCHEM_SHAPE_SELFOVERLAP>  (1) 
794.502

>  <PUBCHEM_SHAPE_VOLUME>  (1) 
211.2

>  <PUBCHEM_COORDINATE_TYPE>  (1) 
2
5
10

$$$$
