27622
     RDKit          3D

 11 10  0  0  0  0  0  0  0  0999 V2000
   -0.8783   -0.5462    0.1690 O   0  0  0  0  0  0  0  0  0  0  0  0
    1.8118    0.0454   -0.3242 O   0  0  0  0  0  0  0  0  0  0  0  0
    3.8584   -0.2978    0.6724 O   0  0  0  0  0  0  0  0  0  0  0  0
    3.3572    1.6881   -0.3726 N   0  0  0  0  0  0  0  0  0  0  0  0
   -3.1188    0.3337    0.4014 C   0  0  0  0  0  0  0  0  0  0  0  0
   -2.2238   -0.7211   -0.2550 C   0  0  0  0  0  0  0  0  0  0  0  0
   -2.6908    1.7496    0.0097 C   0  0  0  0  0  0  0  0  0  0  0  0
   -4.5808    0.0987    0.0282 C   0  0  0  0  0  0  0  0  0  0  0  0
   -0.0136   -1.4997   -0.4333 C   0  0  0  0  0  0  0  0  0  0  0  0
    1.4021   -1.2625    0.0562 C   0  0  0  0  0  0  0  0  0  0  0  0
    3.0766    0.4117    0.0481 C   0  0  0  0  0  0  0  0  0  0  0  0
  1  6  1  0
  1  9  1  0
  2 10  1  0
  2 11  1  0
  3 11  2  0
  4 11  1  0
  5  6  1  0
  5  7  1  0
  5  8  1  0
  9 10  1  0
M  END
>  <PUBCHEM_COMPOUND_CID>  (1) 
27622

>  <PUBCHEM_CONFORMER_RMSD>  (1) 
0.6

>  <PUBCHEM_CONFORMER_DIVERSEORDER>  (1) 
1
32
6
36
41
44
3
33
31
12
45
24
7
53
15
8
37
26
13
22
18
34
9
43
20
40
46
30
35
25
19
28
27
51
10
50
38
2
11
21
14
48
42
47
23
29
17
5
52
49
4
16
39

>  <PUBCHEM_MMFF94_PARTIAL_CHARGES>  (1) 
10
1 -0.56
10 0.28
11 0.78
2 -0.43
25 0.37
26 0.37
3 -0.57
4 -0.8
6 0.28
9 0.28

>  <PUBCHEM_EFFECTIVE_ROTOR_COUNT>  (1) 
6

>  <PUBCHEM_PHARMACOPHORE_FEATURES>  (1) 
4
1 1 acceptor
1 3 acceptor
1 4 donor
3 5 7 8 hydrophobe

>  <PUBCHEM_HEAVY_ATOM_COUNT>  (1) 
11

>  <PUBCHEM_ATOM_DEF_STEREO_COUNT>  (1) 
0

>  <PUBCHEM_ATOM_UDEF_STEREO_COUNT>  (1) 
0

>  <PUBCHEM_BOND_DEF_STEREO_COUNT>  (1) 
0

>  <PUBCHEM_BOND_UDEF_STEREO_COUNT>  (1) 
0

>  <PUBCHEM_ISOTOPIC_ATOM_COUNT>  (1) 
0

>  <PUBCHEM_COMPONENT_COUNT>  (1) 
1

>  <PUBCHEM_CACTVS_TAUTO_COUNT>  (1) 
2

>  <PUBCHEM_CONFORMER_ID>  (1) 
00006BE600000001

>  <PUBCHEM_MMFF94_ENERGY>  (1) 
14.2919

>  <PUBCHEM_FEATURE_SELFOVERLAP>  (1) 
20.297

>  <PUBCHEM_SHAPE_FINGERPRINT>  (1) 
10149128 111 18412547612834178584
12162725 195 18408604747015126969
12932764 1 16486677079475502847
14252887 29 12829489216843612032
14325111 11 18412265034056297039
14390081 3 18341052930422065895
14897335 6 18342736308293911535
15477762 27 10663816386561138346
15775835 57 18342741835842559109
170605 34 18410295787293199403
177051 138 11818996283466202635
17802600 8 18411693279546675433
18186145 218 17988374667038648966
19107657 47 17894903010265540425
20281407 28 8934998170172522079
20711983 171 18342458196529372718
21119208 17 12967130510298347809
21293036 1 16271923818122667579
21524375 3 18343018895524707478
21652331 79 18408886260784109085
22485316 2 9151172038881298635
22959321 54 18410857676452969721
8199 26 18120941856788169652

>  <PUBCHEM_SHAPE_MULTIPOLES>  (1) 
203.79
8.25
1.6
0.68
0.53
0.36
-0.01
2.8
-0.69
-0.25
0.18
-0.07
-0.02
-0.28

>  <PUBCHEM_SHAPE_SELFOVERLAP>  (1) 
375.022

>  <PUBCHEM_SHAPE_VOLUME>  (1) 
129.5

>  <PUBCHEM_COORDINATE_TYPE>  (1) 
2
5
10

$$$$
