27638
     RDKit          3D

 14 14  0  0  0  0  0  0  0  0999 V2000
   -4.7571   -0.4287    0.3003 F   0  0  0  0  0  0  0  0  0  0  0  0
    0.6186    0.3788   -0.7019 N   0  0  0  0  0  0  0  0  0  0  0  0
    2.7387    0.8087   -0.0490 N   0  0  0  0  0  0  0  0  0  0  0  0
    1.0714    0.7243    1.6325 N   0  0  0  0  0  0  0  0  0  0  0  0
    4.8401   -0.1330   -0.4192 N   0  0  0  0  0  0  0  0  0  0  0  0
    3.1542   -1.5476    0.1912 N   0  0  0  0  0  0  0  0  0  0  0  0
   -0.7477    0.1736   -0.4474 C   0  0  0  0  0  0  0  0  0  0  0  0
   -1.6211    1.2569   -0.4478 C   0  0  0  0  0  0  0  0  0  0  0  0
   -1.2184   -1.1120   -0.1964 C   0  0  0  0  0  0  0  0  0  0  0  0
   -2.9777    1.0531   -0.1949 C   0  0  0  0  0  0  0  0  0  0  0  0
   -2.5751   -1.3158    0.0566 C   0  0  0  0  0  0  0  0  0  0  0  0
   -3.4547   -0.2332    0.0573 C   0  0  0  0  0  0  0  0  0  0  0  0
    1.4164    0.6208    0.3011 C   0  0  0  0  0  0  0  0  0  0  0  0
    3.5124   -0.2460   -0.0823 C   0  0  0  0  0  0  0  0  0  0  0  0
  1 12  1  0
  2  7  1  0
  2 13  2  0
  3 13  1  0
  3 14  2  0
  4 13  1  0
  5 14  1  0
  6 14  1  0
  7  8  2  0
  7  9  1  0
  8 10  1  0
  9 11  2  0
 10 12  2  0
 11 12  1  0
M  END
>  <PUBCHEM_COMPOUND_CID>  (1) 
27638

>  <PUBCHEM_CONFORMER_RMSD>  (1) 
0.6

>  <PUBCHEM_CONFORMER_DIVERSEORDER>  (1) 
1
2
3

>  <PUBCHEM_MMFF94_PARTIAL_CHARGES>  (1) 
24
1 -0.19
10 -0.15
11 -0.15
12 0.19
13 0.71
14 0.55
15 0.15
16 0.15
17 0.15
18 0.15
19 0.4
2 -0.63
20 0.4
21 0.4
22 0.4
23 0.4
24 0.4
3 -0.66
4 -0.85
5 -0.85
6 -0.85
7 0.18
8 -0.15
9 -0.15

>  <PUBCHEM_EFFECTIVE_ROTOR_COUNT>  (1) 
2

>  <PUBCHEM_PHARMACOPHORE_FEATURES>  (1) 
6
1 4 donor
1 5 donor
1 6 donor
4 2 3 4 13 cation
4 3 5 6 14 cation
6 7 8 9 10 11 12 rings

>  <PUBCHEM_HEAVY_ATOM_COUNT>  (1) 
14

>  <PUBCHEM_ATOM_DEF_STEREO_COUNT>  (1) 
0

>  <PUBCHEM_ATOM_UDEF_STEREO_COUNT>  (1) 
0

>  <PUBCHEM_BOND_DEF_STEREO_COUNT>  (1) 
0

>  <PUBCHEM_BOND_UDEF_STEREO_COUNT>  (1) 
0

>  <PUBCHEM_ISOTOPIC_ATOM_COUNT>  (1) 
0

>  <PUBCHEM_COMPONENT_COUNT>  (1) 
1

>  <PUBCHEM_CACTVS_TAUTO_COUNT>  (1) 
5

>  <PUBCHEM_CONFORMER_ID>  (1) 
00006BF600000001

>  <PUBCHEM_MMFF94_ENERGY>  (1) 
44.5298

>  <PUBCHEM_FEATURE_SELFOVERLAP>  (1) 
30.547

>  <PUBCHEM_SHAPE_FINGERPRINT>  (1) 
10130415 120 17632577154097889856
10465860 250 18060413591291396344
11062470 55 9295289443318534821
12032990 46 18334579061887111295
12119455 92 17346880035947043045
12186901 62 18041275478844652981
124424 183 17846778503125436825
12932764 1 17917700340237947724
13581323 91 18407758135973008733
14144814 61 18409444765387908504
14325111 11 18408884022905382581
14993402 34 17167858681956507495
15653759 3 18342734130618606153
17804303 29 18341897411107541061
17834074 16 18410294700740326582
18186145 218 12463571768251925028
190213 19 17458344143239583069
19422 9 17822291236840093688
200 152 17203319023185239309
20281407 28 18412263951909011898
20645464 45 17988649597017697293
20645477 70 18339642240014119198
22485316 2 18409726266298011734
23175994 123 17489595558099421552
23402539 116 17989481923257266445
23463225 33 18335701624288009918
23559900 14 18339354279151332256
3286 77 17131542959837387689
42 15 18409169908998076999
474 4 16734121222208696204
7364860 26 18191589855191283780
77779 3 18408042909737849244

>  <PUBCHEM_SHAPE_MULTIPOLES>  (1) 
255.93
8.06
1.31
0.83
3.21
0.21
-0.23
1.43
0.16
-0.32
0
0.18
-0.14
0.2

>  <PUBCHEM_SHAPE_SELFOVERLAP>  (1) 
533.589

>  <PUBCHEM_SHAPE_VOLUME>  (1) 
145.2

>  <PUBCHEM_COORDINATE_TYPE>  (1) 
2
5
10

$$$$
