27632
     RDKit          3D

 19 20  0  0  0  0  0  0  0  0999 V2000
   -6.2248   -1.6826   -1.0332 Br  0  0  0  0  0  0  0  0  0  0  0  0
    4.3932    0.9064   -2.2300 O   0  0  0  0  0  0  0  0  0  0  0  0
    2.4917   -0.8785    0.7656 N   0  0  0  0  0  0  0  0  0  0  0  0
   -1.3243    1.3632    0.9153 N   0  0  0  0  0  0  0  0  0  0  0  0
    0.4705    0.1160   -0.0101 N   0  0  0  0  0  0  0  0  0  0  0  0
    2.4062    0.5229   -1.1291 N   0  0  0  0  0  0  0  0  0  0  0  0
    0.7901    2.0354    1.3894 N   0  0  0  0  0  0  0  0  0  0  0  0
    3.8446   -1.0820    0.6498 C   0  0  0  0  0  0  0  0  0  0  0  0
   -2.4601    0.6572    0.4642 C   0  0  0  0  0  0  0  0  0  0  0  0
    1.8222   -0.0815   -0.1316 C   0  0  0  0  0  0  0  0  0  0  0  0
    0.0253    1.1089    0.7039 C   0  0  0  0  0  0  0  0  0  0  0  0
    4.5198   -0.4952   -0.3501 C   0  0  0  0  0  0  0  0  0  0  0  0
   -3.6605    1.3334    0.2496 C   0  0  0  0  0  0  0  0  0  0  0  0
   -2.3807   -0.7156    0.2338 C   0  0  0  0  0  0  0  0  0  0  0  0
    4.5066   -1.9631    1.6623 C   0  0  0  0  0  0  0  0  0  0  0  0
   -4.7833    0.6357   -0.1957 C   0  0  0  0  0  0  0  0  0  0  0  0
   -3.5033   -1.4133   -0.2118 C   0  0  0  0  0  0  0  0  0  0  0  0
    3.7716    0.3702   -1.3160 C   0  0  0  0  0  0  0  0  0  0  0  0
   -4.7047   -0.7376   -0.4264 C   0  0  0  0  0  0  0  0  0  0  0  0
  1 19  1  0
  2 18  2  0
  3  8  1  0
  3 10  1  0
  4  9  1  0
  4 11  1  0
  5 10  1  0
  5 11  2  0
  6 10  2  0
  6 18  1  0
  7 11  1  0
  8 12  2  0
  8 15  1  0
  9 13  2  0
  9 14  1  0
 12 18  1  0
 13 16  1  0
 14 17  2  0
 16 19  2  0
 17 19  1  0
M  END
>  <PUBCHEM_COMPOUND_CID>  (1) 
27632

>  <PUBCHEM_CONFORMER_RMSD>  (1) 
0.6

>  <PUBCHEM_CONFORMER_DIVERSEORDER>  (1) 
1
19
30
29
21
17
23
26
20
22
16
14
18
25
24
12
2
10
5
9
3
6
15
8
28
27
7
11
13
4

>  <PUBCHEM_MMFF94_PARTIAL_CHARGES>  (1) 
28
1 -0.11
10 0.71
11 0.55
12 -0.14
13 -0.15
14 -0.15
15 0.14
16 -0.15
17 -0.15
18 0.77
19 0.11
2 -0.57
20 0.4
21 0.4
22 0.15
23 0.15
24 0.15
28 0.15
29 0.15
3 -0.55
30 0.4
31 0.4
4 -0.55
5 -0.66
6 -0.66
7 -0.85
8 -0.04
9 0.1

>  <PUBCHEM_EFFECTIVE_ROTOR_COUNT>  (1) 
3

>  <PUBCHEM_PHARMACOPHORE_FEATURES>  (1) 
9
1 1 hydrophobe
1 2 acceptor
1 3 donor
1 4 donor
1 6 donor
1 7 donor
4 4 5 7 11 cation
6 3 6 8 10 12 18 rings
6 9 13 14 16 17 19 rings

>  <PUBCHEM_HEAVY_ATOM_COUNT>  (1) 
19

>  <PUBCHEM_ATOM_DEF_STEREO_COUNT>  (1) 
0

>  <PUBCHEM_ATOM_UDEF_STEREO_COUNT>  (1) 
0

>  <PUBCHEM_BOND_DEF_STEREO_COUNT>  (1) 
0

>  <PUBCHEM_BOND_UDEF_STEREO_COUNT>  (1) 
1

>  <PUBCHEM_ISOTOPIC_ATOM_COUNT>  (1) 
0

>  <PUBCHEM_COMPONENT_COUNT>  (1) 
1

>  <PUBCHEM_CACTVS_TAUTO_COUNT>  (1) 
15

>  <PUBCHEM_CONFORMER_ID>  (1) 
00006BF000000001

>  <PUBCHEM_MMFF94_ENERGY>  (1) 
63.3772

>  <PUBCHEM_FEATURE_SELFOVERLAP>  (1) 
45.768

>  <PUBCHEM_SHAPE_FINGERPRINT>  (1) 
10378564 45 15069167996779675690
10912923 1 18335989692065971529
11543360 7 17603872233911657321
11552529 35 11958854179858052349
12236239 1 18335703819501588182
12553582 1 18130239197993962817
12616971 3 18114188475548661225
12730499 353 14562529549039960833
13167823 11 18186523176481462802
13675066 3 15769775741083919865
13760787 5 17967538952052269089
14251752 14 18188199915446419381
14252887 29 16128655228393698480
14341114 176 13398633865677822643
14386348 63 17203892946210389527
15880784 105 14189570832505407781
17870717 6 17988374702004880229
18186145 218 14923952236350912464
18222031 100 17561085821169326660
18681886 176 18343305877577387022
193927 3 17632020844575254111
200 152 18041000605158855400
20028762 73 17059486478391747631
20281475 54 18343024350354440353
20369508 70 18271801362756252912
20374829 77 18272646857924291733
20403669 9 18060419153400859559
20511986 3 18188756306299055130
20612939 158 17458064859092007678
20645477 70 17917428795463274977
20871999 31 18333734632968240037
21033648 29 15482380950888230123
21065201 7 17416976027772952160
21728266 224 18339913818932044531
23402539 116 18186798037704390341
23522609 53 18194430907923842177
23557571 272 17345195506713524920
23559900 14 18200019768350451969
29717793 49 18187362099595522455
3004659 81 18334294228241161618
312425 54 15123514739823633775
314173 85 17275108314753099289
3411729 13 17701524320220496736
351380 3 18273214222867126039
4921388 177 16443357515458095131
495365 180 15285358436137022832
5104073 3 17917148412056832043
5281201 14 16588304951878396614
559249 180 18264479608059488459
573450 72 18339077086436052241
59682541 52 16660913405489763131
633830 44 15791734087559563117
67856867 119 18260828224485743672
7164475 11 18042403530757262948
7471813 234 18040996186128391108
8863177 126 18123192574692342971
960060 61 18187083970345256420

>  <PUBCHEM_SHAPE_MULTIPOLES>  (1) 
366.18
13.49
1.82
1.41
6.32
0.03
-0.4
6.59
-3.44
0.68
0.55
-2.16
-0.06
-2.14

>  <PUBCHEM_SHAPE_SELFOVERLAP>  (1) 
763.044

>  <PUBCHEM_SHAPE_VOLUME>  (1) 
211.9

>  <PUBCHEM_COORDINATE_TYPE>  (1) 
2
5
10

$$$$
