27645
     RDKit          3D

 27 30  0  0  1  0  0  0  0  0999 V2000
    1.6178   -0.0039   -1.7839 O   0  0  0  0  0  0  0  0  0  0  0  0
   -1.3239    2.4875    1.0196 O   0  0  0  0  0  0  0  0  0  0  0  0
   -1.1960   -3.6073    0.1763 O   0  0  0  0  0  0  0  0  0  0  0  0
   -3.0425    1.3645   -0.5263 O   0  0  0  0  0  0  0  0  0  0  0  0
   -0.3915    4.2339   -0.1553 O   0  0  0  0  0  0  0  0  0  0  0  0
    3.5340   -0.6792    0.3343 N   0  0  0  0  0  0  0  0  0  0  0  0
    0.6203   -1.3508   -0.0816 N   0  0  0  0  0  0  0  0  0  0  0  0
   -4.9085   -0.5820   -0.2459 N   0  0  0  0  0  0  0  0  0  0  0  0
   -2.5888    4.2950    0.5194 N   0  0  0  0  0  0  0  0  0  0  0  0
    2.3364    0.1453    0.4997 C   0  0  0  0  0  0  0  0  0  0  0  0
    2.5136   -1.1264    1.2653 C   0  0  0  0  0  0  0  0  0  0  0  0
    1.1709   -0.0172   -0.4285 C   0  0  0  0  0  0  0  0  0  0  0  0
    1.4627   -2.1085    0.8386 C   0  0  0  0  0  0  0  0  0  0  0  0
   -0.0722    0.9258   -0.2848 C   0  0  0  0  0  0  0  0  0  0  0  0
    4.6606   -0.1000    1.0474 C   0  0  0  0  0  0  0  0  0  0  0  0
   -0.7545   -1.3145   -0.1028 C   0  0  0  0  0  0  0  0  0  0  0  0
   -1.2118   -0.0736   -0.2564 C   0  0  0  0  0  0  0  0  0  0  0  0
   -0.0938    1.7889    0.9750 C   0  0  0  0  0  0  0  0  0  0  0  0
    5.7433    0.3354    0.0634 C   0  0  0  0  0  0  0  0  0  0  0  0
   -1.6390   -2.4723    0.0397 C   0  0  0  0  0  0  0  0  0  0  0  0
   -2.6430    0.2195   -0.3384 C   0  0  0  0  0  0  0  0  0  0  0  0
    1.9903    1.3034   -2.1913 C   0  0  0  0  0  0  0  0  0  0  0  0
   -3.1130   -2.1902   -0.0043 C   0  0  0  0  0  0  0  0  0  0  0  0
   -3.5890   -0.9383   -0.1840 C   0  0  0  0  0  0  0  0  0  0  0  0
    6.2406   -0.8373   -0.7677 C   0  0  0  0  0  0  0  0  0  0  0  0
   -3.9745   -3.4140    0.1614 C   0  0  0  0  0  0  0  0  0  0  0  0
   -1.3484    3.7166    0.4113 C   0  0  0  0  0  0  0  0  0  0  0  0
  1 12  1  0
  1 22  1  0
  2 18  1  0
  2 27  1  0
  3 20  2  0
  4 21  2  0
  5 27  2  0
  6 10  1  0
  6 11  1  0
  6 15  1  0
  7 12  1  0
  7 13  1  0
  7 16  1  0
  8 24  1  0
  9 27  1  0
 10 11  1  0
 10 12  1  0
 11 13  1  0
 12 14  1  0
 14 17  1  0
 14 18  1  0
 15 19  1  0
 16 17  2  0
 16 20  1  0
 17 21  1  0
 19 25  1  0
 20 23  1  0
 21 24  1  0
 23 24  2  0
 23 26  1  0
M  END
>  <PUBCHEM_COMPOUND_CID>  (1) 
27645

>  <PUBCHEM_CONFORMER_RMSD>  (1) 
0.8

>  <PUBCHEM_CONFORMER_DIVERSEORDER>  (1) 
1
6
28
3
21
8
7
16
27
20
4
11
24
26
23
19
5
18
2
25
15
9
10
17
13
14
12
22

>  <PUBCHEM_MMFF94_PARTIAL_CHARGES>  (1) 
31
1 -0.56
10 -0.04
11 -0.04
12 0.74
13 0.46
14 0.14
15 0.27
16 0.11
17 -0.12
18 0.28
2 -0.43
20 0.54
21 0.54
22 0.28
23 -0.12
24 0.11
26 0.14
27 0.78
28 0.1
29 0.1
3 -0.57
4 -0.57
48 0.4
49 0.4
5 -0.57
50 0.37
51 0.37
6 -0.59
7 -0.84
8 -0.9
9 -0.8

>  <PUBCHEM_EFFECTIVE_ROTOR_COUNT>  (1) 
6.6

>  <PUBCHEM_PHARMACOPHORE_FEATURES>  (1) 
13
1 1 acceptor
1 25 hydrophobe
1 3 acceptor
1 4 acceptor
1 5 acceptor
1 6 cation
1 7 cation
1 8 cation
1 8 donor
1 9 donor
5 7 12 14 16 17 rings
6 16 17 20 21 23 24 rings
6 6 7 10 11 12 13 rings

>  <PUBCHEM_HEAVY_ATOM_COUNT>  (1) 
27

>  <PUBCHEM_ATOM_DEF_STEREO_COUNT>  (1) 
2

>  <PUBCHEM_ATOM_UDEF_STEREO_COUNT>  (1) 
2

>  <PUBCHEM_BOND_DEF_STEREO_COUNT>  (1) 
0

>  <PUBCHEM_BOND_UDEF_STEREO_COUNT>  (1) 
0

>  <PUBCHEM_ISOTOPIC_ATOM_COUNT>  (1) 
0

>  <PUBCHEM_COMPONENT_COUNT>  (1) 
1

>  <PUBCHEM_CACTVS_TAUTO_COUNT>  (1) 
42

>  <PUBCHEM_CONFORMER_ID>  (1) 
00006BFD00000001

>  <PUBCHEM_MMFF94_ENERGY>  (1) 
90.9964

>  <PUBCHEM_FEATURE_SELFOVERLAP>  (1) 
66.139

>  <PUBCHEM_SHAPE_FINGERPRINT>  (1) 
10319926 262 18198037228969360130
10411042 1 18195525015839032051
1100329 8 18337109085429455811
11578080 2 17390755080869609957
12107183 9 17687737243551534490
12236239 1 17895190043536989878
12390115 104 18056767533197939808
12553582 1 18339063986865206419
12788726 201 18334292041675085739
12954195 1 18270971129199796506
13009979 54 18188218696473293366
13140716 1 18337672047983098387
138480 1 15890245570901059529
13965767 371 17539129450357988564
14081887 123 18268126756547436410
14787075 74 18189330350369306058
14790565 3 17980201885398588064
14955137 171 18265341796357574602
15238133 3 18409456903456045527
15420108 30 17901672566457458892
16945 1 18339365171156356555
20510252 161 18270393889225400585
20600515 1 18130238171338568801
20775438 99 11504570537184600238
21267235 1 18189900983919765995
2297311 6 18341620347342234030
23402539 116 18201993356776970063
23419403 2 16674937899755889750
23557571 272 18273218573257241316
23558518 356 18263372382248598634
23559900 14 18340202016281665856
283562 15 18341045212465964539
3178227 256 18336555997465056755
335352 9 18410289255412885575
350125 39 18187359965471484551
392239 28 18337942510964349632
469060 322 18339660957618570393
484989 97 18261943164184439847
59755656 215 18411417284811422551
7226269 152 18409728469389439719
81228 2 18129682815193496297

>  <PUBCHEM_SHAPE_MULTIPOLES>  (1) 
506.38
9.07
4.44
1.17
10.48
4.25
-0.39
-4.47
-0.5
-5.41
0.95
1
0.31
-0.56

>  <PUBCHEM_SHAPE_SELFOVERLAP>  (1) 
1096.051

>  <PUBCHEM_SHAPE_VOLUME>  (1) 
280.3

>  <PUBCHEM_COORDINATE_TYPE>  (1) 
2
5
10

$$$$
