27641
     RDKit          3D

 13 13  0  0  0  0  0  0  0  0999 V2000
   -1.6300    2.4995   -0.2475 Cl  0  0  0  0  0  0  0  0  0  0  0  0
   -1.0207   -2.8584   -0.1993 Cl  0  0  0  0  0  0  0  0  0  0  0  0
    2.1077   -2.5247    0.0925 Cl  0  0  0  0  0  0  0  0  0  0  0  0
    1.4927    2.8818    0.0421 Cl  0  0  0  0  0  0  0  0  0  0  0  0
    3.3594    0.3573    0.2145 Cl  0  0  0  0  0  0  0  0  0  0  0  0
   -3.2273   -0.0382    0.9008 O   0  0  0  0  0  0  0  0  0  0  0  0
   -1.1252   -0.1564   -0.2055 C   0  0  0  0  0  0  0  0  0  0  0  0
   -0.5717    1.1228   -0.1521 C   0  0  0  0  0  0  0  0  0  0  0  0
   -0.2990   -1.2777   -0.1299 C   0  0  0  0  0  0  0  0  0  0  0  0
   -2.6097   -0.3262   -0.3442 C   0  0  0  0  0  0  0  0  0  0  0  0
    1.0810   -1.1199   -0.0008 C   0  0  0  0  0  0  0  0  0  0  0  0
    0.8081    1.2807   -0.0231 C   0  0  0  0  0  0  0  0  0  0  0  0
    1.6346    0.1594    0.0526 C   0  0  0  0  0  0  0  0  0  0  0  0
  1  8  1  0
  2  9  1  0
  3 11  1  0
  4 12  1  0
  5 13  1  0
  6 10  1  0
  7  8  2  0
  7  9  1  0
  7 10  1  0
  8 12  1  0
  9 11  2  0
 11 13  1  0
 12 13  2  0
M  END
>  <PUBCHEM_COMPOUND_CID>  (1) 
27641

>  <PUBCHEM_CONFORMER_RMSD>  (1) 
0.4

>  <PUBCHEM_CONFORMER_DIVERSEORDER>  (1) 
1
2

>  <PUBCHEM_MMFF94_PARTIAL_CHARGES>  (1) 
14
1 -0.18
10 0.42
11 0.18
12 0.18
13 0.18
16 0.4
2 -0.18
3 -0.18
4 -0.18
5 -0.18
6 -0.68
7 -0.14
8 0.18
9 0.18

>  <PUBCHEM_EFFECTIVE_ROTOR_COUNT>  (1) 
1

>  <PUBCHEM_PHARMACOPHORE_FEATURES>  (1) 
3
1 6 acceptor
1 6 donor
6 7 8 9 11 12 13 rings

>  <PUBCHEM_HEAVY_ATOM_COUNT>  (1) 
13

>  <PUBCHEM_ATOM_DEF_STEREO_COUNT>  (1) 
0

>  <PUBCHEM_ATOM_UDEF_STEREO_COUNT>  (1) 
0

>  <PUBCHEM_BOND_DEF_STEREO_COUNT>  (1) 
0

>  <PUBCHEM_BOND_UDEF_STEREO_COUNT>  (1) 
0

>  <PUBCHEM_ISOTOPIC_ATOM_COUNT>  (1) 
0

>  <PUBCHEM_COMPONENT_COUNT>  (1) 
1

>  <PUBCHEM_CACTVS_TAUTO_COUNT>  (1) 
1

>  <PUBCHEM_CONFORMER_ID>  (1) 
00006BF900000001

>  <PUBCHEM_MMFF94_ENERGY>  (1) 
36.5497

>  <PUBCHEM_FEATURE_SELFOVERLAP>  (1) 
15.223

>  <PUBCHEM_SHAPE_FINGERPRINT>  (1) 
10967382 1 18410853286916914604
11471102 22 18263104213370227987
12423570 1 9096404243820774838
12524768 44 18335980986135412583
13140716 1 18194399128763688048
16945 1 18410568517795259468
193761 8 17834112331057895838
20588541 1 18410858784628235614
21501502 16 18194398888071517276
2334 1 17761771063046381964
23526114 1 18194680371785771214
23552423 10 18046620389508609022
23559900 14 17622441646193850686
241688 4 18050284769563733720
2748010 2 18194677064671509340
5255222 1 18410849997051191068
528886 8 18339636870951064434
66348 1 17762896567700182308

>  <PUBCHEM_SHAPE_MULTIPOLES>  (1) 
271.01
3.96
3.5
0.7
0.05
0.02
0.03
0.02
0.52
0.48
-0.18
-0.16
0
0.03

>  <PUBCHEM_SHAPE_SELFOVERLAP>  (1) 
523.117

>  <PUBCHEM_SHAPE_VOLUME>  (1) 
169.5

>  <PUBCHEM_COORDINATE_TYPE>  (1) 
2
5
10

$$$$
