27648
     RDKit          3D

 20 20  0  0  1  0  0  0  0  0999 V2000
    1.2188   -1.9928    2.3561 I   0  0  0  0  0  0  0  0  0  0  0  0
   -0.4161    1.2572   -2.5702 I   0  0  0  0  0  0  0  0  0  0  0  0
    5.0332    2.0006   -0.2856 I   0  0  0  0  0  0  0  0  0  0  0  0
   -3.9494    2.4844    0.5789 O   0  0  0  0  0  0  0  0  0  0  0  0
   -1.7642   -2.7726   -0.8337 O   0  0  0  0  0  0  0  0  0  0  0  0
   -4.0073    0.6361    1.8938 O   0  0  0  0  0  0  0  0  0  0  0  0
   -0.5672   -0.8550   -0.0836 N   0  0  0  0  0  0  0  0  0  0  0  0
    3.8825   -0.2490    1.7901 N   0  0  0  0  0  0  0  0  0  0  0  0
   -1.5845   -0.2811    0.7539 C   0  0  0  0  0  0  0  0  0  0  0  0
   -2.4867    0.6887   -0.0104 C   0  0  0  0  0  0  0  0  0  0  0  0
    0.7446   -0.2042   -0.1068 C   0  0  0  0  0  0  0  0  0  0  0  0
   -3.1492    0.0218   -1.2175 C   0  0  0  0  0  0  0  0  0  0  0  0
   -0.7520   -2.0677   -0.8130 C   0  0  0  0  0  0  0  0  0  0  0  0
   -3.5461    1.2359    0.9315 C   0  0  0  0  0  0  0  0  0  0  0  0
    1.6515   -0.5526    0.8511 C   0  0  0  0  0  0  0  0  0  0  0  0
    0.9731    0.7123   -1.0922 C   0  0  0  0  0  0  0  0  0  0  0  0
    2.8988    0.0710    0.8214 C   0  0  0  0  0  0  0  0  0  0  0  0
    2.2204    1.3358   -1.1219 C   0  0  0  0  0  0  0  0  0  0  0  0
    0.4165   -2.4841   -1.6767 C   0  0  0  0  0  0  0  0  0  0  0  0
    3.1833    1.0153   -0.1651 C   0  0  0  0  0  0  0  0  0  0  0  0
  1 15  1  0
  2 16  1  0
  3 20  1  0
  4 14  1  0
  5 13  2  0
  6 14  2  0
  7  9  1  0
  7 11  1  0
  7 13  1  0
  8 17  1  0
  9 10  1  0
 10 12  1  0
 10 14  1  0
 11 15  2  0
 11 16  1  0
 13 19  1  0
 15 17  1  0
 16 18  2  0
 17 20  2  0
 18 20  1  0
M  END
>  <PUBCHEM_COMPOUND_CID>  (1) 
27648

>  <PUBCHEM_CONFORMER_RMSD>  (1) 
0.8

>  <PUBCHEM_CONFORMER_DIVERSEORDER>  (1) 
2
8
25
4
30
26
15
29
28
6
32
19
23
5
9
17
31
22
16
14
3
13
27
7
20
18
12
10
24
1
11
21

>  <PUBCHEM_MMFF94_PARTIAL_CHARGES>  (1) 
23
1 -0.08
10 0.06
11 0.12
13 0.57
14 0.66
15 0.08
16 0.08
17 0.1
18 -0.15
19 0.06
2 -0.08
20 0.08
27 0.15
3 -0.08
31 0.4
32 0.4
33 0.5
4 -0.65
5 -0.57
6 -0.57
7 -0.48
8 -0.9
9 0.3

>  <PUBCHEM_EFFECTIVE_ROTOR_COUNT>  (1) 
5

>  <PUBCHEM_PHARMACOPHORE_FEATURES>  (1) 
11
1 1 hydrophobe
1 12 hydrophobe
1 2 hydrophobe
1 3 hydrophobe
1 4 acceptor
1 5 acceptor
1 6 acceptor
1 8 cation
1 8 donor
3 4 6 14 anion
6 11 15 16 17 18 20 rings

>  <PUBCHEM_HEAVY_ATOM_COUNT>  (1) 
20

>  <PUBCHEM_ATOM_DEF_STEREO_COUNT>  (1) 
0

>  <PUBCHEM_ATOM_UDEF_STEREO_COUNT>  (1) 
1

>  <PUBCHEM_BOND_DEF_STEREO_COUNT>  (1) 
0

>  <PUBCHEM_BOND_UDEF_STEREO_COUNT>  (1) 
0

>  <PUBCHEM_ISOTOPIC_ATOM_COUNT>  (1) 
0

>  <PUBCHEM_COMPONENT_COUNT>  (1) 
1

>  <PUBCHEM_CACTVS_TAUTO_COUNT>  (1) 
1

>  <PUBCHEM_CONFORMER_ID>  (1) 
00006C0000000002

>  <PUBCHEM_MMFF94_ENERGY>  (1) 
102.5016

>  <PUBCHEM_FEATURE_SELFOVERLAP>  (1) 
55.879

>  <PUBCHEM_SHAPE_FINGERPRINT>  (1) 
10382601 240 18114750317463758568
11640471 11 18410567396745569721
12173636 292 18059000821760101244
12236239 1 18262231247971106358
12363563 72 11602829012001350529
12500047 106 17917151701679857822
12633257 1 15864366782150997817
12788726 201 17758976091440695446
12892183 10 17894920602673618473
13140716 1 17676487263486642026
13464514 151 16700916906756170610
13583140 156 17603584170740107049
13965767 371 18265894649053580665
14223421 5 17096637708698118296
14251757 17 13398331517059950460
15209294 21 18262796393233499816
15534591 1 18337114587166647458
16945 1 17822567205526273662
18186145 218 13830132801540965013
19784866 170 17240480295458413420
21524375 3 18335991951271471245
21756936 100 17898307232142759996
22149856 69 18054820320840800969
23184049 59 18261108522007990220
23382010 3 12966830326402229125
23419403 2 17616527359402623254
23493267 7 17632021956855687250
23557571 272 17416699118161880172
23558518 356 17685506741837182204
23559900 14 17560533850170458380
23598291 2 18334844048495311882
238 59 12822425932698959309
298252 57 18271535276932187410
6992083 37 18261384585378714351
77492 1 18262509420334250630

>  <PUBCHEM_SHAPE_MULTIPOLES>  (1) 
419.83
7.4
2.88
2.18
2.81
0.84
0.76
-3.99
-4.92
0.94
0.16
-1.96
0.42
-1.01

>  <PUBCHEM_SHAPE_SELFOVERLAP>  (1) 
806.45

>  <PUBCHEM_SHAPE_VOLUME>  (1) 
264.8

>  <PUBCHEM_COORDINATE_TYPE>  (1) 
2
5
10

$$$$
