27642
     RDKit          3D

  9  8  0  0  0  0  0  0  0  0999 V2000
   -0.2725    0.1423    0.0073 O   0  0  0  0  0  0  0  0  0  0  0  0
    3.3179   -0.4210    0.0194 O   0  0  0  0  0  0  0  0  0  0  0  0
   -3.7635   -0.6587   -0.0295 O   0  0  0  0  0  0  0  0  0  0  0  0
   -2.7073    1.3588    0.0140 O   0  0  0  0  0  0  0  0  0  0  0  0
    0.9317   -0.6146    0.0166 C   0  0  0  0  0  0  0  0  0  0  0  0
    2.1136    0.3354   -0.0104 C   0  0  0  0  0  0  0  0  0  0  0  0
   -1.4168   -0.6999    0.0094 C   0  0  0  0  0  0  0  0  0  0  0  0
    4.4620    0.4201   -0.0262 C   0  0  0  0  0  0  0  0  0  0  0  0
   -2.6653    0.1377   -0.0005 C   0  0  0  0  0  0  0  0  0  0  0  0
  1  5  1  0
  1  7  1  0
  2  6  1  0
  2  8  1  0
  3  9  1  0
  4  9  2  0
  5  6  1  0
  7  9  1  0
M  END
>  <PUBCHEM_COMPOUND_CID>  (1) 
27642

>  <PUBCHEM_CONFORMER_RMSD>  (1) 
0.6

>  <PUBCHEM_CONFORMER_DIVERSEORDER>  (1) 
2
51
42
15
21
4
49
12
24
3
47
17
44
8
6
41
31
26
1
36
28
16
39
52
13
45
33
32
40
27
48
46
37
7
14
10
23
18
54
53
9
25
5
35
43
22
30
34
19
20
50
38
11
29

>  <PUBCHEM_MMFF94_PARTIAL_CHARGES>  (1) 
10
1 -0.56
19 0.5
2 -0.56
3 -0.65
4 -0.57
5 0.28
6 0.28
7 0.34
8 0.28
9 0.66

>  <PUBCHEM_EFFECTIVE_ROTOR_COUNT>  (1) 
5

>  <PUBCHEM_PHARMACOPHORE_FEATURES>  (1) 
5
1 1 acceptor
1 2 acceptor
1 3 acceptor
1 4 acceptor
3 3 4 9 anion

>  <PUBCHEM_HEAVY_ATOM_COUNT>  (1) 
9

>  <PUBCHEM_ATOM_DEF_STEREO_COUNT>  (1) 
0

>  <PUBCHEM_ATOM_UDEF_STEREO_COUNT>  (1) 
0

>  <PUBCHEM_BOND_DEF_STEREO_COUNT>  (1) 
0

>  <PUBCHEM_BOND_UDEF_STEREO_COUNT>  (1) 
0

>  <PUBCHEM_ISOTOPIC_ATOM_COUNT>  (1) 
0

>  <PUBCHEM_COMPONENT_COUNT>  (1) 
1

>  <PUBCHEM_CACTVS_TAUTO_COUNT>  (1) 
1

>  <PUBCHEM_CONFORMER_ID>  (1) 
00006BFA00000002

>  <PUBCHEM_MMFF94_ENERGY>  (1) 
12.8767

>  <PUBCHEM_FEATURE_SELFOVERLAP>  (1) 
25.436

>  <PUBCHEM_SHAPE_FINGERPRINT>  (1) 
11062470 55 18272370880120624074
12932764 1 17203032028563785591
14325111 11 18410575063404663170
14390081 3 18412824668447810265
190213 19 17312823779551368658
20719005 15 18410575098028087170
20828058 44 8358258133726596436
21293036 1 17489587874465959418
22485316 2 9367348115688653188
23402539 116 18411692210526879079

>  <PUBCHEM_SHAPE_MULTIPOLES>  (1) 
161.74
7.89
0.94
0.57
3.94
0.16
0
0.78
-0.07
-0.49
0
0.04
-0.01
-0.02

>  <PUBCHEM_SHAPE_SELFOVERLAP>  (1) 
293.764

>  <PUBCHEM_SHAPE_VOLUME>  (1) 
103.9

>  <PUBCHEM_COORDINATE_TYPE>  (1) 
2
5
10

$$$$
