27646
     RDKit          3D

 28 31  0  0  1  0  0  0  0  0999 V2000
    1.0268   -1.5798   -1.6528 O   0  0  0  0  0  0  0  0  0  0  0  0
   -0.1558    2.0072    0.4048 O   0  0  0  0  0  0  0  0  0  0  0  0
   -2.4221   -2.3138    1.8560 O   0  0  0  0  0  0  0  0  0  0  0  0
   -3.1701    1.1178   -2.1795 O   0  0  0  0  0  0  0  0  0  0  0  0
    0.1964    4.2745    0.2181 O   0  0  0  0  0  0  0  0  0  0  0  0
    2.8339   -0.9972    0.5859 N   0  0  0  0  0  0  0  0  0  0  0  0
   -0.1704   -1.2124    0.3814 N   0  0  0  0  0  0  0  0  0  0  0  0
   -5.4016    0.2638   -0.8991 N   0  0  0  0  0  0  0  0  0  0  0  0
   -0.0066    3.2693    2.2761 N   0  0  0  0  0  0  0  0  0  0  0  0
    1.8517   -0.0715    0.0202 C   0  0  0  0  0  0  0  0  0  0  0  0
    1.7786   -0.5002    1.4505 C   0  0  0  0  0  0  0  0  0  0  0  0
    0.6426   -0.5939   -0.6949 C   0  0  0  0  0  0  0  0  0  0  0  0
    0.5232   -1.2936    1.6631 C   0  0  0  0  0  0  0  0  0  0  0  0
   -0.3589    0.4105   -1.3607 C   0  0  0  0  0  0  0  0  0  0  0  0
    4.0868   -0.3134    0.8605 C   0  0  0  0  0  0  0  0  0  0  0  0
   -1.5042   -0.9433    0.1799 C   0  0  0  0  0  0  0  0  0  0  0  0
   -1.6865   -0.0727   -0.8106 C   0  0  0  0  0  0  0  0  0  0  0  0
   -0.1420    1.8800   -1.0048 C   0  0  0  0  0  0  0  0  0  0  0  0
    5.1830   -0.8175   -0.0767 C   0  0  0  0  0  0  0  0  0  0  0  0
   -2.6129   -1.5108    0.9493 C   0  0  0  0  0  0  0  0  0  0  0  0
   -3.0219    0.3499   -1.2340 C   0  0  0  0  0  0  0  0  0  0  0  0
    1.6578   -0.9879   -2.7775 C   0  0  0  0  0  0  0  0  0  0  0  0
   -3.9908   -1.0626    0.5562 C   0  0  0  0  0  0  0  0  0  0  0  0
    6.5059   -0.0952    0.1811 C   0  0  0  0  0  0  0  0  0  0  0  0
   -4.1901   -0.1981   -0.4631 C   0  0  0  0  0  0  0  0  0  0  0  0
   -5.0904   -1.6644    1.3908 C   0  0  0  0  0  0  0  0  0  0  0  0
    7.6110   -0.6163   -0.7237 C   0  0  0  0  0  0  0  0  0  0  0  0
    0.0264    3.2718    0.9035 C   0  0  0  0  0  0  0  0  0  0  0  0
  1 12  1  0
  1 22  1  0
  2 18  1  0
  2 28  1  0
  3 20  2  0
  4 21  2  0
  5 28  2  0
  6 10  1  0
  6 11  1  0
  6 15  1  0
  7 12  1  0
  7 13  1  0
  7 16  1  0
  8 25  1  0
  9 28  1  0
 10 11  1  0
 10 12  1  0
 11 13  1  0
 12 14  1  0
 14 17  1  0
 14 18  1  0
 15 19  1  0
 16 17  2  0
 16 20  1  0
 17 21  1  0
 19 24  1  0
 20 23  1  0
 21 25  1  0
 23 25  2  0
 23 26  1  0
 24 27  1  0
M  END
>  <PUBCHEM_COMPOUND_CID>  (1) 
27646

>  <PUBCHEM_CONFORMER_RMSD>  (1) 
0.8

>  <PUBCHEM_CONFORMER_DIVERSEORDER>  (1) 
1
10
38
19
35
12
40
20
25
6
8
17
13
9
39
18
34
36
14
16
15
23
30
5
28
32
2
11
31
27
4
21
29
7
26
37
24
3
33
22

>  <PUBCHEM_MMFF94_PARTIAL_CHARGES>  (1) 
31
1 -0.56
10 -0.04
11 -0.04
12 0.74
13 0.46
14 0.14
15 0.27
16 0.11
17 -0.12
18 0.28
2 -0.43
20 0.54
21 0.54
22 0.28
23 -0.12
25 0.11
26 0.14
28 0.78
29 0.1
3 -0.57
30 0.1
4 -0.57
5 -0.57
51 0.4
52 0.4
53 0.37
54 0.37
6 -0.59
7 -0.84
8 -0.9
9 -0.8

>  <PUBCHEM_EFFECTIVE_ROTOR_COUNT>  (1) 
7.6

>  <PUBCHEM_PHARMACOPHORE_FEATURES>  (1) 
13
1 1 acceptor
1 27 hydrophobe
1 3 acceptor
1 4 acceptor
1 5 acceptor
1 6 cation
1 7 cation
1 8 cation
1 8 donor
1 9 donor
5 7 12 14 16 17 rings
6 16 17 20 21 23 25 rings
6 6 7 10 11 12 13 rings

>  <PUBCHEM_HEAVY_ATOM_COUNT>  (1) 
28

>  <PUBCHEM_ATOM_DEF_STEREO_COUNT>  (1) 
2

>  <PUBCHEM_ATOM_UDEF_STEREO_COUNT>  (1) 
2

>  <PUBCHEM_BOND_DEF_STEREO_COUNT>  (1) 
0

>  <PUBCHEM_BOND_UDEF_STEREO_COUNT>  (1) 
0

>  <PUBCHEM_ISOTOPIC_ATOM_COUNT>  (1) 
0

>  <PUBCHEM_COMPONENT_COUNT>  (1) 
1

>  <PUBCHEM_CACTVS_TAUTO_COUNT>  (1) 
42

>  <PUBCHEM_CONFORMER_ID>  (1) 
00006BFE00000001

>  <PUBCHEM_MMFF94_ENERGY>  (1) 
87.2207

>  <PUBCHEM_FEATURE_SELFOVERLAP>  (1) 
66.139

>  <PUBCHEM_SHAPE_FINGERPRINT>  (1) 
11578080 2 16771846346156299016
12011746 2 18261380157626238415
12156800 1 17128776498340877936
12236239 1 16298383557156096146
12788726 201 18267011774531888600
13140716 1 17750244763084619907
14713325 29 17915467091121379888
14787075 74 18040714822314200610
14840074 17 17704074019112940340
14955137 171 18129662031424634184
15131766 46 16126091288033098368
15238133 3 18338530646880683625
16945 1 18053907798190748903
17980427 23 17560255694533658953
1813 80 17846232058678599820
18681886 176 16443625817554025183
20510252 161 18044082480469521693
20600515 1 18261689098665508845
21267235 1 17313111894922650443
2297311 6 18409736149424065158
23175994 123 18412822495268257017
23419403 2 18265038305589260561
23557571 272 18335709312664825342
23558518 356 17545869439329467555
23559900 14 17967530207783613140
335352 9 17603863417198737615
34797466 226 18261688038558043374
34934 24 14635692109066256311
350125 39 17022901251063237071
7226269 152 18335137536363726181
81228 2 18053960450005387597

>  <PUBCHEM_SHAPE_MULTIPOLES>  (1) 
526.96
11.32
2.87
2.01
16.46
4.15
-0.5
-5.31
-0.77
-1.12
1.63
-0.47
0.05
1.47

>  <PUBCHEM_SHAPE_SELFOVERLAP>  (1) 
1132.234

>  <PUBCHEM_SHAPE_VOLUME>  (1) 
294.1

>  <PUBCHEM_COORDINATE_TYPE>  (1) 
2
5
10

$$$$
