27655
     RDKit          3D

  9  8  0  0  1  0  0  0  0  0999 V2000
   -0.3027    1.9580    0.0779 Cl  0  0  0  0  0  0  0  0  0  0  0  0
   -2.1519   -1.4427   -0.4753 O   0  0  0  0  0  0  0  0  0  0  0  0
    2.7965   -0.5125    0.9981 O   0  0  0  0  0  0  0  0  0  0  0  0
   -2.7331    0.4706    0.6042 O   0  0  0  0  0  0  0  0  0  0  0  0
    2.3251    0.3194   -1.0609 O   0  0  0  0  0  0  0  0  0  0  0  0
   -0.5124    0.2470   -0.3939 C   0  0  0  0  0  0  0  0  0  0  0  0
    0.5331   -0.6321    0.2906 C   0  0  0  0  0  0  0  0  0  0  0  0
   -1.9090   -0.1878   -0.0131 C   0  0  0  0  0  0  0  0  0  0  0  0
    1.9544   -0.2200   -0.0277 C   0  0  0  0  0  0  0  0  0  0  0  0
  1  6  1  0
  2  8  1  0
  3  9  1  0
  4  8  2  0
  5  9  2  0
  6  7  1  0
  6  8  1  0
  7  9  1  0
M  END
>  <PUBCHEM_COMPOUND_CID>  (1) 
27655

>  <PUBCHEM_CONFORMER_RMSD>  (1) 
0.6

>  <PUBCHEM_CONFORMER_DIVERSEORDER>  (1) 
2
9
13
1
12
8
11
14
3
4
10
6
7
5

>  <PUBCHEM_MMFF94_PARTIAL_CHARGES>  (1) 
11
1 -0.29
13 0.5
14 0.5
2 -0.65
3 -0.65
4 -0.57
5 -0.57
6 0.35
7 0.06
8 0.66
9 0.66

>  <PUBCHEM_EFFECTIVE_ROTOR_COUNT>  (1) 
3

>  <PUBCHEM_PHARMACOPHORE_FEATURES>  (1) 
6
1 2 acceptor
1 3 acceptor
1 4 acceptor
1 5 acceptor
3 2 4 8 anion
3 3 5 9 anion

>  <PUBCHEM_HEAVY_ATOM_COUNT>  (1) 
9

>  <PUBCHEM_ATOM_DEF_STEREO_COUNT>  (1) 
0

>  <PUBCHEM_ATOM_UDEF_STEREO_COUNT>  (1) 
1

>  <PUBCHEM_BOND_DEF_STEREO_COUNT>  (1) 
0

>  <PUBCHEM_BOND_UDEF_STEREO_COUNT>  (1) 
0

>  <PUBCHEM_ISOTOPIC_ATOM_COUNT>  (1) 
0

>  <PUBCHEM_COMPONENT_COUNT>  (1) 
1

>  <PUBCHEM_CACTVS_TAUTO_COUNT>  (1) 
1

>  <PUBCHEM_CONFORMER_ID>  (1) 
00006C0700000002

>  <PUBCHEM_MMFF94_ENERGY>  (1) 
9.6311

>  <PUBCHEM_FEATURE_SELFOVERLAP>  (1) 
30.564

>  <PUBCHEM_SHAPE_FINGERPRINT>  (1) 
10857977 72 18201710790698899707
12932741 1 16774083972424679670
12932764 1 18186522111387446308
14128692 85 18198630032348593237
14390081 3 16845290510261232851
15310529 11 17095246921004519053
16714656 1 18342745078690560701
18185500 45 18335139790957383663
21040471 1 17835804097248783788
23552333 60 17748830704751821520
23552423 10 18047474710112151221
29004967 10 18412827992594222394
3248919 1 17704351073856159516
369184 2 16660365865772842129
5084963 1 17531242816802620168

>  <PUBCHEM_SHAPE_MULTIPOLES>  (1) 
163.61
3.88
1.41
0.85
0.58
0.62
-0.02
-0.83
0.39
-0.53
-0.02
0.34
-0.01
-0.41

>  <PUBCHEM_SHAPE_SELFOVERLAP>  (1) 
304.67

>  <PUBCHEM_SHAPE_VOLUME>  (1) 
102.6

>  <PUBCHEM_COORDINATE_TYPE>  (1) 
2
5
10

$$$$
