27658
     RDKit          3D

 18 20  0  0  0  0  0  0  0  0999 V2000
    0.3452    2.2986   -0.0025 O   0  0  0  0  0  0  0  0  0  0  0  0
   -1.1317   -2.8373   -0.0023 O   0  0  0  0  0  0  0  0  0  0  0  0
    2.8602    1.6691    0.0002 N   0  0  0  0  0  0  0  0  0  0  0  0
    3.2219    2.6971   -0.0005 N   0  0  0  0  0  0  0  0  0  0  0  0
    1.0401    0.0374    0.0003 C   0  0  0  0  0  0  0  0  0  0  0  0
    0.6461   -1.3023   -0.0002 C   0  0  0  0  0  0  0  0  0  0  0  0
   -1.4027    0.7555    0.0000 C   0  0  0  0  0  0  0  0  0  0  0  0
   -1.7965   -0.5842    0.0001 C   0  0  0  0  0  0  0  0  0  0  0  0
    0.0300    1.1152   -0.0003 C   0  0  0  0  0  0  0  0  0  0  0  0
   -0.7865   -1.6621   -0.0006 C   0  0  0  0  0  0  0  0  0  0  0  0
    2.4012    0.3650    0.0011 C   0  0  0  0  0  0  0  0  0  0  0  0
    1.6135   -2.3145    0.0000 C   0  0  0  0  0  0  0  0  0  0  0  0
   -2.3700    1.7677    0.0003 C   0  0  0  0  0  0  0  0  0  0  0  0
   -3.1578   -0.9118    0.0005 C   0  0  0  0  0  0  0  0  0  0  0  0
    3.3618   -0.6467    0.0013 C   0  0  0  0  0  0  0  0  0  0  0  0
    2.9689   -1.9836    0.0006 C   0  0  0  0  0  0  0  0  0  0  0  0
   -3.7253    1.4369    0.0009 C   0  0  0  0  0  0  0  0  0  0  0  0
   -4.1184    0.1000    0.0011 C   0  0  0  0  0  0  0  0  0  0  0  0
  1  9  2  0
  2 10  2  0
  3  4  3  0
  3 11  1  0
  5  6  2  0
  5  9  1  0
  5 11  1  0
  6 10  1  0
  6 12  1  0
  7  8  2  0
  7  9  1  0
  7 13  1  0
  8 10  1  0
  8 14  1  0
 11 15  2  0
 12 16  2  0
 13 17  2  0
 14 18  2  0
 15 16  1  0
 17 18  1  0
M  CHG  1   3   1
M  END
>  <PUBCHEM_COMPOUND_CID>  (1) 
27658

>  <PUBCHEM_CONFORMER_RMSD>  (1) 
0.4

>  <PUBCHEM_CONFORMER_DIVERSEORDER>  (1) 
1

>  <PUBCHEM_MMFF94_PARTIAL_CHARGES>  (1) 
25
1 -0.57
10 0.4
11 0.14
12 -0.15
13 -0.15
14 -0.15
15 -0.15
16 -0.15
17 -0.15
18 -0.15
19 0.15
2 -0.57
20 0.15
21 0.15
22 0.15
23 0.15
24 0.15
25 0.15
3 1.35
4 -0.49
5 0.09
6 0.09
7 0.09
8 0.09
9 0.4

>  <PUBCHEM_EFFECTIVE_ROTOR_COUNT>  (1) 
0

>  <PUBCHEM_PHARMACOPHORE_FEATURES>  (1) 
5
1 1 acceptor
1 2 acceptor
6 5 6 11 12 15 16 rings
6 5 6 7 8 9 10 rings
6 7 8 13 14 17 18 rings

>  <PUBCHEM_HEAVY_ATOM_COUNT>  (1) 
18

>  <PUBCHEM_ATOM_DEF_STEREO_COUNT>  (1) 
0

>  <PUBCHEM_ATOM_UDEF_STEREO_COUNT>  (1) 
0

>  <PUBCHEM_BOND_DEF_STEREO_COUNT>  (1) 
0

>  <PUBCHEM_BOND_UDEF_STEREO_COUNT>  (1) 
0

>  <PUBCHEM_ISOTOPIC_ATOM_COUNT>  (1) 
0

>  <PUBCHEM_COMPONENT_COUNT>  (1) 
1

>  <PUBCHEM_CACTVS_TAUTO_COUNT>  (1) 
1

>  <PUBCHEM_CONFORMER_ID>  (1) 
00006C0A00000001

>  <PUBCHEM_MMFF94_ENERGY>  (1) 
52.263

>  <PUBCHEM_FEATURE_SELFOVERLAP>  (1) 
25.414

>  <PUBCHEM_SHAPE_FINGERPRINT>  (1) 
10411042 1 16825589186744334095
10608611 8 18408884010215698397
10616163 171 18266743669514095798
10967382 1 18410575127618078597
11132069 177 18340197480131569651
11471102 20 18338231553193387119
11680986 33 18335991951155485251
12403259 226 18190738626747527053
13140716 1 18337958870320582777
13221675 6 18338234851754806455
13380535 76 18337668723498998035
13583140 156 17023165142069180817
138480 1 18266740169421652610
13897977 150 18410290281234562885
14178342 30 18122612010407283232
14790565 3 17620214035271673912
15196674 1 18410575085195854853
15442244 35 18267585706310302058
15536298 74 18342737394978172362
16945 1 18338799051670142535
18186145 218 18270685255506629317
193761 8 18266459991161191911
19591789 44 18410295800362815043
200 152 18058717023707282349
20645477 70 18340764858486287271
21267235 1 18339370673352737359
21501502 16 18340481261358109559
22094290 62 18410009914333092754
221490 88 18408893927147673794
2334 1 18410855443169864675
23366157 5 18113337514226865674
23402539 116 18198892639360347574
23463225 33 18337390426861409359
23559900 14 18342453695614681778
238 59 17684889602492066405
2748010 2 18337673018682565415
335352 9 17978228257941967039
350125 39 18337958883063481709
5104073 3 18409732850778237561
5939293 188 18267299837898571594
7364860 26 18413108347085589604
8809292 202 18261399888468846915
9709674 26 18411704278884327319
9981440 41 18048309239701222016

>  <PUBCHEM_SHAPE_MULTIPOLES>  (1) 
348.73
6.35
2.91
0.6
2.05
0.23
0
1.12
0
-1.52
0
0.02
-0.02
0

>  <PUBCHEM_SHAPE_SELFOVERLAP>  (1) 
792.481

>  <PUBCHEM_SHAPE_VOLUME>  (1) 
179.6

>  <PUBCHEM_COORDINATE_TYPE>  (1) 
2
5
10

$$$$
