27661
     RDKit          3D

 13 14  0  0  1  0  0  0  0  0999 V2000
   -1.4908   -1.7744   -0.0017 O   0  0  0  0  0  0  0  0  0  0  0  0
   -0.4257    0.9848   -0.7818 O   0  0  0  0  0  0  0  0  0  0  0  0
    1.8477   -0.5885   -0.5309 O   0  0  0  0  0  0  0  0  0  0  0  0
   -2.9367    1.4617    0.8540 O   0  0  0  0  0  0  0  0  0  0  0  0
    2.6510    0.2814    1.3509 O   0  0  0  0  0  0  0  0  0  0  0  0
    3.3436    1.1211   -0.5951 O   0  0  0  0  0  0  0  0  0  0  0  0
    2.6919    0.3587    0.1223 N   0  0  0  0  0  0  0  0  0  0  0  0
   -0.2566    0.2102    0.4176 C   0  0  0  0  0  0  0  0  0  0  0  0
   -1.5715   -0.5016    0.6682 C   0  0  0  0  0  0  0  0  0  0  0  0
    0.7002   -0.9390    0.2093 C   0  0  0  0  0  0  0  0  0  0  0  0
   -2.5847    0.3868   -0.0085 C   0  0  0  0  0  0  0  0  0  0  0  0
   -0.1633   -1.9433   -0.5206 C   0  0  0  0  0  0  0  0  0  0  0  0
   -1.8051    0.9421   -1.1837 C   0  0  0  0  0  0  0  0  0  0  0  0
  1  9  1  0
  1 12  1  0
  2  8  1  0
  2 13  1  0
  3  7  1  0
  3 10  1  0
  4 11  1  0
  5  7  1  0
  6  7  2  0
  8  9  1  0
  8 10  1  0
  9 11  1  0
 10 12  1  0
 11 13  1  0
M  CHG  2   5  -1   7   1
M  END
>  <PUBCHEM_COMPOUND_CID>  (1) 
27661

>  <PUBCHEM_CONFORMER_RMSD>  (1) 
0.6

>  <PUBCHEM_CONFORMER_DIVERSEORDER>  (1) 
1
6
4
2
3
5
7

>  <PUBCHEM_MMFF94_PARTIAL_CHARGES>  (1) 
14
1 -0.56
10 0.28
11 0.28
12 0.28
13 0.28
2 -0.56
22 0.4
3 -0.27
4 -0.68
5 -0.52
6 -0.52
7 1.03
8 0.28
9 0.28

>  <PUBCHEM_EFFECTIVE_ROTOR_COUNT>  (1) 
3.2

>  <PUBCHEM_PHARMACOPHORE_FEATURES>  (1) 
8
1 1 acceptor
1 2 acceptor
1 4 acceptor
1 4 donor
1 5 acceptor
1 6 acceptor
5 1 8 9 10 12 rings
5 2 8 9 11 13 rings

>  <PUBCHEM_HEAVY_ATOM_COUNT>  (1) 
13

>  <PUBCHEM_ATOM_DEF_STEREO_COUNT>  (1) 
4

>  <PUBCHEM_ATOM_UDEF_STEREO_COUNT>  (1) 
0

>  <PUBCHEM_BOND_DEF_STEREO_COUNT>  (1) 
0

>  <PUBCHEM_BOND_UDEF_STEREO_COUNT>  (1) 
0

>  <PUBCHEM_ISOTOPIC_ATOM_COUNT>  (1) 
0

>  <PUBCHEM_COMPONENT_COUNT>  (1) 
1

>  <PUBCHEM_CACTVS_TAUTO_COUNT>  (1) 
1

>  <PUBCHEM_CONFORMER_ID>  (1) 
00006C0D00000001

>  <PUBCHEM_MMFF94_ENERGY>  (1) 
43.9884

>  <PUBCHEM_FEATURE_SELFOVERLAP>  (1) 
41.386

>  <PUBCHEM_SHAPE_FINGERPRINT>  (1) 
10857977 72 17314251989632589281
12932764 1 17603583019699161396
13024252 1 15430025582891094055
15775835 57 18259988193006267272
16945 1 17749115456698765367
18186145 218 18200032820085878541
20645464 45 18272088292504868606
20871998 184 18267876153711584143
21040471 1 18411981330028547979
23211744 41 17896883149477391235
23235685 24 18341331115137388184
2748010 2 18338244773351046847
369184 2 16877936148497934482
5084963 1 17461174153120613191
54338 74 17897716802260513535
6333449 129 18411978100218221327
81228 2 18123459750757372466

>  <PUBCHEM_SHAPE_MULTIPOLES>  (1) 
227.34
4.33
1.62
1.02
2.35
0.6
-0.03
-2.12
-0.47
-0.4
0.24
-0.03
-0.2
-0.06

>  <PUBCHEM_SHAPE_SELFOVERLAP>  (1) 
477.521

>  <PUBCHEM_SHAPE_VOLUME>  (1) 
129.8

>  <PUBCHEM_COORDINATE_TYPE>  (1) 
2
5
10

$$$$
