27662
     RDKit          3D

 12 12  0  0  1  0  0  0  0  0999 V2000
   -2.7374   -1.6124    0.6999 O   0  0  0  0  0  0  0  0  0  0  0  0
   -3.8885    0.2856    0.2059 O   0  0  0  0  0  0  0  0  0  0  0  0
   -1.7834    1.3907   -1.0447 N   0  0  0  0  0  0  0  0  0  0  0  0
    0.8664    0.6727   -0.0200 C   0  0  0  0  0  0  0  0  0  0  0  0
   -0.4504    0.1873    0.5878 C   0  0  0  0  0  0  0  0  0  0  0  0
   -1.5482    0.0705   -0.4586 C   0  0  0  0  0  0  0  0  0  0  0  0
    1.3190   -0.2796   -1.0999 C   0  0  0  0  0  0  0  0  0  0  0  0
    1.8954    0.8697    1.0666 C   0  0  0  0  0  0  0  0  0  0  0  0
    3.5570   -0.6343   -0.0424 C   0  0  0  0  0  0  0  0  0  0  0  0
    2.5265   -0.8628   -1.1087 C   0  0  0  0  0  0  0  0  0  0  0  0
    3.1018    0.2843    1.0532 C   0  0  0  0  0  0  0  0  0  0  0  0
   -2.8581   -0.3717    0.1610 C   0  0  0  0  0  0  0  0  0  0  0  0
  1 12  1  0
  2 12  2  0
  3  6  1  0
  4  5  1  0
  4  7  1  0
  4  8  1  0
  5  6  1  0
  6 12  1  0
  7 10  2  0
  8 11  2  0
  9 10  1  0
  9 11  1  0
M  END
>  <PUBCHEM_COMPOUND_CID>  (1) 
27662

>  <PUBCHEM_CONFORMER_RMSD>  (1) 
0.6

>  <PUBCHEM_CONFORMER_DIVERSEORDER>  (1) 
1
11
9
6
16
4
7
14
17
12
3
8
10
2
13
15
5

>  <PUBCHEM_MMFF94_PARTIAL_CHARGES>  (1) 
18
1 -0.65
10 -0.29
11 -0.29
12 0.66
17 0.15
18 0.15
2 -0.57
21 0.15
22 0.15
23 0.36
24 0.36
25 0.5
3 -0.99
4 0.28
6 0.33
7 -0.29
8 -0.29
9 0.28

>  <PUBCHEM_EFFECTIVE_ROTOR_COUNT>  (1) 
3.4

>  <PUBCHEM_PHARMACOPHORE_FEATURES>  (1) 
6
1 1 acceptor
1 2 acceptor
1 3 cation
1 3 donor
3 1 2 12 anion
6 4 7 8 9 10 11 rings

>  <PUBCHEM_HEAVY_ATOM_COUNT>  (1) 
12

>  <PUBCHEM_ATOM_DEF_STEREO_COUNT>  (1) 
0

>  <PUBCHEM_ATOM_UDEF_STEREO_COUNT>  (1) 
1

>  <PUBCHEM_BOND_DEF_STEREO_COUNT>  (1) 
0

>  <PUBCHEM_BOND_UDEF_STEREO_COUNT>  (1) 
0

>  <PUBCHEM_ISOTOPIC_ATOM_COUNT>  (1) 
0

>  <PUBCHEM_COMPONENT_COUNT>  (1) 
1

>  <PUBCHEM_CACTVS_TAUTO_COUNT>  (1) 
1

>  <PUBCHEM_CONFORMER_ID>  (1) 
00006C0E00000001

>  <PUBCHEM_MMFF94_ENERGY>  (1) 
6.7192

>  <PUBCHEM_FEATURE_SELFOVERLAP>  (1) 
30.503

>  <PUBCHEM_SHAPE_FINGERPRINT>  (1) 
10219947 1 17346597482648600208
11471102 22 17632580444143052090
12932764 1 18271516537926448046
13296908 3 18272932704576401062
14144814 61 15140676964685394892
14993402 34 15574713582291903082
15219456 202 18201994409065023808
17844478 74 18272934916273789189
19049666 15 18055636118294106308
20201158 50 18130792243478830438
20279233 1 18343301474534554703
20281407 28 18409455786200273443
20645477 70 17489305235336892814
20715346 28 18343292669856879244
20871998 22 16413807981663811078
21293036 1 13190342370068992978
21730867 7 17846499248862940134
23048698 100 15841833352048379363
23557571 272 18333732386479058276
2748010 2 16771552746998484804
3248919 1 18341896324549542765
57812782 119 18411131441957816922
77492 1 16298385738487441820
8030462 33 16081371847253315036

>  <PUBCHEM_SHAPE_MULTIPOLES>  (1) 
230.23
6.28
1.22
1.09
2.18
0.02
-0.02
0.09
1.35
-1.1
0
0.83
0.08
0.17

>  <PUBCHEM_SHAPE_SELFOVERLAP>  (1) 
461.965

>  <PUBCHEM_SHAPE_VOLUME>  (1) 
134.2

>  <PUBCHEM_COORDINATE_TYPE>  (1) 
2
5
10

$$$$
