27674
     RDKit          3D

 12 13  0  0  0  0  0  0  0  0999 V2000
    2.0577   -1.7880   -0.0157 O   0  0  0  0  0  0  0  0  0  0  0  0
   -2.6951   -0.3953   -0.0841 N   0  0  0  0  0  0  0  0  0  0  0  0
   -0.7308   -1.8005   -0.0866 C   0  0  0  0  0  0  0  0  0  0  0  0
   -0.3833   -0.3500   -0.0072 C   0  0  0  0  0  0  0  0  0  0  0  0
   -2.2555   -1.7648    0.1538 C   0  0  0  0  0  0  0  0  0  0  0  0
   -1.5579    0.4065   -0.0038 C   0  0  0  0  0  0  0  0  0  0  0  0
    0.8647    0.2466    0.0112 C   0  0  0  0  0  0  0  0  0  0  0  0
   -1.5053    1.7891   -0.0158 C   0  0  0  0  0  0  0  0  0  0  0  0
    0.9246    1.6410    0.0291 C   0  0  0  0  0  0  0  0  0  0  0  0
   -0.2520    2.4070    0.0123 C   0  0  0  0  0  0  0  0  0  0  0  0
    2.0863   -0.5407   -0.0003 C   0  0  0  0  0  0  0  0  0  0  0  0
    3.4467    0.1492    0.0070 C   0  0  0  0  0  0  0  0  0  0  0  0
  1 11  2  0
  2  5  1  0
  2  6  1  0
  3  4  1  0
  3  5  1  0
  4  6  2  0
  4  7  1  0
  6  8  1  0
  7  9  2  0
  7 11  1  0
  8 10  2  0
  9 10  1  0
 11 12  1  0
M  END
>  <PUBCHEM_COMPOUND_CID>  (1) 
27674

>  <PUBCHEM_CONFORMER_RMSD>  (1) 
0.4

>  <PUBCHEM_CONFORMER_DIVERSEORDER>  (1) 
1
2
5
3
4

>  <PUBCHEM_MMFF94_PARTIAL_CHARGES>  (1) 
16
1 -0.57
10 -0.15
11 0.42
12 0.06
17 0.4
18 0.15
19 0.15
2 -0.87
20 0.15
3 0.14
4 -0.14
5 0.37
6 0.1
7 0.09
8 -0.15
9 -0.15

>  <PUBCHEM_EFFECTIVE_ROTOR_COUNT>  (1) 
1.6

>  <PUBCHEM_PHARMACOPHORE_FEATURES>  (1) 
5
1 1 acceptor
1 2 cation
1 2 donor
5 2 3 4 5 6 rings
6 4 6 7 8 9 10 rings

>  <PUBCHEM_HEAVY_ATOM_COUNT>  (1) 
12

>  <PUBCHEM_ATOM_DEF_STEREO_COUNT>  (1) 
0

>  <PUBCHEM_ATOM_UDEF_STEREO_COUNT>  (1) 
0

>  <PUBCHEM_BOND_DEF_STEREO_COUNT>  (1) 
0

>  <PUBCHEM_BOND_UDEF_STEREO_COUNT>  (1) 
0

>  <PUBCHEM_ISOTOPIC_ATOM_COUNT>  (1) 
0

>  <PUBCHEM_COMPONENT_COUNT>  (1) 
1

>  <PUBCHEM_CACTVS_TAUTO_COUNT>  (1) 
2

>  <PUBCHEM_CONFORMER_ID>  (1) 
00006C1A00000001

>  <PUBCHEM_MMFF94_ENERGY>  (1) 
45.4561

>  <PUBCHEM_FEATURE_SELFOVERLAP>  (1) 
25.463

>  <PUBCHEM_SHAPE_FINGERPRINT>  (1) 
10967382 1 18338516339679423685
11206711 2 18409165510756368020
12423570 1 12219246592383816953
12524768 44 18341047518494286543
12716758 59 18195528078181680530
14128692 85 18339084916071800788
16945 1 18410575106143255104
193761 8 18266459987040544773
20201158 50 18337386140405128062
20645477 70 17616521205247874215
20871998 184 18273215283154076174
20871998 22 18341909518378093206
21040471 1 17834395622758455788
22802520 49 17913787028310659558
2334 1 17762337320045486870
23552423 10 18118685658521245605
23559900 14 18270115687921273486
241688 4 18409728490948757033
2748010 2 18194966244645449709
6333449 129 18340200787425250936
66348 1 18411417319165197171
7364860 26 17910113847434885617
81228 2 18337394842056316784

>  <PUBCHEM_SHAPE_MULTIPOLES>  (1) 
236.1
3.82
2.44
0.61
1.84
0.6
0
-1.31
0.03
-0.59
0.01
0
0.01
0.05

>  <PUBCHEM_SHAPE_SELFOVERLAP>  (1) 
509.792

>  <PUBCHEM_SHAPE_VOLUME>  (1) 
132.8

>  <PUBCHEM_COORDINATE_TYPE>  (1) 
2
5
10

$$$$
