27673
     RDKit          3D

 12 13  0  0  0  0  0  0  0  0999 V2000
   -2.1931   -1.7964   -0.0028 O   0  0  0  0  0  0  0  0  0  0  0  0
   -1.0901    0.2602    0.0005 N   0  0  0  0  0  0  0  0  0  0  0  0
    0.3452    2.2236   -0.0031 C   0  0  0  0  0  0  0  0  0  0  0  0
   -1.1084    1.7382    0.0036 C   0  0  0  0  0  0  0  0  0  0  0  0
    1.1069    0.9388   -0.0006 C   0  0  0  0  0  0  0  0  0  0  0  0
    0.2542   -0.1669    0.0003 C   0  0  0  0  0  0  0  0  0  0  0  0
    2.4853    0.7864   -0.0008 C   0  0  0  0  0  0  0  0  0  0  0  0
    0.7687   -1.4553    0.0010 C   0  0  0  0  0  0  0  0  0  0  0  0
   -2.2060   -0.5654   -0.0002 C   0  0  0  0  0  0  0  0  0  0  0  0
    3.0106   -0.5053    0.0002 C   0  0  0  0  0  0  0  0  0  0  0  0
    2.1578   -1.6179    0.0013 C   0  0  0  0  0  0  0  0  0  0  0  0
   -3.5312    0.1598    0.0008 C   0  0  0  0  0  0  0  0  0  0  0  0
  1  9  2  0
  2  4  1  0
  2  6  1  0
  2  9  1  0
  3  4  1  0
  3  5  1  0
  5  6  2  0
  5  7  1  0
  6  8  1  0
  7 10  2  0
  8 11  2  0
  9 12  1  0
 10 11  1  0
M  END
>  <PUBCHEM_COMPOUND_CID>  (1) 
27673

>  <PUBCHEM_CONFORMER_RMSD>  (1) 
0.4

>  <PUBCHEM_CONFORMER_DIVERSEORDER>  (1) 
1
2

>  <PUBCHEM_MMFF94_PARTIAL_CHARGES>  (1) 
16
1 -0.57
10 -0.15
11 -0.15
12 0.06
17 0.15
18 0.15
19 0.15
2 -0.48
20 0.15
3 0.14
4 0.3
5 -0.14
6 0.12
7 -0.15
8 -0.15
9 0.57

>  <PUBCHEM_EFFECTIVE_ROTOR_COUNT>  (1) 
1.6

>  <PUBCHEM_PHARMACOPHORE_FEATURES>  (1) 
3
1 1 acceptor
5 2 3 4 5 6 rings
6 5 6 7 8 10 11 rings

>  <PUBCHEM_HEAVY_ATOM_COUNT>  (1) 
12

>  <PUBCHEM_ATOM_DEF_STEREO_COUNT>  (1) 
0

>  <PUBCHEM_ATOM_UDEF_STEREO_COUNT>  (1) 
0

>  <PUBCHEM_BOND_DEF_STEREO_COUNT>  (1) 
0

>  <PUBCHEM_BOND_UDEF_STEREO_COUNT>  (1) 
0

>  <PUBCHEM_ISOTOPIC_ATOM_COUNT>  (1) 
0

>  <PUBCHEM_COMPONENT_COUNT>  (1) 
1

>  <PUBCHEM_CACTVS_TAUTO_COUNT>  (1) 
1

>  <PUBCHEM_CONFORMER_ID>  (1) 
00006C1900000001

>  <PUBCHEM_MMFF94_ENERGY>  (1) 
37.5014

>  <PUBCHEM_FEATURE_SELFOVERLAP>  (1) 
15.309

>  <PUBCHEM_SHAPE_FINGERPRINT>  (1) 
10130415 120 18335698321489690883
10967382 1 18410855473028920423
11132069 177 18412257359260735274
11206711 2 18336270024665699884
11471102 20 18409725171192101693
12032990 46 18410581668858785507
12382932 28 18412825806535074595
12897270 3 18410012126283337854
14128692 85 18411986879242072684
14325111 11 18338799034331907360
161256 15 18411979144074804108
16945 1 18410855447343629604
17844478 74 17822300071893848101
17990270 104 18264487458716211139
193761 8 17834114139228733798
20201158 50 18408319982172770723
20711985 365 18192992625605638181
20871998 184 18057318383974747958
20871998 22 18270690752927839142
21501502 16 18266744567309869224
2334 1 17978511167216201539
23402655 69 18340756079963648005
23463225 33 18409167692773768750
23552423 10 18260835843393346660
23559900 14 18054228718844062046
241688 4 18337111146776673512
2748010 2 17906173206630186028
3312278 4 18409735083591479419
528886 8 18411414037820758682
53812653 166 18271239538300625488
63268167 104 18411705425756120377
7364860 26 18198623422188618520
8809292 202 18260553328723801482

>  <PUBCHEM_SHAPE_MULTIPOLES>  (1) 
236.1
4.5
2.09
0.6
1.57
0.38
0
-1.18
0
-0.07
0
-0.02
0.01
0

>  <PUBCHEM_SHAPE_SELFOVERLAP>  (1) 
504.661

>  <PUBCHEM_SHAPE_VOLUME>  (1) 
132.7

>  <PUBCHEM_COORDINATE_TYPE>  (1) 
2
5
10

$$$$
