27675
     RDKit          3D

 12 12  0  0  0  0  0  0  0  0999 V2000
    2.5587   -1.6384    0.9286 Br  0  0  0  0  0  0  0  0  0  0  0  0
    2.5629    0.0009   -1.8783 Br  0  0  0  0  0  0  0  0  0  0  0  0
    2.7672    1.5440    0.9059 Br  0  0  0  0  0  0  0  0  0  0  0  0
   -0.1981   -1.1925   -0.0061 N   0  0  0  0  0  0  0  0  0  0  0  0
   -0.1872    1.2071    0.0121 N   0  0  0  0  0  0  0  0  0  0  0  0
   -2.2707    0.0167    0.0069 N   0  0  0  0  0  0  0  0  0  0  0  0
   -2.2496   -2.3284   -0.0091 N   0  0  0  0  0  0  0  0  0  0  0  0
   -2.2285    2.3612    0.0263 N   0  0  0  0  0  0  0  0  0  0  0  0
    0.4104    0.0046    0.0019 C   0  0  0  0  0  0  0  0  0  0  0  0
    1.9012   -0.0020    0.0010 C   0  0  0  0  0  0  0  0  0  0  0  0
   -1.5383   -1.1087   -0.0031 C   0  0  0  0  0  0  0  0  0  0  0  0
   -1.5281    1.1354    0.0139 C   0  0  0  0  0  0  0  0  0  0  0  0
  1 10  1  0
  2 10  1  0
  3 10  1  0
  4  9  2  0
  4 11  1  0
  5  9  1  0
  5 12  2  0
  6 11  2  0
  6 12  1  0
  7 11  1  0
  8 12  1  0
  9 10  1  0
M  END
>  <PUBCHEM_COMPOUND_CID>  (1) 
27675

>  <PUBCHEM_CONFORMER_RMSD>  (1) 
0.4

>  <PUBCHEM_CONFORMER_DIVERSEORDER>  (1) 
1

>  <PUBCHEM_MMFF94_PARTIAL_CHARGES>  (1) 
16
1 -0.23
10 0.83
11 0.72
12 0.72
13 0.4
14 0.4
15 0.4
16 0.4
2 -0.23
3 -0.23
4 -0.62
5 -0.62
6 -0.62
7 -0.9
8 -0.9
9 0.48

>  <PUBCHEM_EFFECTIVE_ROTOR_COUNT>  (1) 
1

>  <PUBCHEM_PHARMACOPHORE_FEATURES>  (1) 
9
1 1 hydrophobe
1 2 hydrophobe
1 3 hydrophobe
1 7 donor
1 8 donor
4 1 2 3 10 hydrophobe
4 4 6 7 11 cation
4 5 6 8 12 cation
6 4 5 6 9 11 12 rings

>  <PUBCHEM_HEAVY_ATOM_COUNT>  (1) 
12

>  <PUBCHEM_ATOM_DEF_STEREO_COUNT>  (1) 
0

>  <PUBCHEM_ATOM_UDEF_STEREO_COUNT>  (1) 
0

>  <PUBCHEM_BOND_DEF_STEREO_COUNT>  (1) 
0

>  <PUBCHEM_BOND_UDEF_STEREO_COUNT>  (1) 
0

>  <PUBCHEM_ISOTOPIC_ATOM_COUNT>  (1) 
0

>  <PUBCHEM_COMPONENT_COUNT>  (1) 
1

>  <PUBCHEM_CACTVS_TAUTO_COUNT>  (1) 
5

>  <PUBCHEM_CONFORMER_ID>  (1) 
00006C1B00000001

>  <PUBCHEM_MMFF94_ENERGY>  (1) 
33.0587

>  <PUBCHEM_FEATURE_SELFOVERLAP>  (1) 
46.664

>  <PUBCHEM_SHAPE_FINGERPRINT>  (1) 
12423570 1 9275022635083521158
12716758 59 18341059522922441870
12932764 1 18410866451128820472
14252887 29 17841166754659961779
14648413 74 17917157121786511108
15219456 202 17846225500711938028
15775835 57 18262807246320106920
161256 15 18127985297877972492
16945 1 18335424620303584937
18380122 1 17915742187591549384
19973954 147 18413101775564288704
20082192 1 17346878983332006038
20645464 45 18131066022084948384
20645476 183 17970649414264662510
20711985 344 18340785800504378679
20871998 184 18129660932097746423
20871998 22 17981900931742983303
21040471 1 18266180526302853469
21501502 16 18411971460446669216
21524375 3 17974287617148440141
22802520 49 18130805433581554236
23211744 41 17914327129296346880
232386 152 18338793399931277758
23419403 2 15741811848716667939
23526113 38 17487359057169988390
23552423 10 18113620088335668850
23557571 272 18199190770246125036
23559900 14 18056206778890639830
2748010 2 18342176721215051741
3248919 1 17203325581130879592
369184 2 18411409618315183376
5084963 1 17749669571767282636
7364860 26 18341608197037833850
74978 22 18340204085944121688
8030462 33 18260551147080615158
81228 2 18337679710457896953

>  <PUBCHEM_SHAPE_MULTIPOLES>  (1) 
239.88
4.52
2.3
1.2
0.19
0.02
0.57
-0.13
-0.09
-0.91
-0.53
1.44
0.01
-0.03

>  <PUBCHEM_SHAPE_SELFOVERLAP>  (1) 
447.588

>  <PUBCHEM_SHAPE_VOLUME>  (1) 
155.7

>  <PUBCHEM_COORDINATE_TYPE>  (1) 
2
5
10

$$$$
