27670
     RDKit          3D

 12 11  0  0  0  0  0  0  0  0999 V2000
    1.5131   -1.2010   -0.0876 O   0  0  0  0  0  0  0  0  0  0  0  0
    4.2917   -0.2708    1.1739 O   0  0  0  0  0  0  0  0  0  0  0  0
    4.3874   -0.2698   -1.0273 O   0  0  0  0  0  0  0  0  0  0  0  0
    3.8708    0.0698    0.0530 N   0  0  0  0  0  0  0  0  0  0  0  0
   -2.4244    0.6168    0.0068 C   0  0  0  0  0  0  0  0  0  0  0  0
   -1.1045   -0.1590   -0.0655 C   0  0  0  0  0  0  0  0  0  0  0  0
   -3.6247   -0.3329   -0.0163 C   0  0  0  0  0  0  0  0  0  0  0  0
    0.1137    0.7635   -0.0708 C   0  0  0  0  0  0  0  0  0  0  0  0
   -4.9719    0.3914    0.0279 C   0  0  0  0  0  0  0  0  0  0  0  0
    1.4464    0.0273   -0.0684 C   0  0  0  0  0  0  0  0  0  0  0  0
   -6.1660   -0.5493    0.0759 C   0  0  0  0  0  0  0  0  0  0  0  0
    2.6686    0.9139   -0.0017 C   0  0  0  0  0  0  0  0  0  0  0  0
  1 10  2  0
  2  4  1  0
  3  4  2  0
  4 12  1  0
  5  6  1  0
  5  7  1  0
  6  8  1  0
  7  9  1  0
  8 10  1  0
  9 11  1  0
 10 12  1  0
M  CHG  2   2  -1   4   1
M  END
>  <PUBCHEM_COMPOUND_CID>  (1) 
27670

>  <PUBCHEM_CONFORMER_RMSD>  (1) 
0.8

>  <PUBCHEM_CONFORMER_DIVERSEORDER>  (1) 
1
143
83
189
79
82
34
178
152
170
13
78
57
177
49
182
153
16
37
190
70
27
117
103
135
14
129
156
186
144
131
98
23
150
154
191
120
24
53
166
181
10
167
60
169
171
125
19
99
4
163
44
183
36
22
15
45
188
160
146
41
6
106
115
85
174
51
77
35
62
176
110
3
72
157
145
18
164
102
59
137
111
48
71
133
179
84
118
159
61
12
8
109
90
38
161
63
25
75
175
26
32
136
33
113
123
46
20
112
187
87
127
185
65
128
155
114
92
81
126
101
73
68
172
28
173
108
119
142
122
107
52
31
74
66
67
39
147
2
158
42
116
40
95
124
192
54
5
43
91
17
162
93
168
149
121
130
47
7
11
151
64
29
148
100
30
80
56
140
9
88
165
141
132
76
97
50
180
94
105
21
96
134
89
139
55
184
86
69
58
104
138

>  <PUBCHEM_MMFF94_PARTIAL_CHARGES>  (1) 
7
1 -0.57
10 0.45
12 0.3
2 -0.52
3 -0.52
4 0.8
8 0.06

>  <PUBCHEM_EFFECTIVE_ROTOR_COUNT>  (1) 
7

>  <PUBCHEM_PHARMACOPHORE_FEATURES>  (1) 
6
1 1 acceptor
1 11 hydrophobe
1 2 acceptor
1 2 anion
1 3 acceptor
5 5 6 7 8 9 hydrophobe

>  <PUBCHEM_HEAVY_ATOM_COUNT>  (1) 
12

>  <PUBCHEM_ATOM_DEF_STEREO_COUNT>  (1) 
0

>  <PUBCHEM_ATOM_UDEF_STEREO_COUNT>  (1) 
0

>  <PUBCHEM_BOND_DEF_STEREO_COUNT>  (1) 
0

>  <PUBCHEM_BOND_UDEF_STEREO_COUNT>  (1) 
0

>  <PUBCHEM_ISOTOPIC_ATOM_COUNT>  (1) 
0

>  <PUBCHEM_COMPONENT_COUNT>  (1) 
1

>  <PUBCHEM_CACTVS_TAUTO_COUNT>  (1) 
6

>  <PUBCHEM_CONFORMER_ID>  (1) 
00006C1600000001

>  <PUBCHEM_MMFF94_ENERGY>  (1) 
4.9665

>  <PUBCHEM_FEATURE_SELFOVERLAP>  (1) 
30.526

>  <PUBCHEM_SHAPE_FINGERPRINT>  (1) 
11062470 55 14201117916194054364
14123238 8 17676206875273813221
1420 363 18411143554425085091
14252887 29 17775295940810255895
17834072 33 18410012178276522205
17834076 25 17748547043441396455
20279233 1 18040725757670162491
20645477 70 18187643544666009827
20719005 15 18410856564341003733
20767249 13 18335419071754373769
23402539 116 17313096454709756871
23557571 272 18270409291173835685
42788 4 18411700989371414453
522135 26 16805322197814244920
57483677 66 17988924470529811087

>  <PUBCHEM_SHAPE_MULTIPOLES>  (1) 
224.37
12.58
0.91
0.75
9.26
0
-0.03
-1.63
-0.45
-0.05
0.01
-0.63
-0.04
0

>  <PUBCHEM_SHAPE_SELFOVERLAP>  (1) 
413.349

>  <PUBCHEM_SHAPE_VOLUME>  (1) 
142

>  <PUBCHEM_COORDINATE_TYPE>  (1) 
2
5
10

$$$$
