27688
     RDKit          3D

 16 17  0  0  0  0  0  0  0  0999 V2000
    1.5785    2.0778    0.0230 O   0  0  0  0  0  0  0  0  0  0  0  0
    4.6274   -1.6027   -0.5875 O   0  0  0  0  0  0  0  0  0  0  0  0
   -2.2121    0.2909   -0.0630 N   0  0  0  0  0  0  0  0  0  0  0  0
   -3.4829    0.7617   -0.1883 N   0  0  0  0  0  0  0  0  0  0  0  0
   -1.0194   -1.7614    0.2017 N   0  0  0  0  0  0  0  0  0  0  0  0
    0.0709   -1.1288    0.2147 N   0  0  0  0  0  0  0  0  0  0  0  0
   -1.0896    2.3603   -0.1769 N   0  0  0  0  0  0  0  0  0  0  0  0
    2.4467   -0.0682    0.2742 N   0  0  0  0  0  0  0  0  0  0  0  0
    3.7491    0.3608    0.3202 N   0  0  0  0  0  0  0  0  0  0  0  0
   -1.0037    1.0040   -0.0490 C   0  0  0  0  0  0  0  0  0  0  0  0
   -2.1981   -1.0935    0.0642 C   0  0  0  0  0  0  0  0  0  0  0  0
    0.1056    0.2476    0.0921 C   0  0  0  0  0  0  0  0  0  0  0  0
   -3.5081   -1.5082    0.0171 C   0  0  0  0  0  0  0  0  0  0  0  0
    1.4399    0.8613    0.1243 C   0  0  0  0  0  0  0  0  0  0  0  0
   -4.2482   -0.3283   -0.1382 C   0  0  0  0  0  0  0  0  0  0  0  0
    4.7441   -0.4731   -0.1287 C   0  0  0  0  0  0  0  0  0  0  0  0
  1 14  2  0
  2 16  2  0
  3  4  1  0
  3 10  1  0
  3 11  1  0
  4 15  2  0
  5  6  2  0
  5 11  1  0
  6 12  1  0
  7 10  1  0
  8  9  1  0
  8 14  1  0
  9 16  1  0
 10 12  2  0
 11 13  2  0
 12 14  1  0
 13 15  1  0
M  END
>  <PUBCHEM_COMPOUND_CID>  (1) 
27688

>  <PUBCHEM_CONFORMER_RMSD>  (1) 
0.6

>  <PUBCHEM_CONFORMER_DIVERSEORDER>  (1) 
1
3
5
4
7
2
8
6

>  <PUBCHEM_MMFF94_PARTIAL_CHARGES>  (1) 
23
1 -0.57
10 0.07
11 -0.03
12 0.19
13 -0.15
14 0.62
15 0.14
16 0.57
17 0.15
18 0.15
19 0.4
2 -0.57
20 0.4
21 0.37
22 0.37
23 0.06
3 0.6
4 -0.71
5 -0.13
6 -0.17
7 -0.9
8 -0.43
9 -0.43

>  <PUBCHEM_EFFECTIVE_ROTOR_COUNT>  (1) 
4

>  <PUBCHEM_PHARMACOPHORE_FEATURES>  (1) 
9
1 1 acceptor
1 2 acceptor
1 4 acceptor
1 7 cation
1 7 donor
1 8 donor
1 9 donor
5 3 4 11 13 15 rings
6 3 5 6 10 11 12 rings

>  <PUBCHEM_HEAVY_ATOM_COUNT>  (1) 
16

>  <PUBCHEM_ATOM_DEF_STEREO_COUNT>  (1) 
0

>  <PUBCHEM_ATOM_UDEF_STEREO_COUNT>  (1) 
0

>  <PUBCHEM_BOND_DEF_STEREO_COUNT>  (1) 
0

>  <PUBCHEM_BOND_UDEF_STEREO_COUNT>  (1) 
0

>  <PUBCHEM_ISOTOPIC_ATOM_COUNT>  (1) 
0

>  <PUBCHEM_COMPONENT_COUNT>  (1) 
1

>  <PUBCHEM_CACTVS_TAUTO_COUNT>  (1) 
27

>  <PUBCHEM_CONFORMER_ID>  (1) 
00006C2800000001

>  <PUBCHEM_MMFF94_ENERGY>  (1) 
39.2857

>  <PUBCHEM_FEATURE_SELFOVERLAP>  (1) 
47.344

>  <PUBCHEM_SHAPE_FINGERPRINT>  (1) 
11458722 379 18335140864878984562
11543360 7 15213305269666882378
12032990 46 18337112370900244987
12186901 62 17604140446177012445
13288520 33 18411983559237705598
13690532 89 18410855464607829906
13862211 1 18409441488259751187
14115302 16 17894920662866184678
14911166 2 18335695044677550855
15099037 51 18409445882205980199
15196674 1 18410574023811490057
15536298 74 18340203115255431448
16945 1 18335406955477662457
17804303 29 18411139147087032328
18186145 218 17604138337300551413
19141452 34 18131633413150942823
193761 8 17905039258149796489
200 152 17632573851109731431
20374829 77 18411136897199623342
20871999 31 18334867078378718764
21267235 1 18409174341821304747
221490 88 18118691147405170914
23175994 123 17418096520205251648
23402539 116 18201712960221776317
23463225 33 18335980960460593273
23559900 14 18341327877502394808
2748010 2 18192424384590066249
3004659 81 18187650164065031742
3286 77 17274817008353440529
335352 9 18410573972899786261
43471831 8 18188765046452501562
5104073 3 18411418444610263960
559249 180 18044368319613553490
7364860 26 18196371640135233048
8809292 202 18261114122745876619
9709674 26 18265052624952099354

>  <PUBCHEM_SHAPE_MULTIPOLES>  (1) 
282.67
8.39
1.92
0.6
6.51
0.47
-0.01
-3.29
-0.8
-0.1
-0.09
0.07
-0.04
0.38

>  <PUBCHEM_SHAPE_SELFOVERLAP>  (1) 
609.744

>  <PUBCHEM_SHAPE_VOLUME>  (1) 
154.1

>  <PUBCHEM_COORDINATE_TYPE>  (1) 
2
5
10

$$$$
