27686
     RDKit          3D

 34 37  0  0  1  0  0  0  0  0999 V2000
   -3.6476   -0.6985   -0.3371 O   0  0  0  0  0  0  0  0  0  0  0  0
   -1.3539   -3.2410   -0.3002 O   0  0  0  0  0  0  0  0  0  0  0  0
   -3.9126   -4.3394   -0.2421 O   0  0  0  0  0  0  0  0  0  0  0  0
   -1.1471    3.3279    0.6850 O   0  0  0  0  0  0  0  0  0  0  0  0
    3.6492   -0.9685   -0.8482 O   0  0  0  0  0  0  0  0  0  0  0  0
   -2.2408    0.6135   -2.1548 O   0  0  0  0  0  0  0  0  0  0  0  0
    2.1540   -1.3930    2.9220 O   0  0  0  0  0  0  0  0  0  0  0  0
    0.3648    5.2938    0.1234 O   0  0  0  0  0  0  0  0  0  0  0  0
    5.9370    0.0586   -1.2691 O   0  0  0  0  0  0  0  0  0  0  0  0
    0.5933    4.7454   -2.0851 O   0  0  0  0  0  0  0  0  0  0  0  0
    6.3991    0.4289    0.9399 O   0  0  0  0  0  0  0  0  0  0  0  0
   -3.6872   -3.0592   -0.8368 C   0  0  0  0  0  0  0  0  0  0  0  0
   -3.8966   -1.9836    0.2230 C   0  0  0  0  0  0  0  0  0  0  0  0
   -2.2643   -3.0369   -1.3794 C   0  0  0  0  0  0  0  0  0  0  0  0
   -3.2119    0.2740    0.5228 C   0  0  0  0  0  0  0  0  0  0  0  0
   -2.3809    1.3137    0.1126 C   0  0  0  0  0  0  0  0  0  0  0  0
   -0.1196   -2.6786   -0.4164 C   0  0  0  0  0  0  0  0  0  0  0  0
   -1.9651    2.2804    1.0293 C   0  0  0  0  0  0  0  0  0  0  0  0
    1.8392   -1.7025    0.5981 C   0  0  0  0  0  0  0  0  0  0  0  0
    0.5732   -2.2783    0.7270 C   0  0  0  0  0  0  0  0  0  0  0  0
    2.4093   -1.5284   -0.6637 C   0  0  0  0  0  0  0  0  0  0  0  0
   -3.6286    0.1970    1.8488 C   0  0  0  0  0  0  0  0  0  0  0  0
   -1.9268    1.4145   -1.2851 C   0  0  0  0  0  0  0  0  0  0  0  0
    0.4493   -2.5048   -1.6791 C   0  0  0  0  0  0  0  0  0  0  0  0
   -2.3813    2.2059    2.3585 C   0  0  0  0  0  0  0  0  0  0  0  0
    1.7142   -1.9296   -1.8046 C   0  0  0  0  0  0  0  0  0  0  0  0
   -3.2134    1.1630    2.7669 C   0  0  0  0  0  0  0  0  0  0  0  0
    2.5933   -1.2696    1.7870 C   0  0  0  0  0  0  0  0  0  0  0  0
   -1.0488    2.5585   -1.6050 C   0  0  0  0  0  0  0  0  0  0  0  0
   -0.7281    3.4130   -0.6260 C   0  0  0  0  0  0  0  0  0  0  0  0
    3.9215   -0.6738    1.5361 C   0  0  0  0  0  0  0  0  0  0  0  0
    4.3469   -0.5671    0.2714 C   0  0  0  0  0  0  0  0  0  0  0  0
    0.1435    4.5372   -0.9722 C   0  0  0  0  0  0  0  0  0  0  0  0
    5.6669    0.0275    0.0530 C   0  0  0  0  0  0  0  0  0  0  0  0
  1 13  1  0
  1 15  1  0
  2 14  1  0
  2 17  1  0
  3 12  1  0
  4 18  1  0
  4 30  1  0
  5 21  1  0
  5 32  1  0
  6 23  2  0
  7 28  2  0
  8 33  1  0
  9 34  1  0
 10 33  2  0
 11 34  2  0
 12 13  1  0
 12 14  1  0
 15 16  1  0
 15 22  2  0
 16 18  2  0
 16 23  1  0
 17 20  2  0
 17 24  1  0
 18 25  1  0
 19 20  1  0
 19 21  2  0
 19 28  1  0
 21 26  1  0
 22 27  1  0
 23 29  1  0
 24 26  2  0
 25 27  2  0
 28 31  1  0
 29 30  2  0
 30 33  1  0
 31 32  2  0
 32 34  1  0
M  END
>  <PUBCHEM_COMPOUND_CID>  (1) 
27686

>  <PUBCHEM_CONFORMER_RMSD>  (1) 
1

>  <PUBCHEM_CONFORMER_DIVERSEORDER>  (1) 
1
5
12
131
19
56
98
39
78
145
8
106
14
159
155
151
11
146
50
65
59
90
136
71
22
95
79
3
48
141
81
157
103
91
104
156
144
10
23
94
160
118
27
84
75
92
4
137
107
120
109
74
28
85
152
29
112
158
100
123
17
116
122
83
138
66
89
80
52
44
82
114
135
99
26
140
76
126
87
38
143
102
113
97
49
115
121
133
88
119
105
36
124
35
129
43
73
69
130
45
96
134
111
125
70
32
37
15
30
57
61
20
18
46
21
51
154
31
54
147
7
117
149
72
58
40
64
2
34
68
142
42
16
67
63
13
33
47
41
86
77
24
6
25
60
62
127
128
132
150
101
9
139
108
153
93
53
110
55
148

>  <PUBCHEM_MMFF94_PARTIAL_CHARGES>  (1) 
45
1 -0.36
10 -0.57
11 -0.57
12 0.28
13 0.28
14 0.28
15 0.08
16 0.09
17 0.08
18 0.08
19 0.09
2 -0.36
20 -0.15
21 0.08
22 -0.15
23 0.47
24 -0.15
25 -0.15
26 -0.15
27 -0.15
28 0.47
29 -0.14
3 -0.68
30 0.09
31 -0.14
32 0.09
33 0.71
34 0.71
4 -0.16
40 0.15
41 0.15
42 0.15
43 0.15
44 0.15
45 0.15
46 0.4
47 0.15
48 0.15
49 0.5
5 -0.16
50 0.5
6 -0.57
7 -0.57
8 -0.65
9 -0.65

>  <PUBCHEM_EFFECTIVE_ROTOR_COUNT>  (1) 
8

>  <PUBCHEM_PHARMACOPHORE_FEATURES>  (1) 
18
1 1 acceptor
1 10 acceptor
1 11 acceptor
1 2 acceptor
1 3 acceptor
1 3 donor
1 4 acceptor
1 5 acceptor
1 6 acceptor
1 7 acceptor
1 8 acceptor
1 9 acceptor
3 8 10 33 anion
3 9 11 34 anion
6 15 16 18 22 25 27 rings
6 17 19 20 21 24 26 rings
6 4 16 18 23 29 30 rings
6 5 19 21 28 31 32 rings

>  <PUBCHEM_HEAVY_ATOM_COUNT>  (1) 
34

>  <PUBCHEM_ATOM_DEF_STEREO_COUNT>  (1) 
0

>  <PUBCHEM_ATOM_UDEF_STEREO_COUNT>  (1) 
1

>  <PUBCHEM_BOND_DEF_STEREO_COUNT>  (1) 
0

>  <PUBCHEM_BOND_UDEF_STEREO_COUNT>  (1) 
0

>  <PUBCHEM_ISOTOPIC_ATOM_COUNT>  (1) 
0

>  <PUBCHEM_COMPONENT_COUNT>  (1) 
1

>  <PUBCHEM_CACTVS_TAUTO_COUNT>  (1) 
1

>  <PUBCHEM_CONFORMER_ID>  (1) 
00006C2600000001

>  <PUBCHEM_MMFF94_ENERGY>  (1) 
108.433

>  <PUBCHEM_FEATURE_SELFOVERLAP>  (1) 
91.572

>  <PUBCHEM_SHAPE_FINGERPRINT>  (1) 
10032420 55 17604408799828140913
10165383 225 17408274389930246799
10256941 240 17759209952990393128
11513181 2 17127599127302560894
11595378 159 18334287652519923538
12156800 1 14688354627254196151
128993 33 17484520036516544947
13761468 95 18266178340565394454
14840074 17 18336278859366227697
15021287 119 17895470303486563466
151778 21 17334509198140871881
15975801 100 18189629250519142044
17627616 140 17760937641717396220
21796203 349 17829090711183307240
21927370 108 18263086676713556426
25019877 29 16916230008227369263
3493558 16 17836366317416149472
392239 28 18334577953991628044
469060 322 18408323310799000771
50677037 204 18339366391755899896
5252454 2 18057889034852380826
6287921 2 18129400244614860208
6608658 132 18334305275223841604
9981440 41 17615383888800201641

>  <PUBCHEM_SHAPE_MULTIPOLES>  (1) 
635.14
9.28
6.22
2.36
14.41
5.14
0.92
-2.5
2.55
-4.96
-3.03
-0.51
0.7
-1.31

>  <PUBCHEM_SHAPE_SELFOVERLAP>  (1) 
1405.772

>  <PUBCHEM_SHAPE_VOLUME>  (1) 
336.3

>  <PUBCHEM_COORDINATE_TYPE>  (1) 
2
5
10

$$$$
