27682
     RDKit          3D

  8  8  0  0  1  0  0  0  0  0999 V2000
   -1.8112   -1.0191   -0.1240 S   0  0  0  0  0  0  0  0  0  0  0  0
   -1.8151    1.0117    0.1241 S   0  0  0  0  0  0  0  0  0  0  0  0
    1.0982   -1.5268    0.9903 O   0  0  0  0  0  0  0  0  0  0  0  0
    1.0916    1.5313   -0.9904 O   0  0  0  0  0  0  0  0  0  0  0  0
    0.9631   -0.7418   -0.1943 C   0  0  0  0  0  0  0  0  0  0  0  0
    0.9599    0.7457    0.1941 C   0  0  0  0  0  0  0  0  0  0  0  0
   -0.2408   -1.2264   -1.0146 C   0  0  0  0  0  0  0  0  0  0  0  0
   -0.2456    1.2254    1.0148 C   0  0  0  0  0  0  0  0  0  0  0  0
  1  2  1  0
  1  7  1  0
  2  8  1  0
  3  5  1  0
  4  6  1  0
  5  6  1  0
  5  7  1  0
  6  8  1  0
M  END
>  <PUBCHEM_COMPOUND_CID>  (1) 
27682

>  <PUBCHEM_CONFORMER_RMSD>  (1) 
0.4

>  <PUBCHEM_CONFORMER_DIVERSEORDER>  (1) 
4
6
5
3
7
1
2

>  <PUBCHEM_MMFF94_PARTIAL_CHARGES>  (1) 
10
1 -0.23
15 0.4
16 0.4
2 -0.23
3 -0.68
4 -0.68
5 0.28
6 0.28
7 0.23
8 0.23

>  <PUBCHEM_EFFECTIVE_ROTOR_COUNT>  (1) 
1.2

>  <PUBCHEM_PHARMACOPHORE_FEATURES>  (1) 
5
1 3 acceptor
1 3 donor
1 4 acceptor
1 4 donor
6 1 2 5 6 7 8 rings

>  <PUBCHEM_HEAVY_ATOM_COUNT>  (1) 
8

>  <PUBCHEM_ATOM_DEF_STEREO_COUNT>  (1) 
0

>  <PUBCHEM_ATOM_UDEF_STEREO_COUNT>  (1) 
2

>  <PUBCHEM_BOND_DEF_STEREO_COUNT>  (1) 
0

>  <PUBCHEM_BOND_UDEF_STEREO_COUNT>  (1) 
0

>  <PUBCHEM_ISOTOPIC_ATOM_COUNT>  (1) 
0

>  <PUBCHEM_COMPONENT_COUNT>  (1) 
1

>  <PUBCHEM_CACTVS_TAUTO_COUNT>  (1) 
1

>  <PUBCHEM_CONFORMER_ID>  (1) 
00006C2200000004

>  <PUBCHEM_MMFF94_ENERGY>  (1) 
5.1222

>  <PUBCHEM_FEATURE_SELFOVERLAP>  (1) 
25.371

>  <PUBCHEM_SHAPE_FINGERPRINT>  (1) 
137420 1 17546505176167610982
16714656 1 17767138861633438773
18185500 45 18412260618966891443
20653091 64 18334289864401206883
21040471 1 18200312263685391845
241688 4 16758052792523589243
24536 1 17897141706461046727
29004967 10 17460325351618663848
5084963 1 18192997234142385629
5943 1 14357108109049015526

>  <PUBCHEM_SHAPE_MULTIPOLES>  (1) 
160.6
2.06
1.9
1.06
0.82
0
0
0
0
0.02
0
-0.25
0
-0.37

>  <PUBCHEM_SHAPE_SELFOVERLAP>  (1) 
285.14

>  <PUBCHEM_SHAPE_VOLUME>  (1) 
105.5

>  <PUBCHEM_COORDINATE_TYPE>  (1) 
2
5
10

$$$$
