27690
     RDKit          3D

  8  7  0  0  0  0  0  0  0  0999 V2000
   -1.8888    1.7748   -0.0132 O   0  0  0  0  0  0  0  0  0  0  0  0
   -1.3200   -0.4854    0.0589 N   0  0  0  0  0  0  0  0  0  0  0  0
   -1.6991   -1.7736   -0.2801 N   0  0  0  0  0  0  0  0  0  0  0  0
    1.0853   -0.1203   -0.2386 C   0  0  0  0  0  0  0  0  0  0  0  0
   -0.0538   -0.3135    0.7610 C   0  0  0  0  0  0  0  0  0  0  0  0
    2.4208    0.0836    0.4779 C   0  0  0  0  0  0  0  0  0  0  0  0
    3.5653    0.2414   -0.5103 C   0  0  0  0  0  0  0  0  0  0  0  0
   -2.1097    0.5930   -0.2556 C   0  0  0  0  0  0  0  0  0  0  0  0
  1  8  2  0
  2  3  1  0
  2  5  1  0
  2  8  1  0
  4  5  1  0
  4  6  1  0
  6  7  1  0
M  END
>  <PUBCHEM_COMPOUND_CID>  (1) 
27690

>  <PUBCHEM_CONFORMER_RMSD>  (1) 
0.6

>  <PUBCHEM_CONFORMER_DIVERSEORDER>  (1) 
1
22
4
20
9
23
10
13
21
12
11
16
19
15
14
18
7
17
5
2
3
6
8

>  <PUBCHEM_MMFF94_PARTIAL_CHARGES>  (1) 
8
1 -0.57
18 0.36
19 0.36
2 -0.35
20 0.06
3 -0.73
5 0.3
8 0.57

>  <PUBCHEM_EFFECTIVE_ROTOR_COUNT>  (1) 
4

>  <PUBCHEM_PHARMACOPHORE_FEATURES>  (1) 
3
1 1 acceptor
1 3 donor
1 7 hydrophobe

>  <PUBCHEM_HEAVY_ATOM_COUNT>  (1) 
8

>  <PUBCHEM_ATOM_DEF_STEREO_COUNT>  (1) 
0

>  <PUBCHEM_ATOM_UDEF_STEREO_COUNT>  (1) 
0

>  <PUBCHEM_BOND_DEF_STEREO_COUNT>  (1) 
0

>  <PUBCHEM_BOND_UDEF_STEREO_COUNT>  (1) 
0

>  <PUBCHEM_ISOTOPIC_ATOM_COUNT>  (1) 
0

>  <PUBCHEM_COMPONENT_COUNT>  (1) 
1

>  <PUBCHEM_CACTVS_TAUTO_COUNT>  (1) 
1

>  <PUBCHEM_CONFORMER_ID>  (1) 
00006C2A00000001

>  <PUBCHEM_MMFF94_ENERGY>  (1) 
1.9628

>  <PUBCHEM_FEATURE_SELFOVERLAP>  (1) 
15.223

>  <PUBCHEM_SHAPE_FINGERPRINT>  (1) 
12716758 59 18343015567125208042
12897270 3 18341608265261295390
12932741 1 17632290203190701602
12932764 1 18341897415608366818
14390081 3 18410289211982982496
16714656 1 18411697686399015633
19973954 147 18340204206198373008
20653085 51 18263939764639612512
21040471 1 18267294344514054891
23552449 1 18341046414666631521
29004967 10 16486980634631156058
3248919 1 17386004009700835098

>  <PUBCHEM_SHAPE_MULTIPOLES>  (1) 
148.8
4.74
1.32
0.76
3.69
0
-0.06
-0.82
0.78
-1.32
0.11
0.2
0.03
-0.11

>  <PUBCHEM_SHAPE_SELFOVERLAP>  (1) 
264.909

>  <PUBCHEM_SHAPE_VOLUME>  (1) 
97

>  <PUBCHEM_COORDINATE_TYPE>  (1) 
2
5
10

$$$$
