27695
     RDKit          3D

 13 14  0  0  0  0  0  0  0  0999 V2000
   -3.2452   -1.4915   -0.0015 O   0  0  0  0  0  0  0  0  0  0  0  0
   -3.4249    0.7743   -0.0002 O   0  0  0  0  0  0  0  0  0  0  0  0
   -0.4765    0.8741   -0.0001 N   0  0  0  0  0  0  0  0  0  0  0  0
    0.8544    0.5221   -0.0004 C   0  0  0  0  0  0  0  0  0  0  0  0
    0.9105   -0.8733    0.0005 C   0  0  0  0  0  0  0  0  0  0  0  0
   -1.2616   -0.2475    0.0006 C   0  0  0  0  0  0  0  0  0  0  0  0
   -0.4320   -1.3451    0.0009 C   0  0  0  0  0  0  0  0  0  0  0  0
    2.0012    1.3241   -0.0010 C   0  0  0  0  0  0  0  0  0  0  0  0
    2.1718   -1.5013    0.0007 C   0  0  0  0  0  0  0  0  0  0  0  0
   -0.9741    2.2345    0.0013 C   0  0  0  0  0  0  0  0  0  0  0  0
    3.2412    0.6790   -0.0009 C   0  0  0  0  0  0  0  0  0  0  0  0
    3.3275   -0.7119    0.0001 C   0  0  0  0  0  0  0  0  0  0  0  0
   -2.6925   -0.2375    0.0001 C   0  0  0  0  0  0  0  0  0  0  0  0
  1 13  1  0
  2 13  2  0
  3  4  1  0
  3  6  1  0
  3 10  1  0
  4  5  2  0
  4  8  1  0
  5  7  1  0
  5  9  1  0
  6  7  2  0
  6 13  1  0
  8 11  2  0
  9 12  2  0
 11 12  1  0
M  END
>  <PUBCHEM_COMPOUND_CID>  (1) 
27695

>  <PUBCHEM_CONFORMER_RMSD>  (1) 
0.4

>  <PUBCHEM_CONFORMER_DIVERSEORDER>  (1) 
1
2

>  <PUBCHEM_MMFF94_PARTIAL_CHARGES>  (1) 
18
1 -0.65
10 0.26
11 -0.15
12 -0.15
13 0.81
14 0.15
15 0.15
16 0.15
2 -0.57
20 0.15
21 0.15
22 0.5
3 0.05
4 -0.15
6 -0.24
7 -0.15
8 -0.15
9 -0.15

>  <PUBCHEM_EFFECTIVE_ROTOR_COUNT>  (1) 
1

>  <PUBCHEM_PHARMACOPHORE_FEATURES>  (1) 
6
1 1 acceptor
1 2 acceptor
1 3 cation
3 1 2 13 anion
5 3 4 5 6 7 rings
6 4 5 8 9 11 12 rings

>  <PUBCHEM_HEAVY_ATOM_COUNT>  (1) 
13

>  <PUBCHEM_ATOM_DEF_STEREO_COUNT>  (1) 
0

>  <PUBCHEM_ATOM_UDEF_STEREO_COUNT>  (1) 
0

>  <PUBCHEM_BOND_DEF_STEREO_COUNT>  (1) 
0

>  <PUBCHEM_BOND_UDEF_STEREO_COUNT>  (1) 
0

>  <PUBCHEM_ISOTOPIC_ATOM_COUNT>  (1) 
0

>  <PUBCHEM_COMPONENT_COUNT>  (1) 
1

>  <PUBCHEM_CACTVS_TAUTO_COUNT>  (1) 
1

>  <PUBCHEM_CONFORMER_ID>  (1) 
00006C2F00000001

>  <PUBCHEM_MMFF94_ENERGY>  (1) 
26.1097

>  <PUBCHEM_FEATURE_SELFOVERLAP>  (1) 
30.595

>  <PUBCHEM_SHAPE_FINGERPRINT>  (1) 
10608611 8 18410006632878066220
10967382 1 18338797814561214790
11132069 177 18341889684250392112
11206711 2 18336831875070596116
11471102 20 18410287004042510957
11769659 78 18408598149977236178
11806522 49 18194396917156619967
12032990 46 18410017670986149987
12932764 1 17385997343421078499
13380535 76 18337389439425399082
14144814 61 18411982455320301818
14325111 11 18410575106164315137
15442244 35 18122624946801416242
16945 1 18410575080705786690
17844478 74 18041002842910598141
18186145 218 18040995124574961367
193761 8 17762055441273350054
19973954 147 18339080376465474636
20201158 50 18409448076760441842
20645477 70 18411976936614945919
21267235 1 18410865377266170743
21501502 16 18338519612576560488
2334 1 18266741461842909283
23402539 116 18411407419645479222
23402655 69 18268695144536297757
23463225 33 18409167714248566294
23552423 10 18333170552857982678
23559900 14 18340764841675968666
25610 137 18409172142217579533
2748010 2 17978794837285164852
3312278 4 18409451388248604059
5084963 1 18273214158162645426
528886 8 18411976979194879322
7364860 26 18343021138199106520
8809292 202 18260835881816346755

>  <PUBCHEM_SHAPE_MULTIPOLES>  (1) 
250.81
5.32
1.87
0.6
0.95
0.45
0
-0.62
0
0.2
0
-0.05
0
0

>  <PUBCHEM_SHAPE_SELFOVERLAP>  (1) 
550.114

>  <PUBCHEM_SHAPE_VOLUME>  (1) 
138.3

>  <PUBCHEM_COORDINATE_TYPE>  (1) 
2
5
10

$$$$
