27698
     RDKit          3D

 24 26  0  0  0  0  0  0  0  0999 V2000
    5.3418   -0.5781   -0.2702 O   0  0  0  0  0  0  0  0  0  0  0  0
   -1.1763   -3.5242   -0.0524 N   0  0  0  0  0  0  0  0  0  0  0  0
   -1.0836   -0.0164   -0.0107 C   0  0  0  0  0  0  0  0  0  0  0  0
   -0.5462    1.3680   -0.0140 C   0  0  0  0  0  0  0  0  0  0  0  0
   -2.5510   -0.2392    0.0440 C   0  0  0  0  0  0  0  0  0  0  0  0
   -0.2355   -1.0952   -0.0574 C   0  0  0  0  0  0  0  0  0  0  0  0
    1.2116   -0.9610   -0.1129 C   0  0  0  0  0  0  0  0  0  0  0  0
   -0.2571    1.9750    1.1908 C   0  0  0  0  0  0  0  0  0  0  0  0
   -3.2580   -0.3237   -1.1377 C   0  0  0  0  0  0  0  0  0  0  0  0
   -0.3510    2.0034   -1.2231 C   0  0  0  0  0  0  0  0  0  0  0  0
   -3.1607   -0.3565    1.2760 C   0  0  0  0  0  0  0  0  0  0  0  0
    1.8582   -0.8809   -1.3462 C   0  0  0  0  0  0  0  0  0  0  0  0
    1.9530   -0.9128    1.0677 C   0  0  0  0  0  0  0  0  0  0  0  0
    3.2462   -0.7527   -1.3989 C   0  0  0  0  0  0  0  0  0  0  0  0
    3.3409   -0.7846    1.0149 C   0  0  0  0  0  0  0  0  0  0  0  0
    3.9876   -0.7047   -0.2184 C   0  0  0  0  0  0  0  0  0  0  0  0
    0.2496    3.2745    1.1864 C   0  0  0  0  0  0  0  0  0  0  0  0
   -4.6358   -0.5350   -1.0851 C   0  0  0  0  0  0  0  0  0  0  0  0
    0.1557    3.3030   -1.2274 C   0  0  0  0  0  0  0  0  0  0  0  0
   -4.5385   -0.5678    1.3286 C   0  0  0  0  0  0  0  0  0  0  0  0
    0.4560    3.9386   -0.0226 C   0  0  0  0  0  0  0  0  0  0  0  0
   -5.2760   -0.6570    0.1481 C   0  0  0  0  0  0  0  0  0  0  0  0
   -0.7688   -2.4375   -0.0539 C   0  0  0  0  0  0  0  0  0  0  0  0
    6.0380   -0.5353    0.9745 C   0  0  0  0  0  0  0  0  0  0  0  0
  1 16  1  0
  1 24  1  0
  2 23  3  0
  3  4  1  0
  3  5  1  0
  3  6  2  3
  4  8  2  0
  4 10  1  0
  5  9  2  0
  5 11  1  0
  6  7  1  0
  6 23  1  0
  7 12  2  0
  7 13  1  0
  8 17  1  0
  9 18  1  0
 10 19  2  0
 11 20  2  0
 12 14  1  0
 13 15  2  0
 14 16  2  0
 15 16  1  0
 17 21  2  0
 18 22  2  0
 19 21  1  0
 20 22  1  0
M  END
>  <PUBCHEM_COMPOUND_CID>  (1) 
27698

>  <PUBCHEM_CONFORMER_RMSD>  (1) 
0.8

>  <PUBCHEM_CONFORMER_DIVERSEORDER>  (1) 
1

>  <PUBCHEM_MMFF94_PARTIAL_CHARGES>  (1) 
38
1 -0.36
10 -0.15
11 -0.15
12 -0.15
13 -0.15
14 -0.15
15 -0.15
16 0.08
17 -0.15
18 -0.15
19 -0.15
2 -0.56
20 -0.15
21 -0.15
22 -0.15
23 0.49
24 0.28
25 0.15
26 0.15
27 0.15
28 0.15
29 0.15
3 -0.06
30 0.15
31 0.15
32 0.15
33 0.15
34 0.15
35 0.15
36 0.15
37 0.15
38 0.15
4 0.03
5 0.03
6 0.04
7 0.03
8 -0.15
9 -0.15

>  <PUBCHEM_EFFECTIVE_ROTOR_COUNT>  (1) 
4

>  <PUBCHEM_PHARMACOPHORE_FEATURES>  (1) 
5
1 1 acceptor
1 2 acceptor
6 4 8 10 17 19 21 rings
6 5 9 11 18 20 22 rings
6 7 12 13 14 15 16 rings

>  <PUBCHEM_HEAVY_ATOM_COUNT>  (1) 
24

>  <PUBCHEM_ATOM_DEF_STEREO_COUNT>  (1) 
0

>  <PUBCHEM_ATOM_UDEF_STEREO_COUNT>  (1) 
0

>  <PUBCHEM_BOND_DEF_STEREO_COUNT>  (1) 
0

>  <PUBCHEM_BOND_UDEF_STEREO_COUNT>  (1) 
0

>  <PUBCHEM_ISOTOPIC_ATOM_COUNT>  (1) 
0

>  <PUBCHEM_COMPONENT_COUNT>  (1) 
1

>  <PUBCHEM_CACTVS_TAUTO_COUNT>  (1) 
1

>  <PUBCHEM_CONFORMER_ID>  (1) 
00006C3200000001

>  <PUBCHEM_MMFF94_ENERGY>  (1) 
92.0106

>  <PUBCHEM_FEATURE_SELFOVERLAP>  (1) 
25.373

>  <PUBCHEM_SHAPE_FINGERPRINT>  (1) 
10006869 2 17765721222326888921
10165383 225 17044897844470811236
10670039 82 18264225634311905380
10906281 52 18200892750048220622
10930396 42 18121184758905844632
1100329 8 18337675342096647595
11578080 2 17461694462649211790
11680986 33 18123464149119920531
12035758 1 18339922718178323507
12166972 35 17530970185443127900
12236239 1 17530964674789603142
12553582 1 18339936960142112182
12788726 201 18188203196342478362
13140716 1 18267586982364358770
13149001 5 18264212581067970271
13257819 101 13829577462691631625
133893 2 17903333137835840525
13911987 19 18334863822081638238
13965767 371 16550919229146847105
14170010 4 18340764944728751649
14181834 199 18268705198500758341
14347332 77 18196373611651907166
14787075 74 17676776464724954922
14790565 3 18411429388182249689
14955137 171 18340786908864605307
15849732 13 17775004575272890501
1601671 61 18338799997106331569
167882 2 18121498213476317509
17357779 13 18270667693543897573
17980427 23 17703511098870868421
1813 80 18343030977483716389
18222031 100 18343012303008137079
18365409 1 16916489472424622135
18785283 64 18119260703530041673
200 152 17167865244577137794
20028762 73 18058172902965502791
20344682 1 17775283850699078318
20510252 161 18267863887495463520
20600515 1 18342190980590818478
20642791 239 17826262814679537364
20905425 154 17404313282905060998
21029758 27 18334577949279740953
22182313 1 18191840453384514997
23175994 123 18334019384783204575
23366157 5 17755584089478604244
23402539 116 18343015567114820966
23419403 2 15253743147173830851
23557571 272 18271250422179984478
23558518 356 17683250165956404554
23845131 108 17189549572213962193
283562 15 18266740181979396658
3178227 256 18335997445294701339
350125 39 17907307546185149678
469060 322 18337123249936654112
621550 34 17774723061393723318
7399639 24 17845652539395608518
7495541 125 17822868592572956891
81228 2 18124053246544147929

>  <PUBCHEM_SHAPE_MULTIPOLES>  (1) 
483.06
9.29
3.57
1.41
3.63
3.79
-0.03
-5.5
1.29
0.1
-0.1
-0.05
0.29
0.06

>  <PUBCHEM_SHAPE_SELFOVERLAP>  (1) 
1059.942

>  <PUBCHEM_SHAPE_VOLUME>  (1) 
258.9

>  <PUBCHEM_COORDINATE_TYPE>  (1) 
2
5
10

$$$$
