27701
     RDKit          3D

 17 19  0  0  1  0  0  0  0  0999 V2000
    1.3081    2.7628   -0.3121 O   0  0  0  0  0  0  0  0  0  0  0  0
   -1.5234    2.9049   -0.3002 N   0  0  0  0  0  0  0  0  0  0  0  0
   -0.8116    1.6330   -0.5246 C   0  0  0  0  0  0  0  0  0  0  0  0
    0.5480    1.6644    0.2154 C   0  0  0  0  0  0  0  0  0  0  0  0
   -1.6410    0.4173   -0.1406 C   0  0  0  0  0  0  0  0  0  0  0  0
    1.4833    0.4612    0.1582 C   0  0  0  0  0  0  0  0  0  0  0  0
    0.0373   -0.9804   -1.4103 C   0  0  0  0  0  0  0  0  0  0  0  0
   -1.2317   -0.8494   -0.6053 C   0  0  0  0  0  0  0  0  0  0  0  0
    1.2716   -0.7249   -0.5775 C   0  0  0  0  0  0  0  0  0  0  0  0
   -2.7825    0.4967    0.6746 C   0  0  0  0  0  0  0  0  0  0  0  0
    2.6649    0.5615    0.9295 C   0  0  0  0  0  0  0  0  0  0  0  0
   -1.9706   -1.9941   -0.2691 C   0  0  0  0  0  0  0  0  0  0  0  0
    2.2474   -1.7431   -0.5411 C   0  0  0  0  0  0  0  0  0  0  0  0
   -3.5126   -0.6483    0.9997 C   0  0  0  0  0  0  0  0  0  0  0  0
    3.6151   -0.4583    0.9594 C   0  0  0  0  0  0  0  0  0  0  0  0
   -3.1097   -1.8917    0.5252 C   0  0  0  0  0  0  0  0  0  0  0  0
    3.4075   -1.6116    0.2188 C   0  0  0  0  0  0  0  0  0  0  0  0
  1  4  1  0
  2  3  1  0
  3  4  1  0
  3  5  1  0
  4  6  1  0
  5  8  2  0
  5 10  1  0
  6  9  2  0
  6 11  1  0
  7  8  1  0
  7  9  1  0
  8 12  1  0
  9 13  1  0
 10 14  2  0
 11 15  2  0
 12 16  2  0
 13 17  2  0
 14 16  1  0
 15 17  1  0
M  END
>  <PUBCHEM_COMPOUND_CID>  (1) 
27701

>  <PUBCHEM_CONFORMER_RMSD>  (1) 
0.6

>  <PUBCHEM_CONFORMER_DIVERSEORDER>  (1) 
2
4
1
3

>  <PUBCHEM_MMFF94_PARTIAL_CHARGES>  (1) 
28
1 -0.68
10 -0.15
11 -0.15
12 -0.15
13 -0.15
14 -0.15
15 -0.15
16 -0.15
17 -0.15
2 -0.99
22 0.15
23 0.15
24 0.15
25 0.36
26 0.36
27 0.15
28 0.4
29 0.15
3 0.41
30 0.15
31 0.15
32 0.15
4 0.42
5 -0.14
6 -0.14
7 0.29
8 -0.14
9 -0.14

>  <PUBCHEM_EFFECTIVE_ROTOR_COUNT>  (1) 
0.6

>  <PUBCHEM_PHARMACOPHORE_FEATURES>  (1) 
7
1 1 acceptor
1 1 donor
1 2 cation
1 2 donor
6 5 8 10 12 14 16 rings
6 6 9 11 13 15 17 rings
7 3 4 5 6 7 8 9 rings

>  <PUBCHEM_HEAVY_ATOM_COUNT>  (1) 
17

>  <PUBCHEM_ATOM_DEF_STEREO_COUNT>  (1) 
2

>  <PUBCHEM_ATOM_UDEF_STEREO_COUNT>  (1) 
0

>  <PUBCHEM_BOND_DEF_STEREO_COUNT>  (1) 
0

>  <PUBCHEM_BOND_UDEF_STEREO_COUNT>  (1) 
0

>  <PUBCHEM_ISOTOPIC_ATOM_COUNT>  (1) 
0

>  <PUBCHEM_COMPONENT_COUNT>  (1) 
1

>  <PUBCHEM_CACTVS_TAUTO_COUNT>  (1) 
1

>  <PUBCHEM_CONFORMER_ID>  (1) 
00006C3500000002

>  <PUBCHEM_MMFF94_ENERGY>  (1) 
54.8613

>  <PUBCHEM_FEATURE_SELFOVERLAP>  (1) 
35.542

>  <PUBCHEM_SHAPE_FINGERPRINT>  (1) 
10382601 240 18050310320224386009
10618630 7 18333450949703131994
10967382 1 18050567640267723774
11086676 242 18410582807051246064
11471102 22 18339365282931300402
11578080 2 17241031176374340252
11640471 11 13758065247521395734
12011746 2 18270117903211638981
12035758 1 18264206920670553977
12202030 40 16589721277626762619
12251169 10 18343587377638488819
12382932 28 18272652350412120475
12400797 245 18340206422163978023
12553582 1 18409452526325455070
12644460 14 18119835709166402377
12696612 119 18342178915990923182
12730499 353 16964912719983918405
12824470 246 17168412771334706754
13140716 1 18412266176860229537
13172582 1 18272090495685954439
13299463 15 11169921566987591335
14223421 5 18412538817031261384
14787075 74 17968660553034432650
14790565 3 17833275589988871488
15653759 3 18336265656557508386
16945 1 18411981368635579725
17780758 139 17538254287011870298
17804303 29 18270409278146320262
17844478 74 18411981334513230970
18186145 218 8358265860008940450
19049666 15 17982172210367106566
20361792 2 16587743152760140423
20559304 39 18268435813482212010
20645477 70 18045772640553734999
21421861 104 17616833453638828803
21501502 16 18268435813888445875
21731516 1 17967803955560426450
22112679 90 16768722955823631791
22445834 79 18052543458774032363
22721475 48 18412266129251644106
2334 1 18052534666648929949
23388829 49 17769077279068817743
23402539 116 18341883057949232845
23419403 2 13671276517117029694
23463225 33 18339644567500810217
23493267 7 18120370952465067130
23559900 14 17837774427167183878
2748010 2 18127130762436603012
43471831 8 17690000462976019957
568465 68 17774715377317331578
598444 67 18124320393631317455
7364860 26 18196095658062653448
81228 2 18263367997208055157
84936 31 15840723871764697343
8809292 202 17980478958465765102
90316 7 18335423417892324097

>  <PUBCHEM_SHAPE_MULTIPOLES>  (1) 
339
5.61
2.68
1.04
0.73
1.46
-0.02
-2.57
2.27
-0.42
-0.39
0.02
-0.17
0.33

>  <PUBCHEM_SHAPE_SELFOVERLAP>  (1) 
742.838

>  <PUBCHEM_SHAPE_VOLUME>  (1) 
181.5

>  <PUBCHEM_COORDINATE_TYPE>  (1) 
2
5
10

$$$$
