27708
     RDKit          3D

 22 24  0  0  0  0  0  0  0  0999 V2000
    0.9683   -0.9967   -0.0839 O   0  0  0  0  0  0  0  0  0  0  0  0
   -0.7516    2.6853   -0.3159 O   0  0  0  0  0  0  0  0  0  0  0  0
   -5.2478    0.2904    0.3351 N   0  0  0  0  0  0  0  0  0  0  0  0
   -1.0336    0.3528   -0.2806 C   0  0  0  0  0  0  0  0  0  0  0  0
   -3.1671   -0.7673   -0.4284 C   0  0  0  0  0  0  0  0  0  0  0  0
   -0.3907   -0.8780   -0.1975 C   0  0  0  0  0  0  0  0  0  0  0  0
   -4.6525   -0.7105   -0.5518 C   0  0  0  0  0  0  0  0  0  0  0  0
   -2.4250    0.4141   -0.3965 C   0  0  0  0  0  0  0  0  0  0  0  0
    1.2505    1.4136   -0.1152 C   0  0  0  0  0  0  0  0  0  0  0  0
    1.7332    0.1563   -0.0513 C   0  0  0  0  0  0  0  0  0  0  0  0
   -0.2260    1.5816   -0.2435 C   0  0  0  0  0  0  0  0  0  0  0  0
   -2.5228   -2.0019   -0.3449 C   0  0  0  0  0  0  0  0  0  0  0  0
   -1.1338   -2.0587   -0.2296 C   0  0  0  0  0  0  0  0  0  0  0  0
    3.1677   -0.1379    0.0686 C   0  0  0  0  0  0  0  0  0  0  0  0
    2.0484    2.6844   -0.0597 C   0  0  0  0  0  0  0  0  0  0  0  0
   -4.9341   -0.0140    1.7302 C   0  0  0  0  0  0  0  0  0  0  0  0
   -6.6949    0.3511    0.1369 C   0  0  0  0  0  0  0  0  0  0  0  0
    3.7534   -0.2530    1.3297 C   0  0  0  0  0  0  0  0  0  0  0  0
    3.9448   -0.3021   -1.0782 C   0  0  0  0  0  0  0  0  0  0  0  0
    5.1152   -0.5320    1.4437 C   0  0  0  0  0  0  0  0  0  0  0  0
    5.3067   -0.5812   -0.9642 C   0  0  0  0  0  0  0  0  0  0  0  0
    5.8918   -0.6962    0.2969 C   0  0  0  0  0  0  0  0  0  0  0  0
  1  6  1  0
  1 10  1  0
  2 11  2  0
  3  7  1  0
  3 16  1  0
  3 17  1  0
  4  6  2  0
  4  8  1  0
  4 11  1  0
  5  7  1  0
  5  8  2  0
  5 12  1  0
  6 13  1  0
  9 10  2  0
  9 11  1  0
  9 15  1  0
 10 14  1  0
 12 13  2  0
 14 18  2  0
 14 19  1  0
 18 20  1  0
 19 21  2  0
 20 22  2  0
 21 22  1  0
M  END
>  <PUBCHEM_COMPOUND_CID>  (1) 
27708

>  <PUBCHEM_CONFORMER_RMSD>  (1) 
0.6

>  <PUBCHEM_CONFORMER_DIVERSEORDER>  (1) 
1
4
2
5
3

>  <PUBCHEM_MMFF94_PARTIAL_CHARGES>  (1) 
30
1 -0.16
10 0.05
11 0.47
12 -0.15
13 -0.15
14 0.03
15 0.14
16 0.27
17 0.27
18 -0.15
19 -0.15
2 -0.57
20 -0.15
21 -0.15
22 -0.15
25 0.15
26 0.15
27 0.15
3 -0.81
37 0.15
38 0.15
39 0.15
4 0.09
40 0.15
41 0.15
5 -0.14
6 0.08
7 0.41
8 -0.15
9 -0.12

>  <PUBCHEM_EFFECTIVE_ROTOR_COUNT>  (1) 
3

>  <PUBCHEM_PHARMACOPHORE_FEATURES>  (1) 
6
1 1 acceptor
1 2 acceptor
1 3 cation
6 1 4 6 9 10 11 rings
6 14 18 19 20 21 22 rings
6 4 5 6 8 12 13 rings

>  <PUBCHEM_HEAVY_ATOM_COUNT>  (1) 
22

>  <PUBCHEM_ATOM_DEF_STEREO_COUNT>  (1) 
0

>  <PUBCHEM_ATOM_UDEF_STEREO_COUNT>  (1) 
0

>  <PUBCHEM_BOND_DEF_STEREO_COUNT>  (1) 
0

>  <PUBCHEM_BOND_UDEF_STEREO_COUNT>  (1) 
0

>  <PUBCHEM_ISOTOPIC_ATOM_COUNT>  (1) 
0

>  <PUBCHEM_COMPONENT_COUNT>  (1) 
1

>  <PUBCHEM_CACTVS_TAUTO_COUNT>  (1) 
1

>  <PUBCHEM_CONFORMER_ID>  (1) 
00006C3C00000001

>  <PUBCHEM_MMFF94_ENERGY>  (1) 
69.4803

>  <PUBCHEM_FEATURE_SELFOVERLAP>  (1) 
30.474

>  <PUBCHEM_SHAPE_FINGERPRINT>  (1) 
10906281 52 18340504338591775126
1100329 8 18337952397741706883
11405975 8 18338797939289567299
11646440 116 18059864969586134785
11796584 16 16660645141921639299
12236239 1 17603864465064768702
12553582 1 18335692845601658006
12633257 1 18410855490340886023
12730499 353 13262397748347096400
12788726 201 18260828146785864800
13140716 1 18338513178504476682
13533116 47 16486982743644981494
13862211 1 18409161112841965703
14251758 9 18272377481343173819
14251764 18 18341331192815908791
14528608 73 7997972370754468994
14790565 3 18409740551106654437
15042514 8 18192707848337335384
15099037 51 18411136952612068927
15142383 8 17603577500497569733
15196674 1 18339079423088100199
15475509 8 18057065556561991428
15537594 2 18186516605445647066
1601671 61 18412263921638687926
16752209 62 18261660490083470028
17492 89 17980758560652800783
17804303 29 18411134770615448214
17844677 252 15285358392644024591
1813 80 17967537856846132636
19141452 34 17988920102126175462
19489759 90 16630809902792603811
200 152 16660358161113190118
20028762 73 18201153364644036727
20691752 17 17532634927288007440
21029758 27 18113339712765104269
21033648 29 17203313542638677946
21054139 6 8502364504066068249
21267235 1 18408327678669678238
21279426 13 18123470484175440711
21285901 2 18270973331816380814
21344244 181 13118281421688787224
21792934 111 18336814326108927408
22182313 1 18198062469394542215
2297311 6 18341055142762714342
23366157 5 17898002688749172044
23402539 116 18201712968664206343
23522609 53 18043840678059161501
23536379 177 15719389512423075495
23557571 272 18129948884507501804
23559900 14 18271527606542622452
23569943 247 17771921427830082879
23622692 88 18413390938674591605
23845131 108 16693880956121260952
25147074 1 18268145555323839677
2838139 119 14907901527338782739
3004659 81 18260552234197627036
314173 85 18342458140431196352
33382 64 15936405611307387777
335352 9 18411136952775320143
3411729 13 18197771318791047544
350125 39 18408886222192960485
3680242 22 18408322168474732986
4325135 7 9367349236669823499
4340502 62 14692574333774912605
4463277 17 18408604768637832004
465052 167 18186809088143559515
5104073 3 18267868461677975427
5207 217 10375865282141650389
57527293 21 17915149474358857514
59755656 215 18341334387908067711
6328613 192 18339370759025463940
7226269 152 17989490697606576497
7495541 125 17385449855239107564
8863177 126 17678752343476785563
9971528 1 17988926682374404796

>  <PUBCHEM_SHAPE_MULTIPOLES>  (1) 
436.03
13.58
1.99
1.09
4.33
1.04
-0.38
-2.65
-2.68
0.07
0.29
-0.42
-0.12
-0.36

>  <PUBCHEM_SHAPE_SELFOVERLAP>  (1) 
949.474

>  <PUBCHEM_SHAPE_VOLUME>  (1) 
239.2

>  <PUBCHEM_COORDINATE_TYPE>  (1) 
2
5
10

$$$$
