27702
     RDKit          3D

 15 16  0  0  0  0  0  0  0  0999 V2000
   -0.5376   -1.4814   -0.4280 O   0  0  0  0  0  0  0  0  0  0  0  0
    1.4483    0.2835   -0.9189 O   0  0  0  0  0  0  0  0  0  0  0  0
    2.1166    0.1335    1.3030 O   0  0  0  0  0  0  0  0  0  0  0  0
    3.5588   -0.4570   -0.4156 N   0  0  0  0  0  0  0  0  0  0  0  0
   -3.2025   -0.6111    0.4407 C   0  0  0  0  0  0  0  0  0  0  0  0
   -2.9221   -1.9752   -0.1748 C   0  0  0  0  0  0  0  0  0  0  0  0
   -2.0643    0.3306    0.1680 C   0  0  0  0  0  0  0  0  0  0  0  0
   -1.4924   -2.3813    0.1446 C   0  0  0  0  0  0  0  0  0  0  0  0
   -0.8109   -0.1513   -0.2335 C   0  0  0  0  0  0  0  0  0  0  0  0
   -2.2416    1.7094    0.3419 C   0  0  0  0  0  0  0  0  0  0  0  0
    0.2353    0.7377   -0.4942 C   0  0  0  0  0  0  0  0  0  0  0  0
   -1.1917    2.5941    0.0930 C   0  0  0  0  0  0  0  0  0  0  0  0
    0.0444    2.1087   -0.3284 C   0  0  0  0  0  0  0  0  0  0  0  0
    2.3651   -0.0059    0.1091 C   0  0  0  0  0  0  0  0  0  0  0  0
    4.6946   -0.8342    0.3931 C   0  0  0  0  0  0  0  0  0  0  0  0
  1  8  1  0
  1  9  1  0
  2 11  1  0
  2 14  1  0
  3 14  2  0
  4 14  1  0
  4 15  1  0
  5  6  1  0
  5  7  1  0
  6  8  1  0
  7  9  2  0
  7 10  1  0
  9 11  1  0
 10 12  2  0
 11 13  2  0
 12 13  1  0
M  END
>  <PUBCHEM_COMPOUND_CID>  (1) 
27702

>  <PUBCHEM_CONFORMER_RMSD>  (1) 
0.6

>  <PUBCHEM_CONFORMER_DIVERSEORDER>  (1) 
1
27
9
17
19
20
11
24
10
21
6
7
12
22
8
5
23
25
18
26
3
4
15
16
14
13
2

>  <PUBCHEM_MMFF94_PARTIAL_CHARGES>  (1) 
18
1 -0.36
10 -0.15
11 0.08
12 -0.15
13 -0.15
14 0.78
15 0.3
2 -0.23
22 0.15
23 0.15
24 0.15
25 0.37
3 -0.57
4 -0.73
5 0.14
7 -0.14
8 0.28
9 0.08

>  <PUBCHEM_EFFECTIVE_ROTOR_COUNT>  (1) 
3.8

>  <PUBCHEM_PHARMACOPHORE_FEATURES>  (1) 
5
1 1 acceptor
1 3 acceptor
1 4 donor
6 1 5 6 7 8 9 rings
6 7 9 10 11 12 13 rings

>  <PUBCHEM_HEAVY_ATOM_COUNT>  (1) 
15

>  <PUBCHEM_ATOM_DEF_STEREO_COUNT>  (1) 
0

>  <PUBCHEM_ATOM_UDEF_STEREO_COUNT>  (1) 
0

>  <PUBCHEM_BOND_DEF_STEREO_COUNT>  (1) 
0

>  <PUBCHEM_BOND_UDEF_STEREO_COUNT>  (1) 
0

>  <PUBCHEM_ISOTOPIC_ATOM_COUNT>  (1) 
0

>  <PUBCHEM_COMPONENT_COUNT>  (1) 
1

>  <PUBCHEM_CACTVS_TAUTO_COUNT>  (1) 
2

>  <PUBCHEM_CONFORMER_ID>  (1) 
00006C3600000001

>  <PUBCHEM_MMFF94_ENERGY>  (1) 
38.7281

>  <PUBCHEM_FEATURE_SELFOVERLAP>  (1) 
25.401

>  <PUBCHEM_SHAPE_FINGERPRINT>  (1) 
13024252 1 14779555538991458981
13140716 1 18268158720005126905
14420673 8 17761207714400643562
15375462 189 18040999578450649394
16752209 62 18261941982208440447
16945 1 18340497720168484653
17804303 29 18343025488583940650
18186145 218 11026059241127400474
19049666 15 17773041843473949278
19422 9 18114188510367237822
20510252 161 18271810064407603896
20645477 70 17615960445722401671
20871998 184 18272653441344350366
21650355 55 18411132524337399152
2297311 6 18271259261344024934
232386 152 18336272343742278806
2334 1 17907586074950997223
23402539 116 18271799117078973583
23419403 2 17558521812210574561
23552423 10 17543357510980025077
23557571 272 18272380771894875036
23559900 14 18199750242188854558
257057 1 18053657255405129647
2748010 2 18196091260316783933
3286 77 16701731765358452803
43471831 8 18190462662209141083
5706482 22 18268143150310880649
58807428 26 18122075199667049539
6338986 31 18054499481306913319
7364860 26 17764592409841323441
77492 1 17749120967284289588
81228 2 18411146826609909457

>  <PUBCHEM_SHAPE_MULTIPOLES>  (1) 
286.1
5.94
2.55
0.81
7.35
0.42
0.07
-2.83
0.93
-2.13
-0.03
0.24
0.03
-0.23

>  <PUBCHEM_SHAPE_SELFOVERLAP>  (1) 
605.164

>  <PUBCHEM_SHAPE_VOLUME>  (1) 
158.3

>  <PUBCHEM_COORDINATE_TYPE>  (1) 
2
5
10

$$$$
