27719
     RDKit          3D

 25 26  0  0  1  0  0  0  0  0999 V2000
   -1.6595    1.8448   -0.4185 O   0  0  0  0  0  0  0  0  0  0  0  0
    3.7667    0.5934    0.8995 O   0  0  0  0  0  0  0  0  0  0  0  0
   -0.1655    0.0947   -0.2322 O   0  0  0  0  0  0  0  0  0  0  0  0
    2.6774    2.9936    0.9101 O   0  0  0  0  0  0  0  0  0  0  0  0
    0.5432    2.2977    0.2392 N   0  0  0  0  0  0  0  0  0  0  0  0
   -5.2109   -1.2722    0.8276 C   0  0  0  0  0  0  0  0  0  0  0  0
   -4.4196   -2.0928    1.8829 C   0  0  0  0  0  0  0  0  0  0  0  0
   -4.3589   -0.6155   -0.2052 C   0  0  0  0  0  0  0  0  0  0  0  0
   -6.0958   -0.2482    1.5699 C   0  0  0  0  0  0  0  0  0  0  0  0
   -3.5630   -3.1860    1.2556 C   0  0  0  0  0  0  0  0  0  0  0  0
   -3.3961    0.3190    0.1760 C   0  0  0  0  0  0  0  0  0  0  0  0
   -4.5249   -0.9361   -1.5525 C   0  0  0  0  0  0  0  0  0  0  0  0
   -2.6251    0.9074   -0.8005 C   0  0  0  0  0  0  0  0  0  0  0  0
   -3.7278   -0.3221   -2.5187 C   0  0  0  0  0  0  0  0  0  0  0  0
   -2.7649    0.6123   -2.1375 C   0  0  0  0  0  0  0  0  0  0  0  0
   -0.3964    1.2983   -0.1435 C   0  0  0  0  0  0  0  0  0  0  0  0
    1.9036    2.0888    0.5846 C   0  0  0  0  0  0  0  0  0  0  0  0
    2.3989    0.6548    0.5406 C   0  0  0  0  0  0  0  0  0  0  0  0
    0.0674    3.6828    0.2878 C   0  0  0  0  0  0  0  0  0  0  0  0
    4.5095   -0.4253    0.3549 C   0  0  0  0  0  0  0  0  0  0  0  0
    3.8948   -1.6313    0.0439 C   0  0  0  0  0  0  0  0  0  0  0  0
    5.8656   -0.2360    0.1224 C   0  0  0  0  0  0  0  0  0  0  0  0
    4.6492   -2.6658   -0.5092 C   0  0  0  0  0  0  0  0  0  0  0  0
    6.6200   -1.2708   -0.4307 C   0  0  0  0  0  0  0  0  0  0  0  0
    6.0119   -2.4856   -0.7466 C   0  0  0  0  0  0  0  0  0  0  0  0
  1 13  1  0
  1 16  1  0
  2 18  1  0
  2 20  1  0
  3 16  2  0
  4 17  2  0
  5 16  1  0
  5 17  1  0
  5 19  1  0
  6  7  1  0
  6  8  1  0
  6  9  1  0
  7 10  1  0
  8 11  2  0
  8 12  1  0
 11 13  1  0
 12 14  2  0
 13 15  2  0
 14 15  1  0
 17 18  1  0
 20 21  2  0
 20 22  1  0
 21 23  1  0
 22 24  2  0
 23 25  2  0
 24 25  1  0
M  END
>  <PUBCHEM_COMPOUND_CID>  (1) 
27719

>  <PUBCHEM_CONFORMER_RMSD>  (1) 
1

>  <PUBCHEM_CONFORMER_DIVERSEORDER>  (1) 
1
23
14
198
48
387
353
334
158
386
109
371
281
126
42
393
370
345
216
228
269
74
120
365
265
20
390
231
223
90
67
24
285
312
25
225
65
17
277
82
53
264
105
304
174
360
376
341
268
9
368
164
328
263
384
214
337
367
55
238
276
140
84
364
233
19
355
64
256
5
260
54
147
194
146
349
252
134
153
107
385
199
262
49
347
283
38
79
86
142
362
58
213
378
177
321
192
179
249
145
236
114
394
288
144
190
254
141
119
203
92
346
75
154
397
375
184
116
156
391
47
358
28
70
303
274
326
227
172
101
305
342
183
202
162
338
127
396
206
251
104
257
267
182
171
35
97
26
392
40
133
10
221
160
344
188
250
325
313
340
178
380
317
330
208
157
350
187
169
211
219
366
282
148
308
87
15
316
230
373
201
150
239
298
351
354
307
166
331
108
278
6
7
296
374
11
336
121
372
247
29
98
89
300
289
181
68
93
124
253
59
327
279
302
348
357
195
309
339
270
224
207
62
287
46
379
106
204
352
51
191
272
295
88
205
291
189
290
369
320
363
217
112
80
132
81
33
318
21
242
22
229
389
137
136
57
13
151
129
139
61
335
245
306
103
30
218
8
180
226
2
131
102
314
359
395
167
237
301
332
165
39
168
343
3
111
292
255
41
176
311
377
383
16
32
161
63
234
115
52
163
12
275
220
297
315
284
83
117
200
382
125
333
175
43
118
72
91
170
398
71
27
149
210
209
299
69
259
271
356
243
186
73
294
77
94
113
324
143
100
159
241
45
273
110
50
319
99
381
388
196
193
36
122
18
293
4
212
266
123
152
244
173
246
138
155
322
310
240
85
215
76
37
78
329
185
286
44
197
56
130
235
128
96
323
34
361
31
261
222
135
60
95
248
258
280
232
66

>  <PUBCHEM_MMFF94_PARTIAL_CHARGES>  (1) 
31
1 -0.23
11 -0.15
12 -0.15
13 0.08
14 -0.15
15 -0.15
16 0.78
17 0.57
18 0.34
19 0.3
2 -0.36
20 0.08
21 -0.15
22 -0.15
23 -0.15
24 -0.15
25 -0.15
3 -0.57
35 0.15
36 0.15
37 0.15
38 0.15
4 -0.57
44 0.15
45 0.15
46 0.15
47 0.15
48 0.15
5 -0.42
6 0.14
8 -0.14

>  <PUBCHEM_EFFECTIVE_ROTOR_COUNT>  (1) 
9

>  <PUBCHEM_PHARMACOPHORE_FEATURES>  (1) 
7
1 10 hydrophobe
1 2 acceptor
1 3 acceptor
1 4 acceptor
1 9 hydrophobe
6 20 21 22 23 24 25 rings
6 8 11 12 13 14 15 rings

>  <PUBCHEM_HEAVY_ATOM_COUNT>  (1) 
25

>  <PUBCHEM_ATOM_DEF_STEREO_COUNT>  (1) 
0

>  <PUBCHEM_ATOM_UDEF_STEREO_COUNT>  (1) 
1

>  <PUBCHEM_BOND_DEF_STEREO_COUNT>  (1) 
0

>  <PUBCHEM_BOND_UDEF_STEREO_COUNT>  (1) 
0

>  <PUBCHEM_ISOTOPIC_ATOM_COUNT>  (1) 
0

>  <PUBCHEM_COMPONENT_COUNT>  (1) 
1

>  <PUBCHEM_CACTVS_TAUTO_COUNT>  (1) 
1

>  <PUBCHEM_CONFORMER_ID>  (1) 
00006C4700000001

>  <PUBCHEM_MMFF94_ENERGY>  (1) 
77.0678

>  <PUBCHEM_FEATURE_SELFOVERLAP>  (1) 
35.531

>  <PUBCHEM_SHAPE_FINGERPRINT>  (1) 
10319926 262 14045747057644412188
10622 236 17056645369977400343
10928967 22 18201993296953643294
11135926 11 18196366151251691236
11370993 144 18337392768415177537
11796584 16 17967803942622822184
11809386 21 18120085084074344946
11991303 11 17902792955483982805
12107183 9 18059583455992219801
12342043 65 18042411412222250211
12403259 118 12607109751261853433
12422481 6 17131559344705001892
12623949 98 17682130107611272899
12633257 1 15769773571914419520
13103583 49 16272204197882587896
13402501 40 18334863822092603122
1361 87 18334011700723195999
13673619 4 17822017531949929401
13941219 33 18342181055338479699
13955234 65 18057596767298517368
14251732 14 16153430562493835761
14251751 18 17967537895406340502
14251764 30 18410578362124331922
14420673 8 18335710433814768299
14767858 380 13045947923499268897
14950920 106 15410311347963440938
15537594 2 18060416928623345494
193927 3 18408599258205490004
20693207 138 17894905278404100013
21315763 76 11097858488788136110
21682296 61 18343021086179438367
22765269 38 9583518698335972457
22950370 63 18273210868497550796
23522609 53 17702965745404539560
23559900 14 18113612421676575493
25025965 108 17698415781864211174
2748736 6 11097859601279890862
3089732 80 18407762551373969122
312425 54 16845281753055381994
312425 83 14491295428617536011
314194 84 18201712977438711500
329604 57 18335426742761325238
34797466 226 16805888505920883084
3737641 26 17915463800992152870
4058900 60 17255674197598753469
437815 12 18408887352100921705
4435113 14 18042704955445958114
46194498 28 17894630387965923124
5104073 3 16988276607459371257
5365585 94 18409167671246444602
5486654 36 18342742866582443737
613672 6 18265873865775439632
6371380 46 18334013857656342321
6431902 208 18340764854291773974
7918774 8 18410581686339237622
7970288 3 18271516589297751023
8863177 126 18335704995879801754
999808 66 18410016520156584206

>  <PUBCHEM_SHAPE_MULTIPOLES>  (1) 
486.03
16.45
3.55
1.68
12.68
1.12
-0.73
-13.55
0.73
1.67
1.11
-3.12
-0.45
2.8

>  <PUBCHEM_SHAPE_SELFOVERLAP>  (1) 
1015.664

>  <PUBCHEM_SHAPE_VOLUME>  (1) 
273.6

>  <PUBCHEM_COORDINATE_TYPE>  (1) 
2
5
10

$$$$
