27710
     RDKit          3D

 25 28  0  0  0  0  0  0  0  0999 V2000
   -1.8518   -1.0436    0.0990 O   0  0  0  0  0  0  0  0  0  0  0  0
    0.0620    2.3083   -1.1938 O   0  0  0  0  0  0  0  0  0  0  0  0
    4.4429   -0.2068   -0.2697 N   0  0  0  0  0  0  0  0  0  0  0  0
    4.2368   -0.1221    1.1829 C   0  0  0  0  0  0  0  0  0  0  0  0
    5.8719   -0.3038   -0.5988 C   0  0  0  0  0  0  0  0  0  0  0  0
    4.9554    1.0925    1.7723 C   0  0  0  0  0  0  0  0  0  0  0  0
    6.6440    0.9052   -0.0677 C   0  0  0  0  0  0  0  0  0  0  0  0
    6.4416    1.0762    1.4335 C   0  0  0  0  0  0  0  0  0  0  0  0
    3.7116   -1.3454   -0.8247 C   0  0  0  0  0  0  0  0  0  0  0  0
    2.2424   -1.2476   -0.5861 C   0  0  0  0  0  0  0  0  0  0  0  0
    1.5796   -0.0395   -0.8071 C   0  0  0  0  0  0  0  0  0  0  0  0
    1.5340   -2.3646   -0.1427 C   0  0  0  0  0  0  0  0  0  0  0  0
    0.2028    0.0441   -0.5814 C   0  0  0  0  0  0  0  0  0  0  0  0
   -0.5040   -1.0693   -0.1389 C   0  0  0  0  0  0  0  0  0  0  0  0
    0.1600   -2.2768    0.0816 C   0  0  0  0  0  0  0  0  0  0  0  0
   -0.5221    1.3039   -0.8066 C   0  0  0  0  0  0  0  0  0  0  0  0
   -1.9897    1.2934   -0.5407 C   0  0  0  0  0  0  0  0  0  0  0  0
   -2.5383    0.1401   -0.1088 C   0  0  0  0  0  0  0  0  0  0  0  0
   -3.9699    0.0066    0.1938 C   0  0  0  0  0  0  0  0  0  0  0  0
   -2.7077    2.5868   -0.7980 C   0  0  0  0  0  0  0  0  0  0  0  0
   -4.8616   -0.3846   -0.8052 C   0  0  0  0  0  0  0  0  0  0  0  0
   -4.4371    0.2694    1.4815 C   0  0  0  0  0  0  0  0  0  0  0  0
   -6.2201   -0.5130   -0.5162 C   0  0  0  0  0  0  0  0  0  0  0  0
   -5.7957    0.1410    1.7703 C   0  0  0  0  0  0  0  0  0  0  0  0
   -6.6872   -0.2502    0.7715 C   0  0  0  0  0  0  0  0  0  0  0  0
  1 14  1  0
  1 18  1  0
  2 16  2  0
  3  4  1  0
  3  5  1  0
  3  9  1  0
  4  6  1  0
  5  7  1  0
  6  8  1  0
  7  8  1  0
  9 10  1  0
 10 11  2  0
 10 12  1  0
 11 13  1  0
 12 15  2  0
 13 14  2  0
 13 16  1  0
 14 15  1  0
 16 17  1  0
 17 18  2  0
 17 20  1  0
 18 19  1  0
 19 21  2  0
 19 22  1  0
 21 23  1  0
 22 24  2  0
 23 25  2  0
 24 25  1  0
M  END
>  <PUBCHEM_COMPOUND_CID>  (1) 
27710

>  <PUBCHEM_CONFORMER_RMSD>  (1) 
0.8

>  <PUBCHEM_CONFORMER_DIVERSEORDER>  (1) 
3
4
1
2
6
5

>  <PUBCHEM_MMFF94_PARTIAL_CHARGES>  (1) 
30
1 -0.16
10 -0.14
11 -0.15
12 -0.15
13 0.09
14 0.08
15 -0.15
16 0.47
17 -0.12
18 0.05
19 0.03
2 -0.57
20 0.14
21 -0.15
22 -0.15
23 -0.15
24 -0.15
25 -0.15
3 -0.81
38 0.15
39 0.15
4 0.27
40 0.15
44 0.15
45 0.15
46 0.15
47 0.15
48 0.15
5 0.27
9 0.41

>  <PUBCHEM_EFFECTIVE_ROTOR_COUNT>  (1) 
4.2

>  <PUBCHEM_PHARMACOPHORE_FEATURES>  (1) 
7
1 1 acceptor
1 2 acceptor
1 3 cation
6 1 13 14 16 17 18 rings
6 10 11 12 13 14 15 rings
6 19 21 22 23 24 25 rings
6 3 4 5 6 7 8 rings

>  <PUBCHEM_HEAVY_ATOM_COUNT>  (1) 
25

>  <PUBCHEM_ATOM_DEF_STEREO_COUNT>  (1) 
0

>  <PUBCHEM_ATOM_UDEF_STEREO_COUNT>  (1) 
0

>  <PUBCHEM_BOND_DEF_STEREO_COUNT>  (1) 
0

>  <PUBCHEM_BOND_UDEF_STEREO_COUNT>  (1) 
0

>  <PUBCHEM_ISOTOPIC_ATOM_COUNT>  (1) 
0

>  <PUBCHEM_COMPONENT_COUNT>  (1) 
1

>  <PUBCHEM_CACTVS_TAUTO_COUNT>  (1) 
1

>  <PUBCHEM_CONFORMER_ID>  (1) 
00006C3E00000003

>  <PUBCHEM_MMFF94_ENERGY>  (1) 
62.5323

>  <PUBCHEM_FEATURE_SELFOVERLAP>  (1) 
35.55

>  <PUBCHEM_SHAPE_FINGERPRINT>  (1) 
10 15 18040998475277063168
10074138 170 18117543240534946770
10165383 225 18272653468126925610
10693767 8 10737276995748572865
11578080 2 18127687133271000961
11595378 159 17749940086599507048
11646440 116 18409738369326104025
11796584 16 15430042054127578747
12035758 1 18334297603705252305
12236239 1 16917069949400832387
12403259 415 18341049619260659316
12516196 113 18410294713952003301
12596602 18 17632864101216519483
12730499 353 18130791136200324526
12838862 33 18262504958453989567
12977781 61 15142897892301466226
13140716 1 18190471647776070131
13533116 47 18272091544354865502
13540713 4 18045499712139749455
13782708 43 18267309725104009982
13914758 101 14273728526268887831
14251752 14 13183025103206741058
14341114 328 17489870410352489571
14787075 74 18272927236882527690
14840074 17 18411978074648956015
14849402 71 17845654879425291609
14856354 85 15841546414532762197
14933364 13 16845577517018644658
17834072 8 10015862080783450572
17857418 61 14490474187894227826
20642791 268 18129680616439603865
21033648 29 18342163450288795008
21703447 108 17826224104049997811
21792934 111 18262231106395382609
22079108 93 18131066048002458094
22122407 14 16486701367061986186
22149856 69 18263948574160693571
22182313 1 18190461567282105247
22224240 67 18412542132445625890
23559900 14 14562821014200227101
23569914 2 16339157717147780665
23576562 1 12678875949744988361
23845131 108 17402334771866558801
24771293 8 18342175608945655308
2747138 104 18335154097831109139
29717793 49 10881403136412538962
3009799 131 18040426682091429437
34797466 226 16486981703829898159
4058900 60 13470146068110634941
4325135 7 17775283876373682879
5104073 3 18190177871612019704
5758199 1 18273219707002234299
59682541 35 18336548312581420225
7226269 152 17676488358793070435

>  <PUBCHEM_SHAPE_MULTIPOLES>  (1) 
497.77
17.06
2.01
1.37
3.17
0.06
0.51
2.92
6.15
0.64
-0.44
-0.04
0.48
1.15

>  <PUBCHEM_SHAPE_SELFOVERLAP>  (1) 
1086.111

>  <PUBCHEM_SHAPE_VOLUME>  (1) 
270.4

>  <PUBCHEM_COORDINATE_TYPE>  (1) 
2
5
10

$$$$
