27716
     RDKit          3D

 18 19  0  0  0  0  0  0  0  0999 V2000
   -0.3184   -2.4329    0.2464 O   0  0  0  0  0  0  0  0  0  0  0  0
   -3.5091    2.5240   -0.4185 O   0  0  0  0  0  0  0  0  0  0  0  0
   -5.6806    0.8521    0.0462 O   0  0  0  0  0  0  0  0  0  0  0  0
    1.9289   -1.0364   -0.1668 N   0  0  0  0  0  0  0  0  0  0  0  0
    3.0726   -0.1588   -0.4074 C   0  0  0  0  0  0  0  0  0  0  0  0
    3.1132    0.9465    0.6538 C   0  0  0  0  0  0  0  0  0  0  0  0
    4.3679   -0.9779   -0.4024 C   0  0  0  0  0  0  0  0  0  0  0  0
    4.3405    1.8397    0.4802 C   0  0  0  0  0  0  0  0  0  0  0  0
    5.5933   -0.0820   -0.5753 C   0  0  0  0  0  0  0  0  0  0  0  0
    5.6319    1.0268    0.4726 C   0  0  0  0  0  0  0  0  0  0  0  0
    0.6834   -0.2862   -0.2176 C   0  0  0  0  0  0  0  0  0  0  0  0
   -0.4760   -1.2314    0.0399 C   0  0  0  0  0  0  0  0  0  0  0  0
   -1.8610   -0.6730    0.0407 C   0  0  0  0  0  0  0  0  0  0  0  0
   -2.0289    0.6727   -0.1914 C   0  0  0  0  0  0  0  0  0  0  0  0
   -2.9146   -1.5265    0.2736 C   0  0  0  0  0  0  0  0  0  0  0  0
   -3.3225    1.1939   -0.1907 C   0  0  0  0  0  0  0  0  0  0  0  0
   -4.2083   -1.0053    0.2745 C   0  0  0  0  0  0  0  0  0  0  0  0
   -4.4123    0.3550    0.0423 C   0  0  0  0  0  0  0  0  0  0  0  0
  1 12  2  0
  2 16  1  0
  3 18  1  0
  4  5  1  0
  4 11  1  0
  5  6  1  0
  5  7  1  0
  6  8  1  0
  7  9  1  0
  8 10  1  0
  9 10  1  0
 11 12  1  0
 12 13  1  0
 13 14  2  0
 13 15  1  0
 14 16  1  0
 15 17  2  0
 16 18  2  0
 17 18  1  0
M  END
>  <PUBCHEM_COMPOUND_CID>  (1) 
27716

>  <PUBCHEM_CONFORMER_RMSD>  (1) 
0.8

>  <PUBCHEM_CONFORMER_DIVERSEORDER>  (1) 
1
63
47
45
42
62
33
30
55
2
21
52
8
9
27
57
29
38
7
11
50
16
40
41
26
56
43
54
61
36
5
12
23
3
60
39
24
58
25
34
6
18
13
48
19
31
10
59
22
35
53
20
28
44
32
14
15
49
17
37
51
4
46

>  <PUBCHEM_MMFF94_PARTIAL_CHARGES>  (1) 
19
1 -0.57
11 0.33
12 0.42
13 0.09
14 -0.15
15 -0.15
16 0.08
17 -0.15
18 0.08
2 -0.53
3 -0.53
30 0.36
33 0.15
34 0.15
35 0.15
36 0.45
37 0.45
4 -0.9
5 0.27

>  <PUBCHEM_EFFECTIVE_ROTOR_COUNT>  (1) 
5.2

>  <PUBCHEM_PHARMACOPHORE_FEATURES>  (1) 
7
1 1 acceptor
1 2 donor
1 3 donor
1 4 cation
1 4 donor
6 13 14 15 16 17 18 rings
6 5 6 7 8 9 10 rings

>  <PUBCHEM_HEAVY_ATOM_COUNT>  (1) 
18

>  <PUBCHEM_ATOM_DEF_STEREO_COUNT>  (1) 
0

>  <PUBCHEM_ATOM_UDEF_STEREO_COUNT>  (1) 
0

>  <PUBCHEM_BOND_DEF_STEREO_COUNT>  (1) 
0

>  <PUBCHEM_BOND_UDEF_STEREO_COUNT>  (1) 
0

>  <PUBCHEM_ISOTOPIC_ATOM_COUNT>  (1) 
0

>  <PUBCHEM_COMPONENT_COUNT>  (1) 
1

>  <PUBCHEM_CACTVS_TAUTO_COUNT>  (1) 
47

>  <PUBCHEM_CONFORMER_ID>  (1) 
00006C4400000001

>  <PUBCHEM_MMFF94_ENERGY>  (1) 
31.0148

>  <PUBCHEM_FEATURE_SELFOVERLAP>  (1) 
35.526

>  <PUBCHEM_SHAPE_FINGERPRINT>  (1) 
10411042 1 17832427875614983419
11128504 68 14189292699118683346
11595378 159 17313372401578695860
12107183 9 17612018288134214602
12236239 1 17167863079908150926
12390115 104 18270131089231236081
12403259 415 18411138021884826100
12596602 18 16443352017425435784
12633257 1 15502380040736533634
12916748 109 18407763646489954442
13081056 2 18413108363869852396
13402501 40 18413106164878784568
13533116 47 17677042447812670963
14251764 18 18187358853633864146
14252887 29 13984654833620902658
14341114 176 18410580591048782608
14573314 32 18411985754308801014
15042514 8 18118692251729412787
15196674 1 18411982485532863240
15501527 16 18412265055573195248
17834072 8 18202571670571843884
17844677 252 18411144657904710440
19433438 28 18409732888984601578
19489759 90 17968094239683813979
200 152 16200154278988180218
20645477 56 18410577292313452279
20645477 70 17417824920133964094
21033648 29 18271233997777087112
21065198 57 18410012182640418410
21279426 13 18269276760164041820
212847 35 18408324389473607852
21315764 268 18334850623911121572
21652331 79 18410291410700334801
221357 26 18060136522598125688
22289505 5 18130791144832203468
23227448 37 18200028576579069022
23402539 116 18341326772983565487
23402655 69 17989488524210433014
23559900 14 18272090487829437666
245318 6 16665724005480468820
2916195 48 18341608252613783536
3004659 81 18335144142835875662
351380 180 18341894108246074340
3545911 37 18411421704548346022
4028521 119 18343582932304996528
4214541 1 18411700997708044016
441001 317 18410011031177434161
495365 180 17489296521760917418
5104073 3 18188777137233378395
542803 24 17530966903866632182
59682541 35 18261125071740997921
77779 3 18411420622417177374
90127 26 18335428993176352554
9981440 41 18186524280836957571

>  <PUBCHEM_SHAPE_MULTIPOLES>  (1) 
347.84
13.59
2
0.71
6.2
0.26
0.01
4.62
0.08
-0.88
0.06
0.32
0.05
1.03

>  <PUBCHEM_SHAPE_SELFOVERLAP>  (1) 
725.403

>  <PUBCHEM_SHAPE_VOLUME>  (1) 
196

>  <PUBCHEM_COORDINATE_TYPE>  (1) 
2
5
10

$$$$
