2772
     RDKit          3D

 31 32  0  0  1  0  0  0  0  0999 V2000
    3.0245    2.4770    0.4430 P   0  0  0  0  0  0  0  0  0  0  0  0
    4.1204   -0.0808    1.3988 P   0  0  0  0  0  0  0  0  0  0  0  0
   -2.3846    1.0382   -2.1298 O   0  0  0  0  0  0  0  0  0  0  0  0
   -0.7239    3.5147   -1.5849 O   0  0  0  0  0  0  0  0  0  0  0  0
   -0.6771    0.3938    0.3043 O   0  0  0  0  0  0  0  0  0  0  0  0
    1.5733    2.7805   -0.2055 O   0  0  0  0  0  0  0  0  0  0  0  0
    2.9739    0.9095    0.8352 O   0  0  0  0  0  0  0  0  0  0  0  0
    3.3924   -1.5254    1.3860 O   0  0  0  0  0  0  0  0  0  0  0  0
   -4.4447    2.0617    1.2578 O   0  0  0  0  0  0  0  0  0  0  0  0
    4.0430    2.5118   -0.8135 O   0  0  0  0  0  0  0  0  0  0  0  0
    3.4084    3.3830    1.5767 O   0  0  0  0  0  0  0  0  0  0  0  0
    5.1676   -0.1622    0.1684 O   0  0  0  0  0  0  0  0  0  0  0  0
    4.7163    0.3365    2.7115 O   0  0  0  0  0  0  0  0  0  0  0  0
   -3.4086    0.4989   -0.0882 N   0  0  0  0  0  0  0  0  0  0  0  0
    1.6123   -3.8285   -0.8870 N   0  0  0  0  0  0  0  0  0  0  0  0
   -5.0908   -0.0956    1.5416 N   0  0  0  0  0  0  0  0  0  0  0  0
   -5.7471   -2.3080    1.8289 N   0  0  0  0  0  0  0  0  0  0  0  0
   -0.4121    2.1362   -1.3670 C   0  0  0  0  0  0  0  0  0  0  0  0
   -1.1969    1.6347   -0.1633 C   0  0  0  0  0  0  0  0  0  0  0  0
   -2.5846    1.4530   -0.7698 C   0  0  0  0  0  0  0  0  0  0  0  0
   -1.0248    1.3312   -2.5082 C   0  0  0  0  0  0  0  0  0  0  0  0
    1.0997    1.9915   -1.2834 C   0  0  0  0  0  0  0  0  0  0  0  0
   -3.3040   -0.8422   -0.4312 C   0  0  0  0  0  0  0  0  0  0  0  0
   -4.3263    0.8808    0.9259 C   0  0  0  0  0  0  0  0  0  0  0  0
    2.1881   -3.3440    0.3927 C   0  0  0  0  0  0  0  0  0  0  0  0
    0.5101   -2.8819   -1.3814 C   0  0  0  0  0  0  0  0  0  0  0  0
    2.6932   -3.9115   -1.9733 C   0  0  0  0  0  0  0  0  0  0  0  0
    1.0002   -5.2253   -0.7147 C   0  0  0  0  0  0  0  0  0  0  0  0
    2.8093   -1.9781    0.1766 C   0  0  0  0  0  0  0  0  0  0  0  0
   -4.0292   -1.7960    0.1496 C   0  0  0  0  0  0  0  0  0  0  0  0
   -4.9780   -1.3534    1.2044 C   0  0  0  0  0  0  0  0  0  0  0  0
  1  6  1  0
  1  7  1  0
  1 10  1  0
  1 11  2  0
  2  7  1  0
  2  8  1  0
  2 12  1  0
  2 13  2  0
  3 20  1  0
  3 21  1  0
  4 18  1  0
  5 19  1  0
  6 22  1  0
  8 29  1  0
  9 24  2  0
 14 20  1  0
 14 23  1  0
 14 24  1  0
 15 25  1  0
 15 26  1  0
 15 27  1  0
 15 28  1  0
 16 24  1  0
 16 31  2  0
 17 31  1  0
 18 19  1  0
 18 21  1  0
 18 22  1  0
 19 20  1  0
 23 30  2  0
 25 29  1  0
 30 31  1  0
M  CHG  1  15   1
M  END
>  <PUBCHEM_COMPOUND_CID>  (1) 
2772

>  <PUBCHEM_CONFORMER_RMSD>  (1) 
1.6

>  <PUBCHEM_CONFORMER_DIVERSEORDER>  (1) 
1
32
14
84
30
71
28
7
85
61
4
35
59
54
45
72
76
56
79
38
75
19
43
25
16
46
27
37
44
26
67
20
13
57
3
81
87
70
33
78
55
42
58
68
53
5
52
6
11
86
39
41
60
15
2
17
8
51
66
74
64
18
23
22
50
36
24
82
12
40
83
29
47
62
21
31
9
73
49
10
48
77
65
80
63
69
34

>  <PUBCHEM_MMFF94_PARTIAL_CHARGES>  (1) 
39
1 1.51
10 -0.77
11 -0.7
12 -0.77
13 -0.7
14 -0.47
15 -1.01
16 -0.66
17 -0.85
18 0.28
19 0.28
2 1.51
20 0.58
21 0.28
22 0.28
23 -0.04
24 0.84
25 0.5
26 0.5
27 0.5
28 0.5
29 0.28
3 -0.56
30 -0.14
31 0.49
38 0.4
39 0.4
4 -0.68
40 0.15
5 -0.68
54 0.15
55 0.5
56 0.4
57 0.4
58 0.5
6 -0.55
7 -0.54
8 -0.55
9 -0.57

>  <PUBCHEM_EFFECTIVE_ROTOR_COUNT>  (1) 
11

>  <PUBCHEM_PHARMACOPHORE_FEATURES>  (1) 
15
1 10 acceptor
1 11 acceptor
1 12 acceptor
1 13 acceptor
1 15 cation
1 16 donor
1 17 donor
1 3 acceptor
1 4 acceptor
1 4 donor
1 5 acceptor
1 5 donor
1 9 acceptor
5 3 18 19 20 21 rings
6 14 16 23 24 30 31 rings

>  <PUBCHEM_HEAVY_ATOM_COUNT>  (1) 
31

>  <PUBCHEM_ATOM_DEF_STEREO_COUNT>  (1) 
0

>  <PUBCHEM_ATOM_UDEF_STEREO_COUNT>  (1) 
3

>  <PUBCHEM_BOND_DEF_STEREO_COUNT>  (1) 
0

>  <PUBCHEM_BOND_UDEF_STEREO_COUNT>  (1) 
0

>  <PUBCHEM_ISOTOPIC_ATOM_COUNT>  (1) 
0

>  <PUBCHEM_COMPONENT_COUNT>  (1) 
1

>  <PUBCHEM_CACTVS_TAUTO_COUNT>  (1) 
3

>  <PUBCHEM_CONFORMER_ID>  (1) 
00000AD400000001

>  <PUBCHEM_MMFF94_ENERGY>  (1) 
55.8477

>  <PUBCHEM_FEATURE_SELFOVERLAP>  (1) 
76.196

>  <PUBCHEM_SHAPE_FINGERPRINT>  (1) 
11374522 58 17979377269827757811
11513181 2 17914904377180768214
12422481 6 18335698360250099579
13583140 156 17774711018142278425
13773456 22 17910992095623143702
14363568 33 18342173311791954862
14840074 17 18189616227233866486
1813 80 17168153338436204997
19301679 30 18041289867776333489
1979834 28 18338805606006650803
20028762 73 17908155613495618295
20429552 37 18123751946584247125
20765182 20 18341046307429794142
23559900 14 18194413190592350647
3117164 225 18053678979640357241
3493558 16 14540292742422559609
3737641 26 17984142557280031550
3886686 26 17908441160375171169
469060 322 18195217088026890071
5309563 4 18333446560183342893
6287921 2 18342178864541376111
6371380 46 17617945725550805949
9982175 49 17104804116723880916

>  <PUBCHEM_SHAPE_MULTIPOLES>  (1) 
561.18
10.81
5.83
2.14
6.8
5.56
-0.14
1.21
7.83
-4.95
-2.18
-0.23
-0.28
2.47

>  <PUBCHEM_SHAPE_SELFOVERLAP>  (1) 
1116.862

>  <PUBCHEM_SHAPE_VOLUME>  (1) 
336.7

>  <PUBCHEM_COORDINATE_TYPE>  (1) 
2
5
10

$$$$
