27726
     RDKit          3D

 18 18  0  0  0  0  0  0  0  0999 V2000
   -5.4206    0.1213   -0.7868 Br  0  0  0  0  0  0  0  0  0  0  0  0
    0.4522    2.0182   -0.7958 S   0  0  0  0  0  0  0  0  0  0  0  0
    0.2244   -1.2771    0.8532 O   0  0  0  0  0  0  0  0  0  0  0  0
    3.1887   -2.4544   -0.7631 O   0  0  0  0  0  0  0  0  0  0  0  0
    2.8873   -0.8979    0.9146 O   0  0  0  0  0  0  0  0  0  0  0  0
    2.2966    3.8820   -1.0506 N   0  0  0  0  0  0  0  0  0  0  0  0
    1.4154    3.5979    1.1222 N   0  0  0  0  0  0  0  0  0  0  0  0
   -1.4351    0.3877    0.3836 C   0  0  0  0  0  0  0  0  0  0  0  0
   -1.0452   -0.9478    0.4843 C   0  0  0  0  0  0  0  0  0  0  0  0
   -0.4699    1.4881    0.6787 C   0  0  0  0  0  0  0  0  0  0  0  0
   -2.7391    0.7070    0.0048 C   0  0  0  0  0  0  0  0  0  0  0  0
   -1.9591   -1.9641    0.2062 C   0  0  0  0  0  0  0  0  0  0  0  0
   -3.6531   -0.3094   -0.2734 C   0  0  0  0  0  0  0  0  0  0  0  0
   -3.2630   -1.6449   -0.1727 C   0  0  0  0  0  0  0  0  0  0  0  0
    0.9919   -2.0395   -0.0762 C   0  0  0  0  0  0  0  0  0  0  0  0
    2.4493   -1.7077    0.1089 C   0  0  0  0  0  0  0  0  0  0  0  0
    1.4755    3.2884   -0.1335 C   0  0  0  0  0  0  0  0  0  0  0  0
    4.6037   -2.2478   -0.7044 C   0  0  0  0  0  0  0  0  0  0  0  0
  1 13  1  0
  2 10  1  0
  2 17  1  0
  3  9  1  0
  3 15  1  0
  4 16  1  0
  4 18  1  0
  5 16  2  0
  6 17  1  0
  7 17  2  0
  8  9  2  0
  8 10  1  0
  8 11  1  0
  9 12  1  0
 11 13  2  0
 12 14  2  0
 13 14  1  0
 15 16  1  0
M  END
>  <PUBCHEM_COMPOUND_CID>  (1) 
27726

>  <PUBCHEM_CONFORMER_RMSD>  (1) 
0.8

>  <PUBCHEM_CONFORMER_DIVERSEORDER>  (1) 
1
30
219
70
171
215
120
98
144
191
32
184
225
163
193
201
203
3
226
8
194
148
173
132
210
103
177
42
77
164
169
93
198
195
75
122
80
82
104
99
88
202
54
206
197
182
109
86
211
51
178
43
224
20
62
167
208
130
72
189
174
107
129
222
12
63
28
143
181
125
119
204
19
91
147
141
188
16
73
146
192
165
27
14
232
199
11
131
179
209
196
160
53
221
9
66
228
145
214
35
7
223
74
13
227
186
115
57
15
39
124
55
217
135
207
155
172
6
110
71
33
153
175
133
52
151
114
123
168
116
58
59
76
106
200
47
127
102
84
24
233
136
108
156
31
117
100
185
113
166
67
162
18
234
68
48
21
45
205
176
140
34
2
216
46
22
212
60
137
79
40
41
220
94
83
183
142
90
134
5
149
121
159
4
150
158
50
154
157
96
78
118
85
180
229
56
87
29
213
17
49
38
64
97
25
161
36
105
95
218
89
230
126
26
138
65
69
10
170
44
231
37
112
111
23
81
139
152
61
92
187
190
128
101

>  <PUBCHEM_MMFF94_PARTIAL_CHARGES>  (1) 
24
1 -0.11
10 0.37
11 -0.15
12 -0.15
13 0.11
14 -0.15
15 0.34
16 0.66
17 0.64
18 0.28
2 -0.37
21 0.15
22 0.15
23 0.15
26 0.4
27 0.4
3 -0.36
31 0.4
4 -0.43
5 -0.57
6 -0.85
7 -0.85
8 -0.14
9 0.08

>  <PUBCHEM_EFFECTIVE_ROTOR_COUNT>  (1) 
7

>  <PUBCHEM_PHARMACOPHORE_FEATURES>  (1) 
7
1 1 hydrophobe
1 3 acceptor
1 5 acceptor
1 6 donor
1 7 donor
3 6 7 17 cation
6 8 9 11 12 13 14 rings

>  <PUBCHEM_HEAVY_ATOM_COUNT>  (1) 
18

>  <PUBCHEM_ATOM_DEF_STEREO_COUNT>  (1) 
0

>  <PUBCHEM_ATOM_UDEF_STEREO_COUNT>  (1) 
0

>  <PUBCHEM_BOND_DEF_STEREO_COUNT>  (1) 
0

>  <PUBCHEM_BOND_UDEF_STEREO_COUNT>  (1) 
0

>  <PUBCHEM_ISOTOPIC_ATOM_COUNT>  (1) 
0

>  <PUBCHEM_COMPONENT_COUNT>  (1) 
1

>  <PUBCHEM_CACTVS_TAUTO_COUNT>  (1) 
1

>  <PUBCHEM_CONFORMER_ID>  (1) 
00006C4E00000001

>  <PUBCHEM_MMFF94_ENERGY>  (1) 
42.0184

>  <PUBCHEM_FEATURE_SELFOVERLAP>  (1) 
35.565

>  <PUBCHEM_SHAPE_FINGERPRINT>  (1) 
10498660 4 18120091676453706662
10756046 5 18267014132812020151
107951 10 16955349653386953016
11680986 33 18335703909701234803
12500047 106 17402333067027961364
14508225 48 18268146453272684846
14790565 3 17403461767063765408
14955137 171 18051439295960451809
15006816 218 18194684993429330264
15475509 8 17912939288034760709
15961568 22 18410294693262981516
167882 2 18264770028878089748
18785283 64 18188776170807772145
20028762 73 16181595978516499855
20871999 31 18192427472835141159
21029758 11 18338798918357227879
23352939 185 18342742875198323273
23366157 5 18042115617281359219
23402539 116 18125998274171780087
23419403 2 18042941264461700869
23557571 272 18126007061801344942
23559900 14 18342167899473791987
3071541 12 18409729599382602497
43471831 8 17833266802316024115
465052 167 13901604373720657719
532947 4 18339927146669341908
6443956 14 18411412899691855064
7364860 26 18339921631525158409
81228 2 18123195597399130026

>  <PUBCHEM_SHAPE_MULTIPOLES>  (1) 
352.65
7.9
4.43
0.98
3.85
4.75
0.02
-4.36
2.62
-5.88
0.44
-0.26
0.3
0.35

>  <PUBCHEM_SHAPE_SELFOVERLAP>  (1) 
691.991

>  <PUBCHEM_SHAPE_VOLUME>  (1) 
216

>  <PUBCHEM_COORDINATE_TYPE>  (1) 
2
5
10

$$$$
