27720
     RDKit          3D

 19 19  0  0  0  0  0  0  0  0999 V2000
    4.6120   -2.1981    0.6359 Br  0  0  0  0  0  0  0  0  0  0  0  0
   -1.1314   -1.0974   -0.8851 O   0  0  0  0  0  0  0  0  0  0  0  0
   -3.3789    0.3559   -0.9690 O   0  0  0  0  0  0  0  0  0  0  0  0
    1.2400    2.0817    0.0442 N   0  0  0  0  0  0  0  0  0  0  0  0
   -4.3766   -0.6912    0.7998 N   0  0  0  0  0  0  0  0  0  0  0  0
   -5.5313    0.0626    0.7435 N   0  0  0  0  0  0  0  0  0  0  0  0
    0.6964    1.0976   -0.8912 C   0  0  0  0  0  0  0  0  0  0  0  0
    0.8766    3.4362   -0.3706 C   0  0  0  0  0  0  0  0  0  0  0  0
    0.7613    1.8166    1.4004 C   0  0  0  0  0  0  0  0  0  0  0  0
    1.1026   -0.3058   -0.5277 C   0  0  0  0  0  0  0  0  0  0  0  0
    0.1667   -1.3317   -0.5440 C   0  0  0  0  0  0  0  0  0  0  0  0
    1.4191    3.7507   -1.7544 C   0  0  0  0  0  0  0  0  0  0  0  0
    1.3166    2.8303    2.3865 C   0  0  0  0  0  0  0  0  0  0  0  0
    2.4243   -0.5520   -0.1792 C   0  0  0  0  0  0  0  0  0  0  0  0
    0.5591   -2.6266   -0.2058 C   0  0  0  0  0  0  0  0  0  0  0  0
    2.8168   -1.8471    0.1591 C   0  0  0  0  0  0  0  0  0  0  0  0
    1.8841   -2.8843    0.1460 C   0  0  0  0  0  0  0  0  0  0  0  0
   -2.1232   -1.3981    0.0946 C   0  0  0  0  0  0  0  0  0  0  0  0
   -3.3342   -0.4994   -0.0829 C   0  0  0  0  0  0  0  0  0  0  0  0
  1 16  1  0
  2 11  1  0
  2 18  1  0
  3 19  2  0
  4  7  1  0
  4  8  1  0
  4  9  1  0
  5  6  1  0
  5 19  1  0
  7 10  1  0
  8 12  1  0
  9 13  1  0
 10 11  2  0
 10 14  1  0
 11 15  1  0
 14 16  2  0
 15 17  2  0
 16 17  1  0
 18 19  1  0
M  END
>  <PUBCHEM_COMPOUND_CID>  (1) 
27720

>  <PUBCHEM_CONFORMER_RMSD>  (1) 
0.8

>  <PUBCHEM_CONFORMER_DIVERSEORDER>  (1) 
1
174
120
128
202
156
18
200
82
171
199
121
11
158
170
91
70
104
134
113
155
147
142
193
20
197
65
201
19
166
195
160
16
137
154
38
76
123
136
94
114
72
163
74
101
14
84
36
41
152
93
178
71
100
49
95
138
143
33
177
4
53
57
29
2
109
50
75
167
146
88
131
107
185
62
184
78
34
102
80
168
153
67
79
47
66
119
162
25
68
186
86
190
117
108
32
6
135
181
180
85
30
198
145
23
54
150
144
61
28
124
176
188
116
206
187
205
9
110
204
63
169
42
24
13
89
111
148
127
132
69
165
64
59
133
27
183
5
151
45
77
173
97
164
83
46
43
98
26
118
55
194
21
157
172
10
112
141
39
56
90
87
3
191
51
175
196
115
130
105
92
22
161
182
126
35
52
8
189
192
140
203
81
40
129
103
15
179
96
99
125
58
12
17
44
7
31
60
37
106
149
122
139
159
48
73

>  <PUBCHEM_MMFF94_PARTIAL_CHARGES>  (1) 
23
1 -0.11
10 -0.14
11 0.08
14 -0.15
15 -0.15
16 0.11
17 -0.15
18 0.34
19 0.57
2 -0.36
3 -0.57
32 0.15
33 0.15
34 0.15
37 0.37
38 0.36
39 0.36
4 -0.81
5 -0.42
6 -0.73
7 0.41
8 0.27
9 0.27

>  <PUBCHEM_EFFECTIVE_ROTOR_COUNT>  (1) 
8

>  <PUBCHEM_PHARMACOPHORE_FEATURES>  (1) 
7
1 1 hydrophobe
1 2 acceptor
1 3 acceptor
1 4 cation
1 5 donor
1 6 donor
6 10 11 14 15 16 17 rings

>  <PUBCHEM_HEAVY_ATOM_COUNT>  (1) 
19

>  <PUBCHEM_ATOM_DEF_STEREO_COUNT>  (1) 
0

>  <PUBCHEM_ATOM_UDEF_STEREO_COUNT>  (1) 
0

>  <PUBCHEM_BOND_DEF_STEREO_COUNT>  (1) 
0

>  <PUBCHEM_BOND_UDEF_STEREO_COUNT>  (1) 
0

>  <PUBCHEM_ISOTOPIC_ATOM_COUNT>  (1) 
0

>  <PUBCHEM_COMPONENT_COUNT>  (1) 
1

>  <PUBCHEM_CACTVS_TAUTO_COUNT>  (1) 
2

>  <PUBCHEM_CONFORMER_ID>  (1) 
00006C4800000001

>  <PUBCHEM_MMFF94_ENERGY>  (1) 
48.371

>  <PUBCHEM_FEATURE_SELFOVERLAP>  (1) 
37.039

>  <PUBCHEM_SHAPE_FINGERPRINT>  (1) 
104564 63 18054511305177623830
10688039 33 18116716214078707166
11582403 64 15622264372080425632
12173636 292 17112696445310028764
13132413 78 18341331098115670852
13134695 92 18201992210009905361
13140716 1 18270114750906545299
13294875 104 18057045933020069384
14955137 171 18201730547612511886
17980427 23 17346300622999120631
18785283 64 18189343527070383627
20510252 161 18124582090848372818
20600515 1 18340495460752313262
20671657 1 18200592635013782451
20739085 24 18410017619804946336
21041028 32 18336547105769469349
21524375 3 17767408250392876102
2255824 54 18338241573584314359
23419403 2 18125693782544392872
23558518 356 17764301039471329998
23559900 14 18260826042716288235
2748010 2 18120622856623697540
2803657 2 17701848589855341769
283562 15 18122342381299229426
350125 39 17905041804701932430
352729 6 16967990819928036662
5895379 119 15840454530503134169
68521 5 18192991513736837278
69474 34 18201140097426093098
81228 2 17907594527230676114
84936 182 17985829469635122521

>  <PUBCHEM_SHAPE_MULTIPOLES>  (1) 
370.27
6.97
4.59
1.44
7.97
4.97
-0.54
-6.16
-2.09
-3.11
0.35
-0.2
1.71
-0.06

>  <PUBCHEM_SHAPE_SELFOVERLAP>  (1) 
732.241

>  <PUBCHEM_SHAPE_VOLUME>  (1) 
225.4

>  <PUBCHEM_COORDINATE_TYPE>  (1) 
2
5
10

$$$$
