27729
     RDKit          3D

 17 17  0  0  0  0  0  0  0  0999 V2000
   -4.9683   -1.1649   -0.6876 Br  0  0  0  0  0  0  0  0  0  0  0  0
    0.8616   -0.8225    0.8639 O   0  0  0  0  0  0  0  0  0  0  0  0
    3.2828    0.3180    0.9475 O   0  0  0  0  0  0  0  0  0  0  0  0
   -1.0574    2.6327   -0.1221 N   0  0  0  0  0  0  0  0  0  0  0  0
    4.1419   -0.8761   -0.8009 N   0  0  0  0  0  0  0  0  0  0  0  0
    5.3869   -0.2830   -0.7449 N   0  0  0  0  0  0  0  0  0  0  0  0
   -0.6560    1.5971    0.8294 C   0  0  0  0  0  0  0  0  0  0  0  0
   -1.2442    0.2559    0.4799 C   0  0  0  0  0  0  0  0  0  0  0  0
   -0.4541   -0.8855    0.5157 C   0  0  0  0  0  0  0  0  0  0  0  0
   -2.5848    0.1843    0.1242 C   0  0  0  0  0  0  0  0  0  0  0  0
   -1.0143   -2.1206    0.1902 C   0  0  0  0  0  0  0  0  0  0  0  0
   -0.6103    2.2882   -1.4711 C   0  0  0  0  0  0  0  0  0  0  0  0
   -0.5185    3.9317    0.2789 C   0  0  0  0  0  0  0  0  0  0  0  0
   -3.1451   -1.0510   -0.2015 C   0  0  0  0  0  0  0  0  0  0  0  0
   -2.3597   -2.2034   -0.1685 C   0  0  0  0  0  0  0  0  0  0  0  0
    1.8100   -1.2660   -0.1045 C   0  0  0  0  0  0  0  0  0  0  0  0
    3.1294   -0.5351    0.0715 C   0  0  0  0  0  0  0  0  0  0  0  0
  1 14  1  0
  2  9  1  0
  2 16  1  0
  3 17  2  0
  4  7  1  0
  4 12  1  0
  4 13  1  0
  5  6  1  0
  5 17  1  0
  7  8  1  0
  8  9  2  0
  8 10  1  0
  9 11  1  0
 10 14  2  0
 11 15  2  0
 14 15  1  0
 16 17  1  0
M  END
>  <PUBCHEM_COMPOUND_CID>  (1) 
27729

>  <PUBCHEM_CONFORMER_RMSD>  (1) 
0.8

>  <PUBCHEM_CONFORMER_DIVERSEORDER>  (1) 
1
67
46
37
50
24
18
74
60
44
11
66
69
28
68
64
13
7
63
8
57
51
19
55
48
4
53
17
38
23
9
16
26
25
36
42
10
49
27
39
20
70
30
58
62
3
73
40
72
59
45
6
65
33
61
2
21
52
32
5
29
47
15
35
71
34
43
31
41
22
54
12
14
56

>  <PUBCHEM_MMFF94_PARTIAL_CHARGES>  (1) 
23
1 -0.11
10 -0.15
11 -0.15
12 0.27
13 0.27
14 0.11
15 -0.15
16 0.34
17 0.57
2 -0.36
20 0.15
21 0.15
28 0.15
3 -0.57
31 0.37
32 0.36
33 0.36
4 -0.81
5 -0.42
6 -0.73
7 0.41
8 -0.14
9 0.08

>  <PUBCHEM_EFFECTIVE_ROTOR_COUNT>  (1) 
6

>  <PUBCHEM_PHARMACOPHORE_FEATURES>  (1) 
7
1 1 hydrophobe
1 2 acceptor
1 3 acceptor
1 4 cation
1 5 donor
1 6 donor
6 8 9 10 11 14 15 rings

>  <PUBCHEM_HEAVY_ATOM_COUNT>  (1) 
17

>  <PUBCHEM_ATOM_DEF_STEREO_COUNT>  (1) 
0

>  <PUBCHEM_ATOM_UDEF_STEREO_COUNT>  (1) 
0

>  <PUBCHEM_BOND_DEF_STEREO_COUNT>  (1) 
0

>  <PUBCHEM_BOND_UDEF_STEREO_COUNT>  (1) 
0

>  <PUBCHEM_ISOTOPIC_ATOM_COUNT>  (1) 
0

>  <PUBCHEM_COMPONENT_COUNT>  (1) 
1

>  <PUBCHEM_CACTVS_TAUTO_COUNT>  (1) 
2

>  <PUBCHEM_CONFORMER_ID>  (1) 
00006C5100000001

>  <PUBCHEM_MMFF94_ENERGY>  (1) 
50.9289

>  <PUBCHEM_FEATURE_SELFOVERLAP>  (1) 
37.039

>  <PUBCHEM_SHAPE_FINGERPRINT>  (1) 
10498660 4 18336261254368900316
10871710 139 17968393251154828796
10989021 7 18338517559460899721
11680986 33 18050282867336586651
12173636 292 17979911614471084892
12788726 201 18334008354811427090
14347332 77 18268147561580644510
14790565 3 17980483360934766673
14955137 171 18266763388278657883
167882 2 17976537544135026861
17134986 127 17328589418915407396
17357779 13 18341313561938287701
187816 3 18259704514537591883
18785283 64 17828487204359702273
20344682 1 17917712409122826255
20671657 1 18122625226570187967
20871999 31 18409159996619759431
21029758 11 18411694422471770993
21029758 27 18334862748999060163
21041028 32 18264789790739881297
212916 134 7853580050024687022
21339142 51 18334576897192588723
21524375 3 17468198838384277017
23352939 185 18272657886619904905
23402539 116 18341891883384826751
23419403 2 17844500353977983017
23557571 272 18413111636656096254
23558518 356 17829885439131331107
23559900 14 18342172319522588826
2748010 2 18196075853931457243
3071541 12 18050280664129003457
3071541 158 18262509433551345047
3071541 250 18121225530639981459
3286 77 17060620027191679746
350125 39 17833837066651621499
465052 167 13398343659639365007
532947 4 17908705381909636152
68521 5 18409728439577837301
7364860 26 17979631565813400001
81228 2 18336272245005458321

>  <PUBCHEM_SHAPE_MULTIPOLES>  (1) 
329.11
7.71
3.38
0.99
5.74
4.42
-0.16
-5.13
-2.5
-1.1
-0.13
0.17
0.28
0.08

>  <PUBCHEM_SHAPE_SELFOVERLAP>  (1) 
654.322

>  <PUBCHEM_SHAPE_VOLUME>  (1) 
200.1

>  <PUBCHEM_COORDINATE_TYPE>  (1) 
2
5
10

$$$$
