27728
     RDKit          3D

 19 19  0  0  0  0  0  0  0  0999 V2000
    5.5654    1.0115   -1.0200 Br  0  0  0  0  0  0  0  0  0  0  0  0
    0.2599   -2.1347   -0.8190 S   0  0  0  0  0  0  0  0  0  0  0  0
   -0.1285    1.0531    1.0022 O   0  0  0  0  0  0  0  0  0  0  0  0
   -3.3778    1.6161   -0.3801 O   0  0  0  0  0  0  0  0  0  0  0  0
   -2.6347    0.0921    1.1863 O   0  0  0  0  0  0  0  0  0  0  0  0
   -1.1466   -4.3467   -1.0808 N   0  0  0  0  0  0  0  0  0  0  0  0
   -0.2082   -3.9722    1.0538 N   0  0  0  0  0  0  0  0  0  0  0  0
    1.8195   -0.1811    0.3481 C   0  0  0  0  0  0  0  0  0  0  0  0
    1.1553    1.0294    0.5466 C   0  0  0  0  0  0  0  0  0  0  0  0
    1.1390   -1.4795    0.6313 C   0  0  0  0  0  0  0  0  0  0  0  0
    3.1340   -0.1870   -0.1188 C   0  0  0  0  0  0  0  0  0  0  0  0
    1.8054    2.2339    0.2782 C   0  0  0  0  0  0  0  0  0  0  0  0
    3.7841    1.0176   -0.3872 C   0  0  0  0  0  0  0  0  0  0  0  0
    3.1197    2.2280   -0.1887 C   0  0  0  0  0  0  0  0  0  0  0  0
   -1.1031    1.6672    0.1614 C   0  0  0  0  0  0  0  0  0  0  0  0
   -2.4377    1.0136    0.4059 C   0  0  0  0  0  0  0  0  0  0  0  0
   -4.7067    1.0993   -0.2566 C   0  0  0  0  0  0  0  0  0  0  0  0
   -5.6226    1.8672   -1.1856 C   0  0  0  0  0  0  0  0  0  0  0  0
   -0.4163   -3.6280   -0.1768 C   0  0  0  0  0  0  0  0  0  0  0  0
  1 13  1  0
  2 10  1  0
  2 19  1  0
  3  9  1  0
  3 15  1  0
  4 16  1  0
  4 17  1  0
  5 16  2  0
  6 19  1  0
  7 19  2  0
  8  9  2  0
  8 10  1  0
  8 11  1  0
  9 12  1  0
 11 13  2  0
 12 14  2  0
 13 14  1  0
 15 16  1  0
 17 18  1  0
M  END
>  <PUBCHEM_COMPOUND_CID>  (1) 
27728

>  <PUBCHEM_CONFORMER_RMSD>  (1) 
0.8

>  <PUBCHEM_CONFORMER_DIVERSEORDER>  (1) 
1
83
35
67
19
113
72
107
88
2
111
54
65
95
77
89
7
48
16
82
42
110
39
96
122
108
27
52
13
36
60
102
92
114
40
58
70
81
100
76
105
5
30
73
79
124
109
85
50
53
62
22
118
117
74
68
3
119
90
41
103
98
69
59
38
28
43
78
116
84
12
45
99
25
32
123
121
115
4
106
6
93
51
56
101
26
71
104
63
29
15
120
55
47
61
34
9
112
33
24
10
91
20
57
44
49
75
8
14
46
94
80
64
17
21
11
18
97
23
31
37
87
86
66

>  <PUBCHEM_MMFF94_PARTIAL_CHARGES>  (1) 
24
1 -0.11
10 0.37
11 -0.15
12 -0.15
13 0.11
14 -0.15
15 0.34
16 0.66
17 0.28
19 0.64
2 -0.37
22 0.15
23 0.15
24 0.15
3 -0.36
32 0.4
33 0.4
34 0.4
4 -0.43
5 -0.57
6 -0.85
7 -0.85
8 -0.14
9 0.08

>  <PUBCHEM_EFFECTIVE_ROTOR_COUNT>  (1) 
8

>  <PUBCHEM_PHARMACOPHORE_FEATURES>  (1) 
7
1 1 hydrophobe
1 3 acceptor
1 5 acceptor
1 6 donor
1 7 donor
3 6 7 19 cation
6 8 9 11 12 13 14 rings

>  <PUBCHEM_HEAVY_ATOM_COUNT>  (1) 
19

>  <PUBCHEM_ATOM_DEF_STEREO_COUNT>  (1) 
0

>  <PUBCHEM_ATOM_UDEF_STEREO_COUNT>  (1) 
0

>  <PUBCHEM_BOND_DEF_STEREO_COUNT>  (1) 
0

>  <PUBCHEM_BOND_UDEF_STEREO_COUNT>  (1) 
0

>  <PUBCHEM_ISOTOPIC_ATOM_COUNT>  (1) 
0

>  <PUBCHEM_COMPONENT_COUNT>  (1) 
1

>  <PUBCHEM_CACTVS_TAUTO_COUNT>  (1) 
1

>  <PUBCHEM_CONFORMER_ID>  (1) 
00006C5000000001

>  <PUBCHEM_MMFF94_ENERGY>  (1) 
39.7221

>  <PUBCHEM_FEATURE_SELFOVERLAP>  (1) 
35.565

>  <PUBCHEM_SHAPE_FINGERPRINT>  (1) 
10688039 33 17687189003307453707
10693767 8 17915457199321444862
116883 192 17836648896057153486
12293681 25 17487371263857395078
12730499 353 18335425621780259345
13052359 8 18338800121454778378
13083527 12 17758947130787377210
13540713 4 17914338137704221616
13836976 161 18410008806173657829
138480 1 17690843359135522151
17138139 8 17700943748284849943
19427546 20 18048330126465143116
20645476 183 18409449219279511668
20645477 70 18263359188520262041
21054139 6 18271789230043120325
21344244 181 17917163722798142902
21452121 199 17544466462471521547
21641784 216 17253446002645031364
23530152 11 18412262839364873610
23558518 356 17755860076046734536
257057 1 17185872788181691395
3060560 45 18336546027917573564
3759504 43 18334297599484235142
53917941 68 18338508772406276404
58779409 54 18270124655475143412
58779409 8 18339082708437479318
6025842 7 18265607694178355917
7164475 11 17834400399263359612
81228 2 17762053646161572272
81539 233 18336263431996310759
8272917 22 18268712697724757573

>  <PUBCHEM_SHAPE_MULTIPOLES>  (1) 
373.23
9.3
4.55
1.07
3.81
7.68
-0.08
-9.42
-4.19
2.35
-0.54
0.27
0.21
0.2

>  <PUBCHEM_SHAPE_SELFOVERLAP>  (1) 
729.782

>  <PUBCHEM_SHAPE_VOLUME>  (1) 
228.9

>  <PUBCHEM_COORDINATE_TYPE>  (1) 
2
5
10

$$$$
