27732
     RDKit          3D

 12 12  0  0  1  0  0  0  0  0999 V2000
    1.4523   -0.2555    0.3887 N   0  0  0  0  0  0  0  0  0  0  0  0
    2.5790    0.6774    0.1935 C   0  0  0  0  0  0  0  0  0  0  0  0
    3.6568    0.7597    1.2260 C   0  0  0  0  0  0  0  0  0  0  0  0
    3.9399    0.1386   -0.1105 C   0  0  0  0  0  0  0  0  0  0  0  0
    0.5126   -0.2147   -0.7316 C   0  0  0  0  0  0  0  0  0  0  0  0
   -0.6460   -1.2060   -0.5141 C   0  0  0  0  0  0  0  0  0  0  0  0
   -1.5244   -0.9559    0.7366 C   0  0  0  0  0  0  0  0  0  0  0  0
   -2.0654    0.4889    0.7746 C   0  0  0  0  0  0  0  0  0  0  0  0
    1.2525   -0.5373   -2.0310 C   0  0  0  0  0  0  0  0  0  0  0  0
   -2.6577   -1.9899    0.7560 C   0  0  0  0  0  0  0  0  0  0  0  0
   -2.9863    0.8357   -0.3992 C   0  0  0  0  0  0  0  0  0  0  0  0
   -3.5133    2.2589   -0.2890 C   0  0  0  0  0  0  0  0  0  0  0  0
  1  2  1  0
  1  5  1  0
  2  3  1  0
  2  4  1  0
  3  4  1  0
  5  6  1  0
  5  9  1  0
  6  7  1  0
  7  8  1  0
  7 10  1  0
  8 11  1  0
 11 12  1  0
M  END
>  <PUBCHEM_COMPOUND_CID>  (1) 
27732

>  <PUBCHEM_CONFORMER_RMSD>  (1) 
0.6

>  <PUBCHEM_CONFORMER_DIVERSEORDER>  (1) 
3
88
40
75
5
78
54
24
66
86
57
59
84
19
93
49
85
1
14
42
65
43
64
91
6
89
77
13
28
61
16
2
76
23
35
71
10
94
36
48
87
69
82
26
51
74
81
39
34
30
79
11
44
50
73
25
33
46
21
67
58
80
15
8
62
29
53
92
12
37
63
41
55
20
22
70
60
17
90
52
7
95
18
72
31
9
32
56
38
68
4
27
83
47
45

>  <PUBCHEM_MMFF94_PARTIAL_CHARGES>  (1) 
11
1 -0.79
13 0.1
14 0.1
15 0.1
16 0.1
17 0.1
19 0.36
2 0.06
3 -0.2
4 -0.2
5 0.27

>  <PUBCHEM_EFFECTIVE_ROTOR_COUNT>  (1) 
6.6

>  <PUBCHEM_PHARMACOPHORE_FEATURES>  (1) 
5
1 1 cation
1 1 donor
1 10 hydrophobe
1 12 hydrophobe
4 6 7 8 11 hydrophobe

>  <PUBCHEM_HEAVY_ATOM_COUNT>  (1) 
12

>  <PUBCHEM_ATOM_DEF_STEREO_COUNT>  (1) 
0

>  <PUBCHEM_ATOM_UDEF_STEREO_COUNT>  (1) 
2

>  <PUBCHEM_BOND_DEF_STEREO_COUNT>  (1) 
0

>  <PUBCHEM_BOND_UDEF_STEREO_COUNT>  (1) 
0

>  <PUBCHEM_ISOTOPIC_ATOM_COUNT>  (1) 
0

>  <PUBCHEM_COMPONENT_COUNT>  (1) 
1

>  <PUBCHEM_CACTVS_TAUTO_COUNT>  (1) 
1

>  <PUBCHEM_CONFORMER_ID>  (1) 
00006C5400000003

>  <PUBCHEM_MMFF94_ENERGY>  (1) 
11.3343

>  <PUBCHEM_FEATURE_SELFOVERLAP>  (1) 
25.515

>  <PUBCHEM_SHAPE_FINGERPRINT>  (1) 
11127187 94 10951765249303045081
12119455 92 17774992458716597556
12138202 97 18131908260966482159
122479 349 18412539894873218013
124424 183 18272651221305135474
12500047 106 18334857195147384498
12932764 1 17917434288926789670
13296909 8 18187642544001368055
15061688 2 18338226051799483141
15219456 202 17988938755168998758
15279308 16 18201722838272081933
15375462 189 13479136791649632632
15775835 57 18187644652846342657
17834069 15 18335420149490588698
18342897 55 16487254378503073536
19107657 47 17632295662183928898
20281407 28 7925909296370036789
20645464 45 18271818916498562035
20645477 70 17275110488101392878
20711983 171 18260830414713056964
20715346 28 18201733859095061534
21499 59 16415196806156234100
21639500 275 16343702144944553730
22096605 113 17203604861289605228
22959321 8 17275096224035019617
23402539 116 18335690685739653583
23500284 214 18340494365799260577
23557571 272 18341907306870414069
305870 269 17970624083059019539
3086196 2 18115305725607861955
7615 1 17168719650953074919
81228 2 18193021372534153979
83771 10 7997677718986918797
88987 49 18189071870436501743

>  <PUBCHEM_SHAPE_MULTIPOLES>  (1) 
241.97
6.93
1.78
1.34
3.11
0.2
-0.48
3.03
1.42
-2.49
0.13
0.58
-0.22
1.06

>  <PUBCHEM_SHAPE_SELFOVERLAP>  (1) 
447.805

>  <PUBCHEM_SHAPE_VOLUME>  (1) 
154.7

>  <PUBCHEM_COORDINATE_TYPE>  (1) 
2
5
10

$$$$
