27730
     RDKit          3D

 12 12  0  0  1  0  0  0  0  0999 V2000
    2.8657    0.6837    0.1185 N   0  0  0  0  0  0  0  0  0  0  0  0
    3.1317   -0.6455   -0.4645 C   0  0  0  0  0  0  0  0  0  0  0  0
    3.1365   -1.8520    0.4182 C   0  0  0  0  0  0  0  0  0  0  0  0
    4.4211   -1.3393   -0.1636 C   0  0  0  0  0  0  0  0  0  0  0  0
    1.5493    1.1927   -0.2675 C   0  0  0  0  0  0  0  0  0  0  0  0
    0.4345    0.2403    0.1969 C   0  0  0  0  0  0  0  0  0  0  0  0
   -0.9641    0.6931   -0.2419 C   0  0  0  0  0  0  0  0  0  0  0  0
    1.3457    2.5873    0.3238 C   0  0  0  0  0  0  0  0  0  0  0  0
   -2.0354   -0.2976    0.2218 C   0  0  0  0  0  0  0  0  0  0  0  0
   -3.4520    0.0910   -0.2113 C   0  0  0  0  0  0  0  0  0  0  0  0
   -4.5196   -0.9108    0.2302 C   0  0  0  0  0  0  0  0  0  0  0  0
   -5.9133   -0.4428   -0.1606 C   0  0  0  0  0  0  0  0  0  0  0  0
  1  2  1  0
  1  5  1  0
  2  3  1  0
  2  4  1  0
  3  4  1  0
  5  6  1  0
  5  8  1  0
  6  7  1  0
  7  9  1  0
  9 10  1  0
 10 11  1  0
 11 12  1  0
M  END
>  <PUBCHEM_COMPOUND_CID>  (1) 
27730

>  <PUBCHEM_CONFORMER_RMSD>  (1) 
0.8

>  <PUBCHEM_CONFORMER_DIVERSEORDER>  (1) 
1
87
38
77
43
14
8
10
60
74
53
63
85
34
49
92
33
54
83
46
64
91
44
6
82
48
58
90
72
19
55
69
86
2
31
40
76
67
9
50
18
17
28
62
89
7
78
56
59
26
57
24
47
30
84
13
4
61
73
39
12
79
22
37
75
32
29
16
35
45
20
70
5
68
52
80
21
41
51
25
15
42
11
88
71
3
23
66
65
27
81
36

>  <PUBCHEM_MMFF94_PARTIAL_CHARGES>  (1) 
11
1 -0.79
13 0.1
14 0.1
15 0.1
16 0.1
17 0.1
18 0.36
2 0.06
3 -0.2
4 -0.2
5 0.27

>  <PUBCHEM_EFFECTIVE_ROTOR_COUNT>  (1) 
7.6

>  <PUBCHEM_PHARMACOPHORE_FEATURES>  (1) 
4
1 1 cation
1 1 donor
1 12 hydrophobe
5 6 7 9 10 11 hydrophobe

>  <PUBCHEM_HEAVY_ATOM_COUNT>  (1) 
12

>  <PUBCHEM_ATOM_DEF_STEREO_COUNT>  (1) 
0

>  <PUBCHEM_ATOM_UDEF_STEREO_COUNT>  (1) 
1

>  <PUBCHEM_BOND_DEF_STEREO_COUNT>  (1) 
0

>  <PUBCHEM_BOND_UDEF_STEREO_COUNT>  (1) 
0

>  <PUBCHEM_ISOTOPIC_ATOM_COUNT>  (1) 
0

>  <PUBCHEM_COMPONENT_COUNT>  (1) 
1

>  <PUBCHEM_CACTVS_TAUTO_COUNT>  (1) 
1

>  <PUBCHEM_CONFORMER_ID>  (1) 
00006C5200000001

>  <PUBCHEM_MMFF94_ENERGY>  (1) 
4.5715

>  <PUBCHEM_FEATURE_SELFOVERLAP>  (1) 
20.297

>  <PUBCHEM_SHAPE_FINGERPRINT>  (1) 
10912923 1 17560526217849886891
13167823 11 18270960254263813279
13690532 89 18412545401232041207
14251717 144 18409449180519759050
14252887 29 17988366983885553366
14455015 7 18187373138289142699
15242439 84 18040151825654066127
15477762 27 18409731768235507452
17834072 8 18187076231673960879
17834074 16 18261114114361767747
18186145 218 17749380503805363841
20369508 70 18411134753377628072
20388580 30 18335147466580926172
20645477 70 18411420622032185662
20671657 53 18410578361770897401
20871998 22 18129951053228512022
21354914 88 18343022177243406703
22485316 2 18341893039052431759
22959321 60 11095873895784779117
23402539 116 17775562023452528005
23532345 12 18060144215211379745
23596394 208 17676753302409328351
3060560 45 15140680297690890578
32948 21 18040428855160375269
42 15 18272936016217706295
465052 167 18342464754865773711
4990 188 17676486159685405731
522135 26 18335422391273632669
573450 72 17489872644278769643
57483677 66 18341611564461193847
7364860 26 18341611585529867928
94968 8 18335703819438440538

>  <PUBCHEM_SHAPE_MULTIPOLES>  (1) 
241.97
11
1.95
0.68
13.23
0.9
0
-6.11
0.48
-2.27
-0.25
-0.06
-0.02
0.1

>  <PUBCHEM_SHAPE_SELFOVERLAP>  (1) 
443.494

>  <PUBCHEM_SHAPE_VOLUME>  (1) 
155.4

>  <PUBCHEM_COORDINATE_TYPE>  (1) 
2
5
10

$$$$
