27735
     RDKit          3D

 20 21  0  0  0  0  0  0  0  0999 V2000
   -1.0089    1.2840   -1.5373 S   0  0  0  0  0  0  0  0  0  0  0  0
    4.4019   -1.1925    0.8803 F   0  0  0  0  0  0  0  0  0  0  0  0
    2.4320   -1.8038    1.5508 F   0  0  0  0  0  0  0  0  0  0  0  0
    3.0903   -2.2881   -0.4644 F   0  0  0  0  0  0  0  0  0  0  0  0
   -1.9702   -2.1980   -1.2534 O   0  0  0  0  0  0  0  0  0  0  0  0
   -3.7681   -1.0584   -2.0507 O   0  0  0  0  0  0  0  0  0  0  0  0
    0.6802    1.2252   -0.9615 C   0  0  0  0  0  0  0  0  0  0  0  0
    2.5307   -0.0171   -0.0363 C   0  0  0  0  0  0  0  0  0  0  0  0
   -1.8917    0.7923   -0.0605 C   0  0  0  0  0  0  0  0  0  0  0  0
    1.2110    0.0280   -0.4861 C   0  0  0  0  0  0  0  0  0  0  0  0
   -2.7046   -0.3407   -0.0313 C   0  0  0  0  0  0  0  0  0  0  0  0
    1.4631    2.3775   -0.9894 C   0  0  0  0  0  0  0  0  0  0  0  0
    3.3165    1.1349   -0.0632 C   0  0  0  0  0  0  0  0  0  0  0  0
    2.7826    2.3323   -0.5397 C   0  0  0  0  0  0  0  0  0  0  0  0
   -1.7492    1.5781    1.0831 C   0  0  0  0  0  0  0  0  0  0  0  0
    3.1021   -1.2969    0.4739 C   0  0  0  0  0  0  0  0  0  0  0  0
   -3.3752   -0.6879    1.1415 C   0  0  0  0  0  0  0  0  0  0  0  0
   -2.4198    1.2310    2.2558 C   0  0  0  0  0  0  0  0  0  0  0  0
   -3.2328    0.0980    2.2851 C   0  0  0  0  0  0  0  0  0  0  0  0
   -2.8899   -1.1980   -1.1968 C   0  0  0  0  0  0  0  0  0  0  0  0
  1  7  1  0
  1  9  1  0
  2 16  1  0
  3 16  1  0
  4 16  1  0
  5 20  1  0
  6 20  2  0
  7 10  1  0
  7 12  2  0
  8 10  2  0
  8 13  1  0
  8 16  1  0
  9 11  2  0
  9 15  1  0
 11 17  1  0
 11 20  1  0
 12 14  1  0
 13 14  2  0
 15 18  2  0
 17 19  2  0
 18 19  1  0
M  END
>  <PUBCHEM_COMPOUND_CID>  (1) 
27735

>  <PUBCHEM_CONFORMER_RMSD>  (1) 
0.6

>  <PUBCHEM_CONFORMER_DIVERSEORDER>  (1) 
2
19
41
26
7
44
20
43
38
29
31
6
39
12
27
40
45
18
23
1
46
33
37
28
5
34
35
13
16
22
30
8
17
11
21
25
14
36
24
32
15
42
9
10
4
3

>  <PUBCHEM_MMFF94_PARTIAL_CHARGES>  (1) 
29
1 -0.2
10 -0.15
11 0.09
12 -0.15
13 -0.15
14 -0.15
15 -0.15
16 1.16
17 -0.15
18 -0.15
19 -0.15
2 -0.34
20 0.63
21 0.15
22 0.15
23 0.15
24 0.15
25 0.15
26 0.15
27 0.15
28 0.15
29 0.5
3 -0.34
4 -0.34
5 -0.65
6 -0.57
7 0.1
8 -0.14
9 0.1

>  <PUBCHEM_EFFECTIVE_ROTOR_COUNT>  (1) 
4

>  <PUBCHEM_PHARMACOPHORE_FEATURES>  (1) 
5
1 5 acceptor
1 6 acceptor
3 5 6 20 anion
6 7 8 10 12 13 14 rings
6 9 11 15 17 18 19 rings

>  <PUBCHEM_HEAVY_ATOM_COUNT>  (1) 
20

>  <PUBCHEM_ATOM_DEF_STEREO_COUNT>  (1) 
0

>  <PUBCHEM_ATOM_UDEF_STEREO_COUNT>  (1) 
0

>  <PUBCHEM_BOND_DEF_STEREO_COUNT>  (1) 
0

>  <PUBCHEM_BOND_UDEF_STEREO_COUNT>  (1) 
0

>  <PUBCHEM_ISOTOPIC_ATOM_COUNT>  (1) 
0

>  <PUBCHEM_COMPONENT_COUNT>  (1) 
1

>  <PUBCHEM_CACTVS_TAUTO_COUNT>  (1) 
1

>  <PUBCHEM_CONFORMER_ID>  (1) 
00006C5700000002

>  <PUBCHEM_MMFF94_ENERGY>  (1) 
51.8757

>  <PUBCHEM_FEATURE_SELFOVERLAP>  (1) 
25.429

>  <PUBCHEM_SHAPE_FINGERPRINT>  (1) 
10165383 225 12966016833821470060
11137873 295 17676206875136773601
11578080 2 18127665275723794185
11582403 64 15514418825720589029
12202030 40 16660373587992314561
12363563 72 17676481727178955376
12553582 1 18261118413750527422
12596599 1 18343021056188591678
12633257 1 16988571199239967059
12788726 201 17703516575339292785
12824470 246 18055349391226695927
13032168 30 17693098882400633308
13296908 3 17312827090744508433
13583140 156 18193577746882329673
13764800 53 15625681452408675065
14251764 38 11820150809879492742
14386348 63 16950571007652399657
14787075 74 16546077447478165525
15375462 189 18127137587514227833
15422964 175 17386867156161561457
15635459 17 17458347489029727897
18981168 100 12679462001541698632
19433438 48 18340763754495127738
20442098 301 18343026566562735764
20600515 1 14904472274762512157
20603629 256 18410576201961588384
20645477 70 18040989691404220388
21427221 339 18128556902074658760
21731516 1 18261120616862879284
22445834 79 18339372945110829653
23419403 2 16269352091107515649
23493267 7 16701202835698675000
23557571 272 15841284739228600605
23598288 3 18271540710324552761
23598291 2 18342747307810210116
27216 239 15051723175611061707
392239 28 17268060668314560224
5161694 15 16732975436275815509
5262128 65 13263268604136949607
6992083 37 18270403767544809484
7097593 13 18059021566357208086
7615 1 18202567297530531109
81228 2 17096069308468752693
90316 7 17917723387465572833
9709674 26 17603857936097618989

>  <PUBCHEM_SHAPE_MULTIPOLES>  (1) 
381.88
7.37
2.44
1.98
1.91
0.18
-0.37
2.61
-1.41
2.03
0.34
-2.5
0.12
-1.72

>  <PUBCHEM_SHAPE_SELFOVERLAP>  (1) 
811.92

>  <PUBCHEM_SHAPE_VOLUME>  (1) 
216.3

>  <PUBCHEM_COORDINATE_TYPE>  (1) 
2
5
10

$$$$
