2773
     RDKit          3D

 10 10  0  0  1  0  0  0  0  0999 V2000
    1.5688    1.6326   -0.5882 S   0  0  0  0  0  0  0  0  0  0  0  0
    0.3903   -1.9294    0.2202 O   0  0  0  0  0  0  0  0  0  0  0  0
   -2.3962   -0.6595   -0.8999 O   0  0  0  0  0  0  0  0  0  0  0  0
   -0.8198    0.6720    0.1818 N   0  0  0  0  0  0  0  0  0  0  0  0
    0.3170    0.3328   -0.6173 C   0  0  0  0  0  0  0  0  0  0  0  0
    2.4638   -0.7180    0.2356 C   0  0  0  0  0  0  0  0  0  0  0  0
    2.6820    0.7529    0.5320 C   0  0  0  0  0  0  0  0  0  0  0  0
    0.9854   -0.8812   -0.0140 C   0  0  0  0  0  0  0  0  0  0  0  0
   -2.0922    0.1462   -0.0242 C   0  0  0  0  0  0  0  0  0  0  0  0
   -3.0991    0.6516    0.9741 C   0  0  0  0  0  0  0  0  0  0  0  0
  1  5  1  0
  1  7  1  0
  2  8  2  0
  3  9  2  0
  4  5  1  0
  4  9  1  0
  5  8  1  0
  6  7  1  0
  6  8  1  0
  9 10  1  0
M  END
>  <PUBCHEM_COMPOUND_CID>  (1) 
2773

>  <PUBCHEM_CONFORMER_RMSD>  (1) 
0.6

>  <PUBCHEM_CONFORMER_DIVERSEORDER>  (1) 
1
6
2
5
3
4

>  <PUBCHEM_MMFF94_PARTIAL_CHARGES>  (1) 
11
1 -0.46
10 0.06
16 0.37
2 -0.57
3 -0.57
4 -0.73
5 0.59
6 0.06
7 0.23
8 0.45
9 0.57

>  <PUBCHEM_EFFECTIVE_ROTOR_COUNT>  (1) 
2.8

>  <PUBCHEM_PHARMACOPHORE_FEATURES>  (1) 
4
1 2 acceptor
1 3 acceptor
1 4 donor
5 1 5 6 7 8 rings

>  <PUBCHEM_HEAVY_ATOM_COUNT>  (1) 
10

>  <PUBCHEM_ATOM_DEF_STEREO_COUNT>  (1) 
0

>  <PUBCHEM_ATOM_UDEF_STEREO_COUNT>  (1) 
1

>  <PUBCHEM_BOND_DEF_STEREO_COUNT>  (1) 
0

>  <PUBCHEM_BOND_UDEF_STEREO_COUNT>  (1) 
0

>  <PUBCHEM_ISOTOPIC_ATOM_COUNT>  (1) 
0

>  <PUBCHEM_COMPONENT_COUNT>  (1) 
1

>  <PUBCHEM_CACTVS_TAUTO_COUNT>  (1) 
7

>  <PUBCHEM_CONFORMER_ID>  (1) 
00000AD500000001

>  <PUBCHEM_MMFF94_ENERGY>  (1) 
10.914

>  <PUBCHEM_FEATURE_SELFOVERLAP>  (1) 
20.297

>  <PUBCHEM_SHAPE_FINGERPRINT>  (1) 
10219947 1 18260546714684791636
12932764 1 18410575054703997957
14325111 11 18412543244973848792
15775835 57 18131355223507572537
16945 1 18186798088995824508
21040471 1 18265336286293666124
23235685 24 18408886265210672292
29004967 10 18040437642083083809
3248919 1 17203324485924755669
5084963 1 18342730832273542276

>  <PUBCHEM_SHAPE_MULTIPOLES>  (1) 
192.93
4.42
1.54
0.89
2.21
0.2
0
-0.68
0.96
-0.72
-0.07
0.26
-0.11
-0.41

>  <PUBCHEM_SHAPE_SELFOVERLAP>  (1) 
369.735

>  <PUBCHEM_SHAPE_VOLUME>  (1) 
119.6

>  <PUBCHEM_COORDINATE_TYPE>  (1) 
2
5
10

$$$$
