27746
     RDKit          3D

 21 20  0  0  0  0  0  0  0  0999 V2000
    7.2172   -3.0914   -0.3633 O   0  0  0  0  0  0  0  0  0  0  0  0
    7.7024   -1.0652    0.6336 O   0  0  0  0  0  0  0  0  0  0  0  0
    3.3449    1.7639    0.2776 C   0  0  0  0  0  0  0  0  0  0  0  0
    1.9205    2.1467   -0.1387 C   0  0  0  0  0  0  0  0  0  0  0  0
    3.7352    0.3441   -0.1508 C   0  0  0  0  0  0  0  0  0  0  0  0
    1.5686    3.6031    0.1966 C   0  0  0  0  0  0  0  0  0  0  0  0
    5.1865   -0.0498    0.1385 C   0  0  0  0  0  0  0  0  0  0  0  0
    0.1939    4.0534   -0.3130 C   0  0  0  0  0  0  0  0  0  0  0  0
    5.5374   -1.4464   -0.3612 C   0  0  0  0  0  0  0  0  0  0  0  0
   -0.9595    3.3485    0.3372 C   0  0  0  0  0  0  0  0  0  0  0  0
    6.9399   -1.8198    0.0440 C   0  0  0  0  0  0  0  0  0  0  0  0
   -7.2208   -2.2807   -0.2176 C   0  0  0  0  0  0  0  0  0  0  0  0
   -7.1571   -0.8114    0.2156 C   0  0  0  0  0  0  0  0  0  0  0  0
   -8.3441   -3.1008    0.4247 C   0  0  0  0  0  0  0  0  0  0  0  0
   -1.8948    2.6752   -0.3495 C   0  0  0  0  0  0  0  0  0  0  0  0
   -6.0018   -0.0728   -0.4005 C   0  0  0  0  0  0  0  0  0  0  0  0
   -8.3378   -4.5638    0.0091 C   0  0  0  0  0  0  0  0  0  0  0  0
   -3.0018    1.9904    0.2799 C   0  0  0  0  0  0  0  0  0  0  0  0
   -5.0300    0.6205    0.2130 C   0  0  0  0  0  0  0  0  0  0  0  0
   -3.9325    1.3194   -0.4162 C   0  0  0  0  0  0  0  0  0  0  0  0
    8.5334   -3.5630   -0.0591 C   0  0  0  0  0  0  0  0  0  0  0  0
  1 11  1  0
  1 21  1  0
  2 11  2  0
  3  4  1  0
  3  5  1  0
  4  6  1  0
  5  7  1  0
  6  8  1  0
  7  9  1  0
  8 10  1  0
  9 11  1  0
 10 15  2  0
 12 13  1  0
 12 14  1  0
 13 16  1  0
 14 17  1  0
 15 18  1  0
 16 19  2  0
 18 20  2  0
 19 20  1  0
M  END
>  <PUBCHEM_COMPOUND_CID>  (1) 
27746

>  <PUBCHEM_CONFORMER_RMSD>  (1) 
1.4

>  <PUBCHEM_CONFORMER_DIVERSEORDER>  (1) 
1
3
53
19
7
49
18
44
6
42
25
37
12
35
15
28
50
40
29
23
41
16
11
51
47
27
14
8
31
32
5
48
30
34
2
17
20
36
52
43
39
21
10
22
26
24
33
45
9
46
54
13
38
4

>  <PUBCHEM_MMFF94_PARTIAL_CHARGES>  (1) 
19
1 -0.43
10 -0.29
11 0.66
13 0.14
15 -0.15
16 -0.29
18 -0.15
19 -0.15
2 -0.57
20 -0.15
21 0.28
36 0.15
43 0.15
44 0.15
48 0.15
49 0.15
50 0.15
8 0.14
9 0.06

>  <PUBCHEM_EFFECTIVE_ROTOR_COUNT>  (1) 
14

>  <PUBCHEM_PHARMACOPHORE_FEATURES>  (1) 
3
1 17 hydrophobe
1 2 acceptor
4 12 13 14 16 hydrophobe

>  <PUBCHEM_HEAVY_ATOM_COUNT>  (1) 
21

>  <PUBCHEM_ATOM_DEF_STEREO_COUNT>  (1) 
0

>  <PUBCHEM_ATOM_UDEF_STEREO_COUNT>  (1) 
0

>  <PUBCHEM_BOND_DEF_STEREO_COUNT>  (1) 
0

>  <PUBCHEM_BOND_UDEF_STEREO_COUNT>  (1) 
3

>  <PUBCHEM_ISOTOPIC_ATOM_COUNT>  (1) 
0

>  <PUBCHEM_COMPONENT_COUNT>  (1) 
1

>  <PUBCHEM_CACTVS_TAUTO_COUNT>  (1) 
1

>  <PUBCHEM_CONFORMER_ID>  (1) 
00006C6200000001

>  <PUBCHEM_MMFF94_ENERGY>  (1) 
9.4899

>  <PUBCHEM_FEATURE_SELFOVERLAP>  (1) 
15.223

>  <PUBCHEM_SHAPE_FINGERPRINT>  (1) 
10066227 49 18266457806262612959
10669705 251 18201444653219903854
10740516 88 18115598192097376203
11273773 46 18409162183206792029
11463208 1 17697325019395897646
117089 54 18410296908448481827
11761917 116 18410018702627517230
11761917 87 18187941633599088835
14344974 204 18269276755954198222
14428016 167 18410854391393883843
14671636 106 18339925914662334062
14931854 50 17676203528993442040
15152005 1 18411138047781964791
15152005 304 18339655489651227759
15152005 77 18201996617142731007
15773216 30 18191592054605488276
15803439 3 14634879630140354768
19841028 212 18409165528100066329
20165401 70 18198059382189171615
2026 5 18338795732626436527
21095086 4 18411419505314074339
21130935 74 18269275845758514217
21362267 20 17977945680162390730
23569914 2 13986948561100634942
23569943 247 18410862092708070235
270888 7 9223226347312105780
2748736 6 9151172021928575141
2835820 83 18410857681307554319
393628 194 9943509813598575939
406291 66 18410856572941799647
5718773 13 18410573985341712533
57816332 2 17685224163434406420
636775 72 9150584908615480782
636775 8 18268435642759680654

>  <PUBCHEM_SHAPE_MULTIPOLES>  (1) 
420.43
31.03
6.65
0.69
2.98
1.72
0
57.5
1.09
1.69
-0.04
0.06
-0.03
0.76

>  <PUBCHEM_SHAPE_SELFOVERLAP>  (1) 
782.774

>  <PUBCHEM_SHAPE_VOLUME>  (1) 
262.4

>  <PUBCHEM_COORDINATE_TYPE>  (1) 
2
5
10

$$$$
