27749
     RDKit          3D

 17 19  0  0  1  0  0  0  0  0999 V2000
   -3.1986   -1.2838   -1.1993 O   0  0  0  0  0  0  0  0  0  0  0  0
   -2.7688    0.9489   -1.3615 O   0  0  0  0  0  0  0  0  0  0  0  0
   -0.5297   -0.5362    0.4899 C   0  0  0  0  0  0  0  0  0  0  0  0
    1.4733   -1.4666   -0.2857 C   0  0  0  0  0  0  0  0  0  0  0  0
   -0.0121   -1.3814   -0.6723 C   0  0  0  0  0  0  0  0  0  0  0  0
    2.1790   -0.0714   -0.5232 C   0  0  0  0  0  0  0  0  0  0  0  0
    0.0532   -1.2784    1.7098 C   0  0  0  0  0  0  0  0  0  0  0  0
    0.0658    0.8609    0.4511 C   0  0  0  0  0  0  0  0  0  0  0  0
   -2.0331   -0.2879    0.5848 C   0  0  0  0  0  0  0  0  0  0  0  0
    1.3666   -1.8859    1.1975 C   0  0  0  0  0  0  0  0  0  0  0  0
    1.3114    1.1013   -0.0093 C   0  0  0  0  0  0  0  0  0  0  0  0
   -0.9456    1.8606    0.9405 C   0  0  0  0  0  0  0  0  0  0  0  0
   -2.1318    1.0060    1.3951 C   0  0  0  0  0  0  0  0  0  0  0  0
    3.5694   -0.0657    0.1479 C   0  0  0  0  0  0  0  0  0  0  0  0
    2.4026    0.0970   -2.0472 C   0  0  0  0  0  0  0  0  0  0  0  0
   -2.6925   -0.1081   -0.7531 C   0  0  0  0  0  0  0  0  0  0  0  0
    1.8908    2.4908   -0.0651 C   0  0  0  0  0  0  0  0  0  0  0  0
  1 16  1  0
  2 16  2  0
  3  5  1  0
  3  7  1  0
  3  8  1  0
  3  9  1  0
  4  5  1  0
  4  6  1  0
  4 10  1  0
  6 11  1  0
  6 14  1  0
  6 15  1  0
  7 10  1  0
  8 11  2  0
  8 12  1  0
  9 13  1  0
  9 16  1  0
 11 17  1  0
 12 13  1  0
M  END
>  <PUBCHEM_COMPOUND_CID>  (1) 
27749

>  <PUBCHEM_CONFORMER_RMSD>  (1) 
0.6

>  <PUBCHEM_CONFORMER_DIVERSEORDER>  (1) 
3
4
5
1
2

>  <PUBCHEM_MMFF94_PARTIAL_CHARGES>  (1) 
11
1 -0.65
11 -0.28
12 0.14
16 0.66
17 0.14
2 -0.57
3 0.14
39 0.5
6 0.14
8 -0.28
9 0.06

>  <PUBCHEM_EFFECTIVE_ROTOR_COUNT>  (1) 
2.4

>  <PUBCHEM_PHARMACOPHORE_FEATURES>  (1) 
6
1 1 acceptor
1 2 acceptor
3 1 2 16 anion
3 6 14 15 hydrophobe
5 3 8 9 12 13 rings
8 3 4 5 6 7 8 10 11 rings

>  <PUBCHEM_HEAVY_ATOM_COUNT>  (1) 
17

>  <PUBCHEM_ATOM_DEF_STEREO_COUNT>  (1) 
0

>  <PUBCHEM_ATOM_UDEF_STEREO_COUNT>  (1) 
3

>  <PUBCHEM_BOND_DEF_STEREO_COUNT>  (1) 
0

>  <PUBCHEM_BOND_UDEF_STEREO_COUNT>  (1) 
0

>  <PUBCHEM_ISOTOPIC_ATOM_COUNT>  (1) 
0

>  <PUBCHEM_COMPONENT_COUNT>  (1) 
1

>  <PUBCHEM_CACTVS_TAUTO_COUNT>  (1) 
1

>  <PUBCHEM_CONFORMER_ID>  (1) 
00006C6500000003

>  <PUBCHEM_MMFF94_ENERGY>  (1) 
52.7941

>  <PUBCHEM_FEATURE_SELFOVERLAP>  (1) 
30.569

>  <PUBCHEM_SHAPE_FINGERPRINT>  (1) 
10353120 184 18268453302599733784
10863032 1 17822838789203922623
12423570 1 16834074194720745050
12491281 212 18058184846566679024
13299463 15 18336259128528802949
13464514 151 17824247211996498101
13571099 52 17677037006109795989
14181834 199 17896579757172026842
144361 1 18337662032061289633
14761567 1 18261968417415857226
15775835 57 18260829271871857453
15852999 172 17896593075854730978
16945 1 18339938059827637778
18186145 218 18336553810224156060
18981168 100 17098634658211532108
20525323 117 18270967821320526946
22112679 90 18124875651255944962
22344851 262 17844267136947276816
2334 1 17979366578925981920
23402539 116 18131071490058182318
23419403 2 17543652158505602787
23557571 272 17131833135969337040
23559900 14 16629970894101120766
25 1 18113902628168655436
2748010 2 17978247267583321896
34934 24 18197225749631035817
353137 74 18343298197374261665
5084963 1 17895490222520897842
5262128 65 17988380237753799924
528886 8 17988371377230713859
5845 1 9654741677370930490
63268167 104 18261394395094515634
7832392 63 17914632569626437200

>  <PUBCHEM_SHAPE_MULTIPOLES>  (1) 
338.11
4.41
2.07
1.57
0.42
0.54
0.24
0.24
1.52
-0.49
-0.44
0.28
-0.25
-0.52

>  <PUBCHEM_SHAPE_SELFOVERLAP>  (1) 
732.597

>  <PUBCHEM_SHAPE_VOLUME>  (1) 
189.1

>  <PUBCHEM_COORDINATE_TYPE>  (1) 
2
5
10

$$$$
