27759
     RDKit          3D

 10  9  0  0  1  0  0  0  0  0999 V2000
   -2.8921    1.8746   -0.6905 Cl  0  0  0  0  0  0  0  0  0  0  0  0
    0.0576   -0.3118    0.2933 O   0  0  0  0  0  0  0  0  0  0  0  0
   -3.4662   -1.1208   -0.1679 O   0  0  0  0  0  0  0  0  0  0  0  0
    2.4230    0.0586    0.3202 C   0  0  0  0  0  0  0  0  0  0  0  0
    1.2412   -0.4774   -0.4751 C   0  0  0  0  0  0  0  0  0  0  0  0
   -1.0860   -0.7955   -0.3982 C   0  0  0  0  0  0  0  0  0  0  0  0
   -2.3178   -0.5636    0.4719 C   0  0  0  0  0  0  0  0  0  0  0  0
    3.7306   -0.0736   -0.4553 C   0  0  0  0  0  0  0  0  0  0  0  0
   -2.5920    0.9073    0.7769 C   0  0  0  0  0  0  0  0  0  0  0  0
    4.9017    0.5022    0.3247 C   0  0  0  0  0  0  0  0  0  0  0  0
  1  9  1  0
  2  5  1  0
  2  6  1  0
  3  7  1  0
  4  5  1  0
  4  8  1  0
  6  7  1  0
  7  9  1  0
  8 10  1  0
M  END
>  <PUBCHEM_COMPOUND_CID>  (1) 
27759

>  <PUBCHEM_CONFORMER_RMSD>  (1) 
0.6

>  <PUBCHEM_CONFORMER_DIVERSEORDER>  (1) 
2
268
264
287
69
101
6
296
143
288
68
138
194
13
223
201
305
127
38
259
4
226
230
270
303
1
289
82
290
291
108
53
238
221
273
19
62
293
9
251
146
99
304
220
182
135
83
284
64
12
243
298
294
199
36
245
27
210
103
37
263
254
240
52
191
159
269
33
112
299
295
155
208
140
11
247
81
22
72
232
266
233
277
145
114
152
32
172
198
196
157
86
120
109
231
218
267
18
306
256
65
260
73
204
169
8
219
286
297
170
147
211
249
236
136
246
31
54
239
216
107
279
20
183
29
185
187
84
41
55
302
97
129
252
154
300
261
51
257
215
203
258
166
67
207
209
95
181
176
44
282
47
214
75
202
274
248
71
276
225
130
131
119
118
25
128
56
192
206
17
59
301
242
283
197
158
40
278
93
200
14
100
123
113
106
175
173
227
179
222
3
234
164
151
229
79
195
90
160
45
184
237
141
307
21
275
189
235
63
57
149
122
26
253
144
124
5
116
78
212
49
271
92
66
168
133
262
190
177
163
156
188
35
161
115
61
281
174
88
102
125
292
142
76
132
213
104
28
89
30
171
85
205
165
39
42
134
285
250
193
162
178
153
87
77
139
46
16
224
244
167
148
117
186
94
241
272
43
280
111
98
24
121
105
126
110
228
58
265
217
150
48
70
96
74
15
180
50
80
137
255
60
34
10
7
91
23

>  <PUBCHEM_MMFF94_PARTIAL_CHARGES>  (1) 
8
1 -0.29
2 -0.56
25 0.4
3 -0.68
5 0.28
6 0.28
7 0.28
9 0.29

>  <PUBCHEM_EFFECTIVE_ROTOR_COUNT>  (1) 
6

>  <PUBCHEM_PHARMACOPHORE_FEATURES>  (1) 
4
1 10 hydrophobe
1 2 acceptor
1 3 acceptor
1 3 donor

>  <PUBCHEM_HEAVY_ATOM_COUNT>  (1) 
10

>  <PUBCHEM_ATOM_DEF_STEREO_COUNT>  (1) 
0

>  <PUBCHEM_ATOM_UDEF_STEREO_COUNT>  (1) 
1

>  <PUBCHEM_BOND_DEF_STEREO_COUNT>  (1) 
0

>  <PUBCHEM_BOND_UDEF_STEREO_COUNT>  (1) 
0

>  <PUBCHEM_ISOTOPIC_ATOM_COUNT>  (1) 
0

>  <PUBCHEM_COMPONENT_COUNT>  (1) 
1

>  <PUBCHEM_CACTVS_TAUTO_COUNT>  (1) 
1

>  <PUBCHEM_CONFORMER_ID>  (1) 
00006C6F00000002

>  <PUBCHEM_MMFF94_ENERGY>  (1) 
8.4397

>  <PUBCHEM_FEATURE_SELFOVERLAP>  (1) 
20.297

>  <PUBCHEM_SHAPE_FINGERPRINT>  (1) 
11062470 55 11887962051181481218
12932764 1 17774993600882667866
14251710 61 9583222968579525900
14325111 11 18272092677814307294
17802600 8 18411133679583381380
18186145 218 18129955489834854454
190213 19 17167864175341089250
1986462 14 18272657839506931750
20281407 28 12685092592361348460
20645477 56 18338240371114822949
20645477 70 17131846330905715630
20828058 21 18411142446133527806
20828058 44 8574715689452090580
23380061 127 18334573563975739399
23402539 116 18335978766165276655
3248919 1 17022915535570568642

>  <PUBCHEM_SHAPE_MULTIPOLES>  (1) 
195.93
8.62
1.34
0.84
8.49
0.49
0.01
1.96
0.34
-1.66
-0.21
-0.19
0.11
0.32

>  <PUBCHEM_SHAPE_SELFOVERLAP>  (1) 
342.096

>  <PUBCHEM_SHAPE_VOLUME>  (1) 
130.1

>  <PUBCHEM_COORDINATE_TYPE>  (1) 
2
5
10

$$$$
