27752
     RDKit          3D

 25 27  0  0  1  0  0  0  0  0999 V2000
    0.8184   -2.7980    1.4868 O   0  0  0  0  0  0  0  0  0  0  0  0
    1.5385   -3.5082   -0.4697 O   0  0  0  0  0  0  0  0  0  0  0  0
   -3.6315    3.2504    0.5189 O   0  0  0  0  0  0  0  0  0  0  0  0
   -1.5023    3.7070    0.2098 O   0  0  0  0  0  0  0  0  0  0  0  0
    5.1000    1.8527    0.3765 O   0  0  0  0  0  0  0  0  0  0  0  0
    5.6295   -0.2424   -0.0487 O   0  0  0  0  0  0  0  0  0  0  0  0
   -3.8066   -2.9220   -0.2736 O   0  0  0  0  0  0  0  0  0  0  0  0
   -5.2007   -1.2859    0.1923 O   0  0  0  0  0  0  0  0  0  0  0  0
    0.2507    1.8475   -0.3053 N   0  0  0  0  0  0  0  0  0  0  0  0
    1.3328   -2.6215    0.3724 N   0  0  0  0  0  0  0  0  0  0  0  0
   -2.4549    2.8929    0.2708 N   0  0  0  0  0  0  0  0  0  0  0  0
    4.8152    0.6774    0.1082 N   0  0  0  0  0  0  0  0  0  0  0  0
   -4.0486   -1.7105   -0.0609 N   0  0  0  0  0  0  0  0  0  0  0  0
    0.7905   -0.4568   -0.7678 C   0  0  0  0  0  0  0  0  0  0  0  0
   -0.6566   -0.3053   -0.4220 C   0  0  0  0  0  0  0  0  0  0  0  0
    1.2260    1.0135   -0.5230 C   0  0  0  0  0  0  0  0  0  0  0  0
   -0.9121    1.0599   -0.2245 C   0  0  0  0  0  0  0  0  0  0  0  0
    1.7177   -1.2979    0.0336 C   0  0  0  0  0  0  0  0  0  0  0  0
   -1.6821   -1.2335   -0.3875 C   0  0  0  0  0  0  0  0  0  0  0  0
    2.6640    1.3566   -0.4775 C   0  0  0  0  0  0  0  0  0  0  0  0
   -2.1911    1.5158    0.0515 C   0  0  0  0  0  0  0  0  0  0  0  0
    2.9683   -0.9493    0.3670 C   0  0  0  0  0  0  0  0  0  0  0  0
    3.4362    0.3575   -0.0321 C   0  0  0  0  0  0  0  0  0  0  0  0
   -2.9744   -0.7815   -0.1077 C   0  0  0  0  0  0  0  0  0  0  0  0
   -3.2269    0.5817    0.1124 C   0  0  0  0  0  0  0  0  0  0  0  0
  1 10  1  0
  2 10  2  0
  3 11  1  0
  4 11  2  0
  5 12  1  0
  6 12  2  0
  7 13  1  0
  8 13  2  0
  9 16  2  0
  9 17  1  0
 10 18  1  0
 11 21  1  0
 12 23  1  0
 13 24  1  0
 14 15  1  0
 14 16  1  0
 14 18  1  0
 15 17  2  0
 15 19  1  0
 16 20  1  0
 17 21  1  0
 18 22  2  0
 19 24  2  0
 20 23  2  0
 21 25  2  0
 22 23  1  0
 24 25  1  0
M  CHG  8   1  -1   3  -1   5  -1   7  -1  10   1  11   1  12   1  13   1
M  END
>  <PUBCHEM_COMPOUND_CID>  (1) 
27752

>  <PUBCHEM_CONFORMER_RMSD>  (1) 
0.8

>  <PUBCHEM_CONFORMER_DIVERSEORDER>  (1) 
1

>  <PUBCHEM_MMFF94_PARTIAL_CHARGES>  (1) 
29
1 -0.52
10 0.84
11 0.91
12 0.84
13 0.91
14 0.34
15 -0.14
16 0.37
17 0.18
18 0.07
19 -0.15
2 -0.52
20 -0.14
21 0.13
22 -0.15
23 0.2
24 0.13
25 -0.15
27 0.15
28 0.15
29 0.15
3 -0.52
30 0.15
4 -0.52
5 -0.52
6 -0.52
7 -0.52
8 -0.52
9 -0.63

>  <PUBCHEM_EFFECTIVE_ROTOR_COUNT>  (1) 
4

>  <PUBCHEM_PHARMACOPHORE_FEATURES>  (1) 
16
1 1 acceptor
1 1 anion
1 2 acceptor
1 3 acceptor
1 3 anion
1 4 acceptor
1 5 acceptor
1 5 anion
1 6 acceptor
1 7 acceptor
1 7 anion
1 8 acceptor
1 9 acceptor
5 9 14 15 16 17 rings
6 14 16 18 20 22 23 rings
6 15 17 19 21 24 25 rings

>  <PUBCHEM_HEAVY_ATOM_COUNT>  (1) 
25

>  <PUBCHEM_ATOM_DEF_STEREO_COUNT>  (1) 
0

>  <PUBCHEM_ATOM_UDEF_STEREO_COUNT>  (1) 
1

>  <PUBCHEM_BOND_DEF_STEREO_COUNT>  (1) 
0

>  <PUBCHEM_BOND_UDEF_STEREO_COUNT>  (1) 
0

>  <PUBCHEM_ISOTOPIC_ATOM_COUNT>  (1) 
0

>  <PUBCHEM_COMPONENT_COUNT>  (1) 
1

>  <PUBCHEM_CACTVS_TAUTO_COUNT>  (1) 
2

>  <PUBCHEM_CONFORMER_ID>  (1) 
00006C6800000001

>  <PUBCHEM_MMFF94_ENERGY>  (1) 
93.8877

>  <PUBCHEM_FEATURE_SELFOVERLAP>  (1) 
81.756

>  <PUBCHEM_SHAPE_FINGERPRINT>  (1) 
10319926 262 18270948065357163056
10616163 171 18411419483881546431
10967382 1 17978230791957048533
1100329 8 17977101589072642662
12107183 9 17832419804958808754
12390115 104 18271258174681103000
12403260 363 18335700585328053644
12553582 1 18339913935487375207
12633257 1 17900249815479865514
12788726 201 18194701460080963236
12839892 36 18337375077128647082
12930653 34 18412262805052491236
13140716 1 18048601709356652163
14178342 30 18337101268436262552
14223421 5 18339643326207925479
14787075 74 18191584353242751086
14790565 3 18338805640076699860
15196674 1 18410292493506567804
15209289 33 18338795723318375550
15442244 35 18049722919180144103
16945 1 18410862027244063877
17349148 13 17967813885688227770
17492 89 18338235943135987747
19591789 44 18267583704908335150
200 152 18336539516905194143
20028762 73 18127972120919361302
20510252 161 18343585165772633424
20691752 17 17313675828317788214
21267235 1 18337399326018004470
21421861 104 18261112911834183283
23366157 5 17970636177787619566
23402539 116 18270113651294554599
23557571 272 18202289086670962725
23558518 356 18262246520964468643
23559900 14 17982728576473234222
283562 15 18337387235674217939
34934 24 18412541025035114591
350125 39 18338518650525511460
352729 6 17972053679924378022
392239 28 18266176308708285904
43471831 8 18335135380480008602
463206 1 18120936372241721503
474229 33 18337389456547219958
5104073 3 18339637850594005200
5486654 2 18265900335574183502
59554788 62 17749953241483182437
59755656 215 18410293605507894247
7097593 13 17684642130418327922
7364860 26 18052257298193912078
9709674 26 18198061374373294103

>  <PUBCHEM_SHAPE_MULTIPOLES>  (1) 
442.63
8.98
3.82
0.75
3.83
0.25
0.06
0.38
0.82
-2.61
0.57
0.11
-0.19
-0.55

>  <PUBCHEM_SHAPE_SELFOVERLAP>  (1) 
991.382

>  <PUBCHEM_SHAPE_VOLUME>  (1) 
235.4

>  <PUBCHEM_COORDINATE_TYPE>  (1) 
2
5
10

$$$$
