27757
     RDKit          3D

 20 21  0  0  0  0  0  0  0  0999 V2000
   -4.0803   -2.5421   -1.6884 Cl  0  0  0  0  0  0  0  0  0  0  0  0
    2.2669    3.1049   -0.8314 O   0  0  0  0  0  0  0  0  0  0  0  0
    0.1227    3.0042   -0.3520 O   0  0  0  0  0  0  0  0  0  0  0  0
    4.2278   -2.6424    0.3668 O   0  0  0  0  0  0  0  0  0  0  0  0
    5.0705   -0.7389   -0.3434 O   0  0  0  0  0  0  0  0  0  0  0  0
   -0.9782    0.9343    0.4605 N   0  0  0  0  0  0  0  0  0  0  0  0
    1.2555    2.4770   -0.4418 N   0  0  0  0  0  0  0  0  0  0  0  0
    4.1054   -1.4340    0.0547 N   0  0  0  0  0  0  0  0  0  0  0  0
    0.3029    0.3593    0.3527 C   0  0  0  0  0  0  0  0  0  0  0  0
    1.3990    1.1063   -0.0869 C   0  0  0  0  0  0  0  0  0  0  0  0
   -2.2780    0.4017    0.3333 C   0  0  0  0  0  0  0  0  0  0  0  0
    0.4743   -0.9850    0.6928 C   0  0  0  0  0  0  0  0  0  0  0  0
    2.6576    0.5132   -0.1854 C   0  0  0  0  0  0  0  0  0  0  0  0
    2.8244   -0.8292    0.1550 C   0  0  0  0  0  0  0  0  0  0  0  0
    1.7329   -1.5783    0.5942 C   0  0  0  0  0  0  0  0  0  0  0  0
   -2.5092   -0.6803   -0.5161 C   0  0  0  0  0  0  0  0  0  0  0  0
   -3.3324    0.9572    1.0581 C   0  0  0  0  0  0  0  0  0  0  0  0
   -3.7947   -1.2069   -0.6406 C   0  0  0  0  0  0  0  0  0  0  0  0
   -4.6180    0.4305    0.9335 C   0  0  0  0  0  0  0  0  0  0  0  0
   -4.8492   -0.6515    0.0842 C   0  0  0  0  0  0  0  0  0  0  0  0
  1 18  1  0
  2  7  1  0
  3  7  2  0
  4  8  1  0
  5  8  2  0
  6  9  1  0
  6 11  1  0
  7 10  1  0
  8 14  1  0
  9 10  2  0
  9 12  1  0
 10 13  1  0
 11 16  2  0
 11 17  1  0
 12 15  2  0
 13 14  2  0
 14 15  1  0
 16 18  1  0
 17 19  2  0
 18 20  2  0
 19 20  1  0
M  CHG  4   2  -1   4  -1   7   1   8   1
M  END
>  <PUBCHEM_COMPOUND_CID>  (1) 
27757

>  <PUBCHEM_CONFORMER_RMSD>  (1) 
0.6

>  <PUBCHEM_CONFORMER_DIVERSEORDER>  (1) 
1
10
9
2
5
12
8
7
11
6
3
4

>  <PUBCHEM_MMFF94_PARTIAL_CHARGES>  (1) 
28
1 -0.18
10 0.13
11 0.1
12 -0.15
13 -0.15
14 0.13
15 -0.15
16 -0.15
17 -0.15
18 0.18
19 -0.15
2 -0.52
20 -0.15
21 0.4
22 0.15
23 0.15
24 0.15
25 0.15
26 0.15
27 0.15
28 0.15
3 -0.52
4 -0.52
5 -0.52
6 -0.6
7 0.91
8 0.91
9 0.1

>  <PUBCHEM_EFFECTIVE_ROTOR_COUNT>  (1) 
4

>  <PUBCHEM_PHARMACOPHORE_FEATURES>  (1) 
10
1 2 acceptor
1 2 anion
1 3 acceptor
1 4 acceptor
1 4 anion
1 5 acceptor
1 6 cation
1 6 donor
6 11 16 17 18 19 20 rings
6 9 10 12 13 14 15 rings

>  <PUBCHEM_HEAVY_ATOM_COUNT>  (1) 
20

>  <PUBCHEM_ATOM_DEF_STEREO_COUNT>  (1) 
0

>  <PUBCHEM_ATOM_UDEF_STEREO_COUNT>  (1) 
0

>  <PUBCHEM_BOND_DEF_STEREO_COUNT>  (1) 
0

>  <PUBCHEM_BOND_UDEF_STEREO_COUNT>  (1) 
0

>  <PUBCHEM_ISOTOPIC_ATOM_COUNT>  (1) 
0

>  <PUBCHEM_COMPONENT_COUNT>  (1) 
1

>  <PUBCHEM_CACTVS_TAUTO_COUNT>  (1) 
1

>  <PUBCHEM_CONFORMER_ID>  (1) 
00006C6D00000001

>  <PUBCHEM_MMFF94_ENERGY>  (1) 
80.6892

>  <PUBCHEM_FEATURE_SELFOVERLAP>  (1) 
50.906

>  <PUBCHEM_SHAPE_FINGERPRINT>  (1) 
10062212 137 18273495689274896911
10616163 171 18131069359628667151
11578080 2 18057581262097495673
11806522 49 18412260644958208914
12236239 1 18272655649527200609
12553582 1 18261947445190985683
12596599 1 18130804351334224063
12916754 54 18336263539855835239
13009979 54 18131078142598553147
13862211 1 18261673680155337994
13899415 180 18113886157116917980
14576447 43 18411696616952620254
14767858 380 18187663409654132214
15099037 8 18271522108820927055
15442244 35 18411984654575860777
15842332 3 18200611301100244497
17357779 13 17531238457279115485
17492 89 18267865163175415511
1813 80 18337685104694195470
18186145 218 17385719240410270971
18222031 100 18410562972908305274
18915474 69 18200025278529638031
19141452 34 18201158728846321723
19422 9 18271526506899041247
200 152 18411138017832432707
20281475 54 18272085063174765215
20291156 8 18411979131089448211
20600515 1 16487264257191774857
20612939 158 18261678163594636773
20645477 70 18114739455660330529
21267235 1 18411992351384141099
21634736 98 18268142235409474391
21641784 216 17605014524025801236
221490 88 18189343535628988395
2255824 54 18335987561714570448
22646028 28 18343018900125506415
22950370 63 18338521837507016702
23402539 116 18337669707426563858
23559900 14 18271232915687583659
23566358 27 18190752018998757871
23598291 2 18341331184299853405
23622692 118 18129934702330448055
25147074 1 18201446930190080937
312423 11 18270121348245168383
474 4 18045221793591521349
5104073 3 18131353042165385683
53777708 50 18270402831795651451
559249 180 18270115709053387427
633830 44 17676766552531025681
67856867 119 18199463436208527624
7364860 26 18339643455199596552
84936 182 18055921145283481681
9709674 26 18262800812612234475
9971528 1 18410851070998873512
9981440 41 17474663326742708992

>  <PUBCHEM_SHAPE_MULTIPOLES>  (1) 
375.04
9.84
2.88
1.02
1.6
0.95
0.13
-5.55
0.43
-1.67
0.95
0.85
-0.17
-2.2

>  <PUBCHEM_SHAPE_SELFOVERLAP>  (1) 
802.036

>  <PUBCHEM_SHAPE_VOLUME>  (1) 
207.6

>  <PUBCHEM_COORDINATE_TYPE>  (1) 
2
5
10

$$$$
