27756
     RDKit          3D

  9 10  0  0  1  0  0  0  0  0999 V2000
   -1.2536    1.0779   -0.1036 C   0  0  0  0  0  0  0  0  0  0  0  0
   -0.4768   -0.9812   -0.5141 C   0  0  0  0  0  0  0  0  0  0  0  0
   -1.2392    0.1012   -1.2869 C   0  0  0  0  0  0  0  0  0  0  0  0
    0.2628    1.2454    0.1638 C   0  0  0  0  0  0  0  0  0  0  0  0
    0.7463   -0.1724   -0.1193 C   0  0  0  0  0  0  0  0  0  0  0  0
   -1.8419    0.1559    0.9464 C   0  0  0  0  0  0  0  0  0  0  0  0
   -1.3810   -1.0805    0.6934 C   0  0  0  0  0  0  0  0  0  0  0  0
    2.0086   -0.6046   -0.0668 C   0  0  0  0  0  0  0  0  0  0  0  0
    3.1747    0.2582    0.2870 C   0  0  0  0  0  0  0  0  0  0  0  0
  1  3  1  0
  1  4  1  0
  1  6  1  0
  2  3  1  0
  2  5  1  0
  2  7  1  0
  4  5  1  0
  5  8  2  0
  6  7  2  0
  8  9  1  0
M  END
>  <PUBCHEM_COMPOUND_CID>  (1) 
27756

>  <PUBCHEM_CONFORMER_RMSD>  (1) 
0.4

>  <PUBCHEM_CONFORMER_DIVERSEORDER>  (1) 
1
2

>  <PUBCHEM_MMFF94_PARTIAL_CHARGES>  (1) 
11
1 0.14
16 0.15
17 0.15
18 0.15
2 0.28
4 0.14
5 -0.28
6 -0.29
7 -0.29
8 -0.29
9 0.14

>  <PUBCHEM_EFFECTIVE_ROTOR_COUNT>  (1) 
0.4

>  <PUBCHEM_PHARMACOPHORE_FEATURES>  (1) 
2
1 9 hydrophobe
7 1 2 3 4 5 6 7 rings

>  <PUBCHEM_HEAVY_ATOM_COUNT>  (1) 
9

>  <PUBCHEM_ATOM_DEF_STEREO_COUNT>  (1) 
0

>  <PUBCHEM_ATOM_UDEF_STEREO_COUNT>  (1) 
2

>  <PUBCHEM_BOND_DEF_STEREO_COUNT>  (1) 
0

>  <PUBCHEM_BOND_UDEF_STEREO_COUNT>  (1) 
1

>  <PUBCHEM_ISOTOPIC_ATOM_COUNT>  (1) 
0

>  <PUBCHEM_COMPONENT_COUNT>  (1) 
1

>  <PUBCHEM_CACTVS_TAUTO_COUNT>  (1) 
1

>  <PUBCHEM_CONFORMER_ID>  (1) 
00006C6C00000001

>  <PUBCHEM_MMFF94_ENERGY>  (1) 
32.4998

>  <PUBCHEM_FEATURE_SELFOVERLAP>  (1) 
10.148

>  <PUBCHEM_SHAPE_FINGERPRINT>  (1) 
10857977 72 18336266837815666938
12423570 1 8808732608797107607
13024252 1 16008746900788443123
137420 1 13774181807699615447
16945 1 18115042843401832243
20645464 45 17989210330689008742
20653085 51 11743849053190890890
21040471 1 18119819005801198149
23552423 10 18187089416828323054
29004967 10 18335990821747664090
369184 2 17458338633081372344
5084963 1 17418083330434362782

>  <PUBCHEM_SHAPE_MULTIPOLES>  (1) 
185.22
3.21
1.21
1
3.07
0.09
-0.12
0.03
0.54
-0.25
0.05
-0.47
-0.05
0.13

>  <PUBCHEM_SHAPE_SELFOVERLAP>  (1) 
396.619

>  <PUBCHEM_SHAPE_VOLUME>  (1) 
104.2

>  <PUBCHEM_COORDINATE_TYPE>  (1) 
2
5
10

$$$$
