27766
     RDKit          3D

 25 27  0  0  0  0  0  0  0  0999 V2000
    3.5860    0.0504    1.1666 O   0  0  0  0  0  0  0  0  0  0  0  0
    5.4317    0.5852   -0.0707 O   0  0  0  0  0  0  0  0  0  0  0  0
    3.4855    1.8379   -0.3111 N   0  0  0  0  0  0  0  0  0  0  0  0
   -2.9091   -1.3829    1.3844 C   0  0  0  0  0  0  0  0  0  0  0  0
   -1.4151   -1.7097    1.3921 C   0  0  0  0  0  0  0  0  0  0  0  0
   -1.2334    0.5232   -0.4306 C   0  0  0  0  0  0  0  0  0  0  0  0
   -3.3671   -0.0383    0.8475 C   0  0  0  0  0  0  0  0  0  0  0  0
   -0.8756   -1.9032   -0.0019 C   0  0  0  0  0  0  0  0  0  0  0  0
   -2.6152    0.8299    0.0251 C   0  0  0  0  0  0  0  0  0  0  0  0
   -0.7937   -0.8131   -0.8840 C   0  0  0  0  0  0  0  0  0  0  0  0
   -0.2818    1.4734   -0.3466 C   0  0  0  0  0  0  0  0  0  0  0  0
    1.1363    1.2680   -0.7767 C   0  0  0  0  0  0  0  0  0  0  0  0
   -4.6885    0.3289    1.1876 C   0  0  0  0  0  0  0  0  0  0  0  0
   -0.4576   -3.1704   -0.4327 C   0  0  0  0  0  0  0  0  0  0  0  0
   -3.2188    2.0222   -0.4324 C   0  0  0  0  0  0  0  0  0  0  0  0
   -0.3030   -1.0066   -2.1845 C   0  0  0  0  0  0  0  0  0  0  0  0
    2.1202    2.0524    0.0860 C   0  0  0  0  0  0  0  0  0  0  0  0
   -5.2578    1.5190    0.7393 C   0  0  0  0  0  0  0  0  0  0  0  0
    0.0330   -3.3523   -1.7257 C   0  0  0  0  0  0  0  0  0  0  0  0
   -4.5218    2.3663   -0.0741 C   0  0  0  0  0  0  0  0  0  0  0  0
    0.1093   -2.2721   -2.6008 C   0  0  0  0  0  0  0  0  0  0  0  0
    4.0292    2.7533   -1.3212 C   0  0  0  0  0  0  0  0  0  0  0  0
    4.2620    0.8017    0.2416 C   0  0  0  0  0  0  0  0  0  0  0  0
    4.3201   -1.0231    1.7671 C   0  0  0  0  0  0  0  0  0  0  0  0
    3.4254   -1.7400    2.7556 C   0  0  0  0  0  0  0  0  0  0  0  0
  1 23  1  0
  1 24  1  0
  2 23  2  0
  3 17  1  0
  3 22  1  0
  3 23  1  0
  4  5  1  0
  4  7  1  0
  5  8  1  0
  6  9  1  0
  6 10  1  0
  6 11  2  3
  7  9  2  0
  7 13  1  0
  8 10  2  0
  8 14  1  0
  9 15  1  0
 10 16  1  0
 11 12  1  0
 12 17  1  0
 13 18  2  0
 14 19  2  0
 15 20  2  0
 16 21  2  0
 18 20  1  0
 19 21  1  0
 24 25  1  0
M  END
>  <PUBCHEM_COMPOUND_CID>  (1) 
27766

>  <PUBCHEM_CONFORMER_RMSD>  (1) 
0.8

>  <PUBCHEM_CONFORMER_DIVERSEORDER>  (1) 
5
24
1
56
78
93
64
167
75
100
151
49
131
153
23
119
130
101
31
81
128
154
134
61
125
148
79
43
136
58
92
111
47
44
17
83
88
170
25
69
41
104
59
27
97
133
63
68
143
147
95
8
32
82
108
145
144
138
146
19
3
20
124
34
159
141
166
140
52
156
155
13
107
74
122
162
60
91
2
7
105
89
9
113
112
48
66
6
12
46
165
86
109
15
96
137
149
121
115
55
152
26
87
22
72
142
14
168
65
135
4
45
39
120
50
158
132
106
161
123
85
94
116
129
99
35
163
150
37
57
126
10
36
16
127
172
38
73
70
76
110
42
62
30
118
53
54
114
169
139
28
80
40
103
98
51
117
71
84
102
29
67
77
90
171
11
18
21
157
33
164
160

>  <PUBCHEM_MMFF94_PARTIAL_CHARGES>  (1) 
33
1 -0.43
10 0.03
11 -0.29
12 0.14
13 -0.15
14 -0.15
15 -0.15
16 -0.15
17 0.3
18 -0.15
19 -0.15
2 -0.57
20 -0.15
21 -0.15
22 0.3
23 0.78
24 0.28
3 -0.66
30 0.15
33 0.15
34 0.15
35 0.15
36 0.15
39 0.15
4 0.14
40 0.15
41 0.15
42 0.15
5 0.14
6 -0.06
7 -0.14
8 -0.14
9 0.03

>  <PUBCHEM_EFFECTIVE_ROTOR_COUNT>  (1) 
6.4

>  <PUBCHEM_PHARMACOPHORE_FEATURES>  (1) 
4
1 2 acceptor
6 7 9 13 15 18 20 rings
6 8 10 14 16 19 21 rings
7 4 5 6 7 8 9 10 rings

>  <PUBCHEM_HEAVY_ATOM_COUNT>  (1) 
25

>  <PUBCHEM_ATOM_DEF_STEREO_COUNT>  (1) 
0

>  <PUBCHEM_ATOM_UDEF_STEREO_COUNT>  (1) 
0

>  <PUBCHEM_BOND_DEF_STEREO_COUNT>  (1) 
0

>  <PUBCHEM_BOND_UDEF_STEREO_COUNT>  (1) 
0

>  <PUBCHEM_ISOTOPIC_ATOM_COUNT>  (1) 
0

>  <PUBCHEM_COMPONENT_COUNT>  (1) 
1

>  <PUBCHEM_CACTVS_TAUTO_COUNT>  (1) 
1

>  <PUBCHEM_CONFORMER_ID>  (1) 
00006C7600000005

>  <PUBCHEM_MMFF94_ENERGY>  (1) 
73.9822

>  <PUBCHEM_FEATURE_SELFOVERLAP>  (1) 
20.311

>  <PUBCHEM_SHAPE_FINGERPRINT>  (1) 
10764073 3 17534611617250853119
11135926 11 17895459390148126866
11578080 2 17843991190385137843
12107183 9 17681264469347614473
12166972 35 10735882755697130900
12422481 6 18194391200132694585
12553582 1 18042102325106670936
12592029 89 18341054025554187657
12633257 1 18114458955335384339
12788726 201 17911227635497342519
12839892 36 18343302595974965975
12892183 10 17822864202657256145
13004483 165 17338146855205256631
133893 2 17628099818069284723
13583140 156 17749378291359370636
14178342 30 17905592647548786912
14251764 3 17203604882680156504
14466204 15 18201158741653051369
15064986 96 18341056211925475130
15163728 17 18130520634432083955
15403338 16 17604981529522303091
16110190 28 18262504932747502746
17974551 9 17968380138276510153
1813 80 13984668027148551451
19319366 153 18042129924261131304
20554085 129 17560794395107014417
212916 134 17632569444410040776
23559900 14 18046369460244797791
23598288 3 18267022949910029670
23728640 28 18199742699456143078
3298306 158 18271254841058000845
3411729 13 18196942076290335425
3493558 16 16334968444548284891
7097593 13 18041561459099963284
9862522 239 18342178907775385671
9953998 17 18200856471504399168

>  <PUBCHEM_SHAPE_MULTIPOLES>  (1) 
497.77
9.79
3.61
2.12
3.04
1.35
-0.02
-7.18
-4.95
0.56
1.51
1.45
1.85
-1.34

>  <PUBCHEM_SHAPE_SELFOVERLAP>  (1) 
1056.393

>  <PUBCHEM_SHAPE_VOLUME>  (1) 
276.1

>  <PUBCHEM_COORDINATE_TYPE>  (1) 
2
5
10

$$$$
