2776
     RDKit          3D

 24 26  0  0  0  0  0  0  0  0999 V2000
    6.0531   -0.8059   -2.3451 Br  0  0  0  0  0  0  0  0  0  0  0  0
   -5.2626    0.7445   -0.4640 O   0  0  0  0  0  0  0  0  0  0  0  0
    1.7876   -0.3429    0.7327 N   0  0  0  0  0  0  0  0  0  0  0  0
    0.6090    3.5644    0.0441 N   0  0  0  0  0  0  0  0  0  0  0  0
    2.3235    1.9374    0.5130 N   0  0  0  0  0  0  0  0  0  0  0  0
   -3.2688   -0.4249   -0.0105 N   0  0  0  0  0  0  0  0  0  0  0  0
    0.0199    1.2496    0.2606 C   0  0  0  0  0  0  0  0  0  0  0  0
   -0.3208    2.5931    0.0334 C   0  0  0  0  0  0  0  0  0  0  0  0
    1.3674    0.9897    0.4953 C   0  0  0  0  0  0  0  0  0  0  0  0
   -0.9607    0.2425    0.2471 C   0  0  0  0  0  0  0  0  0  0  0  0
   -2.2913    0.5701    0.0061 C   0  0  0  0  0  0  0  0  0  0  0  0
   -1.6599    2.8925   -0.2052 C   0  0  0  0  0  0  0  0  0  0  0  0
   -2.6411    1.8966   -0.2203 C   0  0  0  0  0  0  0  0  0  0  0  0
    2.9912   -1.0168    0.4728 C   0  0  0  0  0  0  0  0  0  0  0  0
    3.7864   -0.6446   -0.6153 C   0  0  0  0  0  0  0  0  0  0  0  0
    3.4036   -2.0651    1.3010 C   0  0  0  0  0  0  0  0  0  0  0  0
    1.8803    3.1840    0.2836 C   0  0  0  0  0  0  0  0  0  0  0  0
    4.9826   -1.3140   -0.8726 C   0  0  0  0  0  0  0  0  0  0  0  0
    4.5999   -2.7347    1.0436 C   0  0  0  0  0  0  0  0  0  0  0  0
    5.3894   -2.3592   -0.0433 C   0  0  0  0  0  0  0  0  0  0  0  0
   -4.6393   -0.2821   -0.2352 C   0  0  0  0  0  0  0  0  0  0  0  0
   -5.3852   -1.5223   -0.1848 C   0  0  0  0  0  0  0  0  0  0  0  0
   -6.0052   -2.5501   -0.1437 C   0  0  0  0  0  0  0  0  0  0  0  0
   -6.7591   -3.8016   -0.0936 C   0  0  0  0  0  0  0  0  0  0  0  0
  1 18  1  0
  2 21  2  0
  3  9  1  0
  3 14  1  0
  4  8  2  0
  4 17  1  0
  5  9  1  0
  5 17  2  0
  6 11  1  0
  6 21  1  0
  7  8  1  0
  7  9  2  0
  7 10  1  0
  8 12  1  0
 10 11  2  0
 11 13  1  0
 12 13  2  0
 14 15  2  0
 14 16  1  0
 15 18  1  0
 16 19  2  0
 18 20  2  0
 19 20  1  0
 21 22  1  0
 22 23  3  0
 23 24  1  0
M  END
>  <PUBCHEM_COMPOUND_CID>  (1) 
2776

>  <PUBCHEM_CONFORMER_RMSD>  (1) 
0.8

>  <PUBCHEM_CONFORMER_DIVERSEORDER>  (1) 
1
21
28
9
31
24
10
29
23
11
4
22
32
19
6
12
15
18
30
5
17
16
27
3
20
14
2
13
7
8
26
25

>  <PUBCHEM_MMFF94_PARTIAL_CHARGES>  (1) 
33
1 -0.11
10 -0.15
11 0.12
12 -0.15
13 -0.15
14 0.1
15 -0.15
16 -0.15
17 0.47
18 0.11
19 -0.15
2 -0.57
20 -0.15
21 0.74
22 -0.1
23 -0.2
24 0.2
25 0.15
26 0.15
27 0.4
28 0.15
29 0.15
3 -0.6
30 0.15
31 0.37
32 0.15
33 0.15
34 0.15
4 -0.62
5 -0.62
6 -0.55
8 0.31
9 0.41

>  <PUBCHEM_EFFECTIVE_ROTOR_COUNT>  (1) 
4

>  <PUBCHEM_PHARMACOPHORE_FEATURES>  (1) 
10
1 1 hydrophobe
1 2 acceptor
1 24 hydrophobe
1 3 donor
1 6 donor
3 3 5 9 cation
3 4 5 17 cation
6 14 15 16 18 19 20 rings
6 4 5 7 8 9 17 rings
6 7 8 10 11 12 13 rings

>  <PUBCHEM_HEAVY_ATOM_COUNT>  (1) 
24

>  <PUBCHEM_ATOM_DEF_STEREO_COUNT>  (1) 
0

>  <PUBCHEM_ATOM_UDEF_STEREO_COUNT>  (1) 
0

>  <PUBCHEM_BOND_DEF_STEREO_COUNT>  (1) 
0

>  <PUBCHEM_BOND_UDEF_STEREO_COUNT>  (1) 
0

>  <PUBCHEM_ISOTOPIC_ATOM_COUNT>  (1) 
0

>  <PUBCHEM_COMPONENT_COUNT>  (1) 
1

>  <PUBCHEM_CACTVS_TAUTO_COUNT>  (1) 
6

>  <PUBCHEM_CONFORMER_ID>  (1) 
00000AD800000001

>  <PUBCHEM_MMFF94_ENERGY>  (1) 
77.2076

>  <PUBCHEM_FEATURE_SELFOVERLAP>  (1) 
50.916

>  <PUBCHEM_SHAPE_FINGERPRINT>  (1) 
10050765 1 18411134749663799545
10411042 1 18410570673773883635
10622 236 17607792912405256826
10692045 39 9223239520630690588
10883706 89 12678643887639400871
11963148 33 18121206842910878514
12107183 9 18341902840785188265
12293681 25 17751369601854661027
12422481 6 17060337431360458631
12553582 1 18341317912671859462
13009979 54 18060429023246359673
13533116 47 18198060494606540427
13540713 4 18267282331528432113
13690498 29 18186800267129838983
13955234 65 18055348304241618577
14123256 34 18272940435597201095
14251740 57 18270676597132285075
14251764 30 18410292523556027887
14767858 380 18187378623099406470
14790565 3 17187004190132505752
14866123 147 18268147549106894113
15250474 111 17971748874627670506
15927050 60 17908984653514922070
17138139 8 18040712528833625594
17492 89 18339075008294255995
18222031 100 18273208669052009668
19246450 95 12102178660365274278
193927 3 18059856142774336653
20028762 73 16973081571380548414
20775438 99 17975961387184038075
21054139 6 18042407937768540826
21315759 148 17203048474653153010
21344244 246 18265062495557423628
22950370 63 18338519638182658664
23424784 1240 17828209019539678123
23522609 53 18121251755325974381
23559900 14 18338785772001041817
255183 451 18340491183418268575
2748736 6 9223234018603744427
3004659 81 17896600583943322282
329604 57 18334861572109371286
335352 9 18266454318380267557
3421961 26 18339917212019693753
465052 167 18272936041571188351
5104073 3 18131353042518586097
6058803 2 17754745919017692490
6700243 42 17841739334636553916
7970288 3 18338510846454104451
8217 86 18412269432440269118
8863177 126 18410291454198737939
9709674 26 18261951976919124369

>  <PUBCHEM_SHAPE_MULTIPOLES>  (1) 
474.06
15.59
4.49
1.15
10.91
0.77
0.46
-20.65
5.05
2.86
-0.53
-2.41
-0.53
-0.38

>  <PUBCHEM_SHAPE_SELFOVERLAP>  (1) 
1015.526

>  <PUBCHEM_SHAPE_VOLUME>  (1) 
266.4

>  <PUBCHEM_COORDINATE_TYPE>  (1) 
2
5
10

$$$$
