27761
     RDKit          3D

 22 23  0  0  0  0  0  0  0  0999 V2000
   -1.7280    1.9133    0.4002 O   0  0  0  0  0  0  0  0  0  0  0  0
    4.5235    0.1323    0.0477 N   0  0  0  0  0  0  0  0  0  0  0  0
   -1.0542   -0.2441   -0.2297 N   0  0  0  0  0  0  0  0  0  0  0  0
   -3.4879   -0.3256    2.2551 N   0  0  0  0  0  0  0  0  0  0  0  0
    3.1185    0.0323   -0.0246 C   0  0  0  0  0  0  0  0  0  0  0  0
    5.1512    1.3775    0.4424 C   0  0  0  0  0  0  0  0  0  0  0  0
    5.3574   -1.0131   -0.2582 C   0  0  0  0  0  0  0  0  0  0  0  0
    1.1334   -1.2695   -0.4745 C   0  0  0  0  0  0  0  0  0  0  0  0
    2.5230   -1.1707   -0.4043 C   0  0  0  0  0  0  0  0  0  0  0  0
    0.3586   -0.1641   -0.1640 C   0  0  0  0  0  0  0  0  0  0  0  0
    2.3244    1.1363    0.2847 C   0  0  0  0  0  0  0  0  0  0  0  0
    0.9349    1.0376    0.2148 C   0  0  0  0  0  0  0  0  0  0  0  0
    5.2387    2.3432   -0.7272 C   0  0  0  0  0  0  0  0  0  0  0  0
    5.4588   -1.9520    0.9319 C   0  0  0  0  0  0  0  0  0  0  0  0
    0.5225   -2.5703   -0.8842 C   0  0  0  0  0  0  0  0  0  0  0  0
   -1.9954    0.7561    0.0438 C   0  0  0  0  0  0  0  0  0  0  0  0
   -3.3931    0.3636   -0.0863 C   0  0  0  0  0  0  0  0  0  0  0  0
   -4.1036   -0.1591    0.9943 C   0  0  0  0  0  0  0  0  0  0  0  0
   -4.0194    0.5195   -1.3229 C   0  0  0  0  0  0  0  0  0  0  0  0
   -5.4404   -0.5258    0.8383 C   0  0  0  0  0  0  0  0  0  0  0  0
   -5.3563    0.1527   -1.4788 C   0  0  0  0  0  0  0  0  0  0  0  0
   -6.0666   -0.3700   -0.3984 C   0  0  0  0  0  0  0  0  0  0  0  0
  1 16  2  0
  2  5  1  0
  2  6  1  0
  2  7  1  0
  3 10  1  0
  3 16  1  0
  4 18  1  0
  5  9  2  0
  5 11  1  0
  6 13  1  0
  7 14  1  0
  8  9  1  0
  8 10  2  0
  8 15  1  0
 10 12  1  0
 11 12  2  0
 16 17  1  0
 17 18  2  0
 17 19  1  0
 18 20  1  0
 19 21  2  0
 20 22  2  0
 21 22  1  0
M  END
>  <PUBCHEM_COMPOUND_CID>  (1) 
27761

>  <PUBCHEM_CONFORMER_RMSD>  (1) 
0.8

>  <PUBCHEM_CONFORMER_DIVERSEORDER>  (1) 
1
19
10
7
3
16
18
13
17
11
4
2
21
14
12
5
8
20
6
9
15

>  <PUBCHEM_MMFF94_PARTIAL_CHARGES>  (1) 
30
1 -0.57
10 0.12
11 -0.15
12 -0.15
15 0.14
16 0.54
17 0.09
18 0.1
19 -0.15
2 -0.84
20 -0.15
21 -0.15
22 -0.15
27 0.15
28 0.15
29 0.15
3 -0.55
39 0.37
4 -0.9
40 0.15
41 0.15
42 0.15
43 0.15
44 0.4
45 0.4
5 0.1
6 0.37
7 0.37
8 -0.14
9 -0.15

>  <PUBCHEM_EFFECTIVE_ROTOR_COUNT>  (1) 
6

>  <PUBCHEM_PHARMACOPHORE_FEATURES>  (1) 
7
1 1 acceptor
1 2 cation
1 3 donor
1 4 cation
1 4 donor
6 17 18 19 20 21 22 rings
6 5 8 9 10 11 12 rings

>  <PUBCHEM_HEAVY_ATOM_COUNT>  (1) 
22

>  <PUBCHEM_ATOM_DEF_STEREO_COUNT>  (1) 
0

>  <PUBCHEM_ATOM_UDEF_STEREO_COUNT>  (1) 
0

>  <PUBCHEM_BOND_DEF_STEREO_COUNT>  (1) 
0

>  <PUBCHEM_BOND_UDEF_STEREO_COUNT>  (1) 
0

>  <PUBCHEM_ISOTOPIC_ATOM_COUNT>  (1) 
0

>  <PUBCHEM_COMPONENT_COUNT>  (1) 
1

>  <PUBCHEM_CACTVS_TAUTO_COUNT>  (1) 
5

>  <PUBCHEM_CONFORMER_ID>  (1) 
00006C7100000001

>  <PUBCHEM_MMFF94_ENERGY>  (1) 
91.715

>  <PUBCHEM_FEATURE_SELFOVERLAP>  (1) 
35.52

>  <PUBCHEM_SHAPE_FINGERPRINT>  (1) 
10 15 18041553754582853088
10366900 7 18059855086476067939
10670039 82 18337969917541763412
11045977 3 17676210195093700624
11796584 16 16805324379346571210
12107183 9 15980634424713791123
12166972 35 18187366523686358540
12236239 1 17346882247638837809
12403260 363 18340484453109615200
12616971 3 18060695087336742236
13533116 47 18410853248932226146
13583140 156 17676486176580353955
13631057 29 17773867783334890439
13862211 1 18343297029470393182
1420 363 18408044000511862287
14251764 18 17989483022874317594
14341114 176 18187370938653814296
14341114 328 17560806532447118129
14386348 63 18187088356087179299
14573314 32 16877941603201579842
14787075 74 18060700597732238552
14848160 23 17894349968954807843
14849402 71 16558452206552029560
15788980 27 17821730532996494591
17349148 13 18343587313366687434
17844677 252 18334298639030175988
18222031 100 15213022635550135830
19377110 9 17704070664110765202
19489759 90 16949998123993367557
200 152 18202279191635855905
20028762 73 17917988361067312110
20567600 75 17676204641485118110
20645477 70 18338795619954629310
21033648 29 18262501667902931389
21033650 10 15840457876108447528
21267235 1 18343025450451695454
21623969 137 18412553123704851083
21641784 216 18339378395651942084
21682296 61 18126288545647954694
23081809 10 18131353007409916673
23402539 116 18271804592998959653
23522609 53 17916047774431070001
23557571 272 17386286485019810901
23559900 14 17530684333578575249
335352 9 18342177787611776516
34797466 226 16660656162812845718
4340502 62 17458058283660478274
465052 167 18334295336590676386
474229 33 18342457053725492247
5104073 3 18340205185551131048
5283173 99 17677322810793843325
542803 24 16917351441604813525

>  <PUBCHEM_SHAPE_MULTIPOLES>  (1) 
431.94
15.27
1.95
1.21
2.31
0.22
0.26
-0.42
0.16
-3.19
-0.25
1.48
0.14
-0.13

>  <PUBCHEM_SHAPE_SELFOVERLAP>  (1) 
910.023

>  <PUBCHEM_SHAPE_VOLUME>  (1) 
243.8

>  <PUBCHEM_COORDINATE_TYPE>  (1) 
2
5
10

$$$$
