27763
     RDKit          3D

 16 17  0  0  0  0  0  0  0  0999 V2000
   -2.4298   -0.4407    0.7382 O   0  0  0  0  0  0  0  0  0  0  0  0
   -2.6001   -1.0046   -1.5274 O   0  0  0  0  0  0  0  0  0  0  0  0
    2.6186   -0.4343    0.2848 N   0  0  0  0  0  0  0  0  0  0  0  0
    0.8128    1.1670    0.0229 C   0  0  0  0  0  0  0  0  0  0  0  0
   -0.1212    0.1688    0.3710 C   0  0  0  0  0  0  0  0  0  0  0  0
    2.1729    0.8397   -0.0124 C   0  0  0  0  0  0  0  0  0  0  0  0
    4.0381   -0.7485    0.2388 C   0  0  0  0  0  0  0  0  0  0  0  0
    0.3372   -1.1192    0.6708 C   0  0  0  0  0  0  0  0  0  0  0  0
    1.6986   -1.4036    0.6240 C   0  0  0  0  0  0  0  0  0  0  0  0
   -1.4877    0.4914    0.4084 C   0  0  0  0  0  0  0  0  0  0  0  0
    0.3623    2.4614   -0.2793 C   0  0  0  0  0  0  0  0  0  0  0  0
   -1.9220    1.7825    0.1056 C   0  0  0  0  0  0  0  0  0  0  0  0
   -0.9983    2.7659   -0.2376 C   0  0  0  0  0  0  0  0  0  0  0  0
    4.4055   -1.2205   -1.1538 C   0  0  0  0  0  0  0  0  0  0  0  0
   -2.9321   -1.1556   -0.3591 C   0  0  0  0  0  0  0  0  0  0  0  0
   -3.9550   -2.1495    0.1052 C   0  0  0  0  0  0  0  0  0  0  0  0
  1 10  1  0
  1 15  1  0
  2 15  2  0
  3  6  2  0
  3  7  1  0
  3  9  1  0
  4  5  2  0
  4  6  1  0
  4 11  1  0
  5  8  1  0
  5 10  1  0
  7 14  1  0
  8  9  2  0
 10 12  2  0
 11 13  2  0
 12 13  1  0
 15 16  1  0
M  CHG  1   3   1
M  END
>  <PUBCHEM_COMPOUND_CID>  (1) 
27763

>  <PUBCHEM_CONFORMER_RMSD>  (1) 
0.6

>  <PUBCHEM_CONFORMER_DIVERSEORDER>  (1) 
3
5
9
18
13
11
1
16
15
17
10
12
14
7
2
4
6
8

>  <PUBCHEM_MMFF94_PARTIAL_CHARGES>  (1) 
19
1 -0.23
10 0.08
11 -0.15
12 -0.15
13 -0.15
15 0.66
16 0.06
17 0.15
2 -0.57
20 0.15
21 0.15
22 0.15
23 0.15
24 0.15
3 -0.21
6 0.21
7 0.49
8 -0.15
9 0.21

>  <PUBCHEM_EFFECTIVE_ROTOR_COUNT>  (1) 
3

>  <PUBCHEM_PHARMACOPHORE_FEATURES>  (1) 
3
1 2 acceptor
6 3 4 5 6 8 9 rings
6 4 5 10 11 12 13 rings

>  <PUBCHEM_HEAVY_ATOM_COUNT>  (1) 
16

>  <PUBCHEM_ATOM_DEF_STEREO_COUNT>  (1) 
0

>  <PUBCHEM_ATOM_UDEF_STEREO_COUNT>  (1) 
0

>  <PUBCHEM_BOND_DEF_STEREO_COUNT>  (1) 
0

>  <PUBCHEM_BOND_UDEF_STEREO_COUNT>  (1) 
0

>  <PUBCHEM_ISOTOPIC_ATOM_COUNT>  (1) 
0

>  <PUBCHEM_COMPONENT_COUNT>  (1) 
1

>  <PUBCHEM_CACTVS_TAUTO_COUNT>  (1) 
1

>  <PUBCHEM_CONFORMER_ID>  (1) 
00006C7300000003

>  <PUBCHEM_MMFF94_ENERGY>  (1) 
47.8973

>  <PUBCHEM_FEATURE_SELFOVERLAP>  (1) 
15.25

>  <PUBCHEM_SHAPE_FINGERPRINT>  (1) 
10062212 137 18043246830411134274
10967382 1 18048316940023831600
10989021 7 18339080492208117097
11132069 177 18340202982295925320
11206711 2 18260266304923287084
11543360 7 15357983407733284314
11578080 2 17845073221322225233
11680986 33 17975419327834512554
11806522 49 18337389452151649176
12032990 46 18410858784586109162
12403259 327 15195290879964132663
12553582 1 18408600366375793419
13140716 1 18410849936932725072
13583140 156 15195284171251362826
15669948 3 18119525445018553792
16945 1 18260548918087306920
19141452 34 18131358479509364587
20645477 70 18048586316800713223
20671657 53 18336261331467249999
20871998 184 18270963419142734549
20871999 31 18261670389888129111
21296965 67 18411133679741325137
21501502 16 18044653088518710010
21634736 98 18336548317261515582
22112679 90 18271824439963856249
221490 88 17829332728443259795
23114952 82 17606677187080239749
2334 1 18335984258932686424
23402539 116 18334575695007564038
23557571 272 18201162031739424012
23559900 14 18125718981977127626
2748010 2 18336815472416776280
3071541 250 18265619955866822149
34934 24 18190175689800599801
449060 23 18272373061732161886
57096353 35 18040729039120167638
7364860 26 18053381281975777928
7970288 3 18411135869980636538
81228 2 18265882576042884577

>  <PUBCHEM_SHAPE_MULTIPOLES>  (1) 
312.55
6.5
2.67
0.92
3.29
1.43
-0.22
-5.16
-1.4
-1.61
-0.24
0.05
-0.28
-0.04

>  <PUBCHEM_SHAPE_SELFOVERLAP>  (1) 
667.003

>  <PUBCHEM_SHAPE_VOLUME>  (1) 
173.4

>  <PUBCHEM_COORDINATE_TYPE>  (1) 
2
5
10

$$$$
