27773
     RDKit          3D

 18 18  0  0  0  0  0  0  0  0999 V2000
   -5.2691    0.1038   -0.7575 Cl  0  0  0  0  0  0  0  0  0  0  0  0
    0.4519    2.0201   -0.7986 S   0  0  0  0  0  0  0  0  0  0  0  0
    0.2086   -1.2755    0.8507 O   0  0  0  0  0  0  0  0  0  0  0  0
    3.1741   -2.4662   -0.7534 O   0  0  0  0  0  0  0  0  0  0  0  0
    2.8727   -0.9071    0.9219 O   0  0  0  0  0  0  0  0  0  0  0  0
    2.3032    3.8778   -1.0483 N   0  0  0  0  0  0  0  0  0  0  0  0
    1.4164    3.5956    1.1224 N   0  0  0  0  0  0  0  0  0  0  0  0
   -1.4434    0.3956    0.3761 C   0  0  0  0  0  0  0  0  0  0  0  0
   -1.0583   -0.9413    0.4768 C   0  0  0  0  0  0  0  0  0  0  0  0
   -0.4752    1.4925    0.6738 C   0  0  0  0  0  0  0  0  0  0  0  0
   -2.7455    0.7195   -0.0054 C   0  0  0  0  0  0  0  0  0  0  0  0
   -1.9750   -1.9544    0.1961 C   0  0  0  0  0  0  0  0  0  0  0  0
   -3.6623   -0.2937   -0.2862 C   0  0  0  0  0  0  0  0  0  0  0  0
   -3.2770   -1.6306   -0.1854 C   0  0  0  0  0  0  0  0  0  0  0  0
    0.9765   -2.0417   -0.0751 C   0  0  0  0  0  0  0  0  0  0  0  0
    2.4345   -1.7158    0.1151 C   0  0  0  0  0  0  0  0  0  0  0  0
    1.4782    3.2866   -0.1333 C   0  0  0  0  0  0  0  0  0  0  0  0
    4.5898   -2.2653   -0.6896 C   0  0  0  0  0  0  0  0  0  0  0  0
  1 13  1  0
  2 10  1  0
  2 17  1  0
  3  9  1  0
  3 15  1  0
  4 16  1  0
  4 18  1  0
  5 16  2  0
  6 17  1  0
  7 17  2  0
  8  9  2  0
  8 10  1  0
  8 11  1  0
  9 12  1  0
 11 13  2  0
 12 14  2  0
 13 14  1  0
 15 16  1  0
M  END
>  <PUBCHEM_COMPOUND_CID>  (1) 
27773

>  <PUBCHEM_CONFORMER_RMSD>  (1) 
0.8

>  <PUBCHEM_CONFORMER_DIVERSEORDER>  (1) 
1
103
181
206
156
203
111
58
142
37
61
30
54
191
110
27
143
201
183
63
174
129
188
36
2
197
80
115
24
28
139
195
71
210
159
131
45
59
153
62
214
162
23
118
217
212
220
130
17
72
140
168
44
109
199
157
167
52
50
46
38
56
180
198
146
177
222
128
85
9
161
108
136
164
13
7
148
218
184
141
33
125
119
196
216
117
48
189
149
83
31
207
73
179
6
154
92
35
138
96
95
120
49
105
12
39
100
185
165
151
16
211
155
132
66
223
76
208
173
163
124
47
25
192
69
204
219
193
87
89
172
18
175
82
113
147
150
5
213
169
176
224
104
152
42
51
99
86
53
84
182
114
126
78
81
77
29
11
3
88
40
187
160
75
158
65
200
205
74
144
8
20
19
135
186
98
101
194
209
107
145
14
97
64
215
67
43
15
133
55
90
22
94
127
10
32
121
60
79
26
122
137
21
91
202
4
68
123
106
116
34
57
134
170
171
93
221
112
166
190
70
102
41
178

>  <PUBCHEM_MMFF94_PARTIAL_CHARGES>  (1) 
24
1 -0.18
10 0.37
11 -0.15
12 -0.15
13 0.18
14 -0.15
15 0.34
16 0.66
17 0.64
18 0.28
2 -0.37
21 0.15
22 0.15
23 0.15
26 0.4
27 0.4
3 -0.36
31 0.4
4 -0.43
5 -0.57
6 -0.85
7 -0.85
8 -0.14
9 0.08

>  <PUBCHEM_EFFECTIVE_ROTOR_COUNT>  (1) 
7

>  <PUBCHEM_PHARMACOPHORE_FEATURES>  (1) 
6
1 3 acceptor
1 5 acceptor
1 6 donor
1 7 donor
3 6 7 17 cation
6 8 9 11 12 13 14 rings

>  <PUBCHEM_HEAVY_ATOM_COUNT>  (1) 
18

>  <PUBCHEM_ATOM_DEF_STEREO_COUNT>  (1) 
0

>  <PUBCHEM_ATOM_UDEF_STEREO_COUNT>  (1) 
0

>  <PUBCHEM_BOND_DEF_STEREO_COUNT>  (1) 
0

>  <PUBCHEM_BOND_UDEF_STEREO_COUNT>  (1) 
0

>  <PUBCHEM_ISOTOPIC_ATOM_COUNT>  (1) 
0

>  <PUBCHEM_COMPONENT_COUNT>  (1) 
1

>  <PUBCHEM_CACTVS_TAUTO_COUNT>  (1) 
1

>  <PUBCHEM_CONFORMER_ID>  (1) 
00006C7D00000001

>  <PUBCHEM_MMFF94_ENERGY>  (1) 
41.84

>  <PUBCHEM_FEATURE_SELFOVERLAP>  (1) 
30.491

>  <PUBCHEM_SHAPE_FINGERPRINT>  (1) 
10498660 4 18120091676427345926
10756046 5 18267013029000143847
107951 10 16955349653376390520
11045515 52 18263084310022325021
11680986 33 18335703909685417035
12500047 106 17402331967516340084
138480 1 18410577288477375380
14508225 48 18268146453283227854
14790565 3 17403461767090139184
14955137 171 18051439295949915305
15006816 218 18194684993418780768
15475509 8 17912939288029505453
15961568 22 18410012123064335604
167882 2 18264488553906647364
18785283 64 18188777270308850449
20028762 73 16181595978453215871
20871999 31 18192145997847874495
21029758 11 18338797818845600103
23366157 5 18042115617270816203
23402539 116 18125998274150681079
23419403 2 17897978361616233276
23557571 272 18126005962316084430
23559900 14 18341886424465419835
3071541 12 18409729599366784729
43471831 8 17832984227827679195
465052 167 13829545680181632039
532947 4 18267870652158866020
7364860 26 18339921631535707913
81228 2 18123195597388587018

>  <PUBCHEM_SHAPE_MULTIPOLES>  (1) 
348.58
7.55
4.47
0.96
2.84
4.75
0
-4.43
2.37
-5.8
0.43
-0.29
0.31
0.3

>  <PUBCHEM_SHAPE_SELFOVERLAP>  (1) 
689.419

>  <PUBCHEM_SHAPE_VOLUME>  (1) 
209.6

>  <PUBCHEM_COORDINATE_TYPE>  (1) 
2
5
10

$$$$
