27771
     RDKit          3D

 14 14  0  0  0  0  0  0  0  0999 V2000
    2.2221    0.1268   -0.0314 O   0  0  0  0  0  0  0  0  0  0  0  0
    4.3793    0.8796    0.2019 O   0  0  0  0  0  0  0  0  0  0  0  0
   -2.9461    0.2590    0.2573 N   0  0  0  0  0  0  0  0  0  0  0  0
    3.9022   -1.3766   -0.0513 N   0  0  0  0  0  0  0  0  0  0  0  0
   -4.7414   -1.2313    0.3535 C   0  0  0  0  0  0  0  0  0  0  0  0
   -3.4895   -1.9856   -0.0840 C   0  0  0  0  0  0  0  0  0  0  0  0
   -4.4058    0.2408    0.1648 C   0  0  0  0  0  0  0  0  0  0  0  0
   -2.5027   -0.9071   -0.5062 C   0  0  0  0  0  0  0  0  0  0  0  0
   -2.3732    1.5003   -0.2415 C   0  0  0  0  0  0  0  0  0  0  0  0
   -0.9114    1.4827   -0.1333 C   0  0  0  0  0  0  0  0  0  0  0  0
    0.2865    1.4725   -0.0460 C   0  0  0  0  0  0  0  0  0  0  0  0
    1.7449    1.4616    0.0617 C   0  0  0  0  0  0  0  0  0  0  0  0
    3.5808   -0.0397    0.0538 C   0  0  0  0  0  0  0  0  0  0  0  0
    5.2543   -1.8829    0.0008 C   0  0  0  0  0  0  0  0  0  0  0  0
  1 12  1  0
  1 13  1  0
  2 13  2  0
  3  7  1  0
  3  8  1  0
  3  9  1  0
  4 13  1  0
  4 14  1  0
  5  6  1  0
  5  7  1  0
  6  8  1  0
  9 10  1  0
 10 11  3  0
 11 12  1  0
M  END
>  <PUBCHEM_COMPOUND_CID>  (1) 
27771

>  <PUBCHEM_CONFORMER_RMSD>  (1) 
0.6

>  <PUBCHEM_CONFORMER_DIVERSEORDER>  (1) 
2
78
69
62
48
31
79
75
68
50
64
17
70
77
63
42
61
39
20
22
9
76
35
43
66
40
56
10
27
65
74
12
32
57
14
15
72
59
41
24
33
44
53
36
26
49
71
58
55
30
37
1
16
60
67
25
18
45
52
8
51
13
11
54
46
73
23
38
28
29
47
4
19
7
34
6
21
3
5

>  <PUBCHEM_MMFF94_PARTIAL_CHARGES>  (1) 
13
1 -0.43
10 -0.2
11 -0.2
12 0.48
13 0.78
14 0.3
2 -0.57
27 0.37
3 -0.81
4 -0.73
7 0.27
8 0.27
9 0.47

>  <PUBCHEM_EFFECTIVE_ROTOR_COUNT>  (1) 
5

>  <PUBCHEM_PHARMACOPHORE_FEATURES>  (1) 
4
1 2 acceptor
1 3 cation
1 4 donor
5 3 5 6 7 8 rings

>  <PUBCHEM_HEAVY_ATOM_COUNT>  (1) 
14

>  <PUBCHEM_ATOM_DEF_STEREO_COUNT>  (1) 
0

>  <PUBCHEM_ATOM_UDEF_STEREO_COUNT>  (1) 
0

>  <PUBCHEM_BOND_DEF_STEREO_COUNT>  (1) 
0

>  <PUBCHEM_BOND_UDEF_STEREO_COUNT>  (1) 
0

>  <PUBCHEM_ISOTOPIC_ATOM_COUNT>  (1) 
0

>  <PUBCHEM_COMPONENT_COUNT>  (1) 
1

>  <PUBCHEM_CACTVS_TAUTO_COUNT>  (1) 
2

>  <PUBCHEM_CONFORMER_ID>  (1) 
00006C7B00000002

>  <PUBCHEM_MMFF94_ENERGY>  (1) 
11.4602

>  <PUBCHEM_FEATURE_SELFOVERLAP>  (1) 
20.297

>  <PUBCHEM_SHAPE_FINGERPRINT>  (1) 
11458722 379 18260267430036245051
12006461 19 18410855485956221769
12555020 224 18410562999527448407
12596602 18 13973670720485307614
13167823 11 18408603639203604546
13255334 9 18339928113058387838
13551218 46 18413674604153734119
1420 369 18409167714269879738
14251710 61 18409449193372557664
14252887 29 17561093513899131996
15196674 1 18410855464444384014
15352361 1 18410573993820727878
15477762 27 18334015016907479324
18915474 69 18260552246708125132
193927 3 18040724700838987497
20281475 54 18410579482963317348
20291156 8 18408882944900135761
20374829 77 18334009467186740473
20403669 9 18341336621327932807
20621476 51 17845640590364522879
20645477 70 18188206614693457153
221490 88 18335987553520359296
22485316 2 18410854377796766984
22620623 9 17023733516360686389
23403322 49 18408885135655203555
23559900 14 18411973672260465760
27216 239 10735876201297436741
2871803 45 18187076256615751675
328317 168 9223232931849618907
351380 3 18261111850787376226
4214541 1 18410855412889283497
4416823 128 18410292514501492749
5104073 3 18272084959932209040
559249 180 18263641775724521809

>  <PUBCHEM_SHAPE_MULTIPOLES>  (1) 
266.41
11.82
2.19
0.64
7.25
0.43
0.01
7.17
-0.84
0.26
0.07
-0.16
0.02
0.15

>  <PUBCHEM_SHAPE_SELFOVERLAP>  (1) 
519.805

>  <PUBCHEM_SHAPE_VOLUME>  (1) 
161.8

>  <PUBCHEM_COORDINATE_TYPE>  (1) 
2
5
10

$$$$
