27775
     RDKit          3D

 14 14  0  0  0  0  0  0  0  0999 V2000
   -2.6613    0.2004   -0.0032 N   0  0  0  0  0  0  0  0  0  0  0  0
    1.7381    1.8236    0.0027 N   0  0  0  0  0  0  0  0  0  0  0  0
   -0.4726    1.0418    0.0011 N   0  0  0  0  0  0  0  0  0  0  0  0
    1.3724   -0.4924    0.0021 N   0  0  0  0  0  0  0  0  0  0  0  0
   -0.8787   -1.3232   -0.0008 N   0  0  0  0  0  0  0  0  0  0  0  0
    0.9445   -2.7981   -0.0002 N   0  0  0  0  0  0  0  0  0  0  0  0
   -1.2865   -0.0358   -0.0006 C   0  0  0  0  0  0  0  0  0  0  0  0
    0.8355    0.7384    0.0022 C   0  0  0  0  0  0  0  0  0  0  0  0
    0.4557   -1.4735    0.0006 C   0  0  0  0  0  0  0  0  0  0  0  0
   -3.6115   -0.9045   -0.0059 C   0  0  0  0  0  0  0  0  0  0  0  0
   -3.1883    1.5590    0.0108 C   0  0  0  0  0  0  0  0  0  0  0  0
    3.1676    1.5878    0.0032 C   0  0  0  0  0  0  0  0  0  0  0  0
    1.2458    3.1862   -0.0114 C   0  0  0  0  0  0  0  0  0  0  0  0
    2.3394   -3.1097   -0.0007 C   0  0  0  0  0  0  0  0  0  0  0  0
  1  7  1  0
  1 10  1  0
  1 11  1  0
  2  8  1  0
  2 12  1  0
  2 13  1  0
  3  7  2  0
  3  8  1  0
  4  8  2  0
  4  9  1  0
  5  7  1  0
  5  9  2  0
  6  9  1  0
  6 14  1  0
M  END
>  <PUBCHEM_COMPOUND_CID>  (1) 
27775

>  <PUBCHEM_CONFORMER_RMSD>  (1) 
0.6

>  <PUBCHEM_CONFORMER_DIVERSEORDER>  (1) 
1
4
2
3

>  <PUBCHEM_MMFF94_PARTIAL_CHARGES>  (1) 
15
1 -0.84
10 0.37
11 0.37
12 0.37
13 0.37
14 0.37
2 -0.84
27 0.4
3 -0.62
4 -0.62
5 -0.62
6 -0.87
7 0.72
8 0.72
9 0.72

>  <PUBCHEM_EFFECTIVE_ROTOR_COUNT>  (1) 
3

>  <PUBCHEM_PHARMACOPHORE_FEATURES>  (1) 
5
1 6 donor
4 1 3 5 7 cation
4 2 3 4 8 cation
4 4 5 6 9 cation
6 3 4 5 7 8 9 rings

>  <PUBCHEM_HEAVY_ATOM_COUNT>  (1) 
14

>  <PUBCHEM_ATOM_DEF_STEREO_COUNT>  (1) 
0

>  <PUBCHEM_ATOM_UDEF_STEREO_COUNT>  (1) 
0

>  <PUBCHEM_BOND_DEF_STEREO_COUNT>  (1) 
0

>  <PUBCHEM_BOND_UDEF_STEREO_COUNT>  (1) 
0

>  <PUBCHEM_ISOTOPIC_ATOM_COUNT>  (1) 
0

>  <PUBCHEM_COMPONENT_COUNT>  (1) 
1

>  <PUBCHEM_CACTVS_TAUTO_COUNT>  (1) 
3

>  <PUBCHEM_CONFORMER_ID>  (1) 
00006C7F00000001

>  <PUBCHEM_MMFF94_ENERGY>  (1) 
58.0032

>  <PUBCHEM_FEATURE_SELFOVERLAP>  (1) 
25.501

>  <PUBCHEM_SHAPE_FINGERPRINT>  (1) 
1 1 18338797921967039420
10967382 1 18410855481639928038
13380535 76 18263640830462666035
14648413 74 18336829689216955393
15442244 35 18124597479489120209
16945 1 18410855503341637315
17990270 104 18337387145780870891
19021347 11 18411136969549117303
193761 8 17978228253832070340
20510252 161 17766284553888691361
20645476 183 17753624734552651812
20645477 70 18335973217241596983
21501502 16 18412544271987802315
21524375 3 18056482978555149541
2334 1 17617941769405280747
23402539 116 17767114676693609799
23419403 2 17753307795999349278
23526114 1 18339079285306339791
23552423 10 18411982447110181735
23557571 272 17336747813001661438
2748010 2 18050837832418030422
305870 269 18410572907120161976
3071541 12 18339365166982825492
3071541 158 18045504110106957140
3071541 250 18195540189968726702
3071541 37 18335424585938650007
352729 6 17977385258735430498
43471831 8 18337387252859589186
68521 5 17617944630059611654
7364860 26 18411981330044274775
81228 2 17261037619148742322

>  <PUBCHEM_SHAPE_MULTIPOLES>  (1) 
258.23
4.83
3.7
0.58
3.4
0.76
0
-0.69
0
-3.4
-0.01
0
-0.01
-0.01

>  <PUBCHEM_SHAPE_SELFOVERLAP>  (1) 
513.956

>  <PUBCHEM_SHAPE_VOLUME>  (1) 
145.6

>  <PUBCHEM_COORDINATE_TYPE>  (1) 
2
5
10

$$$$
