27774
     RDKit          3D

 13 13  0  0  0  0  0  0  0  0999 V2000
   -0.0001    2.2822   -0.0036 N   0  0  0  0  0  0  0  0  0  0  0  0
   -1.1997    0.2675   -0.0019 N   0  0  0  0  0  0  0  0  0  0  0  0
    1.1999    0.2675   -0.0024 N   0  0  0  0  0  0  0  0  0  0  0  0
    0.0000   -1.8105    0.0006 N   0  0  0  0  0  0  0  0  0  0  0  0
   -2.3448   -1.7789    0.0015 N   0  0  0  0  0  0  0  0  0  0  0  0
    2.3447   -1.7789    0.0013 N   0  0  0  0  0  0  0  0  0  0  0  0
    0.0002    0.8873   -0.0028 C   0  0  0  0  0  0  0  0  0  0  0  0
   -1.1221   -1.0730   -0.0001 C   0  0  0  0  0  0  0  0  0  0  0  0
    1.1222   -1.0730   -0.0005 C   0  0  0  0  0  0  0  0  0  0  0  0
   -1.2499    3.0315   -0.0033 C   0  0  0  0  0  0  0  0  0  0  0  0
    1.2497    3.0317    0.0096 C   0  0  0  0  0  0  0  0  0  0  0  0
   -3.6166   -1.1267    0.0028 C   0  0  0  0  0  0  0  0  0  0  0  0
    3.6167   -1.1266   -0.0012 C   0  0  0  0  0  0  0  0  0  0  0  0
  1  7  1  0
  1 10  1  0
  1 11  1  0
  2  7  2  0
  2  8  1  0
  3  7  1  0
  3  9  2  0
  4  8  2  0
  4  9  1  0
  5  8  1  0
  5 12  1  0
  6  9  1  0
  6 13  1  0
M  END
>  <PUBCHEM_COMPOUND_CID>  (1) 
27774

>  <PUBCHEM_CONFORMER_RMSD>  (1) 
0.6

>  <PUBCHEM_CONFORMER_DIVERSEORDER>  (1) 
1
5
4
2
6
3

>  <PUBCHEM_MMFF94_PARTIAL_CHARGES>  (1) 
15
1 -0.84
10 0.37
11 0.37
12 0.37
13 0.37
2 -0.62
20 0.4
21 0.4
3 -0.62
4 -0.62
5 -0.87
6 -0.87
7 0.72
8 0.72
9 0.72

>  <PUBCHEM_EFFECTIVE_ROTOR_COUNT>  (1) 
3

>  <PUBCHEM_PHARMACOPHORE_FEATURES>  (1) 
6
1 5 donor
1 6 donor
4 1 2 3 7 cation
4 2 4 5 8 cation
4 3 4 6 9 cation
6 2 3 4 7 8 9 rings

>  <PUBCHEM_HEAVY_ATOM_COUNT>  (1) 
13

>  <PUBCHEM_ATOM_DEF_STEREO_COUNT>  (1) 
0

>  <PUBCHEM_ATOM_UDEF_STEREO_COUNT>  (1) 
0

>  <PUBCHEM_BOND_DEF_STEREO_COUNT>  (1) 
0

>  <PUBCHEM_BOND_UDEF_STEREO_COUNT>  (1) 
0

>  <PUBCHEM_ISOTOPIC_ATOM_COUNT>  (1) 
0

>  <PUBCHEM_COMPONENT_COUNT>  (1) 
1

>  <PUBCHEM_CACTVS_TAUTO_COUNT>  (1) 
5

>  <PUBCHEM_CONFORMER_ID>  (1) 
00006C7E00000001

>  <PUBCHEM_MMFF94_ENERGY>  (1) 
49.532

>  <PUBCHEM_FEATURE_SELFOVERLAP>  (1) 
30.576

>  <PUBCHEM_SHAPE_FINGERPRINT>  (1) 
1 1 17690279734666098005
10967382 1 18122626316653195493
12138202 78 18338229496078080093
13380535 76 17548407112271992974
14648413 74 18047753994592451859
16945 1 18410575084663384230
19021347 4 17329990196744862378
193761 8 18410856559640380708
20871998 184 18129095628402104638
21040471 1 17473825022414766342
21524375 3 17036144597794038426
23419403 2 18043782438423206620
23526114 1 18123188175690438935
23530152 11 17258217367834296189
23557571 272 18200322005246388406
23559900 14 17407959887336408814
23598294 1 18119523245948144154
241688 4 18410855430068737379
2748010 2 18339910554756886300
305870 269 17762336220623640353
3071541 12 18194968675728944301
3071541 158 18261388987746514509
3071541 250 18338529632714137246
54173680 148 18121781629740913331
68521 5 18337957787851829830
7364860 26 18123752216639302319
81228 2 18267314122638220395

>  <PUBCHEM_SHAPE_MULTIPOLES>  (1) 
237.65
4.24
3.63
0.58
0
3.65
0
-3.38
0
0
0
0
0.02
0.01

>  <PUBCHEM_SHAPE_SELFOVERLAP>  (1) 
473.352

>  <PUBCHEM_SHAPE_VOLUME>  (1) 
132.3

>  <PUBCHEM_COORDINATE_TYPE>  (1) 
2
5
10

$$$$
