27783
     RDKit          3D

 20 23  0  0  0  0  0  0  0  0999 V2000
    3.2250   -1.4940   -0.7675 N   0  0  0  0  0  0  0  0  0  0  0  0
   -2.1012    1.7882   -1.1552 N   0  0  0  0  0  0  0  0  0  0  0  0
    0.2733   -1.7878    0.1600 N   0  0  0  0  0  0  0  0  0  0  0  0
   -0.7818    0.2256   -0.2988 C   0  0  0  0  0  0  0  0  0  0  0  0
    0.4392   -0.5168    0.0411 C   0  0  0  0  0  0  0  0  0  0  0  0
    1.7210    0.2397    0.1949 C   0  0  0  0  0  0  0  0  0  0  0  0
   -2.1230   -0.0880    0.0518 C   0  0  0  0  0  0  0  0  0  0  0  0
    2.9702   -0.2398   -0.2434 C   0  0  0  0  0  0  0  0  0  0  0  0
   -2.9321    0.9087   -0.4981 C   0  0  0  0  0  0  0  0  0  0  0  0
    2.3158   -2.6159   -0.8120 C   0  0  0  0  0  0  0  0  0  0  0  0
    1.4111   -2.6556    0.4058 C   0  0  0  0  0  0  0  0  0  0  0  0
   -0.7986    1.3828   -1.0401 C   0  0  0  0  0  0  0  0  0  0  0  0
    1.6333    1.5053    0.8141 C   0  0  0  0  0  0  0  0  0  0  0  0
   -2.7303   -1.1260    0.7860 C   0  0  0  0  0  0  0  0  0  0  0  0
    4.0865    0.6130   -0.0825 C   0  0  0  0  0  0  0  0  0  0  0  0
   -4.3235    0.9193   -0.3498 C   0  0  0  0  0  0  0  0  0  0  0  0
    2.7553    2.3166    0.9636 C   0  0  0  0  0  0  0  0  0  0  0  0
   -4.1212   -1.1284    0.9425 C   0  0  0  0  0  0  0  0  0  0  0  0
    3.9845    1.8737    0.5050 C   0  0  0  0  0  0  0  0  0  0  0  0
   -4.9035   -0.1205    0.3824 C   0  0  0  0  0  0  0  0  0  0  0  0
  1  8  1  0
  1 10  1  0
  2  9  1  0
  2 12  1  0
  3  5  2  0
  3 11  1  0
  4  5  1  0
  4  7  1  0
  4 12  2  0
  5  6  1  0
  6  8  2  0
  6 13  1  0
  7  9  2  0
  7 14  1  0
  8 15  1  0
  9 16  1  0
 10 11  1  0
 13 17  2  0
 14 18  2  0
 15 19  2  0
 16 20  2  0
 17 19  1  0
 18 20  1  0
M  END
>  <PUBCHEM_COMPOUND_CID>  (1) 
27783

>  <PUBCHEM_CONFORMER_RMSD>  (1) 
0.6

>  <PUBCHEM_CONFORMER_DIVERSEORDER>  (1) 
1
3
4
2
5
6
7
8

>  <PUBCHEM_MMFF94_PARTIAL_CHARGES>  (1) 
30
1 -0.87
10 0.37
11 0.25
12 -0.3
13 -0.15
14 -0.15
15 -0.15
16 -0.15
17 -0.15
18 -0.15
19 -0.15
2 0.03
20 -0.15
25 0.15
26 0.4
27 0.27
28 0.15
29 0.15
3 -0.7
30 0.15
31 0.15
32 0.15
33 0.15
34 0.15
35 0.15
4 -0.09
5 0.45
6 0.09
8 0.1
9 -0.15

>  <PUBCHEM_EFFECTIVE_ROTOR_COUNT>  (1) 
1.6

>  <PUBCHEM_PHARMACOPHORE_FEATURES>  (1) 
9
1 1 cation
1 1 donor
1 2 cation
1 2 donor
1 3 acceptor
5 2 4 7 9 12 rings
6 6 8 13 15 17 19 rings
6 7 9 14 16 18 20 rings
7 1 3 5 6 8 10 11 rings

>  <PUBCHEM_HEAVY_ATOM_COUNT>  (1) 
20

>  <PUBCHEM_ATOM_DEF_STEREO_COUNT>  (1) 
0

>  <PUBCHEM_ATOM_UDEF_STEREO_COUNT>  (1) 
0

>  <PUBCHEM_BOND_DEF_STEREO_COUNT>  (1) 
0

>  <PUBCHEM_BOND_UDEF_STEREO_COUNT>  (1) 
0

>  <PUBCHEM_ISOTOPIC_ATOM_COUNT>  (1) 
0

>  <PUBCHEM_COMPONENT_COUNT>  (1) 
1

>  <PUBCHEM_CACTVS_TAUTO_COUNT>  (1) 
3

>  <PUBCHEM_CONFORMER_ID>  (1) 
00006C8700000001

>  <PUBCHEM_MMFF94_ENERGY>  (1) 
72.5992

>  <PUBCHEM_FEATURE_SELFOVERLAP>  (1) 
45.773

>  <PUBCHEM_SHAPE_FINGERPRINT>  (1) 
10074138 170 17688000421714252882
10165383 225 18197786694272553728
10366900 7 18410289233526390777
10608611 8 18335978666932408469
10871710 139 16388187603784471196
11132069 177 18113899394485614389
11370993 144 18269287793972078593
11471102 20 18272088292673602216
11552529 35 17702385237999098175
11578080 2 16372673047686109646
11615757 297 17989209235255986123
12236239 1 16415482657425161409
12623949 98 18058191542717106359
12633257 1 18192993721112306619
12730499 353 18412550937175847594
12895836 83 17901684966349978204
13034934 17 18193278713419429795
13140716 1 17975134554154061360
13224815 77 18113896061432594279
13402501 40 18408325501395377416
13533116 47 18272371941388977033
14223421 5 18336543824546434173
14289901 80 18131345315481919361
14787075 74 17913769685337888353
15219456 202 18409448072602390699
15375358 24 18186517718052614283
15536298 74 18410577262559807063
16945 1 18131062732403626748
17349148 13 14562530665351565033
1813 80 16950291710878119117
18186145 218 18059858406586163392
19049666 15 18264482880223161693
19784866 170 18261113001970265745
20645477 70 18130501946718188199
21041028 32 18058732373445865400
21673915 165 18269272546564299551
221490 88 18337959974085447198
22182313 1 18114458981759068783
22854114 59 18411981398895640001
23557571 272 17676203537889338301
23559900 14 18041561330092474711
238 59 18124844972315034564
25 1 18272085033057305040
2748010 2 18334007268189884877
3323516 105 18411706460917150014
33824 294 18411136948179918874
350125 39 18408044000902102964
3524813 1 18409166610600265796
474 4 18130221683086122952
49207404 50 18336830891359424920
495365 180 18199446819369962137
5104073 3 18334578993310144657
6049 1 18263081033104904381
633830 44 18130507521601900140
6442390 28 18337392772182857714
6669772 16 18060426833287812158
7364860 26 18341891844909254574
7808743 9 17831861618473141620
81228 2 17604438384133023277
8272917 22 18059581256324885431
9709674 26 18335422344398491287

>  <PUBCHEM_SHAPE_MULTIPOLES>  (1) 
396.65
8.65
2.6
0.99
4.85
1.02
-0.03
-1.61
0.95
-2.3
0.01
0.14
-0.14
1.64

>  <PUBCHEM_SHAPE_SELFOVERLAP>  (1) 
891.743

>  <PUBCHEM_SHAPE_VOLUME>  (1) 
207.5

>  <PUBCHEM_COORDINATE_TYPE>  (1) 
2
5
10

$$$$
