27784
     RDKit          3D

 15 15  0  0  0  0  0  0  0  0999 V2000
    2.3411    0.0532    0.0818 N   0  0  0  0  0  0  0  0  0  0  0  0
   -2.3443    0.1526   -0.0815 N   0  0  0  0  0  0  0  0  0  0  0  0
   -0.0009    0.1347   -0.0012 N   0  0  0  0  0  0  0  0  0  0  0  0
   -1.2439   -1.9174   -0.0430 N   0  0  0  0  0  0  0  0  0  0  0  0
    1.1536   -1.9684    0.0405 N   0  0  0  0  0  0  0  0  0  0  0  0
   -0.0879   -3.9573   -0.0008 N   0  0  0  0  0  0  0  0  0  0  0  0
    2.4504    1.5113    0.0831 C   0  0  0  0  0  0  0  0  0  0  0  0
   -2.3854    1.5816   -0.0818 C   0  0  0  0  0  0  0  0  0  0  0  0
    2.2722    2.0565   -1.3311 C   0  0  0  0  0  0  0  0  0  0  0  0
    3.8020    1.9186    0.6610 C   0  0  0  0  0  0  0  0  0  0  0  0
   -2.1798    2.1171    1.3323 C   0  0  0  0  0  0  0  0  0  0  0  0
   -3.7178    2.0511   -0.6572 C   0  0  0  0  0  0  0  0  0  0  0  0
    1.1362   -0.6091    0.0392 C   0  0  0  0  0  0  0  0  0  0  0  0
   -1.1377   -0.5788   -0.0401 C   0  0  0  0  0  0  0  0  0  0  0  0
   -0.0580   -2.5458   -0.0012 C   0  0  0  0  0  0  0  0  0  0  0  0
  1  7  1  0
  1 13  1  0
  2  8  1  0
  2 14  1  0
  3 13  2  0
  3 14  1  0
  4 14  2  0
  4 15  1  0
  5 13  1  0
  5 15  2  0
  6 15  1  0
  7  9  1  0
  7 10  1  0
  8 11  1  0
  8 12  1  0
M  END
>  <PUBCHEM_COMPOUND_CID>  (1) 
27784

>  <PUBCHEM_CONFORMER_RMSD>  (1) 
0.6

>  <PUBCHEM_CONFORMER_DIVERSEORDER>  (1) 
1
42
35
44
25
3
40
34
31
28
41
46
43
27
38
21
36
4
32
30
39
26
23
19
7
15
5
22
33
18
24
12
8
16
17
45
37
20
14
9
2
29
13
11
6
10

>  <PUBCHEM_MMFF94_PARTIAL_CHARGES>  (1) 
15
1 -0.87
13 0.72
14 0.72
15 0.72
18 0.4
19 0.4
2 -0.87
3 -0.62
32 0.4
33 0.4
4 -0.62
5 -0.62
6 -0.9
7 0.37
8 0.37

>  <PUBCHEM_EFFECTIVE_ROTOR_COUNT>  (1) 
4

>  <PUBCHEM_PHARMACOPHORE_FEATURES>  (1) 
9
1 1 donor
1 2 donor
1 6 donor
3 7 9 10 hydrophobe
3 8 11 12 hydrophobe
4 1 3 5 13 cation
4 2 3 4 14 cation
4 4 5 6 15 cation
6 3 4 5 13 14 15 rings

>  <PUBCHEM_HEAVY_ATOM_COUNT>  (1) 
15

>  <PUBCHEM_ATOM_DEF_STEREO_COUNT>  (1) 
0

>  <PUBCHEM_ATOM_UDEF_STEREO_COUNT>  (1) 
0

>  <PUBCHEM_BOND_DEF_STEREO_COUNT>  (1) 
0

>  <PUBCHEM_BOND_UDEF_STEREO_COUNT>  (1) 
0

>  <PUBCHEM_ISOTOPIC_ATOM_COUNT>  (1) 
0

>  <PUBCHEM_COMPONENT_COUNT>  (1) 
1

>  <PUBCHEM_CACTVS_TAUTO_COUNT>  (1) 
10

>  <PUBCHEM_CONFORMER_ID>  (1) 
00006C8800000001

>  <PUBCHEM_MMFF94_ENERGY>  (1) 
40.1502

>  <PUBCHEM_FEATURE_SELFOVERLAP>  (1) 
45.799

>  <PUBCHEM_SHAPE_FINGERPRINT>  (1) 
1 1 18266739086646633199
12403259 327 16081091454719840985
13618510 140 18411139104079778828
14648413 74 18119535336449640275
16945 1 18049727613626877934
17134986 127 18335427841645433276
1741750 31 18341613758640804024
20510252 161 18197781204860692192
20671657 1 18197220235024350735
21524375 3 18409728460709697906
21639500 275 18049148987264444021
23402539 116 17911511309650237455
23557571 272 17841161261765789036
23558518 356 18261672687712112658
2748010 2 18336841830657107863
305870 269 18408881811276819448
3071541 12 18124880062213874250
3091708 16 9337366645127745994
4175511 71 17261323492461834961
6992083 37 18041829744648767916
7364860 26 18124030135287990471
81228 2 17907874137932922794
84936 182 18128807547787214153

>  <PUBCHEM_SHAPE_MULTIPOLES>  (1) 
278.81
5.23
3.97
0.91
0.32
3.71
0
-6.06
0
-0.22
0
0.01
-0.68
-0.14

>  <PUBCHEM_SHAPE_SELFOVERLAP>  (1) 
552.282

>  <PUBCHEM_SHAPE_VOLUME>  (1) 
155.8

>  <PUBCHEM_COORDINATE_TYPE>  (1) 
2
5
10

$$$$
