27780
     RDKit          3D

 21 22  0  0  0  0  0  0  0  0999 V2000
    1.9538   -0.6103    0.5011 O   0  0  0  0  0  0  0  0  0  0  0  0
    0.4394    0.4130   -0.9060 O   0  0  0  0  0  0  0  0  0  0  0  0
    5.4702    0.2213   -0.2366 N   0  0  0  0  0  0  0  0  0  0  0  0
   -6.0937    1.4387    0.7913 C   0  0  0  0  0  0  0  0  0  0  0  0
   -6.3755    1.0505   -0.6545 C   0  0  0  0  0  0  0  0  0  0  0  0
   -4.5892    1.5506    1.0304 C   0  0  0  0  0  0  0  0  0  0  0  0
   -5.7826   -0.3228   -0.9637 C   0  0  0  0  0  0  0  0  0  0  0  0
   -3.8101    0.3814    0.4812 C   0  0  0  0  0  0  0  0  0  0  0  0
   -4.3593   -0.4776   -0.4889 C   0  0  0  0  0  0  0  0  0  0  0  0
   -2.4880    0.1833    0.9073 C   0  0  0  0  0  0  0  0  0  0  0  0
   -3.5871   -1.5386   -0.9856 C   0  0  0  0  0  0  0  0  0  0  0  0
   -1.7276   -0.8686    0.3978 C   0  0  0  0  0  0  0  0  0  0  0  0
   -2.2776   -1.7304   -0.5465 C   0  0  0  0  0  0  0  0  0  0  0  0
   -0.3255   -1.0697    0.8648 C   0  0  0  0  0  0  0  0  0  0  0  0
    4.3429   -0.3923    0.4492 C   0  0  0  0  0  0  0  0  0  0  0  0
    6.7372   -0.2165    0.3544 C   0  0  0  0  0  0  0  0  0  0  0  0
    5.3706    1.6822   -0.1932 C   0  0  0  0  0  0  0  0  0  0  0  0
    3.0305    0.0284   -0.1924 C   0  0  0  0  0  0  0  0  0  0  0  0
    0.7015   -0.3256    0.0337 C   0  0  0  0  0  0  0  0  0  0  0  0
    6.8645   -1.7301    0.3212 C   0  0  0  0  0  0  0  0  0  0  0  0
    6.5057    2.3331   -0.9653 C   0  0  0  0  0  0  0  0  0  0  0  0
  1 18  1  0
  1 19  1  0
  2 19  2  0
  3 15  1  0
  3 16  1  0
  3 17  1  0
  4  5  1  0
  4  6  1  0
  5  7  1  0
  6  8  1  0
  7  9  1  0
  8  9  2  0
  8 10  1  0
  9 11  1  0
 10 12  2  0
 11 13  2  0
 12 13  1  0
 12 14  1  0
 14 19  1  0
 15 18  1  0
 16 20  1  0
 17 21  1  0
M  END
>  <PUBCHEM_COMPOUND_CID>  (1) 
27780

>  <PUBCHEM_CONFORMER_RMSD>  (1) 
1

>  <PUBCHEM_CONFORMER_DIVERSEORDER>  (1) 
1
18
13
81
48
62
121
14
103
122
73
72
130
79
95
43
64
132
118
29
98
52
114
113
16
54
51
84
129
23
50
53
109
131
116
76
59
112
58
74
82
71
91
87
99
69
30
90
25
49
83
47
68
2
57
123
115
35
101
8
63
7
3
106
36
105
22
96
12
66
24
134
107
127
97
88
15
46
27
86
37
77
17
45
108
55
40
26
104
4
135
128
61
125
60
6
20
94
56
34
33
89
85
100
102
110
42
80
38
11
75
10
93
19
126
67
39
9
31
32
111
119
78
117
5
70
124
65
44
133
41
21
28
120
92

>  <PUBCHEM_MMFF94_PARTIAL_CHARGES>  (1) 
20
1 -0.43
10 -0.15
11 -0.15
12 -0.14
13 -0.15
14 0.2
15 0.27
16 0.27
17 0.27
18 0.28
19 0.66
2 -0.57
3 -0.81
30 0.15
31 0.15
32 0.15
6 0.14
7 0.14
8 -0.14
9 -0.14

>  <PUBCHEM_EFFECTIVE_ROTOR_COUNT>  (1) 
8.8

>  <PUBCHEM_PHARMACOPHORE_FEATURES>  (1) 
4
1 2 acceptor
1 3 cation
6 4 5 6 7 8 9 rings
6 8 9 10 11 12 13 rings

>  <PUBCHEM_HEAVY_ATOM_COUNT>  (1) 
21

>  <PUBCHEM_ATOM_DEF_STEREO_COUNT>  (1) 
0

>  <PUBCHEM_ATOM_UDEF_STEREO_COUNT>  (1) 
0

>  <PUBCHEM_BOND_DEF_STEREO_COUNT>  (1) 
0

>  <PUBCHEM_BOND_UDEF_STEREO_COUNT>  (1) 
0

>  <PUBCHEM_ISOTOPIC_ATOM_COUNT>  (1) 
0

>  <PUBCHEM_COMPONENT_COUNT>  (1) 
1

>  <PUBCHEM_CACTVS_TAUTO_COUNT>  (1) 
1

>  <PUBCHEM_CONFORMER_ID>  (1) 
00006C8400000001

>  <PUBCHEM_MMFF94_ENERGY>  (1) 
33.3538

>  <PUBCHEM_FEATURE_SELFOVERLAP>  (1) 
20.318

>  <PUBCHEM_SHAPE_FINGERPRINT>  (1) 
10 15 14706930674468485132
10087517 78 18342739577149425041
10730089 173 18201999907076635697
11089746 13 18413387639891957384
11315181 36 18059856185813726083
11719270 70 17132113503604706214
117890 112 18410857685480520244
12236239 1 18408884052991330495
12596602 18 17967818274965593400
12616971 3 15285645438378083446
13167372 99 18410294688361839920
13862211 1 11743847954074719972
14251752 14 18202280290630584050
14251764 18 18408604790001684357
14528608 73 18271526507078311332
15048467 5 18407760352471701312
15183329 4 18201725050544366128
15348495 7 15430327983006869836
1577012 14 18411421739203639436
17844677 252 10951785083678503674
18335252 98 18343024398538531935
19489759 90 17632576050317726827
200 152 12607404386709494219
20281389 69 18113053826793631428
21150785 3 18341607136212521391
21315763 28 18412260644615531807
22224240 67 16587744244314459907
23081809 10 18411697720980501558
23198884 109 18413387640192650583
23402539 116 17988920063893092141
23536379 177 18343018891699037314
23559900 14 17561070449745190435
2838139 119 18411980243755522765
29717793 49 18343867706539355046
300161 21 18341891900865213754
3004659 81 18201441342633379214
328310 630 18334864951689886549
34797466 226 16773523290773458616
397830 11 16371589114010243480
4073 2 18114466772935797594
44555599 121 18411706482629987072
5104073 3 17677049174501141584
57724786 102 17023757847804267684
59755656 520 17894910733055186739
6327066 14 18125158230994968001
6328613 192 18410294743816801396
999808 66 12175613028082627957

>  <PUBCHEM_SHAPE_MULTIPOLES>  (1) 
415.45
20.95
1.86
1.04
21.17
0.44
-0.03
6.72
-1.81
1.18
-0.22
-0.72
0.1
-2.15

>  <PUBCHEM_SHAPE_SELFOVERLAP>  (1) 
846.025

>  <PUBCHEM_SHAPE_VOLUME>  (1) 
242.2

>  <PUBCHEM_COORDINATE_TYPE>  (1) 
2
5
10

$$$$
