27793
     RDKit          3D

 23 24  0  0  1  0  0  0  0  0999 V2000
   -1.5715   -0.8325    1.7026 O   0  0  0  0  0  0  0  0  0  0  0  0
    1.3239    3.2504   -0.1008 N   0  0  0  0  0  0  0  0  0  0  0  0
    0.1994   -1.3115    0.2780 N   0  0  0  0  0  0  0  0  0  0  0  0
    1.0684    0.9225    0.7351 C   0  0  0  0  0  0  0  0  0  0  0  0
    1.5092    1.8388   -0.4183 C   0  0  0  0  0  0  0  0  0  0  0  0
    1.2430   -0.5371    0.3085 C   0  0  0  0  0  0  0  0  0  0  0  0
    1.8417    1.1746    2.0303 C   0  0  0  0  0  0  0  0  0  0  0  0
    2.6237   -0.9528   -0.0053 C   0  0  0  0  0  0  0  0  0  0  0  0
   -0.0894    3.5503    0.2515 C   0  0  0  0  0  0  0  0  0  0  0  0
    1.7849    4.0907   -1.2074 C   0  0  0  0  0  0  0  0  0  0  0  0
    3.4226   -1.4605    1.0048 C   0  0  0  0  0  0  0  0  0  0  0  0
    3.0895   -0.8265   -1.3027 C   0  0  0  0  0  0  0  0  0  0  0  0
   -1.0497   -0.8229    0.5894 C   0  0  0  0  0  0  0  0  0  0  0  0
   -1.7936   -0.2834   -0.6135 C   0  0  0  0  0  0  0  0  0  0  0  0
    4.7277   -1.8537    0.7083 C   0  0  0  0  0  0  0  0  0  0  0  0
    4.3946   -1.2199   -1.5990 C   0  0  0  0  0  0  0  0  0  0  0  0
   -3.2840   -0.3954   -0.4476 C   0  0  0  0  0  0  0  0  0  0  0  0
    5.2136   -1.7335   -0.5935 C   0  0  0  0  0  0  0  0  0  0  0  0
   -3.9371   -1.5426   -0.8792 C   0  0  0  0  0  0  0  0  0  0  0  0
   -3.9891    0.6494    0.1355 C   0  0  0  0  0  0  0  0  0  0  0  0
   -5.3195   -1.6467   -0.7253 C   0  0  0  0  0  0  0  0  0  0  0  0
   -5.3716    0.5451    0.2895 C   0  0  0  0  0  0  0  0  0  0  0  0
   -6.0366   -0.6029   -0.1409 C   0  0  0  0  0  0  0  0  0  0  0  0
  1 13  2  0
  2  5  1  0
  2  9  1  0
  2 10  1  0
  3  6  2  0
  3 13  1  0
  4  5  1  0
  4  6  1  0
  4  7  1  0
  6  8  1  0
  8 11  2  0
  8 12  1  0
 11 15  1  0
 12 16  2  0
 13 14  1  0
 14 17  1  0
 15 18  2  0
 16 18  1  0
 17 19  2  0
 17 20  1  0
 19 21  1  0
 20 22  2  0
 21 23  2  0
 22 23  1  0
M  END
>  <PUBCHEM_COMPOUND_CID>  (1) 
27793

>  <PUBCHEM_CONFORMER_RMSD>  (1) 
0.8

>  <PUBCHEM_CONFORMER_DIVERSEORDER>  (1) 
3
23
53
63
48
30
46
69
78
43
35
41
27
18
51
49
50
66
58
68
32
74
76
6
36
77
34
44
16
24
57
67
71
62
40
70
73
11
42
59
26
55
1
38
54
39
21
64
37
7
28
5
60
75
56
20
13
25
72
17
14
61
31
19
47
52
33
45
10
12
2
15
65
8
29
22
4
9

>  <PUBCHEM_MMFF94_PARTIAL_CHARGES>  (1) 
32
1 -0.57
10 0.27
11 -0.15
12 -0.15
13 0.72
14 0.2
15 -0.15
16 -0.15
17 -0.14
18 -0.15
19 -0.15
2 -0.81
20 -0.15
21 -0.15
22 -0.15
23 -0.15
3 -0.66
36 0.15
37 0.15
4 0.06
40 0.15
41 0.15
42 0.15
43 0.15
44 0.15
45 0.15
46 0.15
47 0.15
5 0.27
6 0.3
8 0.09
9 0.27

>  <PUBCHEM_EFFECTIVE_ROTOR_COUNT>  (1) 
7

>  <PUBCHEM_PHARMACOPHORE_FEATURES>  (1) 
7
1 1 acceptor
1 2 cation
1 3 acceptor
1 3 donor
1 7 hydrophobe
6 17 19 20 21 22 23 rings
6 8 11 12 15 16 18 rings

>  <PUBCHEM_HEAVY_ATOM_COUNT>  (1) 
23

>  <PUBCHEM_ATOM_DEF_STEREO_COUNT>  (1) 
0

>  <PUBCHEM_ATOM_UDEF_STEREO_COUNT>  (1) 
1

>  <PUBCHEM_BOND_DEF_STEREO_COUNT>  (1) 
0

>  <PUBCHEM_BOND_UDEF_STEREO_COUNT>  (1) 
0

>  <PUBCHEM_ISOTOPIC_ATOM_COUNT>  (1) 
0

>  <PUBCHEM_COMPONENT_COUNT>  (1) 
1

>  <PUBCHEM_CACTVS_TAUTO_COUNT>  (1) 
1

>  <PUBCHEM_CONFORMER_ID>  (1) 
00006C9100000003

>  <PUBCHEM_MMFF94_ENERGY>  (1) 
76.8697

>  <PUBCHEM_FEATURE_SELFOVERLAP>  (1) 
35.566

>  <PUBCHEM_SHAPE_FINGERPRINT>  (1) 
10366900 7 17458340836906030171
11405975 8 18343020030145153587
11421498 54 17969217828909074266
12166972 35 18273496784354148041
12516196 113 18409446969022967254
12616971 3 18202567315554445071
12617007 42 18411984667481790236
12788726 201 18044660802401026520
13009979 54 18131362894709579649
13590594 115 18335989666523540833
13899415 180 18339344310610937620
14341114 176 18343582967134259283
14347329 18 16082193127179520863
14556957 393 17899448362193221236
15163728 17 17465115125081121292
15775530 1 17681286769033638546
15788980 27 16630519635901936551
17357779 13 18129931270403625940
17492 89 18196087970583312487
17844677 252 18411140268833184435
1813 80 18343308033102460294
18186145 218 18336535088994521131
18222031 100 18271812298191576094
19784866 240 17561090193820937575
20832881 197 18260547792948261027
21033648 29 16370996430420017631
21033650 10 17974595514558124110
21285901 2 17986401001165635030
21503847 285 18334290985793878873
21641784 216 17823997640500839668
21709351 56 18411691081219570687
221357 26 18333728009922811653
23402539 116 18341045212060159287
23558518 356 17982153814927739207
23559900 14 18341604975743868091
249057 3 18342736300595033351
300161 21 10953453034301725467
3052486 1 18043800992571590376
312423 11 18200885088285572027
338550 245 17774996951168572087
340366 18 18272927254542711751
3411729 13 18057590148837693288
474 4 18117268362838400921
5104073 3 18059574750214849747
513532 50 17845381110221114396
5281201 14 18411133684405421301
633830 44 18188481489117752147
7164475 11 18046064853159649790
7471813 234 18408326562563666148
7495541 125 18187368752663510995
81228 2 18123203311761715280
8863177 126 18042980946419318731
9709674 26 18193553587596129251
9841814 1 18188194485900953584
9971528 1 18342168985989572736
9981440 41 17545592817782242777

>  <PUBCHEM_SHAPE_MULTIPOLES>  (1) 
457.5
11.93
3.47
1.37
11.43
5.47
-0.21
-8.67
2.3
-2.84
0.86
-1.1
0.04
-0.53

>  <PUBCHEM_SHAPE_SELFOVERLAP>  (1) 
956.796

>  <PUBCHEM_SHAPE_VOLUME>  (1) 
259.4

>  <PUBCHEM_COORDINATE_TYPE>  (1) 
2
5
10

$$$$
