2780
     RDKit          3D

 26 28  0  0  0  0  0  0  0  0999 V2000
    3.2609   -3.8181    0.4456 Cl  0  0  0  0  0  0  0  0  0  0  0  0
    2.5336    2.2877    1.1736 O   0  0  0  0  0  0  0  0  0  0  0  0
    4.6158    1.8451   -0.3724 O   0  0  0  0  0  0  0  0  0  0  0  0
   -2.6836    1.0349   -0.4059 N   0  0  0  0  0  0  0  0  0  0  0  0
    0.7914    0.8087    0.7806 N   0  0  0  0  0  0  0  0  0  0  0  0
    5.8308   -2.7714   -0.8046 N   0  0  0  0  0  0  0  0  0  0  0  0
   -0.2792    1.7096    1.1444 C   0  0  0  0  0  0  0  0  0  0  0  0
   -1.4621    0.9468    1.7455 C   0  0  0  0  0  0  0  0  0  0  0  0
   -0.7422    2.5319   -0.0605 C   0  0  0  0  0  0  0  0  0  0  0  0
   -2.2388    0.1587    0.6861 C   0  0  0  0  0  0  0  0  0  0  0  0
   -1.5435    1.6912   -1.0596 C   0  0  0  0  0  0  0  0  0  0  0  0
   -3.4679    0.2788   -1.3820 C   0  0  0  0  0  0  0  0  0  0  0  0
   -4.6933   -0.3371   -0.7609 C   0  0  0  0  0  0  0  0  0  0  0  0
    2.1256    1.1822    0.8276 C   0  0  0  0  0  0  0  0  0  0  0  0
    3.1034    0.1499    0.3969 C   0  0  0  0  0  0  0  0  0  0  0  0
   -4.6171   -1.6117   -0.2168 C   0  0  0  0  0  0  0  0  0  0  0  0
   -5.8824    0.3787   -0.7414 C   0  0  0  0  0  0  0  0  0  0  0  0
    4.2967    0.5339   -0.1808 C   0  0  0  0  0  0  0  0  0  0  0  0
   -5.7528   -2.1820    0.3588 C   0  0  0  0  0  0  0  0  0  0  0  0
   -7.0180   -0.1917   -0.1659 C   0  0  0  0  0  0  0  0  0  0  0  0
    2.7763   -1.1774    0.5930 C   0  0  0  0  0  0  0  0  0  0  0  0
   -6.9532   -1.4719    0.3845 C   0  0  0  0  0  0  0  0  0  0  0  0
    5.2016   -0.4503   -0.5787 C   0  0  0  0  0  0  0  0  0  0  0  0
    3.6811   -2.1613    0.1947 C   0  0  0  0  0  0  0  0  0  0  0  0
    4.8939   -1.7979   -0.3909 C   0  0  0  0  0  0  0  0  0  0  0  0
    4.2231    2.4327   -1.6109 C   0  0  0  0  0  0  0  0  0  0  0  0
  1 24  1  0
  2 14  2  0
  3 18  1  0
  3 26  1  0
  4 10  1  0
  4 11  1  0
  4 12  1  0
  5  7  1  0
  5 14  1  0
  6 25  1  0
  7  8  1  0
  7  9  1  0
  8 10  1  0
  9 11  1  0
 12 13  1  0
 13 16  2  0
 13 17  1  0
 14 15  1  0
 15 18  2  0
 15 21  1  0
 16 19  1  0
 17 20  2  0
 18 23  1  0
 19 22  2  0
 20 22  1  0
 21 24  2  0
 23 25  2  0
 24 25  1  0
M  END
>  <PUBCHEM_COMPOUND_CID>  (1) 
2780

>  <PUBCHEM_CONFORMER_RMSD>  (1) 
0.8

>  <PUBCHEM_CONFORMER_DIVERSEORDER>  (1) 
1
78
75
132
91
109
71
79
67
135
69
115
39
90
119
51
127
83
92
59
5
74
52
82
106
73
53
35
143
145
80
29
112
23
121
110
130
10
89
85
14
147
34
139
93
65
98
125
16
144
105
88
87
129
68
137
124
6
61
149
33
24
17
76
95
15
72
27
31
57
18
120
45
114
148
107
111
94
134
146
38
63
40
43
62
81
49
42
9
108
37
8
66
36
48
123
99
58
12
26
140
7
70
77
54
116
84
104
122
113
25
102
55
131
136
30
56
13
141
28
21
19
118
22
11
96
101
126
100
32
3
97
60
138
20
47
41
128
86
142
46
50
103
44
133
2
4
117
64

>  <PUBCHEM_MMFF94_PARTIAL_CHARGES>  (1) 
34
1 -0.18
10 0.27
11 0.27
12 0.41
13 -0.14
14 0.54
15 0.09
16 -0.15
17 -0.15
18 0.08
19 -0.15
2 -0.57
20 -0.15
21 -0.15
22 -0.15
23 -0.15
24 0.18
25 0.1
26 0.28
3 -0.36
38 0.37
39 0.15
4 -0.81
40 0.15
41 0.15
42 0.15
43 0.15
44 0.15
45 0.15
46 0.4
47 0.4
5 -0.73
6 -0.9
7 0.3

>  <PUBCHEM_EFFECTIVE_ROTOR_COUNT>  (1) 
7.2

>  <PUBCHEM_PHARMACOPHORE_FEATURES>  (1) 
9
1 2 acceptor
1 3 acceptor
1 4 cation
1 5 donor
1 6 cation
1 6 donor
6 13 16 17 19 20 22 rings
6 15 18 21 23 24 25 rings
6 4 7 8 9 10 11 rings

>  <PUBCHEM_HEAVY_ATOM_COUNT>  (1) 
26

>  <PUBCHEM_ATOM_DEF_STEREO_COUNT>  (1) 
0

>  <PUBCHEM_ATOM_UDEF_STEREO_COUNT>  (1) 
0

>  <PUBCHEM_BOND_DEF_STEREO_COUNT>  (1) 
0

>  <PUBCHEM_BOND_UDEF_STEREO_COUNT>  (1) 
0

>  <PUBCHEM_ISOTOPIC_ATOM_COUNT>  (1) 
0

>  <PUBCHEM_COMPONENT_COUNT>  (1) 
1

>  <PUBCHEM_CACTVS_TAUTO_COUNT>  (1) 
3

>  <PUBCHEM_CONFORMER_ID>  (1) 
00000ADC00000001

>  <PUBCHEM_MMFF94_ENERGY>  (1) 
84.2451

>  <PUBCHEM_FEATURE_SELFOVERLAP>  (1) 
45.681

>  <PUBCHEM_SHAPE_FINGERPRINT>  (1) 
10319926 262 13542465410377477501
10670039 82 13696142926257375158
10928967 22 18060123345533058023
11135609 187 18264773327418618153
11315621 136 18339083692560366702
117089 54 17699863821471580462
12107183 9 18057895658599371281
12592606 108 18131066053083688559
12596602 18 15194992916834513879
12760667 363 18060133216042532515
12788726 201 17489316282319877721
13402501 40 18409448094341666355
13533116 47 18343864437182986977
1361 2 18114465664232555964
13955234 65 17915731183785773760
14251764 30 18411979196089067983
14420673 8 18411702080794657359
14617045 38 18411138082193826711
15082195 135 17822589308056168780
15183329 4 18409164390540075899
15348495 7 11455884789281654621
15352257 5 18409729599673123099
15537594 2 18059288867904984167
15799311 1 18339658797144122011
17492 89 18266455400173656774
17909252 39 18343015550204087994
19319366 153 18340762745637015542
20567600 234 9007052487799048249
20567600 247 18341046436837910687
21033650 10 16951122855458616061
21344244 181 18259707817636650555
21344244 246 18409738349016851524
21641784 216 15719662183276213925
21859007 373 12678918783258873203
221357 26 18410572855865456050
22950370 63 18411981382169548713
23522609 53 17985577587295240433
23559900 14 18335977640303336489
24771750 20 17101733137977535445
25222932 49 18198900490666190095
2838139 119 8862675581675444043
2916195 48 9655577418298903589
3004659 81 18334855000450783842
314194 84 18271237318044944575
33382 64 18412825798245716409
345986 75 17561080285404869315
3472631 163 15141252074028900172
34797466 226 17530964734940082277
351380 3 17775282781252000431
397830 11 10087346885847430117
4098825 35 18260548887928064517
439807 62 18336264548556276655
4435113 14 18335715974254664307
46194498 28 17967530203209630204
463206 1 18270673272458696511
465052 167 18131634490902416820
484989 97 18335712675693199354
5104073 3 17704069560367422288
54039377 194 18201723908336702414
6371380 46 10735888300247573188
7970288 3 18129943365010913334

>  <PUBCHEM_SHAPE_MULTIPOLES>  (1) 
510.26
17.39
3.4
1.25
17.09
1.79
0.05
10.18
-4.07
-4.41
-0.03
-0.08
-0.58
0.2

>  <PUBCHEM_SHAPE_SELFOVERLAP>  (1) 
1077.227

>  <PUBCHEM_SHAPE_VOLUME>  (1) 
285.9

>  <PUBCHEM_COORDINATE_TYPE>  (1) 
2
5
10

$$$$
