27801
     RDKit          3D

 26 28  0  0  0  0  0  0  0  0999 V2000
    1.5077    4.7488    1.9315 Cl  0  0  0  0  0  0  0  0  0  0  0  0
    2.3885   -0.0076   -2.5192 O   0  0  0  0  0  0  0  0  0  0  0  0
   -2.5130   -0.2577   -0.0314 N   0  0  0  0  0  0  0  0  0  0  0  0
    0.3459   -0.7817   -1.7909 N   0  0  0  0  0  0  0  0  0  0  0  0
   -1.9774   -0.1067   -1.3839 C   0  0  0  0  0  0  0  0  0  0  0  0
   -1.9171   -1.4270    0.6301 C   0  0  0  0  0  0  0  0  0  0  0  0
   -3.9789   -0.3574   -0.0671 C   0  0  0  0  0  0  0  0  0  0  0  0
   -2.4298   -1.5710    2.0639 C   0  0  0  0  0  0  0  0  0  0  0  0
   -4.5590   -0.4665    1.3437 C   0  0  0  0  0  0  0  0  0  0  0  0
   -3.9520   -1.6404    2.1039 C   0  0  0  0  0  0  0  0  0  0  0  0
   -2.3612   -1.3408   -2.2115 C   0  0  0  0  0  0  0  0  0  0  0  0
   -2.6071    1.1344   -2.0388 C   0  0  0  0  0  0  0  0  0  0  0  0
   -0.4493    0.0765   -1.2178 C   0  0  0  0  0  0  0  0  0  0  0  0
    0.0363    1.2388   -0.4346 C   0  0  0  0  0  0  0  0  0  0  0  0
    0.2254    1.0961    0.9254 C   0  0  0  0  0  0  0  0  0  0  0  0
    0.2865    2.4285   -1.0890 C   0  0  0  0  0  0  0  0  0  0  0  0
    1.7088   -0.6181   -1.7002 C   0  0  0  0  0  0  0  0  0  0  0  0
    0.6835    2.1885    1.6619 C   0  0  0  0  0  0  0  0  0  0  0  0
    0.7449    3.5210   -0.3526 C   0  0  0  0  0  0  0  0  0  0  0  0
    0.9434    3.4010    1.0229 C   0  0  0  0  0  0  0  0  0  0  0  0
    2.3716   -1.2746   -0.5384 C   0  0  0  0  0  0  0  0  0  0  0  0
    1.8216   -2.4302   -0.0292 C   0  0  0  0  0  0  0  0  0  0  0  0
    3.5105   -0.7025   -0.0162 C   0  0  0  0  0  0  0  0  0  0  0  0
    2.4421   -3.0451    1.0582 C   0  0  0  0  0  0  0  0  0  0  0  0
    4.1311   -1.3175    1.0712 C   0  0  0  0  0  0  0  0  0  0  0  0
    3.5968   -2.4888    1.6083 C   0  0  0  0  0  0  0  0  0  0  0  0
  1 20  1  0
  2 17  2  0
  3  5  1  0
  3  6  1  0
  3  7  1  0
  4 13  2  0
  4 17  1  0
  5 11  1  0
  5 12  1  0
  5 13  1  0
  6  8  1  0
  7  9  1  0
  8 10  1  0
  9 10  1  0
 13 14  1  0
 14 15  2  0
 14 16  1  0
 15 18  1  0
 16 19  2  0
 17 21  1  0
 18 20  2  0
 19 20  1  0
 21 22  2  0
 21 23  1  0
 22 24  1  0
 23 25  2  0
 24 26  2  0
 25 26  1  0
M  END
>  <PUBCHEM_COMPOUND_CID>  (1) 
27801

>  <PUBCHEM_CONFORMER_RMSD>  (1) 
0.8

>  <PUBCHEM_CONFORMER_DIVERSEORDER>  (1) 
3
13
11
1
24
25
14
21
23
18
5
22
4
15
7
19
9
12
2
17
16
10
6
8
20

>  <PUBCHEM_MMFF94_PARTIAL_CHARGES>  (1) 
30
1 -0.18
13 0.3
14 0.09
15 -0.15
16 -0.15
17 0.69
18 -0.15
19 -0.15
2 -0.57
20 0.18
21 0.09
22 -0.15
23 -0.15
24 -0.15
25 -0.15
26 -0.15
3 -0.81
4 -0.66
43 0.15
44 0.15
45 0.15
46 0.15
47 0.15
48 0.15
49 0.15
5 0.33
50 0.15
51 0.15
6 0.27
7 0.27

>  <PUBCHEM_EFFECTIVE_ROTOR_COUNT>  (1) 
6.2

>  <PUBCHEM_PHARMACOPHORE_FEATURES>  (1) 
8
1 2 acceptor
1 3 cation
1 4 acceptor
1 4 donor
3 5 11 12 hydrophobe
6 14 15 16 18 19 20 rings
6 21 22 23 24 25 26 rings
6 3 6 7 8 9 10 rings

>  <PUBCHEM_HEAVY_ATOM_COUNT>  (1) 
26

>  <PUBCHEM_ATOM_DEF_STEREO_COUNT>  (1) 
0

>  <PUBCHEM_ATOM_UDEF_STEREO_COUNT>  (1) 
0

>  <PUBCHEM_BOND_DEF_STEREO_COUNT>  (1) 
0

>  <PUBCHEM_BOND_UDEF_STEREO_COUNT>  (1) 
0

>  <PUBCHEM_ISOTOPIC_ATOM_COUNT>  (1) 
0

>  <PUBCHEM_COMPONENT_COUNT>  (1) 
1

>  <PUBCHEM_CACTVS_TAUTO_COUNT>  (1) 
1

>  <PUBCHEM_CONFORMER_ID>  (1) 
00006C9900000003

>  <PUBCHEM_MMFF94_ENERGY>  (1) 
83.6503

>  <PUBCHEM_FEATURE_SELFOVERLAP>  (1) 
40.645

>  <PUBCHEM_SHAPE_FINGERPRINT>  (1) 
10305334 12 16051496102398820816
11244481 83 18189333639918544553
11578080 2 18040435516370217509
12160290 23 17764593114279530612
12506688 2 18113911450037074547
12539773 59 16459898275949370099
12549972 3 18187353351485735497
12553582 1 18271238340057536454
12592029 89 17765119028666375084
12633257 1 18196117541495988171
12788726 201 17906999700082575720
133893 2 18055896925967466021
13583140 156 18197229259441853203
13965767 371 17059216912668205531
14251757 17 16878499029843181523
14787075 74 18263649635762788550
14840074 17 17988634255516231904
14955137 171 17915767411855312494
15475509 35 18042702752728875235
17974551 9 18116741615232818737
19315092 285 18125172777695584123
19784866 135 17386013845218088859
20600515 1 18120092784297241756
21756936 100 13612795650390345058
23419403 2 18115014316049697698
23558518 356 17332238693739331086
23559900 14 17676774296414862223
244849 19 18042663148935204047
3380486 145 17986657199895538911
35225 105 17337047996354052154
392239 28 18267563832886233794
394222 165 17629499737100284001
469060 322 17842521164407559514
550186 83 16174625753664465057
57527306 92 17912402893563989940
5845 1 12545133583750132452
7288768 16 17049937399939659041
81228 2 17838062502643120740
8509985 295 18193301632092850001
90316 7 17914873384490329678
9981440 41 16477078162555617818

>  <PUBCHEM_SHAPE_MULTIPOLES>  (1) 
521.11
6.61
4.51
2.52
3.05
5.67
0.37
-5.4
-2.76
-4.29
-2.89
0.93
-0.1
0.86

>  <PUBCHEM_SHAPE_SELFOVERLAP>  (1) 
1107.384

>  <PUBCHEM_SHAPE_VOLUME>  (1) 
291.6

>  <PUBCHEM_COORDINATE_TYPE>  (1) 
2
5
10

$$$$
