2781
     RDKit          3D

 24 26  0  0  1  0  0  0  0  0999 V2000
   -1.3488   -5.1571   -1.0405 Cl  0  0  0  0  0  0  0  0  0  0  0  0
    0.2473    0.9021    0.9212 O   0  0  0  0  0  0  0  0  0  0  0  0
    4.4285    0.8824    0.0224 N   0  0  0  0  0  0  0  0  0  0  0  0
    3.0030    0.5511    0.1547 C   0  0  0  0  0  0  0  0  0  0  0  0
    2.9215   -0.8438   -0.4690 C   0  0  0  0  0  0  0  0  0  0  0  0
    4.1046   -0.9263   -1.4275 C   0  0  0  0  0  0  0  0  0  0  0  0
    4.8003    0.4201   -1.3172 C   0  0  0  0  0  0  0  0  0  0  0  0
    2.5126    0.5549    1.5970 C   0  0  0  0  0  0  0  0  0  0  0  0
    1.0809    0.0584    1.7037 C   0  0  0  0  0  0  0  0  0  0  0  0
    4.7095    2.3027    0.1939 C   0  0  0  0  0  0  0  0  0  0  0  0
   -1.1120    0.4906    0.9777 C   0  0  0  0  0  0  0  0  0  0  0  0
   -1.1710   -0.9512    0.4628 C   0  0  0  0  0  0  0  0  0  0  0  0
   -1.9806    1.4224    0.1231 C   0  0  0  0  0  0  0  0  0  0  0  0
   -1.4960    0.6676    2.4603 C   0  0  0  0  0  0  0  0  0  0  0  0
   -0.7547   -1.2073   -0.8223 C   0  0  0  0  0  0  0  0  0  0  0  0
   -1.6392   -1.9309    1.3064 C   0  0  0  0  0  0  0  0  0  0  0  0
   -3.3272    1.1636    0.0338 C   0  0  0  0  0  0  0  0  0  0  0  0
   -1.3758    2.4767   -0.5179 C   0  0  0  0  0  0  0  0  0  0  0  0
   -0.8098   -2.5199   -1.2912 C   0  0  0  0  0  0  0  0  0  0  0  0
   -1.6943   -3.2434    0.8374 C   0  0  0  0  0  0  0  0  0  0  0  0
   -4.1171    2.0107   -0.7437 C   0  0  0  0  0  0  0  0  0  0  0  0
   -2.1656    3.3238   -1.2954 C   0  0  0  0  0  0  0  0  0  0  0  0
   -1.2796   -3.5379   -0.4614 C   0  0  0  0  0  0  0  0  0  0  0  0
   -3.5362    3.0906   -1.4082 C   0  0  0  0  0  0  0  0  0  0  0  0
  1 23  1  0
  2  9  1  0
  2 11  1  0
  3  4  1  0
  3  7  1  0
  3 10  1  0
  4  5  1  0
  4  8  1  0
  5  6  1  0
  6  7  1  0
  8  9  1  0
 11 12  1  0
 11 13  1  0
 11 14  1  0
 12 15  2  0
 12 16  1  0
 13 17  2  0
 13 18  1  0
 15 19  1  0
 16 20  2  0
 17 21  1  0
 18 22  2  0
 19 23  2  0
 20 23  1  0
 21 24  2  0
 22 24  1  0
M  END
>  <PUBCHEM_COMPOUND_CID>  (1) 
2781

>  <PUBCHEM_CONFORMER_RMSD>  (1) 
0.8

>  <PUBCHEM_CONFORMER_DIVERSEORDER>  (1) 
2
24
21
85
23
39
56
38
59
50
28
33
51
83
29
74
47
22
10
79
15
80
4
61
78
43
81
41
68
37
52
1
31
57
32
16
5
73
3
27
82
72
9
14
55
71
58
17
42
12
45
30
11
26
48
34
64
36
77
62
19
67
69
75
18
20
7
84
13
70
6
8
35
44
46
40
65
66
54
76
63
60
49
53
86
25

>  <PUBCHEM_MMFF94_PARTIAL_CHARGES>  (1) 
29
1 -0.18
10 0.27
11 0.57
12 -0.14
13 -0.14
15 -0.15
16 -0.15
17 -0.15
18 -0.15
19 -0.15
2 -0.56
20 -0.15
21 -0.15
22 -0.15
23 0.18
24 -0.15
3 -0.81
4 0.27
42 0.15
43 0.15
44 0.15
45 0.15
46 0.15
47 0.15
48 0.15
49 0.15
50 0.15
7 0.27
9 0.28

>  <PUBCHEM_EFFECTIVE_ROTOR_COUNT>  (1) 
7

>  <PUBCHEM_PHARMACOPHORE_FEATURES>  (1) 
5
1 2 acceptor
1 3 cation
5 3 4 5 6 7 rings
6 12 15 16 19 20 23 rings
6 13 17 18 21 22 24 rings

>  <PUBCHEM_HEAVY_ATOM_COUNT>  (1) 
24

>  <PUBCHEM_ATOM_DEF_STEREO_COUNT>  (1) 
0

>  <PUBCHEM_ATOM_UDEF_STEREO_COUNT>  (1) 
2

>  <PUBCHEM_BOND_DEF_STEREO_COUNT>  (1) 
0

>  <PUBCHEM_BOND_UDEF_STEREO_COUNT>  (1) 
0

>  <PUBCHEM_ISOTOPIC_ATOM_COUNT>  (1) 
0

>  <PUBCHEM_COMPONENT_COUNT>  (1) 
1

>  <PUBCHEM_CACTVS_TAUTO_COUNT>  (1) 
1

>  <PUBCHEM_CONFORMER_ID>  (1) 
00000ADD00000002

>  <PUBCHEM_MMFF94_ENERGY>  (1) 
77.2583

>  <PUBCHEM_FEATURE_SELFOVERLAP>  (1) 
25.373

>  <PUBCHEM_SHAPE_FINGERPRINT>  (1) 
105312 117 18335989666306711100
107951 10 17968674717299186946
10815517 723 18199468956375866831
11045515 52 17906450283297135286
11101153 10 17612310054449795276
11370993 70 18338237033845853332
11488393 25 17978515235294452171
11578080 2 17700125796942852041
12160290 23 18339632430145058011
12173636 292 17967250905638497762
12788726 201 18189040061924700611
13149001 5 17987497342664668729
13257819 37 18335145258820043047
13383661 66 17485617641801640447
133893 2 17549547301619211555
13681431 1 17256516947311232667
14251757 17 16700865298661341733
14468879 13 18115037307136441792
15163728 17 17900553280478472797
15463212 79 18259980500872717434
15475509 35 12028075115901831781
15775530 1 17696444632123678241
17357779 13 17771612727075911063
1813 80 17833839647784827498
18915476 22 17979367356816242097
20600515 1 17840050729262500511
20602899 9 18272369724510788193
20775438 99 17768491166467779773
21285901 2 17626635517942209687
21344244 181 18130786742200880767
21344244 246 17765142878630936687
21421566 26 18194416712291173942
21860390 5 16311013380472228733
21864079 5 17169008805906791404
22907989 373 18339651134490066365
23114952 82 17616808834759135181
23227448 37 18334858376369386276
23366157 5 17469031164982243337
23419403 2 17556339157101696351
23557571 272 18339078327951009392
23559900 14 17399217669929254461
238 59 18053942844633312838
24893989 43 15896358293084814599
25265897 201 17976299865076757316
26353 1 17834104625944849223
3057174 1 18193822752842934391
3298306 158 18194402182475295030
3729539 64 17909561566533889814
376196 1 17607233273623557293
4015057 19 17275097315658261672
437795 70 17839996853525381319
44802255 64 18262533502595941558
458136 41 18125723379527760401
633830 44 17702934821666245569
6669772 16 17771029780055569810
81228 2 18123731304849687979

>  <PUBCHEM_SHAPE_MULTIPOLES>  (1) 
484.93
7.75
5.2
1.8
10.57
5.89
-0.61
-6.32
2.8
-5.69
2.58
-0.14
-0.1
1.45

>  <PUBCHEM_SHAPE_SELFOVERLAP>  (1) 
1024.776

>  <PUBCHEM_SHAPE_VOLUME>  (1) 
276

>  <PUBCHEM_COORDINATE_TYPE>  (1) 
2
5
10

$$$$
