27814
     RDKit          3D

 12 13  0  0  0  0  0  0  0  0999 V2000
   -1.9326    1.8603    0.0000 O   0  0  0  0  0  0  0  0  0  0  0  0
    3.2068   -0.2939   -0.0005 O   0  0  0  0  0  0  0  0  0  0  0  0
    2.1620    1.6368   -0.0002 O   0  0  0  0  0  0  0  0  0  0  0  0
   -0.5556    1.7178    0.0003 N   0  0  0  0  0  0  0  0  0  0  0  0
    2.1428    0.3785    0.0001 N   0  0  0  0  0  0  0  0  0  0  0  0
   -2.5779    0.6355   -0.0003 N   0  0  0  0  0  0  0  0  0  0  0  0
   -0.3239    0.3992    0.0002 C   0  0  0  0  0  0  0  0  0  0  0  0
    0.9007   -0.2937    0.0005 C   0  0  0  0  0  0  0  0  0  0  0  0
   -1.6092   -0.2888   -0.0001 C   0  0  0  0  0  0  0  0  0  0  0  0
    0.7753   -1.6948    0.0003 C   0  0  0  0  0  0  0  0  0  0  0  0
   -1.7119   -1.6921   -0.0003 C   0  0  0  0  0  0  0  0  0  0  0  0
   -0.4765   -2.3648    0.0000 C   0  0  0  0  0  0  0  0  0  0  0  0
  1  4  1  0
  1  6  1  0
  2  5  1  0
  3  5  2  0
  4  7  2  0
  5  8  1  0
  6  9  2  0
  7  8  1  0
  7  9  1  0
  8 10  2  0
  9 11  1  0
 10 12  1  0
 11 12  2  0
M  CHG  2   2  -1   5   1
M  END
>  <PUBCHEM_COMPOUND_CID>  (1) 
27814

>  <PUBCHEM_CONFORMER_RMSD>  (1) 
0.4

>  <PUBCHEM_CONFORMER_DIVERSEORDER>  (1) 
1

>  <PUBCHEM_MMFF94_PARTIAL_CHARGES>  (1) 
15
1 0.24
10 -0.15
11 -0.15
12 -0.15
13 0.15
14 0.15
15 0.15
2 -0.52
3 -0.52
4 -0.41
5 0.91
6 -0.41
7 0.29
8 0.13
9 0.29

>  <PUBCHEM_EFFECTIVE_ROTOR_COUNT>  (1) 
1

>  <PUBCHEM_PHARMACOPHORE_FEATURES>  (1) 
7
1 2 acceptor
1 2 anion
1 3 acceptor
1 4 acceptor
1 6 acceptor
5 1 4 6 7 9 rings
6 7 8 9 10 11 12 rings

>  <PUBCHEM_HEAVY_ATOM_COUNT>  (1) 
12

>  <PUBCHEM_ATOM_DEF_STEREO_COUNT>  (1) 
0

>  <PUBCHEM_ATOM_UDEF_STEREO_COUNT>  (1) 
0

>  <PUBCHEM_BOND_DEF_STEREO_COUNT>  (1) 
0

>  <PUBCHEM_BOND_UDEF_STEREO_COUNT>  (1) 
0

>  <PUBCHEM_ISOTOPIC_ATOM_COUNT>  (1) 
0

>  <PUBCHEM_COMPONENT_COUNT>  (1) 
1

>  <PUBCHEM_CACTVS_TAUTO_COUNT>  (1) 
1

>  <PUBCHEM_CONFORMER_ID>  (1) 
00006CA600000001

>  <PUBCHEM_MMFF94_ENERGY>  (1) 
38.1796

>  <PUBCHEM_FEATURE_SELFOVERLAP>  (1) 
35.783

>  <PUBCHEM_SHAPE_FINGERPRINT>  (1) 
12423570 1 11369860248959127323
13380535 76 18338511924516665255
16945 1 18410573959408203015
193761 8 18266740169269016103
19973954 147 18338800142776452076
20871998 184 18200037385594163095
21040471 1 18410855421494672066
23552423 10 18116431629846360990
23559900 14 18271534096781577862
241688 4 16106139089777511171
2748010 2 18267021850134664039
5084963 1 18131068238208873930
528886 8 18411132511394117731
66348 1 18410009918506545859

>  <PUBCHEM_SHAPE_MULTIPOLES>  (1) 
214.4
3.39
2.34
0.57
1.8
0.31
0
-0.76
0
-0.73
0
-0.03
0.05
0

>  <PUBCHEM_SHAPE_SELFOVERLAP>  (1) 
466.186

>  <PUBCHEM_SHAPE_VOLUME>  (1) 
118.1

>  <PUBCHEM_COORDINATE_TYPE>  (1) 
2
5
10

$$$$
