27815
     RDKit          3D

 19 21  0  0  0  0  0  0  0  0999 V2000
   -1.6729    1.2511   -1.3720 S   0  0  0  0  0  0  0  0  0  0  0  0
    2.2181    2.6590    0.5422 O   0  0  0  0  0  0  0  0  0  0  0  0
    3.7444   -2.6788    0.0583 O   0  0  0  0  0  0  0  0  0  0  0  0
    4.4944   -0.7444    0.7757 O   0  0  0  0  0  0  0  0  0  0  0  0
    0.9648    2.4782   -0.0171 N   0  0  0  0  0  0  0  0  0  0  0  0
    2.9358    1.4762    0.5932 N   0  0  0  0  0  0  0  0  0  0  0  0
    3.5894   -1.4452    0.2528 N   0  0  0  0  0  0  0  0  0  0  0  0
    0.8844    1.1772   -0.3229 C   0  0  0  0  0  0  0  0  0  0  0  0
   -0.1731    0.4608   -0.9129 C   0  0  0  0  0  0  0  0  0  0  0  0
    2.1372    0.5403    0.0650 C   0  0  0  0  0  0  0  0  0  0  0  0
    2.3732   -0.8338   -0.1245 C   0  0  0  0  0  0  0  0  0  0  0  0
    0.0837   -0.9105   -1.0931 C   0  0  0  0  0  0  0  0  0  0  0  0
    1.3037   -1.5307   -0.7154 C   0  0  0  0  0  0  0  0  0  0  0  0
   -2.8798    0.3672   -0.3853 C   0  0  0  0  0  0  0  0  0  0  0  0
   -2.7754    0.3777    1.0008 C   0  0  0  0  0  0  0  0  0  0  0  0
   -3.9107   -0.3214   -1.0140 C   0  0  0  0  0  0  0  0  0  0  0  0
   -3.7148   -0.3103    1.7689 C   0  0  0  0  0  0  0  0  0  0  0  0
   -4.8503   -1.0092   -0.2457 C   0  0  0  0  0  0  0  0  0  0  0  0
   -4.7521   -1.0036    1.1457 C   0  0  0  0  0  0  0  0  0  0  0  0
  1  9  1  0
  1 14  1  0
  2  5  1  0
  2  6  1  0
  3  7  1  0
  4  7  2  0
  5  8  2  0
  6 10  2  0
  7 11  1  0
  8  9  1  0
  8 10  1  0
  9 12  2  0
 10 11  1  0
 11 13  2  0
 12 13  1  0
 14 15  2  0
 14 16  1  0
 15 17  1  0
 16 18  2  0
 17 19  2  0
 18 19  1  0
M  CHG  2   3  -1   7   1
M  END
>  <PUBCHEM_COMPOUND_CID>  (1) 
27815

>  <PUBCHEM_CONFORMER_RMSD>  (1) 
0.6

>  <PUBCHEM_CONFORMER_DIVERSEORDER>  (1) 
1
8
7
4
5
3
6
2

>  <PUBCHEM_MMFF94_PARTIAL_CHARGES>  (1) 
26
1 -0.2
10 0.29
11 0.13
12 -0.15
13 -0.15
14 0.1
15 -0.15
16 -0.15
17 -0.15
18 -0.15
19 -0.15
2 0.24
20 0.15
21 0.15
22 0.15
23 0.15
24 0.15
25 0.15
26 0.15
3 -0.52
4 -0.52
5 -0.41
6 -0.41
7 0.91
8 0.29
9 0.1

>  <PUBCHEM_EFFECTIVE_ROTOR_COUNT>  (1) 
3

>  <PUBCHEM_PHARMACOPHORE_FEATURES>  (1) 
8
1 3 acceptor
1 3 anion
1 4 acceptor
1 5 acceptor
1 6 acceptor
5 2 5 6 8 10 rings
6 14 15 16 17 18 19 rings
6 8 9 10 11 12 13 rings

>  <PUBCHEM_HEAVY_ATOM_COUNT>  (1) 
19

>  <PUBCHEM_ATOM_DEF_STEREO_COUNT>  (1) 
0

>  <PUBCHEM_ATOM_UDEF_STEREO_COUNT>  (1) 
0

>  <PUBCHEM_BOND_DEF_STEREO_COUNT>  (1) 
0

>  <PUBCHEM_BOND_UDEF_STEREO_COUNT>  (1) 
0

>  <PUBCHEM_ISOTOPIC_ATOM_COUNT>  (1) 
0

>  <PUBCHEM_COMPONENT_COUNT>  (1) 
1

>  <PUBCHEM_CACTVS_TAUTO_COUNT>  (1) 
1

>  <PUBCHEM_CONFORMER_ID>  (1) 
00006CA700000001

>  <PUBCHEM_MMFF94_ENERGY>  (1) 
58.8226

>  <PUBCHEM_FEATURE_SELFOVERLAP>  (1) 
40.859

>  <PUBCHEM_SHAPE_FINGERPRINT>  (1) 
10366900 7 18113059320109582971
11471102 22 18410291423701281413
11543360 7 16081665382746230054
11578080 2 13264058122104865871
11582403 64 16096485846196387013
11796584 16 17168418255739015651
12251169 10 18272368685128851839
12363563 72 17749116595118254357
12507557 5 18272363157716795281
12596602 18 17346593105839886978
12633257 1 18343030990643106699
12644460 14 18411418457885646048
13296908 3 17822294613058882901
13533116 47 18411423951391449923
13544653 18 18262239919525875326
13693222 15 18412829109881876781
14251764 30 18057619672242958518
14252887 29 18114463465314912129
14341114 328 17346048869686552659
14386348 63 17821729459692299523
14787075 74 18187369818253068322
14790565 3 17759244394085467212
15163728 17 13326282779750664530
15527383 91 18338526257102048377
16752209 62 15574985183465776185
1813 80 17987249849927587766
18785283 64 18262796406160593204
19050596 39 17775573056922733627
19862831 5 13334741215007202375
200 152 18202271499460023599
20028762 73 18059568135512157159
20645477 70 18336532889691470279
20739085 24 18343027683465554148
21041028 32 18272651203761841008
23557571 272 17313089852638726429
23559900 14 17385441033592527381
2748010 2 17554035542807417980
31174 14 18409445920607848556
316301 35 17822012059529014563
3286 77 18408889537959804261
458136 41 18193282007923524820
9709674 26 18040997405845920225

>  <PUBCHEM_SHAPE_MULTIPOLES>  (1) 
362.31
9.16
2.22
1.3
4.01
0.42
-0.11
-4.47
-2.83
-2.67
-0.09
1.2
0.02
0.64

>  <PUBCHEM_SHAPE_SELFOVERLAP>  (1) 
780.652

>  <PUBCHEM_SHAPE_VOLUME>  (1) 
199.6

>  <PUBCHEM_COORDINATE_TYPE>  (1) 
2
5
10

$$$$
