27821
     RDKit          3D

  9  8  0  0  0  0  0  0  0  0999 V2000
    0.4268   -2.4289    0.4973 O   0  0  0  0  0  0  0  0  0  0  0  0
    0.0016   -0.4362   -0.0605 N   0  0  0  0  0  0  0  0  0  0  0  0
    0.6429   -1.5521   -0.3480 N   0  0  0  0  0  0  0  0  0  0  0  0
    0.7078    0.7467   -0.5418 C   0  0  0  0  0  0  0  0  0  0  0  0
   -1.3900   -0.4120   -0.5394 C   0  0  0  0  0  0  0  0  0  0  0  0
    1.7973    1.1597    0.3992 C   0  0  0  0  0  0  0  0  0  0  0  0
   -2.2904    0.3061    0.4182 C   0  0  0  0  0  0  0  0  0  0  0  0
    3.0923    1.2121    0.0672 C   0  0  0  0  0  0  0  0  0  0  0  0
   -2.9881    1.4047    0.1078 C   0  0  0  0  0  0  0  0  0  0  0  0
  1  3  2  0
  2  3  1  0
  2  4  1  0
  2  5  1  0
  4  6  1  0
  5  7  1  0
  6  8  2  0
  7  9  2  0
M  END
>  <PUBCHEM_COMPOUND_CID>  (1) 
27821

>  <PUBCHEM_CONFORMER_RMSD>  (1) 
0.6

>  <PUBCHEM_CONFORMER_DIVERSEORDER>  (1) 
1
35
62
10
26
52
64
13
23
63
17
47
32
21
6
22
51
36
60
41
40
33
18
39
42
14
34
66
19
54
57
3
16
58
30
12
27
53
44
65
56
48
11
45
49
37
55
31
8
7
15
38
46
59
4
9
20
24
43
50
61
29
5
25
2
28

>  <PUBCHEM_MMFF94_PARTIAL_CHARGES>  (1) 
15
1 -0.16
14 0.15
15 0.15
16 0.15
17 0.15
18 0.15
19 0.15
2 -0.36
3 -0.01
4 0.41
5 0.41
6 -0.29
7 -0.29
8 -0.3
9 -0.3

>  <PUBCHEM_EFFECTIVE_ROTOR_COUNT>  (1) 
5

>  <PUBCHEM_PHARMACOPHORE_FEATURES>  (1) 
2
1 8 hydrophobe
1 9 hydrophobe

>  <PUBCHEM_HEAVY_ATOM_COUNT>  (1) 
9

>  <PUBCHEM_ATOM_DEF_STEREO_COUNT>  (1) 
0

>  <PUBCHEM_ATOM_UDEF_STEREO_COUNT>  (1) 
0

>  <PUBCHEM_BOND_DEF_STEREO_COUNT>  (1) 
0

>  <PUBCHEM_BOND_UDEF_STEREO_COUNT>  (1) 
0

>  <PUBCHEM_ISOTOPIC_ATOM_COUNT>  (1) 
0

>  <PUBCHEM_COMPONENT_COUNT>  (1) 
1

>  <PUBCHEM_CACTVS_TAUTO_COUNT>  (1) 
1

>  <PUBCHEM_CONFORMER_ID>  (1) 
00006CAD00000001

>  <PUBCHEM_MMFF94_ENERGY>  (1) 
17.5456

>  <PUBCHEM_FEATURE_SELFOVERLAP>  (1) 
10.149

>  <PUBCHEM_SHAPE_FINGERPRINT>  (1) 
14325111 11 18340487858591458420
14390081 3 18272934916643177753
15775835 57 18273217503895118377
170605 34 18273500061266644293
19021347 4 18337110171581811299
20653085 51 17488476328234617392
21028194 46 18270967963012489816
21040471 1 18338240491210162692
23211744 41 18059017309854811301
23552449 1 17476355479527047196
23552449 11 18120370956659898547
305870 269 18409164385490760320
5084963 1 17987519393079162497

>  <PUBCHEM_SHAPE_MULTIPOLES>  (1) 
169.38
4.21
2
0.73
0.04
1.29
-0.02
-3.01
0.41
-0.27
0.26
0.03
0.01
-0.06

>  <PUBCHEM_SHAPE_SELFOVERLAP>  (1) 
310.979

>  <PUBCHEM_SHAPE_VOLUME>  (1) 
108.2

>  <PUBCHEM_COORDINATE_TYPE>  (1) 
2
5
10

$$$$
