27828
     RDKit          3D

  7  6  0  0  0  0  0  0  0  0999 V2000
    2.0641   -0.9291    0.0691 O   0  0  0  0  0  0  0  0  0  0  0  0
   -1.0859    0.1739   -0.1905 N   0  0  0  0  0  0  0  0  0  0  0  0
    0.3675    0.2695   -0.3115 N   0  0  0  0  0  0  0  0  0  0  0  0
    1.0604   -0.4139    0.5757 N   0  0  0  0  0  0  0  0  0  0  0  0
   -1.5770    0.2452    1.1871 C   0  0  0  0  0  0  0  0  0  0  0  0
   -1.5588   -1.0294   -0.8727 C   0  0  0  0  0  0  0  0  0  0  0  0
    0.7296    1.6838   -0.4572 C   0  0  0  0  0  0  0  0  0  0  0  0
  1  4  2  0
  2  3  1  0
  2  5  1  0
  2  6  1  0
  3  4  1  0
  3  7  1  0
M  END
>  <PUBCHEM_COMPOUND_CID>  (1) 
27828

>  <PUBCHEM_CONFORMER_RMSD>  (1) 
0.4

>  <PUBCHEM_CONFORMER_DIVERSEORDER>  (1) 
1
19
16
8
9
15
6
21
23
4
17
10
22
12
7
20
18
11
3
5
13
14
2

>  <PUBCHEM_MMFF94_PARTIAL_CHARGES>  (1) 
7
1 -0.16
2 -0.54
3 -0.09
4 -0.01
5 0.27
6 0.27
7 0.27

>  <PUBCHEM_EFFECTIVE_ROTOR_COUNT>  (1) 
2

>  <PUBCHEM_PHARMACOPHORE_FEATURES>  (1) 
0

>  <PUBCHEM_HEAVY_ATOM_COUNT>  (1) 
7

>  <PUBCHEM_ATOM_DEF_STEREO_COUNT>  (1) 
0

>  <PUBCHEM_ATOM_UDEF_STEREO_COUNT>  (1) 
0

>  <PUBCHEM_BOND_DEF_STEREO_COUNT>  (1) 
0

>  <PUBCHEM_BOND_UDEF_STEREO_COUNT>  (1) 
0

>  <PUBCHEM_ISOTOPIC_ATOM_COUNT>  (1) 
0

>  <PUBCHEM_COMPONENT_COUNT>  (1) 
1

>  <PUBCHEM_CACTVS_TAUTO_COUNT>  (1) 
1

>  <PUBCHEM_CONFORMER_ID>  (1) 
00006CB400000001

>  <PUBCHEM_MMFF94_ENERGY>  (1) 
23.4722

>  <PUBCHEM_FEATURE_SELFOVERLAP>  (1) 
0

>  <PUBCHEM_SHAPE_FINGERPRINT>  (1) 
137420 1 14244987704329890404
139733 1 10591751108594407790
16714656 1 18124040031114271118
18185500 45 18270956972249071743
20096714 4 18125746687840671185
21040471 1 16915407445028126937
23552333 60 18125435564899713131
24536 1 16805600438348324533
29004967 10 18041287590536259544
5943 1 13928688999628626741

>  <PUBCHEM_SHAPE_MULTIPOLES>  (1) 
123.24
2.29
1.35
1.02
0.02
0.25
0.13
-0.58
0.13
0.47
-0.22
-0.42
0.04
-0.58

>  <PUBCHEM_SHAPE_SELFOVERLAP>  (1) 
216.694

>  <PUBCHEM_SHAPE_VOLUME>  (1) 
83

>  <PUBCHEM_COORDINATE_TYPE>  (1) 
2
5
10

$$$$
