27824
     RDKit          3D

  8  7  0  0  0  0  0  0  0  0999 V2000
    1.1791   -1.7912    0.2482 O   0  0  0  0  0  0  0  0  0  0  0  0
    0.1443   -0.0218   -0.2459 N   0  0  0  0  0  0  0  0  0  0  0  0
    0.3002   -1.0046    0.6204 N   0  0  0  0  0  0  0  0  0  0  0  0
   -1.2351    0.4410   -0.3913 C   0  0  0  0  0  0  0  0  0  0  0  0
    1.0190    1.1167    0.0626 C   0  0  0  0  0  0  0  0  0  0  0  0
   -1.7053    1.1154    0.8945 C   0  0  0  0  0  0  0  0  0  0  0  0
   -2.1317   -0.7398   -0.7503 C   0  0  0  0  0  0  0  0  0  0  0  0
    2.4295    0.8844   -0.4382 C   0  0  0  0  0  0  0  0  0  0  0  0
  1  3  2  0
  2  3  1  0
  2  4  1  0
  2  5  1  0
  4  6  1  0
  4  7  1  0
  5  8  1  0
M  END
>  <PUBCHEM_COMPOUND_CID>  (1) 
27824

>  <PUBCHEM_CONFORMER_RMSD>  (1) 
0.6

>  <PUBCHEM_CONFORMER_DIVERSEORDER>  (1) 
1
18
21
10
12
20
13
8
19
11
17
2
6
4
3
15
5
14
7
9
16

>  <PUBCHEM_MMFF94_PARTIAL_CHARGES>  (1) 
5
1 -0.16
2 -0.36
3 -0.01
4 0.27
5 0.27

>  <PUBCHEM_EFFECTIVE_ROTOR_COUNT>  (1) 
3

>  <PUBCHEM_PHARMACOPHORE_FEATURES>  (1) 
1
3 4 6 7 hydrophobe

>  <PUBCHEM_HEAVY_ATOM_COUNT>  (1) 
8

>  <PUBCHEM_ATOM_DEF_STEREO_COUNT>  (1) 
0

>  <PUBCHEM_ATOM_UDEF_STEREO_COUNT>  (1) 
0

>  <PUBCHEM_BOND_DEF_STEREO_COUNT>  (1) 
0

>  <PUBCHEM_BOND_UDEF_STEREO_COUNT>  (1) 
0

>  <PUBCHEM_ISOTOPIC_ATOM_COUNT>  (1) 
0

>  <PUBCHEM_COMPONENT_COUNT>  (1) 
1

>  <PUBCHEM_CACTVS_TAUTO_COUNT>  (1) 
1

>  <PUBCHEM_CONFORMER_ID>  (1) 
00006CB000000001

>  <PUBCHEM_MMFF94_ENERGY>  (1) 
11.6329

>  <PUBCHEM_FEATURE_SELFOVERLAP>  (1) 
5.074

>  <PUBCHEM_SHAPE_FINGERPRINT>  (1) 
137420 1 14141068058562381826
18185500 45 18269264682167352977
20096714 4 18341620286700897929
20653085 51 17416153709103140528
21040471 1 18190457345334540340
23552333 60 18338500989819787723
23552423 10 18410009892805495942
24536 1 17632006430243106669
29004967 10 17677909928042493856
5084963 1 18338514260936721932
5943 1 18055618539172337713

>  <PUBCHEM_SHAPE_MULTIPOLES>  (1) 
148.8
2.94
1.55
0.87
0.5
0.45
-0.03
-0.49
0.56
0.2
-0.31
-0.24
-0.03
-0.53

>  <PUBCHEM_SHAPE_SELFOVERLAP>  (1) 
269.626

>  <PUBCHEM_SHAPE_VOLUME>  (1) 
97.9

>  <PUBCHEM_COORDINATE_TYPE>  (1) 
2
5
10

$$$$
