27822
     RDKit          3D

 11 10  0  0  0  0  0  0  0  0999 V2000
   -3.8238   -1.6613   -0.1634 O   0  0  0  0  0  0  0  0  0  0  0  0
   -2.9988    0.2795   -0.2071 N   0  0  0  0  0  0  0  0  0  0  0  0
   -3.1946   -0.8231    0.4935 N   0  0  0  0  0  0  0  0  0  0  0  0
    0.7838    0.6231    0.0668 C   0  0  0  0  0  0  0  0  0  0  0  0
    1.9752   -0.3238   -0.1045 C   0  0  0  0  0  0  0  0  0  0  0  0
   -0.5693   -0.0493   -0.1793 C   0  0  0  0  0  0  0  0  0  0  0  0
    3.3304    0.3652    0.0688 C   0  0  0  0  0  0  0  0  0  0  0  0
   -1.7192    0.9338    0.0399 C   0  0  0  0  0  0  0  0  0  0  0  0
    4.4815   -0.6275   -0.1002 C   0  0  0  0  0  0  0  0  0  0  0  0
    5.8304    0.0440    0.1029 C   0  0  0  0  0  0  0  0  0  0  0  0
   -4.0956    1.2394   -0.0174 C   0  0  0  0  0  0  0  0  0  0  0  0
  1  3  2  0
  2  3  1  0
  2  8  1  0
  2 11  1  0
  4  5  1  0
  4  6  1  0
  5  7  1  0
  6  8  1  0
  7  9  1  0
  9 10  1  0
M  END
>  <PUBCHEM_COMPOUND_CID>  (1) 
27822

>  <PUBCHEM_CONFORMER_RMSD>  (1) 
0.8

>  <PUBCHEM_CONFORMER_DIVERSEORDER>  (1) 
1
84
6
125
100
111
30
103
8
118
75
121
117
83
120
45
14
12
108
62
2
122
15
126
104
29
132
43
70
97
110
64
56
127
89
112
96
133
102
50
85
22
129
39
23
44
4
105
19
67
113
49
60
119
26
123
92
7
106
13
124
73
24
47
34
74
35
87
33
46
78
80
20
115
86
21
18
51
52
109
94
82
130
41
63
66
28
9
76
10
36
25
69
55
134
27
68
93
107
131
17
42
71
88
59
65
57
5
79
38
54
58
32
98
116
77
95
99
3
53
114
11
101
16
72
40
37
48
128
61
31
91
81
90

>  <PUBCHEM_MMFF94_PARTIAL_CHARGES>  (1) 
5
1 -0.16
11 0.27
2 -0.36
3 -0.01
8 0.27

>  <PUBCHEM_EFFECTIVE_ROTOR_COUNT>  (1) 
7

>  <PUBCHEM_PHARMACOPHORE_FEATURES>  (1) 
2
1 10 hydrophobe
5 4 5 6 7 9 hydrophobe

>  <PUBCHEM_HEAVY_ATOM_COUNT>  (1) 
11

>  <PUBCHEM_ATOM_DEF_STEREO_COUNT>  (1) 
0

>  <PUBCHEM_ATOM_UDEF_STEREO_COUNT>  (1) 
0

>  <PUBCHEM_BOND_DEF_STEREO_COUNT>  (1) 
0

>  <PUBCHEM_BOND_UDEF_STEREO_COUNT>  (1) 
0

>  <PUBCHEM_ISOTOPIC_ATOM_COUNT>  (1) 
0

>  <PUBCHEM_COMPONENT_COUNT>  (1) 
1

>  <PUBCHEM_CACTVS_TAUTO_COUNT>  (1) 
1

>  <PUBCHEM_CONFORMER_ID>  (1) 
00006CAE00000001

>  <PUBCHEM_MMFF94_ENERGY>  (1) 
8.763

>  <PUBCHEM_FEATURE_SELFOVERLAP>  (1) 
10.149

>  <PUBCHEM_SHAPE_FINGERPRINT>  (1) 
10680689 15 17821730520164340181
11987891 38 18410857633888353542
12757275 245 18335703887947128619
14123238 8 18343301474982733276
14251718 22 18335704970747898348
14252887 29 17132123420641389958
15242439 84 18272084976679515240
17834072 33 18334861658145906412
17834076 25 16081370739104260324
190213 19 17917714586892394720
1986462 14 18408323284965542349
20279233 1 18060707169348699711
20645477 56 18261954038488102237
20645477 70 16844449315262507180
20719005 15 18410855465087754348
20828058 21 18412266134147978798
20828058 44 18411700980454308822
22485316 2 18335419037152100762
23402539 116 17894627046080036876
42788 4 18410855452144992588
57483677 66 18335137562608257642

>  <PUBCHEM_SHAPE_MULTIPOLES>  (1) 
210.54
11.75
1.17
0.62
8.88
0.23
0
0.87
-0.25
-1.48
0
0.02
0
0.1

>  <PUBCHEM_SHAPE_SELFOVERLAP>  (1) 
377.423

>  <PUBCHEM_SHAPE_VOLUME>  (1) 
137.8

>  <PUBCHEM_COORDINATE_TYPE>  (1) 
2
5
10

$$$$
