27829
     RDKit          3D

  7  6  0  0  0  0  0  0  0  0999 V2000
    3.2892   -0.1696   -0.1115 Cl  0  0  0  0  0  0  0  0  0  0  0  0
   -2.1032   -1.2461    0.2151 O   0  0  0  0  0  0  0  0  0  0  0  0
   -0.7051    0.3297    0.1597 N   0  0  0  0  0  0  0  0  0  0  0  0
   -1.3254   -0.6170   -0.5123 N   0  0  0  0  0  0  0  0  0  0  0  0
    0.6814    0.5595   -0.2701 C   0  0  0  0  0  0  0  0  0  0  0  0
    1.6049   -0.4533    0.3889 C   0  0  0  0  0  0  0  0  0  0  0  0
   -1.4417    1.5968    0.1301 C   0  0  0  0  0  0  0  0  0  0  0  0
  1  6  1  0
  2  4  2  0
  3  4  1  0
  3  5  1  0
  3  7  1  0
  5  6  1  0
M  END
>  <PUBCHEM_COMPOUND_CID>  (1) 
27829

>  <PUBCHEM_CONFORMER_RMSD>  (1) 
0.4

>  <PUBCHEM_CONFORMER_DIVERSEORDER>  (1) 
3
63
58
30
57
49
38
66
13
34
61
55
18
53
48
59
1
25
31
28
64
45
17
4
60
56
26
40
50
2
16
65
44
35
24
46
51
22
47
7
15
23
9
21
42
41
54
14
33
6
12
27
62
37
20
11
36
43
19
8
52
39
10
5
29
32

>  <PUBCHEM_MMFF94_PARTIAL_CHARGES>  (1) 
7
1 -0.29
2 -0.16
3 -0.36
4 -0.01
5 0.27
6 0.29
7 0.27

>  <PUBCHEM_EFFECTIVE_ROTOR_COUNT>  (1) 
3

>  <PUBCHEM_PHARMACOPHORE_FEATURES>  (1) 
0

>  <PUBCHEM_HEAVY_ATOM_COUNT>  (1) 
7

>  <PUBCHEM_ATOM_DEF_STEREO_COUNT>  (1) 
0

>  <PUBCHEM_ATOM_UDEF_STEREO_COUNT>  (1) 
0

>  <PUBCHEM_BOND_DEF_STEREO_COUNT>  (1) 
0

>  <PUBCHEM_BOND_UDEF_STEREO_COUNT>  (1) 
0

>  <PUBCHEM_ISOTOPIC_ATOM_COUNT>  (1) 
0

>  <PUBCHEM_COMPONENT_COUNT>  (1) 
1

>  <PUBCHEM_CACTVS_TAUTO_COUNT>  (1) 
1

>  <PUBCHEM_CONFORMER_ID>  (1) 
00006CB500000003

>  <PUBCHEM_MMFF94_ENERGY>  (1) 
11.4554

>  <PUBCHEM_FEATURE_SELFOVERLAP>  (1) 
0

>  <PUBCHEM_SHAPE_FINGERPRINT>  (1) 
12932741 1 17774991367805466824
14390081 3 18271800186447020576
16714656 1 18342739632640478334
21040471 1 18051974723109545969
23552423 10 18260267473164895492
29004967 10 18192428803942505059
5460574 1 9511463329586969350

>  <PUBCHEM_SHAPE_MULTIPOLES>  (1) 
130.1
3.99
1.29
0.66
3.11
0.15
-0.01
-0.49
-0.01
-1.07
0.05
0.06
0
-0.1

>  <PUBCHEM_SHAPE_SELFOVERLAP>  (1) 
223.372

>  <PUBCHEM_SHAPE_VOLUME>  (1) 
89.3

>  <PUBCHEM_COORDINATE_TYPE>  (1) 
2
5
10

$$$$
