27838
     RDKit          3D

 24 25  0  0  0  0  0  0  0  0999 V2000
    5.8412    0.0468   -0.3864 F   0  0  0  0  0  0  0  0  0  0  0  0
    4.4440    0.6898   -1.9157 F   0  0  0  0  0  0  0  0  0  0  0  0
    4.7431    1.9074   -0.1390 F   0  0  0  0  0  0  0  0  0  0  0  0
   -2.5128   -0.8189    0.2938 O   0  0  0  0  0  0  0  0  0  0  0  0
    0.0760    2.0507   -0.7448 O   0  0  0  0  0  0  0  0  0  0  0  0
   -3.4563   -3.9819   -1.1093 O   0  0  0  0  0  0  0  0  0  0  0  0
   -1.3981   -3.0776   -0.7436 O   0  0  0  0  0  0  0  0  0  0  0  0
   -0.1392    0.1499    0.6139 N   0  0  0  0  0  0  0  0  0  0  0  0
    1.1925   -0.3244    0.7042 C   0  0  0  0  0  0  0  0  0  0  0  0
   -2.0493    1.5211    0.0385 C   0  0  0  0  0  0  0  0  0  0  0  0
    3.5121   -0.1080    0.1377 C   0  0  0  0  0  0  0  0  0  0  0  0
    2.2011    0.3600    0.0479 C   0  0  0  0  0  0  0  0  0  0  0  0
   -2.9488    0.4705    0.2204 C   0  0  0  0  0  0  0  0  0  0  0  0
   -0.6197    1.2696   -0.0777 C   0  0  0  0  0  0  0  0  0  0  0  0
    1.4551   -1.4625    1.4476 C   0  0  0  0  0  0  0  0  0  0  0  0
    3.7945   -1.2531    0.8825 C   0  0  0  0  0  0  0  0  0  0  0  0
   -2.5160    2.8336   -0.0356 C   0  0  0  0  0  0  0  0  0  0  0  0
    2.7661   -1.9303    1.5374 C   0  0  0  0  0  0  0  0  0  0  0  0
   -4.3146    0.7325    0.3282 C   0  0  0  0  0  0  0  0  0  0  0  0
    4.6123    0.6164   -0.5623 C   0  0  0  0  0  0  0  0  0  0  0  0
   -3.8819    3.0954    0.0721 C   0  0  0  0  0  0  0  0  0  0  0  0
   -4.7812    2.0449    0.2540 C   0  0  0  0  0  0  0  0  0  0  0  0
   -3.4034   -1.8309   -0.1707 C   0  0  0  0  0  0  0  0  0  0  0  0
   -2.6166   -3.0008   -0.6932 C   0  0  0  0  0  0  0  0  0  0  0  0
  1 20  1  0
  2 20  1  0
  3 20  1  0
  4 13  1  0
  4 23  1  0
  5 14  2  0
  6 24  1  0
  7 24  2  0
  8  9  1  0
  8 14  1  0
  9 12  1  0
  9 15  2  0
 10 13  2  0
 10 14  1  0
 10 17  1  0
 11 12  2  0
 11 16  1  0
 11 20  1  0
 13 19  1  0
 15 18  1  0
 16 18  2  0
 17 21  2  0
 19 22  2  0
 21 22  1  0
 23 24  1  0
M  END
>  <PUBCHEM_COMPOUND_CID>  (1) 
27838

>  <PUBCHEM_CONFORMER_RMSD>  (1) 
0.8

>  <PUBCHEM_CONFORMER_DIVERSEORDER>  (1) 
3
76
84
14
68
77
6
4
27
16
78
75
80
19
48
25
65
79
70
33
10
21
67
47
29
38
31
85
55
7
91
11
51
42
81
28
32
62
23
61
44
12
54
34
36
2
15
56
92
82
30
49
41
40
17
52
39
60
8
18
87
22
69
57
72
74
37
35
53
1
46
64
24
9
73
43
59
58
45
50
88
5
13
83
86
63
71
20
89
66
26
90

>  <PUBCHEM_MMFF94_PARTIAL_CHARGES>  (1) 
34
1 -0.34
10 0.09
11 -0.14
12 -0.15
13 0.08
14 0.54
15 -0.15
16 -0.15
17 -0.15
18 -0.15
19 -0.15
2 -0.34
20 1.16
21 -0.15
22 -0.15
23 0.34
24 0.66
25 0.15
26 0.37
27 0.15
28 0.15
29 0.15
3 -0.34
30 0.15
31 0.15
32 0.15
33 0.15
36 0.5
4 -0.36
5 -0.57
6 -0.65
7 -0.57
8 -0.55
9 0.12

>  <PUBCHEM_EFFECTIVE_ROTOR_COUNT>  (1) 
7

>  <PUBCHEM_PHARMACOPHORE_FEATURES>  (1) 
8
1 4 acceptor
1 5 acceptor
1 6 acceptor
1 7 acceptor
1 8 donor
3 6 7 24 anion
6 10 13 17 19 21 22 rings
6 9 11 12 15 16 18 rings

>  <PUBCHEM_HEAVY_ATOM_COUNT>  (1) 
24

>  <PUBCHEM_ATOM_DEF_STEREO_COUNT>  (1) 
0

>  <PUBCHEM_ATOM_UDEF_STEREO_COUNT>  (1) 
0

>  <PUBCHEM_BOND_DEF_STEREO_COUNT>  (1) 
0

>  <PUBCHEM_BOND_UDEF_STEREO_COUNT>  (1) 
0

>  <PUBCHEM_ISOTOPIC_ATOM_COUNT>  (1) 
0

>  <PUBCHEM_COMPONENT_COUNT>  (1) 
1

>  <PUBCHEM_CACTVS_TAUTO_COUNT>  (1) 
2

>  <PUBCHEM_CONFORMER_ID>  (1) 
00006CBE00000003

>  <PUBCHEM_MMFF94_ENERGY>  (1) 
68.2718

>  <PUBCHEM_FEATURE_SELFOVERLAP>  (1) 
40.659

>  <PUBCHEM_SHAPE_FINGERPRINT>  (1) 
10366900 7 17131828725122437025
10369192 42 16625155316396977840
10411042 1 17980197814407998751
10616163 171 18411136943821875347
10871710 139 18408885174431754715
10906281 52 18192440663260507945
11014199 57 17835239326393188067
12107183 9 17107902033468548112
12173636 292 18196640801229683441
12553582 1 18194109940327082595
12616971 3 17894905192604799394
12788726 201 18337382842450942131
13167823 11 18260829241870389952
13631057 29 18269270338676347994
13760787 19 18335984186060206016
138480 1 16828121366117499031
14251757 5 18343866623590249091
14790565 3 18196376918528987081
15250474 111 18336532859595771618
15415430 112 18412262856655486659
15484559 13 15004957428292862284
15842332 3 18115286913419315546
18785283 64 17475521573646959337
19319366 153 17968375645935968779
20511986 3 17968083201386183393
21634736 98 18120369010717960062
21781055 127 17628075585837037744
22393880 68 18412826902242215360
22620623 9 18201445821424322262
22907989 373 18339059563312545103
23559900 14 17912648999268434494
23728640 28 18340481189124426483
25147074 1 18114170922597818338
338550 245 18264487295951195594
34797466 226 17917999381853094660
34934 24 18114462271261198033
474 4 17313397707721124216
5104073 3 17968944067472445288
633830 44 17531253829267812978

>  <PUBCHEM_SHAPE_MULTIPOLES>  (1) 
443.63
10.91
3.85
1.1
7.85
2.91
0.04
-3.89
1.17
-5.23
1.14
0.95
0.46
-2.26

>  <PUBCHEM_SHAPE_SELFOVERLAP>  (1) 
955.719

>  <PUBCHEM_SHAPE_VOLUME>  (1) 
244

>  <PUBCHEM_COORDINATE_TYPE>  (1) 
2
5
10

$$$$
