27830
     RDKit          3D

  9  8  0  0  0  0  0  0  0  0999 V2000
    0.1967   -2.3155    0.7983 O   0  0  0  0  0  0  0  0  0  0  0  0
   -0.0041   -0.4606   -0.1810 N   0  0  0  0  0  0  0  0  0  0  0  0
    0.5086   -1.6725   -0.2111 N   0  0  0  0  0  0  0  0  0  0  0  0
    2.8470    1.3231    0.5866 N   0  0  0  0  0  0  0  0  0  0  0  0
   -2.7923    1.4138    0.6128 N   0  0  0  0  0  0  0  0  0  0  0  0
    0.8351    0.5083   -0.8926 C   0  0  0  0  0  0  0  0  0  0  0  0
   -1.3814   -0.3802   -0.6875 C   0  0  0  0  0  0  0  0  0  0  0  0
    1.9574    0.9619   -0.0652 C   0  0  0  0  0  0  0  0  0  0  0  0
   -2.1672    0.6217    0.0396 C   0  0  0  0  0  0  0  0  0  0  0  0
  1  3  2  0
  2  3  1  0
  2  6  1  0
  2  7  1  0
  4  8  3  0
  5  9  3  0
  6  8  1  0
  7  9  1  0
M  END
>  <PUBCHEM_COMPOUND_CID>  (1) 
27830

>  <PUBCHEM_CONFORMER_RMSD>  (1) 
0.6

>  <PUBCHEM_CONFORMER_DIVERSEORDER>  (1) 
3
26
25
21
22
1
2
6
7
13
20
18
8
4
9
10
27
11
12
19
23
5
15
17
16
14
24

>  <PUBCHEM_MMFF94_PARTIAL_CHARGES>  (1) 
9
1 -0.16
2 -0.36
3 -0.01
4 -0.56
5 -0.56
6 0.47
7 0.47
8 0.36
9 0.36

>  <PUBCHEM_EFFECTIVE_ROTOR_COUNT>  (1) 
3

>  <PUBCHEM_PHARMACOPHORE_FEATURES>  (1) 
2
1 4 acceptor
1 5 acceptor

>  <PUBCHEM_HEAVY_ATOM_COUNT>  (1) 
9

>  <PUBCHEM_ATOM_DEF_STEREO_COUNT>  (1) 
0

>  <PUBCHEM_ATOM_UDEF_STEREO_COUNT>  (1) 
0

>  <PUBCHEM_BOND_DEF_STEREO_COUNT>  (1) 
0

>  <PUBCHEM_BOND_UDEF_STEREO_COUNT>  (1) 
0

>  <PUBCHEM_ISOTOPIC_ATOM_COUNT>  (1) 
0

>  <PUBCHEM_COMPONENT_COUNT>  (1) 
1

>  <PUBCHEM_CACTVS_TAUTO_COUNT>  (1) 
1

>  <PUBCHEM_CONFORMER_ID>  (1) 
00006CB600000003

>  <PUBCHEM_MMFF94_ENERGY>  (1) 
17.1607

>  <PUBCHEM_FEATURE_SELFOVERLAP>  (1) 
10.149

>  <PUBCHEM_SHAPE_FINGERPRINT>  (1) 
14390081 3 18131354098511094253
170605 34 18202287978812025917
20653085 51 17560254620586196668
21040471 1 18336275642430045444
23552449 1 17549820431331962902
305870 269 18337105674803617896

>  <PUBCHEM_SHAPE_MULTIPOLES>  (1) 
159.42
3.59
1.94
0.86
0.03
1.17
-0.06
-2.73
0.79
-0.12
0.58
-0.01
0.02
-0.16

>  <PUBCHEM_SHAPE_SELFOVERLAP>  (1) 
299.333

>  <PUBCHEM_SHAPE_VOLUME>  (1) 
95.7

>  <PUBCHEM_COORDINATE_TYPE>  (1) 
2
5
10

$$$$
