27832
     RDKit          3D

 12 12  0  0  1  0  0  0  0  0999 V2000
    0.9382    1.9538    1.0818 O   0  0  0  0  0  0  0  0  0  0  0  0
    1.8444   -1.5712    0.6413 O   0  0  0  0  0  0  0  0  0  0  0  0
    3.2772   -0.5121   -1.4996 O   0  0  0  0  0  0  0  0  0  0  0  0
    0.7330    0.5390    1.1044 C   0  0  0  0  0  0  0  0  0  0  0  0
    1.9501   -0.1565    0.4671 C   0  0  0  0  0  0  0  0  0  0  0  0
   -0.5985    0.2212    0.4581 C   0  0  0  0  0  0  0  0  0  0  0  0
    2.1131    0.1531   -1.0187 C   0  0  0  0  0  0  0  0  0  0  0  0
   -1.0514    1.0152   -0.5811 C   0  0  0  0  0  0  0  0  0  0  0  0
   -1.3339   -0.8560    0.9209 C   0  0  0  0  0  0  0  0  0  0  0  0
   -2.2784    0.7224   -1.1764 C   0  0  0  0  0  0  0  0  0  0  0  0
   -2.5607   -1.1489    0.3254 C   0  0  0  0  0  0  0  0  0  0  0  0
   -3.0330   -0.3598   -0.7233 C   0  0  0  0  0  0  0  0  0  0  0  0
  1  4  1  0
  2  5  1  0
  3  7  1  0
  4  5  1  0
  4  6  1  0
  5  7  1  0
  6  8  2  0
  6  9  1  0
  8 10  1  0
  9 11  2  0
 10 12  2  0
 11 12  1  0
M  END
>  <PUBCHEM_COMPOUND_CID>  (1) 
27832

>  <PUBCHEM_CONFORMER_RMSD>  (1) 
0.6

>  <PUBCHEM_CONFORMER_DIVERSEORDER>  (1) 
5
9
11
19
17
3
8
6
2
10
15
13
7
14
18
1
12
4
16

>  <PUBCHEM_MMFF94_PARTIAL_CHARGES>  (1) 
20
1 -0.68
10 -0.15
11 -0.15
12 -0.15
17 0.15
18 0.15
19 0.4
2 -0.68
20 0.4
21 0.15
22 0.15
23 0.15
24 0.4
3 -0.68
4 0.42
5 0.28
6 -0.14
7 0.28
8 -0.15
9 -0.15

>  <PUBCHEM_EFFECTIVE_ROTOR_COUNT>  (1) 
3

>  <PUBCHEM_PHARMACOPHORE_FEATURES>  (1) 
7
1 1 acceptor
1 1 donor
1 2 acceptor
1 2 donor
1 3 acceptor
1 3 donor
6 6 8 9 10 11 12 rings

>  <PUBCHEM_HEAVY_ATOM_COUNT>  (1) 
12

>  <PUBCHEM_ATOM_DEF_STEREO_COUNT>  (1) 
0

>  <PUBCHEM_ATOM_UDEF_STEREO_COUNT>  (1) 
2

>  <PUBCHEM_BOND_DEF_STEREO_COUNT>  (1) 
0

>  <PUBCHEM_BOND_UDEF_STEREO_COUNT>  (1) 
0

>  <PUBCHEM_ISOTOPIC_ATOM_COUNT>  (1) 
0

>  <PUBCHEM_COMPONENT_COUNT>  (1) 
1

>  <PUBCHEM_CACTVS_TAUTO_COUNT>  (1) 
1

>  <PUBCHEM_CONFORMER_ID>  (1) 
00006CB800000005

>  <PUBCHEM_MMFF94_ENERGY>  (1) 
29.7681

>  <PUBCHEM_FEATURE_SELFOVERLAP>  (1) 
35.53

>  <PUBCHEM_SHAPE_FINGERPRINT>  (1) 
12251169 10 11887951042789885614
12326174 3 17845357994421790336
12423570 1 12640955347737615777
12897270 3 17822301222533574966
12932764 1 18409724093134308723
13299463 15 18187655725066062914
13571099 52 7925646461783447399
16945 1 18114183050994351753
17357990 137 16082193105082509605
20201158 50 18338782481601977235
20361792 2 17632859698426446580
20645476 183 16226592023451836267
20653085 51 16588588574264680965
20711985 344 17700702757068639936
21028194 46 12179848298815394032
22445834 79 14549024260062715919
22802520 49 18040156192965834819
230 275 11025788778209557450
23552423 10 17241031112055240739
23559900 14 18120632675341176546
2748010 2 17174905649637194339
305870 269 12685081605708580148
369184 2 13110956531279935723
5084963 1 17532633681763335393
81228 2 17629202611183963488

>  <PUBCHEM_SHAPE_MULTIPOLES>  (1) 
229.35
4.5
1.42
1.32
0.32
0.15
-0.37
-0.26
2.14
-0.31
0.12
0.87
-0.27
-0.08

>  <PUBCHEM_SHAPE_SELFOVERLAP>  (1) 
468.202

>  <PUBCHEM_SHAPE_VOLUME>  (1) 
132.8

>  <PUBCHEM_COORDINATE_TYPE>  (1) 
2
5
10

$$$$
