27837
     RDKit          3D

 25 26  0  0  0  0  0  0  0  0999 V2000
    5.9958   -0.5151    0.3851 F   0  0  0  0  0  0  0  0  0  0  0  0
    4.5381   -1.0064    1.9142 F   0  0  0  0  0  0  0  0  0  0  0  0
    4.7040   -2.2466    0.1356 F   0  0  0  0  0  0  0  0  0  0  0  0
   -2.2156    1.2439   -0.2930 O   0  0  0  0  0  0  0  0  0  0  0  0
    0.0487   -1.8884    0.7437 O   0  0  0  0  0  0  0  0  0  0  0  0
   -2.8128    4.4914    1.1073 O   0  0  0  0  0  0  0  0  0  0  0  0
   -0.8641    3.3696    0.7441 O   0  0  0  0  0  0  0  0  0  0  0  0
    0.0385    0.0264   -0.6123 N   0  0  0  0  0  0  0  0  0  0  0  0
   -2.0077   -1.1324   -0.0379 C   0  0  0  0  0  0  0  0  0  0  0  0
   -2.7884    0.0093   -0.2192 C   0  0  0  0  0  0  0  0  0  0  0  0
   -3.9993   -2.4998   -0.0741 C   0  0  0  0  0  0  0  0  0  0  0  0
   -2.6132   -2.3870    0.0346 C   0  0  0  0  0  0  0  0  0  0  0  0
    1.4134    0.3550   -0.7028 C   0  0  0  0  0  0  0  0  0  0  0  0
   -0.5592   -1.0361    0.0779 C   0  0  0  0  0  0  0  0  0  0  0  0
   -4.1745   -0.1038   -0.3280 C   0  0  0  0  0  0  0  0  0  0  0  0
   -4.7800   -1.3583   -0.2554 C   0  0  0  0  0  0  0  0  0  0  0  0
    3.6966   -0.1103   -0.1377 C   0  0  0  0  0  0  0  0  0  0  0  0
    2.3430   -0.4347   -0.0479 C   0  0  0  0  0  0  0  0  0  0  0  0
    1.7965    1.4594   -1.4447 C   0  0  0  0  0  0  0  0  0  0  0  0
   -4.6470   -3.8409    0.0025 C   0  0  0  0  0  0  0  0  0  0  0  0
    4.1001    0.9990   -0.8810 C   0  0  0  0  0  0  0  0  0  0  0  0
    3.1501    1.7838   -1.5345 C   0  0  0  0  0  0  0  0  0  0  0  0
    4.7127   -0.9496    0.5607 C   0  0  0  0  0  0  0  0  0  0  0  0
   -2.9920    2.3466    0.1701 C   0  0  0  0  0  0  0  0  0  0  0  0
   -2.0837    3.4249    0.6926 C   0  0  0  0  0  0  0  0  0  0  0  0
  1 23  1  0
  2 23  1  0
  3 23  1  0
  4 10  1  0
  4 24  1  0
  5 14  2  0
  6 25  1  0
  7 25  2  0
  8 13  1  0
  8 14  1  0
  9 10  2  0
  9 12  1  0
  9 14  1  0
 10 15  1  0
 11 12  2  0
 11 16  1  0
 11 20  1  0
 13 18  1  0
 13 19  2  0
 15 16  2  0
 17 18  2  0
 17 21  1  0
 17 23  1  0
 19 22  1  0
 21 22  2  0
 24 25  1  0
M  END
>  <PUBCHEM_COMPOUND_CID>  (1) 
27837

>  <PUBCHEM_CONFORMER_RMSD>  (1) 
0.8

>  <PUBCHEM_CONFORMER_DIVERSEORDER>  (1) 
3
80
40
68
39
37
27
81
38
53
84
92
13
32
86
25
91
12
77
46
45
9
14
56
82
26
33
99
35
90
59
36
42
70
58
75
63
19
64
52
55
67
21
1
31
4
8
94
61
2
62
72
87
65
98
85
48
47
20
18
74
11
88
15
97
7
44
50
49
51
30
54
17
5
93
23
16
29
89
57
78
10
66
76
71
22
43
83
60
96
79
69
24
28
95
73
34
6
41

>  <PUBCHEM_MMFF94_PARTIAL_CHARGES>  (1) 
34
1 -0.34
10 0.08
11 -0.14
12 -0.15
13 0.12
14 0.54
15 -0.15
16 -0.15
17 -0.14
18 -0.15
19 -0.15
2 -0.34
20 0.14
21 -0.15
22 -0.15
23 1.16
24 0.34
25 0.66
26 0.15
27 0.37
28 0.15
29 0.15
3 -0.34
30 0.15
31 0.15
32 0.15
36 0.15
39 0.5
4 -0.36
5 -0.57
6 -0.65
7 -0.57
8 -0.55
9 0.09

>  <PUBCHEM_EFFECTIVE_ROTOR_COUNT>  (1) 
7

>  <PUBCHEM_PHARMACOPHORE_FEATURES>  (1) 
8
1 4 acceptor
1 5 acceptor
1 6 acceptor
1 7 acceptor
1 8 donor
3 6 7 25 anion
6 13 17 18 19 21 22 rings
6 9 10 11 12 15 16 rings

>  <PUBCHEM_HEAVY_ATOM_COUNT>  (1) 
25

>  <PUBCHEM_ATOM_DEF_STEREO_COUNT>  (1) 
0

>  <PUBCHEM_ATOM_UDEF_STEREO_COUNT>  (1) 
0

>  <PUBCHEM_BOND_DEF_STEREO_COUNT>  (1) 
0

>  <PUBCHEM_BOND_UDEF_STEREO_COUNT>  (1) 
0

>  <PUBCHEM_ISOTOPIC_ATOM_COUNT>  (1) 
0

>  <PUBCHEM_COMPONENT_COUNT>  (1) 
1

>  <PUBCHEM_CACTVS_TAUTO_COUNT>  (1) 
2

>  <PUBCHEM_CONFORMER_ID>  (1) 
00006CBD00000003

>  <PUBCHEM_MMFF94_ENERGY>  (1) 
70.8733

>  <PUBCHEM_FEATURE_SELFOVERLAP>  (1) 
40.659

>  <PUBCHEM_SHAPE_FINGERPRINT>  (1) 
1100329 8 18340778113288833633
11036077 51 18266742368560764449
12107183 9 17903916652525308770
12166972 35 17895474846896584005
12403259 226 18120086441252517895
12788726 201 18338530736351784252
12892183 10 18342727517133627306
13009979 54 18334583451059098196
13140716 1 18339646749834748673
13167823 11 18188488089686492398
13533116 47 18115869774956931294
13583140 156 17417797419189153430
138480 1 15961188264644252465
14178342 30 18338234843439211118
14739800 52 18269270330899628320
14866123 147 17904479602357689714
15196674 1 18187927338819325015
15256400 18 18267306430684063542
15420108 30 17686896125044586841
15442244 35 18333453119130926708
15842332 3 18042991855124450164
17349148 13 18261393372908513326
17492 89 18408889555145740806
17818456 19 18338235968678087204
20642791 105 18335977563606244517
20775438 99 16826975172374892255
21033648 29 17417512637119176466
23366157 5 17402047194436457597
23402539 116 18342452673396855879
23557571 272 18060424573037618229
23558518 356 18263659401821872694
23559900 14 18336823212311418308
23598288 3 18413385449812045343
25147074 1 18114475500245818684
3004659 81 18114176488527403822
312423 11 18113913675067179614
4214541 1 18333729117560260726
5104073 3 18335142054547781955
67856867 119 18189333644609300108
6913067 236 17561358517591847423
7164475 11 18411143536770273980
9981440 41 17906180555742048321

>  <PUBCHEM_SHAPE_MULTIPOLES>  (1) 
464.21
11.41
4.36
1.08
7.62
3.96
0.03
-7.71
0.61
-5.61
1.56
1.06
0.4
-2.12

>  <PUBCHEM_SHAPE_SELFOVERLAP>  (1) 
997.723

>  <PUBCHEM_SHAPE_VOLUME>  (1) 
256.7

>  <PUBCHEM_COORDINATE_TYPE>  (1) 
2
5
10

$$$$
