27831
     RDKit          3D

 12 13  0  0  0  0  0  0  0  0999 V2000
    1.9925   -1.3706    0.0000 O   0  0  0  0  0  0  0  0  0  0  0  0
   -0.2401    2.0587    0.0000 N   0  0  0  0  0  0  0  0  0  0  0  0
    1.8871    0.9266    0.0000 N   0  0  0  0  0  0  0  0  0  0  0  0
   -0.1724   -0.3385    0.0001 C   0  0  0  0  0  0  0  0  0  0  0  0
   -0.8786    0.8754    0.0001 C   0  0  0  0  0  0  0  0  0  0  0  0
    1.2162   -0.2406    0.0000 C   0  0  0  0  0  0  0  0  0  0  0  0
   -0.8506   -1.5698    0.0000 C   0  0  0  0  0  0  0  0  0  0  0  0
   -2.2701    0.8178    0.0000 C   0  0  0  0  0  0  0  0  0  0  0  0
   -2.2417   -1.5981    0.0000 C   0  0  0  0  0  0  0  0  0  0  0  0
   -2.9519   -0.4027   -0.0001 C   0  0  0  0  0  0  0  0  0  0  0  0
    1.1079    2.0200   -0.0001 C   0  0  0  0  0  0  0  0  0  0  0  0
    3.4018   -1.1781    0.0000 C   0  0  0  0  0  0  0  0  0  0  0  0
  1  6  1  0
  1 12  1  0
  2  5  2  0
  2 11  1  0
  3  6  1  0
  3 11  2  0
  4  5  1  0
  4  6  2  0
  4  7  1  0
  5  8  1  0
  7  9  2  0
  8 10  2  0
  9 10  1  0
M  END
>  <PUBCHEM_COMPOUND_CID>  (1) 
27831

>  <PUBCHEM_CONFORMER_RMSD>  (1) 
0.4

>  <PUBCHEM_CONFORMER_DIVERSEORDER>  (1) 
1
2
3

>  <PUBCHEM_MMFF94_PARTIAL_CHARGES>  (1) 
16
1 -0.36
10 -0.15
11 0.47
12 0.28
13 0.15
14 0.15
15 0.15
16 0.15
17 0.15
2 -0.62
3 -0.62
5 0.31
6 0.39
7 -0.15
8 -0.15
9 -0.15

>  <PUBCHEM_EFFECTIVE_ROTOR_COUNT>  (1) 
1

>  <PUBCHEM_PHARMACOPHORE_FEATURES>  (1) 
3
3 2 3 11 cation
6 2 3 4 5 6 11 rings
6 4 5 7 8 9 10 rings

>  <PUBCHEM_HEAVY_ATOM_COUNT>  (1) 
12

>  <PUBCHEM_ATOM_DEF_STEREO_COUNT>  (1) 
0

>  <PUBCHEM_ATOM_UDEF_STEREO_COUNT>  (1) 
0

>  <PUBCHEM_BOND_DEF_STEREO_COUNT>  (1) 
0

>  <PUBCHEM_BOND_UDEF_STEREO_COUNT>  (1) 
0

>  <PUBCHEM_ISOTOPIC_ATOM_COUNT>  (1) 
0

>  <PUBCHEM_COMPONENT_COUNT>  (1) 
1

>  <PUBCHEM_CACTVS_TAUTO_COUNT>  (1) 
1

>  <PUBCHEM_CONFORMER_ID>  (1) 
00006CB700000001

>  <PUBCHEM_MMFF94_ENERGY>  (1) 
39.5191

>  <PUBCHEM_FEATURE_SELFOVERLAP>  (1) 
15.255

>  <PUBCHEM_SHAPE_FINGERPRINT>  (1) 
12032990 46 18410580565073412899
12423570 1 16477430491100954004
12524768 44 18411418448915812279
14128692 85 18410578387682840188
16945 1 18338798896977362915
17990270 104 18265329684554398827
193761 8 18194402418682301607
19973954 147 18338237188464630019
20645477 70 18193830673201042855
20871998 184 18129377112111122718
20871998 22 18270972249611559830
21040471 1 17041762560687625637
21501502 16 18339646753744581013
2334 1 18338797934830842087
23463225 33 18410013221515906982
23552423 10 18190462842655185535
23559900 14 18196929969136295526
241688 4 18409165480749749009
2748010 2 18410570716739380773
5084963 1 18273493459838515963
528886 8 18267579113809815867
63268167 104 18338520849574569201
7364860 26 18270962482956006008

>  <PUBCHEM_SHAPE_MULTIPOLES>  (1) 
231.12
4.17
2.15
0.59
1.03
0.54
0
-1.74
0
0.36
0
-0.03
-0.01
0

>  <PUBCHEM_SHAPE_SELFOVERLAP>  (1) 
504.301

>  <PUBCHEM_SHAPE_VOLUME>  (1) 
124.4

>  <PUBCHEM_COORDINATE_TYPE>  (1) 
2
5
10

$$$$
