27841
     RDKit          3D

 18 20  0  0  0  0  0  0  0  0999 V2000
    5.4589    0.4670   -0.1790 N   0  0  0  0  0  0  0  0  0  0  0  0
   -1.9654    0.1793   -0.1130 C   0  0  0  0  0  0  0  0  0  0  0  0
   -0.9803   -0.8022   -0.3097 C   0  0  0  0  0  0  0  0  0  0  0  0
   -3.3103   -0.2184    0.0763 C   0  0  0  0  0  0  0  0  0  0  0  0
   -1.6453    1.5466   -0.1001 C   0  0  0  0  0  0  0  0  0  0  0  0
   -1.3163   -2.1564   -0.3193 C   0  0  0  0  0  0  0  0  0  0  0  0
   -3.6306   -1.5858    0.0631 C   0  0  0  0  0  0  0  0  0  0  0  0
   -4.2955    0.7629    0.2727 C   0  0  0  0  0  0  0  0  0  0  0  0
    0.4309   -0.4810   -0.5123 C   0  0  0  0  0  0  0  0  0  0  0  0
   -2.6390   -2.5475   -0.1336 C   0  0  0  0  0  0  0  0  0  0  0  0
   -2.6369    2.5081    0.0967 C   0  0  0  0  0  0  0  0  0  0  0  0
   -3.9596    2.1170    0.2829 C   0  0  0  0  0  0  0  0  0  0  0  0
    1.3505   -0.4005    0.4742 C   0  0  0  0  0  0  0  0  0  0  0  0
    2.7365   -0.1083    0.2537 C   0  0  0  0  0  0  0  0  0  0  0  0
    3.1607    0.5136   -0.9279 C   0  0  0  0  0  0  0  0  0  0  0  0
    3.7019   -0.4368    1.2143 C   0  0  0  0  0  0  0  0  0  0  0  0
    4.5113    0.7752   -1.0927 C   0  0  0  0  0  0  0  0  0  0  0  0
    5.0284   -0.1326    0.9536 C   0  0  0  0  0  0  0  0  0  0  0  0
  1 17  2  0
  1 18  1  0
  2  3  1  0
  2  4  1  0
  2  5  2  0
  3  6  2  0
  3  9  1  0
  4  7  1  0
  4  8  2  0
  5 11  1  0
  6 10  1  0
  7 10  2  0
  8 12  1  0
  9 13  2  0
 11 12  2  0
 13 14  1  0
 14 15  2  0
 14 16  1  0
 15 17  1  0
 16 18  2  0
M  END
>  <PUBCHEM_COMPOUND_CID>  (1) 
27841

>  <PUBCHEM_CONFORMER_RMSD>  (1) 
0.6

>  <PUBCHEM_CONFORMER_DIVERSEORDER>  (1) 
1
2

>  <PUBCHEM_MMFF94_PARTIAL_CHARGES>  (1) 
29
1 -0.62
10 -0.15
11 -0.15
12 -0.15
13 -0.18
14 0.03
15 -0.15
16 -0.15
17 0.16
18 0.16
19 0.15
20 0.15
21 0.15
22 0.15
23 0.15
24 0.15
25 0.15
26 0.15
27 0.15
28 0.15
29 0.15
3 0.03
30 0.15
31 0.15
5 -0.15
6 -0.15
7 -0.15
8 -0.15
9 -0.18

>  <PUBCHEM_EFFECTIVE_ROTOR_COUNT>  (1) 
2

>  <PUBCHEM_PHARMACOPHORE_FEATURES>  (1) 
4
1 1 acceptor
6 1 14 15 16 17 18 rings
6 2 3 4 6 7 10 rings
6 2 4 5 8 11 12 rings

>  <PUBCHEM_HEAVY_ATOM_COUNT>  (1) 
18

>  <PUBCHEM_ATOM_DEF_STEREO_COUNT>  (1) 
0

>  <PUBCHEM_ATOM_UDEF_STEREO_COUNT>  (1) 
0

>  <PUBCHEM_BOND_DEF_STEREO_COUNT>  (1) 
0

>  <PUBCHEM_BOND_UDEF_STEREO_COUNT>  (1) 
1

>  <PUBCHEM_ISOTOPIC_ATOM_COUNT>  (1) 
0

>  <PUBCHEM_COMPONENT_COUNT>  (1) 
1

>  <PUBCHEM_CACTVS_TAUTO_COUNT>  (1) 
1

>  <PUBCHEM_CONFORMER_ID>  (1) 
00006CC100000001

>  <PUBCHEM_MMFF94_ENERGY>  (1) 
61.9808

>  <PUBCHEM_FEATURE_SELFOVERLAP>  (1) 
20.324

>  <PUBCHEM_SHAPE_FINGERPRINT>  (1) 
10319926 262 18199447970948835946
10411042 1 17979635964082295175
10493431 412 18198915721390348193
10616163 171 18410294739432195814
10912923 1 17967529104008738010
11315181 36 18187079598659340630
11552529 35 17169003350638709306
12107183 9 17829599566302781650
12173636 292 18340763741689262767
12236239 1 17894911840728876486
12390115 104 17986686887258576105
12403814 3 17749106669385867909
12596602 18 17385729105597008177
12788726 201 18044387259633735138
13140716 1 18267871769024189579
13167823 11 18260264153424467586
13583140 156 17774993605610210310
13897977 58 18335424577317118749
14386348 63 17275108344828185606
14420673 8 18048594820725722386
14508225 48 18055617659405740591
14739800 52 18194394727245967336
15042514 8 18338802346454098579
15806764 133 17631741576990447752
1741750 31 18271244915499173795
17804303 29 18271243923467405377
17844677 252 18341900731534122264
18186145 218 16415476056361114230
18915476 22 16772966808602962031
19050596 39 18113898273467371850
200 152 17022893592566855095
20510252 161 18271812289717257579
20645477 56 18342459222699528057
20645477 70 15068884357824958290
21033648 29 17274809269133492874
21065198 48 18259700103959223498
21065201 7 18272370893180073502
22224240 67 18271816684038780345
2297311 6 18270974538755074254
2306618 200 18130796680675828979
23175994 123 16773801423779972641
23402539 116 18342729754775009999
23557571 272 18130239223568600804
23559900 14 18201167542462338942
3268164 11 18059564811021735877
3545911 37 18342179934177578230
38570 142 17170147887315802756
4214541 1 18410855451970789356
474 4 17385731335048894860
5104073 3 18333725832479725720
573450 72 18335129904306873242
7064713 232 18337675196047030853
7097593 13 18043234757015595586
77779 3 18409730673193024174
9981440 41 18337111151530648467

>  <PUBCHEM_SHAPE_MULTIPOLES>  (1) 
365.45
10.9
2.29
0.92
11.78
0.09
-0.03
-2.64
-0.94
-3.73
0.08
1
-0.02
-0.77

>  <PUBCHEM_SHAPE_SELFOVERLAP>  (1) 
809.233

>  <PUBCHEM_SHAPE_VOLUME>  (1) 
194

>  <PUBCHEM_COORDINATE_TYPE>  (1) 
2
5
10

$$$$
