27840
     RDKit          3D

 11 11  0  0  0  0  0  0  0  0999 V2000
    0.8389    2.3130    0.0010 O   0  0  0  0  0  0  0  0  0  0  0  0
    0.8377   -2.3133    0.0009 O   0  0  0  0  0  0  0  0  0  0  0  0
    0.8881   -0.0003   -0.0010 N   0  0  0  0  0  0  0  0  0  0  0  0
   -1.1903   -1.1995   -0.0002 N   0  0  0  0  0  0  0  0  0  0  0  0
   -1.1896    1.2001   -0.0003 N   0  0  0  0  0  0  0  0  0  0  0  0
   -3.2050    0.0007    0.0007 N   0  0  0  0  0  0  0  0  0  0  0  0
    0.1509    1.1221   -0.0009 C   0  0  0  0  0  0  0  0  0  0  0  0
    0.1503   -1.1221   -0.0008 C   0  0  0  0  0  0  0  0  0  0  0  0
   -1.7930    0.0004    0.0000 C   0  0  0  0  0  0  0  0  0  0  0  0
    2.2566    2.2272    0.0003 C   0  0  0  0  0  0  0  0  0  0  0  0
    2.2556   -2.2283    0.0003 C   0  0  0  0  0  0  0  0  0  0  0  0
  1  7  1  0
  1 10  1  0
  2  8  1  0
  2 11  1  0
  3  7  2  0
  3  8  1  0
  4  8  2  0
  4  9  1  0
  5  7  1  0
  5  9  2  0
  6  9  1  0
M  END
>  <PUBCHEM_COMPOUND_CID>  (1) 
27840

>  <PUBCHEM_CONFORMER_RMSD>  (1) 
0.4

>  <PUBCHEM_CONFORMER_DIVERSEORDER>  (1) 
1
2
3

>  <PUBCHEM_MMFF94_PARTIAL_CHARGES>  (1) 
13
1 -0.36
10 0.28
11 0.28
18 0.4
19 0.4
2 -0.36
3 -0.62
4 -0.62
5 -0.62
6 -0.9
7 0.7
8 0.7
9 0.72

>  <PUBCHEM_EFFECTIVE_ROTOR_COUNT>  (1) 
2

>  <PUBCHEM_PHARMACOPHORE_FEATURES>  (1) 
3
1 6 donor
4 4 5 6 9 cation
6 3 4 5 7 8 9 rings

>  <PUBCHEM_HEAVY_ATOM_COUNT>  (1) 
11

>  <PUBCHEM_ATOM_DEF_STEREO_COUNT>  (1) 
0

>  <PUBCHEM_ATOM_UDEF_STEREO_COUNT>  (1) 
0

>  <PUBCHEM_BOND_DEF_STEREO_COUNT>  (1) 
0

>  <PUBCHEM_BOND_UDEF_STEREO_COUNT>  (1) 
0

>  <PUBCHEM_ISOTOPIC_ATOM_COUNT>  (1) 
0

>  <PUBCHEM_COMPONENT_COUNT>  (1) 
1

>  <PUBCHEM_CACTVS_TAUTO_COUNT>  (1) 
3

>  <PUBCHEM_CONFORMER_ID>  (1) 
00006CC000000001

>  <PUBCHEM_MMFF94_ENERGY>  (1) 
36.8138

>  <PUBCHEM_FEATURE_SELFOVERLAP>  (1) 
15.223

>  <PUBCHEM_SHAPE_FINGERPRINT>  (1) 
1 1 18338233893955890229
100427 49 18195802968852213620
12716758 59 17620476143887061880
13380535 76 18191579968165537931
16945 1 18410573985304418949
193761 8 18410856559951006437
20645476 183 17536042404254533092
20871998 184 16902164166731835420
21040471 1 17906453581895127045
23552423 10 18411417336587847991
23552449 1 17690277110441248814
241688 4 17906451030578720833
2748010 2 18051120402579753022
3071541 250 18267882591703738326
528862 383 18335411404715543634
81228 2 17475513872016314337

>  <PUBCHEM_SHAPE_MULTIPOLES>  (1) 
194.71
3.2
2.92
0.56
1.41
0
0
0
0
-2.67
0
-0.03
0
0

>  <PUBCHEM_SHAPE_SELFOVERLAP>  (1) 
395.729

>  <PUBCHEM_SHAPE_VOLUME>  (1) 
110.5

>  <PUBCHEM_COORDINATE_TYPE>  (1) 
2
5
10

$$$$
