27843
     RDKit          3D

 11 11  0  0  0  0  0  0  0  0999 V2000
   -2.0079   -0.0002   -0.2653 N   0  0  0  0  0  0  0  0  0  0  0  0
   -0.0124    1.2000    0.3139 N   0  0  0  0  0  0  0  0  0  0  0  0
   -0.0121   -1.1996    0.3141 N   0  0  0  0  0  0  0  0  0  0  0  0
   -1.9772   -2.3451   -0.2565 N   0  0  0  0  0  0  0  0  0  0  0  0
   -1.9778    2.3444   -0.2568 N   0  0  0  0  0  0  0  0  0  0  0  0
    1.9071    0.0005    0.8720 N   0  0  0  0  0  0  0  0  0  0  0  0
    2.6976    0.0001   -0.0981 N   0  0  0  0  0  0  0  0  0  0  0  0
    3.4150   -0.0003   -0.9859 N   0  0  0  0  0  0  0  0  0  0  0  0
   -1.2995   -1.1222   -0.0597 C   0  0  0  0  0  0  0  0  0  0  0  0
   -1.2998    1.1220   -0.0599 C   0  0  0  0  0  0  0  0  0  0  0  0
    0.5669    0.0003    0.4821 C   0  0  0  0  0  0  0  0  0  0  0  0
  1  9  2  0
  1 10  1  0
  2 10  2  0
  2 11  1  0
  3  9  1  0
  3 11  2  0
  4  9  1  0
  5 10  1  0
  6  7  2  0
  6 11  1  0
  7  8  2  0
M  CHG  2   7   1   8  -1
M  END
>  <PUBCHEM_COMPOUND_CID>  (1) 
27843

>  <PUBCHEM_CONFORMER_RMSD>  (1) 
0.4

>  <PUBCHEM_CONFORMER_DIVERSEORDER>  (1) 
1
2

>  <PUBCHEM_MMFF94_PARTIAL_CHARGES>  (1) 
15
1 -0.62
10 0.72
11 0.8
12 0.4
13 0.4
14 0.4
15 0.4
2 -0.62
3 -0.62
4 -0.9
5 -0.9
6 -0.5
7 0.69
8 -0.37
9 0.72

>  <PUBCHEM_EFFECTIVE_ROTOR_COUNT>  (1) 
1

>  <PUBCHEM_PHARMACOPHORE_FEATURES>  (1) 
6
1 4 donor
1 5 donor
4 1 2 5 10 cation
4 1 3 4 9 cation
4 2 3 6 11 cation
6 1 2 3 9 10 11 rings

>  <PUBCHEM_HEAVY_ATOM_COUNT>  (1) 
11

>  <PUBCHEM_ATOM_DEF_STEREO_COUNT>  (1) 
0

>  <PUBCHEM_ATOM_UDEF_STEREO_COUNT>  (1) 
0

>  <PUBCHEM_BOND_DEF_STEREO_COUNT>  (1) 
0

>  <PUBCHEM_BOND_UDEF_STEREO_COUNT>  (1) 
1

>  <PUBCHEM_ISOTOPIC_ATOM_COUNT>  (1) 
0

>  <PUBCHEM_COMPONENT_COUNT>  (1) 
1

>  <PUBCHEM_CACTVS_TAUTO_COUNT>  (1) 
5

>  <PUBCHEM_CONFORMER_ID>  (1) 
00006CC300000001

>  <PUBCHEM_MMFF94_ENERGY>  (1) 
29.1907

>  <PUBCHEM_FEATURE_SELFOVERLAP>  (1) 
30.579

>  <PUBCHEM_SHAPE_FINGERPRINT>  (1) 
11206711 2 18338220618533744845
12138202 97 18341615854341881358
12716758 59 18342173315506439538
12897270 3 18410855499173335622
14128692 85 18193279821473369470
16945 1 18410844460922632203
20653085 51 18115325366588128396
20871998 22 17980479284545922899
21040471 1 18195231235648565105
23552423 10 18189048875118139136
23559900 14 18129096729042606970
2748010 2 18050832614365101043
29004967 10 16630525163382103506

>  <PUBCHEM_SHAPE_MULTIPOLES>  (1) 
186.53
3.83
1.98
0.75
3.58
0
0.01
0
1.06
-2.13
0.18
0.38
0
0

>  <PUBCHEM_SHAPE_SELFOVERLAP>  (1) 
387.02

>  <PUBCHEM_SHAPE_VOLUME>  (1) 
97

>  <PUBCHEM_COORDINATE_TYPE>  (1) 
2
5
10

$$$$
