2785
     RDKit          2D

 30 31  0  0  1  0  0  0  0  0999 V2000
    0.0000    0.0000    0.0000 O   0  0  0  0  0  0  0  0  0  0  0  0
    0.0000    0.0000    0.0000 O   0  0  0  0  0  0  0  0  0  0  0  0
    0.0000    0.0000    0.0000 O   0  0  0  0  0  0  0  0  0  0  0  0
    0.0000    0.0000    0.0000 O   0  0  0  0  0  0  0  0  0  0  0  0
    0.0000    0.0000    0.0000 N   0  0  0  0  0  0  0  0  0  0  0  0
    0.0000    0.0000    0.0000 N   0  0  0  0  0  0  0  0  0  0  0  0
    0.0000    0.0000    0.0000 N   0  0  0  0  0  0  0  0  0  0  0  0
    0.0000    0.0000    0.0000 N   0  0  0  0  0  0  0  0  0  0  0  0
    0.0000    0.0000    0.0000 C   0  0  0  0  0  0  0  0  0  0  0  0
    0.0000    0.0000    0.0000 C   0  0  0  0  0  0  0  0  0  0  0  0
    0.0000    0.0000    0.0000 C   0  0  0  0  0  0  0  0  0  0  0  0
    0.0000    0.0000    0.0000 C   0  0  0  0  0  0  0  0  0  0  0  0
    0.0000    0.0000    0.0000 C   0  0  0  0  0  0  0  0  0  0  0  0
    0.0000    0.0000    0.0000 C   0  0  0  0  0  0  0  0  0  0  0  0
    0.0000    0.0000    0.0000 C   0  0  0  0  0  0  0  0  0  0  0  0
    0.0000    0.0000    0.0000 C   0  0  0  0  0  0  0  0  0  0  0  0
    0.0000    0.0000    0.0000 C   0  0  0  0  0  0  0  0  0  0  0  0
    0.0000    0.0000    0.0000 C   0  0  0  0  0  0  0  0  0  0  0  0
    0.0000    0.0000    0.0000 C   0  0  0  0  0  0  0  0  0  0  0  0
    0.0000    0.0000    0.0000 C   0  0  0  0  0  0  0  0  0  0  0  0
    0.0000    0.0000    0.0000 C   0  0  0  0  0  0  0  0  0  0  0  0
    0.0000    0.0000    0.0000 C   0  0  0  0  0  0  0  0  0  0  0  0
    0.0000    0.0000    0.0000 C   0  0  0  0  0  0  0  0  0  0  0  0
    0.0000    0.0000    0.0000 C   0  0  0  0  0  0  0  0  0  0  0  0
    0.0000    0.0000    0.0000 C   0  0  0  0  0  0  0  0  0  0  0  0
    0.0000    0.0000    0.0000 C   0  0  0  0  0  0  0  0  0  0  0  0
    0.0000    0.0000    0.0000 C   0  0  0  0  0  0  0  0  0  0  0  0
    0.0000    0.0000    0.0000 C   0  0  0  0  0  0  0  0  0  0  0  0
    0.0000    0.0000    0.0000 C   0  0  0  0  0  0  0  0  0  0  0  0
    0.0000    0.0000    0.0000 C   0  0  0  0  0  0  0  0  0  0  0  0
  1 12  2  0
  2 15  2  0
  3 18  2  0
  4 25  2  0
  5  9  1  0
  5 15  1  0
  6 12  1  0
  6 16  1  0
  6 17  1  0
  7 20  1  0
  7 25  1  0
  8 26  2  0
  8 29  1  0
  9 10  1  0
  9 12  1  0
 10 11  1  0
 11 13  2  0
 11 14  1  0
 13 21  1  0
 14 22  2  0
 15 18  1  0
 18 19  1  0
 19 25  1  0
 20 23  1  0
 21 24  2  0
 22 24  1  0
 23 26  1  0
 26 27  1  0
 27 28  2  0
 28 30  1  0
 29 30  2  0
M  END
>  <PUBCHEM_COMPOUND_CID>  (1) 
2785

>  <PUBCHEM_CONFORMER_RMSD>  (1) 
1.4

>  <PUBCHEM_CONFORMER_DIVERSEORDER>  (1) 
12
202
63
50
190
186
86
4
38
166
8
125
27
7
76
97
111
78
88
130
43
60
196
145
34
173
146
53
35
37
19
123
170
165
49
16
80
70
184
100
120
132
185
13
74
193
128
39
95
159
83
191
58
42
113
172
133
168
81
64
197
161
199
182
98
201
104
33
134
198
151
40
122
171
114
105
26
22
79
107
25
84
152
149
99
126
160
147
174
28
46
51
158
10
203
66
87
103
176
85
73
204
178
150
61
155
156
62
89
96
164
129
55
77
29
2
180
9
177
54
195
101
109
94
3
71
47
179
142
137
31
167
41
52
14
192
72
140
153
157
32
75
188
141
194
48
163
82
21
175
187
11
69
108
92
124
67
135
118
56
59
144
127
23
24
44
18
148
131
57
162
6
112
117
110
93
169
138
90
17
154
116
115
106
65
119
20
181
36
45
1
200
143
15
136
102
5
139
30
91
68
189
183
121

>  <PUBCHEM_MMFF94_PARTIAL_CHARGES>  (1) 
41
1 -0.57
10 0.14
11 -0.14
12 0.57
13 -0.15
14 -0.15
15 0.63
16 0.3
17 0.3
18 0.51
19 0.12
2 -0.57
20 0.3
21 -0.15
22 -0.15
23 0.14
24 -0.15
25 0.57
26 0.17
27 -0.15
28 -0.15
29 0.16
3 -0.57
30 -0.15
34 0.37
35 0.15
36 0.15
4 -0.57
49 0.15
5 -0.73
50 0.15
51 0.15
52 0.37
53 0.15
54 0.15
55 0.15
56 0.15
6 -0.66
7 -0.73
8 -0.62
9 0.36

>  <PUBCHEM_EFFECTIVE_ROTOR_COUNT>  (1) 
13

>  <PUBCHEM_PHARMACOPHORE_FEATURES>  (1) 
10
1 1 acceptor
1 19 anion
1 2 acceptor
1 3 acceptor
1 4 acceptor
1 5 donor
1 7 donor
1 8 acceptor
6 11 13 14 21 22 24 rings
6 8 26 27 28 29 30 rings

>  <PUBCHEM_HEAVY_ATOM_COUNT>  (1) 
30

>  <PUBCHEM_ATOM_DEF_STEREO_COUNT>  (1) 
0

>  <PUBCHEM_ATOM_UDEF_STEREO_COUNT>  (1) 
1

>  <PUBCHEM_BOND_DEF_STEREO_COUNT>  (1) 
0

>  <PUBCHEM_BOND_UDEF_STEREO_COUNT>  (1) 
0

>  <PUBCHEM_ISOTOPIC_ATOM_COUNT>  (1) 
0

>  <PUBCHEM_COMPONENT_COUNT>  (1) 
1

>  <PUBCHEM_CACTVS_TAUTO_COUNT>  (1) 
20

$$$$
