27853
     RDKit          3D

 16 17  0  0  0  0  0  0  0  0999 V2000
   -2.0667   -0.9998   -0.0012 N   0  0  0  0  0  0  0  0  0  0  0  0
    0.3418   -0.8227   -0.3334 C   0  0  0  0  0  0  0  0  0  0  0  0
    1.4701   -1.2550   -1.3182 C   0  0  0  0  0  0  0  0  0  0  0  0
    0.6097   -1.5810    1.0013 C   0  0  0  0  0  0  0  0  0  0  0  0
    2.8808   -1.0047   -0.7763 C   0  0  0  0  0  0  0  0  0  0  0  0
    2.0014   -1.3021    1.5720 C   0  0  0  0  0  0  0  0  0  0  0  0
    3.0939   -1.6741    0.5765 C   0  0  0  0  0  0  0  0  0  0  0  0
   -1.0036   -1.3161   -0.9147 C   0  0  0  0  0  0  0  0  0  0  0  0
    0.2059    0.7030   -0.1363 C   0  0  0  0  0  0  0  0  0  0  0  0
    0.5450    1.5654   -1.1737 C   0  0  0  0  0  0  0  0  0  0  0  0
   -0.2542    1.2034    1.0773 C   0  0  0  0  0  0  0  0  0  0  0  0
   -3.3664   -1.4387   -0.5118 C   0  0  0  0  0  0  0  0  0  0  0  0
    0.4228    2.9435   -0.9956 C   0  0  0  0  0  0  0  0  0  0  0  0
   -0.3766    2.5814    1.2554 C   0  0  0  0  0  0  0  0  0  0  0  0
   -0.0381    3.4514    0.2190 C   0  0  0  0  0  0  0  0  0  0  0  0
   -4.4659   -1.0541    0.4595 C   0  0  0  0  0  0  0  0  0  0  0  0
  1  8  1  0
  1 12  1  0
  2  3  1  0
  2  4  1  0
  2  8  1  0
  2  9  1  0
  3  5  1  0
  4  6  1  0
  5  7  1  0
  6  7  1  0
  9 10  2  0
  9 11  1  0
 10 13  1  0
 11 14  2  0
 12 16  1  0
 13 15  2  0
 14 15  1  0
M  END
>  <PUBCHEM_COMPOUND_CID>  (1) 
27853

>  <PUBCHEM_CONFORMER_RMSD>  (1) 
0.6

>  <PUBCHEM_CONFORMER_DIVERSEORDER>  (1) 
1
26
15
13
27
10
19
11
24
14
9
8
22
23
3
5
6
20
16
18
25
21
2
7
4
17
12

>  <PUBCHEM_MMFF94_PARTIAL_CHARGES>  (1) 
16
1 -0.9
10 -0.15
11 -0.15
12 0.27
13 -0.15
14 -0.15
15 -0.15
2 0.14
29 0.36
30 0.15
31 0.15
34 0.15
35 0.15
36 0.15
8 0.27
9 -0.14

>  <PUBCHEM_EFFECTIVE_ROTOR_COUNT>  (1) 
5.2

>  <PUBCHEM_PHARMACOPHORE_FEATURES>  (1) 
4
1 1 cation
1 1 donor
6 2 3 4 5 6 7 rings
6 9 10 11 13 14 15 rings

>  <PUBCHEM_HEAVY_ATOM_COUNT>  (1) 
16

>  <PUBCHEM_ATOM_DEF_STEREO_COUNT>  (1) 
0

>  <PUBCHEM_ATOM_UDEF_STEREO_COUNT>  (1) 
0

>  <PUBCHEM_BOND_DEF_STEREO_COUNT>  (1) 
0

>  <PUBCHEM_BOND_UDEF_STEREO_COUNT>  (1) 
0

>  <PUBCHEM_ISOTOPIC_ATOM_COUNT>  (1) 
0

>  <PUBCHEM_COMPONENT_COUNT>  (1) 
1

>  <PUBCHEM_CACTVS_TAUTO_COUNT>  (1) 
1

>  <PUBCHEM_CONFORMER_ID>  (1) 
00006CCD00000001

>  <PUBCHEM_MMFF94_ENERGY>  (1) 
36.6148

>  <PUBCHEM_FEATURE_SELFOVERLAP>  (1) 
20.297

>  <PUBCHEM_SHAPE_FINGERPRINT>  (1) 
1 1 17834388304086665429
13132413 78 18412258462904150685
13134695 92 18340470258052577335
13294875 104 17698159895927193577
13464514 151 18050300450563353205
13538477 17 17900819357939001918
14181834 199 17983552359589795879
14617773 55 17897729764835868218
14817 1 15954989952072000534
16945 1 18048016752011547942
17357779 13 18058430029354692109
18410436 195 18411411826097223999
20097449 115 18410848863327537467
20339313 130 18341338876518026807
20388701 513 18199180685779146907
20600515 1 18343302573867178726
20671657 1 18053384581022162687
21041028 32 18411703188378917245
21524375 3 17474944810683165965
22112679 90 18196396769460860973
2255824 54 18264486376748839223
23419403 2 18124279857577250236
23557571 272 18341049614950250966
25 1 17763479695705638829
2748010 2 18196905877683245117
305870 269 17692240155435224765
4175511 71 18413392051066138727
430814 3 16961799443912862881
57210444 14 17326068732811598828
5845 1 14023541711551281067
5895379 119 17201389337492603489
6442390 28 17192083955247883729
68419 9 17754464451966726254
7364860 26 18126001813329885199
81228 2 18196096529909249187
9981440 41 16403586908365870082

>  <PUBCHEM_SHAPE_MULTIPOLES>  (1) 
324.29
4.47
3.63
1.42
4.21
4.2
-0.13
-4.88
-0.36
0.26
-0.12
-0.52
0.06
-0.54

>  <PUBCHEM_SHAPE_SELFOVERLAP>  (1) 
664.614

>  <PUBCHEM_SHAPE_VOLUME>  (1) 
184.5

>  <PUBCHEM_COORDINATE_TYPE>  (1) 
2
5
10

$$$$
