27852
     RDKit          3D

 17 16  0  0  0  0  0  0  0  0999 V2000
    4.4382    1.9072   -0.0781 O   0  0  0  0  0  0  0  0  0  0  0  0
    6.9493   -1.9432   -0.0700 O   0  0  0  0  0  0  0  0  0  0  0  0
    5.7551    0.0038   -0.0783 N   0  0  0  0  0  0  0  0  0  0  0  0
    5.8031   -1.4833   -0.0253 N   0  0  0  0  0  0  0  0  0  0  0  0
   -1.8631   -0.3264    0.1594 C   0  0  0  0  0  0  0  0  0  0  0  0
   -3.1534    0.4944    0.1003 C   0  0  0  0  0  0  0  0  0  0  0  0
   -0.5954    0.5342    0.1446 C   0  0  0  0  0  0  0  0  0  0  0  0
   -4.4211   -0.3671    0.1070 C   0  0  0  0  0  0  0  0  0  0  0  0
   -5.7470    0.3966    0.0272 C   0  0  0  0  0  0  0  0  0  0  0  0
    0.7302   -0.2339    0.1804 C   0  0  0  0  0  0  0  0  0  0  0  0
   -6.9747   -0.5150   -0.0202 C   0  0  0  0  0  0  0  0  0  0  0  0
    1.9978    0.6210    0.0975 C   0  0  0  0  0  0  0  0  0  0  0  0
   -8.2602    0.2955   -0.1892 C   0  0  0  0  0  0  0  0  0  0  0  0
    3.2871   -0.2009    0.0582 C   0  0  0  0  0  0  0  0  0  0  0  0
   -9.4867   -0.6027   -0.2028 C   0  0  0  0  0  0  0  0  0  0  0  0
    4.5333    0.6780   -0.0373 C   0  0  0  0  0  0  0  0  0  0  0  0
    7.0073    0.7418   -0.1735 C   0  0  0  0  0  0  0  0  0  0  0  0
  1 16  2  0
  2  4  2  0
  3  4  1  0
  3 16  1  0
  3 17  1  0
  5  6  1  0
  5  7  1  0
  6  8  1  0
  7 10  1  0
  8  9  1  0
  9 11  1  0
 10 12  1  0
 11 13  1  0
 12 14  1  0
 13 15  1  0
 14 16  1  0
M  END
>  <PUBCHEM_COMPOUND_CID>  (1) 
27852

>  <PUBCHEM_CONFORMER_RMSD>  (1) 
1

>  <PUBCHEM_CONFORMER_DIVERSEORDER>  (1) 
1
31
204
363
355
322
149
48
71
365
302
370
372
104
76
240
56
36
243
141
262
260
287
10
97
32
249
177
33
210
49
120
156
65
194
164
298
185
107
271
254
218
248
114
26
384
393
268
371
406
414
396
87
34
39
426
226
105
94
342
377
276
43
233
46
311
17
109
306
296
301
205
7
59
51
389
273
3
283
58
201
195
422
340
84
314
174
24
184
333
207
117
100
8
404
29
265
439
127
305
96
232
304
116
73
70
369
190
146
101
67
313
420
136
229
319
247
336
289
230
169
409
12
253
54
80
77
2
99
106
42
217
203
251
293
68
368
88
179
22
140
356
53
350
221
83
290
238
147
111
98
4
387
288
27
134
193
21
112
316
367
81
354
63
418
167
390
392
423
216
144
407
300
30
334
362
187
223
211
212
440
75
122
412
353
279
250
295
395
125
291
166
310
47
425
79
267
438
317
358
408
405
381
417
6
128
284
352
129
173
121
246
345
133
270
160
272
150
171
103
364
188
57
50
16
119
15
225
269
215
294
209
429
234
329
378
411
415
37
35
280
64
61
394
199
52
213
360
427
374
159
257
148
344
180
91
382
157
398
62
235
397
327
214
222
11
323
386
437
266
335
74
219
18
252
108
5
281
186
361
303
60
274
130
400
346
433
92
151
161
339
292
324
416
126
197
143
69
110
376
198
13
192
380
242
41
181
139
428
14
115
38
337
261
237
318
383
191
137
138
282
72
308
227
175
351
202
145
206
86
307
45
200
135
275
299
255
435
228
176
328
379
158
113
23
244
224
189
421
25
196
402
153
78
286
163
436
102
95
338
20
424
172
28
162
315
40
388
89
123
285
432
385
124
309
259
331
277
399
347
208
168
85
341
182
9
320
165
357
44
90
131
256
348
19
82
366
413
258
325
118
403
326
178
263
375
431
142
332
419
132
239
183
152
236
93
170
220
343
155
55
349
312
401
330
231
66
241
391
410
264
278
154
373
321
430
434
297
359
245

>  <PUBCHEM_MMFF94_PARTIAL_CHARGES>  (1) 
7
1 -0.57
14 0.06
16 0.57
17 0.3
2 -0.16
3 -0.18
4 -0.02

>  <PUBCHEM_EFFECTIVE_ROTOR_COUNT>  (1) 
12

>  <PUBCHEM_PHARMACOPHORE_FEATURES>  (1) 
2
1 1 acceptor
1 15 hydrophobe

>  <PUBCHEM_HEAVY_ATOM_COUNT>  (1) 
17

>  <PUBCHEM_ATOM_DEF_STEREO_COUNT>  (1) 
0

>  <PUBCHEM_ATOM_UDEF_STEREO_COUNT>  (1) 
0

>  <PUBCHEM_BOND_DEF_STEREO_COUNT>  (1) 
0

>  <PUBCHEM_BOND_UDEF_STEREO_COUNT>  (1) 
0

>  <PUBCHEM_ISOTOPIC_ATOM_COUNT>  (1) 
0

>  <PUBCHEM_COMPONENT_COUNT>  (1) 
1

>  <PUBCHEM_CACTVS_TAUTO_COUNT>  (1) 
1

>  <PUBCHEM_CONFORMER_ID>  (1) 
00006CCC00000001

>  <PUBCHEM_MMFF94_ENERGY>  (1) 
10.958

>  <PUBCHEM_FEATURE_SELFOVERLAP>  (1) 
10.148

>  <PUBCHEM_SHAPE_FINGERPRINT>  (1) 
10066227 49 18341613659762097911
10299344 5 18202001036711011191
11315181 36 18342181090262356969
12091667 2 18335421280053346705
13533116 47 16805591539133980864
13885169 127 18409166585442631981
14123256 10 17458061569284052937
14251764 18 18060140929566413081
14251764 46 18410573998036353032
155225 1 8214131959863512430
15690457 1 18131066026295851015
15716309 27 18272650160775261055
17834076 25 17775286071318300801
18006028 8 17775566442805207185
20621476 8 18040995129565994519
21095086 128 18342454859994112671
21130983 4 10665229246007028799
21315763 28 18412825785730404233
22224240 67 14201115734651543649
23035841 295 17632857534364251039
232437 2 18341613733862640487
23521765 1 18342176678940598873
28498 318 18409165498325029511
328311 84 18187088351607712747
33532 11 18410854339232004947
33684 2 18410573989446424937
4325135 7 18343021103823277837
5283156 175 18202283589407924075
59682541 35 11455883685965468581
6438161 24 18041554755447344538
67123 10 18411136961449734677
8209 1 18408322199066738541

>  <PUBCHEM_SHAPE_MULTIPOLES>  (1) 
328.15
29.14
1.23
0.61
30.39
0.2
0
5
-2.7
-2.58
-0.03
0.15
-0.01
-0.06

>  <PUBCHEM_SHAPE_SELFOVERLAP>  (1) 
597.251

>  <PUBCHEM_SHAPE_VOLUME>  (1) 
209.4

>  <PUBCHEM_COORDINATE_TYPE>  (1) 
2
5
10

$$$$
