27850
     RDKit          3D

 11 10  0  0  0  0  0  0  0  0999 V2000
   -0.8602   -1.9641    0.0064 O   0  0  0  0  0  0  0  0  0  0  0  0
   -3.5617    1.7523    0.0012 O   0  0  0  0  0  0  0  0  0  0  0  0
   -2.2868   -0.1428    0.0012 N   0  0  0  0  0  0  0  0  0  0  0  0
   -2.3962    1.3418   -0.0099 N   0  0  0  0  0  0  0  0  0  0  0  0
    1.5257   -0.4949   -0.0367 C   0  0  0  0  0  0  0  0  0  0  0  0
    2.6985    0.4889    0.0278 C   0  0  0  0  0  0  0  0  0  0  0  0
    0.1686    0.2122   -0.0253 C   0  0  0  0  0  0  0  0  0  0  0  0
    4.0393   -0.2447   -0.0122 C   0  0  0  0  0  0  0  0  0  0  0  0
   -1.0256   -0.7421   -0.0096 C   0  0  0  0  0  0  0  0  0  0  0  0
    5.2076    0.7277    0.0245 C   0  0  0  0  0  0  0  0  0  0  0  0
   -3.5093   -0.9342    0.0326 C   0  0  0  0  0  0  0  0  0  0  0  0
  1  9  2  0
  2  4  2  0
  3  4  1  0
  3  9  1  0
  3 11  1  0
  5  6  1  0
  5  7  1  0
  6  8  1  0
  7  9  1  0
  8 10  1  0
M  END
>  <PUBCHEM_COMPOUND_CID>  (1) 
27850

>  <PUBCHEM_CONFORMER_RMSD>  (1) 
0.6

>  <PUBCHEM_CONFORMER_DIVERSEORDER>  (1) 
1
218
246
236
114
127
213
24
138
112
145
223
229
11
10
240
63
62
100
233
241
243
158
48
7
30
189
74
58
187
244
94
64
83
85
183
54
13
46
249
123
31
209
245
29
90
197
37
154
164
103
239
235
26
18
141
144
181
21
81
101
129
41
73
166
99
43
177
14
250
107
119
71
55
211
210
65
28
66
98
126
207
180
44
47
104
12
137
122
27
248
125
224
121
38
95
93
19
231
9
56
5
194
156
228
92
16
131
184
185
238
155
149
124
226
61
78
87
157
115
148
72
69
80
134
237
39
136
23
232
82
222
86
34
139
25
57
96
142
216
212
159
53
150
170
88
75
106
3
161
200
160
52
178
199
59
76
135
36
221
132
77
17
89
84
117
230
143
192
176
204
214
32
151
97
242
67
51
70
133
173
116
227
130
108
20
172
147
109
120
33
195
201
190
49
202
219
152
175
247
146
206
196
128
22
191
113
110
193
220
225
234
140
217
188
165
205
102
179
203
2
35
198
45
50
215
169
174
60
105
4
68
153
186
182
91
167
168
163
8
40
162
208
42
15
79
171
118
6
111

>  <PUBCHEM_MMFF94_PARTIAL_CHARGES>  (1) 
7
1 -0.57
11 0.3
2 -0.16
3 -0.18
4 -0.02
7 0.06
9 0.57

>  <PUBCHEM_EFFECTIVE_ROTOR_COUNT>  (1) 
6

>  <PUBCHEM_PHARMACOPHORE_FEATURES>  (1) 
3
1 1 acceptor
1 10 hydrophobe
4 5 6 7 8 hydrophobe

>  <PUBCHEM_HEAVY_ATOM_COUNT>  (1) 
11

>  <PUBCHEM_ATOM_DEF_STEREO_COUNT>  (1) 
0

>  <PUBCHEM_ATOM_UDEF_STEREO_COUNT>  (1) 
0

>  <PUBCHEM_BOND_DEF_STEREO_COUNT>  (1) 
0

>  <PUBCHEM_BOND_UDEF_STEREO_COUNT>  (1) 
0

>  <PUBCHEM_ISOTOPIC_ATOM_COUNT>  (1) 
0

>  <PUBCHEM_COMPONENT_COUNT>  (1) 
1

>  <PUBCHEM_CACTVS_TAUTO_COUNT>  (1) 
1

>  <PUBCHEM_CONFORMER_ID>  (1) 
00006CCA00000001

>  <PUBCHEM_MMFF94_ENERGY>  (1) 
10.1615

>  <PUBCHEM_FEATURE_SELFOVERLAP>  (1) 
15.223

>  <PUBCHEM_SHAPE_FINGERPRINT>  (1) 
11062470 55 18272934946929157114
12500047 106 18342734139794096490
12932764 1 17489013929243552366
14123238 8 18261392282408436310
14325111 11 18410575054603732014
15501527 16 18413393128723271528
190213 19 17530684325072822282
20645477 56 18412266137963079888
20645477 70 17060072415199566518
20719005 15 18410575110976325058
23380061 127 18410853291206782591
23402539 116 18340760537749408463
573450 72 18334562552170222810
6430166 295 18409445865242505592

>  <PUBCHEM_SHAPE_MULTIPOLES>  (1) 
204.67
9.01
1.47
0.58
7.82
0.1
0
2.41
0.1
-1.58
0
0.08
-0.01
0.03

>  <PUBCHEM_SHAPE_SELFOVERLAP>  (1) 
371.709

>  <PUBCHEM_SHAPE_VOLUME>  (1) 
131.3

>  <PUBCHEM_COORDINATE_TYPE>  (1) 
2
5
10

$$$$
