27855
     RDKit          3D

 18 20  0  0  0  0  0  0  0  0999 V2000
   -2.0474   -3.6883   -0.9656 Cl  0  0  0  0  0  0  0  0  0  0  0  0
    0.4004    2.0692   -0.7322 N   0  0  0  0  0  0  0  0  0  0  0  0
   -2.0448    1.9107    1.0268 N   0  0  0  0  0  0  0  0  0  0  0  0
   -0.8476    0.0404   -0.1057 C   0  0  0  0  0  0  0  0  0  0  0  0
    0.3946    0.8425   -0.3239 C   0  0  0  0  0  0  0  0  0  0  0  0
    1.7160    0.2084   -0.0492 C   0  0  0  0  0  0  0  0  0  0  0  0
   -1.9768    0.5957    0.5268 C   0  0  0  0  0  0  0  0  0  0  0  0
   -0.8785   -1.2820   -0.5759 C   0  0  0  0  0  0  0  0  0  0  0  0
   -0.8679    2.7305   -0.9944 C   0  0  0  0  0  0  0  0  0  0  0  0
   -3.1050   -0.2176    0.7118 C   0  0  0  0  0  0  0  0  0  0  0  0
    1.8172   -0.7738    0.9286 C   0  0  0  0  0  0  0  0  0  0  0  0
    2.8330    0.6069   -0.7738 C   0  0  0  0  0  0  0  0  0  0  0  0
   -2.0153   -2.0662   -0.3912 C   0  0  0  0  0  0  0  0  0  0  0  0
   -3.1262   -1.5365    0.2568 C   0  0  0  0  0  0  0  0  0  0  0  0
   -1.5539    2.8852    0.3293 C   0  0  0  0  0  0  0  0  0  0  0  0
    3.0535   -1.3666    1.1857 C   0  0  0  0  0  0  0  0  0  0  0  0
    4.0693    0.0141   -0.5169 C   0  0  0  0  0  0  0  0  0  0  0  0
    4.1795   -0.9726    0.4630 C   0  0  0  0  0  0  0  0  0  0  0  0
  1 13  1  0
  2  5  2  0
  2  9  1  0
  3  7  1  0
  3 15  2  0
  4  5  1  0
  4  7  2  0
  4  8  1  0
  5  6  1  0
  6 11  2  0
  6 12  1  0
  7 10  1  0
  8 13  2  0
  9 15  1  0
 10 14  2  0
 11 16  1  0
 12 17  2  0
 13 14  1  0
 16 18  2  0
 17 18  1  0
M  END
>  <PUBCHEM_COMPOUND_CID>  (1) 
27855

>  <PUBCHEM_CONFORMER_RMSD>  (1) 
0.6

>  <PUBCHEM_CONFORMER_DIVERSEORDER>  (1) 
2
1

>  <PUBCHEM_MMFF94_PARTIAL_CHARGES>  (1) 
27
1 -0.18
10 -0.15
11 -0.15
12 -0.15
13 0.18
14 -0.15
15 0.33
16 -0.15
17 -0.15
18 -0.15
19 0.15
2 -0.7
22 0.15
23 0.15
24 0.15
25 0.15
26 0.06
27 0.15
28 0.15
29 0.15
3 -0.63
4 0.09
5 0.28
6 0.09
7 0.18
8 -0.15
9 0.31

>  <PUBCHEM_EFFECTIVE_ROTOR_COUNT>  (1) 
1.2

>  <PUBCHEM_PHARMACOPHORE_FEATURES>  (1) 
5
1 2 acceptor
1 3 acceptor
6 4 7 8 10 13 14 rings
6 6 11 12 16 17 18 rings
7 2 3 4 5 7 9 15 rings

>  <PUBCHEM_HEAVY_ATOM_COUNT>  (1) 
18

>  <PUBCHEM_ATOM_DEF_STEREO_COUNT>  (1) 
0

>  <PUBCHEM_ATOM_UDEF_STEREO_COUNT>  (1) 
0

>  <PUBCHEM_BOND_DEF_STEREO_COUNT>  (1) 
0

>  <PUBCHEM_BOND_UDEF_STEREO_COUNT>  (1) 
0

>  <PUBCHEM_ISOTOPIC_ATOM_COUNT>  (1) 
0

>  <PUBCHEM_COMPONENT_COUNT>  (1) 
1

>  <PUBCHEM_CACTVS_TAUTO_COUNT>  (1) 
3

>  <PUBCHEM_CONFORMER_ID>  (1) 
00006CCF00000002

>  <PUBCHEM_MMFF94_ENERGY>  (1) 
69.6423

>  <PUBCHEM_FEATURE_SELFOVERLAP>  (1) 
25.387

>  <PUBCHEM_SHAPE_FINGERPRINT>  (1) 
10616163 171 18410296878589679322
11578080 2 18043508685434476844
12173636 292 18126280840107126528
12553582 1 18337388365319805474
12633257 1 17846505815530423787
13004483 165 18335971030575326353
13140716 1 18269558410796847467
13538477 17 18335137562127956324
13931106 250 18192687030118811255
14081887 123 18270101535365743160
14787075 74 17904483257570056964
15309172 13 18050851013757525592
15375462 189 18188495799125960275
15669948 3 18409450258846200470
16110190 28 17541927699452179698
16752209 62 18337936901562902399
16945 1 18272934916452857987
17804303 29 18202008741238820490
19422 9 18260836955995689218
200 152 17676483952019545954
20261772 1 18337405837183033857
20291156 8 18265897045529267587
20442098 301 18409165472592408826
20510252 161 18130230337223587425
20645477 70 17259612068528816183
20871998 184 18337676291352809757
21452121 199 17839168963596475175
21634736 98 18261682583564026492
21731516 1 18336539533752883530
22112679 90 18268162013712305765
22182313 1 17396722886773486901
23388829 49 18263086659427678972
23402539 116 18201431472550093831
23419403 2 17055506237619156713
23557571 272 18202568367694734572
23559900 14 18131355236983272344
23598294 1 18337956688377125408
23728640 28 18339356349452052803
257057 1 18196644323044213861
34934 24 18265895933121967661
352729 6 17975972059913400557
427121 178 16697279658405322137
465052 167 18189916360361251747
58807428 26 18126866910254221787
603831 33 18186522124820941806
6338986 31 18266166417324808079
6992083 37 18341064002863657291
7097593 13 17826505570742196274
7364860 26 17549542259237824317
81228 2 18340474621401739579
90316 7 18410576180080504953
90525 40 18264770969470542202

>  <PUBCHEM_SHAPE_MULTIPOLES>  (1) 
362.34
6.16
3.43
1.07
5.53
0.06
-0.04
2.97
-0.81
-3.3
0.88
0.11
0.05
-1.23

>  <PUBCHEM_SHAPE_SELFOVERLAP>  (1) 
789.74

>  <PUBCHEM_SHAPE_VOLUME>  (1) 
195.4

>  <PUBCHEM_COORDINATE_TYPE>  (1) 
2
5
10

$$$$
