27861
     RDKit          3D

 27 29  0  0  0  0  0  0  0  0999 V2000
    6.9749    0.6472   -0.8102 Cl  0  0  0  0  0  0  0  0  0  0  0  0
   -1.0776    4.2260    0.2427 O   0  0  0  0  0  0  0  0  0  0  0  0
   -5.2655   -0.5048   -0.0540 O   0  0  0  0  0  0  0  0  0  0  0  0
    1.5750   -3.0421    0.3019 O   0  0  0  0  0  0  0  0  0  0  0  0
   -3.6274   -1.5808   -1.2699 O   0  0  0  0  0  0  0  0  0  0  0  0
    0.4195   -1.0969    0.3670 N   0  0  0  0  0  0  0  0  0  0  0  0
   -1.7568   -0.6695    0.7377 C   0  0  0  0  0  0  0  0  0  0  0  0
   -1.1034    0.5667    0.5245 C   0  0  0  0  0  0  0  0  0  0  0  0
   -0.8120   -1.6602    0.6439 C   0  0  0  0  0  0  0  0  0  0  0  0
    0.2522    0.2906    0.2985 C   0  0  0  0  0  0  0  0  0  0  0  0
   -3.1962   -0.8601    1.0164 C   0  0  0  0  0  0  0  0  0  0  0  0
   -1.5532    1.9036    0.5068 C   0  0  0  0  0  0  0  0  0  0  0  0
    1.1645    1.3329    0.0443 C   0  0  0  0  0  0  0  0  0  0  0  0
   -1.0345   -3.1172    0.8021 C   0  0  0  0  0  0  0  0  0  0  0  0
    1.6242   -1.8190    0.2223 C   0  0  0  0  0  0  0  0  0  0  0  0
   -0.6447    2.9347    0.2603 C   0  0  0  0  0  0  0  0  0  0  0  0
    0.6954    2.6505    0.0313 C   0  0  0  0  0  0  0  0  0  0  0  0
    2.9438   -1.2096   -0.0327 C   0  0  0  0  0  0  0  0  0  0  0  0
   -4.0220   -1.0395   -0.2461 C   0  0  0  0  0  0  0  0  0  0  0  0
    3.7549   -0.8418    1.0376 C   0  0  0  0  0  0  0  0  0  0  0  0
    3.3721   -1.0069   -1.3421 C   0  0  0  0  0  0  0  0  0  0  0  0
    5.0029   -0.2671    0.7969 C   0  0  0  0  0  0  0  0  0  0  0  0
    4.6201   -0.4324   -1.5828 C   0  0  0  0  0  0  0  0  0  0  0  0
   -6.1581   -0.6043   -1.1684 C   0  0  0  0  0  0  0  0  0  0  0  0
   -0.1017    5.2335   -0.0167 C   0  0  0  0  0  0  0  0  0  0  0  0
    5.4358   -0.0625   -0.5133 C   0  0  0  0  0  0  0  0  0  0  0  0
   -7.4820    0.0292   -0.7978 C   0  0  0  0  0  0  0  0  0  0  0  0
  1 26  1  0
  2 16  1  0
  2 25  1  0
  3 19  1  0
  3 24  1  0
  4 15  2  0
  5 19  2  0
  6  9  1  0
  6 10  1  0
  6 15  1  0
  7  8  1  0
  7  9  2  0
  7 11  1  0
  8 10  2  0
  8 12  1  0
  9 14  1  0
 10 13  1  0
 11 19  1  0
 12 16  2  0
 13 17  2  0
 15 18  1  0
 16 17  1  0
 18 20  2  0
 18 21  1  0
 20 22  1  0
 21 23  2  0
 22 26  2  0
 23 26  1  0
 24 27  1  0
M  END
>  <PUBCHEM_COMPOUND_CID>  (1) 
27861

>  <PUBCHEM_CONFORMER_RMSD>  (1) 
0.8

>  <PUBCHEM_CONFORMER_DIVERSEORDER>  (1) 
8
110
92
74
88
71
1
97
123
93
135
96
76
37
106
46
139
118
104
103
113
23
9
115
138
59
99
53
70
98
105
11
107
39
16
85
122
66
36
120
19
128
50
108
57
62
17
95
130
51
136
80
27
124
2
44
67
137
126
102
69
109
83
49
129
87
89
24
47
68
72
134
132
21
52
79
35
101
127
121
84
77
133
20
65
75
58
28
3
45
119
94
43
82
100
33
10
48
42
29
18
41
40
117
86
32
6
12
81
25
14
22
111
56
34
90
78
60
26
38
30
5
91
55
63
116
13
31
54
114
73
125
15
61
131
112
64
4
7

>  <PUBCHEM_MMFF94_PARTIAL_CHARGES>  (1) 
32
1 -0.18
10 -0.15
11 0.24
12 -0.15
13 -0.15
14 0.18
15 0.49
16 0.08
17 -0.15
18 0.09
19 0.66
2 -0.36
20 -0.15
21 -0.15
22 -0.15
23 -0.15
24 0.28
25 0.28
26 0.18
3 -0.43
30 0.15
31 0.15
35 0.15
36 0.15
37 0.15
38 0.15
39 0.15
4 -0.57
5 -0.57
6 0.29
7 -0.18
9 -0.33

>  <PUBCHEM_EFFECTIVE_ROTOR_COUNT>  (1) 
7

>  <PUBCHEM_PHARMACOPHORE_FEATURES>  (1) 
6
1 2 acceptor
1 4 acceptor
1 5 acceptor
5 6 7 8 9 10 rings
6 18 20 21 22 23 26 rings
6 8 10 12 13 16 17 rings

>  <PUBCHEM_HEAVY_ATOM_COUNT>  (1) 
27

>  <PUBCHEM_ATOM_DEF_STEREO_COUNT>  (1) 
0

>  <PUBCHEM_ATOM_UDEF_STEREO_COUNT>  (1) 
0

>  <PUBCHEM_BOND_DEF_STEREO_COUNT>  (1) 
0

>  <PUBCHEM_BOND_UDEF_STEREO_COUNT>  (1) 
0

>  <PUBCHEM_ISOTOPIC_ATOM_COUNT>  (1) 
0

>  <PUBCHEM_COMPONENT_COUNT>  (1) 
1

>  <PUBCHEM_CACTVS_TAUTO_COUNT>  (1) 
1

>  <PUBCHEM_CONFORMER_ID>  (1) 
00006CD500000008

>  <PUBCHEM_MMFF94_ENERGY>  (1) 
75.6617

>  <PUBCHEM_FEATURE_SELFOVERLAP>  (1) 
30.536

>  <PUBCHEM_SHAPE_FINGERPRINT>  (1) 
10165383 225 17603581929368799415
10498660 4 18337117752911011180
10670039 82 18263098651988836446
10693767 8 18201712960217268519
10871710 139 18338527334690382000
10906281 52 18337689549938049227
10930396 42 18120906599812860480
1100329 8 18264776634638089370
11115154 58 17989202639062270313
11621639 179 18117259382610938381
12011746 2 18412265055916320410
12173636 292 18192721033828743116
12236239 1 17530968029676058690
12293681 160 18187083953281614059
12403260 363 18118679920962468274
12516196 113 18411699906828737247
12553582 1 18337408096351727154
12788726 201 18335700503375269008
12838862 33 18336814382090720808
13140716 1 18192445275247976946
13540713 5 17973726870518503866
13583140 156 14692294975947936195
13782708 43 17560534906580004470
13911987 19 18261120689693064358
14347332 77 18197502818588661078
14400156 260 18119529826492338353
14725015 67 18340473527029520880
14790565 3 18337410269589776865
14840074 17 18060702805319328159
15183329 4 18410289199683370341
15439362 3 18122619724485954033
15849732 13 17704067422101365071
16087824 20 18339643314405172593
167882 2 18049440641029160041
16992727 255 17970339331297446389
17492 54 18334300872318133370
18681886 176 18270952561998621627
19319366 153 17967805016940582035
20238998 120 18343861121806643833
20642791 13 18270688571147963988
20642791 35 18340479062329378136
21029758 11 18410294726520303233
21049683 271 18187930629418395093
21285901 2 18059862718427510446
21641784 216 18114474352751189685
21792961 116 18041285400119419051
21814621 53 15285638759693226473
22122407 14 15141547817140300062
23557571 272 18272379646528657366
23558518 356 17829890927867335850
23559900 14 18268707401571139545
23576562 1 18193833967482611919
24771293 8 18272928366612401656
24771750 20 17902244625935989853
249057 3 18271238418263837711
266924 87 18265612074554426155
283562 15 18339083674726077760
3009799 131 18408038524481203519
3178227 256 18334305279803905611
335352 9 18410008875578728839
340366 18 18059006311192841519
4017518 198 17121693724093266288
4340502 62 15864072048768429003
4353968 344 18269557144652096094
532947 4 18124033700354076096
5486654 2 18410573993952940970
6004065 56 18270111456666193869
6036956 94 17971772213891875036
7164475 11 18193837033398391210
7808743 9 18337122151348315224

>  <PUBCHEM_SHAPE_MULTIPOLES>  (1) 
529.06
13.38
4.23
1.14
4.99
6.79
0.26
-3.83
6.36
1.09
-0.69
-0.2
-0.37
-0.34

>  <PUBCHEM_SHAPE_SELFOVERLAP>  (1) 
1135.426

>  <PUBCHEM_SHAPE_VOLUME>  (1) 
294.7

>  <PUBCHEM_COORDINATE_TYPE>  (1) 
2
5
10

$$$$
