27877
     RDKit          3D

 13 13  0  0  1  0  0  0  0  0999 V2000
   -1.9792    2.0509    0.2980 O   0  0  0  0  0  0  0  0  0  0  0  0
   -3.5273    0.4023    0.5276 O   0  0  0  0  0  0  0  0  0  0  0  0
   -0.4744   -1.1958    0.4092 C   0  0  0  0  0  0  0  0  0  0  0  0
   -1.3919   -1.1897   -0.8309 C   0  0  0  0  0  0  0  0  0  0  0  0
    0.8243   -0.4377    0.1948 C   0  0  0  0  0  0  0  0  0  0  0  0
   -0.1881   -2.6355    0.8534 C   0  0  0  0  0  0  0  0  0  0  0  0
   -1.8657    0.2114   -1.2139 C   0  0  0  0  0  0  0  0  0  0  0  0
    1.3818    0.2495    1.2556 C   0  0  0  0  0  0  0  0  0  0  0  0
    1.4128   -0.4566   -1.0548 C   0  0  0  0  0  0  0  0  0  0  0  0
   -2.5585    0.8756   -0.0519 C   0  0  0  0  0  0  0  0  0  0  0  0
    2.5744    0.9456    1.0589 C   0  0  0  0  0  0  0  0  0  0  0  0
    2.6055    0.2394   -1.2514 C   0  0  0  0  0  0  0  0  0  0  0  0
    3.1863    0.9405   -0.1945 C   0  0  0  0  0  0  0  0  0  0  0  0
  1 10  1  0
  2 10  2  0
  3  4  1  0
  3  5  1  0
  3  6  1  0
  4  7  1  0
  5  8  2  0
  5  9  1  0
  7 10  1  0
  8 11  1  0
  9 12  2  0
 11 13  2  0
 12 13  1  0
M  END
>  <PUBCHEM_COMPOUND_CID>  (1) 
27877

>  <PUBCHEM_CONFORMER_RMSD>  (1) 
0.6

>  <PUBCHEM_CONFORMER_DIVERSEORDER>  (1) 
1
4
27
21
19
32
31
17
30
12
26
7
6
28
14
10
23
2
13
9
5
22
8
29
16
24
3
11
15
20
18
25

>  <PUBCHEM_MMFF94_PARTIAL_CHARGES>  (1) 
17
1 -0.65
10 0.66
11 -0.15
12 -0.15
13 -0.15
2 -0.57
22 0.15
23 0.15
24 0.15
25 0.15
26 0.15
27 0.5
3 0.14
5 -0.14
7 0.06
8 -0.15
9 -0.15

>  <PUBCHEM_EFFECTIVE_ROTOR_COUNT>  (1) 
4

>  <PUBCHEM_PHARMACOPHORE_FEATURES>  (1) 
5
1 1 acceptor
1 2 acceptor
1 6 hydrophobe
3 1 2 10 anion
6 5 8 9 11 12 13 rings

>  <PUBCHEM_HEAVY_ATOM_COUNT>  (1) 
13

>  <PUBCHEM_ATOM_DEF_STEREO_COUNT>  (1) 
0

>  <PUBCHEM_ATOM_UDEF_STEREO_COUNT>  (1) 
1

>  <PUBCHEM_BOND_DEF_STEREO_COUNT>  (1) 
0

>  <PUBCHEM_BOND_UDEF_STEREO_COUNT>  (1) 
0

>  <PUBCHEM_ISOTOPIC_ATOM_COUNT>  (1) 
0

>  <PUBCHEM_COMPONENT_COUNT>  (1) 
1

>  <PUBCHEM_CACTVS_TAUTO_COUNT>  (1) 
1

>  <PUBCHEM_CONFORMER_ID>  (1) 
00006CE500000001

>  <PUBCHEM_MMFF94_ENERGY>  (1) 
28.2129

>  <PUBCHEM_FEATURE_SELFOVERLAP>  (1) 
25.429

>  <PUBCHEM_SHAPE_FINGERPRINT>  (1) 
11471102 22 14562522994751022492
13132413 78 17691395314030525674
13764800 53 18262246611253604283
13839132 238 18342172284661502140
15279308 16 17986384710359708688
15775835 57 18342174427882032577
16945 1 18060127739299821294
17357990 137 17967817132815664860
17834072 14 11963674469214821803
18186145 218 18201443544975272932
19837323 101 18336271244252003042
20361792 2 10735872902409092703
20511035 2 17545016227070340885
20653085 51 17703512176638614835
21028194 46 18114178605676833011
21524375 3 18411979122541887031
21930827 45 18337676428802449210
21947302 44 17775562048552204264
22802520 49 18131361816445564230
230 275 18338506452601495748
23402539 116 18125701624917240359
23419403 2 16901660221013337359
23557571 272 17832151893589090542
25 1 18059867125068983526
25610 171 18122334950461813002
276578 36 18334581200427572387
305870 269 18190169105568047730
430814 3 18259989236445891479
549884 4 17703789180528185073
7364860 26 18124309398515273455
81228 2 17901385911322882363

>  <PUBCHEM_SHAPE_MULTIPOLES>  (1) 
255.8
4.78
1.88
1.31
0.3
0.87
-0.13
-2.54
-0.1
0.9
0.54
-0.45
0.04
0.01

>  <PUBCHEM_SHAPE_SELFOVERLAP>  (1) 
521.039

>  <PUBCHEM_SHAPE_VOLUME>  (1) 
148.2

>  <PUBCHEM_COORDINATE_TYPE>  (1) 
2
5
10

$$$$
