27874
     RDKit          3D

 16 15  0  0  0  0  0  0  0  0999 V2000
   -0.0358    0.4377   -1.7251 O   0  0  0  0  0  0  0  0  0  0  0  0
   -1.2136   -0.6550    0.0671 C   0  0  0  0  0  0  0  0  0  0  0  0
    1.5166   -0.0409    0.0555 C   0  0  0  0  0  0  0  0  0  0  0  0
   -2.3846    0.4479    0.1561 C   0  0  0  0  0  0  0  0  0  0  0  0
    0.0777   -0.0282   -0.5775 C   0  0  0  0  0  0  0  0  0  0  0  0
    2.5175    0.5735   -0.9757 C   0  0  0  0  0  0  0  0  0  0  0  0
    2.0204   -1.4518    0.4773 C   0  0  0  0  0  0  0  0  0  0  0  0
    1.4811    0.8952    1.3219 C   0  0  0  0  0  0  0  0  0  0  0  0
   -1.6021   -1.8071   -0.9065 C   0  0  0  0  0  0  0  0  0  0  0  0
   -1.0378   -1.3519    1.4286 C   0  0  0  0  0  0  0  0  0  0  0  0
   -2.8032    1.0240   -1.2198 C   0  0  0  0  0  0  0  0  0  0  0  0
   -1.9572    1.6451    1.0363 C   0  0  0  0  0  0  0  0  0  0  0  0
   -3.6805   -0.1287    0.7859 C   0  0  0  0  0  0  0  0  0  0  0  0
    2.2279    1.9990   -1.4399 C   0  0  0  0  0  0  0  0  0  0  0  0
    2.0976   -2.5188   -0.6169 C   0  0  0  0  0  0  0  0  0  0  0  0
    2.7761    0.9600    2.1326 C   0  0  0  0  0  0  0  0  0  0  0  0
  1  5  2  0
  2  4  1  0
  2  5  1  0
  2  9  1  0
  2 10  1  0
  3  5  1  0
  3  6  1  0
  3  7  1  0
  3  8  1  0
  4 11  1  0
  4 12  1  0
  4 13  1  0
  6 14  1  0
  7 15  1  0
  8 16  1  0
M  END
>  <PUBCHEM_COMPOUND_CID>  (1) 
27874

>  <PUBCHEM_CONFORMER_RMSD>  (1) 
0.8

>  <PUBCHEM_CONFORMER_DIVERSEORDER>  (1) 
1
5
4
3
2

>  <PUBCHEM_MMFF94_PARTIAL_CHARGES>  (1) 
4
1 -0.57
2 0.06
3 0.06
5 0.45

>  <PUBCHEM_EFFECTIVE_ROTOR_COUNT>  (1) 
6

>  <PUBCHEM_PHARMACOPHORE_FEATURES>  (1) 
7
1 1 acceptor
1 14 hydrophobe
1 15 hydrophobe
1 16 hydrophobe
3 2 9 10 hydrophobe
4 3 6 7 8 hydrophobe
4 4 11 12 13 hydrophobe

>  <PUBCHEM_HEAVY_ATOM_COUNT>  (1) 
16

>  <PUBCHEM_ATOM_DEF_STEREO_COUNT>  (1) 
0

>  <PUBCHEM_ATOM_UDEF_STEREO_COUNT>  (1) 
0

>  <PUBCHEM_BOND_DEF_STEREO_COUNT>  (1) 
0

>  <PUBCHEM_BOND_UDEF_STEREO_COUNT>  (1) 
0

>  <PUBCHEM_ISOTOPIC_ATOM_COUNT>  (1) 
0

>  <PUBCHEM_COMPONENT_COUNT>  (1) 
1

>  <PUBCHEM_CACTVS_TAUTO_COUNT>  (1) 
1

>  <PUBCHEM_CONFORMER_ID>  (1) 
00006CE200000001

>  <PUBCHEM_MMFF94_ENERGY>  (1) 
71.0226

>  <PUBCHEM_FEATURE_SELFOVERLAP>  (1) 
35.613

>  <PUBCHEM_SHAPE_FINGERPRINT>  (1) 
12251169 10 17458896149906686008
12326174 3 17168144555143369864
12423570 1 13036143560875993306
12491281 212 18116742714153796892
12524768 44 17676490565915767055
12932764 1 17988926673652549447
13132413 78 17550119060455591300
13134695 92 17843672262633864896
13693222 7 18411702097119561945
14648413 74 18114195132890297334
14787075 74 15514498067708268186
14817 1 16302852925830509094
15775835 57 17989210364536979363
15852999 172 18122026962578306178
16945 1 18131624573933686945
18186145 218 18262238794660999605
18511873 20 17980489957460226891
18981168 100 18270399519943849860
20082192 1 18040425607705968334
20233049 118 17631186198953735624
20511035 2 18341613685473405086
20559304 39 18060141981437885058
20715346 28 18261949657278088031
21069387 34 16700877298531149431
21524375 3 17317624406475284972
230 275 18342453755285457000
23236772 104 17098349884525727753
23419403 2 17622128319411611552
23526113 38 17898311432051316850
23557571 272 17416115316321500363
2748010 2 17827904149142038300
305870 269 18058149765616768122
3286 77 18059009471913821545
5084963 1 18189061914892050931
528886 8 18114758117393406502
7364860 26 18335152989687264236
8030462 33 18202002118441448037
81228 2 17626660866665409383

>  <PUBCHEM_SHAPE_MULTIPOLES>  (1) 
323.4
4.94
2.15
1.78
1.75
0.79
0.24
-0.94
0.51
-0.94
-0.28
-0.72
-0.63
0.07

>  <PUBCHEM_SHAPE_SELFOVERLAP>  (1) 
613.567

>  <PUBCHEM_SHAPE_VOLUME>  (1) 
201.9

>  <PUBCHEM_COORDINATE_TYPE>  (1) 
2
5
10

$$$$
