27878
     RDKit          3D

 12 13  0  0  0  0  0  0  0  0999 V2000
   -2.6405   -1.7466   -0.0008 O   0  0  0  0  0  0  0  0  0  0  0  0
   -0.5025    0.9850    0.0004 C   0  0  0  0  0  0  0  0  0  0  0  0
   -1.7809    1.7597    0.0005 C   0  0  0  0  0  0  0  0  0  0  0  0
   -0.7044   -0.3896    0.0001 C   0  0  0  0  0  0  0  0  0  0  0  0
   -2.8759    0.6786   -0.0001 C   0  0  0  0  0  0  0  0  0  0  0  0
   -2.1370   -0.6382   -0.0002 C   0  0  0  0  0  0  0  0  0  0  0  0
    0.7878    1.4895    0.0004 C   0  0  0  0  0  0  0  0  0  0  0  0
    1.8587    0.5892    0.0003 C   0  0  0  0  0  0  0  0  0  0  0  0
    0.3323   -1.3041    0.0001 C   0  0  0  0  0  0  0  0  0  0  0  0
    1.6319   -0.7976    0.0002 C   0  0  0  0  0  0  0  0  0  0  0  0
    3.2521    1.1307   -0.0016 C   0  0  0  0  0  0  0  0  0  0  0  0
    2.7783   -1.7566    0.0008 C   0  0  0  0  0  0  0  0  0  0  0  0
  1  6  2  0
  2  3  1  0
  2  4  2  0
  2  7  1  0
  3  5  1  0
  4  6  1  0
  4  9  1  0
  5  6  1  0
  7  8  2  0
  8 10  1  0
  8 11  1  0
  9 10  2  0
 10 12  1  0
M  END
>  <PUBCHEM_COMPOUND_CID>  (1) 
27878

>  <PUBCHEM_CONFORMER_RMSD>  (1) 
0.4

>  <PUBCHEM_CONFORMER_DIVERSEORDER>  (1) 
1

>  <PUBCHEM_MMFF94_PARTIAL_CHARGES>  (1) 
14
1 -0.57
10 -0.14
11 0.14
12 0.14
17 0.15
18 0.15
2 -0.14
3 0.14
4 0.09
5 0.06
6 0.42
7 -0.15
8 -0.14
9 -0.15

>  <PUBCHEM_EFFECTIVE_ROTOR_COUNT>  (1) 
0.4

>  <PUBCHEM_PHARMACOPHORE_FEATURES>  (1) 
3
1 1 acceptor
5 2 3 4 5 6 rings
6 2 4 7 8 9 10 rings

>  <PUBCHEM_HEAVY_ATOM_COUNT>  (1) 
12

>  <PUBCHEM_ATOM_DEF_STEREO_COUNT>  (1) 
0

>  <PUBCHEM_ATOM_UDEF_STEREO_COUNT>  (1) 
0

>  <PUBCHEM_BOND_DEF_STEREO_COUNT>  (1) 
0

>  <PUBCHEM_BOND_UDEF_STEREO_COUNT>  (1) 
0

>  <PUBCHEM_ISOTOPIC_ATOM_COUNT>  (1) 
0

>  <PUBCHEM_COMPONENT_COUNT>  (1) 
1

>  <PUBCHEM_CACTVS_TAUTO_COUNT>  (1) 
2

>  <PUBCHEM_CONFORMER_ID>  (1) 
00006CE600000001

>  <PUBCHEM_MMFF94_ENERGY>  (1) 
30.7892

>  <PUBCHEM_FEATURE_SELFOVERLAP>  (1) 
15.303

>  <PUBCHEM_SHAPE_FINGERPRINT>  (1) 
10608611 8 18410570660979120052
10967382 1 18410575067493772229
11206711 2 18337672026439794245
12524768 44 18267590117400055095
12897270 3 18410855503104338541
12932764 1 17459186296205887818
13380535 21 18339654372795180400
14325111 11 18410856564056310016
15536298 74 18343019965688540662
15775835 57 18341338850357722521
16945 1 18266741466053311653
17990270 104 18409729564743237306
193761 8 18338797818919492100
19973954 147 18410576167037139460
20201158 50 18335979878049843371
20871998 184 18201722885764850231
21501502 16 18411418392912263442
21501925 9 18337657659979949714
2334 1 18410573998189411778
23402655 69 18341316818067116069
23463225 33 18336263457850458506
23552423 10 18333453131572742606
23559900 14 18054228727312735766
2748010 2 18410855438785213774
3312278 4 18411703226669632601
369184 2 18410573959576904169
5084963 1 18272086050394751250
528886 8 18411132554328057385
53812653 166 18272083937534923680
63268167 104 18411985740928221768
7364860 26 18343019957040564302
8809292 202 18334020453755782003

>  <PUBCHEM_SHAPE_MULTIPOLES>  (1) 
241.09
4.61
2.01
0.61
0.54
0.17
0
0.24
0
0.15
0
0.02
-0.01
0

>  <PUBCHEM_SHAPE_SELFOVERLAP>  (1) 
522.247

>  <PUBCHEM_SHAPE_VOLUME>  (1) 
136

>  <PUBCHEM_COORDINATE_TYPE>  (1) 
2
5
10

$$$$
