27889
     RDKit          3D

  8  7  0  0  0  0  0  0  0  0999 V2000
    1.7738    0.3526    0.0038 O   0  0  0  0  0  0  0  0  0  0  0  0
   -1.7787   -0.3625    0.0036 O   0  0  0  0  0  0  0  0  0  0  0  0
    2.8803   -0.5368    0.0038 C   0  0  0  0  0  0  0  0  0  0  0  0
   -2.8758    0.5377    0.0040 C   0  0  0  0  0  0  0  0  0  0  0  0
    4.1613    0.2696   -0.0118 C   0  0  0  0  0  0  0  0  0  0  0  0
   -4.1648   -0.2557   -0.0118 C   0  0  0  0  0  0  0  0  0  0  0  0
    0.5915   -0.3117    0.0041 C   0  0  0  0  0  0  0  0  0  0  0  0
   -0.5876    0.3069    0.0043 C   0  0  0  0  0  0  0  0  0  0  0  0
  1  3  1  0
  1  7  1  0
  2  4  1  0
  2  8  1  0
  3  5  1  0
  4  6  1  0
  7  8  2  0
M  END
>  <PUBCHEM_COMPOUND_CID>  (1) 
27889

>  <PUBCHEM_CONFORMER_RMSD>  (1) 
0.6

>  <PUBCHEM_CONFORMER_DIVERSEORDER>  (1) 
1
7
12
13
11
6
4
5
14
9
10
8
2
3

>  <PUBCHEM_MMFF94_PARTIAL_CHARGES>  (1) 
8
1 -0.36
19 0.15
2 -0.36
20 0.15
3 0.28
4 0.28
7 -0.07
8 -0.07

>  <PUBCHEM_EFFECTIVE_ROTOR_COUNT>  (1) 
4

>  <PUBCHEM_PHARMACOPHORE_FEATURES>  (1) 
2
1 1 acceptor
1 2 acceptor

>  <PUBCHEM_HEAVY_ATOM_COUNT>  (1) 
8

>  <PUBCHEM_ATOM_DEF_STEREO_COUNT>  (1) 
0

>  <PUBCHEM_ATOM_UDEF_STEREO_COUNT>  (1) 
0

>  <PUBCHEM_BOND_DEF_STEREO_COUNT>  (1) 
0

>  <PUBCHEM_BOND_UDEF_STEREO_COUNT>  (1) 
1

>  <PUBCHEM_ISOTOPIC_ATOM_COUNT>  (1) 
0

>  <PUBCHEM_COMPONENT_COUNT>  (1) 
1

>  <PUBCHEM_CACTVS_TAUTO_COUNT>  (1) 
1

>  <PUBCHEM_CONFORMER_ID>  (1) 
00006CF100000001

>  <PUBCHEM_MMFF94_ENERGY>  (1) 
14.4266

>  <PUBCHEM_FEATURE_SELFOVERLAP>  (1) 
10.149

>  <PUBCHEM_SHAPE_FINGERPRINT>  (1) 
11062470 55 18410856555355384768
12932764 1 15697704913940282509
14325111 11 18410856533875312514
190213 19 15791734091780456475
20719005 15 18410573989662754730
5460574 1 9223228546292383755

>  <PUBCHEM_SHAPE_MULTIPOLES>  (1) 
152.9
8.19
0.74
0.59
0.02
0
0
0.02
0.04
0
0
0
0
-0.01

>  <PUBCHEM_SHAPE_SELFOVERLAP>  (1) 
271.521

>  <PUBCHEM_SHAPE_VOLUME>  (1) 
100.2

>  <PUBCHEM_COORDINATE_TYPE>  (1) 
2
5
10

$$$$
