27883
     RDKit          3D

  8  8  0  0  1  0  0  0  0  0999 V2000
   -0.8291   -0.8323    0.4896 S   0  0  0  0  0  0  0  0  0  0  0  0
    0.7693    1.7139    0.2885 S   0  0  0  0  0  0  0  0  0  0  0  0
   -1.9979   -1.5426   -0.1273 O   0  0  0  0  0  0  0  0  0  0  0  0
   -0.6869    0.8010   -0.3151 C   0  0  0  0  0  0  0  0  0  0  0  0
    1.9301   -0.8252    0.2374 C   0  0  0  0  0  0  0  0  0  0  0  0
    0.6750   -1.5356   -0.2492 C   0  0  0  0  0  0  0  0  0  0  0  0
    2.0758    0.5956   -0.3001 C   0  0  0  0  0  0  0  0  0  0  0  0
   -1.9364    1.6253   -0.0238 C   0  0  0  0  0  0  0  0  0  0  0  0
  1  3  2  0
  1  4  1  0
  1  6  1  0
  2  4  1  0
  2  7  1  0
  4  8  1  0
  5  6  1  0
  5  7  1  0
M  END
>  <PUBCHEM_COMPOUND_CID>  (1) 
27883

>  <PUBCHEM_CONFORMER_RMSD>  (1) 
0.4

>  <PUBCHEM_CONFORMER_DIVERSEORDER>  (1) 
7
5
2
8
3
6
1
4

>  <PUBCHEM_MMFF94_PARTIAL_CHARGES>  (1) 
6
1 0.11
2 -0.46
3 -0.5
4 0.42
6 0.19
7 0.23

>  <PUBCHEM_EFFECTIVE_ROTOR_COUNT>  (1) 
1

>  <PUBCHEM_PHARMACOPHORE_FEATURES>  (1) 
2
1 3 acceptor
6 1 2 4 5 6 7 rings

>  <PUBCHEM_HEAVY_ATOM_COUNT>  (1) 
8

>  <PUBCHEM_ATOM_DEF_STEREO_COUNT>  (1) 
0

>  <PUBCHEM_ATOM_UDEF_STEREO_COUNT>  (1) 
2

>  <PUBCHEM_BOND_DEF_STEREO_COUNT>  (1) 
0

>  <PUBCHEM_BOND_UDEF_STEREO_COUNT>  (1) 
0

>  <PUBCHEM_ISOTOPIC_ATOM_COUNT>  (1) 
0

>  <PUBCHEM_COMPONENT_COUNT>  (1) 
1

>  <PUBCHEM_CACTVS_TAUTO_COUNT>  (1) 
1

>  <PUBCHEM_CONFORMER_ID>  (1) 
00006CEB00000007

>  <PUBCHEM_MMFF94_ENERGY>  (1) 
4.857

>  <PUBCHEM_FEATURE_SELFOVERLAP>  (1) 
10.148

>  <PUBCHEM_SHAPE_FINGERPRINT>  (1) 
18185500 45 18264768749119909370
21040471 1 18266177219151713704
23235685 24 18122620557402887808
23552423 10 18259706713592002118
241688 4 18336264625670372984
2748010 2 18411700984881184004
29004967 10 17829330533445374419
5084963 1 17986964126985549698
66348 1 18265897045444533732

>  <PUBCHEM_SHAPE_MULTIPOLES>  (1) 
166.47
2.74
2.18
0.71
0.04
0.02
0.04
-0.16
-0.11
0.47
0.03
-0.02
-0.01
0.03

>  <PUBCHEM_SHAPE_SELFOVERLAP>  (1) 
289.292

>  <PUBCHEM_SHAPE_VOLUME>  (1) 
109.7

>  <PUBCHEM_COORDINATE_TYPE>  (1) 
2
5
10

$$$$
