27897
     RDKit          3D

 17 17  0  0  0  0  0  0  0  0999 V2000
    0.0765   -2.1097   -1.1580 Cl  0  0  0  0  0  0  0  0  0  0  0  0
   -4.4920    1.6853    0.7661 Cl  0  0  0  0  0  0  0  0  0  0  0  0
   -4.8687   -1.5294    0.8241 Cl  0  0  0  0  0  0  0  0  0  0  0  0
    0.1340    0.8948   -1.0960 O   0  0  0  0  0  0  0  0  0  0  0  0
    0.9193    0.8225    1.1055 O   0  0  0  0  0  0  0  0  0  0  0  0
    3.8888   -0.1397    0.0154 C   0  0  0  0  0  0  0  0  0  0  0  0
    3.5873    1.3616    0.0576 C   0  0  0  0  0  0  0  0  0  0  0  0
    5.1964   -0.4626    0.7389 C   0  0  0  0  0  0  0  0  0  0  0  0
    2.3017    1.7194   -0.6875 C   0  0  0  0  0  0  0  0  0  0  0  0
    5.5238   -1.9454    0.6623 C   0  0  0  0  0  0  0  0  0  0  0  0
    1.0679    1.0867   -0.0799 C   0  0  0  0  0  0  0  0  0  0  0  0
   -1.0513    0.3121   -0.6417 C   0  0  0  0  0  0  0  0  0  0  0  0
   -1.1850   -1.0592   -0.6275 C   0  0  0  0  0  0  0  0  0  0  0  0
   -2.0556    1.1569   -0.2183 C   0  0  0  0  0  0  0  0  0  0  0  0
   -3.2505    0.6027    0.2411 C   0  0  0  0  0  0  0  0  0  0  0  0
   -2.3799   -1.6136   -0.1682 C   0  0  0  0  0  0  0  0  0  0  0  0
   -3.4126   -0.7826    0.2660 C   0  0  0  0  0  0  0  0  0  0  0  0
  1 13  1  0
  2 15  1  0
  3 17  1  0
  4 11  1  0
  4 12  1  0
  5 11  2  0
  6  7  1  0
  6  8  1  0
  7  9  1  0
  8 10  1  0
  9 11  1  0
 12 13  2  0
 12 14  1  0
 13 16  1  0
 14 15  2  0
 15 17  1  0
 16 17  2  0
M  END
>  <PUBCHEM_COMPOUND_CID>  (1) 
27897

>  <PUBCHEM_CONFORMER_RMSD>  (1) 
0.8

>  <PUBCHEM_CONFORMER_DIVERSEORDER>  (1) 
1
57
117
100
116
19
90
41
48
5
66
4
91
64
120
95
83
27
112
108
25
16
87
75
68
72
60
6
96
107
47
39
71
89
31
70
21
30
73
97
9
43
40
28
121
2
118
110
115
10
33
37
80
45
119
14
62
123
85
54
20
94
46
63
106
69
22
15
51
23
35
29
11
88
122
74
59
76
8
102
81
113
12
82
49
38
84
101
50
3
98
24
32
114
104
103
7
61
93
53
44
77
34
67
55
78
17
99
58
109
86
79
56
65
36
92
26
52
111
42
105
13
18

>  <PUBCHEM_MMFF94_PARTIAL_CHARGES>  (1) 
15
1 -0.18
11 0.66
12 0.08
13 0.18
14 -0.15
15 0.18
16 -0.15
17 0.18
2 -0.18
29 0.15
3 -0.18
30 0.15
4 -0.23
5 -0.57
9 0.06

>  <PUBCHEM_EFFECTIVE_ROTOR_COUNT>  (1) 
6

>  <PUBCHEM_PHARMACOPHORE_FEATURES>  (1) 
4
1 10 hydrophobe
1 5 acceptor
4 6 7 8 9 hydrophobe
6 12 13 14 15 16 17 rings

>  <PUBCHEM_HEAVY_ATOM_COUNT>  (1) 
17

>  <PUBCHEM_ATOM_DEF_STEREO_COUNT>  (1) 
0

>  <PUBCHEM_ATOM_UDEF_STEREO_COUNT>  (1) 
0

>  <PUBCHEM_BOND_DEF_STEREO_COUNT>  (1) 
0

>  <PUBCHEM_BOND_UDEF_STEREO_COUNT>  (1) 
0

>  <PUBCHEM_ISOTOPIC_ATOM_COUNT>  (1) 
0

>  <PUBCHEM_COMPONENT_COUNT>  (1) 
1

>  <PUBCHEM_CACTVS_TAUTO_COUNT>  (1) 
1

>  <PUBCHEM_CONFORMER_ID>  (1) 
00006CF900000001

>  <PUBCHEM_MMFF94_ENERGY>  (1) 
29.434

>  <PUBCHEM_FEATURE_SELFOVERLAP>  (1) 
20.297

>  <PUBCHEM_SHAPE_FINGERPRINT>  (1) 
10014705 185 11167951251146635819
10062212 137 18342450456629364854
11128504 68 15647062551617635078
11543360 7 8358263648332969492
11961588 58 12535079542763716627
12107183 9 18265337209411403048
12403260 363 18129940199930745733
12592029 89 18341341040891556170
12670546 177 8862951558376409251
12788726 201 17632589227726102864
12839892 36 17988646354102001335
12892183 10 18267584800246444776
13167823 11 18334575763299623512
13533116 47 18262520432482574803
13551218 46 18410292514670733074
13675066 3 17918274251275020956
14251764 18 18413109480455899800
14251764 30 15936416619451011624
14420673 8 18265054618191691922
14466204 15 17917434168293530041
14528608 73 9727629514720612186
15196674 1 18409729573512461430
15209289 33 18040432204955284818
16110190 28 18411971461233061890
16945 1 18198076970169503623
17804303 29 18412266155137706972
17959699 21 10735612279303802186
1813 80 17240481412360660452
19422 9 18187930637317180956
20281475 54 18335698411974186964
20871999 31 8502373300549343929
212916 134 15984829250240899486
21403212 168 18266172830069826769
22926399 37 9583522031536724590
22950370 63 18113902645955114572
23352939 185 11530488813452446535
23402539 116 18201154464534484965
23559900 14 17774459230258936772
238078 22 11386372538823730317
2748010 2 18267608852912537783
296302 2 10952055558447091632
328317 168 11312054361769089470
3472631 163 9510923465030510747
351380 3 18041274384192676738
42 15 18408887347421118132
465052 167 18189063156148584267
5104073 3 18412266159406437560
559249 180 18336260154651557251
56633871 153 18271800169415546254
5924683 9 17702932772650100535
7097593 13 18267579294441412308

>  <PUBCHEM_SHAPE_MULTIPOLES>  (1) 
343.72
11.09
2.27
1.03
8.23
0.49
0.04
2.88
-4.75
-0.08
0.11
0.03
0.14
-0.65

>  <PUBCHEM_SHAPE_SELFOVERLAP>  (1) 
671.561

>  <PUBCHEM_SHAPE_VOLUME>  (1) 
209.5

>  <PUBCHEM_COORDINATE_TYPE>  (1) 
2
5
10

$$$$
