27895
     RDKit          3D

 26 27  0  0  0  0  0  0  0  0999 V2000
   -1.9349    0.8816   -1.4014 S   0  0  0  0  0  0  0  0  0  0  0  0
    1.5237   -0.3937   -0.1787 O   0  0  0  0  0  0  0  0  0  0  0  0
   -2.0230    0.0874   -2.5989 O   0  0  0  0  0  0  0  0  0  0  0  0
   -3.0941    1.2516   -0.6318 O   0  0  0  0  0  0  0  0  0  0  0  0
    0.5387   -0.4694   -2.2560 O   0  0  0  0  0  0  0  0  0  0  0  0
    5.1673   -0.9583   -0.2535 N   0  0  0  0  0  0  0  0  0  0  0  0
   -0.8305   -0.0059   -0.2747 C   0  0  0  0  0  0  0  0  0  0  0  0
   -1.5243   -1.3215    0.1262 C   0  0  0  0  0  0  0  0  0  0  0  0
   -0.6218    1.0178    0.8572 C   0  0  0  0  0  0  0  0  0  0  0  0
   -1.0004    2.3405   -1.7558 C   0  0  0  0  0  0  0  0  0  0  0  0
    0.4625   -0.3286   -1.0411 C   0  0  0  0  0  0  0  0  0  0  0  0
   -2.7066   -1.6447   -0.4882 C   0  0  0  0  0  0  0  0  0  0  0  0
   -1.5266    1.0393    1.8872 C   0  0  0  0  0  0  0  0  0  0  0  0
   -0.9262   -2.1060    1.0786 C   0  0  0  0  0  0  0  0  0  0  0  0
    0.4591    1.8580    0.7809 C   0  0  0  0  0  0  0  0  0  0  0  0
   -1.7418    3.2577   -2.7025 C   0  0  0  0  0  0  0  0  0  0  0  0
    2.7974   -0.6462   -0.7803 C   0  0  0  0  0  0  0  0  0  0  0  0
   -3.3348   -2.8360   -0.1249 C   0  0  0  0  0  0  0  0  0  0  0  0
   -1.3377    1.9661    2.9123 C   0  0  0  0  0  0  0  0  0  0  0  0
   -1.5545   -3.2973    1.4418 C   0  0  0  0  0  0  0  0  0  0  0  0
    0.6481    2.7847    1.8062 C   0  0  0  0  0  0  0  0  0  0  0  0
    3.8543   -0.6860    0.3118 C   0  0  0  0  0  0  0  0  0  0  0  0
   -2.7587   -3.6622    0.8402 C   0  0  0  0  0  0  0  0  0  0  0  0
   -0.2503    2.8387    2.8719 C   0  0  0  0  0  0  0  0  0  0  0  0
    5.5353    0.0708   -1.2290 C   0  0  0  0  0  0  0  0  0  0  0  0
    6.1797   -1.0385    0.8025 C   0  0  0  0  0  0  0  0  0  0  0  0
  1  3  2  0
  1  4  2  0
  1  7  1  0
  1 10  1  0
  2 11  1  0
  2 17  1  0
  5 11  2  0
  6 22  1  0
  6 25  1  0
  6 26  1  0
  7  8  1  0
  7  9  1  0
  7 11  1  0
  8 12  2  0
  8 14  1  0
  9 13  2  0
  9 15  1  0
 10 16  1  0
 12 18  1  0
 13 19  1  0
 14 20  2  0
 15 21  2  0
 17 22  1  0
 18 23  2  0
 19 24  2  0
 20 23  1  0
 21 24  1  0
M  END
>  <PUBCHEM_COMPOUND_CID>  (1) 
27895

>  <PUBCHEM_CONFORMER_RMSD>  (1) 
1

>  <PUBCHEM_CONFORMER_DIVERSEORDER>  (1) 
1
19
3
9
15
25
12
27
20
16
17
4
26
2
5
6
23
7
14
18
21
11
22
8
13
24
10

>  <PUBCHEM_MMFF94_PARTIAL_CHARGES>  (1) 
35
1 1.09
10 0.11
11 0.66
12 -0.15
13 -0.15
14 -0.15
15 -0.15
17 0.28
18 -0.15
19 -0.15
2 -0.43
20 -0.15
21 -0.15
22 0.27
23 -0.15
24 -0.15
25 0.27
26 0.27
29 0.15
3 -0.65
30 0.15
31 0.15
32 0.15
38 0.15
39 0.15
4 -0.65
40 0.15
41 0.15
44 0.15
45 0.15
5 -0.57
6 -0.81
7 0.45
8 -0.14
9 -0.14

>  <PUBCHEM_EFFECTIVE_ROTOR_COUNT>  (1) 
9

>  <PUBCHEM_PHARMACOPHORE_FEATURES>  (1) 
6
1 3 acceptor
1 4 acceptor
1 5 acceptor
1 6 cation
6 8 12 14 18 20 23 rings
6 9 13 15 19 21 24 rings

>  <PUBCHEM_HEAVY_ATOM_COUNT>  (1) 
26

>  <PUBCHEM_ATOM_DEF_STEREO_COUNT>  (1) 
0

>  <PUBCHEM_ATOM_UDEF_STEREO_COUNT>  (1) 
0

>  <PUBCHEM_BOND_DEF_STEREO_COUNT>  (1) 
0

>  <PUBCHEM_BOND_UDEF_STEREO_COUNT>  (1) 
0

>  <PUBCHEM_ISOTOPIC_ATOM_COUNT>  (1) 
0

>  <PUBCHEM_COMPONENT_COUNT>  (1) 
1

>  <PUBCHEM_CACTVS_TAUTO_COUNT>  (1) 
1

>  <PUBCHEM_CONFORMER_ID>  (1) 
00006CF700000001

>  <PUBCHEM_MMFF94_ENERGY>  (1) 
96.3936

>  <PUBCHEM_FEATURE_SELFOVERLAP>  (1) 
30.472

>  <PUBCHEM_SHAPE_FINGERPRINT>  (1) 
10165383 225 18191015713054184149
10906281 52 17702686370539891609
11443803 9 17025408038289490229
11578080 2 18191026905322212813
12082328 90 17915767348675567356
12293681 160 17841130182992266249
12293681 25 17542473464808737719
12293681 4 17989213625208389537
12788726 201 17844239632013617408
13134695 92 17770226269110259531
14713325 29 17605276186044002701
16945 1 18044632257811026429
17980427 23 15912505604970980947
18927931 339 17560804291254859838
19765921 60 17907841921599669397
20600515 1 18267889270709985215
20681651 13 18260269625476443018
2306618 200 18336549326489139668
23419403 2 18126273375669698335
23559900 14 18044084889730150614
298252 57 17387404636779530717
376196 1 16337257675261079856
394222 165 17189526474216940661
469060 322 17823441394516814738
484985 159 18340213994645430626
497634 4 18338537304095356060
57527306 92 17131263533856022777
5845 1 15019363049483470767
59755656 520 18122916334662775242
81228 2 17984454908222738667
9981440 41 17416119478445938990

>  <PUBCHEM_SHAPE_MULTIPOLES>  (1) 
510.46
7.44
4.13
2.8
18.6
0.43
-0.32
5.84
1.26
-4.22
-1.41
-1.38
-3.01
1.06

>  <PUBCHEM_SHAPE_SELFOVERLAP>  (1) 
1067.62

>  <PUBCHEM_SHAPE_VOLUME>  (1) 
290.5

>  <PUBCHEM_COORDINATE_TYPE>  (1) 
2
5
10

$$$$
