27908
     RDKit          3D

 16 17  0  0  0  0  0  0  0  0999 V2000
    0.8236    3.4026    0.0317 S   0  0  0  0  0  0  0  0  0  0  0  0
   -2.0319    2.6324    0.0336 S   0  0  0  0  0  0  0  0  0  0  0  0
    0.0263    0.7874   -0.0171 N   0  0  0  0  0  0  0  0  0  0  0  0
   -0.8793   -0.3598   -0.0195 C   0  0  0  0  0  0  0  0  0  0  0  0
    1.4455    0.4388    0.0021 C   0  0  0  0  0  0  0  0  0  0  0  0
   -1.7286   -0.3556    1.2564 C   0  0  0  0  0  0  0  0  0  0  0  0
   -1.7624   -0.3238   -1.2715 C   0  0  0  0  0  0  0  0  0  0  0  0
    1.7620   -0.3874    1.2538 C   0  0  0  0  0  0  0  0  0  0  0  0
    1.8108   -0.3283   -1.2734 C   0  0  0  0  0  0  0  0  0  0  0  0
   -2.7423   -1.4987    1.2540 C   0  0  0  0  0  0  0  0  0  0  0  0
   -2.7755   -1.4674   -1.2708 C   0  0  0  0  0  0  0  0  0  0  0  0
    3.2223   -0.8362    1.2699 C   0  0  0  0  0  0  0  0  0  0  0  0
    3.2712   -0.7765   -1.2541 C   0  0  0  0  0  0  0  0  0  0  0  0
   -3.6159   -1.4737    0.0029 C   0  0  0  0  0  0  0  0  0  0  0  0
    3.5936   -1.5900   -0.0039 C   0  0  0  0  0  0  0  0  0  0  0  0
   -0.4195    2.1362    0.0059 C   0  0  0  0  0  0  0  0  0  0  0  0
  1 16  1  0
  2 16  2  0
  3  4  1  0
  3  5  1  0
  3 16  1  0
  4  6  1  0
  4  7  1  0
  5  8  1  0
  5  9  1  0
  6 10  1  0
  7 11  1  0
  8 12  1  0
  9 13  1  0
 10 14  1  0
 11 14  1  0
 12 15  1  0
 13 15  1  0
M  END
>  <PUBCHEM_COMPOUND_CID>  (1) 
27908

>  <PUBCHEM_CONFORMER_RMSD>  (1) 
0.6

>  <PUBCHEM_CONFORMER_DIVERSEORDER>  (1) 
4
5
12
8
11
3
7
9
2
6
10
1

>  <PUBCHEM_MMFF94_PARTIAL_CHARGES>  (1) 
7
1 -0.32
16 0.58
2 -0.38
3 -0.66
39 0.18
4 0.3
5 0.3

>  <PUBCHEM_EFFECTIVE_ROTOR_COUNT>  (1) 
5.4

>  <PUBCHEM_PHARMACOPHORE_FEATURES>  (1) 
4
1 2 acceptor
3 1 2 16 anion
6 4 6 7 10 11 14 rings
6 5 8 9 12 13 15 rings

>  <PUBCHEM_HEAVY_ATOM_COUNT>  (1) 
16

>  <PUBCHEM_ATOM_DEF_STEREO_COUNT>  (1) 
0

>  <PUBCHEM_ATOM_UDEF_STEREO_COUNT>  (1) 
0

>  <PUBCHEM_BOND_DEF_STEREO_COUNT>  (1) 
0

>  <PUBCHEM_BOND_UDEF_STEREO_COUNT>  (1) 
0

>  <PUBCHEM_ISOTOPIC_ATOM_COUNT>  (1) 
0

>  <PUBCHEM_COMPONENT_COUNT>  (1) 
1

>  <PUBCHEM_CACTVS_TAUTO_COUNT>  (1) 
1

>  <PUBCHEM_CONFORMER_ID>  (1) 
00006D0400000004

>  <PUBCHEM_MMFF94_ENERGY>  (1) 
41.4978

>  <PUBCHEM_FEATURE_SELFOVERLAP>  (1) 
20.297

>  <PUBCHEM_SHAPE_FINGERPRINT>  (1) 
10989021 7 18341899644374743697
11578080 2 17416947573942054257
12202030 40 17631457769835906726
12251169 10 15482673493705758422
12326174 3 18050003599435067065
12363563 72 18410284826541993254
12553582 1 18410865381550601526
12707595 3 18334575797279845947
12714826 92 18059025964583151870
13083527 12 18053638529168474880
13140716 1 18339922615289272048
13296908 3 18412537717361501366
13538477 17 17970356914460382528
13681431 1 18265891547913138965
14115302 16 17676483934744711719
14817 1 11281563070053181324
15906896 17 18119253852804003505
16752209 62 18261385595007355907
16945 1 18122906688024082960
1813 80 18272381892095219278
19766037 51 18186806919364435995
19868273 325 18410013195661778660
20361792 2 18412825819404243071
20645476 183 17534920579749492365
20645477 70 18122616425950635847
20671657 53 18336259132507291739
20711985 344 18338233739342322681
21296965 67 18411695513034813527
21524375 3 17402892219960884456
21731516 1 18410862087289261711
22112679 90 18339099110970641800
23402539 116 18261401001519322326
23419403 2 15659071438642700360
23526113 38 18043508694318919801
23557571 272 18343018848991911984
23559900 14 18054503609414069206
23598288 3 18265347130780088324
23598291 2 17986120832022382151
23598294 1 18338244756191724316
23728640 28 17832980555557093666
25 1 11747205810787890294
2748010 2 18342442734499816516
3082319 5 15719105868467229434
5845 1 9905096016628534285
7364860 26 18052823829548775352
81228 2 18267861692387841577
81539 233 17758393358957527628

>  <PUBCHEM_SHAPE_MULTIPOLES>  (1) 
331.99
5.8
2.99
1.41
1.54
3.59
-0.01
-4.4
-0.05
-0.95
0.05
0.11
-0.61
-0.02

>  <PUBCHEM_SHAPE_SELFOVERLAP>  (1) 
643.178

>  <PUBCHEM_SHAPE_VOLUME>  (1) 
202

>  <PUBCHEM_COORDINATE_TYPE>  (1) 
2
5
10

$$$$
