27909
     RDKit          3D

  6  5  0  0  1  0  0  0  0  0999 V2000
   -2.2070    0.8599    0.0930 N   0  0  0  0  0  0  0  0  0  0  0  0
    0.0615   -0.4070   -0.3394 C   0  0  0  0  0  0  0  0  0  0  0  0
   -0.0522   -1.8683    0.0904 C   0  0  0  0  0  0  0  0  0  0  0  0
    1.1661    0.2809    0.4164 C   0  0  0  0  0  0  0  0  0  0  0  0
   -1.2065    0.3023   -0.0952 C   0  0  0  0  0  0  0  0  0  0  0  0
    2.2381    0.8322   -0.1652 C   0  0  0  0  0  0  0  0  0  0  0  0
  1  5  3  0
  2  3  1  0
  2  4  1  0
  2  5  1  0
  4  6  2  0
M  END
>  <PUBCHEM_COMPOUND_CID>  (1) 
27909

>  <PUBCHEM_CONFORMER_RMSD>  (1) 
0.4

>  <PUBCHEM_CONFORMER_DIVERSEORDER>  (1) 
1
2

>  <PUBCHEM_MMFF94_PARTIAL_CHARGES>  (1) 
8
1 -0.56
11 0.15
12 0.15
13 0.15
2 0.34
4 -0.29
5 0.36
6 -0.3

>  <PUBCHEM_EFFECTIVE_ROTOR_COUNT>  (1) 
1

>  <PUBCHEM_PHARMACOPHORE_FEATURES>  (1) 
3
1 1 acceptor
1 3 hydrophobe
1 6 hydrophobe

>  <PUBCHEM_HEAVY_ATOM_COUNT>  (1) 
6

>  <PUBCHEM_ATOM_DEF_STEREO_COUNT>  (1) 
0

>  <PUBCHEM_ATOM_UDEF_STEREO_COUNT>  (1) 
1

>  <PUBCHEM_BOND_DEF_STEREO_COUNT>  (1) 
0

>  <PUBCHEM_BOND_UDEF_STEREO_COUNT>  (1) 
0

>  <PUBCHEM_ISOTOPIC_ATOM_COUNT>  (1) 
0

>  <PUBCHEM_COMPONENT_COUNT>  (1) 
1

>  <PUBCHEM_CACTVS_TAUTO_COUNT>  (1) 
1

>  <PUBCHEM_CONFORMER_ID>  (1) 
00006D0500000001

>  <PUBCHEM_MMFF94_ENERGY>  (1) 
2.2222

>  <PUBCHEM_FEATURE_SELFOVERLAP>  (1) 
15.223

>  <PUBCHEM_SHAPE_FINGERPRINT>  (1) 
16714656 1 18266182918478220630
20096714 4 18412259536577214448
21040471 1 18411696608182908736
23552449 1 17981041139335158320
23552449 11 17754728339041576603
24536 1 18123171670531878020
5943 1 11099829732215374982

>  <PUBCHEM_SHAPE_MULTIPOLES>  (1) 
118.5
2.6
1.48
0.66
0.36
0.86
0
-1.42
0.01
-0.3
-0.04
0.07
0.01
-0.05

>  <PUBCHEM_SHAPE_SELFOVERLAP>  (1) 
213.69

>  <PUBCHEM_SHAPE_VOLUME>  (1) 
74.9

>  <PUBCHEM_COORDINATE_TYPE>  (1) 
2
5
10

$$$$
