27905
     RDKit          3D

 10 10  0  0  0  0  0  0  0  0999 V2000
    1.6159   -0.2350   -0.6378 O   0  0  0  0  0  0  0  0  0  0  0  0
    0.5435    1.2419    0.8085 O   0  0  0  0  0  0  0  0  0  0  0  0
   -0.7186   -0.1372   -0.7035 C   0  0  0  0  0  0  0  0  0  0  0  0
   -1.8223    0.9231   -0.7057 C   0  0  0  0  0  0  0  0  0  0  0  0
   -1.2762   -1.3311    0.0816 C   0  0  0  0  0  0  0  0  0  0  0  0
   -2.7158    0.5487    0.4674 C   0  0  0  0  0  0  0  0  0  0  0  0
   -2.7173   -0.9684    0.4239 C   0  0  0  0  0  0  0  0  0  0  0  0
    0.5350    0.3872   -0.0681 C   0  0  0  0  0  0  0  0  0  0  0  0
    2.8329    0.1812   -0.1343 C   0  0  0  0  0  0  0  0  0  0  0  0
    3.7229   -0.6104    0.4680 C   0  0  0  0  0  0  0  0  0  0  0  0
  1  8  1  0
  1  9  1  0
  2  8  2  0
  3  4  1  0
  3  5  1  0
  3  8  1  0
  4  6  1  0
  5  7  1  0
  6  7  1  0
  9 10  2  0
M  END
>  <PUBCHEM_COMPOUND_CID>  (1) 
27905

>  <PUBCHEM_CONFORMER_RMSD>  (1) 
0.6

>  <PUBCHEM_CONFORMER_DIVERSEORDER>  (1) 
1
5
15
4
14
16
10
2
6
13
3
11
7
12
8
17
9

>  <PUBCHEM_MMFF94_PARTIAL_CHARGES>  (1) 
9
1 -0.23
10 -0.3
2 -0.57
20 0.15
21 0.15
22 0.15
3 0.06
8 0.66
9 -0.07

>  <PUBCHEM_EFFECTIVE_ROTOR_COUNT>  (1) 
4

>  <PUBCHEM_PHARMACOPHORE_FEATURES>  (1) 
2
1 2 acceptor
5 3 4 5 6 7 rings

>  <PUBCHEM_HEAVY_ATOM_COUNT>  (1) 
10

>  <PUBCHEM_ATOM_DEF_STEREO_COUNT>  (1) 
0

>  <PUBCHEM_ATOM_UDEF_STEREO_COUNT>  (1) 
0

>  <PUBCHEM_BOND_DEF_STEREO_COUNT>  (1) 
0

>  <PUBCHEM_BOND_UDEF_STEREO_COUNT>  (1) 
0

>  <PUBCHEM_ISOTOPIC_ATOM_COUNT>  (1) 
0

>  <PUBCHEM_COMPONENT_COUNT>  (1) 
1

>  <PUBCHEM_CACTVS_TAUTO_COUNT>  (1) 
1

>  <PUBCHEM_CONFORMER_ID>  (1) 
00006D0100000001

>  <PUBCHEM_MMFF94_ENERGY>  (1) 
18.7966

>  <PUBCHEM_FEATURE_SELFOVERLAP>  (1) 
10.148

>  <PUBCHEM_SHAPE_FINGERPRINT>  (1) 
10857977 72 18201998850029267106
11062470 55 14979955856626577721
124424 183 18342167839322942740
12897270 3 11242246385390334467
12932764 1 17603579721238235132
13024252 1 14418132907414504173
14325111 11 18259985972444637934
14390081 3 10952053351018576286
15310529 11 17894916256160946316
20201158 50 18342739598259744918
20281407 28 18260551155549158978
20645464 45 18131354098247057983
23402539 116 18130781249269628333
23552423 10 17969787581858258573
29004967 10 17918000481237400806
3248919 1 18273217490957118332
369184 2 18412260644588976167
5084963 1 18335702788508905605

>  <PUBCHEM_SHAPE_MULTIPOLES>  (1) 
194.06
5.31
1.19
0.85
3.95
0.13
0
0.93
-0.8
-0.53
-0.09
-0.07
-0.09
0.07

>  <PUBCHEM_SHAPE_SELFOVERLAP>  (1) 
384.394

>  <PUBCHEM_SHAPE_VOLUME>  (1) 
115.8

>  <PUBCHEM_COORDINATE_TYPE>  (1) 
2
5
10

$$$$
