27904
     RDKit          3D

 11 10  0  0  0  0  0  0  0  0999 V2000
    2.5230    0.1615   -0.2171 O   0  0  0  0  0  0  0  0  0  0  0  0
   -2.3882    0.4095   -0.1465 C   0  0  0  0  0  0  0  0  0  0  0  0
   -1.1681   -0.4931    0.0486 C   0  0  0  0  0  0  0  0  0  0  0  0
   -3.7210   -0.3135    0.0679 C   0  0  0  0  0  0  0  0  0  0  0  0
    0.1323    0.2832   -0.1540 C   0  0  0  0  0  0  0  0  0  0  0  0
   -4.9376    0.6048   -0.0545 C   0  0  0  0  0  0  0  0  0  0  0  0
    1.3521   -0.6146   -0.0033 C   0  0  0  0  0  0  0  0  0  0  0  0
   -6.2290   -0.1443    0.2374 C   0  0  0  0  0  0  0  0  0  0  0  0
    3.7011   -0.6198   -0.0705 C   0  0  0  0  0  0  0  0  0  0  0  0
    4.8884    0.2534   -0.3073 C   0  0  0  0  0  0  0  0  0  0  0  0
    5.8471    0.4728    0.5993 C   0  0  0  0  0  0  0  0  0  0  0  0
  1  7  1  0
  1  9  1  0
  2  3  1  0
  2  4  1  0
  3  5  1  0
  4  6  1  0
  5  7  1  0
  6  8  1  0
  9 10  1  0
 10 11  2  0
M  END
>  <PUBCHEM_COMPOUND_CID>  (1) 
27904

>  <PUBCHEM_CONFORMER_RMSD>  (1) 
0.8

>  <PUBCHEM_CONFORMER_DIVERSEORDER>  (1) 
1
158
69
85
63
106
30
4
118
62
2
140
152
80
144
154
93
126
17
15
122
23
127
162
42
120
37
111
86
66
59
68
61
124
136
121
9
75
82
7
3
107
163
130
139
77
58
89
92
143
116
72
32
131
146
90
56
142
27
153
12
108
117
125
6
109
41
21
100
96
44
22
102
70
35
103
51
128
138
110
132
76
73
98
26
129
159
101
135
99
137
39
28
64
104
115
91
79
147
11
13
148
10
160
33
20
150
84
16
25
88
156
55
71
14
83
157
19
94
134
43
36
67
8
65
161
81
54
40
74
31
155
95
141
119
46
114
38
49
34
133
151
24
87
52
60
105
57
145
53
149
50
5
78
48
113
123
18
45
112
29
47
97

>  <PUBCHEM_MMFF94_PARTIAL_CHARGES>  (1) 
8
1 -0.56
10 -0.29
11 -0.3
29 0.15
30 0.15
31 0.15
7 0.28
9 0.42

>  <PUBCHEM_EFFECTIVE_ROTOR_COUNT>  (1) 
8

>  <PUBCHEM_PHARMACOPHORE_FEATURES>  (1) 
4
1 1 acceptor
1 11 hydrophobe
1 8 hydrophobe
5 2 3 4 5 6 hydrophobe

>  <PUBCHEM_HEAVY_ATOM_COUNT>  (1) 
11

>  <PUBCHEM_ATOM_DEF_STEREO_COUNT>  (1) 
0

>  <PUBCHEM_ATOM_UDEF_STEREO_COUNT>  (1) 
0

>  <PUBCHEM_BOND_DEF_STEREO_COUNT>  (1) 
0

>  <PUBCHEM_BOND_UDEF_STEREO_COUNT>  (1) 
0

>  <PUBCHEM_ISOTOPIC_ATOM_COUNT>  (1) 
0

>  <PUBCHEM_COMPONENT_COUNT>  (1) 
1

>  <PUBCHEM_CACTVS_TAUTO_COUNT>  (1) 
1

>  <PUBCHEM_CONFORMER_ID>  (1) 
00006D0000000001

>  <PUBCHEM_MMFF94_ENERGY>  (1) 
2.909

>  <PUBCHEM_FEATURE_SELFOVERLAP>  (1) 
20.297

>  <PUBCHEM_SHAPE_FINGERPRINT>  (1) 
12714333 28 17275102838521830658
12815109 37 18411418410118603809
13533116 47 18341047411827434498
14123238 8 18410856555350097053
1420 363 18040440983884209795
14251718 22 17775846826364053399
15048467 5 17775284967079228240
15242439 84 11384109747792965799
17834072 33 17346311630794305309
17834072 8 10375870788231688696
17834076 25 18410855464423135594
187816 3 14476962289780355487
20605781 2 18131349717744295818
20645477 70 17916591925776490038
20767249 13 14706927341193964079
20767249 213 18342457062578930440
21130983 4 18060703909294721488
23218964 4 9223232940323495931
23402539 116 14201396101684901547
23521765 1 18341895190345678863
366044 4 18334013895646669579
42788 4 18410856555344828781
59345606 91 18272651238078881145
8209 1 18411138038916761829

>  <PUBCHEM_SHAPE_MULTIPOLES>  (1) 
220.51
15.75
0.8
0.66
1.44
0.02
0.02
-1.92
1.7
-0.06
0.01
-0.18
-0.02
0.19

>  <PUBCHEM_SHAPE_SELFOVERLAP>  (1) 
391.208

>  <PUBCHEM_SHAPE_VOLUME>  (1) 
144.1

>  <PUBCHEM_COORDINATE_TYPE>  (1) 
2
5
10

$$$$
