27923
     RDKit          3D

  7  8  0  0  1  0  0  0  0  0999 V2000
   -0.9816   -0.7535   -0.3917 C   0  0  0  0  0  0  0  0  0  0  0  0
   -0.9814    0.7537   -0.3917 C   0  0  0  0  0  0  0  0  0  0  0  0
   -1.6375    0.0000    0.7368 C   0  0  0  0  0  0  0  0  0  0  0  0
    0.2973   -1.5019   -0.1525 C   0  0  0  0  0  0  0  0  0  0  0  0
    0.2976    1.5019   -0.1525 C   0  0  0  0  0  0  0  0  0  0  0  0
    1.5028   -0.6702    0.1758 C   0  0  0  0  0  0  0  0  0  0  0  0
    1.5029    0.6699    0.1758 C   0  0  0  0  0  0  0  0  0  0  0  0
  1  2  1  0
  1  3  1  0
  1  4  1  0
  2  3  1  0
  2  5  1  0
  4  6  1  0
  5  7  1  0
  6  7  2  0
M  END
>  <PUBCHEM_COMPOUND_CID>  (1) 
27923

>  <PUBCHEM_CONFORMER_RMSD>  (1) 
0.4

>  <PUBCHEM_CONFORMER_DIVERSEORDER>  (1) 
1
2
3

>  <PUBCHEM_MMFF94_PARTIAL_CHARGES>  (1) 
13
1 -0.19
10 0.1
11 0.1
16 0.15
17 0.15
2 -0.19
3 -0.2
4 0.23
5 0.23
6 -0.29
7 -0.29
8 0.1
9 0.1

>  <PUBCHEM_EFFECTIVE_ROTOR_COUNT>  (1) 
0.6

>  <PUBCHEM_PHARMACOPHORE_FEATURES>  (1) 
1
7 1 2 3 4 5 6 7 rings

>  <PUBCHEM_HEAVY_ATOM_COUNT>  (1) 
7

>  <PUBCHEM_ATOM_DEF_STEREO_COUNT>  (1) 
0

>  <PUBCHEM_ATOM_UDEF_STEREO_COUNT>  (1) 
2

>  <PUBCHEM_BOND_DEF_STEREO_COUNT>  (1) 
0

>  <PUBCHEM_BOND_UDEF_STEREO_COUNT>  (1) 
0

>  <PUBCHEM_ISOTOPIC_ATOM_COUNT>  (1) 
0

>  <PUBCHEM_COMPONENT_COUNT>  (1) 
1

>  <PUBCHEM_CACTVS_TAUTO_COUNT>  (1) 
1

>  <PUBCHEM_CONFORMER_ID>  (1) 
00006D1300000001

>  <PUBCHEM_MMFF94_ENERGY>  (1) 
9.0507

>  <PUBCHEM_FEATURE_SELFOVERLAP>  (1) 
5.074

>  <PUBCHEM_SHAPE_FINGERPRINT>  (1) 
16714656 1 18410866459935013452
18185500 45 17979065321150525206
20096714 4 18341614853635580442
21040471 1 18339926046672313364
24536 1 17313099748205887156
29004967 10 18186809083869567873

>  <PUBCHEM_SHAPE_MULTIPOLES>  (1) 
144.06
1.95
1.55
0.75
0.08
0
0.04
0
0.28
0.23
-0.14
-0.15
0
0

>  <PUBCHEM_SHAPE_SELFOVERLAP>  (1) 
292.74

>  <PUBCHEM_SHAPE_VOLUME>  (1) 
82.7

>  <PUBCHEM_COORDINATE_TYPE>  (1) 
2
5
10

$$$$
