27921
     RDKit          3D

 22 24  0  0  1  0  0  0  0  0999 V2000
    3.2383   -2.3318   -0.4557 O   0  0  0  0  0  0  0  0  0  0  0  0
    4.8284   -0.2092    0.3678 O   0  0  0  0  0  0  0  0  0  0  0  0
   -1.2354    1.8941   -0.3831 N   0  0  0  0  0  0  0  0  0  0  0  0
   -0.7785    0.4891   -0.2966 C   0  0  0  0  0  0  0  0  0  0  0  0
    0.7229    0.3199   -0.1292 C   0  0  0  0  0  0  0  0  0  0  0  0
   -0.5834    2.7439    0.6210 C   0  0  0  0  0  0  0  0  0  0  0  0
    0.9433    2.7587    0.5169 C   0  0  0  0  0  0  0  0  0  0  0  0
    1.5304    1.3894    0.2971 C   0  0  0  0  0  0  0  0  0  0  0  0
   -1.5282   -0.2185    0.8436 C   0  0  0  0  0  0  0  0  0  0  0  0
    1.3161   -0.9282   -0.3781 C   0  0  0  0  0  0  0  0  0  0  0  0
   -1.0969    2.4343   -1.7358 C   0  0  0  0  0  0  0  0  0  0  0  0
    2.9103    1.1978    0.4561 C   0  0  0  0  0  0  0  0  0  0  0  0
   -2.9323   -0.5540    0.4406 C   0  0  0  0  0  0  0  0  0  0  0  0
    2.6886   -1.1103   -0.2087 C   0  0  0  0  0  0  0  0  0  0  0  0
    3.4850   -0.0480    0.2087 C   0  0  0  0  0  0  0  0  0  0  0  0
   -3.9541    0.3612    0.6725 C   0  0  0  0  0  0  0  0  0  0  0  0
   -3.2034   -1.7781   -0.1620 C   0  0  0  0  0  0  0  0  0  0  0  0
   -5.2609    0.0489    0.2977 C   0  0  0  0  0  0  0  0  0  0  0  0
   -4.5101   -2.0904   -0.5369 C   0  0  0  0  0  0  0  0  0  0  0  0
   -5.5389   -1.1769   -0.3071 C   0  0  0  0  0  0  0  0  0  0  0  0
    3.3069   -3.2440    0.6384 C   0  0  0  0  0  0  0  0  0  0  0  0
    5.6519    0.0520   -0.7673 C   0  0  0  0  0  0  0  0  0  0  0  0
  1 14  1  0
  1 21  1  0
  2 15  1  0
  2 22  1  0
  3  4  1  0
  3  6  1  0
  3 11  1  0
  4  5  1  0
  4  9  1  0
  5  8  2  0
  5 10  1  0
  6  7  1  0
  7  8  1  0
  8 12  1  0
  9 13  1  0
 10 14  2  0
 12 15  2  0
 13 16  2  0
 13 17  1  0
 14 15  1  0
 16 18  1  0
 17 19  2  0
 18 20  2  0
 19 20  1  0
M  END
>  <PUBCHEM_COMPOUND_CID>  (1) 
27921

>  <PUBCHEM_CONFORMER_RMSD>  (1) 
0.8

>  <PUBCHEM_CONFORMER_DIVERSEORDER>  (1) 
3
4
7
11
13
1
8
2
10
5
6
12
9

>  <PUBCHEM_MMFF94_PARTIAL_CHARGES>  (1) 
29
1 -0.36
10 -0.15
11 0.27
12 -0.15
13 -0.14
14 0.08
15 0.08
16 -0.15
17 -0.15
18 -0.15
19 -0.15
2 -0.36
20 -0.15
21 0.28
22 0.28
3 -0.81
30 0.15
34 0.15
35 0.15
36 0.15
37 0.15
38 0.15
39 0.15
4 0.41
5 -0.14
6 0.27
7 0.14
8 -0.14
9 0.14

>  <PUBCHEM_EFFECTIVE_ROTOR_COUNT>  (1) 
4.8

>  <PUBCHEM_PHARMACOPHORE_FEATURES>  (1) 
6
1 1 acceptor
1 2 acceptor
1 3 cation
6 13 16 17 18 19 20 rings
6 3 4 5 6 7 8 rings
6 5 8 10 12 14 15 rings

>  <PUBCHEM_HEAVY_ATOM_COUNT>  (1) 
22

>  <PUBCHEM_ATOM_DEF_STEREO_COUNT>  (1) 
0

>  <PUBCHEM_ATOM_UDEF_STEREO_COUNT>  (1) 
1

>  <PUBCHEM_BOND_DEF_STEREO_COUNT>  (1) 
0

>  <PUBCHEM_BOND_UDEF_STEREO_COUNT>  (1) 
0

>  <PUBCHEM_ISOTOPIC_ATOM_COUNT>  (1) 
0

>  <PUBCHEM_COMPONENT_COUNT>  (1) 
1

>  <PUBCHEM_CACTVS_TAUTO_COUNT>  (1) 
1

>  <PUBCHEM_CONFORMER_ID>  (1) 
00006D1100000003

>  <PUBCHEM_MMFF94_ENERGY>  (1) 
85.0302

>  <PUBCHEM_FEATURE_SELFOVERLAP>  (1) 
30.471

>  <PUBCHEM_SHAPE_FINGERPRINT>  (1) 
10090160 65 18041282153540439214
10366900 7 18335427884985242938
10906281 52 18188789347635580632
11963148 33 18336539499916411186
12011746 2 18411986883721812254
12107183 9 17839190614795452099
12236239 1 17418097645544490699
12553582 1 18341880914138521054
12596602 18 16988564653430356419
12633257 1 18058461898006734123
12788726 201 18261390001269470120
13004483 165 18340478963883006587
13140716 1 18124305267246819234
13533116 47 18127409171677251331
13544653 18 18408329873540248395
13583140 156 16128653016496136321
14787075 74 18335143115826514738
14790565 3 17690000454566407788
14866123 147 17765437539567864707
15196674 1 18341613784331259057
15352361 1 18412262835228194371
15442244 35 18342462543358198425
15848700 24 18335980951833943269
15848702 151 18412261761939888539
15927050 60 17622724641393174956
17357779 13 18261095401368503541
17492 89 18122059811005800346
1813 80 17822014215913508301
18222031 100 18272367611281285730
19141452 34 18413390939028116775
200 152 18131069355063849243
20645477 70 18191017014064764497
21250096 35 18413670214601926299
21267235 1 18341622563566327787
21279426 13 18118961400302224285
21285901 2 18040146323394791623
21421861 104 18042400236121650010
21641784 216 17968957322179273260
221490 88 18193843871413555667
23402539 116 18333447651278836471
23557571 272 18271252620976659460
23559900 14 18270956981240082761
2871803 45 18335140882354057922
3004659 81 18260546749007619736
335352 9 18412545419118876861
3421961 26 18341327894022751193
350125 39 18411419553334804732
4214541 1 18343022212035499457
46194498 28 17604986104226943431
463206 1 18408885165430695066
5104073 3 18198902517842709536
5283173 99 18115578254299771933
5486654 2 18337398231550345806
59755656 215 18411705361833141166
6443956 14 18338799021816686353

>  <PUBCHEM_SHAPE_MULTIPOLES>  (1) 
436.03
10.94
3.12
0.96
3.15
0.05
0.2
-6.51
0.53
-1.06
0.02
0.11
0.33
-0.18

>  <PUBCHEM_SHAPE_SELFOVERLAP>  (1) 
930.748

>  <PUBCHEM_SHAPE_VOLUME>  (1) 
243.6

>  <PUBCHEM_COORDINATE_TYPE>  (1) 
2
5
10

$$$$
