27931
     RDKit          3D

 24 29  0  0  0  0  0  0  0  0999 V2000
    3.5503    1.8944   -0.0013 N   0  0  0  0  0  0  0  0  0  0  0  0
   -3.5503    1.8944    0.0011 N   0  0  0  0  0  0  0  0  0  0  0  0
    0.7122   -0.4855    0.0008 C   0  0  0  0  0  0  0  0  0  0  0  0
   -0.7122   -0.4854    0.0008 C   0  0  0  0  0  0  0  0  0  0  0  0
    1.4370    0.7325    0.0006 C   0  0  0  0  0  0  0  0  0  0  0  0
   -1.4370    0.7325    0.0012 C   0  0  0  0  0  0  0  0  0  0  0  0
    1.4091   -1.7113    0.0005 C   0  0  0  0  0  0  0  0  0  0  0  0
   -1.4092   -1.7114    0.0001 C   0  0  0  0  0  0  0  0  0  0  0  0
    2.8486    0.7375   -0.0002 C   0  0  0  0  0  0  0  0  0  0  0  0
   -2.8485    0.7377    0.0008 C   0  0  0  0  0  0  0  0  0  0  0  0
    0.6989    1.9269    0.0012 C   0  0  0  0  0  0  0  0  0  0  0  0
   -0.6989    1.9269    0.0016 C   0  0  0  0  0  0  0  0  0  0  0  0
    3.5223   -0.5007    0.0000 C   0  0  0  0  0  0  0  0  0  0  0  0
   -3.5223   -0.5007   -0.0003 C   0  0  0  0  0  0  0  0  0  0  0  0
    2.8062   -1.7044    0.0003 C   0  0  0  0  0  0  0  0  0  0  0  0
   -2.8062   -1.7045   -0.0005 C   0  0  0  0  0  0  0  0  0  0  0  0
    0.6963   -2.9160    0.0003 C   0  0  0  0  0  0  0  0  0  0  0  0
   -0.6964   -2.9161   -0.0001 C   0  0  0  0  0  0  0  0  0  0  0  0
    4.9247   -0.5073   -0.0002 C   0  0  0  0  0  0  0  0  0  0  0  0
   -4.9247   -0.5072   -0.0016 C   0  0  0  0  0  0  0  0  0  0  0  0
    5.6325    0.6836   -0.0008 C   0  0  0  0  0  0  0  0  0  0  0  0
   -5.6324    0.6836   -0.0020 C   0  0  0  0  0  0  0  0  0  0  0  0
    4.9019    1.8501   -0.0016 C   0  0  0  0  0  0  0  0  0  0  0  0
   -4.9018    1.8501   -0.0005 C   0  0  0  0  0  0  0  0  0  0  0  0
  1  9  2  0
  1 23  1  0
  2 10  2  0
  2 24  1  0
  3  4  1  0
  3  5  2  0
  3  7  1  0
  4  6  2  0
  4  8  1  0
  5  9  1  0
  5 11  1  0
  6 10  1  0
  6 12  1  0
  7 15  2  0
  7 17  1  0
  8 16  2  0
  8 18  1  0
  9 13  1  0
 10 14  1  0
 11 12  2  0
 13 15  1  0
 13 19  2  0
 14 16  1  0
 14 20  2  0
 17 18  2  0
 19 21  1  0
 20 22  1  0
 21 23  2  0
 22 24  2  0
M  END
>  <PUBCHEM_COMPOUND_CID>  (1) 
27931

>  <PUBCHEM_CONFORMER_RMSD>  (1) 
0.6

>  <PUBCHEM_CONFORMER_DIVERSEORDER>  (1) 
1

>  <PUBCHEM_MMFF94_PARTIAL_CHARGES>  (1) 
28
1 -0.62
10 0.31
11 -0.15
12 -0.15
15 -0.15
16 -0.15
17 -0.15
18 -0.15
19 -0.15
2 -0.62
20 -0.15
21 -0.15
22 -0.15
23 0.16
24 0.16
25 0.15
26 0.15
27 0.15
28 0.15
29 0.15
30 0.15
31 0.15
32 0.15
33 0.15
34 0.15
35 0.15
36 0.15
9 0.31

>  <PUBCHEM_EFFECTIVE_ROTOR_COUNT>  (1) 
0

>  <PUBCHEM_PHARMACOPHORE_FEATURES>  (1) 
8
1 1 acceptor
1 2 acceptor
6 1 9 13 19 21 23 rings
6 2 10 14 20 22 24 rings
6 3 4 5 6 11 12 rings
6 3 4 7 8 17 18 rings
6 3 5 7 9 13 15 rings
6 4 6 8 10 14 16 rings

>  <PUBCHEM_HEAVY_ATOM_COUNT>  (1) 
24

>  <PUBCHEM_ATOM_DEF_STEREO_COUNT>  (1) 
0

>  <PUBCHEM_ATOM_UDEF_STEREO_COUNT>  (1) 
0

>  <PUBCHEM_BOND_DEF_STEREO_COUNT>  (1) 
0

>  <PUBCHEM_BOND_UDEF_STEREO_COUNT>  (1) 
0

>  <PUBCHEM_ISOTOPIC_ATOM_COUNT>  (1) 
0

>  <PUBCHEM_COMPONENT_COUNT>  (1) 
1

>  <PUBCHEM_CACTVS_TAUTO_COUNT>  (1) 
1

>  <PUBCHEM_CONFORMER_ID>  (1) 
00006D1B00000001

>  <PUBCHEM_MMFF94_ENERGY>  (1) 
89.9637

>  <PUBCHEM_FEATURE_SELFOVERLAP>  (1) 
40.788

>  <PUBCHEM_SHAPE_FINGERPRINT>  (1) 
10411042 1 17402050492244444702
10493431 412 18410574010926536165
10616163 171 18410857706443848726
10906281 52 18338535082811214880
10948715 1 18410855464423492871
10967382 1 18411136896466172931
1100329 8 18339643472147350584
11112241 14 16340867741523620584
12011746 2 18411700984596302020
12107183 9 17619632380260496841
12403814 3 17603860117766659253
12788726 201 17775008925252264256
12838862 33 18338779174392977408
13140716 1 18335981982557730746
13402501 40 18410856563934873805
138480 1 17762055436957985314
14787075 74 18343861126069033257
14790565 3 18410579482710116193
15042514 8 18120377820250363331
15131766 46 16155690188154744924
15196674 1 18410855464423284999
1601671 61 18410011022323690448
1813 80 16950285095979734452
18608769 82 18338238275809229187
18681886 176 18411133679942142736
19591789 44 18410572889934823139
20642791 178 18115601472602901621
21033648 29 18272362126571418584
21236236 1 18340205297441754543
21267235 1 18410864256221489315
21279426 13 18340489958999011814
21304253 335 18334582329935412820
21421861 104 17897438398375337346
22182313 1 18267891486512949575
23227448 37 18341612658807403559
23402539 116 18343295993971513094
23558518 356 17756142650302379666
23559900 14 18271244929096595942
3004659 81 18335141965107588790
335352 9 18410856547641273814
338550 245 18334299815814149148
34934 24 18410852165893832330
350125 39 18337108961081158340
3545911 37 18410857659156893492
3680242 22 18335699378347259594
4073 2 18041005071729716890
4214541 1 18410855473023937985
4340502 62 18411984649985390421
474 4 18408604742704354979
495365 180 17274812606534104208
5104073 3 18408323267722376883
5486654 2 18411985775704847300
59755656 215 18340211804438404294
59755656 520 17095240341468420338
6138700 20 18338238150875349718
9709674 26 18412832377935673438

>  <PUBCHEM_SHAPE_MULTIPOLES>  (1) 
483.95
11.11
2.86
0.61
0
1.08
0
-5.13
0.01
0
0
0
0.01
0

>  <PUBCHEM_SHAPE_SELFOVERLAP>  (1) 
1153.182

>  <PUBCHEM_SHAPE_VOLUME>  (1) 
236.8

>  <PUBCHEM_COORDINATE_TYPE>  (1) 
2
5
10

$$$$
