27934
     RDKit          3D

 17 19  0  0  0  0  0  0  0  0999 V2000
   -2.7886   -1.1896   -0.8841 N   0  0  0  0  0  0  0  0  0  0  0  0
    3.0999    1.7044   -0.5334 N   0  0  0  0  0  0  0  0  0  0  0  0
   -0.9609   -1.5290    0.3290 C   0  0  0  0  0  0  0  0  0  0  0  0
    0.1863   -2.1938    0.9798 C   0  0  0  0  0  0  0  0  0  0  0  0
   -1.3059   -0.1515    0.4201 C   0  0  0  0  0  0  0  0  0  0  0  0
    1.4812   -2.2075    0.1367 C   0  0  0  0  0  0  0  0  0  0  0  0
   -2.4559    0.0349   -0.3499 C   0  0  0  0  0  0  0  0  0  0  0  0
   -1.8911   -2.1410   -0.4795 C   0  0  0  0  0  0  0  0  0  0  0  0
    2.0518   -0.8304   -0.0994 C   0  0  0  0  0  0  0  0  0  0  0  0
   -0.7483    0.9582    1.0857 C   0  0  0  0  0  0  0  0  0  0  0  0
   -3.0788    1.2804   -0.4880 C   0  0  0  0  0  0  0  0  0  0  0  0
   -1.3605    2.2102    0.9568 C   0  0  0  0  0  0  0  0  0  0  0  0
   -2.5079    2.3665    0.1815 C   0  0  0  0  0  0  0  0  0  0  0  0
    1.6547   -0.1114   -1.2103 C   0  0  0  0  0  0  0  0  0  0  0  0
    2.9620   -0.3082    0.7990 C   0  0  0  0  0  0  0  0  0  0  0  0
    2.2064    1.1480   -1.3817 C   0  0  0  0  0  0  0  0  0  0  0  0
    3.4554    0.9599    0.5376 C   0  0  0  0  0  0  0  0  0  0  0  0
  1  7  1  0
  1  8  1  0
  2 16  2  0
  2 17  1  0
  3  4  1  0
  3  5  1  0
  3  8  2  0
  4  6  1  0
  5  7  2  0
  5 10  1  0
  6  9  1  0
  7 11  1  0
  9 14  2  0
  9 15  1  0
 10 12  2  0
 11 13  2  0
 12 13  1  0
 14 16  1  0
 15 17  2  0
M  END
>  <PUBCHEM_COMPOUND_CID>  (1) 
27934

>  <PUBCHEM_CONFORMER_RMSD>  (1) 
0.6

>  <PUBCHEM_CONFORMER_DIVERSEORDER>  (1) 
1
6
5
8
14
4
2
12
3
9
7
11
10
13

>  <PUBCHEM_MMFF94_PARTIAL_CHARGES>  (1) 
26
1 0.03
10 -0.15
11 -0.15
12 -0.15
13 -0.15
14 -0.15
15 -0.15
16 0.16
17 0.16
2 -0.62
22 0.15
23 0.27
24 0.15
25 0.15
26 0.15
27 0.15
28 0.15
29 0.15
3 -0.18
30 0.15
31 0.15
4 0.18
6 0.14
7 -0.15
8 -0.3
9 -0.14

>  <PUBCHEM_EFFECTIVE_ROTOR_COUNT>  (1) 
3

>  <PUBCHEM_PHARMACOPHORE_FEATURES>  (1) 
6
1 1 cation
1 1 donor
1 2 acceptor
5 1 3 5 7 8 rings
6 2 9 14 15 16 17 rings
6 5 7 10 11 12 13 rings

>  <PUBCHEM_HEAVY_ATOM_COUNT>  (1) 
17

>  <PUBCHEM_ATOM_DEF_STEREO_COUNT>  (1) 
0

>  <PUBCHEM_ATOM_UDEF_STEREO_COUNT>  (1) 
0

>  <PUBCHEM_BOND_DEF_STEREO_COUNT>  (1) 
0

>  <PUBCHEM_BOND_UDEF_STEREO_COUNT>  (1) 
0

>  <PUBCHEM_ISOTOPIC_ATOM_COUNT>  (1) 
0

>  <PUBCHEM_COMPONENT_COUNT>  (1) 
1

>  <PUBCHEM_CACTVS_TAUTO_COUNT>  (1) 
1

>  <PUBCHEM_CONFORMER_ID>  (1) 
00006D1E00000001

>  <PUBCHEM_MMFF94_ENERGY>  (1) 
34.0823

>  <PUBCHEM_FEATURE_SELFOVERLAP>  (1) 
30.538

>  <PUBCHEM_SHAPE_FINGERPRINT>  (1) 
11370993 70 18336813213342982988
11640471 11 18187368731188434164
128993 33 18050884097885240884
13693222 7 18336558109438706172
13764800 53 18188790442509330403
14713325 29 16670278088316505126
14790565 3 18272089341305583737
15775835 57 18336834065382616852
16945 1 18339646736528041919
17492 54 17407949359220332557
17492 89 18410569574405791410
18186145 218 18125725591119497485
18981168 100 18044125434316402642
192875 21 18263346144403754364
20510252 161 18193003835628607858
22094290 62 18120376453901584754
23419403 2 16607645322482119867
23557571 272 17917988407973893179
23559900 14 18130216065933382138
3060560 45 17405425507904662167
353137 74 18410852170478651291
4340502 62 17458350694088122257
474 4 18113900424860904137
49207404 50 17971786322684485593
5262128 65 17632033952472881732
526903 126 18341612658907643193
6992083 37 17619907253783049259
7364860 26 18126845989125910446
74978 22 18268157461142079966
7832392 63 18122623847131695154
81228 2 18198361704314294049
9981440 41 18264480853599920506

>  <PUBCHEM_SHAPE_MULTIPOLES>  (1) 
339.89
5.36
2.78
1.16
1.44
0.31
0.1
-2.24
0.6
-0.84
-0.28
0.28
-0.16
-0.73

>  <PUBCHEM_SHAPE_SELFOVERLAP>  (1) 
749.276

>  <PUBCHEM_SHAPE_VOLUME>  (1) 
183

>  <PUBCHEM_COORDINATE_TYPE>  (1) 
2
5
10

$$$$
