27938
     RDKit          3D

 10 10  0  0  1  0  0  0  0  0999 V2000
    0.6472   -0.1039    0.2246 C   0  0  0  0  0  0  0  0  0  0  0  0
   -0.4031    0.9445   -0.1697 C   0  0  0  0  0  0  0  0  0  0  0  0
   -1.8035    0.5616    0.3302 C   0  0  0  0  0  0  0  0  0  0  0  0
    0.2389   -1.4985   -0.2668 C   0  0  0  0  0  0  0  0  0  0  0  0
   -2.1962   -0.8370   -0.1623 C   0  0  0  0  0  0  0  0  0  0  0  0
   -1.1539   -1.8825    0.2248 C   0  0  0  0  0  0  0  0  0  0  0  0
    2.0221    0.2784   -0.3212 C   0  0  0  0  0  0  0  0  0  0  0  0
   -2.8356    1.5976   -0.1116 C   0  0  0  0  0  0  0  0  0  0  0  0
    2.4110    1.6808    0.1405 C   0  0  0  0  0  0  0  0  0  0  0  0
    3.0732   -0.7409    0.1115 C   0  0  0  0  0  0  0  0  0  0  0  0
  1  2  1  0
  1  4  1  0
  1  7  1  0
  2  3  1  0
  3  5  1  0
  3  8  1  0
  4  6  1  0
  5  6  1  0
  7  9  1  0
  7 10  1  0
M  END
>  <PUBCHEM_COMPOUND_CID>  (1) 
27938

>  <PUBCHEM_CONFORMER_RMSD>  (1) 
0.4

>  <PUBCHEM_CONFORMER_DIVERSEORDER>  (1) 
1
24
12
22
2
23
3
16
10
4
20
13
8
14
15
18
7
17
5
6
19
21
9
11

>  <PUBCHEM_MMFF94_PARTIAL_CHARGES>  (1) 
0

>  <PUBCHEM_EFFECTIVE_ROTOR_COUNT>  (1) 
2.2

>  <PUBCHEM_PHARMACOPHORE_FEATURES>  (1) 
2
3 7 9 10 hydrophobe
6 1 2 3 4 5 6 rings

>  <PUBCHEM_HEAVY_ATOM_COUNT>  (1) 
10

>  <PUBCHEM_ATOM_DEF_STEREO_COUNT>  (1) 
0

>  <PUBCHEM_ATOM_UDEF_STEREO_COUNT>  (1) 
2

>  <PUBCHEM_BOND_DEF_STEREO_COUNT>  (1) 
0

>  <PUBCHEM_BOND_UDEF_STEREO_COUNT>  (1) 
0

>  <PUBCHEM_ISOTOPIC_ATOM_COUNT>  (1) 
0

>  <PUBCHEM_COMPONENT_COUNT>  (1) 
1

>  <PUBCHEM_CACTVS_TAUTO_COUNT>  (1) 
1

>  <PUBCHEM_CONFORMER_ID>  (1) 
00006D2200000001

>  <PUBCHEM_MMFF94_ENERGY>  (1) 
13.38

>  <PUBCHEM_FEATURE_SELFOVERLAP>  (1) 
10.148

>  <PUBCHEM_SHAPE_FINGERPRINT>  (1) 
12716758 59 18411416232533196739
12897270 3 18195529422485364708
12932764 1 18340218482632319296
13380535 76 18339358548680984439
14325111 11 18410856564014099012
15775835 57 18261117344066157476
16945 1 18269281170420279710
19973954 147 18338519762889859776
20653085 51 18410303496706384585
20871998 184 18127982007970395447
21028194 46 18410859841153124233
21040471 1 18410295795840552695
21501502 16 18339642342881804732
23235685 24 18339637824396945701
23552423 10 18188772876393685326
23559900 14 18271251526519576462
241688 4 16538486883145846411
2748010 2 18411422842514251964
3248919 1 17604149345454770290
369184 2 18340769341983790051
5084963 1 18273213105647776954
528862 383 17899973837771221195
6333449 129 18340204184485847773

>  <PUBCHEM_SHAPE_MULTIPOLES>  (1) 
205.8
4.36
1.99
0.66
1.07
0.12
0
-1.21
-0.03
-0.46
-0.02
0
0.01
0.06

>  <PUBCHEM_SHAPE_SELFOVERLAP>  (1) 
393.555

>  <PUBCHEM_SHAPE_VOLUME>  (1) 
127.1

>  <PUBCHEM_COORDINATE_TYPE>  (1) 
2
5
10

$$$$
