27947
     RDKit          3D

  9  9  0  0  0  0  0  0  0  0999 V2000
    0.0021   -2.5229   -0.1022 S   0  0  0  0  0  0  0  0  0  0  0  0
    1.2051   -0.0647    0.0144 N   0  0  0  0  0  0  0  0  0  0  0  0
   -1.2049   -0.0666    0.0157 N   0  0  0  0  0  0  0  0  0  0  0  0
   -0.0010    2.0356   -0.4016 C   0  0  0  0  0  0  0  0  0  0  0  0
    1.2097    1.3845    0.2143 C   0  0  0  0  0  0  0  0  0  0  0  0
   -1.2120    1.3832    0.2122 C   0  0  0  0  0  0  0  0  0  0  0  0
    0.0006   -0.8244   -0.0167 C   0  0  0  0  0  0  0  0  0  0  0  0
    2.5471   -0.6609    0.0318 C   0  0  0  0  0  0  0  0  0  0  0  0
   -2.5466   -0.6637    0.0321 C   0  0  0  0  0  0  0  0  0  0  0  0
  1  7  2  0
  2  5  1  0
  2  7  1  0
  2  8  1  0
  3  6  1  0
  3  7  1  0
  3  9  1  0
  4  5  1  0
  4  6  1  0
M  END
>  <PUBCHEM_COMPOUND_CID>  (1) 
27947

>  <PUBCHEM_CONFORMER_RMSD>  (1) 
0.4

>  <PUBCHEM_CONFORMER_DIVERSEORDER>  (1) 
1

>  <PUBCHEM_MMFF94_PARTIAL_CHARGES>  (1) 
8
1 -0.38
2 -0.66
3 -0.66
5 0.3
6 0.3
7 0.5
8 0.3
9 0.3

>  <PUBCHEM_EFFECTIVE_ROTOR_COUNT>  (1) 
1

>  <PUBCHEM_PHARMACOPHORE_FEATURES>  (1) 
2
1 1 acceptor
6 2 3 4 5 6 7 rings

>  <PUBCHEM_HEAVY_ATOM_COUNT>  (1) 
9

>  <PUBCHEM_ATOM_DEF_STEREO_COUNT>  (1) 
0

>  <PUBCHEM_ATOM_UDEF_STEREO_COUNT>  (1) 
0

>  <PUBCHEM_BOND_DEF_STEREO_COUNT>  (1) 
0

>  <PUBCHEM_BOND_UDEF_STEREO_COUNT>  (1) 
0

>  <PUBCHEM_ISOTOPIC_ATOM_COUNT>  (1) 
0

>  <PUBCHEM_COMPONENT_COUNT>  (1) 
1

>  <PUBCHEM_CACTVS_TAUTO_COUNT>  (1) 
1

>  <PUBCHEM_CONFORMER_ID>  (1) 
00006D2B00000001

>  <PUBCHEM_MMFF94_ENERGY>  (1) 
25.8652

>  <PUBCHEM_FEATURE_SELFOVERLAP>  (1) 
10.148

>  <PUBCHEM_SHAPE_FINGERPRINT>  (1) 
12423570 1 12037096561061445577
18185500 45 17906732857769175060
21040471 1 17979075212597481305
23552423 10 17902243212707158518
241688 4 18410011005138800177
2748010 2 18409725166496474061
5084963 1 18131069337572880123
66348 1 18410012147605316971

>  <PUBCHEM_SHAPE_MULTIPOLES>  (1) 
179.1
2.69
2.57
0.64
0
0.52
0.01
0.46
-0.13
0
0.18
0
-0.03
0

>  <PUBCHEM_SHAPE_SELFOVERLAP>  (1) 
334.043

>  <PUBCHEM_SHAPE_VOLUME>  (1) 
114.7

>  <PUBCHEM_COORDINATE_TYPE>  (1) 
2
5
10

$$$$
