27946
     RDKit          3D

  6  6  0  0  0  0  0  0  0  0999 V2000
    0.7399    0.0052   -0.3711 N   0  0  0  0  0  0  0  0  0  0  0  0
    2.0890    0.0002    0.0990 N   0  0  0  0  0  0  0  0  0  0  0  0
   -1.4342   -0.7668   -0.0167 C   0  0  0  0  0  0  0  0  0  0  0  0
   -1.4388    0.7593   -0.0257 C   0  0  0  0  0  0  0  0  0  0  0  0
    0.0270   -1.1600    0.1536 C   0  0  0  0  0  0  0  0  0  0  0  0
    0.0171    1.1621    0.1608 C   0  0  0  0  0  0  0  0  0  0  0  0
  1  2  1  0
  1  5  1  0
  1  6  1  0
  3  4  1  0
  3  5  1  0
  4  6  1  0
M  END
>  <PUBCHEM_COMPOUND_CID>  (1) 
27946

>  <PUBCHEM_CONFORMER_RMSD>  (1) 
0.4

>  <PUBCHEM_CONFORMER_DIVERSEORDER>  (1) 
2
1

>  <PUBCHEM_MMFF94_PARTIAL_CHARGES>  (1) 
6
1 -0.54
15 0.36
16 0.36
2 -0.72
5 0.27
6 0.27

>  <PUBCHEM_EFFECTIVE_ROTOR_COUNT>  (1) 
1

>  <PUBCHEM_PHARMACOPHORE_FEATURES>  (1) 
2
1 2 donor
5 1 3 4 5 6 rings

>  <PUBCHEM_HEAVY_ATOM_COUNT>  (1) 
6

>  <PUBCHEM_ATOM_DEF_STEREO_COUNT>  (1) 
0

>  <PUBCHEM_ATOM_UDEF_STEREO_COUNT>  (1) 
0

>  <PUBCHEM_BOND_DEF_STEREO_COUNT>  (1) 
0

>  <PUBCHEM_BOND_UDEF_STEREO_COUNT>  (1) 
0

>  <PUBCHEM_ISOTOPIC_ATOM_COUNT>  (1) 
0

>  <PUBCHEM_COMPONENT_COUNT>  (1) 
1

>  <PUBCHEM_CACTVS_TAUTO_COUNT>  (1) 
1

>  <PUBCHEM_CONFORMER_ID>  (1) 
00006D2A00000002

>  <PUBCHEM_MMFF94_ENERGY>  (1) 
5.1813

>  <PUBCHEM_FEATURE_SELFOVERLAP>  (1) 
10.148

>  <PUBCHEM_SHAPE_FINGERPRINT>  (1) 
139733 1 9150911458978420855
16714656 1 18410863161131117686
20096714 4 18194967339941276785
21015797 1 9294126147168239247
21040471 1 18194124018854799581
29004967 10 18272097140032042403
5943 1 13339021661013526041

>  <PUBCHEM_SHAPE_MULTIPOLES>  (1) 
113.52
2
1.29
0.62
0.63
0
-0.01
0
0
-0.25
-0.07
-0.02
0
0

>  <PUBCHEM_SHAPE_SELFOVERLAP>  (1) 
215.31

>  <PUBCHEM_SHAPE_VOLUME>  (1) 
72.9

>  <PUBCHEM_COORDINATE_TYPE>  (1) 
2
5
10

$$$$
