27941
     RDKit          3D

 12 12  0  0  0  0  0  0  0  0999 V2000
    3.7294    0.0915    0.8141 O   0  0  0  0  0  0  0  0  0  0  0  0
   -0.1165   -0.0687   -0.6285 C   0  0  0  0  0  0  0  0  0  0  0  0
   -1.6198   -0.0602   -0.3574 C   0  0  0  0  0  0  0  0  0  0  0  0
    0.5261    1.2418   -0.1512 C   0  0  0  0  0  0  0  0  0  0  0  0
    0.5503   -1.2673    0.0621 C   0  0  0  0  0  0  0  0  0  0  0  0
   -1.9254    0.1238    1.1554 C   0  0  0  0  0  0  0  0  0  0  0  0
    2.0279    1.2608   -0.4047 C   0  0  0  0  0  0  0  0  0  0  0  0
    2.0527   -1.3000   -0.1862 C   0  0  0  0  0  0  0  0  0  0  0  0
   -2.2572    1.1244   -1.1162 C   0  0  0  0  0  0  0  0  0  0  0  0
   -2.2474   -1.3642   -0.8872 C   0  0  0  0  0  0  0  0  0  0  0  0
    2.6816    0.0266    0.1731 C   0  0  0  0  0  0  0  0  0  0  0  0
   -3.4018    0.1916    1.5266 C   0  0  0  0  0  0  0  0  0  0  0  0
  1 11  2  0
  2  3  1  0
  2  4  1  0
  2  5  1  0
  3  6  1  0
  3  9  1  0
  3 10  1  0
  4  7  1  0
  5  8  1  0
  6 12  1  0
  7 11  1  0
  8 11  1  0
M  END
>  <PUBCHEM_COMPOUND_CID>  (1) 
27941

>  <PUBCHEM_CONFORMER_RMSD>  (1) 
0.6

>  <PUBCHEM_CONFORMER_DIVERSEORDER>  (1) 
3
4
1
5
2

>  <PUBCHEM_MMFF94_PARTIAL_CHARGES>  (1) 
4
1 -0.57
11 0.45
7 0.06
8 0.06

>  <PUBCHEM_EFFECTIVE_ROTOR_COUNT>  (1) 
3

>  <PUBCHEM_PHARMACOPHORE_FEATURES>  (1) 
4
1 1 acceptor
1 12 hydrophobe
3 3 9 10 hydrophobe
6 2 4 5 7 8 11 rings

>  <PUBCHEM_HEAVY_ATOM_COUNT>  (1) 
12

>  <PUBCHEM_ATOM_DEF_STEREO_COUNT>  (1) 
0

>  <PUBCHEM_ATOM_UDEF_STEREO_COUNT>  (1) 
0

>  <PUBCHEM_BOND_DEF_STEREO_COUNT>  (1) 
0

>  <PUBCHEM_BOND_UDEF_STEREO_COUNT>  (1) 
0

>  <PUBCHEM_ISOTOPIC_ATOM_COUNT>  (1) 
0

>  <PUBCHEM_COMPONENT_COUNT>  (1) 
1

>  <PUBCHEM_CACTVS_TAUTO_COUNT>  (1) 
2

>  <PUBCHEM_CONFORMER_ID>  (1) 
00006D2500000003

>  <PUBCHEM_MMFF94_ENERGY>  (1) 
28.9053

>  <PUBCHEM_FEATURE_SELFOVERLAP>  (1) 
20.304

>  <PUBCHEM_SHAPE_FINGERPRINT>  (1) 
10857977 72 17458636609264444387
11471102 22 18187373129160871496
12251169 10 18341342153514413027
12382932 28 18272366464646356562
12423570 1 15604524280468282431
124424 183 17532071848511960572
12696612 119 18335994133014650396
12932764 1 18408887334488548758
13024252 1 17022615365096753063
13296908 3 18187929417678272606
15775835 57 17489594441281038408
16945 1 18410576175737785660
17844478 74 17894923918393294621
18186145 218 18131070459203039368
20201158 50 18113610153886155758
20711983 171 15769774632934689776
20715346 28 18261959531123078079
21061003 4 18334016077357966052
23236772 104 18060697312335717987
23402539 116 16443608143953357431
23557571 272 14620512375802200569
2748010 2 18049438145784406660
276578 36 16772415949330507939
29004967 10 18187367601638214056
3248919 1 17346309376063199078
369184 2 18412259532387612391
5084963 1 18269263724263052030
63268167 104 18342170051278482018
8030462 33 16845280623098921783

>  <PUBCHEM_SHAPE_MULTIPOLES>  (1) 
241.09
5.22
1.43
1.2
1.08
0.11
-0.22
-0.18
-1.65
0.16
0.34
-1.04
-0.08
-0.13

>  <PUBCHEM_SHAPE_SELFOVERLAP>  (1) 
473.598

>  <PUBCHEM_SHAPE_VOLUME>  (1) 
144.6

>  <PUBCHEM_COORDINATE_TYPE>  (1) 
2
5
10

$$$$
