27958
     RDKit          3D

 14 14  0  0  1  0  0  0  0  0999 V2000
    4.3444   -0.2814    0.0747 N   0  0  0  0  0  0  0  0  0  0  0  0
    4.6635    1.1067    0.1096 N   0  0  0  0  0  0  0  0  0  0  0  0
    2.0878    0.3802   -0.6308 C   0  0  0  0  0  0  0  0  0  0  0  0
    2.9190   -0.4253    0.3846 C   0  0  0  0  0  0  0  0  0  0  0  0
    0.6012    0.3286   -0.3718 C   0  0  0  0  0  0  0  0  0  0  0  0
   -3.5961    0.1844    0.3572 C   0  0  0  0  0  0  0  0  0  0  0  0
   -2.1275    0.2346    0.1020 C   0  0  0  0  0  0  0  0  0  0  0  0
   -0.1556   -0.6722   -0.9595 C   0  0  0  0  0  0  0  0  0  0  0  0
    0.0213    1.2834    0.4481 C   0  0  0  0  0  0  0  0  0  0  0  0
   -1.5291   -0.7194   -0.7212 C   0  0  0  0  0  0  0  0  0  0  0  0
   -1.3522    1.2361    0.6866 C   0  0  0  0  0  0  0  0  0  0  0  0
    2.5725   -1.9142    0.3751 C   0  0  0  0  0  0  0  0  0  0  0  0
   -4.0252   -1.1099    1.0740 C   0  0  0  0  0  0  0  0  0  0  0  0
   -4.4240    0.3684   -0.9287 C   0  0  0  0  0  0  0  0  0  0  0  0
  1  2  1  0
  1  4  1  0
  3  4  1  0
  3  5  1  0
  4 12  1  0
  5  8  2  0
  5  9  1  0
  6  7  1  0
  6 13  1  0
  6 14  1  0
  7 10  2  0
  7 11  1  0
  8 10  1  0
  9 11  2  0
M  END
>  <PUBCHEM_COMPOUND_CID>  (1) 
27958

>  <PUBCHEM_CONFORMER_RMSD>  (1) 
0.6

>  <PUBCHEM_CONFORMER_DIVERSEORDER>  (1) 
1
33
23
18
12
37
29
28
27
16
4
7
32
22
20
15
34
25
35
11
13
19
9
17
8
10
3
31
14
5
6
30
26
36
2
21
24

>  <PUBCHEM_MMFF94_PARTIAL_CHARGES>  (1) 
18
1 -0.63
10 -0.15
11 -0.15
19 0.15
2 -0.72
20 0.15
21 0.15
22 0.15
3 0.14
32 0.36
33 0.36
34 0.36
4 0.27
5 -0.14
6 0.14
7 -0.14
8 -0.15
9 -0.15

>  <PUBCHEM_EFFECTIVE_ROTOR_COUNT>  (1) 
4

>  <PUBCHEM_PHARMACOPHORE_FEATURES>  (1) 
4
1 1 donor
1 2 donor
3 6 13 14 hydrophobe
6 5 7 8 9 10 11 rings

>  <PUBCHEM_HEAVY_ATOM_COUNT>  (1) 
14

>  <PUBCHEM_ATOM_DEF_STEREO_COUNT>  (1) 
0

>  <PUBCHEM_ATOM_UDEF_STEREO_COUNT>  (1) 
1

>  <PUBCHEM_BOND_DEF_STEREO_COUNT>  (1) 
0

>  <PUBCHEM_BOND_UDEF_STEREO_COUNT>  (1) 
0

>  <PUBCHEM_ISOTOPIC_ATOM_COUNT>  (1) 
0

>  <PUBCHEM_COMPONENT_COUNT>  (1) 
1

>  <PUBCHEM_CACTVS_TAUTO_COUNT>  (1) 
1

>  <PUBCHEM_CONFORMER_ID>  (1) 
00006D3600000001

>  <PUBCHEM_MMFF94_ENERGY>  (1) 
27.8928

>  <PUBCHEM_FEATURE_SELFOVERLAP>  (1) 
21.63

>  <PUBCHEM_SHAPE_FINGERPRINT>  (1) 
11132069 177 17489864934058027877
11401426 45 17917988361346314621
11543360 7 16950859097179322567
11769659 78 17967253104851826043
12251169 10 18059856181397380720
124424 183 18408882936958969749
12500047 106 17894343385271031411
13675066 3 18407759239700449975
13705890 14 17530971301564925113
13760787 5 18273214183911415141
14252887 29 18130801044119975614
14993402 34 17846210068604202317
15209294 21 16199885972634394115
15375358 24 17966969422003319498
15375462 189 18342734126640111074
16945 1 17847069882681750165
18186145 218 10665238050516035775
19026448 4 17676206888026995805
19026448 5 17240774998928770229
200 152 18335416863677011943
20279233 1 16153714197849600416
20510252 161 17489032552163700096
20528008 55 17917703613045251160
20645477 70 18339071584367142495
21256008 23 18202006542257691571
22485316 2 17531243946078481731
23402539 116 17489581243216095029
23463225 33 18342177726205737495
23557571 272 15792005620140755630
23559900 14 18187643570699031570
26918003 58 18187359917867953170
2748010 2 17485667965463584517
449060 50 18409450310380539830
474 4 18263082287868786020
4990 188 14923946734650540259

>  <PUBCHEM_SHAPE_MULTIPOLES>  (1) 
278.15
8.58
1.39
0.98
1.95
0.26
0.05
0.43
-0.73
0.52
-0.27
-0.64
0.09
0.12

>  <PUBCHEM_SHAPE_SELFOVERLAP>  (1) 
557.285

>  <PUBCHEM_SHAPE_VOLUME>  (1) 
164.1

>  <PUBCHEM_COORDINATE_TYPE>  (1) 
2
5
10

$$$$
