27953
     RDKit          3D

 12 12  0  0  0  0  0  0  0  0999 V2000
    3.3561    0.0004    0.4274 N   0  0  0  0  0  0  0  0  0  0  0  0
    4.6392   -0.0207   -0.2139 N   0  0  0  0  0  0  0  0  0  0  0  0
    0.9394    0.0073    0.0179 C   0  0  0  0  0  0  0  0  0  0  0  0
   -0.1503   -0.0114   -1.0571 C   0  0  0  0  0  0  0  0  0  0  0  0
    2.3318   -0.0388   -0.6096 C   0  0  0  0  0  0  0  0  0  0  0  0
   -1.5308   -0.0040   -0.4520 C   0  0  0  0  0  0  0  0  0  0  0  0
   -2.1535   -1.2084   -0.1596 C   0  0  0  0  0  0  0  0  0  0  0  0
   -2.1570    1.2072   -0.1975 C   0  0  0  0  0  0  0  0  0  0  0  0
   -3.4312   -1.2015    0.4000 C   0  0  0  0  0  0  0  0  0  0  0  0
   -3.4346    1.2142    0.3622 C   0  0  0  0  0  0  0  0  0  0  0  0
   -4.0717    0.0097    0.6609 C   0  0  0  0  0  0  0  0  0  0  0  0
    5.6625    0.0458    0.8211 C   0  0  0  0  0  0  0  0  0  0  0  0
  1  2  1  0
  1  5  1  0
  2 12  1  0
  3  4  1  0
  3  5  1  0
  4  6  1  0
  6  7  2  0
  6  8  1  0
  7  9  1  0
  8 10  2  0
  9 11  2  0
 10 11  1  0
M  END
>  <PUBCHEM_COMPOUND_CID>  (1) 
27953

>  <PUBCHEM_CONFORMER_RMSD>  (1) 
0.6

>  <PUBCHEM_CONFORMER_DIVERSEORDER>  (1) 
1
26
7
13
25
12
19
24
2
23
16
21
22
10
14
3
27
5
28
8
15
20
9
18
11
17
6
4

>  <PUBCHEM_MMFF94_PARTIAL_CHARGES>  (1) 
18
1 -0.63
10 -0.15
11 -0.15
12 0.27
19 0.36
2 -0.63
20 0.15
21 0.15
22 0.15
23 0.15
24 0.36
25 0.15
4 0.14
5 0.27
6 -0.14
7 -0.15
8 -0.15
9 -0.15

>  <PUBCHEM_EFFECTIVE_ROTOR_COUNT>  (1) 
5

>  <PUBCHEM_PHARMACOPHORE_FEATURES>  (1) 
3
1 1 donor
1 2 donor
6 6 7 8 9 10 11 rings

>  <PUBCHEM_HEAVY_ATOM_COUNT>  (1) 
12

>  <PUBCHEM_ATOM_DEF_STEREO_COUNT>  (1) 
0

>  <PUBCHEM_ATOM_UDEF_STEREO_COUNT>  (1) 
0

>  <PUBCHEM_BOND_DEF_STEREO_COUNT>  (1) 
0

>  <PUBCHEM_BOND_UDEF_STEREO_COUNT>  (1) 
0

>  <PUBCHEM_ISOTOPIC_ATOM_COUNT>  (1) 
0

>  <PUBCHEM_COMPONENT_COUNT>  (1) 
1

>  <PUBCHEM_CACTVS_TAUTO_COUNT>  (1) 
1

>  <PUBCHEM_CONFORMER_ID>  (1) 
00006D3100000001

>  <PUBCHEM_MMFF94_ENERGY>  (1) 
17.184

>  <PUBCHEM_FEATURE_SELFOVERLAP>  (1) 
16.519

>  <PUBCHEM_SHAPE_FINGERPRINT>  (1) 
10014705 185 15913034444061534320
114248 4 7925910374738936110
12251169 10 18408888442579587629
13214271 11 18059856164602685629
13675066 3 18060419119009154278
14123238 8 18410293623098758396
14251718 22 8430308048679315370
17834076 25 14333408952404457016
200 152 15213017163213011933
20279233 1 17846787299149848703
20432913 95 16660361459474000440
20645464 45 17917718998071669351
20645476 183 11887949930768305117
20645477 56 17489584576179113036
20645477 70 12324506624878304432
20828058 44 18334857216764515754
21119208 17 10159696889136173082
21650355 55 18336831987214356129
22485316 2 17385437704934772258
23402539 116 18343297085679189927
23402655 69 11671793645285963786
23403322 49 12757146874689620360
23590187 198 17748824099303182058
42 15 18261111863930409422
449060 50 17847064380701972028
57265010 4 18410295813242033251

>  <PUBCHEM_SHAPE_MULTIPOLES>  (1) 
236.99
10.56
1.11
0.89
15.91
0.01
-0.04
0.1
3.56
-1.39
0.05
0.17
0
0.04

>  <PUBCHEM_SHAPE_SELFOVERLAP>  (1) 
466.659

>  <PUBCHEM_SHAPE_VOLUME>  (1) 
141.5

>  <PUBCHEM_COORDINATE_TYPE>  (1) 
2
5
10

$$$$
