27955
     RDKit          3D

 12 12  0  0  1  0  0  0  0  0999 V2000
   -3.3050   -0.2793   -0.0272 N   0  0  0  0  0  0  0  0  0  0  0  0
   -3.5222    1.0586    0.4118 N   0  0  0  0  0  0  0  0  0  0  0  0
   -1.9038   -0.3972   -0.4411 C   0  0  0  0  0  0  0  0  0  0  0  0
   -0.9860   -0.0238    0.7373 C   0  0  0  0  0  0  0  0  0  0  0  0
    0.4845   -0.0753    0.3984 C   0  0  0  0  0  0  0  0  0  0  0  0
    1.1306    1.0485   -0.0939 C   0  0  0  0  0  0  0  0  0  0  0  0
   -1.6675   -1.8234   -0.9385 C   0  0  0  0  0  0  0  0  0  0  0  0
    1.1652   -1.2684    0.5903 C   0  0  0  0  0  0  0  0  0  0  0  0
    2.4892    0.9778   -0.4019 C   0  0  0  0  0  0  0  0  0  0  0  0
    0.4054    2.3372   -0.3038 C   0  0  0  0  0  0  0  0  0  0  0  0
    2.5239   -1.3389    0.2825 C   0  0  0  0  0  0  0  0  0  0  0  0
    3.1858   -0.2159   -0.2138 C   0  0  0  0  0  0  0  0  0  0  0  0
  1  2  1  0
  1  3  1  0
  3  4  1  0
  3  7  1  0
  4  5  1  0
  5  6  2  0
  5  8  1  0
  6  9  1  0
  6 10  1  0
  8 11  2  0
  9 12  2  0
 11 12  1  0
M  END
>  <PUBCHEM_COMPOUND_CID>  (1) 
27955

>  <PUBCHEM_CONFORMER_RMSD>  (1) 
0.6

>  <PUBCHEM_CONFORMER_DIVERSEORDER>  (1) 
1
2
6
17
12
10
8
18
4
13
5
11
3
20
9
16
7
21
19
15
14

>  <PUBCHEM_MMFF94_PARTIAL_CHARGES>  (1) 
18
1 -0.63
10 0.14
11 -0.15
12 -0.15
19 0.36
2 -0.72
20 0.15
21 0.15
25 0.15
26 0.15
27 0.36
28 0.36
3 0.27
4 0.14
5 -0.14
6 -0.14
8 -0.15
9 -0.15

>  <PUBCHEM_EFFECTIVE_ROTOR_COUNT>  (1) 
3

>  <PUBCHEM_PHARMACOPHORE_FEATURES>  (1) 
3
1 1 donor
1 2 donor
6 5 6 8 9 11 12 rings

>  <PUBCHEM_HEAVY_ATOM_COUNT>  (1) 
12

>  <PUBCHEM_ATOM_DEF_STEREO_COUNT>  (1) 
0

>  <PUBCHEM_ATOM_UDEF_STEREO_COUNT>  (1) 
1

>  <PUBCHEM_BOND_DEF_STEREO_COUNT>  (1) 
0

>  <PUBCHEM_BOND_UDEF_STEREO_COUNT>  (1) 
0

>  <PUBCHEM_ISOTOPIC_ATOM_COUNT>  (1) 
0

>  <PUBCHEM_COMPONENT_COUNT>  (1) 
1

>  <PUBCHEM_CACTVS_TAUTO_COUNT>  (1) 
1

>  <PUBCHEM_CONFORMER_ID>  (1) 
00006D3300000001

>  <PUBCHEM_MMFF94_ENERGY>  (1) 
25.0236

>  <PUBCHEM_FEATURE_SELFOVERLAP>  (1) 
16.556

>  <PUBCHEM_SHAPE_FINGERPRINT>  (1) 
10130415 120 18187078425811489818
10980938 120 18335140881831610577
11031198 65 17968387817704310958
11471102 20 18260825990495789565
12932764 1 18059297689741273643
13764800 53 15141505953909215271
14128692 85 18129377262408519550
14144814 61 18412825785286941851
14993402 34 18342739594048913871
15775835 57 18337114556748357549
16945 1 18334285479270992652
17844478 74 17312825948604928821
18511873 20 18341895173397950739
207724 885 18411982446967717931
23402655 69 18335696135678534349
23552423 10 18123463040902255095
25 1 18113338613168878802
2748010 2 17613453546214685960
528886 8 18407758157621951082
53812654 25 18341321211148402194
63268167 104 18408887360126646088
74978 22 18270956951022038191
7832392 63 18412824715708385197
9939556 21 18341893055952726239

>  <PUBCHEM_SHAPE_MULTIPOLES>  (1) 
236.99
5
1.94
0.83
2.28
0.49
0.03
-0.22
0.16
-0.18
0.27
0.13
-0.15
-0.64

>  <PUBCHEM_SHAPE_SELFOVERLAP>  (1) 
478.197

>  <PUBCHEM_SHAPE_VOLUME>  (1) 
140.1

>  <PUBCHEM_COORDINATE_TYPE>  (1) 
2
5
10

$$$$
