27959
     RDKit          3D

 14 15  0  0  0  0  0  0  0  0999 V2000
    0.6747   -2.2888    0.0003 Cl  0  0  0  0  0  0  0  0  0  0  0  0
    3.8133   -1.6530   -0.0002 Cl  0  0  0  0  0  0  0  0  0  0  0  0
    0.3442    0.4077    0.0002 C   0  0  0  0  0  0  0  0  0  0  0  0
   -1.0871    0.1957    0.0000 C   0  0  0  0  0  0  0  0  0  0  0  0
    1.2574   -0.6500    0.0003 C   0  0  0  0  0  0  0  0  0  0  0  0
    0.8112    1.7245   -0.0001 C   0  0  0  0  0  0  0  0  0  0  0  0
   -1.7769    0.0931   -1.2079 C   0  0  0  0  0  0  0  0  0  0  0  0
   -1.7771    0.0937    1.2079 C   0  0  0  0  0  0  0  0  0  0  0  0
    2.6282   -0.3925    0.0001 C   0  0  0  0  0  0  0  0  0  0  0  0
    2.1820    1.9820   -0.0002 C   0  0  0  0  0  0  0  0  0  0  0  0
   -3.1568   -0.1113   -1.2081 C   0  0  0  0  0  0  0  0  0  0  0  0
   -3.1569   -0.1110    1.2079 C   0  0  0  0  0  0  0  0  0  0  0  0
    3.0905    0.9236   -0.0001 C   0  0  0  0  0  0  0  0  0  0  0  0
   -3.8467   -0.2135   -0.0001 C   0  0  0  0  0  0  0  0  0  0  0  0
  1  5  1  0
  2  9  1  0
  3  4  1  0
  3  5  2  0
  3  6  1  0
  4  7  2  0
  4  8  1  0
  5  9  1  0
  6 10  2  0
  7 11  1  0
  8 12  2  0
  9 13  2  0
 10 13  1  0
 11 14  2  0
 12 14  1  0
M  END
>  <PUBCHEM_COMPOUND_CID>  (1) 
27959

>  <PUBCHEM_CONFORMER_RMSD>  (1) 
0.4

>  <PUBCHEM_CONFORMER_DIVERSEORDER>  (1) 
1
2
3

>  <PUBCHEM_MMFF94_PARTIAL_CHARGES>  (1) 
20
1 -0.18
10 -0.15
11 -0.15
12 -0.15
13 -0.15
14 -0.15
15 0.15
16 0.15
17 0.15
18 0.15
19 0.15
2 -0.18
20 0.15
21 0.15
22 0.15
5 0.18
6 -0.15
7 -0.15
8 -0.15
9 0.18

>  <PUBCHEM_EFFECTIVE_ROTOR_COUNT>  (1) 
1

>  <PUBCHEM_PHARMACOPHORE_FEATURES>  (1) 
2
6 3 5 6 9 10 13 rings
6 4 7 8 11 12 14 rings

>  <PUBCHEM_HEAVY_ATOM_COUNT>  (1) 
14

>  <PUBCHEM_ATOM_DEF_STEREO_COUNT>  (1) 
0

>  <PUBCHEM_ATOM_UDEF_STEREO_COUNT>  (1) 
0

>  <PUBCHEM_BOND_DEF_STEREO_COUNT>  (1) 
0

>  <PUBCHEM_BOND_UDEF_STEREO_COUNT>  (1) 
0

>  <PUBCHEM_ISOTOPIC_ATOM_COUNT>  (1) 
0

>  <PUBCHEM_COMPONENT_COUNT>  (1) 
1

>  <PUBCHEM_CACTVS_TAUTO_COUNT>  (1) 
1

>  <PUBCHEM_CONFORMER_ID>  (1) 
00006D3700000001

>  <PUBCHEM_MMFF94_ENERGY>  (1) 
43.1941

>  <PUBCHEM_FEATURE_SELFOVERLAP>  (1) 
10.149

>  <PUBCHEM_SHAPE_FINGERPRINT>  (1) 
10219947 1 18410576184364604264
11471102 20 18409444786725685989
12032990 46 18336268938239576490
12236239 1 17703792530760807881
12932764 1 17603299371268662595
13296908 3 17894631461010978921
13380535 21 18191033511023572838
13538477 17 17417525916973302599
13581323 91 14996280336219342225
14144814 61 18060140959309540953
14251717 144 18411696590829180655
15219456 202 18040433312961842733
15309172 13 18337113470184928483
15653759 3 17240202140227340457
15775835 57 18341331209626630005
16945 1 18410855464702716934
17844478 74 17967254208537088757
1813 80 18058183730392244454
18175812 5 17749391494125611983
18186145 218 18342461473283503276
19049666 15 17750505187851482797
19422 9 17917993897158187159
200 152 18272925016938310693
20201158 50 18186802443987434123
20279233 1 17749104521527445945
204376 136 18121778598042894952
20645477 70 18409439276404120687
20715346 28 17822010959964183681
20871998 22 18056205674471926302
21061003 4 18336271136840546587
21639500 275 18340197608822514764
21730867 7 18261111902152565908
22112679 90 17346597473895297857
2255824 54 18342179994460133724
22802520 49 17968929778274214157
23402539 116 18270678641805847110
23419403 2 14858292618823227146
23557571 272 16877947178179971573
23559900 14 16732978696467294506
23728640 28 15526013635275992731
2748010 2 18192440877269907106
3286 77 18334297573767139887
474 4 17628904922742900056
581208 293 18411695521645931608
63268167 104 18342453781012971680
77492 1 17703792539361324449
81228 2 16897068449843747482
8272917 22 18270689662723375735

>  <PUBCHEM_SHAPE_MULTIPOLES>  (1) 
291.85
6.42
1.84
1.03
1.2
0.2
0
1.06
0
-2.04
0
1.01
0.02
0

>  <PUBCHEM_SHAPE_SELFOVERLAP>  (1) 
616.05

>  <PUBCHEM_SHAPE_VOLUME>  (1) 
158.2

>  <PUBCHEM_COORDINATE_TYPE>  (1) 
2
5
10

$$$$
