27967
     RDKit          3D

 12 12  0  0  0  0  0  0  0  0999 V2000
    4.5564    0.0099    0.9756 Cl  0  0  0  0  0  0  0  0  0  0  0  0
    2.1749   -1.4091   -0.2799 O   0  0  0  0  0  0  0  0  0  0  0  0
    1.1646    0.7157   -0.2154 N   0  0  0  0  0  0  0  0  0  0  0  0
   -0.1957    0.4256   -0.1073 C   0  0  0  0  0  0  0  0  0  0  0  0
   -2.9161   -0.1537    0.1091 C   0  0  0  0  0  0  0  0  0  0  0  0
   -1.1260    1.4624   -0.0316 C   0  0  0  0  0  0  0  0  0  0  0  0
   -0.6258   -0.9010   -0.0747 C   0  0  0  0  0  0  0  0  0  0  0  0
   -2.4861    1.1727    0.0766 C   0  0  0  0  0  0  0  0  0  0  0  0
   -1.9861   -1.1906    0.0335 C   0  0  0  0  0  0  0  0  0  0  0  0
   -4.3705   -0.4636    0.2242 C   0  0  0  0  0  0  0  0  0  0  0  0
    2.2372   -0.1826   -0.3022 C   0  0  0  0  0  0  0  0  0  0  0  0
    3.5732    0.5141   -0.4079 C   0  0  0  0  0  0  0  0  0  0  0  0
  1 12  1  0
  2 11  2  0
  3  4  1  0
  3 11  1  0
  4  6  2  0
  4  7  1  0
  5  8  2  0
  5  9  1  0
  5 10  1  0
  6  8  1  0
  7  9  2  0
 11 12  1  0
M  END
>  <PUBCHEM_COMPOUND_CID>  (1) 
27967

>  <PUBCHEM_CONFORMER_RMSD>  (1) 
0.6

>  <PUBCHEM_CONFORMER_DIVERSEORDER>  (1) 
1
4
3
5
2

>  <PUBCHEM_MMFF94_PARTIAL_CHARGES>  (1) 
17
1 -0.29
10 0.14
11 0.57
12 0.35
13 0.15
14 0.15
15 0.15
16 0.15
17 0.37
2 -0.57
3 -0.55
4 0.12
5 -0.14
6 -0.15
7 -0.15
8 -0.15
9 -0.15

>  <PUBCHEM_EFFECTIVE_ROTOR_COUNT>  (1) 
3

>  <PUBCHEM_PHARMACOPHORE_FEATURES>  (1) 
3
1 2 acceptor
1 3 donor
6 4 5 6 7 8 9 rings

>  <PUBCHEM_HEAVY_ATOM_COUNT>  (1) 
12

>  <PUBCHEM_ATOM_DEF_STEREO_COUNT>  (1) 
0

>  <PUBCHEM_ATOM_UDEF_STEREO_COUNT>  (1) 
0

>  <PUBCHEM_BOND_DEF_STEREO_COUNT>  (1) 
0

>  <PUBCHEM_BOND_UDEF_STEREO_COUNT>  (1) 
0

>  <PUBCHEM_ISOTOPIC_ATOM_COUNT>  (1) 
0

>  <PUBCHEM_COMPONENT_COUNT>  (1) 
1

>  <PUBCHEM_CACTVS_TAUTO_COUNT>  (1) 
2

>  <PUBCHEM_CONFORMER_ID>  (1) 
00006D3F00000001

>  <PUBCHEM_MMFF94_ENERGY>  (1) 
31.3294

>  <PUBCHEM_FEATURE_SELFOVERLAP>  (1) 
15.223

>  <PUBCHEM_SHAPE_FINGERPRINT>  (1) 
11062470 55 16917353640485605307
11132069 177 18342739623881641223
11401426 45 18413384341879164021
12032990 46 18336838562788369203
12251169 10 18335696161590606728
12932764 1 13182454404863292430
13024252 1 15068342315592998085
13380535 76 18410013243049103526
13690532 89 18113335323265978595
14144814 61 18410295783024261608
14252887 29 17988095442577400126
14325111 11 18338802216981944501
15219456 202 18130511820837464958
15536298 74 18341896230166069174
16945 1 18410583898263057013
17846911 113 18342173375504067402
18522853 276 18412262839338551889
200 152 18202272620124792869
20201158 50 18412267241711626726
20279233 1 18342461438913254302
20510252 161 18201723894960923529
20528008 55 18272085019560389040
20871998 184 18202007663529343487
21119208 17 9079116661178286370
21501925 9 18334573542727587320
23402539 116 18341604932804432999
23463225 33 18334860484965693750
23559900 14 18270401577786695942
2748010 2 18194690254484401079
3248919 1 17313682480884175334
42 15 18113897143906810346
5374978 207 18409445912376480280
69090 78 18201716271251554607

>  <PUBCHEM_SHAPE_MULTIPOLES>  (1) 
237.97
7.89
1.32
0.73
3.98
0.05
0.08
-0.56
1.57
-0.46
-0.05
0.44
0
0

>  <PUBCHEM_SHAPE_SELFOVERLAP>  (1) 
477.824

>  <PUBCHEM_SHAPE_VOLUME>  (1) 
140.3

>  <PUBCHEM_COORDINATE_TYPE>  (1) 
2
5
10

$$$$
