27964
     RDKit          3D

 16 17  0  0  0  0  0  0  0  0999 V2000
   -4.6720   -1.2205   -0.4328 O   0  0  0  0  0  0  0  0  0  0  0  0
   -1.2727    2.2640    0.2898 O   0  0  0  0  0  0  0  0  0  0  0  0
   -2.3706    0.2172    0.3405 N   0  0  0  0  0  0  0  0  0  0  0  0
   -2.3957   -1.2503    0.4021 C   0  0  0  0  0  0  0  0  0  0  0  0
   -3.6989    0.8278    0.4228 C   0  0  0  0  0  0  0  0  0  0  0  0
   -3.3783   -1.7998   -0.6245 C   0  0  0  0  0  0  0  0  0  0  0  0
   -4.6320    0.1988   -0.6031 C   0  0  0  0  0  0  0  0  0  0  0  0
   -1.2441    1.0330    0.3432 C   0  0  0  0  0  0  0  0  0  0  0  0
    0.0802    0.3852    0.4175 C   0  0  0  0  0  0  0  0  0  0  0  0
    1.1466    0.9235   -0.1444 C   0  0  0  0  0  0  0  0  0  0  0  0
    2.4858    0.3106   -0.1053 C   0  0  0  0  0  0  0  0  0  0  0  0
    2.7697   -0.6386    0.8633 C   0  0  0  0  0  0  0  0  0  0  0  0
    3.4358    0.6951   -1.0379 C   0  0  0  0  0  0  0  0  0  0  0  0
    4.0377   -1.2188    0.9006 C   0  0  0  0  0  0  0  0  0  0  0  0
    4.7038    0.1148   -1.0005 C   0  0  0  0  0  0  0  0  0  0  0  0
    5.0046   -0.8421   -0.0313 C   0  0  0  0  0  0  0  0  0  0  0  0
  1  6  1  0
  1  7  1  0
  2  8  2  0
  3  4  1  0
  3  5  1  0
  3  8  1  0
  4  6  1  0
  5  7  1  0
  8  9  1  0
  9 10  2  0
 10 11  1  0
 11 12  2  0
 11 13  1  0
 12 14  1  0
 13 15  2  0
 14 16  2  0
 15 16  1  0
M  END
>  <PUBCHEM_COMPOUND_CID>  (1) 
27964

>  <PUBCHEM_CONFORMER_RMSD>  (1) 
0.6

>  <PUBCHEM_CONFORMER_DIVERSEORDER>  (1) 
1
7
3
2
6
8
5
4

>  <PUBCHEM_MMFF94_PARTIAL_CHARGES>  (1) 
23
1 -0.56
10 -0.18
11 0.03
12 -0.15
13 -0.15
14 -0.15
15 -0.15
16 -0.15
2 -0.57
25 0.15
26 0.15
27 0.15
28 0.15
29 0.15
3 -0.66
30 0.15
31 0.15
4 0.3
5 0.3
6 0.28
7 0.28
8 0.62
9 -0.14

>  <PUBCHEM_EFFECTIVE_ROTOR_COUNT>  (1) 
4.2

>  <PUBCHEM_PHARMACOPHORE_FEATURES>  (1) 
4
1 1 acceptor
1 2 acceptor
6 1 3 4 5 6 7 rings
6 11 12 13 14 15 16 rings

>  <PUBCHEM_HEAVY_ATOM_COUNT>  (1) 
16

>  <PUBCHEM_ATOM_DEF_STEREO_COUNT>  (1) 
0

>  <PUBCHEM_ATOM_UDEF_STEREO_COUNT>  (1) 
0

>  <PUBCHEM_BOND_DEF_STEREO_COUNT>  (1) 
0

>  <PUBCHEM_BOND_UDEF_STEREO_COUNT>  (1) 
1

>  <PUBCHEM_ISOTOPIC_ATOM_COUNT>  (1) 
0

>  <PUBCHEM_COMPONENT_COUNT>  (1) 
1

>  <PUBCHEM_CACTVS_TAUTO_COUNT>  (1) 
1

>  <PUBCHEM_CONFORMER_ID>  (1) 
00006D3C00000001

>  <PUBCHEM_MMFF94_ENERGY>  (1) 
43.3336

>  <PUBCHEM_FEATURE_SELFOVERLAP>  (1) 
20.297

>  <PUBCHEM_SHAPE_FINGERPRINT>  (1) 
10354089 29 11959729382908331454
10616163 171 18412267228795511582
11046707 91 18272089409264839985
12236239 1 18187366514821629568
12555020 224 18411127044502513679
12596602 18 12679457595105713687
12916748 109 7997971301465737949
13167823 11 18335139786773335534
13288520 33 18343866610467918269
13675066 3 14836126533184631704
13760787 5 18113344106379348337
14251752 14 18187919552781861821
14252887 29 15554453976991422612
14386348 63 17203613674768192574
14576447 43 18333732425286374050
15242433 33 18260269646159884386
15880784 105 15554439730194713207
16752209 62 18410284783639442531
17804303 29 18131069359538288097
17834072 33 18335142003377354604
17834072 8 18335129887443255461
17870717 6 18272380762819397087
1798214 20 18333728035339213122
18186145 218 15647052685291869961
18222031 100 17632292406187489309
18915474 69 18335422395827114782
19489759 90 16917067725029747073
19862831 5 17749105599469259281
200 152 18259704497299284552
20279233 1 17060341811910348254
20281475 54 18412826863091767584
20374829 77 18343298180494942847
20432913 95 15626509388563433094
20645477 70 16153706475772715842
20871999 31 18261106375025703693
21267235 1 18411144658015551747
22485316 2 18410011048336288720
22646028 1 18408041801604547296
22646028 28 18410009935923993298
22854114 59 14549019879296241804
23402539 116 18411416181247095589
23402655 69 17822294557039828132
23403322 49 18341894117047161471
23557571 272 17560250106618149880
23559900 14 18341886433034469936
23596394 208 15430309184187898610
2871803 45 17967531251355333306
2916195 48 12540702560722664638
29717793 49 18335987472100532302
300161 21 18259700108027343852
3004659 81 18259700090905581346
351380 3 18411138056355496555
4028521 119 13767919118100648511
42 15 13254800131267208776
4214541 1 18410575050398682337
4921388 177 15936699267254656451
5104073 3 18272373104518181905
542803 24 11241973681026830200
559249 180 18337104562697316507
57096353 35 18041293118607620932
573450 72 18339921524050671481
602551 16 17703787050678301478
603831 33 18186518787277957536
633830 44 16588024589008025897
67856867 119 18262516013547328628
7495541 125 17632574968550314960

>  <PUBCHEM_SHAPE_MULTIPOLES>  (1) 
312.55
11.46
1.62
0.95
0.94
0.01
0.07
3.47
2.13
-1.04
-0.06
0.49
0.07
-1.08

>  <PUBCHEM_SHAPE_SELFOVERLAP>  (1) 
652.08

>  <PUBCHEM_SHAPE_VOLUME>  (1) 
176.6

>  <PUBCHEM_COORDINATE_TYPE>  (1) 
2
5
10

$$$$
