27966
     RDKit          3D

 12 12  0  0  0  0  0  0  0  0999 V2000
    1.5276    0.5151    1.3552 O   0  0  0  0  0  0  0  0  0  0  0  0
    0.6676   -0.4221   -0.6808 C   0  0  0  0  0  0  0  0  0  0  0  0
    1.9271   -0.0867    0.1248 C   0  0  0  0  0  0  0  0  0  0  0  0
   -0.2047   -1.4141    0.1077 C   0  0  0  0  0  0  0  0  0  0  0  0
   -0.0299    0.8491   -1.1891 C   0  0  0  0  0  0  0  0  0  0  0  0
   -1.5886   -1.6856   -0.4853 C   0  0  0  0  0  0  0  0  0  0  0  0
   -0.5802    1.8217   -0.1483 C   0  0  0  0  0  0  0  0  0  0  0  0
   -2.7369   -0.9741    0.2337 C   0  0  0  0  0  0  0  0  0  0  0  0
   -1.6830    1.3115    0.7782 C   0  0  0  0  0  0  0  0  0  0  0  0
   -2.8087    0.5467    0.0811 C   0  0  0  0  0  0  0  0  0  0  0  0
    2.8103    0.8974   -0.6376 C   0  0  0  0  0  0  0  0  0  0  0  0
    2.6994   -1.3589    0.4604 C   0  0  0  0  0  0  0  0  0  0  0  0
  1  3  1  0
  2  3  1  0
  2  4  1  0
  2  5  1  0
  3 11  1  0
  3 12  1  0
  4  6  1  0
  5  7  1  0
  6  8  1  0
  7  9  1  0
  8 10  1  0
  9 10  1  0
M  END
>  <PUBCHEM_COMPOUND_CID>  (1) 
27966

>  <PUBCHEM_CONFORMER_RMSD>  (1) 
0.6

>  <PUBCHEM_CONFORMER_DIVERSEORDER>  (1) 
2
4
6
16
14
10
1
12
15
18
9
8
13
17
7
11
3
5

>  <PUBCHEM_MMFF94_PARTIAL_CHARGES>  (1) 
3
1 -0.68
3 0.28
34 0.4

>  <PUBCHEM_EFFECTIVE_ROTOR_COUNT>  (1) 
2.6

>  <PUBCHEM_PHARMACOPHORE_FEATURES>  (1) 
3
1 1 acceptor
1 1 donor
3 3 11 12 hydrophobe

>  <PUBCHEM_HEAVY_ATOM_COUNT>  (1) 
12

>  <PUBCHEM_ATOM_DEF_STEREO_COUNT>  (1) 
0

>  <PUBCHEM_ATOM_UDEF_STEREO_COUNT>  (1) 
0

>  <PUBCHEM_BOND_DEF_STEREO_COUNT>  (1) 
0

>  <PUBCHEM_BOND_UDEF_STEREO_COUNT>  (1) 
0

>  <PUBCHEM_ISOTOPIC_ATOM_COUNT>  (1) 
0

>  <PUBCHEM_COMPONENT_COUNT>  (1) 
1

>  <PUBCHEM_CACTVS_TAUTO_COUNT>  (1) 
1

>  <PUBCHEM_CONFORMER_ID>  (1) 
00006D3E00000002

>  <PUBCHEM_MMFF94_ENERGY>  (1) 
36.8419

>  <PUBCHEM_FEATURE_SELFOVERLAP>  (1) 
15.223

>  <PUBCHEM_SHAPE_FINGERPRINT>  (1) 
10857977 72 18342734148046336601
11132069 177 18412542128382617608
12423570 1 11713187492170644860
12491281 212 18337410291148580392
12932764 1 17846217812214277334
13839132 238 17702401566968489117
14993402 34 18333736839979868381
15076042 46 18340487755385408916
15775835 57 18340778056620152889
16945 1 17703791414005968455
20653091 64 17534905491660951535
207724 885 18113341920299029919
21501502 16 18412547587396827182
22802520 49 18057072170822202774
23236772 104 18115033024911583728
23402539 116 18059561487044362687
23552423 10 18261114122698234838
241688 4 18335699416648335553
2748010 2 17184469815586706679
29004967 10 15140675903780857300
5084963 1 18339073770636812440
63268167 104 18186801413142275637
75552 356 18411985796989415871

>  <PUBCHEM_SHAPE_MULTIPOLES>  (1) 
241.09
4.2
1.88
1.01
0.37
0.08
-0.03
0.41
-0.45
-0.43
0.03
0.2
-0.17
-0.42

>  <PUBCHEM_SHAPE_SELFOVERLAP>  (1) 
464.995

>  <PUBCHEM_SHAPE_VOLUME>  (1) 
145.8

>  <PUBCHEM_COORDINATE_TYPE>  (1) 
2
5
10

$$$$
