2796
     RDKit          3D

 16 16  0  0  0  0  0  0  0  0999 V2000
   -4.6629   -1.4162   -0.5732 Cl  0  0  0  0  0  0  0  0  0  0  0  0
    0.3630    1.1349    1.0716 O   0  0  0  0  0  0  0  0  0  0  0  0
    2.3315   -0.6985    0.1791 O   0  0  0  0  0  0  0  0  0  0  0  0
    1.5257   -0.0414   -1.8758 O   0  0  0  0  0  0  0  0  0  0  0  0
    1.2946    1.4385    0.0422 C   0  0  0  0  0  0  0  0  0  0  0  0
    0.6334    2.4171   -0.9271 C   0  0  0  0  0  0  0  0  0  0  0  0
    2.5275    2.0614    0.6894 C   0  0  0  0  0  0  0  0  0  0  0  0
    1.7070    0.1590   -0.6806 C   0  0  0  0  0  0  0  0  0  0  0  0
   -0.8103    0.5392    0.6879 C   0  0  0  0  0  0  0  0  0  0  0  0
    2.7999   -1.9216   -0.3979 C   0  0  0  0  0  0  0  0  0  0  0  0
   -0.8919   -0.8473    0.6334 C   0  0  0  0  0  0  0  0  0  0  0  0
   -1.9057    1.3281    0.3566 C   0  0  0  0  0  0  0  0  0  0  0  0
   -2.0857   -1.4534    0.2419 C   0  0  0  0  0  0  0  0  0  0  0  0
   -3.0994    0.7220   -0.0349 C   0  0  0  0  0  0  0  0  0  0  0  0
    3.4628   -2.7530    0.6795 C   0  0  0  0  0  0  0  0  0  0  0  0
   -3.1894   -0.6688   -0.0922 C   0  0  0  0  0  0  0  0  0  0  0  0
  1 16  1  0
  2  5  1  0
  2  9  1  0
  3  8  1  0
  3 10  1  0
  4  8  2  0
  5  6  1  0
  5  7  1  0
  5  8  1  0
  9 11  2  0
  9 12  1  0
 10 15  1  0
 11 13  1  0
 12 14  2  0
 13 16  2  0
 14 16  1  0
M  END
>  <PUBCHEM_COMPOUND_CID>  (1) 
2796

>  <PUBCHEM_CONFORMER_RMSD>  (1) 
0.6

>  <PUBCHEM_CONFORMER_DIVERSEORDER>  (1) 
1
15
60
75
71
84
7
38
33
81
41
42
65
37
55
59
35
73
50
22
80
70
30
58
74
72
20
19
82
51
9
77
25
45
54
14
62
29
32
64
3
24
46
31
52
57
69
17
5
2
36
83
53
6
16
49
34
48
10
63
66
11
39
78
13
23
61
8
67
27
18
76
44
12
21
68
43
79
56
47
26
28
40
4

>  <PUBCHEM_MMFF94_PARTIAL_CHARGES>  (1) 
17
1 -0.18
10 0.28
11 -0.15
12 -0.15
13 -0.15
14 -0.15
16 0.18
2 -0.36
25 0.15
26 0.15
27 0.15
28 0.15
3 -0.43
4 -0.57
5 0.34
8 0.66
9 0.08

>  <PUBCHEM_EFFECTIVE_ROTOR_COUNT>  (1) 
5

>  <PUBCHEM_PHARMACOPHORE_FEATURES>  (1) 
4
1 2 acceptor
1 4 acceptor
3 5 6 7 hydrophobe
6 9 11 12 13 14 16 rings

>  <PUBCHEM_HEAVY_ATOM_COUNT>  (1) 
16

>  <PUBCHEM_ATOM_DEF_STEREO_COUNT>  (1) 
0

>  <PUBCHEM_ATOM_UDEF_STEREO_COUNT>  (1) 
0

>  <PUBCHEM_BOND_DEF_STEREO_COUNT>  (1) 
0

>  <PUBCHEM_BOND_UDEF_STEREO_COUNT>  (1) 
0

>  <PUBCHEM_ISOTOPIC_ATOM_COUNT>  (1) 
0

>  <PUBCHEM_COMPONENT_COUNT>  (1) 
1

>  <PUBCHEM_CACTVS_TAUTO_COUNT>  (1) 
1

>  <PUBCHEM_CONFORMER_ID>  (1) 
00000AEC00000001

>  <PUBCHEM_MMFF94_ENERGY>  (1) 
49.7374

>  <PUBCHEM_FEATURE_SELFOVERLAP>  (1) 
20.297

>  <PUBCHEM_SHAPE_FINGERPRINT>  (1) 
10062212 137 18264489477741418883
11578080 2 17750501881191207524
11769659 78 18342455928744403115
12808571 1 8790587192231152816
13083527 12 18334562526642803976
15852999 172 17970625422740689138
16945 1 18191599750711193185
17834072 14 18269543971106131690
18186145 218 18410298034220186045
20201158 50 18268431424326413369
20645477 70 18202005481786170863
20671657 53 18409448046600718782
21452121 199 18343012298538953897
21452121 71 18338244760798155338
21501502 16 18272097097346269545
22802520 49 18187656850663947377
232386 152 18268157465584805326
23419403 2 17699250358090519144
23532345 88 18411132584492958087
23552423 10 18265343974169107393
23559900 14 18337666528770683872
257057 1 18266176132741298154
2748010 2 18408326596380059257
3286 77 18409163299191205847
6338986 31 18265616489891719202
7364860 26 18341330084629944064
76465 3 18271516542374850871
9709674 26 18337109076692256899

>  <PUBCHEM_SHAPE_MULTIPOLES>  (1) 
313.53
6.48
2.75
1.07
4.46
0.4
-0.27
4.28
-0.48
-2.51
0.15
-0.4
-0.13
-0.34

>  <PUBCHEM_SHAPE_SELFOVERLAP>  (1) 
634.313

>  <PUBCHEM_SHAPE_VOLUME>  (1) 
185.1

>  <PUBCHEM_COORDINATE_TYPE>  (1) 
2
5
10

$$$$
