27968
     RDKit          3D

 16 16  0  0  0  0  0  0  0  0999 V2000
    4.7030    0.3216   -0.8052 S   0  0  0  0  0  0  0  0  0  0  0  0
   -1.0351   -0.8330   -0.8369 O   0  0  0  0  0  0  0  0  0  0  0  0
   -2.1211   -1.5808    1.0781 O   0  0  0  0  0  0  0  0  0  0  0  0
   -1.1955   -3.0835   -0.4276 N   0  0  0  0  0  0  0  0  0  0  0  0
    0.8672    0.5234    0.8079 C   0  0  0  0  0  0  0  0  0  0  0  0
    2.0601    0.7330   -0.1438 C   0  0  0  0  0  0  0  0  0  0  0  0
   -0.4058    1.1537    0.3481 C   0  0  0  0  0  0  0  0  0  0  0  0
    3.3331    0.0518    0.3574 C   0  0  0  0  0  0  0  0  0  0  0  0
   -1.3017    0.4473   -0.4546 C   0  0  0  0  0  0  0  0  0  0  0  0
   -0.6948    2.4639    0.7297 C   0  0  0  0  0  0  0  0  0  0  0  0
   -2.4866    1.0513   -0.8755 C   0  0  0  0  0  0  0  0  0  0  0  0
   -1.8797    3.0677    0.3087 C   0  0  0  0  0  0  0  0  0  0  0  0
   -2.7756    2.3615   -0.4939 C   0  0  0  0  0  0  0  0  0  0  0  0
    5.9965   -0.5491    0.1086 C   0  0  0  0  0  0  0  0  0  0  0  0
   -1.5116   -1.8250    0.0409 C   0  0  0  0  0  0  0  0  0  0  0  0
   -1.5523   -4.3038    0.2579 C   0  0  0  0  0  0  0  0  0  0  0  0
  1  8  1  0
  1 14  1  0
  2  9  1  0
  2 15  1  0
  3 15  2  0
  4 15  1  0
  4 16  1  0
  5  6  1  0
  5  7  1  0
  6  8  1  0
  7  9  2  0
  7 10  1  0
  9 11  1  0
 10 12  2  0
 11 13  2  0
 12 13  1  0
M  END
>  <PUBCHEM_COMPOUND_CID>  (1) 
27968

>  <PUBCHEM_CONFORMER_RMSD>  (1) 
0.8

>  <PUBCHEM_CONFORMER_DIVERSEORDER>  (1) 
1
37
146
107
15
83
177
137
17
162
125
20
176
36
73
165
184
110
93
28
147
44
159
38
87
71
43
182
157
16
72
178
102
129
172
55
69
89
140
60
179
19
47
121
104
171
131
183
6
118
161
150
90
66
156
30
158
135
173
101
18
152
112
88
138
149
23
174
65
32
58
141
34
180
63
41
164
49
7
143
145
181
40
124
111
67
62
126
130
120
54
22
31
136
113
105
2
119
10
151
155
61
115
86
109
100
50
74
96
106
154
5
122
9
70
175
14
170
114
76
21
77
166
163
78
3
25
91
98
48
128
116
160
4
24
132
52
82
8
39
123
12
84
144
95
185
108
169
11
134
27
92
99
127
26
75
42
85
56
68
168
53
97
64
13
57
29
46
35
142
80
103
33
117
139
45
148
167
94
79
51
81
153
133
59

>  <PUBCHEM_MMFF94_PARTIAL_CHARGES>  (1) 
20
1 -0.46
10 -0.15
11 -0.15
12 -0.15
13 -0.15
14 0.23
15 0.78
16 0.3
2 -0.23
23 0.15
24 0.15
25 0.15
26 0.15
3 -0.57
30 0.37
4 -0.73
5 0.14
7 -0.14
8 0.23
9 0.08

>  <PUBCHEM_EFFECTIVE_ROTOR_COUNT>  (1) 
7

>  <PUBCHEM_PHARMACOPHORE_FEATURES>  (1) 
5
1 14 hydrophobe
1 3 acceptor
1 4 donor
4 1 5 6 8 hydrophobe
6 7 9 10 11 12 13 rings

>  <PUBCHEM_HEAVY_ATOM_COUNT>  (1) 
16

>  <PUBCHEM_ATOM_DEF_STEREO_COUNT>  (1) 
0

>  <PUBCHEM_ATOM_UDEF_STEREO_COUNT>  (1) 
0

>  <PUBCHEM_BOND_DEF_STEREO_COUNT>  (1) 
0

>  <PUBCHEM_BOND_UDEF_STEREO_COUNT>  (1) 
0

>  <PUBCHEM_ISOTOPIC_ATOM_COUNT>  (1) 
0

>  <PUBCHEM_COMPONENT_COUNT>  (1) 
1

>  <PUBCHEM_CACTVS_TAUTO_COUNT>  (1) 
2

>  <PUBCHEM_CONFORMER_ID>  (1) 
00006D4000000001

>  <PUBCHEM_MMFF94_ENERGY>  (1) 
36.6722

>  <PUBCHEM_FEATURE_SELFOVERLAP>  (1) 
25.372

>  <PUBCHEM_SHAPE_FINGERPRINT>  (1) 
107951 10 18269281162104873294
12173636 292 18266453213877229788
12500047 106 18339074896440665324
12553582 1 18192705876536189066
13540713 5 17193743131823158005
15042514 8 18337677519882508443
15163728 17 17536304839230186773
15279307 12 18187922820903853506
167882 2 17615964413638485380
17859628 70 16679228318445036594
20645476 183 18261669272991234940
20645477 70 16391250843169015815
20871998 22 17763179541678527571
21665056 4 18338515231688735174
22224240 67 18200324208596773433
22849339 104 18340225024194975262
23366157 5 17398674497983700561
23402539 116 18270953566393280117
23557571 272 18198323247457045064
23559900 14 18271800208528499200
23598288 3 18115040695817976956
23728640 28 18410286978520958514
25147074 1 17051312399824334789
3421961 26 17474672131457248651
3759504 43 18335421201631359029
43471831 8 18123460575802088673
4921388 177 18411706474197574036
559249 180 18189330178971638210
81228 2 18197477718619954449
9709674 26 18201722813050911310

>  <PUBCHEM_SHAPE_MULTIPOLES>  (1) 
316.4
7.61
4.25
0.94
18.33
4.97
0.01
-1
1.1
-5.66
-0.49
-0.09
-0.09
0.17

>  <PUBCHEM_SHAPE_SELFOVERLAP>  (1) 
620.438

>  <PUBCHEM_SHAPE_VOLUME>  (1) 
191.7

>  <PUBCHEM_COORDINATE_TYPE>  (1) 
2
5
10

$$$$
