27978
     RDKit          3D

 13 13  0  0  0  0  0  0  0  0999 V2000
    0.8797    2.1587    0.3141 O   0  0  0  0  0  0  0  0  0  0  0  0
   -0.3723    0.2656   -0.2340 N   0  0  0  0  0  0  0  0  0  0  0  0
   -2.9143   -1.3109    0.5684 C   0  0  0  0  0  0  0  0  0  0  0  0
   -3.5675    0.0225    0.2141 C   0  0  0  0  0  0  0  0  0  0  0  0
   -1.8941   -1.7790   -0.4673 C   0  0  0  0  0  0  0  0  0  0  0  0
   -2.6201    1.2187    0.1957 C   0  0  0  0  0  0  0  0  0  0  0  0
   -0.4972   -1.1981   -0.2527 C   0  0  0  0  0  0  0  0  0  0  0  0
   -1.4632    1.0719   -0.7879 C   0  0  0  0  0  0  0  0  0  0  0  0
    0.7441    0.9345    0.2835 C   0  0  0  0  0  0  0  0  0  0  0  0
    1.8436    0.1074    0.8251 C   0  0  0  0  0  0  0  0  0  0  0  0
    2.8783   -0.3338    0.1050 C   0  0  0  0  0  0  0  0  0  0  0  0
    4.0242   -1.1752    0.5942 C   0  0  0  0  0  0  0  0  0  0  0  0
    2.9588    0.0177   -1.3584 C   0  0  0  0  0  0  0  0  0  0  0  0
  1  9  2  0
  2  7  1  0
  2  8  1  0
  2  9  1  0
  3  4  1  0
  3  5  1  0
  4  6  1  0
  5  7  1  0
  6  8  1  0
  9 10  1  0
 10 11  2  3
 11 12  1  0
 11 13  1  0
M  END
>  <PUBCHEM_COMPOUND_CID>  (1) 
27978

>  <PUBCHEM_CONFORMER_RMSD>  (1) 
0.6

>  <PUBCHEM_CONFORMER_DIVERSEORDER>  (1) 
1
14
21
13
6
19
20
10
3
12
9
4
5
11
22
17
18
15
16
8
7
2

>  <PUBCHEM_MMFF94_PARTIAL_CHARGES>  (1) 
10
1 -0.57
10 -0.14
11 -0.28
12 0.14
13 0.14
2 -0.66
26 0.15
7 0.3
8 0.3
9 0.62

>  <PUBCHEM_EFFECTIVE_ROTOR_COUNT>  (1) 
3.4

>  <PUBCHEM_PHARMACOPHORE_FEATURES>  (1) 
3
1 1 acceptor
3 11 12 13 hydrophobe
7 2 3 4 5 6 7 8 rings

>  <PUBCHEM_HEAVY_ATOM_COUNT>  (1) 
13

>  <PUBCHEM_ATOM_DEF_STEREO_COUNT>  (1) 
0

>  <PUBCHEM_ATOM_UDEF_STEREO_COUNT>  (1) 
0

>  <PUBCHEM_BOND_DEF_STEREO_COUNT>  (1) 
0

>  <PUBCHEM_BOND_UDEF_STEREO_COUNT>  (1) 
0

>  <PUBCHEM_ISOTOPIC_ATOM_COUNT>  (1) 
0

>  <PUBCHEM_COMPONENT_COUNT>  (1) 
1

>  <PUBCHEM_CACTVS_TAUTO_COUNT>  (1) 
1

>  <PUBCHEM_CONFORMER_ID>  (1) 
00006D4A00000001

>  <PUBCHEM_MMFF94_ENERGY>  (1) 
25.9467

>  <PUBCHEM_FEATURE_SELFOVERLAP>  (1) 
15.223

>  <PUBCHEM_SHAPE_FINGERPRINT>  (1) 
10130415 120 18410291393815553082
10465860 71 18340226145028192132
10751810 167 18261685817257831246
11132069 177 18410571760395484099
11769659 78 18338513144255520923
12032990 46 18412829053662238402
124424 183 18410005516355095015
12897270 3 10737279143352695153
12932764 1 17821999917629710913
13296908 3 18342452656068961962
14144814 61 18411699898027715283
15076042 46 18272093841903464425
15375462 189 18187363207818170514
15775835 57 18261114049805006123
16945 1 18413107264616648511
17804303 29 18412268350029336987
17834069 15 18341895186267184307
18511873 20 18272371983811272339
18522853 295 18412832365071571646
19422 9 18040440987952330202
20279233 1 17775001271810166854
20281407 28 18335140916244194010
20645464 45 17918269844411767367
21501502 16 18198340852058226157
22485316 2 18408881832851752858
22959321 94 18264758888313114394
232386 152 18409163325029561558
23402539 116 18058151861017619461
23463225 33 18335700494875349042
23552423 10 18046345502874658445
23559900 14 18270392782073650682
23598291 2 17677342606323932012
2748010 2 18266729367489349453
3286 77 17131262588846509995
57812782 119 16917066659519076819
7364860 26 18055917842590481848
74978 22 18340483482051166023
81228 2 17558843784333770672

>  <PUBCHEM_SHAPE_MULTIPOLES>  (1) 
256.68
6.37
1.78
0.95
2.17
0.1
-0.17
-1.8
0.56
-0.65
0.05
0.46
-0.01
-0.11

>  <PUBCHEM_SHAPE_SELFOVERLAP>  (1) 
499.341

>  <PUBCHEM_SHAPE_VOLUME>  (1) 
153.2

>  <PUBCHEM_COORDINATE_TYPE>  (1) 
2
5
10

$$$$
