27987
     RDKit          3D

  8  7  0  0  0  0  0  0  0  0999 V2000
    1.4647    1.2052    0.0372 O   0  0  0  0  0  0  0  0  0  0  0  0
   -1.0780   -0.0692    0.0047 N   0  0  0  0  0  0  0  0  0  0  0  0
    2.5048   -0.8468    0.0529 N   0  0  0  0  0  0  0  0  0  0  0  0
    0.1762   -0.7656   -0.5033 C   0  0  0  0  0  0  0  0  0  0  0  0
   -1.1564    1.3306   -0.5875 C   0  0  0  0  0  0  0  0  0  0  0  0
   -2.3052   -0.8664   -0.4132 C   0  0  0  0  0  0  0  0  0  0  0  0
   -1.0269    0.0245    1.5229 C   0  0  0  0  0  0  0  0  0  0  0  0
    1.4207   -0.0123   -0.1136 C   0  0  0  0  0  0  0  0  0  0  0  0
  1  8  2  0
  2  4  1  0
  2  5  1  0
  2  6  1  0
  2  7  1  0
  3  8  1  0
  4  8  1  0
M  CHG  1   2   1
M  END
>  <PUBCHEM_COMPOUND_CID>  (1) 
27987

>  <PUBCHEM_CONFORMER_RMSD>  (1) 
0.4

>  <PUBCHEM_CONFORMER_DIVERSEORDER>  (1) 
1
2

>  <PUBCHEM_MMFF94_PARTIAL_CHARGES>  (1) 
10
1 -0.57
2 -1.01
20 0.37
21 0.37
3 -0.8
4 0.56
5 0.5
6 0.5
7 0.5
8 0.57

>  <PUBCHEM_EFFECTIVE_ROTOR_COUNT>  (1) 
2

>  <PUBCHEM_PHARMACOPHORE_FEATURES>  (1) 
3
1 1 acceptor
1 2 cation
1 3 donor

>  <PUBCHEM_HEAVY_ATOM_COUNT>  (1) 
8

>  <PUBCHEM_ATOM_DEF_STEREO_COUNT>  (1) 
0

>  <PUBCHEM_ATOM_UDEF_STEREO_COUNT>  (1) 
0

>  <PUBCHEM_BOND_DEF_STEREO_COUNT>  (1) 
0

>  <PUBCHEM_BOND_UDEF_STEREO_COUNT>  (1) 
0

>  <PUBCHEM_ISOTOPIC_ATOM_COUNT>  (1) 
0

>  <PUBCHEM_COMPONENT_COUNT>  (1) 
1

>  <PUBCHEM_CACTVS_TAUTO_COUNT>  (1) 
2

>  <PUBCHEM_CONFORMER_ID>  (1) 
00006D5300000001

>  <PUBCHEM_MMFF94_ENERGY>  (1) 
28.0174

>  <PUBCHEM_FEATURE_SELFOVERLAP>  (1) 
15.223

>  <PUBCHEM_SHAPE_FINGERPRINT>  (1) 
21040471 1 17904195932225163124
23552333 60 18200874105326358267
23552423 10 18187081754231945366
24536 1 17274831215973315156
29004967 10 18116997886829615763
5084963 1 18272931626497522090
5943 1 16379111758045546321

>  <PUBCHEM_SHAPE_MULTIPOLES>  (1) 
148.8
2.91
1.23
1.01
0.8
0.3
0.43
-0.67
-0.17
-0.08
-0.22
-0.42
0.02
0.01

>  <PUBCHEM_SHAPE_SELFOVERLAP>  (1) 
270.932

>  <PUBCHEM_SHAPE_VOLUME>  (1) 
97.4

>  <PUBCHEM_COORDINATE_TYPE>  (1) 
2
5
10

$$$$
