27980
     RDKit          3D

 12 12  0  0  0  0  0  0  0  0999 V2000
   -2.5974   -0.2513   -1.2061 S   0  0  0  0  0  0  0  0  0  0  0  0
    3.5395   -0.1971    0.5267 O   0  0  0  0  0  0  0  0  0  0  0  0
    2.4701   -2.0223   -0.3049 O   0  0  0  0  0  0  0  0  0  0  0  0
   -3.6295   -1.1395    1.3011 N   0  0  0  0  0  0  0  0  0  0  0  0
    1.2791    0.0353   -0.0375 C   0  0  0  0  0  0  0  0  0  0  0  0
    0.0670   -0.4577   -0.5208 C   0  0  0  0  0  0  0  0  0  0  0  0
   -1.0482    0.3775   -0.5888 C   0  0  0  0  0  0  0  0  0  0  0  0
    1.3760    1.3635    0.3777 C   0  0  0  0  0  0  0  0  0  0  0  0
   -0.9511    1.7057   -0.1735 C   0  0  0  0  0  0  0  0  0  0  0  0
    0.2610    2.1987    0.3097 C   0  0  0  0  0  0  0  0  0  0  0  0
    2.4422   -0.8347    0.0343 C   0  0  0  0  0  0  0  0  0  0  0  0
   -3.2088   -0.7780    0.2821 C   0  0  0  0  0  0  0  0  0  0  0  0
  1  7  1  0
  1 12  1  0
  2 11  1  0
  3 11  2  0
  4 12  3  0
  5  6  2  0
  5  8  1  0
  5 11  1  0
  6  7  1  0
  7  9  2  0
  8 10  2  0
  9 10  1  0
M  END
>  <PUBCHEM_COMPOUND_CID>  (1) 
27980

>  <PUBCHEM_CONFORMER_RMSD>  (1) 
0.6

>  <PUBCHEM_CONFORMER_DIVERSEORDER>  (1) 
2
10
5
9
8
1
4
7
3
6

>  <PUBCHEM_MMFF94_PARTIAL_CHARGES>  (1) 
17
1 -0.14
10 -0.15
11 0.63
12 0.59
13 0.15
14 0.15
15 0.15
16 0.15
17 0.5
2 -0.65
3 -0.57
4 -0.56
5 0.09
6 -0.15
7 0.1
8 -0.15
9 -0.15

>  <PUBCHEM_EFFECTIVE_ROTOR_COUNT>  (1) 
2

>  <PUBCHEM_PHARMACOPHORE_FEATURES>  (1) 
5
1 2 acceptor
1 3 acceptor
1 4 acceptor
3 2 3 11 anion
6 5 6 7 8 9 10 rings

>  <PUBCHEM_HEAVY_ATOM_COUNT>  (1) 
12

>  <PUBCHEM_ATOM_DEF_STEREO_COUNT>  (1) 
0

>  <PUBCHEM_ATOM_UDEF_STEREO_COUNT>  (1) 
0

>  <PUBCHEM_BOND_DEF_STEREO_COUNT>  (1) 
0

>  <PUBCHEM_BOND_UDEF_STEREO_COUNT>  (1) 
0

>  <PUBCHEM_ISOTOPIC_ATOM_COUNT>  (1) 
0

>  <PUBCHEM_COMPONENT_COUNT>  (1) 
1

>  <PUBCHEM_CACTVS_TAUTO_COUNT>  (1) 
1

>  <PUBCHEM_CONFORMER_ID>  (1) 
00006D4C00000002

>  <PUBCHEM_MMFF94_ENERGY>  (1) 
28.5124

>  <PUBCHEM_FEATURE_SELFOVERLAP>  (1) 
25.429

>  <PUBCHEM_SHAPE_FINGERPRINT>  (1) 
11086676 242 18201169801134945497
11471102 22 18341334478297124203
11543360 7 16370451055161560718
12032990 46 18411982434135752062
12251169 10 18131355245414847447
14252887 29 18201726149702806422
16945 1 18270389615659380196
17844478 74 18408038515696278501
20201158 50 18334849524304249163
20281407 28 18411136926657492719
20645477 70 18338220678874387623
20711985 344 17971449846230202173
20871998 184 17987230032558191076
20871998 22 18343028756832636982
21061003 4 18343016696627643213
23382010 3 11314605284527435135
23552423 10 18193271889169894806
25610 137 18408606972140671180
2748010 2 18127960924065369860
81228 2 18122895430725207944

>  <PUBCHEM_SHAPE_MULTIPOLES>  (1) 
234.08
5.27
1.94
0.97
1.29
0.62
-0.02
-3.03
-1.2
-0.66
-0.16
0.85
-0.17
0.55

>  <PUBCHEM_SHAPE_SELFOVERLAP>  (1) 
476.76

>  <PUBCHEM_SHAPE_VOLUME>  (1) 
134.7

>  <PUBCHEM_COORDINATE_TYPE>  (1) 
2
5
10

$$$$
