27989
     RDKit          3D

 10  9  0  0  0  0  0  0  0  0999 V2000
    2.6437    0.7719   -0.0038 O   0  0  0  0  0  0  0  0  0  0  0  0
    1.9633   -1.4324   -0.0009 O   0  0  0  0  0  0  0  0  0  0  0  0
   -2.1341    0.0337    0.0043 N   0  0  0  0  0  0  0  0  0  0  0  0
   -0.7796   -0.6591    0.0446 C   0  0  0  0  0  0  0  0  0  0  0  0
   -3.2390   -1.0041    0.1404 C   0  0  0  0  0  0  0  0  0  0  0  0
   -2.2288    1.0291    1.1515 C   0  0  0  0  0  0  0  0  0  0  0  0
   -2.2889    0.7687   -1.3193 C   0  0  0  0  0  0  0  0  0  0  0  0
    0.3333    0.3754   -0.0260 C   0  0  0  0  0  0  0  0  0  0  0  0
    1.7188   -0.2339   -0.0129 C   0  0  0  0  0  0  0  0  0  0  0  0
    4.0113    0.3508    0.0220 C   0  0  0  0  0  0  0  0  0  0  0  0
  1  9  1  0
  1 10  1  0
  2  9  2  0
  3  4  1  0
  3  5  1  0
  3  6  1  0
  3  7  1  0
  4  8  1  0
  8  9  1  0
M  CHG  1   3   1
M  END
>  <PUBCHEM_COMPOUND_CID>  (1) 
27989

>  <PUBCHEM_CONFORMER_RMSD>  (1) 
0.6

>  <PUBCHEM_CONFORMER_DIVERSEORDER>  (1) 
1
5
4
2
3

>  <PUBCHEM_MMFF94_PARTIAL_CHARGES>  (1) 
10
1 -0.43
10 0.28
2 -0.57
3 -1.01
4 0.5
5 0.5
6 0.5
7 0.5
8 0.06
9 0.66

>  <PUBCHEM_EFFECTIVE_ROTOR_COUNT>  (1) 
4

>  <PUBCHEM_PHARMACOPHORE_FEATURES>  (1) 
2
1 2 acceptor
1 3 cation

>  <PUBCHEM_HEAVY_ATOM_COUNT>  (1) 
10

>  <PUBCHEM_ATOM_DEF_STEREO_COUNT>  (1) 
0

>  <PUBCHEM_ATOM_UDEF_STEREO_COUNT>  (1) 
0

>  <PUBCHEM_BOND_DEF_STEREO_COUNT>  (1) 
0

>  <PUBCHEM_BOND_UDEF_STEREO_COUNT>  (1) 
0

>  <PUBCHEM_ISOTOPIC_ATOM_COUNT>  (1) 
0

>  <PUBCHEM_COMPONENT_COUNT>  (1) 
1

>  <PUBCHEM_CACTVS_TAUTO_COUNT>  (1) 
1

>  <PUBCHEM_CONFORMER_ID>  (1) 
00006D5500000001

>  <PUBCHEM_MMFF94_ENERGY>  (1) 
27.2485

>  <PUBCHEM_FEATURE_SELFOVERLAP>  (1) 
10.148

>  <PUBCHEM_SHAPE_FINGERPRINT>  (1) 
11062470 55 14851597804037633534
12932764 1 17895762785424807466
14325111 11 18411702071328626690
14390081 3 18131913767019551520
14577589 140 8862949380991591801
15310529 11 17632581526332359919
190213 19 18202846556536004748
20201158 50 18260829319032172914
20279233 1 17458346325151697155
20645464 45 17530686485077291009
3248919 1 18201712899580764802
369184 2 18409167680136741267
5084963 1 18260830414554664987
8030462 33 17846488201922211715

>  <PUBCHEM_SHAPE_MULTIPOLES>  (1) 
189.08
6.2
1.17
0.92
3.93
0.17
0.08
-0.23
-0.07
-0.27
-0.06
-0.76
-0.3
0.02

>  <PUBCHEM_SHAPE_SELFOVERLAP>  (1) 
344.345

>  <PUBCHEM_SHAPE_VOLUME>  (1) 
123.8

>  <PUBCHEM_COORDINATE_TYPE>  (1) 
2
5
10

$$$$
