27998
     RDKit          3D

 13 13  0  0  0  0  0  0  0  0999 V2000
    4.4295   -0.4228    0.1981 Cl  0  0  0  0  0  0  0  0  0  0  0  0
   -3.0662   -1.3448   -0.1319 O   0  0  0  0  0  0  0  0  0  0  0  0
   -1.4787    0.4943   -0.3308 C   0  0  0  0  0  0  0  0  0  0  0  0
    0.0318    0.2602   -0.1965 C   0  0  0  0  0  0  0  0  0  0  0  0
   -1.8452    0.4396   -1.8314 C   0  0  0  0  0  0  0  0  0  0  0  0
   -1.9686    1.8576    0.2024 C   0  0  0  0  0  0  0  0  0  0  0  0
   -2.2601   -0.6016    0.4324 C   0  0  0  0  0  0  0  0  0  0  0  0
    0.5555   -0.9201   -0.6656 C   0  0  0  0  0  0  0  0  0  0  0  0
    0.7967    1.2406    0.3882 C   0  0  0  0  0  0  0  0  0  0  0  0
   -2.0285   -0.7374    1.9207 C   0  0  0  0  0  0  0  0  0  0  0  0
    1.9284   -1.1333   -0.5424 C   0  0  0  0  0  0  0  0  0  0  0  0
    2.1697    1.0274    0.5112 C   0  0  0  0  0  0  0  0  0  0  0  0
    2.7356   -0.1596    0.0458 C   0  0  0  0  0  0  0  0  0  0  0  0
  1 13  1  0
  2  7  2  0
  3  4  1  0
  3  5  1  0
  3  6  1  0
  3  7  1  0
  4  8  2  0
  4  9  1  0
  7 10  1  0
  8 11  1  0
  9 12  2  0
 11 13  2  0
 12 13  1  0
M  END
>  <PUBCHEM_COMPOUND_CID>  (1) 
27998

>  <PUBCHEM_CONFORMER_RMSD>  (1) 
0.6

>  <PUBCHEM_CONFORMER_DIVERSEORDER>  (1) 
1
6
3
4
5
2

>  <PUBCHEM_MMFF94_PARTIAL_CHARGES>  (1) 
15
1 -0.18
10 0.06
11 -0.15
12 -0.15
13 0.18
2 -0.57
20 0.15
21 0.15
25 0.15
26 0.15
3 0.2
4 -0.14
7 0.45
8 -0.15
9 -0.15

>  <PUBCHEM_EFFECTIVE_ROTOR_COUNT>  (1) 
2

>  <PUBCHEM_PHARMACOPHORE_FEATURES>  (1) 
3
1 2 acceptor
3 3 5 6 hydrophobe
6 4 8 9 11 12 13 rings

>  <PUBCHEM_HEAVY_ATOM_COUNT>  (1) 
13

>  <PUBCHEM_ATOM_DEF_STEREO_COUNT>  (1) 
0

>  <PUBCHEM_ATOM_UDEF_STEREO_COUNT>  (1) 
0

>  <PUBCHEM_BOND_DEF_STEREO_COUNT>  (1) 
0

>  <PUBCHEM_BOND_UDEF_STEREO_COUNT>  (1) 
0

>  <PUBCHEM_ISOTOPIC_ATOM_COUNT>  (1) 
0

>  <PUBCHEM_COMPONENT_COUNT>  (1) 
1

>  <PUBCHEM_CACTVS_TAUTO_COUNT>  (1) 
2

>  <PUBCHEM_CONFORMER_ID>  (1) 
00006D5E00000001

>  <PUBCHEM_MMFF94_ENERGY>  (1) 
39.2687

>  <PUBCHEM_FEATURE_SELFOVERLAP>  (1) 
15.223

>  <PUBCHEM_SHAPE_FINGERPRINT>  (1) 
11471102 22 18342184379379175914
11543360 7 16732997427009660942
12032990 46 18272374144591376206
12138202 97 17896020084236175271
12251169 10 17988939876477086611
124424 183 18261943047481616566
12500047 106 17096071498990996414
12716758 59 17458616753456600661
12932764 1 17203602692647677180
13024252 1 11674884381446523053
13214271 11 18273211963471410284
13296908 3 18341897334109567542
15309172 13 17561363972221321006
15653759 3 18260829293615732136
15775835 57 12679193669423350667
16945 1 18202273736716023900
17844478 74 18411143553734008072
18534176 82 17821720611611348677
19026448 5 17023184895166879556
200 152 17632283597541595471
20201158 50 18408603656072555683
20711985 344 17531235158976392157
21061003 4 18412271652722232656
21501502 16 18335431182977047268
2306618 200 17060330786740044001
23402539 116 17240751874919891799
23557571 272 17749390343348833188
23559900 14 17168137971296108848
2748010 2 18057892333719177046
3248919 1 18333727988279189364
369184 2 18201999919581625253
5084963 1 18040150742657682468
63268167 104 17560515110510616850

>  <PUBCHEM_SHAPE_MULTIPOLES>  (1) 
263.53
5.58
1.48
1.29
4.62
0.29
0.04
-1.1
0.56
-0.61
0.13
-0.99
-0.15
0.55

>  <PUBCHEM_SHAPE_SELFOVERLAP>  (1) 
536.045

>  <PUBCHEM_SHAPE_VOLUME>  (1) 
156.4

>  <PUBCHEM_COORDINATE_TYPE>  (1) 
2
5
10

$$$$
