28008
     RDKit          3D

 18 20  0  0  0  0  0  0  0  0999 V2000
    0.1707    1.9110   -0.4181 O   0  0  0  0  0  0  0  0  0  0  0  0
    1.2754   -2.7741    0.3004 O   0  0  0  0  0  0  0  0  0  0  0  0
    4.6632    0.4723   -0.0979 O   0  0  0  0  0  0  0  0  0  0  0  0
   -1.1716    1.7811    0.1061 C   0  0  0  0  0  0  0  0  0  0  0  0
   -1.7524    0.3735   -0.0091 C   0  0  0  0  0  0  0  0  0  0  0  0
   -0.8676   -0.7241   -0.0669 C   0  0  0  0  0  0  0  0  0  0  0  0
    0.5781   -0.4541   -0.0363 C   0  0  0  0  0  0  0  0  0  0  0  0
   -1.1487    2.2215    1.5801 C   0  0  0  0  0  0  0  0  0  0  0  0
   -1.9758    2.8121   -0.7082 C   0  0  0  0  0  0  0  0  0  0  0  0
    1.0263    0.8617   -0.2192 C   0  0  0  0  0  0  0  0  0  0  0  0
   -3.1410    0.1461    0.0005 C   0  0  0  0  0  0  0  0  0  0  0  0
   -1.4113   -2.0190   -0.1603 C   0  0  0  0  0  0  0  0  0  0  0  0
    1.5557   -1.4460    0.1593 C   0  0  0  0  0  0  0  0  0  0  0  0
    2.3898    1.1735   -0.2529 C   0  0  0  0  0  0  0  0  0  0  0  0
   -3.6561   -1.1452   -0.0847 C   0  0  0  0  0  0  0  0  0  0  0  0
   -2.7913   -2.2270   -0.1711 C   0  0  0  0  0  0  0  0  0  0  0  0
    2.9197   -1.1360    0.1452 C   0  0  0  0  0  0  0  0  0  0  0  0
    3.3369    0.1728   -0.0668 C   0  0  0  0  0  0  0  0  0  0  0  0
  1  4  1  0
  1 10  1  0
  2 13  1  0
  3 18  1  0
  4  5  1  0
  4  8  1  0
  4  9  1  0
  5  6  2  0
  5 11  1  0
  6  7  1  0
  6 12  1  0
  7 10  2  0
  7 13  1  0
 10 14  1  0
 11 15  2  0
 12 16  2  0
 13 17  2  0
 14 18  2  0
 15 16  1  0
 17 18  1  0
M  END
>  <PUBCHEM_COMPOUND_CID>  (1) 
28008

>  <PUBCHEM_CONFORMER_RMSD>  (1) 
0.6

>  <PUBCHEM_CONFORMER_DIVERSEORDER>  (1) 
1

>  <PUBCHEM_MMFF94_PARTIAL_CHARGES>  (1) 
22
1 -0.36
10 0.08
11 -0.15
12 -0.15
13 0.08
14 -0.15
15 -0.15
16 -0.15
17 -0.15
18 0.08
2 -0.53
25 0.15
26 0.15
27 0.15
28 0.15
29 0.15
3 -0.53
30 0.15
31 0.45
32 0.45
4 0.42
5 -0.14

>  <PUBCHEM_EFFECTIVE_ROTOR_COUNT>  (1) 
0.4

>  <PUBCHEM_PHARMACOPHORE_FEATURES>  (1) 
7
1 1 acceptor
1 2 donor
1 3 donor
3 4 8 9 hydrophobe
6 1 4 5 6 7 10 rings
6 5 6 11 12 15 16 rings
6 7 10 13 14 17 18 rings

>  <PUBCHEM_HEAVY_ATOM_COUNT>  (1) 
18

>  <PUBCHEM_ATOM_DEF_STEREO_COUNT>  (1) 
0

>  <PUBCHEM_ATOM_UDEF_STEREO_COUNT>  (1) 
0

>  <PUBCHEM_BOND_DEF_STEREO_COUNT>  (1) 
0

>  <PUBCHEM_BOND_UDEF_STEREO_COUNT>  (1) 
0

>  <PUBCHEM_ISOTOPIC_ATOM_COUNT>  (1) 
0

>  <PUBCHEM_COMPONENT_COUNT>  (1) 
1

>  <PUBCHEM_CACTVS_TAUTO_COUNT>  (1) 
9

>  <PUBCHEM_CONFORMER_ID>  (1) 
00006D6800000001

>  <PUBCHEM_MMFF94_ENERGY>  (1) 
71.651

>  <PUBCHEM_FEATURE_SELFOVERLAP>  (1) 
35.569

>  <PUBCHEM_SHAPE_FINGERPRINT>  (1) 
104564 63 18413673504393679781
10616163 171 18410577283792193422
108231 29 18126286582282657522
10967382 1 17905327681945813655
11132069 177 18341328980617646562
11578080 2 17487874878737680865
12553582 1 18337949094975250579
12730499 353 17106493564065075917
13027679 85 18341611581324304945
13132413 78 18268432506737254461
13140716 1 18194970857535277857
13221675 6 18410293626945638134
13583140 156 14117523129803763455
14081887 123 18200577160093550328
14178342 30 18266167354044403872
14223421 5 18339923718937221502
14614273 12 18334009454349480485
14787075 74 17984413307459861312
15196674 1 18410011030982430718
15375462 189 18337115673814621827
15442244 35 18193272984160247522
15490181 8 17553485773681385589
16945 1 18409158918160968293
193761 8 18193555566979791311
200 152 18342449374608647831
20510252 161 18343584023121214344
21029758 11 18271518818933883615
21029758 27 18191031294878561303
21267235 1 18337963392678993711
21501502 16 18265331712069171306
221490 88 17686904229832860811
2334 1 17906454677011255463
23388829 49 18409169938904514645
23402539 116 18270675480156029542
23419403 2 15741251050657678803
23463225 33 18336264634307702214
23557571 272 18201447981950789926
23559900 14 18342732988916674728
238 59 16309325643208974461
2748010 2 18049729507607066375
2871803 45 18409444795415964406
3312278 4 18410856576999162779
335352 9 18193837037645645862
34934 24 18410285917790552183
350125 39 18123478180535321035
352729 6 17908136586515644361
353137 74 18408600344694806123
427121 178 15980088032122488833
43471831 8 18335135376237977402
5104073 3 18410573963908899594
589210 1 18194399987572816398
7364860 26 17767402753193309649
74978 22 17979356356861658262
81228 2 18339095829588870849
8809292 202 18116153444503765683
9709674 26 18341052926043040654

>  <PUBCHEM_SHAPE_MULTIPOLES>  (1) 
352.82
5.8
3
0.8
3.42
0.3
0.19
-1.12
-0.32
-1.57
0.09
-0.21
0.41
-0.27

>  <PUBCHEM_SHAPE_SELFOVERLAP>  (1) 
785.011

>  <PUBCHEM_SHAPE_VOLUME>  (1) 
188.6

>  <PUBCHEM_COORDINATE_TYPE>  (1) 
2
5
10

$$$$
