28005
     RDKit          3D

 13 13  0  0  1  0  0  0  0  0999 V2000
   -0.8500   -1.0467   -0.5172 N   0  0  0  0  0  0  0  0  0  0  0  0
   -0.3442    0.0096    0.3585 C   0  0  0  0  0  0  0  0  0  0  0  0
    1.1422    0.1976    0.2099 C   0  0  0  0  0  0  0  0  0  0  0  0
   -2.3025   -1.1630   -0.3918 C   0  0  0  0  0  0  0  0  0  0  0  0
   -0.2064   -2.3221   -0.2042 C   0  0  0  0  0  0  0  0  0  0  0  0
    2.0069   -0.5310    1.0148 C   0  0  0  0  0  0  0  0  0  0  0  0
    1.6270    1.0967   -0.7295 C   0  0  0  0  0  0  0  0  0  0  0  0
    3.3840   -0.3570    0.8773 C   0  0  0  0  0  0  0  0  0  0  0  0
    3.0041    1.2708   -0.8670 C   0  0  0  0  0  0  0  0  0  0  0  0
   -2.9887    0.1301   -0.7070 C   0  0  0  0  0  0  0  0  0  0  0  0
    3.8827    0.5439   -0.0636 C   0  0  0  0  0  0  0  0  0  0  0  0
   -3.7820    0.7673    0.1053 C   0  0  0  0  0  0  0  0  0  0  0  0
   -4.5730    1.4036    0.9145 C   0  0  0  0  0  0  0  0  0  0  0  0
  1  2  1  0
  1  4  1  0
  1  5  1  0
  2  3  1  0
  3  6  2  0
  3  7  1  0
  4 10  1  0
  6  8  1  0
  7  9  2  0
  8 11  2  0
  9 11  1  0
 10 12  2  0
 12 13  2  0
M  END
>  <PUBCHEM_COMPOUND_CID>  (1) 
28005

>  <PUBCHEM_CONFORMER_RMSD>  (1) 
0.6

>  <PUBCHEM_CONFORMER_DIVERSEORDER>  (1) 
7
49
20
51
18
23
17
46
42
40
37
36
38
24
1
32
27
14
33
35
45
50
25
34
12
30
31
5
21
16
22
29
13
39
28
19
3
9
2
10
6
47
43
41
15
48
26
11
4
44
8

>  <PUBCHEM_MMFF94_PARTIAL_CHARGES>  (1) 
21
1 -0.81
10 -0.22
11 -0.15
12 -0.13
13 -0.24
2 0.41
21 0.15
22 0.15
23 0.15
24 0.15
25 0.15
26 0.15
27 0.15
28 0.15
3 -0.14
4 0.41
5 0.27
6 -0.15
7 -0.15
8 -0.15
9 -0.15

>  <PUBCHEM_EFFECTIVE_ROTOR_COUNT>  (1) 
4

>  <PUBCHEM_PHARMACOPHORE_FEATURES>  (1) 
3
1 1 cation
1 13 hydrophobe
6 3 6 7 8 9 11 rings

>  <PUBCHEM_HEAVY_ATOM_COUNT>  (1) 
13

>  <PUBCHEM_ATOM_DEF_STEREO_COUNT>  (1) 
0

>  <PUBCHEM_ATOM_UDEF_STEREO_COUNT>  (1) 
0

>  <PUBCHEM_BOND_DEF_STEREO_COUNT>  (1) 
0

>  <PUBCHEM_BOND_UDEF_STEREO_COUNT>  (1) 
0

>  <PUBCHEM_ISOTOPIC_ATOM_COUNT>  (1) 
0

>  <PUBCHEM_COMPONENT_COUNT>  (1) 
1

>  <PUBCHEM_CACTVS_TAUTO_COUNT>  (1) 
1

>  <PUBCHEM_CONFORMER_ID>  (1) 
00006D6500000007

>  <PUBCHEM_MMFF94_ENERGY>  (1) 
33.0334

>  <PUBCHEM_FEATURE_SELFOVERLAP>  (1) 
15.223

>  <PUBCHEM_SHAPE_FINGERPRINT>  (1) 
10354089 29 18041003933690126417
10465860 228 18269278963107834947
10726558 24 18272939314420546855
10980938 120 17894904148795786302
12500047 106 17632008740967284030
13705890 14 14333118715251364031
14144814 61 18261383490130385494
15775835 57 18334296487098332941
1741750 31 18339642364113976744
17844478 74 15864341441695602374
18186145 218 18113894970500377662
18511873 20 18408315601459012194
19107657 9 18412545409927483885
19422 9 18114739442474995058
20233049 118 18273492377448969168
20279233 1 16056881351020631660
20645477 70 16951662766922599011
20671657 53 13398641544968532760
20711983 171 18412263964677843503
21524375 3 18411694392354622863
22926399 65 18060420222441501865
23402539 116 17846491530706852748
23557571 272 16271632490802086283
23559900 14 17918273173818387512
251288 83 12252196206941208918
276578 36 18341895151780897467
42627469 27 18411135827319879717
6430166 295 18413105039644422977
74978 22 18268987768435432584

>  <PUBCHEM_SHAPE_MULTIPOLES>  (1) 
262.55
7.95
1.68
1
4.36
0.7
0.08
-3.85
1.22
0.52
-0.19
-0.12
-0.11
-1.12

>  <PUBCHEM_SHAPE_SELFOVERLAP>  (1) 
529.231

>  <PUBCHEM_SHAPE_VOLUME>  (1) 
154.3

>  <PUBCHEM_COORDINATE_TYPE>  (1) 
2
5
10

$$$$
