2800
     RDKit          3D

 29 31  0  0  0  0  0  0  0  0999 V2000
   -1.3318    2.6835   -0.2773 Cl  0  0  0  0  0  0  0  0  0  0  0  0
    3.6704   -0.9467   -0.9041 O   0  0  0  0  0  0  0  0  0  0  0  0
    6.8201    0.4780    0.3745 N   0  0  0  0  0  0  0  0  0  0  0  0
    5.8855   -0.1004   -0.5902 C   0  0  0  0  0  0  0  0  0  0  0  0
    7.0410   -0.4440    1.4881 C   0  0  0  0  0  0  0  0  0  0  0  0
    8.0879    0.8066   -0.2760 C   0  0  0  0  0  0  0  0  0  0  0  0
    4.5506   -0.4039    0.0712 C   0  0  0  0  0  0  0  0  0  0  0  0
    7.9623    0.1657    2.5311 C   0  0  0  0  0  0  0  0  0  0  0  0
    7.8774    1.7644   -1.4366 C   0  0  0  0  0  0  0  0  0  0  0  0
   -0.3864   -0.2659   -0.3508 C   0  0  0  0  0  0  0  0  0  0  0  0
    2.3310   -0.7220   -0.7210 C   0  0  0  0  0  0  0  0  0  0  0  0
   -1.8078   -0.0269   -0.1561 C   0  0  0  0  0  0  0  0  0  0  0  0
    0.1281   -0.4049   -1.6397 C   0  0  0  0  0  0  0  0  0  0  0  0
    0.4623   -0.3559    0.7525 C   0  0  0  0  0  0  0  0  0  0  0  0
    1.4914   -0.6338   -1.8255 C   0  0  0  0  0  0  0  0  0  0  0  0
    1.8257   -0.5848    0.5668 C   0  0  0  0  0  0  0  0  0  0  0  0
   -2.7691   -1.1646    0.0019 C   0  0  0  0  0  0  0  0  0  0  0  0
   -2.3072    1.2489   -0.1097 C   0  0  0  0  0  0  0  0  0  0  0  0
   -3.7366    1.5442    0.0871 C   0  0  0  0  0  0  0  0  0  0  0  0
   -3.0210   -1.6374    1.2669 C   0  0  0  0  0  0  0  0  0  0  0  0
   -3.3570   -1.6859   -1.1251 C   0  0  0  0  0  0  0  0  0  0  0  0
   -3.9160   -2.6971    1.4142 C   0  0  0  0  0  0  0  0  0  0  0  0
   -4.2520   -2.7455   -0.9778 C   0  0  0  0  0  0  0  0  0  0  0  0
   -4.2262    1.7032    1.3739 C   0  0  0  0  0  0  0  0  0  0  0  0
   -4.5653    1.6575   -1.0178 C   0  0  0  0  0  0  0  0  0  0  0  0
   -4.5315   -3.2511    0.2919 C   0  0  0  0  0  0  0  0  0  0  0  0
   -5.5800    1.9825    1.5606 C   0  0  0  0  0  0  0  0  0  0  0  0
   -5.9192    1.9370   -0.8311 C   0  0  0  0  0  0  0  0  0  0  0  0
   -6.4265    2.0994    0.4581 C   0  0  0  0  0  0  0  0  0  0  0  0
  1 18  1  0
  2  7  1  0
  2 11  1  0
  3  4  1  0
  3  5  1  0
  3  6  1  0
  4  7  1  0
  5  8  1  0
  6  9  1  0
 10 12  1  0
 10 13  2  0
 10 14  1  0
 11 15  2  0
 11 16  1  0
 12 17  1  0
 12 18  2  0
 13 15  1  0
 14 16  2  0
 17 20  2  0
 17 21  1  0
 18 19  1  0
 19 24  2  0
 19 25  1  0
 20 22  1  0
 21 23  2  0
 22 26  2  0
 23 26  1  0
 24 27  1  0
 25 28  2  0
 27 29  2  0
 28 29  1  0
M  END
>  <PUBCHEM_COMPOUND_CID>  (1) 
2800

>  <PUBCHEM_CONFORMER_RMSD>  (1) 
1

>  <PUBCHEM_CONFORMER_DIVERSEORDER>  (1) 
1
11
4
12
5
8
13
6
10
3
7
2
9

>  <PUBCHEM_MMFF94_PARTIAL_CHARGES>  (1) 
41
1 -0.14
10 0.03
11 0.08
12 -0.06
13 -0.15
14 -0.15
15 -0.15
16 -0.15
17 0.03
18 0.11
19 0.03
2 -0.36
20 -0.15
21 -0.15
22 -0.15
23 -0.15
24 -0.15
25 -0.15
26 -0.15
27 -0.15
28 -0.15
29 -0.15
3 -0.81
4 0.27
44 0.15
45 0.15
46 0.15
47 0.15
48 0.15
49 0.15
5 0.27
50 0.15
51 0.15
52 0.15
53 0.15
54 0.15
55 0.15
56 0.15
57 0.15
6 0.27
7 0.28

>  <PUBCHEM_EFFECTIVE_ROTOR_COUNT>  (1) 
9

>  <PUBCHEM_PHARMACOPHORE_FEATURES>  (1) 
5
1 2 acceptor
1 3 cation
6 10 11 13 14 15 16 rings
6 17 20 21 22 23 26 rings
6 19 24 25 27 28 29 rings

>  <PUBCHEM_HEAVY_ATOM_COUNT>  (1) 
29

>  <PUBCHEM_ATOM_DEF_STEREO_COUNT>  (1) 
0

>  <PUBCHEM_ATOM_UDEF_STEREO_COUNT>  (1) 
0

>  <PUBCHEM_BOND_DEF_STEREO_COUNT>  (1) 
0

>  <PUBCHEM_BOND_UDEF_STEREO_COUNT>  (1) 
1

>  <PUBCHEM_ISOTOPIC_ATOM_COUNT>  (1) 
0

>  <PUBCHEM_COMPONENT_COUNT>  (1) 
1

>  <PUBCHEM_CACTVS_TAUTO_COUNT>  (1) 
1

>  <PUBCHEM_CONFORMER_ID>  (1) 
00000AF000000001

>  <PUBCHEM_MMFF94_ENERGY>  (1) 
97.8951

>  <PUBCHEM_FEATURE_SELFOVERLAP>  (1) 
25.373

>  <PUBCHEM_SHAPE_FINGERPRINT>  (1) 
10 15 17821734910027254524
10076449 9 17846497071979484367
10291535 26 17989491788812774817
10906281 52 17774169985380256481
11315181 36 17968095373323435527
12035758 1 18268453295091078441
12616971 3 16877954836196311838
13140716 1 18410866481710965397
15183329 4 12751240294721485740
1577012 14 18113338626992732100
16989713 51 17773874388308952278
17980427 23 18113626711196183246
21033648 29 17846486050834686898
21150785 3 14189283864360652520
21236236 1 18409731781120662651
21424621 283 17914064101499987873
21792961 116 17346326968929777414
23559900 14 18343299240924558044
23576562 1 16629943543095836496
249057 25 17823141279835512406
3663271 9 18113335341279297906
4073 2 18410580574180572126
484985 159 17096097995298978315
4938544 92 18413673521737410671
5080951 261 18336247003862818999
5104073 3 18261397797041358768
5364581 5 18269833275924735696
5969126 39 18201431545649427927
6669772 16 18194690268245762815

>  <PUBCHEM_SHAPE_MULTIPOLES>  (1) 
587.83
21.77
3.01
1.72
50.32
0.81
-0.43
-8.53
-5.44
-7.19
-0.14
1.54
0.08
-0.96

>  <PUBCHEM_SHAPE_SELFOVERLAP>  (1) 
1243.359

>  <PUBCHEM_SHAPE_VOLUME>  (1) 
330.2

>  <PUBCHEM_COORDINATE_TYPE>  (1) 
2
5
10

$$$$
