28010
     RDKit          3D

 18 20  0  0  0  0  0  0  0  0999 V2000
    0.2202   -1.9497   -0.3640 O   0  0  0  0  0  0  0  0  0  0  0  0
    1.2131    2.7619    0.3300 O   0  0  0  0  0  0  0  0  0  0  0  0
    4.6781   -0.4099   -0.0463 O   0  0  0  0  0  0  0  0  0  0  0  0
   -1.6941   -0.3821   -0.0102 C   0  0  0  0  0  0  0  0  0  0  0  0
   -1.1531   -1.8103    0.0632 C   0  0  0  0  0  0  0  0  0  0  0  0
   -0.8671    0.6811   -0.0788 C   0  0  0  0  0  0  0  0  0  0  0  0
   -3.2002   -0.2048    0.0306 C   0  0  0  0  0  0  0  0  0  0  0  0
   -1.3646    2.1040   -0.1729 C   0  0  0  0  0  0  0  0  0  0  0  0
   -3.6551    1.2232    0.3282 C   0  0  0  0  0  0  0  0  0  0  0  0
   -2.8544    2.2189   -0.4934 C   0  0  0  0  0  0  0  0  0  0  0  0
    0.5838    0.4277   -0.0384 C   0  0  0  0  0  0  0  0  0  0  0  0
   -1.2294   -2.3457    1.5025 C   0  0  0  0  0  0  0  0  0  0  0  0
   -1.9270   -2.7570   -0.8700 C   0  0  0  0  0  0  0  0  0  0  0  0
    1.0504   -0.8812   -0.1859 C   0  0  0  0  0  0  0  0  0  0  0  0
    1.5316    1.4513    0.1238 C   0  0  0  0  0  0  0  0  0  0  0  0
    2.4207   -1.1626   -0.2016 C   0  0  0  0  0  0  0  0  0  0  0  0
    2.9010    1.1711    0.1249 C   0  0  0  0  0  0  0  0  0  0  0  0
    3.3459   -0.1358   -0.0416 C   0  0  0  0  0  0  0  0  0  0  0  0
  1  5  1  0
  1 14  1  0
  2 15  1  0
  3 18  1  0
  4  5  1  0
  4  6  2  0
  4  7  1  0
  5 12  1  0
  5 13  1  0
  6  8  1  0
  6 11  1  0
  7  9  1  0
  8 10  1  0
  9 10  1  0
 11 14  2  0
 11 15  1  0
 14 16  1  0
 15 17  2  0
 16 18  2  0
 17 18  1  0
M  END
>  <PUBCHEM_COMPOUND_CID>  (1) 
28010

>  <PUBCHEM_CONFORMER_RMSD>  (1) 
0.6

>  <PUBCHEM_CONFORMER_DIVERSEORDER>  (1) 
1

>  <PUBCHEM_MMFF94_PARTIAL_CHARGES>  (1) 
18
1 -0.36
11 0.03
14 0.08
15 0.08
16 -0.15
17 -0.15
18 0.08
2 -0.53
3 -0.53
33 0.15
34 0.15
35 0.45
36 0.45
4 -0.28
5 0.42
6 -0.17
7 0.14
8 0.14

>  <PUBCHEM_EFFECTIVE_ROTOR_COUNT>  (1) 
1.2

>  <PUBCHEM_PHARMACOPHORE_FEATURES>  (1) 
7
1 1 acceptor
1 2 donor
1 3 donor
3 5 12 13 hydrophobe
6 1 4 5 6 11 14 rings
6 11 14 15 16 17 18 rings
6 4 6 7 8 9 10 rings

>  <PUBCHEM_HEAVY_ATOM_COUNT>  (1) 
18

>  <PUBCHEM_ATOM_DEF_STEREO_COUNT>  (1) 
0

>  <PUBCHEM_ATOM_UDEF_STEREO_COUNT>  (1) 
0

>  <PUBCHEM_BOND_DEF_STEREO_COUNT>  (1) 
0

>  <PUBCHEM_BOND_UDEF_STEREO_COUNT>  (1) 
0

>  <PUBCHEM_ISOTOPIC_ATOM_COUNT>  (1) 
0

>  <PUBCHEM_COMPONENT_COUNT>  (1) 
1

>  <PUBCHEM_CACTVS_TAUTO_COUNT>  (1) 
21

>  <PUBCHEM_CONFORMER_ID>  (1) 
00006D6A00000001

>  <PUBCHEM_MMFF94_ENERGY>  (1) 
49.4676

>  <PUBCHEM_FEATURE_SELFOVERLAP>  (1) 
35.566

>  <PUBCHEM_SHAPE_FINGERPRINT>  (1) 
10411042 1 17978510063605662366
10608611 8 18340484568693995496
10967382 1 18339643321838968653
11132069 177 18412820279091473552
11578080 2 16915083260786070059
11680986 33 18193556889824502273
12011746 2 18409730629752741229
12730499 353 17899970531496164877
13140716 1 18266746959390239201
13380535 76 18411137996025254079
13583140 156 16950556662720288521
14115302 16 18261125040979848724
14790565 3 18196385718753608464
15196674 1 18411419522573292188
15309172 13 18339651027395562609
15442244 35 18411134775153047460
16945 1 18411971464546568007
17804303 29 18411142454433428908
18186145 218 18200318684550827061
193761 8 18195526123713383837
19591789 44 18266742381024036911
20510252 161 18270963440496531329
20588541 1 18411142394203595020
20645476 183 17677637309488944118
21267235 1 18411145748409750222
21501502 16 18266741466269635068
21524375 3 18336547118986771215
2334 1 17978230791766942949
23366157 5 17970059162016932684
23388829 49 17476358782594261815
23402539 116 18270670987509227764
23419403 2 16681964839671843757
23558518 356 18190457362240109537
23559900 14 18271806784149439094
238 59 17612552702494174901
25 1 18266456503768976101
2748010 2 18051130594531923677
335352 9 18411700946015599020
34934 24 18410286987480008546
350125 39 18339648961278955201
5104073 3 18410855490509626824
53812653 166 18340485556409743160
54173680 148 18337392771929585139
589210 1 18194965377062419537
69090 78 18341890788421042375
7364860 26 17763180237790413575
7832392 63 18413103974545190130
81228 2 18118673564173090369
8809292 202 18335704965862107002
9709674 26 18413674625433249078

>  <PUBCHEM_SHAPE_MULTIPOLES>  (1) 
352.82
5.83
3.05
0.82
3.34
0.3
-0.14
-1.24
0.08
-1.66
0
-0.3
0.39
0.24

>  <PUBCHEM_SHAPE_SELFOVERLAP>  (1) 
770.279

>  <PUBCHEM_SHAPE_VOLUME>  (1) 
191.6

>  <PUBCHEM_COORDINATE_TYPE>  (1) 
2
5
10

$$$$
