28018
     RDKit          3D

 11 11  0  0  0  0  0  0  0  0999 V2000
    1.0617   -0.2306    0.0152 N   0  0  0  0  0  0  0  0  0  0  0  0
    4.4601   -0.2238   -0.0231 N   0  0  0  0  0  0  0  0  0  0  0  0
   -0.3258    0.0317    0.0064 C   0  0  0  0  0  0  0  0  0  0  0  0
   -1.2500   -1.0131    0.0010 C   0  0  0  0  0  0  0  0  0  0  0  0
   -0.7686    1.3545    0.0031 C   0  0  0  0  0  0  0  0  0  0  0  0
   -2.6169   -0.7350   -0.0077 C   0  0  0  0  0  0  0  0  0  0  0  0
   -0.8042   -2.4392    0.0045 C   0  0  0  0  0  0  0  0  0  0  0  0
   -2.1354    1.6326   -0.0056 C   0  0  0  0  0  0  0  0  0  0  0  0
   -3.0595    0.5878   -0.0110 C   0  0  0  0  0  0  0  0  0  0  0  0
    2.0464    0.8055    0.0207 C   0  0  0  0  0  0  0  0  0  0  0  0
    3.3922    0.2297   -0.0036 C   0  0  0  0  0  0  0  0  0  0  0  0
  1  3  1  0
  1 10  1  0
  2 11  3  0
  3  4  2  0
  3  5  1  0
  4  6  1  0
  4  7  1  0
  5  8  2  0
  6  9  2  0
  8  9  1  0
 10 11  1  0
M  END
>  <PUBCHEM_COMPOUND_CID>  (1) 
28018

>  <PUBCHEM_CONFORMER_RMSD>  (1) 
0.4

>  <PUBCHEM_CONFORMER_DIVERSEORDER>  (1) 
1
5
2
4
6
3

>  <PUBCHEM_MMFF94_PARTIAL_CHARGES>  (1) 
16
1 -0.87
10 0.57
11 0.36
12 0.15
13 0.15
14 0.4
18 0.15
19 0.15
2 -0.56
3 0.1
4 -0.14
5 -0.15
6 -0.15
7 0.14
8 -0.15
9 -0.15

>  <PUBCHEM_EFFECTIVE_ROTOR_COUNT>  (1) 
2

>  <PUBCHEM_PHARMACOPHORE_FEATURES>  (1) 
4
1 1 cation
1 1 donor
1 2 acceptor
6 3 4 5 6 8 9 rings

>  <PUBCHEM_HEAVY_ATOM_COUNT>  (1) 
11

>  <PUBCHEM_ATOM_DEF_STEREO_COUNT>  (1) 
0

>  <PUBCHEM_ATOM_UDEF_STEREO_COUNT>  (1) 
0

>  <PUBCHEM_BOND_DEF_STEREO_COUNT>  (1) 
0

>  <PUBCHEM_BOND_UDEF_STEREO_COUNT>  (1) 
0

>  <PUBCHEM_ISOTOPIC_ATOM_COUNT>  (1) 
0

>  <PUBCHEM_COMPONENT_COUNT>  (1) 
1

>  <PUBCHEM_CACTVS_TAUTO_COUNT>  (1) 
1

>  <PUBCHEM_CONFORMER_ID>  (1) 
00006D7200000001

>  <PUBCHEM_MMFF94_ENERGY>  (1) 
33.6979

>  <PUBCHEM_FEATURE_SELFOVERLAP>  (1) 
20.297

>  <PUBCHEM_SHAPE_FINGERPRINT>  (1) 
12716758 59 18340481261389517954
12932764 1 17313651729213962396
13024252 1 14562527384270818085
13380535 76 18341331115264222742
14144814 61 18408038494595774104
14325111 11 18410573955371679072
15669948 3 18338232777686425246
15775835 57 18261111820585260120
16945 1 18410571829420805409
193761 8 17617940674679243657
20201158 50 18060423508212594654
20645464 45 18130795550708838133
20871998 184 18200037385741908143
23402539 116 18343292687279192471
23463225 33 18261952947349734786
23552423 10 17899977423989668420
23559900 14 18272084994840371520
2748010 2 18265904553427156023
366044 4 18410009914644166771
43471831 8 18334292024601413067
6333449 129 18412824694191227253
75552 356 18409730694187695900

>  <PUBCHEM_SHAPE_MULTIPOLES>  (1) 
216.41
5.84
1.85
0.6
7.26
0.8
0
-0.64
0.05
-1.23
0
-0.04
0
0.01

>  <PUBCHEM_SHAPE_SELFOVERLAP>  (1) 
441.361

>  <PUBCHEM_SHAPE_VOLUME>  (1) 
123.8

>  <PUBCHEM_COORDINATE_TYPE>  (1) 
2
5
10

$$$$
