28025
     RDKit          3D

  9  8  0  0  1  0  0  0  0  0999 V2000
    0.8090    0.3912    0.1601 C   0  0  0  0  0  0  0  0  0  0  0  0
   -0.6547    0.1867   -0.4033 C   0  0  0  0  0  0  0  0  0  0  0  0
    1.4996   -0.9590    0.5346 C   0  0  0  0  0  0  0  0  0  0  0  0
   -1.5553   -0.6501    0.5437 C   0  0  0  0  0  0  0  0  0  0  0  0
    1.6915    1.1078   -0.8905 C   0  0  0  0  0  0  0  0  0  0  0  0
    0.8073    1.2649    1.4356 C   0  0  0  0  0  0  0  0  0  0  0  0
   -1.3536    1.5108   -0.7594 C   0  0  0  0  0  0  0  0  0  0  0  0
    1.7094   -1.9390   -0.6141 C   0  0  0  0  0  0  0  0  0  0  0  0
   -2.9533   -0.9134   -0.0066 C   0  0  0  0  0  0  0  0  0  0  0  0
  1  2  1  0
  1  3  1  0
  1  5  1  0
  1  6  1  0
  2  4  1  0
  2  7  1  0
  3  8  1  0
  4  9  1  0
M  END
>  <PUBCHEM_COMPOUND_CID>  (1) 
28025

>  <PUBCHEM_CONFORMER_RMSD>  (1) 
0.6

>  <PUBCHEM_CONFORMER_DIVERSEORDER>  (1) 
3
6
11
4
2
5
1
7
8
10
9

>  <PUBCHEM_MMFF94_PARTIAL_CHARGES>  (1) 
0

>  <PUBCHEM_EFFECTIVE_ROTOR_COUNT>  (1) 
3

>  <PUBCHEM_PHARMACOPHORE_FEATURES>  (1) 
5
1 7 hydrophobe
1 8 hydrophobe
1 9 hydrophobe
3 1 5 6 hydrophobe
4 1 2 3 4 hydrophobe

>  <PUBCHEM_HEAVY_ATOM_COUNT>  (1) 
9

>  <PUBCHEM_ATOM_DEF_STEREO_COUNT>  (1) 
0

>  <PUBCHEM_ATOM_UDEF_STEREO_COUNT>  (1) 
1

>  <PUBCHEM_BOND_DEF_STEREO_COUNT>  (1) 
0

>  <PUBCHEM_BOND_UDEF_STEREO_COUNT>  (1) 
0

>  <PUBCHEM_ISOTOPIC_ATOM_COUNT>  (1) 
0

>  <PUBCHEM_COMPONENT_COUNT>  (1) 
1

>  <PUBCHEM_CACTVS_TAUTO_COUNT>  (1) 
1

>  <PUBCHEM_CONFORMER_ID>  (1) 
00006D7900000003

>  <PUBCHEM_MMFF94_ENERGY>  (1) 
20.8706

>  <PUBCHEM_FEATURE_SELFOVERLAP>  (1) 
26.217

>  <PUBCHEM_SHAPE_FINGERPRINT>  (1) 
12423570 1 10850588077049575929
12897270 3 18115036323441069125
12932764 1 17988647462540426071
137420 1 14154279674533899074
14128692 85 18337685109068439686
16945 1 18265072373105841420
20653091 64 18335701611408285418
20711978 78 18201990045341100655
21040471 1 17835238226669738730
21922407 69 17058910325170215267
23211744 25 17387152917436304290
23552423 10 18113338578951571663
24536 1 18042103445238651269
29004967 10 17987504940614360418
5084963 1 18408317770348769067

>  <PUBCHEM_SHAPE_MULTIPOLES>  (1) 
185.22
3.14
1.86
1.13
2
0.26
0.2
1.14
-0.27
-0.56
-0.23
-0.31
-0.36
0.36

>  <PUBCHEM_SHAPE_SELFOVERLAP>  (1) 
332.12

>  <PUBCHEM_SHAPE_VOLUME>  (1) 
123.7

>  <PUBCHEM_COORDINATE_TYPE>  (1) 
2
5
10

$$$$
