28028
     RDKit          3D

  9  8  0  0  0  0  0  0  0  0999 V2000
    0.0067   -0.4357    0.0189 C   0  0  0  0  0  0  0  0  0  0  0  0
   -1.2783    0.4586   -0.2393 C   0  0  0  0  0  0  0  0  0  0  0  0
    1.2954    0.4621    0.2447 C   0  0  0  0  0  0  0  0  0  0  0  0
   -0.2050   -1.3331    1.2636 C   0  0  0  0  0  0  0  0  0  0  0  0
    0.2147   -1.3785   -1.1924 C   0  0  0  0  0  0  0  0  0  0  0  0
   -1.6297    1.3950    0.9277 C   0  0  0  0  0  0  0  0  0  0  0  0
   -2.5478   -0.3289   -0.6102 C   0  0  0  0  0  0  0  0  0  0  0  0
    2.5999   -0.3256    0.4611 C   0  0  0  0  0  0  0  0  0  0  0  0
    1.5442    1.4862   -0.8740 C   0  0  0  0  0  0  0  0  0  0  0  0
  1  2  1  0
  1  3  1  0
  1  4  1  0
  1  5  1  0
  2  6  1  0
  2  7  1  0
  3  8  1  0
  3  9  1  0
M  END
>  <PUBCHEM_COMPOUND_CID>  (1) 
28028

>  <PUBCHEM_CONFORMER_RMSD>  (1) 
0.4

>  <PUBCHEM_CONFORMER_DIVERSEORDER>  (1) 
1
2

>  <PUBCHEM_MMFF94_PARTIAL_CHARGES>  (1) 
0

>  <PUBCHEM_EFFECTIVE_ROTOR_COUNT>  (1) 
2

>  <PUBCHEM_PHARMACOPHORE_FEATURES>  (1) 
3
3 1 4 5 hydrophobe
3 2 6 7 hydrophobe
3 3 8 9 hydrophobe

>  <PUBCHEM_HEAVY_ATOM_COUNT>  (1) 
9

>  <PUBCHEM_ATOM_DEF_STEREO_COUNT>  (1) 
0

>  <PUBCHEM_ATOM_UDEF_STEREO_COUNT>  (1) 
0

>  <PUBCHEM_BOND_DEF_STEREO_COUNT>  (1) 
0

>  <PUBCHEM_BOND_UDEF_STEREO_COUNT>  (1) 
0

>  <PUBCHEM_ISOTOPIC_ATOM_COUNT>  (1) 
0

>  <PUBCHEM_COMPONENT_COUNT>  (1) 
1

>  <PUBCHEM_CACTVS_TAUTO_COUNT>  (1) 
1

>  <PUBCHEM_CONFORMER_ID>  (1) 
00006D7C00000001

>  <PUBCHEM_MMFF94_ENERGY>  (1) 
27.675

>  <PUBCHEM_FEATURE_SELFOVERLAP>  (1) 
15.286

>  <PUBCHEM_SHAPE_FINGERPRINT>  (1) 
12423570 1 8458598413420023469
12897270 3 17917987282971789821
137420 1 13408218420121860647
16945 1 18409727361208736550
20653085 51 17846233132578744272
21040471 1 18131355202143206828
23552423 10 18199475376380803031
24536 1 18338536190923365736
29004967 10 12967128362577420375
5084963 1 18335411370282127437
68250623 7 18191023615013137159

>  <PUBCHEM_SHAPE_MULTIPOLES>  (1) 
185.22
3.03
1.58
1.21
0.05
0.12
0.04
0.48
-0.05
0.03
-0.02
-0.07
-0.21
-0.45

>  <PUBCHEM_SHAPE_SELFOVERLAP>  (1) 
334.345

>  <PUBCHEM_SHAPE_VOLUME>  (1) 
123.8

>  <PUBCHEM_COORDINATE_TYPE>  (1) 
2
5
10

$$$$
