28021
     RDKit          3D

  9  8  0  0  1  0  0  0  0  0999 V2000
    1.4475   -0.2401   -0.0303 C   0  0  0  0  0  0  0  0  0  0  0  0
    0.0792    0.4763   -0.3586 C   0  0  0  0  0  0  0  0  0  0  0  0
   -1.1587   -0.2978    0.1689 C   0  0  0  0  0  0  0  0  0  0  0  0
    2.6575    0.5095   -0.6191 C   0  0  0  0  0  0  0  0  0  0  0  0
    1.6482   -0.3561    1.4976 C   0  0  0  0  0  0  0  0  0  0  0  0
    1.4527   -1.6800   -0.5926 C   0  0  0  0  0  0  0  0  0  0  0  0
    0.0364    1.9370    0.1246 C   0  0  0  0  0  0  0  0  0  0  0  0
   -2.4983    0.2486   -0.3407 C   0  0  0  0  0  0  0  0  0  0  0  0
   -3.6646   -0.5974    0.1501 C   0  0  0  0  0  0  0  0  0  0  0  0
  1  2  1  0
  1  4  1  0
  1  5  1  0
  1  6  1  0
  2  3  1  0
  2  7  1  0
  3  8  1  0
  8  9  1  0
M  END
>  <PUBCHEM_COMPOUND_CID>  (1) 
28021

>  <PUBCHEM_CONFORMER_RMSD>  (1) 
0.6

>  <PUBCHEM_CONFORMER_DIVERSEORDER>  (1) 
1
11
7
6
10
9
4
2
3
8
5

>  <PUBCHEM_MMFF94_PARTIAL_CHARGES>  (1) 
0

>  <PUBCHEM_EFFECTIVE_ROTOR_COUNT>  (1) 
3

>  <PUBCHEM_PHARMACOPHORE_FEATURES>  (1) 
4
1 7 hydrophobe
1 9 hydrophobe
4 1 2 3 8 hydrophobe
4 1 4 5 6 hydrophobe

>  <PUBCHEM_HEAVY_ATOM_COUNT>  (1) 
9

>  <PUBCHEM_ATOM_DEF_STEREO_COUNT>  (1) 
0

>  <PUBCHEM_ATOM_UDEF_STEREO_COUNT>  (1) 
1

>  <PUBCHEM_BOND_DEF_STEREO_COUNT>  (1) 
0

>  <PUBCHEM_BOND_UDEF_STEREO_COUNT>  (1) 
0

>  <PUBCHEM_ISOTOPIC_ATOM_COUNT>  (1) 
0

>  <PUBCHEM_COMPONENT_COUNT>  (1) 
1

>  <PUBCHEM_CACTVS_TAUTO_COUNT>  (1) 
1

>  <PUBCHEM_CONFORMER_ID>  (1) 
00006D7500000001

>  <PUBCHEM_MMFF94_ENERGY>  (1) 
19.2902

>  <PUBCHEM_FEATURE_SELFOVERLAP>  (1) 
20.524

>  <PUBCHEM_SHAPE_FINGERPRINT>  (1) 
10219947 1 18343303690616178319
10857977 72 18341881992169732185
12897270 3 18411146813819823388
12932764 1 17203602671214928389
14390081 3 8862942771437895239
20201158 50 18334860532511118195
20653091 64 18260831539810080281
20711978 78 16915931868908625494
20711985 344 17826517656326336829
21293036 1 18336836384659571748
23235685 24 18341611550721392311
23552333 60 17749104461529824632
23552423 10 18118409444768793663
23552449 11 18263069046025169993
24536 1 18122048811409146508
29004967 10 18413386527426712905
3248919 1 18337664235727548733
5084963 1 18129662972175459274

>  <PUBCHEM_SHAPE_MULTIPOLES>  (1) 
185.22
4.51
1.48
0.98
4.11
0.28
-0.32
-0.92
0.17
-0.41
0.13
-0.54
-0.12
0.04

>  <PUBCHEM_SHAPE_SELFOVERLAP>  (1) 
331.562

>  <PUBCHEM_SHAPE_VOLUME>  (1) 
124

>  <PUBCHEM_COORDINATE_TYPE>  (1) 
2
5
10

$$$$
