28036
     RDKit          3D

 21 25  0  0  0  0  0  0  0  0999 V2000
    0.0708   -0.1190   -0.0001 C   0  0  0  0  0  0  0  0  0  0  0  0
    1.4487    0.2388    0.0000 C   0  0  0  0  0  0  0  0  0  0  0  0
   -0.9432    0.8757   -0.0001 C   0  0  0  0  0  0  0  0  0  0  0  0
   -0.2772   -1.4871   -0.0001 C   0  0  0  0  0  0  0  0  0  0  0  0
    2.4513   -0.7615    0.0001 C   0  0  0  0  0  0  0  0  0  0  0  0
    1.8296    1.5980   -0.0001 C   0  0  0  0  0  0  0  0  0  0  0  0
   -2.3255    0.4780   -0.0001 C   0  0  0  0  0  0  0  0  0  0  0  0
   -2.6462   -0.9022   -0.0002 C   0  0  0  0  0  0  0  0  0  0  0  0
   -1.6248   -1.8576   -0.0002 C   0  0  0  0  0  0  0  0  0  0  0  0
    3.8040   -0.3906    0.0002 C   0  0  0  0  0  0  0  0  0  0  0  0
   -0.5143    2.2227    0.0000 C   0  0  0  0  0  0  0  0  0  0  0  0
    0.7272   -2.4644    0.0002 C   0  0  0  0  0  0  0  0  0  0  0  0
    2.0741   -2.1073    0.0002 C   0  0  0  0  0  0  0  0  0  0  0  0
    0.8372    2.5775   -0.0001 C   0  0  0  0  0  0  0  0  0  0  0  0
    3.1898    1.9419    0.0000 C   0  0  0  0  0  0  0  0  0  0  0  0
    4.1699    0.9530    0.0001 C   0  0  0  0  0  0  0  0  0  0  0  0
   -3.4165    1.3842    0.0001 C   0  0  0  0  0  0  0  0  0  0  0  0
   -3.9873   -1.3248   -0.0001 C   0  0  0  0  0  0  0  0  0  0  0  0
    4.9086   -1.4021   -0.0002 C   0  0  0  0  0  0  0  0  0  0  0  0
   -4.7452    0.9513    0.0003 C   0  0  0  0  0  0  0  0  0  0  0  0
   -5.0307   -0.4046    0.0002 C   0  0  0  0  0  0  0  0  0  0  0  0
  1  2  2  0
  1  3  1  0
  1  4  1  0
  2  5  1  0
  2  6  1  0
  3  7  1  0
  3 11  2  0
  4  9  2  0
  4 12  1  0
  5 10  2  0
  5 13  1  0
  6 14  2  0
  6 15  1  0
  7  8  2  0
  7 17  1  0
  8  9  1  0
  8 18  1  0
 10 16  1  0
 10 19  1  0
 11 14  1  0
 12 13  2  0
 15 16  2  0
 17 20  2  0
 18 21  2  0
 20 21  1  0
M  END
>  <PUBCHEM_COMPOUND_CID>  (1) 
28036

>  <PUBCHEM_CONFORMER_RMSD>  (1) 
0.6

>  <PUBCHEM_CONFORMER_DIVERSEORDER>  (1) 
1

>  <PUBCHEM_MMFF94_PARTIAL_CHARGES>  (1) 
24
10 -0.14
11 -0.15
12 -0.15
13 -0.15
14 -0.15
15 -0.15
16 -0.15
17 -0.15
18 -0.15
19 0.14
20 -0.15
21 -0.15
22 0.15
23 0.15
24 0.15
25 0.15
26 0.15
27 0.15
28 0.15
29 0.15
30 0.15
34 0.15
35 0.15
9 -0.15

>  <PUBCHEM_EFFECTIVE_ROTOR_COUNT>  (1) 
0

>  <PUBCHEM_PHARMACOPHORE_FEATURES>  (1) 
5
6 1 2 3 6 11 14 rings
6 1 2 4 5 12 13 rings
6 1 3 4 7 8 9 rings
6 2 5 6 10 15 16 rings
6 7 8 17 18 20 21 rings

>  <PUBCHEM_HEAVY_ATOM_COUNT>  (1) 
21

>  <PUBCHEM_ATOM_DEF_STEREO_COUNT>  (1) 
0

>  <PUBCHEM_ATOM_UDEF_STEREO_COUNT>  (1) 
0

>  <PUBCHEM_BOND_DEF_STEREO_COUNT>  (1) 
0

>  <PUBCHEM_BOND_UDEF_STEREO_COUNT>  (1) 
0

>  <PUBCHEM_ISOTOPIC_ATOM_COUNT>  (1) 
0

>  <PUBCHEM_COMPONENT_COUNT>  (1) 
1

>  <PUBCHEM_CACTVS_TAUTO_COUNT>  (1) 
1

>  <PUBCHEM_CONFORMER_ID>  (1) 
00006D8400000001

>  <PUBCHEM_MMFF94_ENERGY>  (1) 
79.5156

>  <PUBCHEM_FEATURE_SELFOVERLAP>  (1) 
25.526

>  <PUBCHEM_SHAPE_FINGERPRINT>  (1) 
10062212 137 18412255155779287239
10411042 1 17834395618416853719
10616163 171 18339363097072586343
10906281 52 18337691762215172714
10967382 1 18410575080473613156
1100329 8 18410008870851459202
11471102 20 18410571803323915125
11578080 2 16735223782630191134
12011746 2 18410576154146963150
12236239 1 17846779611849264021
12403259 226 18338230583069108085
12553582 1 18337942403120544426
12838862 33 18339059562917113456
13132413 78 18413108364033545293
13140716 1 18410287056014687330
138480 1 17978509732729565707
13862211 1 18410569561488558802
14178342 30 17692232454838392808
14790565 3 18265060304533420924
15042514 8 17112124141187485458
15099037 51 18410856551086979774
15196674 1 18410575106137921892
15230672 131 13434639084272105027
15442244 35 18411418431588198056
15536298 74 18342739632466248992
1601671 61 18411702058322301560
16945 1 18266459811057122758
17492 89 18267303329549650199
1813 80 17240480325312194724
19591789 44 18410292527359968950
200 152 18131348618232609611
20028762 73 18202277030724812783
20905425 154 18124314909242923702
21267235 1 18411145722650515371
21279426 13 18338235942649918468
21421861 104 17825385180708409611
21452121 103 18271234028311259104
221490 88 18336272348195748347
23227448 37 18341893047505677911
2334 1 18266741466433041828
23402539 116 18343575227017746566
23558518 356 17612305664401433106
23559900 14 18342174480007092120
2748010 2 18338517559761372172
2871803 45 18408319964876610236
3004659 81 18260552204417861206
335352 9 18410855412904633974
34934 24 18411694391800520390
350125 39 18409730643286664604
3680242 22 18262799553849018618
3886686 26 16749277612251541210
4214541 1 18410856538650509605
474 4 18041000699426524893
495365 180 17346027991676349736
5104073 3 18410575106174846115
6138700 20 18337956680288707774
7364860 26 18413389838730453519
9709674 26 18337677528446114627
9981440 41 17329140789706168736

>  <PUBCHEM_SHAPE_MULTIPOLES>  (1) 
432.17
8.94
2.73
0.62
2.94
0.2
0
-0.55
0
-0.98
0
0
0
0

>  <PUBCHEM_SHAPE_SELFOVERLAP>  (1) 
1014.312

>  <PUBCHEM_SHAPE_VOLUME>  (1) 
198.1

>  <PUBCHEM_COORDINATE_TYPE>  (1) 
2
5
10

$$$$
