28039
     RDKit          3D

 22 26  0  0  0  0  0  0  0  0999 V2000
    0.0064   -0.3031   -0.0002 C   0  0  0  0  0  0  0  0  0  0  0  0
    1.3970    0.0014   -0.0001 C   0  0  0  0  0  0  0  0  0  0  0  0
   -0.9687    0.7298    0.0000 C   0  0  0  0  0  0  0  0  0  0  0  0
    1.8298    1.3449    0.0001 C   0  0  0  0  0  0  0  0  0  0  0  0
   -0.3941   -1.6568   -0.0003 C   0  0  0  0  0  0  0  0  0  0  0  0
    2.3603   -1.0367   -0.0001 C   0  0  0  0  0  0  0  0  0  0  0  0
   -2.3652    0.3857    0.0000 C   0  0  0  0  0  0  0  0  0  0  0  0
    0.8759    2.3619    0.0002 C   0  0  0  0  0  0  0  0  0  0  0  0
   -0.4882    2.0594    0.0003 C   0  0  0  0  0  0  0  0  0  0  0  0
   -2.7388   -0.9812   -0.0003 C   0  0  0  0  0  0  0  0  0  0  0  0
    3.7263   -0.7182   -0.0001 C   0  0  0  0  0  0  0  0  0  0  0  0
   -1.7549   -1.9752   -0.0005 C   0  0  0  0  0  0  0  0  0  0  0  0
    0.5720   -2.6721   -0.0002 C   0  0  0  0  0  0  0  0  0  0  0  0
    1.9317   -2.3670   -0.0002 C   0  0  0  0  0  0  0  0  0  0  0  0
    3.2023    1.6363    0.0001 C   0  0  0  0  0  0  0  0  0  0  0  0
    4.1436    0.6104    0.0000 C   0  0  0  0  0  0  0  0  0  0  0  0
    1.2561    3.8109   -0.0010 C   0  0  0  0  0  0  0  0  0  0  0  0
   -3.4206    1.3332    0.0004 C   0  0  0  0  0  0  0  0  0  0  0  0
   -4.0951   -1.3519   -0.0002 C   0  0  0  0  0  0  0  0  0  0  0  0
    4.7915   -1.7710    0.0010 C   0  0  0  0  0  0  0  0  0  0  0  0
   -4.7649    0.9517    0.0006 C   0  0  0  0  0  0  0  0  0  0  0  0
   -5.1024   -0.3922    0.0003 C   0  0  0  0  0  0  0  0  0  0  0  0
  1  2  2  0
  1  3  1  0
  1  5  1  0
  2  4  1  0
  2  6  1  0
  3  7  1  0
  3  9  2  0
  4  8  2  0
  4 15  1  0
  5 12  2  0
  5 13  1  0
  6 11  2  0
  6 14  1  0
  7 10  2  0
  7 18  1  0
  8  9  1  0
  8 17  1  0
 10 12  1  0
 10 19  1  0
 11 16  1  0
 11 20  1  0
 13 14  2  0
 15 16  2  0
 18 21  2  0
 19 22  2  0
 21 22  1  0
M  END
>  <PUBCHEM_COMPOUND_CID>  (1) 
28039

>  <PUBCHEM_CONFORMER_RMSD>  (1) 
0.6

>  <PUBCHEM_CONFORMER_DIVERSEORDER>  (1) 
1

>  <PUBCHEM_MMFF94_PARTIAL_CHARGES>  (1) 
24
11 -0.14
12 -0.15
13 -0.15
14 -0.15
15 -0.15
16 -0.15
17 0.14
18 -0.15
19 -0.15
20 0.14
21 -0.15
22 -0.15
23 0.15
24 0.15
25 0.15
26 0.15
27 0.15
28 0.15
32 0.15
33 0.15
37 0.15
38 0.15
8 -0.14
9 -0.15

>  <PUBCHEM_EFFECTIVE_ROTOR_COUNT>  (1) 
0

>  <PUBCHEM_PHARMACOPHORE_FEATURES>  (1) 
5
6 1 2 3 4 8 9 rings
6 1 2 5 6 13 14 rings
6 1 3 5 7 10 12 rings
6 2 4 6 11 15 16 rings
6 7 10 18 19 21 22 rings

>  <PUBCHEM_HEAVY_ATOM_COUNT>  (1) 
22

>  <PUBCHEM_ATOM_DEF_STEREO_COUNT>  (1) 
0

>  <PUBCHEM_ATOM_UDEF_STEREO_COUNT>  (1) 
0

>  <PUBCHEM_BOND_DEF_STEREO_COUNT>  (1) 
0

>  <PUBCHEM_BOND_UDEF_STEREO_COUNT>  (1) 
0

>  <PUBCHEM_ISOTOPIC_ATOM_COUNT>  (1) 
0

>  <PUBCHEM_COMPONENT_COUNT>  (1) 
1

>  <PUBCHEM_CACTVS_TAUTO_COUNT>  (1) 
1

>  <PUBCHEM_CONFORMER_ID>  (1) 
00006D8700000001

>  <PUBCHEM_MMFF94_ENERGY>  (1) 
84.8854

>  <PUBCHEM_FEATURE_SELFOVERLAP>  (1) 
25.526

>  <PUBCHEM_SHAPE_FINGERPRINT>  (1) 
10411042 1 17978510836562709927
10616163 171 18267305528788663911
10906281 52 18337973232891719274
10967382 1 18410575058940747908
1100329 8 18410291445192052570
11471102 20 18410571803360831903
11578080 2 16735506353018773583
11680986 33 18264211498450972499
12011746 2 18410294683438872038
12236239 1 17846497033102959519
12403259 226 18336541703028015693
12553582 1 18338223860964956122
12838862 33 18339059558674854704
13132413 78 18413389813192914421
13140716 1 18410287026034429210
138480 1 18410575093559449316
13862211 1 18410569548593191858
14178342 30 17764851882164514938
14790565 3 17903925805080348732
14866123 147 17621325636804315056
15042514 8 17977379439724664058
15081414 286 18341343218334005840
15196674 1 18410856568235057383
15442244 35 18411701010408485513
15536298 74 18342738532959934978
1601671 61 18411419492418642488
16087824 20 18122065291494995717
16945 1 18050568748390320100
17492 89 18194963165418538887
19591789 44 18410573955271419862
200 152 18131348614006350499
20028762 73 18129939091724487895
20739085 24 18264510428122617728
20905425 154 18053101714397076414
21267235 1 18411145709797359435
21279426 13 18337953368193137605
21421861 104 17826230687980953611
221490 88 18263932201212779819
23227448 37 18341331201401121143
2334 1 18338799021927014406
23366157 5 17970342835489209380
23402539 116 18271236140918281734
23558518 356 17612305660032684242
23559900 14 18340763823024908208
238 59 17830408965785190581
2748010 2 18411135866159162734
3004659 81 18187650181112694438
335352 9 18338798918399491295
34934 24 18410849932516028714
350125 39 18410012105378297948
3680242 22 18262798454284682298
3886686 26 16749277607888106074
484985 159 14717573633493368978
5104073 3 18410575093316408931
5939293 188 18411696621273681848
59755656 215 18338802187513876854
6138700 20 18338238155202121406
6443956 14 18410014321022533028
7364860 26 18412263977478297061
7832392 63 18340764961497170670
9709674 26 18337393871710400699
9981440 41 17401760221290302440

>  <PUBCHEM_SHAPE_MULTIPOLES>  (1) 
452.75
8.63
3.33
0.62
4.19
1.49
0
-1.48
0
-1.76
0
0
0
0

>  <PUBCHEM_SHAPE_SELFOVERLAP>  (1) 
1057.479

>  <PUBCHEM_SHAPE_VOLUME>  (1) 
210.4

>  <PUBCHEM_COORDINATE_TYPE>  (1) 
2
5
10

$$$$
