28038
     RDKit          3D

 21 25  0  0  0  0  0  0  0  0999 V2000
    0.1589   -0.0278   -0.0001 C   0  0  0  0  0  0  0  0  0  0  0  0
    1.5255    0.3706   -0.0001 C   0  0  0  0  0  0  0  0  0  0  0  0
   -0.8842    0.9364   -0.0001 C   0  0  0  0  0  0  0  0  0  0  0  0
   -0.1486   -1.4056   -0.0001 C   0  0  0  0  0  0  0  0  0  0  0  0
    2.5573   -0.5996    0.0001 C   0  0  0  0  0  0  0  0  0  0  0  0
    1.8660    1.7404   -0.0001 C   0  0  0  0  0  0  0  0  0  0  0  0
   -2.2540    0.4981   -0.0001 C   0  0  0  0  0  0  0  0  0  0  0  0
    2.2201   -1.9560    0.0002 C   0  0  0  0  0  0  0  0  0  0  0  0
   -2.5338   -0.8910   -0.0002 C   0  0  0  0  0  0  0  0  0  0  0  0
    0.8843   -2.3528    0.0002 C   0  0  0  0  0  0  0  0  0  0  0  0
   -1.4846   -1.8159   -0.0002 C   0  0  0  0  0  0  0  0  0  0  0  0
   -0.4953    2.2956    0.0000 C   0  0  0  0  0  0  0  0  0  0  0  0
    0.8451    2.6902   -0.0001 C   0  0  0  0  0  0  0  0  0  0  0  0
    3.8984   -0.1889    0.0001 C   0  0  0  0  0  0  0  0  0  0  0  0
    3.2155    2.1244    0.0000 C   0  0  0  0  0  0  0  0  0  0  0  0
   -3.3714    1.3716    0.0001 C   0  0  0  0  0  0  0  0  0  0  0  0
    4.2244    1.1649    0.0001 C   0  0  0  0  0  0  0  0  0  0  0  0
    3.2568   -3.0370    0.0000 C   0  0  0  0  0  0  0  0  0  0  0  0
   -3.8618   -1.3531   -0.0001 C   0  0  0  0  0  0  0  0  0  0  0  0
   -4.6867    0.8996    0.0003 C   0  0  0  0  0  0  0  0  0  0  0  0
   -4.9320   -0.4642    0.0002 C   0  0  0  0  0  0  0  0  0  0  0  0
  1  2  2  0
  1  3  1  0
  1  4  1  0
  2  5  1  0
  2  6  1  0
  3  7  2  0
  3 12  1  0
  4 10  2  0
  4 11  1  0
  5  8  2  0
  5 14  1  0
  6 13  1  0
  6 15  2  0
  7  9  1  0
  7 16  1  0
  8 10  1  0
  8 18  1  0
  9 11  2  0
  9 19  1  0
 12 13  2  0
 14 17  2  0
 15 17  1  0
 16 20  2  0
 19 21  2  0
 20 21  1  0
M  END
>  <PUBCHEM_COMPOUND_CID>  (1) 
28038

>  <PUBCHEM_CONFORMER_RMSD>  (1) 
0.6

>  <PUBCHEM_CONFORMER_DIVERSEORDER>  (1) 
1

>  <PUBCHEM_MMFF94_PARTIAL_CHARGES>  (1) 
24
10 -0.15
11 -0.15
12 -0.15
13 -0.15
14 -0.15
15 -0.15
16 -0.15
17 -0.15
18 0.14
19 -0.15
20 -0.15
21 -0.15
22 0.15
23 0.15
24 0.15
25 0.15
26 0.15
27 0.15
28 0.15
29 0.15
33 0.15
34 0.15
35 0.15
8 -0.14

>  <PUBCHEM_EFFECTIVE_ROTOR_COUNT>  (1) 
0

>  <PUBCHEM_PHARMACOPHORE_FEATURES>  (1) 
5
6 1 2 3 6 12 13 rings
6 1 2 4 5 8 10 rings
6 1 3 4 7 9 11 rings
6 2 5 6 14 15 17 rings
6 7 9 16 19 20 21 rings

>  <PUBCHEM_HEAVY_ATOM_COUNT>  (1) 
21

>  <PUBCHEM_ATOM_DEF_STEREO_COUNT>  (1) 
0

>  <PUBCHEM_ATOM_UDEF_STEREO_COUNT>  (1) 
0

>  <PUBCHEM_BOND_DEF_STEREO_COUNT>  (1) 
0

>  <PUBCHEM_BOND_UDEF_STEREO_COUNT>  (1) 
0

>  <PUBCHEM_ISOTOPIC_ATOM_COUNT>  (1) 
0

>  <PUBCHEM_COMPONENT_COUNT>  (1) 
1

>  <PUBCHEM_CACTVS_TAUTO_COUNT>  (1) 
1

>  <PUBCHEM_CONFORMER_ID>  (1) 
00006D8600000001

>  <PUBCHEM_MMFF94_ENERGY>  (1) 
79.5832

>  <PUBCHEM_FEATURE_SELFOVERLAP>  (1) 
25.526

>  <PUBCHEM_SHAPE_FINGERPRINT>  (1) 
10411042 1 18122626042161176930
10616163 171 18339644571954409927
10863032 1 18412826893124727561
10906281 52 18262252104854639160
10967382 1 18410575102069788418
1100329 8 18195525011828485752
11471102 20 18410571803334458141
11578080 2 17097197347300281494
11680986 33 18336274491220840275
116883 192 18125724478612022646
12011746 2 18410859875618448924
12107183 9 17837781023809039761
12236239 1 17847063290149524257
12403259 226 18191301581043375460
12592029 89 18337676411501020747
12838862 33 18267284569364226512
13132413 78 18413108376876288157
13140716 1 18266732679088353056
138480 1 18338517417985344258
14178342 30 17982148321885444482
14223421 5 18337387128484866140
14790565 3 18193283116088715412
14866123 147 17260753940996253163
15196674 1 18410855468733920647
15442244 35 18268149764523534825
15536298 74 18342176652464010831
1601671 61 18410293627040544608
16945 1 18050568744316924868
17492 89 18411699902724512031
1813 80 17240489087171903725
19591789 44 18194966468073595134
200 152 18131348648561196269
20645477 70 18409444774109945847
20691752 17 17821733792987188729
20739085 24 18120962545466130553
20905425 154 18341052896199406420
21267235 1 18411146830730926774
21279426 13 18192427477225203605
21421861 104 18042399127982839538
221490 88 18408329886478372091
22182313 1 18189319200328504028
2334 1 18410855460249630502
23366157 5 18113620066976798914
23402539 116 18271800272177347188
23463225 33 18410292493005427317
23559900 14 18340200774545740786
23566358 2 18338514119371405140
238 59 17830407879000235133
2748010 2 18050009084561640388
335352 9 18122624951159498935
33824 294 18410011052731359480
34934 24 18412821404198857766
350125 39 18338234865362070048
3680242 22 18334854961621842970
4409770 3 16600963363282795022
474 4 18188491388194365237
484985 159 15006926628286528002
5104073 3 18409732824908291419
543358 83 18340492174901449361
59755656 215 18410860941414046550
6138700 20 18410578366925590934
7364860 26 18412545396958250894
7832392 63 18341327893991186958
8272917 22 18412831269817923007
9709674 26 18408890654657082659
9981440 41 17905601456120295680

>  <PUBCHEM_SHAPE_MULTIPOLES>  (1) 
432.17
8.24
3.11
0.62
5.2
0.4
0
0.04
0
-2.25
0
0
0
0

>  <PUBCHEM_SHAPE_SELFOVERLAP>  (1) 
1014.358

>  <PUBCHEM_SHAPE_VOLUME>  (1) 
198.1

>  <PUBCHEM_COORDINATE_TYPE>  (1) 
2
5
10

$$$$
