28031
     RDKit          3D

  7  6  0  0  0  0  0  0  0  0999 V2000
    0.2291    0.4098    0.0000 O   0  0  0  0  0  0  0  0  0  0  0  0
    1.9186   -1.1539    0.0000 O   0  0  0  0  0  0  0  0  0  0  0  0
    2.3676    1.1011    0.0000 N   0  0  0  0  0  0  0  0  0  0  0  0
   -0.7426   -0.6421    0.0000 C   0  0  0  0  0  0  0  0  0  0  0  0
    1.5336    0.0105    0.0000 C   0  0  0  0  0  0  0  0  0  0  0  0
   -2.0971   -0.0887    0.0001 C   0  0  0  0  0  0  0  0  0  0  0  0
   -3.2092    0.3634   -0.0001 C   0  0  0  0  0  0  0  0  0  0  0  0
  1  4  1  0
  1  5  1  0
  2  5  2  0
  3  5  1  0
  4  6  1  0
  6  7  3  0
M  END
>  <PUBCHEM_COMPOUND_CID>  (1) 
28031

>  <PUBCHEM_CONFORMER_RMSD>  (1) 
0.4

>  <PUBCHEM_CONFORMER_DIVERSEORDER>  (1) 
1
10
11
6
9
4
7
5
8
3
2

>  <PUBCHEM_MMFF94_PARTIAL_CHARGES>  (1) 
10
1 -0.43
10 0.37
11 0.37
12 0.18
2 -0.57
3 -0.8
4 0.48
5 0.78
6 -0.2
7 -0.18

>  <PUBCHEM_EFFECTIVE_ROTOR_COUNT>  (1) 
2

>  <PUBCHEM_PHARMACOPHORE_FEATURES>  (1) 
3
1 2 acceptor
1 3 donor
1 7 hydrophobe

>  <PUBCHEM_HEAVY_ATOM_COUNT>  (1) 
7

>  <PUBCHEM_ATOM_DEF_STEREO_COUNT>  (1) 
0

>  <PUBCHEM_ATOM_UDEF_STEREO_COUNT>  (1) 
0

>  <PUBCHEM_BOND_DEF_STEREO_COUNT>  (1) 
0

>  <PUBCHEM_BOND_UDEF_STEREO_COUNT>  (1) 
0

>  <PUBCHEM_ISOTOPIC_ATOM_COUNT>  (1) 
0

>  <PUBCHEM_COMPONENT_COUNT>  (1) 
1

>  <PUBCHEM_CACTVS_TAUTO_COUNT>  (1) 
2

>  <PUBCHEM_CONFORMER_ID>  (1) 
00006D7F00000001

>  <PUBCHEM_MMFF94_ENERGY>  (1) 
6.0354

>  <PUBCHEM_FEATURE_SELFOVERLAP>  (1) 
15.223

>  <PUBCHEM_SHAPE_FINGERPRINT>  (1) 
12932764 1 17275098453434093875
14325111 11 18410573989963435075
14390081 3 18271524290289890553
21040471 1 18338517572493436098
29004967 10 17967536782761468672
5460574 1 9295291642526283235

>  <PUBCHEM_SHAPE_MULTIPOLES>  (1) 
127.34
4.5
0.99
0.58
1.82
0.04
0
-0.78
0
-0.54
0
0.07
0
0

>  <PUBCHEM_SHAPE_SELFOVERLAP>  (1) 
235.564

>  <PUBCHEM_SHAPE_VOLUME>  (1) 
79.3

>  <PUBCHEM_COORDINATE_TYPE>  (1) 
2
5
10

$$$$
