28047
     RDKit          3D

 23 27  0  0  0  0  0  0  0  0999 V2000
   -0.0194   -0.1193   -0.0002 C   0  0  0  0  0  0  0  0  0  0  0  0
    1.3959    0.0337   -0.0002 C   0  0  0  0  0  0  0  0  0  0  0  0
   -0.5633   -1.4220   -0.0002 C   0  0  0  0  0  0  0  0  0  0  0  0
   -0.8776    1.0126   -0.0002 C   0  0  0  0  0  0  0  0  0  0  0  0
    2.2419   -1.1021   -0.0001 C   0  0  0  0  0  0  0  0  0  0  0  0
    1.9709    1.3228   -0.0002 C   0  0  0  0  0  0  0  0  0  0  0  0
   -1.9504   -1.5921   -0.0004 C   0  0  0  0  0  0  0  0  0  0  0  0
   -2.3031    0.8208   -0.0002 C   0  0  0  0  0  0  0  0  0  0  0  0
   -2.8217   -0.4980   -0.0003 C   0  0  0  0  0  0  0  0  0  0  0  0
    3.6342   -0.9324    0.0000 C   0  0  0  0  0  0  0  0  0  0  0  0
    3.3667    1.4647   -0.0001 C   0  0  0  0  0  0  0  0  0  0  0  0
    0.2879   -2.5354    0.0001 C   0  0  0  0  0  0  0  0  0  0  0  0
   -0.2568    2.2827   -0.0001 C   0  0  0  0  0  0  0  0  0  0  0  0
    1.6725   -2.3785    0.0000 C   0  0  0  0  0  0  0  0  0  0  0  0
    1.1319    2.4366   -0.0001 C   0  0  0  0  0  0  0  0  0  0  0  0
    4.1921    0.3435   -0.0001 C   0  0  0  0  0  0  0  0  0  0  0  0
   -2.5161   -2.9895    0.0009 C   0  0  0  0  0  0  0  0  0  0  0  0
   -3.2503    1.8764    0.0001 C   0  0  0  0  0  0  0  0  0  0  0  0
   -4.2100   -0.7205   -0.0002 C   0  0  0  0  0  0  0  0  0  0  0  0
    4.5789   -2.0946    0.0001 C   0  0  0  0  0  0  0  0  0  0  0  0
    4.0317    2.8066    0.0007 C   0  0  0  0  0  0  0  0  0  0  0  0
   -4.6279    1.6418    0.0003 C   0  0  0  0  0  0  0  0  0  0  0  0
   -5.1081    0.3420    0.0001 C   0  0  0  0  0  0  0  0  0  0  0  0
  1  2  2  0
  1  3  1  0
  1  4  1  0
  2  5  1  0
  2  6  1  0
  3  7  2  0
  3 12  1  0
  4  8  1  0
  4 13  2  0
  5 10  2  0
  5 14  1  0
  6 11  1  0
  6 15  2  0
  7  9  1  0
  7 17  1  0
  8  9  2  0
  8 18  1  0
  9 19  1  0
 10 16  1  0
 10 20  1  0
 11 16  2  0
 11 21  1  0
 12 14  2  0
 13 15  1  0
 18 22  2  0
 19 23  2  0
 22 23  1  0
M  END
>  <PUBCHEM_COMPOUND_CID>  (1) 
28047

>  <PUBCHEM_CONFORMER_RMSD>  (1) 
0.6

>  <PUBCHEM_CONFORMER_DIVERSEORDER>  (1) 
1

>  <PUBCHEM_MMFF94_PARTIAL_CHARGES>  (1) 
24
10 -0.14
11 -0.14
12 -0.15
13 -0.15
14 -0.15
15 -0.15
16 -0.15
17 0.14
18 -0.15
19 -0.15
20 0.14
21 0.14
22 -0.15
23 -0.15
24 0.15
25 0.15
26 0.15
27 0.15
28 0.15
32 0.15
33 0.15
40 0.15
41 0.15
7 -0.14

>  <PUBCHEM_EFFECTIVE_ROTOR_COUNT>  (1) 
0

>  <PUBCHEM_PHARMACOPHORE_FEATURES>  (1) 
5
6 1 2 3 5 12 14 rings
6 1 2 4 6 13 15 rings
6 1 3 4 7 8 9 rings
6 2 5 6 10 11 16 rings
6 8 9 18 19 22 23 rings

>  <PUBCHEM_HEAVY_ATOM_COUNT>  (1) 
23

>  <PUBCHEM_ATOM_DEF_STEREO_COUNT>  (1) 
0

>  <PUBCHEM_ATOM_UDEF_STEREO_COUNT>  (1) 
0

>  <PUBCHEM_BOND_DEF_STEREO_COUNT>  (1) 
0

>  <PUBCHEM_BOND_UDEF_STEREO_COUNT>  (1) 
0

>  <PUBCHEM_ISOTOPIC_ATOM_COUNT>  (1) 
0

>  <PUBCHEM_COMPONENT_COUNT>  (1) 
1

>  <PUBCHEM_CACTVS_TAUTO_COUNT>  (1) 
1

>  <PUBCHEM_CONFORMER_ID>  (1) 
00006D8F00000001

>  <PUBCHEM_MMFF94_ENERGY>  (1) 
98.9511

>  <PUBCHEM_FEATURE_SELFOVERLAP>  (1) 
25.526

>  <PUBCHEM_SHAPE_FINGERPRINT>  (1) 
10411042 1 17618222806417620903
10616163 171 18266743669461244375
10863032 1 18411701032041408620
10967382 1 18410573955102543302
1100329 8 18410009901659382586
11578080 2 17058354023863267691
12011746 2 18338518517169963767
12236239 1 17846213333359719221
12553582 1 18265320721168895362
12788726 201 17560531611786258945
12838862 33 18266157500941286872
13140716 1 18409725171165864474
138480 1 17834113048360281827
13862211 1 18338511928679900139
14178342 30 17907842248344043152
14790565 3 18339368457260622873
15099037 51 18338798914120503863
15196674 1 18410855468929092967
15442244 35 18410855456038961834
15536298 74 18341895181776875748
1601671 61 18339361846856957210
16728300 4 17029354087128019690
16945 1 18266459802388281254
17492 89 18338236093101244442
1813 80 17095241427715298980
18681886 176 18343013368566416562
19591789 44 18410010992269462399
20028762 73 18201430351000049943
20691752 17 17531237392116708426
20739085 24 18191046554523421841
20905425 154 18125729130061753742
21033648 29 17313374600934073005
21267235 1 18338806623634415731
21279426 13 18266740173320942517
21421861 104 17825384076922900554
21452121 103 18341603841940989512
21859007 373 17679556992435655940
221490 88 18336553797360437706
22393880 68 18269564982423624340
23227448 37 18412824711608785415
2334 1 18338799034695956198
23366157 5 18113898299569497844
23402539 116 18271235015610443983
23558518 356 18044095871887926666
23559900 14 18342455924876768706
238 59 17612267954778524621
2748010 2 18410858797687106942
3004659 81 18260835844079493390
335352 9 18338797797413020550
34934 24 18339639044325900332
350125 39 18409449155356480316
3680242 22 18263361391458664274
495365 180 17417801885881178168
5104073 3 18409730676960309331
6138700 20 18265899047501200094
7832392 63 18411415128784896574
9709674 26 18412267241833277471
9981440 41 17688306107300557768

>  <PUBCHEM_SHAPE_MULTIPOLES>  (1) 
473.33
9.08
3.39
0.62
2.22
0.37
0
-1.52
0
-1.18
0
0
0
0

>  <PUBCHEM_SHAPE_SELFOVERLAP>  (1) 
1102.161

>  <PUBCHEM_SHAPE_VOLUME>  (1) 
222.1

>  <PUBCHEM_COORDINATE_TYPE>  (1) 
2
5
10

$$$$
