28041
     RDKit          3D

 22 26  0  0  0  0  0  0  0  0999 V2000
    1.2853   -0.0270   -0.0002 C   0  0  0  0  0  0  0  0  0  0  0  0
   -0.1186   -0.2626   -0.0002 C   0  0  0  0  0  0  0  0  0  0  0  0
   -1.0416    0.8171   -0.0002 C   0  0  0  0  0  0  0  0  0  0  0  0
    1.7838    1.2936   -0.0002 C   0  0  0  0  0  0  0  0  0  0  0  0
    2.1964   -1.1112    0.0000 C   0  0  0  0  0  0  0  0  0  0  0  0
   -0.5852   -1.5950   -0.0001 C   0  0  0  0  0  0  0  0  0  0  0  0
   -2.4534    0.5420   -0.0001 C   0  0  0  0  0  0  0  0  0  0  0  0
    3.1689    1.5171   -0.0002 C   0  0  0  0  0  0  0  0  0  0  0  0
    3.5764   -0.8603    0.0000 C   0  0  0  0  0  0  0  0  0  0  0  0
   -2.8938   -0.8048   -0.0002 C   0  0  0  0  0  0  0  0  0  0  0  0
   -0.4963    2.1214   -0.0001 C   0  0  0  0  0  0  0  0  0  0  0  0
    0.8810    2.3564   -0.0002 C   0  0  0  0  0  0  0  0  0  0  0  0
   -1.9600   -1.8460   -0.0002 C   0  0  0  0  0  0  0  0  0  0  0  0
    1.7028   -2.4188    0.0001 C   0  0  0  0  0  0  0  0  0  0  0  0
    0.3298   -2.6566    0.0002 C   0  0  0  0  0  0  0  0  0  0  0  0
    4.0586    0.4461   -0.0001 C   0  0  0  0  0  0  0  0  0  0  0  0
   -3.4608    1.5403    0.0002 C   0  0  0  0  0  0  0  0  0  0  0  0
    3.7536    2.8959    0.0005 C   0  0  0  0  0  0  0  0  0  0  0  0
    4.5880   -1.9647    0.0005 C   0  0  0  0  0  0  0  0  0  0  0  0
   -4.2667   -1.1082    0.0000 C   0  0  0  0  0  0  0  0  0  0  0  0
   -4.8223    1.2255    0.0004 C   0  0  0  0  0  0  0  0  0  0  0  0
   -5.2255   -0.1002    0.0003 C   0  0  0  0  0  0  0  0  0  0  0  0
  1  2  2  0
  1  4  1  0
  1  5  1  0
  2  3  1  0
  2  6  1  0
  3  7  2  0
  3 11  1  0
  4  8  2  0
  4 12  1  0
  5  9  1  0
  5 14  2  0
  6 13  1  0
  6 15  2  0
  7 10  1  0
  7 17  1  0
  8 16  1  0
  8 18  1  0
  9 16  2  0
  9 19  1  0
 10 13  2  0
 10 20  1  0
 11 12  2  0
 14 15  1  0
 17 21  2  0
 20 22  2  0
 21 22  1  0
M  END
>  <PUBCHEM_COMPOUND_CID>  (1) 
28041

>  <PUBCHEM_CONFORMER_RMSD>  (1) 
0.6

>  <PUBCHEM_CONFORMER_DIVERSEORDER>  (1) 
1

>  <PUBCHEM_MMFF94_PARTIAL_CHARGES>  (1) 
24
11 -0.15
12 -0.15
13 -0.15
14 -0.15
15 -0.15
16 -0.15
17 -0.15
18 0.14
19 0.14
20 -0.15
21 -0.15
22 -0.15
23 0.15
24 0.15
25 0.15
26 0.15
27 0.15
28 0.15
29 0.15
36 0.15
37 0.15
38 0.15
8 -0.14
9 -0.14

>  <PUBCHEM_EFFECTIVE_ROTOR_COUNT>  (1) 
0

>  <PUBCHEM_PHARMACOPHORE_FEATURES>  (1) 
5
6 1 2 3 4 11 12 rings
6 1 2 5 6 14 15 rings
6 1 4 5 8 9 16 rings
6 2 3 6 7 10 13 rings
6 7 10 17 20 21 22 rings

>  <PUBCHEM_HEAVY_ATOM_COUNT>  (1) 
22

>  <PUBCHEM_ATOM_DEF_STEREO_COUNT>  (1) 
0

>  <PUBCHEM_ATOM_UDEF_STEREO_COUNT>  (1) 
0

>  <PUBCHEM_BOND_DEF_STEREO_COUNT>  (1) 
0

>  <PUBCHEM_BOND_UDEF_STEREO_COUNT>  (1) 
0

>  <PUBCHEM_ISOTOPIC_ATOM_COUNT>  (1) 
0

>  <PUBCHEM_COMPONENT_COUNT>  (1) 
1

>  <PUBCHEM_CACTVS_TAUTO_COUNT>  (1) 
1

>  <PUBCHEM_CONFORMER_ID>  (1) 
00006D8900000001

>  <PUBCHEM_MMFF94_ENERGY>  (1) 
84.7133

>  <PUBCHEM_FEATURE_SELFOVERLAP>  (1) 
25.526

>  <PUBCHEM_SHAPE_FINGERPRINT>  (1) 
10411042 1 17834395614127167662
10616163 171 18194123142607566279
10863032 1 18339363066664547058
10967382 1 18410575114801722502
1100329 8 18409726257771822618
11471102 20 18410853261141836111
11578080 2 13769938959494526180
12011746 2 18338519633856302870
12236239 1 17918273143611126493
12403259 226 18263358088913584844
12403259 415 18186798059284858525
12788726 201 17632309946987290913
12838862 33 18339060662681890352
13140716 1 18409444804232732914
13583140 156 16661742480032114684
138480 1 18194682557993086274
13862211 1 18338511941554330483
14178342 30 17836066146457329352
14790565 3 17832149694498231292
15042514 8 17688865338165741130
15196674 1 18410855477561290535
15442244 35 18411419496893055296
15536298 74 18342176678217860388
1601671 61 18339643334745105915
16945 1 18266459802451487334
17492 89 18339079414224781271
1813 80 17095240332377332213
18681886 176 18343294847727422146
19591789 44 18410854347742201167
200 152 18131347497309513835
20028762 73 18201712942578677719
20645477 70 18409728456414724159
20691752 17 17676479566509777059
20739085 24 18262821595574130633
20905425 154 18052538764306537542
21033648 29 17168413901232586149
21267235 1 18411427180574015843
21279426 13 18266177240578973933
21421861 104 17825666642932197603
21452121 103 18341603854767817152
221490 88 18336553788701970307
22182313 1 18115850971664151204
23227448 37 18341611563891540383
2334 1 18338799043306911850
23402539 116 18271236136449286623
23558518 356 17755860075840694426
23559900 14 18341892979139206402
2748010 2 18338239366123955342
3004659 81 18260553282433793838
335352 9 18338798901230204086
34934 24 18268707384728672204
350125 39 18409730643170626580
3680242 22 18263079925008604178
4214541 1 18410855421985386401
474 4 18408603690484801273
495365 180 17417804106410964176
5104073 3 18409731776767316723
6138700 20 18337675188068902358
7364860 26 18412545392362447334
9709674 26 18337394941067547611
9981440 41 17545313537586678320

>  <PUBCHEM_SHAPE_MULTIPOLES>  (1) 
452.75
9.19
3.08
0.62
4.73
0.19
0
0.84
0
-2.2
0
0
0
0

>  <PUBCHEM_SHAPE_SELFOVERLAP>  (1) 
1057.463

>  <PUBCHEM_SHAPE_VOLUME>  (1) 
210.3

>  <PUBCHEM_COORDINATE_TYPE>  (1) 
2
5
10

$$$$
