28043
     RDKit          3D

 22 26  0  0  0  0  0  0  0  0999 V2000
   -0.0275   -0.1878   -0.0001 C   0  0  0  0  0  0  0  0  0  0  0  0
    1.3752    0.0549   -0.0001 C   0  0  0  0  0  0  0  0  0  0  0  0
   -0.9559    0.8873   -0.0002 C   0  0  0  0  0  0  0  0  0  0  0  0
   -0.4875   -1.5224    0.0000 C   0  0  0  0  0  0  0  0  0  0  0  0
    2.2916   -1.0249    0.0001 C   0  0  0  0  0  0  0  0  0  0  0  0
    1.8671    1.3779   -0.0001 C   0  0  0  0  0  0  0  0  0  0  0  0
   -2.3663    0.6053   -0.0001 C   0  0  0  0  0  0  0  0  0  0  0  0
    1.8045   -2.3349    0.0003 C   0  0  0  0  0  0  0  0  0  0  0  0
    0.4327   -2.5795    0.0003 C   0  0  0  0  0  0  0  0  0  0  0  0
   -2.8001   -0.7437   -0.0002 C   0  0  0  0  0  0  0  0  0  0  0  0
    3.2511    1.6082    0.0000 C   0  0  0  0  0  0  0  0  0  0  0  0
   -1.8611   -1.7803   -0.0002 C   0  0  0  0  0  0  0  0  0  0  0  0
   -0.4171    2.1943   -0.0001 C   0  0  0  0  0  0  0  0  0  0  0  0
    0.9591    2.4362   -0.0002 C   0  0  0  0  0  0  0  0  0  0  0  0
    3.6704   -0.7671    0.0002 C   0  0  0  0  0  0  0  0  0  0  0  0
    4.1461    0.5416    0.0000 C   0  0  0  0  0  0  0  0  0  0  0  0
   -3.3787    1.5986    0.0001 C   0  0  0  0  0  0  0  0  0  0  0  0
    2.7127   -3.5258   -0.0004 C   0  0  0  0  0  0  0  0  0  0  0  0
   -4.1714   -1.0540   -0.0001 C   0  0  0  0  0  0  0  0  0  0  0  0
    3.8290    2.9897    0.0002 C   0  0  0  0  0  0  0  0  0  0  0  0
   -4.7386    1.2770    0.0003 C   0  0  0  0  0  0  0  0  0  0  0  0
   -5.1352   -0.0507    0.0002 C   0  0  0  0  0  0  0  0  0  0  0  0
  1  2  2  0
  1  3  1  0
  1  4  1  0
  2  5  1  0
  2  6  1  0
  3  7  2  0
  3 13  1  0
  4  9  2  0
  4 12  1  0
  5  8  2  0
  5 15  1  0
  6 11  2  0
  6 14  1  0
  7 10  1  0
  7 17  1  0
  8  9  1  0
  8 18  1  0
 10 12  2  0
 10 19  1  0
 11 16  1  0
 11 20  1  0
 13 14  2  0
 15 16  2  0
 17 21  2  0
 19 22  2  0
 21 22  1  0
M  END
>  <PUBCHEM_COMPOUND_CID>  (1) 
28043

>  <PUBCHEM_CONFORMER_RMSD>  (1) 
0.6

>  <PUBCHEM_CONFORMER_DIVERSEORDER>  (1) 
1

>  <PUBCHEM_MMFF94_PARTIAL_CHARGES>  (1) 
24
11 -0.14
12 -0.15
13 -0.15
14 -0.15
15 -0.15
16 -0.15
17 -0.15
18 0.14
19 -0.15
20 0.14
21 -0.15
22 -0.15
23 0.15
24 0.15
25 0.15
26 0.15
27 0.15
28 0.15
29 0.15
33 0.15
37 0.15
38 0.15
8 -0.14
9 -0.15

>  <PUBCHEM_EFFECTIVE_ROTOR_COUNT>  (1) 
0

>  <PUBCHEM_PHARMACOPHORE_FEATURES>  (1) 
5
6 1 2 3 6 13 14 rings
6 1 2 4 5 8 9 rings
6 1 3 4 7 10 12 rings
6 2 5 6 11 15 16 rings
6 7 10 17 19 21 22 rings

>  <PUBCHEM_HEAVY_ATOM_COUNT>  (1) 
22

>  <PUBCHEM_ATOM_DEF_STEREO_COUNT>  (1) 
0

>  <PUBCHEM_ATOM_UDEF_STEREO_COUNT>  (1) 
0

>  <PUBCHEM_BOND_DEF_STEREO_COUNT>  (1) 
0

>  <PUBCHEM_BOND_UDEF_STEREO_COUNT>  (1) 
0

>  <PUBCHEM_ISOTOPIC_ATOM_COUNT>  (1) 
0

>  <PUBCHEM_COMPONENT_COUNT>  (1) 
1

>  <PUBCHEM_CACTVS_TAUTO_COUNT>  (1) 
1

>  <PUBCHEM_CONFORMER_ID>  (1) 
00006D8B00000001

>  <PUBCHEM_MMFF94_ENERGY>  (1) 
84.7363

>  <PUBCHEM_FEATURE_SELFOVERLAP>  (1) 
25.526

>  <PUBCHEM_SHAPE_FINGERPRINT>  (1) 
10411042 1 17906453229850831202
10493431 412 18195244644737293360
10616163 171 18339363071281722527
10693767 8 18130788902432612198
10863032 1 18411702080029240139
10906281 52 18262253174217002384
10948715 1 18338517555281788486
10967382 1 18410856555487351014
1100329 8 18410569609197357970
11370993 70 18339076119910356224
11471102 20 18410853265510701901
11578080 2 13697597700104718837
11680986 33 18336275565078773779
12107183 9 17766003792404183241
12236239 1 17846780707145143201
12403259 226 18046061553986138422
12592029 89 18410296929748978955
12788726 201 17417543419028974625
12838862 33 18339341042252088432
13009979 54 17557993835637755218
13140716 1 18337946896204962578
138480 1 18194683666173672482
14223421 5 18264766571524173524
14790565 3 18265340697130880708
15196674 1 18410574019753951533
15442244 35 18196092144800277099
15536298 74 18342458123208940823
15927050 60 18267865176566648198
1601671 61 18410293592517061576
16087824 20 17257655517414556469
16945 1 18338517426675440678
17492 89 18411418397825403095
19591789 44 18339080513762042262
20645477 70 18408318865628771927
20739085 24 18120962528375919145
20905425 154 18268995276323135422
21197605 99 18194411211040325083
21267235 1 18411427197590231319
21421861 104 17970342620545328682
221490 88 18336554836974794299
23227448 37 18341612676287992095
2334 1 18266741483755348808
23366157 5 18114184099103788242
23559900 14 18267861692498520234
2748010 2 18265903634425506254
335352 9 18410573964177794494
33824 294 18409729564727276658
34934 24 18412821382660795719
350125 39 18409448081672756500
3680242 22 18335419011303156874
394222 165 18041553775888690160
4409770 3 16602374032221563542
474 4 18408885169661481641
484985 159 14717855104243697090
5104073 3 18408326558284406657
543358 83 18340773624192758785
59755656 215 18410859828896191078
6138700 20 18410579444951975646
7364860 26 18412263896174891150
8272917 22 18412830161742643439
9709674 26 18409453565982178539
9981440 41 18192989542077609218

>  <PUBCHEM_SHAPE_MULTIPOLES>  (1) 
452.75
8.53
3.49
0.62
6.21
0.92
0
-2.14
0
-3.22
0
0
0
0

>  <PUBCHEM_SHAPE_SELFOVERLAP>  (1) 
1057.446

>  <PUBCHEM_SHAPE_VOLUME>  (1) 
210.3

>  <PUBCHEM_COORDINATE_TYPE>  (1) 
2
5
10

$$$$
