28058
     RDKit          3D

 21 21  0  0  0  0  0  0  0  0999 V2000
   -0.7261   -2.3605   -1.2536 Cl  0  0  0  0  0  0  0  0  0  0  0  0
   -0.2613    2.9614   -0.1223 Cl  0  0  0  0  0  0  0  0  0  0  0  0
    2.9688   -0.0572   -0.4295 O   0  0  0  0  0  0  0  0  0  0  0  0
   -4.7329    0.5743   -0.2337 O   0  0  0  0  0  0  0  0  0  0  0  0
    1.5280   -0.3049    1.3292 O   0  0  0  0  0  0  0  0  0  0  0  0
    6.5077   -0.5405    0.4810 N   0  0  0  0  0  0  0  0  0  0  0  0
    0.7763    0.2187   -0.8252 N   0  0  0  0  0  0  0  0  0  0  0  0
    5.3500   -0.2766   -0.3729 C   0  0  0  0  0  0  0  0  0  0  0  0
    4.0630   -0.3357    0.4343 C   0  0  0  0  0  0  0  0  0  0  0  0
   -5.4134   -0.5928    0.2249 C   0  0  0  0  0  0  0  0  0  0  0  0
   -6.6575   -0.1679    0.9899 C   0  0  0  0  0  0  0  0  0  0  0  0
    6.5659    0.4268    1.5764 C   0  0  0  0  0  0  0  0  0  0  0  0
    7.7413   -0.4995   -0.3032 C   0  0  0  0  0  0  0  0  0  0  0  0
   -0.6263    0.3090   -0.6742 C   0  0  0  0  0  0  0  0  0  0  0  0
   -3.3822    0.4869   -0.3785 C   0  0  0  0  0  0  0  0  0  0  0  0
   -1.4090   -0.8244   -0.8515 C   0  0  0  0  0  0  0  0  0  0  0  0
   -1.2032    1.5303   -0.3510 C   0  0  0  0  0  0  0  0  0  0  0  0
   -2.7930   -0.7350   -0.7031 C   0  0  0  0  0  0  0  0  0  0  0  0
   -2.5873    1.6195   -0.2025 C   0  0  0  0  0  0  0  0  0  0  0  0
    1.7192   -0.0697    0.1422 C   0  0  0  0  0  0  0  0  0  0  0  0
   -7.4280   -1.3622    1.5234 C   0  0  0  0  0  0  0  0  0  0  0  0
  1 16  1  0
  2 17  1  0
  3  9  1  0
  3 20  1  0
  4 10  1  0
  4 15  1  0
  5 20  2  0
  6  8  1  0
  6 12  1  0
  6 13  1  0
  7 14  1  0
  7 20  1  0
  8  9  1  0
 10 11  1  0
 11 21  1  0
 14 16  2  0
 14 17  1  0
 15 18  2  0
 15 19  1  0
 16 18  1  0
 17 19  2  0
M  END
>  <PUBCHEM_COMPOUND_CID>  (1) 
28058

>  <PUBCHEM_CONFORMER_RMSD>  (1) 
0.8

>  <PUBCHEM_CONFORMER_DIVERSEORDER>  (1) 
1
161
164
107
112
159
4
75
113
44
150
43
40
128
123
25
96
32
169
141
51
170
137
157
92
14
177
104
9
127
162
163
77
106
109
166
160
87
114
56
90
120
18
110
45
39
126
175
73
142
144
13
30
136
66
165
138
122
167
146
133
119
47
61
158
57
89
76
145
149
68
38
60
79
49
94
148
176
151
143
23
59
174
124
29
101
46
71
12
147
171
117
42
86
80
81
67
7
134
116
54
48
85
121
129
173
105
98
63
178
152
102
6
111
70
182
58
108
95
37
52
99
27
153
10
93
41
91
180
118
20
135
36
154
97
156
21
181
17
8
140
65
34
74
83
64
172
3
132
72
50
2
16
131
78
35
115
19
31
84
33
139
100
103
155
24
130
179
69
88
22
28
168
55
15
53
62
11
125
26
5
82

>  <PUBCHEM_MMFF94_PARTIAL_CHARGES>  (1) 
22
1 -0.18
10 0.28
12 0.27
13 0.27
14 0.12
15 0.08
16 0.18
17 0.18
18 -0.15
19 -0.15
2 -0.18
20 0.78
3 -0.43
36 0.15
37 0.15
38 0.37
4 -0.36
5 -0.57
6 -0.81
7 -0.55
8 0.27
9 0.28

>  <PUBCHEM_EFFECTIVE_ROTOR_COUNT>  (1) 
9

>  <PUBCHEM_PHARMACOPHORE_FEATURES>  (1) 
6
1 21 hydrophobe
1 4 acceptor
1 5 acceptor
1 6 cation
1 7 donor
6 14 15 16 17 18 19 rings

>  <PUBCHEM_HEAVY_ATOM_COUNT>  (1) 
21

>  <PUBCHEM_ATOM_DEF_STEREO_COUNT>  (1) 
0

>  <PUBCHEM_ATOM_UDEF_STEREO_COUNT>  (1) 
0

>  <PUBCHEM_BOND_DEF_STEREO_COUNT>  (1) 
0

>  <PUBCHEM_BOND_UDEF_STEREO_COUNT>  (1) 
0

>  <PUBCHEM_ISOTOPIC_ATOM_COUNT>  (1) 
0

>  <PUBCHEM_COMPONENT_COUNT>  (1) 
1

>  <PUBCHEM_CACTVS_TAUTO_COUNT>  (1) 
2

>  <PUBCHEM_CONFORMER_ID>  (1) 
00006D9A00000001

>  <PUBCHEM_MMFF94_ENERGY>  (1) 
71.1846

>  <PUBCHEM_FEATURE_SELFOVERLAP>  (1) 
30.446

>  <PUBCHEM_SHAPE_FINGERPRINT>  (1) 
106641 1 18272654580143757915
12035758 1 18201163225745795351
12166972 35 17240485814771061572
12236239 1 17894631431268149900
12916748 109 18410855430859910844
13073987 5 18268989796224459882
13140716 1 18199189680215903919
13257819 101 13182751286568585769
13288520 33 16660364788485124207
13540713 4 17983306928537672925
13540713 5 17841430638214935053
13668630 136 16371000772827126018
13914758 101 12175629468531465186
14123256 10 12540694825338760571
14251764 18 17131829897732742109
15048467 5 13110967509458989443
15706992 2 15267073583589639867
18335252 98 18335425656113734274
19489759 90 10953458501625788292
200 152 15864066550909167460
20735858 18 18343588447639272391
21150785 3 15719396140301431118
21267235 1 18335707139268734460
21304253 13 17989205953907026689
21637258 2 16732698376768019777
21792934 111 18412541016387573369
22122407 14 15051452781423674098
22224240 67 17989768904245082223
2297311 6 18343022160390734788
23035841 295 17894351085793958995
23402539 116 18201708561784953372
23559900 14 17917700324128840282
2838139 119 13901905596962049795
34797466 226 18131077048184174844
3545911 37 18201997708338099806
4325135 7 15864072074432496818
465052 167 18188220896324782187
5104073 3 18198062473684429467
57724786 102 16056016069992983904
59682541 35 18335704982904878522
5969126 39 13695861541644146671
59755656 520 16773790398778486239

>  <PUBCHEM_SHAPE_MULTIPOLES>  (1) 
408.34
19.08
1.89
1.21
13.8
0.88
0.35
-6.05
9.44
-1.35
-0.46
-0.32
-0.32
0.93

>  <PUBCHEM_SHAPE_SELFOVERLAP>  (1) 
803.063

>  <PUBCHEM_SHAPE_VOLUME>  (1) 
246.9

>  <PUBCHEM_COORDINATE_TYPE>  (1) 
2
5
10

$$$$
