28057
     RDKit          3D

 23 24  0  0  0  0  0  0  0  0999 V2000
   -2.1955   -2.7221    0.2338 Cl  0  0  0  0  0  0  0  0  0  0  0  0
   -1.8466    2.6559    1.1147 Cl  0  0  0  0  0  0  0  0  0  0  0  0
    1.4626   -0.2557    0.6544 O   0  0  0  0  0  0  0  0  0  0  0  0
    0.2009    0.1318   -1.2133 O   0  0  0  0  0  0  0  0  0  0  0  0
   -6.2072    0.3625   -0.0818 O   0  0  0  0  0  0  0  0  0  0  0  0
    5.0847   -0.4005   -0.0136 N   0  0  0  0  0  0  0  0  0  0  0  0
   -0.7666   -0.1513    0.8996 N   0  0  0  0  0  0  0  0  0  0  0  0
    5.2643    0.9136   -0.6466 C   0  0  0  0  0  0  0  0  0  0  0  0
    6.2332   -0.7416    0.8376 C   0  0  0  0  0  0  0  0  0  0  0  0
    6.5310    0.9448   -1.5032 C   0  0  0  0  0  0  0  0  0  0  0  0
    7.5315   -0.7648    0.0293 C   0  0  0  0  0  0  0  0  0  0  0  0
    7.7610    0.5601   -0.6889 C   0  0  0  0  0  0  0  0  0  0  0  0
    3.8457   -0.4288    0.7634 C   0  0  0  0  0  0  0  0  0  0  0  0
    2.6420   -0.2031   -0.1375 C   0  0  0  0  0  0  0  0  0  0  0  0
    0.2724   -0.0700   -0.0072 C   0  0  0  0  0  0  0  0  0  0  0  0
   -2.1517   -0.0206    0.6501 C   0  0  0  0  0  0  0  0  0  0  0  0
   -2.9004   -1.1468    0.3341 C   0  0  0  0  0  0  0  0  0  0  0  0
   -2.7460    1.2325    0.7238 C   0  0  0  0  0  0  0  0  0  0  0  0
   -4.8734    0.2364    0.1590 C   0  0  0  0  0  0  0  0  0  0  0  0
   -4.2672   -1.0178    0.0873 C   0  0  0  0  0  0  0  0  0  0  0  0
   -4.1127    1.3615    0.4771 C   0  0  0  0  0  0  0  0  0  0  0  0
   -6.7934   -0.5676   -0.9911 C   0  0  0  0  0  0  0  0  0  0  0  0
   -7.9687    0.0913   -1.6811 C   0  0  0  0  0  0  0  0  0  0  0  0
  1 17  1  0
  2 18  1  0
  3 14  1  0
  3 15  1  0
  4 15  2  0
  5 19  1  0
  5 22  1  0
  6  8  1  0
  6  9  1  0
  6 13  1  0
  7 15  1  0
  7 16  1  0
  8 10  1  0
  9 11  1  0
 10 12  1  0
 11 12  1  0
 13 14  1  0
 16 17  2  0
 16 18  1  0
 17 20  1  0
 18 21  2  0
 19 20  2  0
 19 21  1  0
 22 23  1  0
M  END
>  <PUBCHEM_COMPOUND_CID>  (1) 
28057

>  <PUBCHEM_CONFORMER_RMSD>  (1) 
1

>  <PUBCHEM_CONFORMER_DIVERSEORDER>  (1) 
1
19
28
31
30
22
3
45
42
41
4
37
18
36
25
12
39
34
32
16
38
9
49
21
46
43
23
29
33
15
35
10
27
6
8
24
11
14
7
2
5
47
17
40
44
26
13
48
20

>  <PUBCHEM_MMFF94_PARTIAL_CHARGES>  (1) 
22
1 -0.18
13 0.27
14 0.28
15 0.78
16 0.12
17 0.18
18 0.18
19 0.08
2 -0.18
20 -0.15
21 -0.15
22 0.28
3 -0.43
38 0.37
39 0.15
4 -0.57
40 0.15
5 -0.36
6 -0.81
7 -0.55
8 0.27
9 0.27

>  <PUBCHEM_EFFECTIVE_ROTOR_COUNT>  (1) 
9.2

>  <PUBCHEM_PHARMACOPHORE_FEATURES>  (1) 
6
1 4 acceptor
1 5 acceptor
1 6 cation
1 7 donor
6 16 17 18 19 20 21 rings
6 6 8 9 10 11 12 rings

>  <PUBCHEM_HEAVY_ATOM_COUNT>  (1) 
23

>  <PUBCHEM_ATOM_DEF_STEREO_COUNT>  (1) 
0

>  <PUBCHEM_ATOM_UDEF_STEREO_COUNT>  (1) 
0

>  <PUBCHEM_BOND_DEF_STEREO_COUNT>  (1) 
0

>  <PUBCHEM_BOND_UDEF_STEREO_COUNT>  (1) 
0

>  <PUBCHEM_ISOTOPIC_ATOM_COUNT>  (1) 
0

>  <PUBCHEM_COMPONENT_COUNT>  (1) 
1

>  <PUBCHEM_CACTVS_TAUTO_COUNT>  (1) 
2

>  <PUBCHEM_CONFORMER_ID>  (1) 
00006D9900000001

>  <PUBCHEM_MMFF94_ENERGY>  (1) 
64.7754

>  <PUBCHEM_FEATURE_SELFOVERLAP>  (1) 
30.446

>  <PUBCHEM_SHAPE_FINGERPRINT>  (1) 
10 15 9151170969645412526
10968037 39 18410857664100538451
11315181 36 18260554441420595713
11524674 6 16559031601355413334
12236239 1 17967534583801672682
125118 31 15357700786232064094
13073987 5 10231492791270475382
13533116 47 18340762637730362634
13668630 136 15554450695325113716
13914758 101 17240759558273772085
14251764 18 18411700976154099394
14251764 46 18408602556560823891
14729087 3 15213295318696935375
15183329 4 18409732855020398144
15419008 47 16988557992352974760
15461852 350 18408601496569312391
15849732 13 17385444328064857119
17093844 174 15719396152891018537
19489759 90 18202004313127408616
21150785 3 17561084722232835324
21267235 1 18273215331316380345
21304253 13 11746939772425490535
2297311 6 17775289352341213913
23402539 116 18272927216177921877
23559900 14 18268987751182068249
23569943 247 14403252052925617830
246663 6 15339120156081810637
283562 15 18200314304449167681
300161 21 17749108907116414130
3009799 131 16153426142846095685
335352 9 18341888598889652173
34797466 226 17561090228634343616
3633792 109 17968373442696749431
4073 2 17604158129322599170
4093350 32 14996551868183661888
4325135 7 18272370871224832212
54039377 194 18130220588972210895
5969126 39 17917704683210117297
59755656 215 17274826844023954734
59755656 520 17023184954590151402

>  <PUBCHEM_SHAPE_MULTIPOLES>  (1) 
449.5
23.27
1.77
1.19
19.2
0.09
-0.34
-0.11
-9.36
-1.59
0.53
-0.31
0.23
-1.38

>  <PUBCHEM_SHAPE_SELFOVERLAP>  (1) 
901.795

>  <PUBCHEM_SHAPE_VOLUME>  (1) 
266.1

>  <PUBCHEM_COORDINATE_TYPE>  (1) 
2
5
10

$$$$
