28056
     RDKit          3D

 22 22  0  0  0  0  0  0  0  0999 V2000
   -1.8293   -2.7993    0.4445 Cl  0  0  0  0  0  0  0  0  0  0  0  0
   -1.3962    2.6384    0.6990 Cl  0  0  0  0  0  0  0  0  0  0  0  0
    1.8886   -0.0320    0.4826 O   0  0  0  0  0  0  0  0  0  0  0  0
   -5.8328    0.2818    0.0134 O   0  0  0  0  0  0  0  0  0  0  0  0
    0.5598    0.9668   -1.0880 O   0  0  0  0  0  0  0  0  0  0  0  0
    5.4952    0.3532   -0.1729 N   0  0  0  0  0  0  0  0  0  0  0  0
   -0.3361   -0.1900    0.7394 N   0  0  0  0  0  0  0  0  0  0  0  0
    4.2799   -0.0651    0.5250 C   0  0  0  0  0  0  0  0  0  0  0  0
    5.7513   -0.5176   -1.3195 C   0  0  0  0  0  0  0  0  0  0  0  0
    6.6373    0.3453    0.7402 C   0  0  0  0  0  0  0  0  0  0  0  0
    3.0426    0.4102   -0.2199 C   0  0  0  0  0  0  0  0  0  0  0  0
    6.9766   -0.0608   -2.0929 C   0  0  0  0  0  0  0  0  0  0  0  0
    6.9127   -1.0543    1.2631 C   0  0  0  0  0  0  0  0  0  0  0  0
    0.6733    0.3137   -0.0580 C   0  0  0  0  0  0  0  0  0  0  0  0
   -1.7324   -0.0701    0.5554 C   0  0  0  0  0  0  0  0  0  0  0  0
   -2.5171   -1.2139    0.4080 C   0  0  0  0  0  0  0  0  0  0  0  0
   -2.3256    1.1918    0.5207 C   0  0  0  0  0  0  0  0  0  0  0  0
   -4.4881    0.1663    0.1913 C   0  0  0  0  0  0  0  0  0  0  0  0
   -3.8950   -1.0958    0.2259 C   0  0  0  0  0  0  0  0  0  0  0  0
   -3.7034    1.3101    0.3386 C   0  0  0  0  0  0  0  0  0  0  0  0
   -6.4762   -0.7359   -0.7519 C   0  0  0  0  0  0  0  0  0  0  0  0
   -7.6850   -0.1427   -1.4437 C   0  0  0  0  0  0  0  0  0  0  0  0
  1 16  1  0
  2 17  1  0
  3 11  1  0
  3 14  1  0
  4 18  1  0
  4 21  1  0
  5 14  2  0
  6  8  1  0
  6  9  1  0
  6 10  1  0
  7 14  1  0
  7 15  1  0
  8 11  1  0
  9 12  1  0
 10 13  1  0
 15 16  2  0
 15 17  1  0
 16 19  1  0
 17 20  2  0
 18 19  2  0
 18 20  1  0
 21 22  1  0
M  END
>  <PUBCHEM_COMPOUND_CID>  (1) 
28056

>  <PUBCHEM_CONFORMER_RMSD>  (1) 
1

>  <PUBCHEM_CONFORMER_DIVERSEORDER>  (1) 
1
22
19
29
11
16
38
31
51
37
32
42
17
13
40
41
14
39
23
49
26
25
18
43
50
45
7
36
34
6
3
8
15
47
48
21
28
10
20
12
4
27
33
9
24
35
30
44
2
46
5

>  <PUBCHEM_MMFF94_PARTIAL_CHARGES>  (1) 
22
1 -0.18
10 0.27
11 0.28
14 0.78
15 0.12
16 0.18
17 0.18
18 0.08
19 -0.15
2 -0.18
20 -0.15
21 0.28
3 -0.43
37 0.37
38 0.15
39 0.15
4 -0.36
5 -0.57
6 -0.81
7 -0.55
8 0.27
9 0.27

>  <PUBCHEM_EFFECTIVE_ROTOR_COUNT>  (1) 
10

>  <PUBCHEM_PHARMACOPHORE_FEATURES>  (1) 
5
1 4 acceptor
1 5 acceptor
1 6 cation
1 7 donor
6 15 16 17 18 19 20 rings

>  <PUBCHEM_HEAVY_ATOM_COUNT>  (1) 
22

>  <PUBCHEM_ATOM_DEF_STEREO_COUNT>  (1) 
0

>  <PUBCHEM_ATOM_UDEF_STEREO_COUNT>  (1) 
0

>  <PUBCHEM_BOND_DEF_STEREO_COUNT>  (1) 
0

>  <PUBCHEM_BOND_UDEF_STEREO_COUNT>  (1) 
0

>  <PUBCHEM_ISOTOPIC_ATOM_COUNT>  (1) 
0

>  <PUBCHEM_COMPONENT_COUNT>  (1) 
1

>  <PUBCHEM_CACTVS_TAUTO_COUNT>  (1) 
2

>  <PUBCHEM_CONFORMER_ID>  (1) 
00006D9800000001

>  <PUBCHEM_MMFF94_ENERGY>  (1) 
63.6777

>  <PUBCHEM_FEATURE_SELFOVERLAP>  (1) 
25.372

>  <PUBCHEM_SHAPE_FINGERPRINT>  (1) 
10 15 17774993614801090432
106641 1 15195276560394915866
11315181 36 18259991495456368496
12236239 1 17675927607651836506
12516196 113 17704071794019356496
13073987 5 15841275848888832826
13288520 33 18343585148956501137
13533116 47 18340200791683711170
13668630 136 16200159763993603694
13914758 101 17168135698678355485
14251752 14 16950275196095778572
14251764 18 18409729551657830042
14251764 46 18411134740381871955
15048467 5 13623527957212261933
15183329 4 18333737909716894678
15716309 27 14979956969239489429
15849732 13 17313103059958332703
17844677 252 18130516271299601776
18006028 8 18273209811867121649
19489759 90 18272934907799756592
21267235 1 18340775922717583089
22224240 67 15482666896751621037
2297311 6 18272942608692195696
23081809 10 17967821509709183728
23198884 109 14634586073388360493
23402539 116 18343862221560136821
23559900 14 18340483490536021776
23622692 88 18187366549397639687
283562 15 18270400482633644657
2838139 119 16515680040522317373
3004659 81 18333731350927534028
3009799 131 18186515510513465637
335352 9 18409728487518641021
34797466 226 17917715725597038888
484989 97 18117277172291585587
559249 180 18186799218741665411
59755656 215 18341615901734669206
59755656 520 16588020242997333059
6138700 20 18412259541594829307

>  <PUBCHEM_SHAPE_MULTIPOLES>  (1) 
428.92
20.86
1.81
1.29
15.03
0.08
0.57
3.62
6.82
-1.78
-0.53
1.68
0.13
-0.36

>  <PUBCHEM_SHAPE_SELFOVERLAP>  (1) 
844.056

>  <PUBCHEM_SHAPE_VOLUME>  (1) 
259.4

>  <PUBCHEM_COORDINATE_TYPE>  (1) 
2
5
10

$$$$
