28061
     RDKit          3D

 14 14  0  0  1  0  0  0  0  0999 V2000
   -4.0761    0.3392   -0.7768 Cl  0  0  0  0  0  0  0  0  0  0  0  0
   -1.9856   -0.5946    1.3453 O   0  0  0  0  0  0  0  0  0  0  0  0
    2.9234    2.0133    0.1772 O   0  0  0  0  0  0  0  0  0  0  0  0
    0.8098    2.3165   -0.3507 O   0  0  0  0  0  0  0  0  0  0  0  0
    0.3809   -0.4378   -0.2974 N   0  0  0  0  0  0  0  0  0  0  0  0
    1.7799   -2.0852    0.1335 N   0  0  0  0  0  0  0  0  0  0  0  0
    1.7748    1.5480   -0.0733 N   0  0  0  0  0  0  0  0  0  0  0  0
   -0.8699    0.2415   -0.6403 C   0  0  0  0  0  0  0  0  0  0  0  0
   -1.6980    0.5895    0.6021 C   0  0  0  0  0  0  0  0  0  0  0  0
    0.5412   -1.7800   -0.1831 C   0  0  0  0  0  0  0  0  0  0  0  0
    1.5687    0.1645   -0.0440 C   0  0  0  0  0  0  0  0  0  0  0  0
   -3.0132    1.3016    0.2828 C   0  0  0  0  0  0  0  0  0  0  0  0
    2.4257   -0.8774    0.2222 C   0  0  0  0  0  0  0  0  0  0  0  0
   -0.5616   -2.7391   -0.3975 C   0  0  0  0  0  0  0  0  0  0  0  0
  1 12  1  0
  2  9  1  0
  3  7  1  0
  4  7  2  0
  5  8  1  0
  5 10  1  0
  5 11  1  0
  6 10  2  0
  6 13  1  0
  7 11  1  0
  8  9  1  0
  9 12  1  0
 10 14  1  0
 11 13  2  0
M  CHG  2   3  -1   7   1
M  END
>  <PUBCHEM_COMPOUND_CID>  (1) 
28061

>  <PUBCHEM_CONFORMER_RMSD>  (1) 
0.6

>  <PUBCHEM_CONFORMER_DIVERSEORDER>  (1) 
1
10
8
9
12
5
11
2
7
3
6
4

>  <PUBCHEM_MMFF94_PARTIAL_CHARGES>  (1) 
16
1 -0.29
10 0.01
11 -0.07
12 0.29
13 0.08
14 0.18
2 -0.68
20 0.15
24 0.4
3 -0.52
4 -0.52
5 0.05
6 -0.57
7 0.96
8 0.26
9 0.28

>  <PUBCHEM_EFFECTIVE_ROTOR_COUNT>  (1) 
4

>  <PUBCHEM_PHARMACOPHORE_FEATURES>  (1) 
7
1 2 acceptor
1 2 donor
1 3 acceptor
1 3 anion
1 4 acceptor
3 5 6 10 cation
5 5 6 10 11 13 rings

>  <PUBCHEM_HEAVY_ATOM_COUNT>  (1) 
14

>  <PUBCHEM_ATOM_DEF_STEREO_COUNT>  (1) 
0

>  <PUBCHEM_ATOM_UDEF_STEREO_COUNT>  (1) 
1

>  <PUBCHEM_BOND_DEF_STEREO_COUNT>  (1) 
0

>  <PUBCHEM_BOND_UDEF_STEREO_COUNT>  (1) 
0

>  <PUBCHEM_ISOTOPIC_ATOM_COUNT>  (1) 
0

>  <PUBCHEM_COMPONENT_COUNT>  (1) 
1

>  <PUBCHEM_CACTVS_TAUTO_COUNT>  (1) 
1

>  <PUBCHEM_CONFORMER_ID>  (1) 
00006D9D00000001

>  <PUBCHEM_MMFF94_ENERGY>  (1) 
27.4471

>  <PUBCHEM_FEATURE_SELFOVERLAP>  (1) 
35.6

>  <PUBCHEM_SHAPE_FINGERPRINT>  (1) 
10219947 1 18267304222775597554
13380535 76 18337104665454531371
14251717 144 18339353081255915749
14993402 34 18341334383845046406
15490181 7 18194697079250737582
15775835 57 18059575823328795625
16945 1 18267314144144698715
17990270 104 18194124014602049875
193761 8 18267303308227313838
20201158 50 18190182278512299955
20510252 161 17477766144630154880
20511035 2 18115041769517862815
20645477 70 18338229367872516247
21130352 189 18263083210531828528
21524375 3 18272367637220212868
21639500 275 18338504284033538117
23598291 2 17987802878649246037
2748010 2 18337123344256752175
3060560 45 18271242695017263759
5084963 1 17917709050516104379
528862 383 18408880737334476936
81228 2 17188143820974660922

>  <PUBCHEM_SHAPE_MULTIPOLES>  (1) 
257.43
4.9
2.63
0.84
4.17
0.4
0.11
-1.5
-0.19
-1.66
-0.22
0.49
0.07
-0.1

>  <PUBCHEM_SHAPE_SELFOVERLAP>  (1) 
515.502

>  <PUBCHEM_SHAPE_VOLUME>  (1) 
153.9

>  <PUBCHEM_COORDINATE_TYPE>  (1) 
2
5
10

$$$$
