28063
     RDKit          3D

 20 21  0  0  0  0  0  0  0  0999 V2000
    1.1338    4.3243    0.0736 S   0  0  0  0  0  0  0  0  0  0  0  0
   -5.0323   -2.1711    0.5105 O   0  0  0  0  0  0  0  0  0  0  0  0
   -0.6671    2.4646   -0.1212 O   0  0  0  0  0  0  0  0  0  0  0  0
    4.1918   -1.6198    0.3112 O   0  0  0  0  0  0  0  0  0  0  0  0
   -3.2835   -0.1157   -0.3943 N   0  0  0  0  0  0  0  0  0  0  0  0
   -4.7348   -0.0416   -0.6135 C   0  0  0  0  0  0  0  0  0  0  0  0
   -2.9969   -0.8883    0.8222 C   0  0  0  0  0  0  0  0  0  0  0  0
   -2.7027    1.2226   -0.3080 C   0  0  0  0  0  0  0  0  0  0  0  0
   -5.3202   -1.4490   -0.6875 C   0  0  0  0  0  0  0  0  0  0  0  0
   -3.6227   -2.2760    0.7135 C   0  0  0  0  0  0  0  0  0  0  0  0
   -1.1895    1.1441   -0.1848 C   0  0  0  0  0  0  0  0  0  0  0  0
    0.6639    2.7255    0.0106 C   0  0  0  0  0  0  0  0  0  0  0  0
    1.5861    1.5893    0.0892 C   0  0  0  0  0  0  0  0  0  0  0  0
    2.1348    1.0689   -1.0762 C   0  0  0  0  0  0  0  0  0  0  0  0
    1.9013    1.0456    1.3282 C   0  0  0  0  0  0  0  0  0  0  0  0
    3.3347   -0.5650    0.2383 C   0  0  0  0  0  0  0  0  0  0  0  0
    3.0127   -0.0126   -1.0014 C   0  0  0  0  0  0  0  0  0  0  0  0
    2.7791   -0.0358    1.4031 C   0  0  0  0  0  0  0  0  0  0  0  0
    4.2176   -2.5136   -0.8005 C   0  0  0  0  0  0  0  0  0  0  0  0
    4.5938   -3.8965   -0.3129 C   0  0  0  0  0  0  0  0  0  0  0  0
  1 12  2  0
  2  9  1  0
  2 10  1  0
  3 11  1  0
  3 12  1  0
  4 16  1  0
  4 19  1  0
  5  6  1  0
  5  7  1  0
  5  8  1  0
  6  9  1  0
  7 10  1  0
  8 11  1  0
 12 13  1  0
 13 14  2  0
 13 15  1  0
 14 17  1  0
 15 18  2  0
 16 17  2  0
 16 18  1  0
 19 20  1  0
M  END
>  <PUBCHEM_COMPOUND_CID>  (1) 
28063

>  <PUBCHEM_CONFORMER_RMSD>  (1) 
0.8

>  <PUBCHEM_CONFORMER_DIVERSEORDER>  (1) 
1
61
116
47
162
84
176
62
26
139
87
96
22
169
71
6
128
152
145
73
95
23
72
40
143
107
168
170
124
167
60
110
39
13
165
76
67
137
127
88
125
17
151
171
42
130
83
44
86
53
85
64
161
114
18
75
70
122
89
102
97
117
33
147
91
51
153
65
148
92
50
108
160
120
56
14
55
24
31
94
146
142
10
57
15
45
48
133
174
157
136
28
54
5
140
82
109
90
58
173
141
111
121
25
59
11
80
132
29
175
7
113
154
52
74
103
32
159
79
135
172
27
41
3
123
16
134
38
166
63
46
106
126
138
35
149
37
20
163
19
77
93
104
144
30
49
4
100
99
98
78
66
2
115
12
129
112
9
34
155
36
101
150
43
119
177
81
131
158
8
156
118
69
164
68
21
105

>  <PUBCHEM_MMFF94_PARTIAL_CHARGES>  (1) 
23
1 -0.38
10 0.28
11 0.28
12 0.44
13 0.09
14 -0.15
15 -0.15
16 0.08
17 -0.15
18 -0.15
19 0.28
2 -0.56
3 -0.43
33 0.15
34 0.15
35 0.15
36 0.15
4 -0.36
5 -0.81
6 0.27
7 0.27
8 0.27
9 0.28

>  <PUBCHEM_EFFECTIVE_ROTOR_COUNT>  (1) 
8.2

>  <PUBCHEM_PHARMACOPHORE_FEATURES>  (1) 
6
1 1 acceptor
1 2 acceptor
1 4 acceptor
1 5 cation
6 13 14 15 16 17 18 rings
6 2 5 6 7 9 10 rings

>  <PUBCHEM_HEAVY_ATOM_COUNT>  (1) 
20

>  <PUBCHEM_ATOM_DEF_STEREO_COUNT>  (1) 
0

>  <PUBCHEM_ATOM_UDEF_STEREO_COUNT>  (1) 
0

>  <PUBCHEM_BOND_DEF_STEREO_COUNT>  (1) 
0

>  <PUBCHEM_BOND_UDEF_STEREO_COUNT>  (1) 
0

>  <PUBCHEM_ISOTOPIC_ATOM_COUNT>  (1) 
0

>  <PUBCHEM_COMPONENT_COUNT>  (1) 
1

>  <PUBCHEM_CACTVS_TAUTO_COUNT>  (1) 
1

>  <PUBCHEM_CONFORMER_ID>  (1) 
00006D9F00000001

>  <PUBCHEM_MMFF94_ENERGY>  (1) 
60.7427

>  <PUBCHEM_FEATURE_SELFOVERLAP>  (1) 
30.446

>  <PUBCHEM_SHAPE_FINGERPRINT>  (1) 
10498660 4 8430316861467020647
114674 6 18261950868232344114
11796584 16 17968084314140947943
12107183 9 18270696259957043625
12363563 72 18411142415483272172
13103583 49 17774452563720334018
13533116 47 18197218260167491761
13631057 29 18267870472229578198
13955234 65 18127131011650870337
14251731 5 18412264999791562686
14863182 85 18193556898989813524
14866123 147 18124599670138777673
15052358 14 18188759536763321805
15352361 1 18410573959403097230
15422964 175 18411970360903860428
17492 89 18339642360420584399
17859628 70 18267026252629181657
20403669 9 18341615862890104951
20645477 70 18192144017883982941
20775530 9 18337673001308108642
221490 88 18262802998449816657
2215653 11 18335128839677125999
22849339 104 17619924863523126396
23379529 103 18339649915052150678
23503958 8 18200596895225786168
23559900 14 18409160039527279637
314173 41 18334853926582333281
316301 35 18340198588634500386
3421961 26 18341047509946816416
3472631 163 7925913677716694515
5207 123 18411131429531883597
5365585 94 18263090941505214195
633830 44 10737284649342753880
6433294 58 18192435388017087075
6669772 16 17837501005154153980
7970288 3 18410854321994302102
88748 71 18335991908527630463
960060 61 17749668601426505485
9709674 26 18190174784110834129

>  <PUBCHEM_SHAPE_MULTIPOLES>  (1) 
392.85
11.08
4.62
1.09
9.5
1.17
-0.15
-13.34
1.16
-4.26
0.19
-0.4
-0.09
1.06

>  <PUBCHEM_SHAPE_SELFOVERLAP>  (1) 
792.084

>  <PUBCHEM_SHAPE_VOLUME>  (1) 
232.5

>  <PUBCHEM_COORDINATE_TYPE>  (1) 
2
5
10

$$$$
