28065
     RDKit          3D

 20 21  0  0  0  0  0  0  0  0999 V2000
    1.1469    4.3265    0.0669 S   0  0  0  0  0  0  0  0  0  0  0  0
   -0.6611    2.4724   -0.1153 O   0  0  0  0  0  0  0  0  0  0  0  0
    4.1861   -1.6274    0.3037 O   0  0  0  0  0  0  0  0  0  0  0  0
   -3.2879   -0.1008   -0.3705 N   0  0  0  0  0  0  0  0  0  0  0  0
   -4.7358   -0.0142   -0.6072 C   0  0  0  0  0  0  0  0  0  0  0  0
   -2.9939   -0.8653    0.8498 C   0  0  0  0  0  0  0  0  0  0  0  0
   -5.3570   -1.4053   -0.7435 C   0  0  0  0  0  0  0  0  0  0  0  0
   -3.5582   -2.2840    0.7615 C   0  0  0  0  0  0  0  0  0  0  0  0
   -5.0557   -2.2686    0.4762 C   0  0  0  0  0  0  0  0  0  0  0  0
   -2.7017    1.2369   -0.2898 C   0  0  0  0  0  0  0  0  0  0  0  0
   -1.1881    1.1534   -0.1735 C   0  0  0  0  0  0  0  0  0  0  0  0
    0.6715    2.7291    0.0098 C   0  0  0  0  0  0  0  0  0  0  0  0
    1.5902    1.5900    0.0866 C   0  0  0  0  0  0  0  0  0  0  0  0
    2.1318    1.0651   -1.0802 C   0  0  0  0  0  0  0  0  0  0  0  0
    1.9093    1.0480    1.3253 C   0  0  0  0  0  0  0  0  0  0  0  0
    3.3322   -0.5698    0.2323 C   0  0  0  0  0  0  0  0  0  0  0  0
    3.0062   -0.0192   -1.0071 C   0  0  0  0  0  0  0  0  0  0  0  0
    2.7838   -0.0363    1.3985 C   0  0  0  0  0  0  0  0  0  0  0  0
    4.2037   -2.5238   -0.8062 C   0  0  0  0  0  0  0  0  0  0  0  0
    4.5775   -3.9067   -0.3172 C   0  0  0  0  0  0  0  0  0  0  0  0
  1 12  2  0
  2 11  1  0
  2 12  1  0
  3 16  1  0
  3 19  1  0
  4  5  1  0
  4  6  1  0
  4 10  1  0
  5  7  1  0
  6  8  1  0
  7  9  1  0
  8  9  1  0
 10 11  1  0
 12 13  1  0
 13 14  2  0
 13 15  1  0
 14 17  1  0
 15 18  2  0
 16 17  2  0
 16 18  1  0
 19 20  1  0
M  END
>  <PUBCHEM_COMPOUND_CID>  (1) 
28065

>  <PUBCHEM_CONFORMER_RMSD>  (1) 
0.8

>  <PUBCHEM_CONFORMER_DIVERSEORDER>  (1) 
1
101
154
13
102
188
222
202
87
31
88
82
18
185
80
205
181
133
79
105
4
35
49
176
61
17
83
160
86
196
189
211
156
30
204
99
27
121
65
207
169
107
110
95
218
91
111
217
168
200
34
159
109
184
16
166
21
68
12
38
142
180
190
37
97
106
210
135
191
51
149
92
124
108
220
171
198
84
163
127
201
103
216
52
214
179
134
130
161
43
11
119
144
75
197
215
25
194
175
67
78
59
199
212
64
193
98
183
39
77
46
54
76
100
66
209
14
140
24
26
48
73
129
85
47
208
94
187
192
96
177
115
126
9
44
219
114
162
22
143
172
123
71
117
50
223
170
146
57
32
19
29
148
20
151
174
58
89
203
206
36
145
93
195
122
7
157
132
56
41
45
104
8
6
141
152
138
42
23
137
131
55
178
112
164
116
213
186
173
118
150
70
15
167
221
158
147
113
182
128
40
60
125
90
136
53
3
28
81
153
139
2
63
74
155
5
165
120
33
62
72
10
69

>  <PUBCHEM_MMFF94_PARTIAL_CHARGES>  (1) 
20
1 -0.38
10 0.27
11 0.28
12 0.44
13 0.09
14 -0.15
15 -0.15
16 0.08
17 -0.15
18 -0.15
19 0.28
2 -0.43
3 -0.36
35 0.15
36 0.15
37 0.15
38 0.15
4 -0.81
5 0.27
6 0.27

>  <PUBCHEM_EFFECTIVE_ROTOR_COUNT>  (1) 
8.2

>  <PUBCHEM_PHARMACOPHORE_FEATURES>  (1) 
5
1 1 acceptor
1 3 acceptor
1 4 cation
6 13 14 15 16 17 18 rings
6 4 5 6 7 8 9 rings

>  <PUBCHEM_HEAVY_ATOM_COUNT>  (1) 
20

>  <PUBCHEM_ATOM_DEF_STEREO_COUNT>  (1) 
0

>  <PUBCHEM_ATOM_UDEF_STEREO_COUNT>  (1) 
0

>  <PUBCHEM_BOND_DEF_STEREO_COUNT>  (1) 
0

>  <PUBCHEM_BOND_UDEF_STEREO_COUNT>  (1) 
0

>  <PUBCHEM_ISOTOPIC_ATOM_COUNT>  (1) 
0

>  <PUBCHEM_COMPONENT_COUNT>  (1) 
1

>  <PUBCHEM_CACTVS_TAUTO_COUNT>  (1) 
1

>  <PUBCHEM_CONFORMER_ID>  (1) 
00006DA100000001

>  <PUBCHEM_MMFF94_ENERGY>  (1) 
52.2479

>  <PUBCHEM_FEATURE_SELFOVERLAP>  (1) 
25.371

>  <PUBCHEM_SHAPE_FINGERPRINT>  (1) 
10498660 4 8502376654559872119
114674 6 18261950872527317906
11796584 16 17968084314156778687
12107183 9 18270697363774142753
12363563 72 18411143519300410253
13103583 49 17774453663231968298
13533116 47 18197218260167504779
13631057 29 18267870472229578198
13955234 65 18055073417623491905
14251731 5 18411983529072902558
14863182 85 18193556903253138796
14866123 147 18124599674449536753
15052358 14 18188759541068806117
15352361 1 18410573959382004719
15422964 175 18411971464699905988
17492 89 18339642360425865639
17859628 70 18267026252629181665
20403669 9 18341615871564422607
20645477 70 18191862547202239549
20693207 138 17968648428252332301
20775530 9 18337955575796453594
21279426 13 18261099778462086119
221490 88 18262802998465640905
2215653 11 18335128843982655783
22849339 104 17619925963024198172
23379529 103 18339649915041594678
23503958 8 18272373018608338025
23559900 14 18409160039537796637
314173 41 18334855026083385577
316301 35 18340199688130303906
3421961 26 18340766039249229304
3472631 163 7925912578178679979
5207 123 18411131429537125845
5365585 94 18335148535574790643
633830 44 10737284653648264192
6433294 58 18192716863020171499
6669772 16 17837502104644689252
7970288 3 18410854321989027342
88748 71 18335991912833166751
960060 61 17749387130750023861
9709674 26 18189893309144679473

>  <PUBCHEM_SHAPE_MULTIPOLES>  (1) 
398.72
11.31
4.66
1.1
10.21
0.95
-0.14
-13.15
1.16
-4.76
0.21
-0.36
-0.11
1.13

>  <PUBCHEM_SHAPE_SELFOVERLAP>  (1) 
801.683

>  <PUBCHEM_SHAPE_VOLUME>  (1) 
236.4

>  <PUBCHEM_COORDINATE_TYPE>  (1) 
2
5
10

$$$$
