28081
     RDKit          3D

 24 25  0  0  1  0  0  0  0  0999 V2000
   -2.9203   -5.3623    0.0021 Cl  0  0  0  0  0  0  0  0  0  0  0  0
    1.3286   -0.4106    1.0575 O   0  0  0  0  0  0  0  0  0  0  0  0
   -2.0770   -1.4245    0.0783 N   0  0  0  0  0  0  0  0  0  0  0  0
   -1.0317   -0.6736    0.7726 C   0  0  0  0  0  0  0  0  0  0  0  0
    2.2163    2.2296    0.4243 C   0  0  0  0  0  0  0  0  0  0  0  0
   -3.3985   -0.9081    0.4328 C   0  0  0  0  0  0  0  0  0  0  0  0
    3.0117    1.0065    0.1066 C   0  0  0  0  0  0  0  0  0  0  0  0
    0.3462   -1.1779    0.3742 C   0  0  0  0  0  0  0  0  0  0  0  0
   -1.9820   -2.8483    0.3985 C   0  0  0  0  0  0  0  0  0  0  0  0
    2.5394   -0.2603    0.4333 C   0  0  0  0  0  0  0  0  0  0  0  0
   -3.5522    0.5427    0.0607 C   0  0  0  0  0  0  0  0  0  0  0  0
    4.2460    1.1418   -0.5288 C   0  0  0  0  0  0  0  0  0  0  0  0
    2.9458    3.1662    1.4049 C   0  0  0  0  0  0  0  0  0  0  0  0
    1.8081    3.0092   -0.8392 C   0  0  0  0  0  0  0  0  0  0  0  0
    3.2876   -1.3936    0.1321 C   0  0  0  0  0  0  0  0  0  0  0  0
    4.5220   -1.2583   -0.5033 C   0  0  0  0  0  0  0  0  0  0  0  0
   -3.0163   -3.6303   -0.3964 C   0  0  0  0  0  0  0  0  0  0  0  0
    5.0012    0.0094   -0.8337 C   0  0  0  0  0  0  0  0  0  0  0  0
   -3.2037    1.5241    0.9783 C   0  0  0  0  0  0  0  0  0  0  0  0
   -4.0395    0.8785   -1.1947 C   0  0  0  0  0  0  0  0  0  0  0  0
    5.3300   -2.4686   -0.8293 C   0  0  0  0  0  0  0  0  0  0  0  0
   -3.3458    2.8682    0.6336 C   0  0  0  0  0  0  0  0  0  0  0  0
   -4.1815    2.2226   -1.5393 C   0  0  0  0  0  0  0  0  0  0  0  0
   -3.8345    3.2175   -0.6251 C   0  0  0  0  0  0  0  0  0  0  0  0
  1 17  1  0
  2  8  1  0
  2 10  1  0
  3  4  1  0
  3  6  1  0
  3  9  1  0
  4  8  1  0
  5  7  1  0
  5 13  1  0
  5 14  1  0
  6 11  1  0
  7 10  2  0
  7 12  1  0
  9 17  1  0
 10 15  1  0
 11 19  2  0
 11 20  1  0
 12 18  2  0
 15 16  2  0
 16 18  1  0
 16 21  1  0
 19 22  1  0
 20 23  2  0
 22 24  2  0
 23 24  1  0
M  END
>  <PUBCHEM_COMPOUND_CID>  (1) 
28081

>  <PUBCHEM_CONFORMER_RMSD>  (1) 
1

>  <PUBCHEM_CONFORMER_DIVERSEORDER>  (1) 
1
104
166
141
121
56
109
119
147
155
181
156
134
162
65
145
5
178
100
176
91
53
35
159
92
41
50
133
153
154
115
126
7
151
84
168
77
138
6
165
152
23
102
16
160
60
149
79
85
27
131
96
97
4
128
73
76
179
171
20
107
57
136
47
86
132
29
125
169
111
172
135
139
83
11
158
62
140
101
52
68
59
123
30
130
120
32
173
95
46
2
12
164
71
63
146
116
106
177
8
64
39
88
69
3
110
113
143
170
61
87
80
98
150
54
99
82
89
26
180
117
9
37
33
18
90
49
19
70
13
94
17
122
66
81
43
55
144
74
10
34
28
175
167
137
24
51
103
31
118
58
112
148
75
142
48
174
42
44
67
93
45
157
21
105
114
127
36
129
25
124
182
163
40
72
38
15
22
108
14
78
161

>  <PUBCHEM_MMFF94_PARTIAL_CHARGES>  (1) 
30
1 -0.29
10 0.08
11 -0.14
12 -0.15
15 -0.15
16 -0.14
17 0.29
18 -0.15
19 -0.15
2 -0.36
20 -0.15
21 0.14
22 -0.15
23 -0.15
24 -0.15
3 -0.81
34 0.15
4 0.27
41 0.15
44 0.15
45 0.15
46 0.15
5 0.14
50 0.15
51 0.15
52 0.15
6 0.41
7 -0.14
8 0.28
9 0.27

>  <PUBCHEM_EFFECTIVE_ROTOR_COUNT>  (1) 
9

>  <PUBCHEM_PHARMACOPHORE_FEATURES>  (1) 
5
1 2 acceptor
1 3 cation
3 5 13 14 hydrophobe
6 11 19 20 22 23 24 rings
6 7 10 12 15 16 18 rings

>  <PUBCHEM_HEAVY_ATOM_COUNT>  (1) 
24

>  <PUBCHEM_ATOM_DEF_STEREO_COUNT>  (1) 
0

>  <PUBCHEM_ATOM_UDEF_STEREO_COUNT>  (1) 
0

>  <PUBCHEM_BOND_DEF_STEREO_COUNT>  (1) 
0

>  <PUBCHEM_BOND_UDEF_STEREO_COUNT>  (1) 
0

>  <PUBCHEM_ISOTOPIC_ATOM_COUNT>  (1) 
0

>  <PUBCHEM_COMPONENT_COUNT>  (1) 
1

>  <PUBCHEM_CACTVS_TAUTO_COUNT>  (1) 
1

>  <PUBCHEM_CONFORMER_ID>  (1) 
00006DB100000001

>  <PUBCHEM_MMFF94_ENERGY>  (1) 
72.3373

>  <PUBCHEM_FEATURE_SELFOVERLAP>  (1) 
25.371

>  <PUBCHEM_SHAPE_FINGERPRINT>  (1) 
11014199 57 18191309483772761069
11045515 52 17903351860237009067
11763715 3 17901406793643968167
12596602 18 13190920657541240797
12788726 201 18188760777803869579
13690498 29 18196673975646918134
13944108 23 17252857261603427813
14251757 5 18337681802064869532
14347332 77 18339921623099332175
15183329 4 18265338300828669230
16994733 274 15937509483598243629
17492 89 18268713994652400278
19930381 70 17401203868691080953
20775438 99 17696147717092576549
21033648 144 18271525389759476136
21033648 29 18260823774557104049
221357 26 18411981364652036977
22393880 68 18340774835916965646
22440779 20 16811850075716695226
22749437 52 18337100246234643785
23559900 14 18273211993921368506
350125 39 18408893923527660529
469060 322 17761500587781889865
508706 21 18113612348931540237
57527585 103 17025443459316738443
633830 44 17240492411793172946
7164475 11 18193559101706013095
7399639 24 17767679825812646394
9709674 26 18341326794484898825

>  <PUBCHEM_SHAPE_MULTIPOLES>  (1) 
484.93
11.53
5.7
1.14
6.52
4.93
0.08
-0.31
3.21
-5.99
0.19
-0.22
-0.65
1.55

>  <PUBCHEM_SHAPE_SELFOVERLAP>  (1) 
990.666

>  <PUBCHEM_SHAPE_VOLUME>  (1) 
283.4

>  <PUBCHEM_COORDINATE_TYPE>  (1) 
2
5
10

$$$$
