28083
     RDKit          3D

 25 26  0  0  1  0  0  0  0  0999 V2000
    4.5458   -4.2598   -0.8092 Br  0  0  0  0  0  0  0  0  0  0  0  0
    1.9266    5.9022   -0.1351 Cl  0  0  0  0  0  0  0  0  0  0  0  0
   -1.5831    0.4297    1.0567 O   0  0  0  0  0  0  0  0  0  0  0  0
    1.6587    1.8893    0.0843 N   0  0  0  0  0  0  0  0  0  0  0  0
    0.7196    1.0210    0.7934 C   0  0  0  0  0  0  0  0  0  0  0  0
   -2.0704   -2.3335    0.5160 C   0  0  0  0  0  0  0  0  0  0  0  0
    3.0339    1.5831    0.4766 C   0  0  0  0  0  0  0  0  0  0  0  0
   -3.0263   -1.2502    0.1385 C   0  0  0  0  0  0  0  0  0  0  0  0
   -0.7088    1.3054    0.3570 C   0  0  0  0  0  0  0  0  0  0  0  0
    1.3533    3.2952    0.3470 C   0  0  0  0  0  0  0  0  0  0  0  0
   -2.7474    0.0827    0.4226 C   0  0  0  0  0  0  0  0  0  0  0  0
    3.4022    0.1572    0.1638 C   0  0  0  0  0  0  0  0  0  0  0  0
   -4.2160   -1.5853   -0.5080 C   0  0  0  0  0  0  0  0  0  0  0  0
   -1.5306   -3.0932   -0.7096 C   0  0  0  0  0  0  0  0  0  0  0  0
   -2.6775   -3.3276    1.5229 C   0  0  0  0  0  0  0  0  0  0  0  0
   -3.6451    1.0841    0.0672 C   0  0  0  0  0  0  0  0  0  0  0  0
   -4.8348    0.7490   -0.5792 C   0  0  0  0  0  0  0  0  0  0  0  0
    2.2789    4.1888   -0.4639 C   0  0  0  0  0  0  0  0  0  0  0  0
   -5.1203   -0.5857   -0.8669 C   0  0  0  0  0  0  0  0  0  0  0  0
    3.9565   -0.1487   -1.0711 C   0  0  0  0  0  0  0  0  0  0  0  0
    3.1826   -0.8301    1.1138 C   0  0  0  0  0  0  0  0  0  0  0  0
   -5.8025    1.8171   -0.9625 C   0  0  0  0  0  0  0  0  0  0  0  0
    4.2982   -1.4694   -1.3620 C   0  0  0  0  0  0  0  0  0  0  0  0
    3.5245   -2.1509    0.8228 C   0  0  0  0  0  0  0  0  0  0  0  0
    4.0822   -2.4704   -0.4152 C   0  0  0  0  0  0  0  0  0  0  0  0
  1 25  1  0
  2 18  1  0
  3  9  1  0
  3 11  1  0
  4  5  1  0
  4  7  1  0
  4 10  1  0
  5  9  1  0
  6  8  1  0
  6 14  1  0
  6 15  1  0
  7 12  1  0
  8 11  2  0
  8 13  1  0
 10 18  1  0
 11 16  1  0
 12 20  2  0
 12 21  1  0
 13 19  2  0
 16 17  2  0
 17 19  1  0
 17 22  1  0
 20 23  1  0
 21 24  2  0
 23 25  2  0
 24 25  1  0
M  END
>  <PUBCHEM_COMPOUND_CID>  (1) 
28083

>  <PUBCHEM_CONFORMER_RMSD>  (1) 
1

>  <PUBCHEM_CONFORMER_DIVERSEORDER>  (1) 
1
176
46
148
109
180
169
144
95
129
66
41
113
187
117
175
69
40
183
153
150
34
160
85
131
55
101
185
156
171
127
163
132
94
90
93
78
135
27
23
140
58
48
137
30
88
177
166
121
26
130
123
105
116
178
167
8
111
76
51
134
119
103
118
56
5
43
25
115
37
136
21
170
24
173
63
125
22
147
154
89
72
52
17
102
64
104
181
107
75
158
106
96
100
67
184
174
92
10
45
133
18
12
159
6
82
99
152
59
141
128
65
74
60
35
143
3
165
91
124
157
84
50
161
19
49
15
97
38
80
36
32
164
87
73
68
77
114
112
2
188
29
33
4
168
54
79
98
7
61
62
146
182
139
13
16
47
81
155
39
126
57
138
149
86
186
110
11
9
151
179
162
14
108
71
145
31
20
120
142
53
70
44
122
83
42
172
28

>  <PUBCHEM_MMFF94_PARTIAL_CHARGES>  (1) 
30
1 -0.11
10 0.27
11 0.08
12 -0.14
13 -0.15
16 -0.15
17 -0.14
18 0.29
19 -0.15
2 -0.29
20 -0.15
21 -0.15
22 0.14
23 -0.15
24 -0.15
25 0.11
3 -0.36
35 0.15
4 -0.81
42 0.15
45 0.15
46 0.15
47 0.15
5 0.27
51 0.15
52 0.15
6 0.14
7 0.41
8 -0.14
9 0.28

>  <PUBCHEM_EFFECTIVE_ROTOR_COUNT>  (1) 
9

>  <PUBCHEM_PHARMACOPHORE_FEATURES>  (1) 
6
1 1 hydrophobe
1 3 acceptor
1 4 cation
3 6 14 15 hydrophobe
6 12 20 21 23 24 25 rings
6 8 11 13 16 17 19 rings

>  <PUBCHEM_HEAVY_ATOM_COUNT>  (1) 
25

>  <PUBCHEM_ATOM_DEF_STEREO_COUNT>  (1) 
0

>  <PUBCHEM_ATOM_UDEF_STEREO_COUNT>  (1) 
0

>  <PUBCHEM_BOND_DEF_STEREO_COUNT>  (1) 
0

>  <PUBCHEM_BOND_UDEF_STEREO_COUNT>  (1) 
0

>  <PUBCHEM_ISOTOPIC_ATOM_COUNT>  (1) 
0

>  <PUBCHEM_COMPONENT_COUNT>  (1) 
1

>  <PUBCHEM_CACTVS_TAUTO_COUNT>  (1) 
1

>  <PUBCHEM_CONFORMER_ID>  (1) 
00006DB300000001

>  <PUBCHEM_MMFF94_ENERGY>  (1) 
73.2206

>  <PUBCHEM_FEATURE_SELFOVERLAP>  (1) 
30.446

>  <PUBCHEM_SHAPE_FINGERPRINT>  (1) 
10483366 6 17906164049997970117
12553582 1 18338529538409421354
12788726 201 17973445395478164946
13533116 47 18270961379497421073
14068700 686 17687748650662905505
14725015 67 17907851808672932978
14866123 147 17694789523262467889
15052358 14 18192424174337181309
15183329 4 18339357458044153933
17349148 13 17703795808015968647
21279426 13 18338230445614207295
21521239 73 18058427903873531527
22393880 68 18122071067872146060
22440779 20 16954832740992383633
23559900 14 18341325682040961641
3004659 81 18188772734902792882
314173 41 18410579487447675600
3729539 64 18118683210759730111
4280585 95 18410290277609580274
463206 1 18261679173138934794
5207 123 18270678653999405718
613672 6 18410572847571102810
6138700 20 18196650683886244999
6695519 79 17478905234249773633
7399639 24 17614286992865356073
960060 61 18260554394239174564
9709674 26 18338515364980576867

>  <PUBCHEM_SHAPE_MULTIPOLES>  (1) 
511.45
11.95
6.52
1.17
7.35
7.29
-0.04
-6.22
4
-7
0.51
-0.14
-0.59
1.48

>  <PUBCHEM_SHAPE_SELFOVERLAP>  (1) 
1032.248

>  <PUBCHEM_SHAPE_VOLUME>  (1) 
307.8

>  <PUBCHEM_COORDINATE_TYPE>  (1) 
2
5
10

$$$$
