28104
     RDKit          3D

 16 16  0  0  0  0  0  0  0  0999 V2000
   -4.8659   -0.3301    1.0572 Cl  0  0  0  0  0  0  0  0  0  0  0  0
    0.1120    3.1286   -0.0361 O   0  0  0  0  0  0  0  0  0  0  0  0
   -1.8299    2.1142   -0.1743 O   0  0  0  0  0  0  0  0  0  0  0  0
    4.1378   -1.5781    0.1416 O   0  0  0  0  0  0  0  0  0  0  0  0
    4.1877    0.6163    0.1779 O   0  0  0  0  0  0  0  0  0  0  0  0
   -2.0551   -0.3624   -0.2243 N   0  0  0  0  0  0  0  0  0  0  0  0
   -0.5793    2.0850   -0.0962 N   0  0  0  0  0  0  0  0  0  0  0  0
    3.5561   -0.4665    0.1225 N   0  0  0  0  0  0  0  0  0  0  0  0
   -0.6445   -0.3681   -0.1379 C   0  0  0  0  0  0  0  0  0  0  0  0
    0.0783    0.8233   -0.0753 C   0  0  0  0  0  0  0  0  0  0  0  0
   -2.8313   -1.5600   -0.2889 C   0  0  0  0  0  0  0  0  0  0  0  0
    0.0246   -1.5920   -0.1144 C   0  0  0  0  0  0  0  0  0  0  0  0
    1.4702    0.7909    0.0112 C   0  0  0  0  0  0  0  0  0  0  0  0
    2.1392   -0.4329    0.0350 C   0  0  0  0  0  0  0  0  0  0  0  0
    1.4165   -1.6245   -0.0281 C   0  0  0  0  0  0  0  0  0  0  0  0
   -4.3165   -1.2437   -0.3699 C   0  0  0  0  0  0  0  0  0  0  0  0
  1 16  1  0
  2  7  1  0
  3  7  2  0
  4  8  1  0
  5  8  2  0
  6  9  1  0
  6 11  1  0
  7 10  1  0
  8 14  1  0
  9 10  2  0
  9 12  1  0
 10 13  1  0
 11 16  1  0
 12 15  2  0
 13 14  2  0
 14 15  1  0
M  CHG  4   2  -1   4  -1   7   1   8   1
M  END
>  <PUBCHEM_COMPOUND_CID>  (1) 
28104

>  <PUBCHEM_CONFORMER_RMSD>  (1) 
0.6

>  <PUBCHEM_CONFORMER_DIVERSEORDER>  (1) 
1
5
4
6
3
7
2

>  <PUBCHEM_MMFF94_PARTIAL_CHARGES>  (1) 
20
1 -0.29
10 0.13
11 0.37
12 -0.15
13 -0.15
14 0.13
15 -0.15
16 0.29
17 0.4
2 -0.52
20 0.15
21 0.15
22 0.15
3 -0.52
4 -0.52
5 -0.52
6 -0.87
7 0.91
8 0.91
9 0.1

>  <PUBCHEM_EFFECTIVE_ROTOR_COUNT>  (1) 
5

>  <PUBCHEM_PHARMACOPHORE_FEATURES>  (1) 
9
1 2 acceptor
1 2 anion
1 3 acceptor
1 4 acceptor
1 4 anion
1 5 acceptor
1 6 cation
1 6 donor
6 9 10 12 13 14 15 rings

>  <PUBCHEM_HEAVY_ATOM_COUNT>  (1) 
16

>  <PUBCHEM_ATOM_DEF_STEREO_COUNT>  (1) 
0

>  <PUBCHEM_ATOM_UDEF_STEREO_COUNT>  (1) 
0

>  <PUBCHEM_BOND_DEF_STEREO_COUNT>  (1) 
0

>  <PUBCHEM_BOND_UDEF_STEREO_COUNT>  (1) 
0

>  <PUBCHEM_ISOTOPIC_ATOM_COUNT>  (1) 
0

>  <PUBCHEM_COMPONENT_COUNT>  (1) 
1

>  <PUBCHEM_CACTVS_TAUTO_COUNT>  (1) 
1

>  <PUBCHEM_CONFORMER_ID>  (1) 
00006DC800000001

>  <PUBCHEM_MMFF94_ENERGY>  (1) 
59.4576

>  <PUBCHEM_FEATURE_SELFOVERLAP>  (1) 
45.834

>  <PUBCHEM_SHAPE_FINGERPRINT>  (1) 
10130415 120 18334011739493699259
10967382 1 18266455584772399790
11471102 20 18337666529224455551
12032990 46 18410011048114989566
13140716 1 18121780787906179131
13862211 1 18410285926016938070
14252887 29 18272380775393562383
14790565 3 17760937633128143581
15042514 8 18193557753212895688
15196674 1 18410854343441959125
15375462 189 18187361034733880867
15442244 35 18269275828071872119
16945 1 18340190964761243974
18785283 64 17753899625070457061
193761 8 17978789004424645582
20510252 161 18342452613182644736
20671657 1 18051977223212983605
20871998 184 18201433627874616268
20871998 22 18270972258138132575
21029758 11 18411693326991496397
21029758 27 18333737943981713549
21267235 1 18410019822749122910
21296965 67 18411414033610154853
21501502 16 18192708943395733906
221490 88 17903355158529448627
23402539 116 18342729728319598727
23557571 272 18200886084417246078
23559900 14 18125991682135231458
23598291 2 17914608612768216047
25610 137 18408601465850036470
2748010 2 18339903979225616988
3071541 12 18050568748580646485
5104073 3 18268138774330070106
53655031 270 18411139130049685475
537710 114 18262523709780122052
68521 5 18409167684125981037
7364860 26 18052816137383686945
81228 2 18264787466487197649
84936 182 17554894639309533497
8809292 202 18114746039977531971

>  <PUBCHEM_SHAPE_MULTIPOLES>  (1) 
292.72
7.71
2.44
0.69
2.87
1.88
-0.08
-3.27
-1.48
-0.09
0.19
0.48
-0.06
-0.21

>  <PUBCHEM_SHAPE_SELFOVERLAP>  (1) 
598.326

>  <PUBCHEM_SHAPE_VOLUME>  (1) 
170.5

>  <PUBCHEM_COORDINATE_TYPE>  (1) 
2
5
10

$$$$
