28100
     RDKit          3D

 13 14  0  0  1  0  0  0  0  0999 V2000
   -0.8737    1.3827   -0.4572 O   0  0  0  0  0  0  0  0  0  0  0  0
   -1.9432   -0.6440    0.1554 O   0  0  0  0  0  0  0  0  0  0  0  0
    0.7382    2.8855    0.2490 O   0  0  0  0  0  0  0  0  0  0  0  0
   -0.9779   -0.0441   -0.6893 C   0  0  0  0  0  0  0  0  0  0  0  0
    0.3775   -0.5227   -0.3442 C   0  0  0  0  0  0  0  0  0  0  0  0
    1.1634    0.5443    0.0420 C   0  0  0  0  0  0  0  0  0  0  0  0
    0.3698    1.7606   -0.0239 C   0  0  0  0  0  0  0  0  0  0  0  0
    0.9014   -1.8029   -0.3723 C   0  0  0  0  0  0  0  0  0  0  0  0
    2.4859    0.4012    0.4191 C   0  0  0  0  0  0  0  0  0  0  0  0
   -3.2604   -0.2023   -0.1528 C   0  0  0  0  0  0  0  0  0  0  0  0
    2.2363   -1.9817    0.0036 C   0  0  0  0  0  0  0  0  0  0  0  0
    3.0234   -0.8861    0.3972 C   0  0  0  0  0  0  0  0  0  0  0  0
   -4.2406   -0.8903    0.7733 C   0  0  0  0  0  0  0  0  0  0  0  0
  1  4  1  0
  1  7  1  0
  2  4  1  0
  2 10  1  0
  3  7  2  0
  4  5  1  0
  5  6  2  0
  5  8  1  0
  6  7  1  0
  6  9  1  0
  8 11  2  0
  9 12  2  0
 10 13  1  0
 11 12  1  0
M  END
>  <PUBCHEM_COMPOUND_CID>  (1) 
28100

>  <PUBCHEM_CONFORMER_RMSD>  (1) 
0.6

>  <PUBCHEM_CONFORMER_DIVERSEORDER>  (1) 
1
4
3
2

>  <PUBCHEM_MMFF94_PARTIAL_CHARGES>  (1) 
16
1 -0.43
10 0.28
11 -0.15
12 -0.15
15 0.15
16 0.15
19 0.15
2 -0.56
20 0.15
3 -0.57
4 0.7
5 -0.14
6 0.09
7 0.63
8 -0.15
9 -0.15

>  <PUBCHEM_EFFECTIVE_ROTOR_COUNT>  (1) 
2.4

>  <PUBCHEM_PHARMACOPHORE_FEATURES>  (1) 
4
1 2 acceptor
1 3 acceptor
5 1 4 5 6 7 rings
6 5 6 8 9 11 12 rings

>  <PUBCHEM_HEAVY_ATOM_COUNT>  (1) 
13

>  <PUBCHEM_ATOM_DEF_STEREO_COUNT>  (1) 
0

>  <PUBCHEM_ATOM_UDEF_STEREO_COUNT>  (1) 
1

>  <PUBCHEM_BOND_DEF_STEREO_COUNT>  (1) 
0

>  <PUBCHEM_BOND_UDEF_STEREO_COUNT>  (1) 
0

>  <PUBCHEM_ISOTOPIC_ATOM_COUNT>  (1) 
0

>  <PUBCHEM_COMPONENT_COUNT>  (1) 
1

>  <PUBCHEM_CACTVS_TAUTO_COUNT>  (1) 
1

>  <PUBCHEM_CONFORMER_ID>  (1) 
00006DC400000001

>  <PUBCHEM_MMFF94_ENERGY>  (1) 
27.9044

>  <PUBCHEM_FEATURE_SELFOVERLAP>  (1) 
20.388

>  <PUBCHEM_SHAPE_FINGERPRINT>  (1) 
10219947 1 18341891904806707599
108231 29 18335139778115011378
11471102 22 18336836384933949859
12032990 46 18338800018016945086
12251169 10 18342459283277651443
13380536 305 18195536006675738180
14251717 144 18339635737359649999
14252887 29 18271813397318270426
15501101 241 18261394489821199109
161256 15 18271807861490093142
16945 1 18339912818204592948
193761 8 17618497023104498246
20201158 50 18333730204355973379
20559304 39 18341622550465076657
20645477 70 18263353845739331351
20871998 184 17985255279720704070
20871998 22 18270126699152076494
2748010 2 18196920102868020388
54173680 148 17690561888385109546
7364860 26 18340208621208273981
81228 2 17906175053239568729

>  <PUBCHEM_SHAPE_MULTIPOLES>  (1) 
249.93
5.2
2.25
0.75
5.51
1.16
-0.01
-2.57
-1.45
-1.08
-0.05
0.16
-0.07
0.32

>  <PUBCHEM_SHAPE_SELFOVERLAP>  (1) 
536.172

>  <PUBCHEM_SHAPE_VOLUME>  (1) 
140.5

>  <PUBCHEM_COORDINATE_TYPE>  (1) 
2
5
10

$$$$
