28103
     RDKit          3D

 16 16  0  0  0  0  0  0  0  0999 V2000
   -0.7314   -1.9180    0.7832 O   0  0  0  0  0  0  0  0  0  0  0  0
    0.0896    0.1816    0.2559 N   0  0  0  0  0  0  0  0  0  0  0  0
   -4.8526    0.5680   -0.4497 N   0  0  0  0  0  0  0  0  0  0  0  0
    1.3629   -0.1781    0.5347 N   0  0  0  0  0  0  0  0  0  0  0  0
    3.5561    0.3192    0.6851 N   0  0  0  0  0  0  0  0  0  0  0  0
    2.0986    2.0438   -0.0252 N   0  0  0  0  0  0  0  0  0  0  0  0
    5.5610   -0.6811   -0.1891 N   0  0  0  0  0  0  0  0  0  0  0  0
    3.7597   -0.3251   -1.5470 N   0  0  0  0  0  0  0  0  0  0  0  0
   -2.2881   -0.2965    0.1076 C   0  0  0  0  0  0  0  0  0  0  0  0
   -0.9093   -0.7615    0.4087 C   0  0  0  0  0  0  0  0  0  0  0  0
   -3.2234   -1.2128   -0.3106 C   0  0  0  0  0  0  0  0  0  0  0  0
   -2.5887    1.0366    0.2571 C   0  0  0  0  0  0  0  0  0  0  0  0
   -4.4943   -0.7294   -0.5771 C   0  0  0  0  0  0  0  0  0  0  0  0
   -3.8880    1.4193   -0.0348 C   0  0  0  0  0  0  0  0  0  0  0  0
    2.2760    0.7376    0.3786 C   0  0  0  0  0  0  0  0  0  0  0  0
    4.2720   -0.2037   -0.2775 C   0  0  0  0  0  0  0  0  0  0  0  0
  1 10  2  0
  2  4  1  0
  2 10  1  0
  3 13  2  0
  3 14  1  0
  4 15  2  0
  5 15  1  0
  5 16  2  0
  6 15  1  0
  7 16  1  0
  8 16  1  0
  9 10  1  0
  9 11  2  0
  9 12  1  0
 11 13  1  0
 12 14  2  0
M  END
>  <PUBCHEM_COMPOUND_CID>  (1) 
28103

>  <PUBCHEM_CONFORMER_RMSD>  (1) 
0.6

>  <PUBCHEM_CONFORMER_DIVERSEORDER>  (1) 
1
4
5
2
3
6

>  <PUBCHEM_MMFF94_PARTIAL_CHARGES>  (1) 
27
1 -0.57
10 0.54
11 -0.15
12 -0.15
13 0.16
14 0.16
15 0.71
16 0.55
17 0.15
18 0.15
19 0.15
2 -0.37
20 0.15
21 0.37
22 0.4
23 0.4
24 0.4
25 0.4
26 0.4
27 0.4
3 -0.62
4 -0.51
5 -0.66
6 -0.85
7 -0.85
8 -0.85
9 0.09

>  <PUBCHEM_EFFECTIVE_ROTOR_COUNT>  (1) 
4

>  <PUBCHEM_PHARMACOPHORE_FEATURES>  (1) 
9
1 1 acceptor
1 2 donor
1 3 acceptor
1 6 donor
1 7 donor
1 8 donor
4 4 5 6 15 cation
4 5 7 8 16 cation
6 3 9 11 12 13 14 rings

>  <PUBCHEM_HEAVY_ATOM_COUNT>  (1) 
16

>  <PUBCHEM_ATOM_DEF_STEREO_COUNT>  (1) 
0

>  <PUBCHEM_ATOM_UDEF_STEREO_COUNT>  (1) 
0

>  <PUBCHEM_BOND_DEF_STEREO_COUNT>  (1) 
0

>  <PUBCHEM_BOND_UDEF_STEREO_COUNT>  (1) 
1

>  <PUBCHEM_ISOTOPIC_ATOM_COUNT>  (1) 
0

>  <PUBCHEM_COMPONENT_COUNT>  (1) 
1

>  <PUBCHEM_CACTVS_TAUTO_COUNT>  (1) 
13

>  <PUBCHEM_CONFORMER_ID>  (1) 
00006DC700000001

>  <PUBCHEM_MMFF94_ENERGY>  (1) 
55.1142

>  <PUBCHEM_FEATURE_SELFOVERLAP>  (1) 
45.782

>  <PUBCHEM_SHAPE_FINGERPRINT>  (1) 
12815109 37 11095881562322436241
12916748 109 18335421291830648313
12916754 54 18200032979410995243
13237642 15 7997965773721560932
14123238 8 10807933773296044926
14445660 50 8142095281392493719
14911166 2 18335422370020257810
15048467 5 11963385233058342119
17834072 8 18341891874667986237
17870717 6 18201732738045183543
18186145 218 18335128817553540073
1986462 14 18413109463497440341
200 152 16487256560277894723
20279233 1 18059863874264244966
20300324 65 18201716280326532329
204376 136 15647053763671332371
20645477 70 17561089090388590518
21267235 1 18410296934750795131
21637258 2 15338542964971741791
22854114 59 11169911684410073038
23402539 116 18343577434683625613
23559900 14 18201150053091810856
26918003 58 14405183984337990031
3004659 81 18188212001653643226
32948 21 18408605838300778132
351380 180 18343016705112160765
4214541 1 18342737412221539977
449060 50 12685090375931429067
4990 188 18272653437144419238
58051976 100 18411696616799587575
633830 44 18337664304283501741
9709674 26 18195526119407665771
9971528 1 18411695504893726624

>  <PUBCHEM_SHAPE_MULTIPOLES>  (1) 
288.54
11.14
1.49
0.85
5.87
0.22
-0.15
-0.26
-2.63
-0.67
0.1
0.42
-0.13
0.17

>  <PUBCHEM_SHAPE_SELFOVERLAP>  (1) 
600.126

>  <PUBCHEM_SHAPE_VOLUME>  (1) 
159.5

>  <PUBCHEM_COORDINATE_TYPE>  (1) 
2
5
10

$$$$
