2811
     RDKit          3D

 21 23  0  0  0  0  0  0  0  0999 V2000
   -1.4146   -1.2572   -2.2741 Cl  0  0  0  0  0  0  0  0  0  0  0  0
    2.7364    1.4899   -0.2549 S   0  0  0  0  0  0  0  0  0  0  0  0
    2.2897   -3.4901   -0.1562 O   0  0  0  0  0  0  0  0  0  0  0  0
    2.4698   -1.1710   -0.3262 N   0  0  0  0  0  0  0  0  0  0  0  0
   -0.2288   -1.8961    1.0572 N   0  0  0  0  0  0  0  0  0  0  0  0
    0.5560    0.3076    0.4438 C   0  0  0  0  0  0  0  0  0  0  0  0
    1.8427    0.0487   -0.0124 C   0  0  0  0  0  0  0  0  0  0  0  0
   -0.4806   -0.7108    0.6187 C   0  0  0  0  0  0  0  0  0  0  0  0
    1.4753    2.4631    0.3434 C   0  0  0  0  0  0  0  0  0  0  0  0
    0.3709    1.7156    0.6745 C   0  0  0  0  0  0  0  0  0  0  0  0
    1.6563    3.9279    0.4298 C   0  0  0  0  0  0  0  0  0  0  0  0
    1.1220   -2.2216    1.4711 C   0  0  0  0  0  0  0  0  0  0  0  0
    1.9884   -2.3608    0.2403 C   0  0  0  0  0  0  0  0  0  0  0  0
   -1.8824   -0.3718    0.2638 C   0  0  0  0  0  0  0  0  0  0  0  0
    3.6020   -1.2642   -1.2514 C   0  0  0  0  0  0  0  0  0  0  0  0
    1.2394    4.6517   -0.8548 C   0  0  0  0  0  0  0  0  0  0  0  0
   -2.3894   -0.5847   -1.0169 C   0  0  0  0  0  0  0  0  0  0  0  0
   -2.6951    0.1735    1.2565 C   0  0  0  0  0  0  0  0  0  0  0  0
   -3.7127   -0.2512   -1.3060 C   0  0  0  0  0  0  0  0  0  0  0  0
   -4.0183    0.5070    0.9673 C   0  0  0  0  0  0  0  0  0  0  0  0
   -4.5271    0.2946   -0.3138 C   0  0  0  0  0  0  0  0  0  0  0  0
  1 17  1  0
  2  7  1  0
  2  9  1  0
  3 13  2  0
  4  7  1  0
  4 13  1  0
  4 15  1  0
  5  8  2  0
  5 12  1  0
  6  7  2  0
  6  8  1  0
  6 10  1  0
  8 14  1  0
  9 10  2  0
  9 11  1  0
 11 16  1  0
 12 13  1  0
 14 17  2  0
 14 18  1  0
 17 19  1  0
 18 20  2  0
 19 21  2  0
 20 21  1  0
M  END
>  <PUBCHEM_COMPOUND_CID>  (1) 
2811

>  <PUBCHEM_CONFORMER_RMSD>  (1) 
0.6

>  <PUBCHEM_CONFORMER_DIVERSEORDER>  (1) 
1
2
3
6
7
4
5
8

>  <PUBCHEM_MMFF94_PARTIAL_CHARGES>  (1) 
25
1 -0.18
10 -0.15
11 0.18
12 0.31
13 0.57
14 0.09
15 0.3
17 0.18
18 -0.15
19 -0.15
2 -0.08
20 -0.15
21 -0.15
22 0.15
3 -0.57
33 0.15
34 0.15
35 0.15
36 0.15
4 -0.42
5 -0.7
6 -0.09
7 0.1
8 0.45
9 -0.14

>  <PUBCHEM_EFFECTIVE_ROTOR_COUNT>  (1) 
2.4

>  <PUBCHEM_PHARMACOPHORE_FEATURES>  (1) 
6
1 16 hydrophobe
1 3 acceptor
1 5 acceptor
5 2 6 7 9 10 rings
6 14 17 18 19 20 21 rings
7 4 5 6 7 8 12 13 rings

>  <PUBCHEM_HEAVY_ATOM_COUNT>  (1) 
21

>  <PUBCHEM_ATOM_DEF_STEREO_COUNT>  (1) 
0

>  <PUBCHEM_ATOM_UDEF_STEREO_COUNT>  (1) 
0

>  <PUBCHEM_BOND_DEF_STEREO_COUNT>  (1) 
0

>  <PUBCHEM_BOND_UDEF_STEREO_COUNT>  (1) 
0

>  <PUBCHEM_ISOTOPIC_ATOM_COUNT>  (1) 
0

>  <PUBCHEM_COMPONENT_COUNT>  (1) 
1

>  <PUBCHEM_CACTVS_TAUTO_COUNT>  (1) 
1

>  <PUBCHEM_CONFORMER_ID>  (1) 
00000AFB00000001

>  <PUBCHEM_MMFF94_ENERGY>  (1) 
67.5954

>  <PUBCHEM_FEATURE_SELFOVERLAP>  (1) 
30.48

>  <PUBCHEM_SHAPE_FINGERPRINT>  (1) 
10165383 225 17752231584131375221
104564 63 17906456523847244704
10906281 52 18267881626138320176
11578080 2 17556549094649432024
12173636 292 17617666895894063581
12553582 1 18268713813983822226
12730499 353 18263084486727913859
12788726 201 17614561441085711850
13009979 54 17560525001899895275
13134695 92 18337388232138357143
13140716 1 18191585469802379768
13149001 5 18191892186666008886
13583140 156 18335425656250780279
13911987 19 18117023081677818214
14250199 8 18412544349097078417
15210252 30 17895484613568592212
15490181 8 17979911941120168960
15906896 17 17112684896158455825
16945 1 18410577283691778434
1813 80 17984989197754340526
18186145 218 18335423473732043723
18785283 64 18190192354210365969
19765921 60 17981875647465437521
20645476 183 18059849610651624639
21041028 32 18047473318252525562
21524375 3 17758661626851670480
21639500 275 18335974346332322307
22112679 90 17981894046757089642
2255824 54 18340484559882196464
22907989 373 16679782476589418516
23558518 356 17832699445910942306
23598288 3 17472978398477534498
23598291 2 18131636672914699021
238 59 18120917645666683855
25 1 18335706086811660880
2748010 2 17974582586690569762
3091708 16 9143099446227954512
34934 24 18270119002839311050
350125 39 17903089067766097394
352729 6 17620472849842233888
474 4 18267014145079736889
57527573 199 16816518404166320820
5845 1 16171455182783058138
6287921 2 17972889334620897821
7164475 11 17833274121315148142
81228 2 17254815500132360050
84936 182 18057600069642882865
9981440 41 17408226419234933272

>  <PUBCHEM_SHAPE_MULTIPOLES>  (1) 
422.06
6.24
4.32
1.48
5.96
3.22
0.49
0.94
1.23
-5.77
0.16
0.77
-0.51
-0.31

>  <PUBCHEM_SHAPE_SELFOVERLAP>  (1) 
892.547

>  <PUBCHEM_SHAPE_VOLUME>  (1) 
239.5

>  <PUBCHEM_COORDINATE_TYPE>  (1) 
2
5
10

$$$$
