28111
     RDKit          3D

  9  8  0  0  0  0  0  0  0  0999 V2000
   -1.6953    0.4349   -0.0214 N   0  0  0  0  0  0  0  0  0  0  0  0
    3.0654    1.1966   -0.1193 N   0  0  0  0  0  0  0  0  0  0  0  0
    0.5347   -2.4747    0.2978 N   0  0  0  0  0  0  0  0  0  0  0  0
   -2.7315    1.3108    0.5090 C   0  0  0  0  0  0  0  0  0  0  0  0
   -2.1556   -0.7600   -0.7163 C   0  0  0  0  0  0  0  0  0  0  0  0
   -0.3882    0.8270   -0.0688 C   0  0  0  0  0  0  0  0  0  0  0  0
    0.7313    0.0889    0.0109 C   0  0  0  0  0  0  0  0  0  0  0  0
    2.0176    0.7009   -0.0611 C   0  0  0  0  0  0  0  0  0  0  0  0
    0.6216   -1.3245    0.1691 C   0  0  0  0  0  0  0  0  0  0  0  0
  1  4  1  0
  1  5  1  0
  1  6  1  0
  2  8  3  0
  3  9  3  0
  6  7  2  3
  7  8  1  0
  7  9  1  0
M  END
>  <PUBCHEM_COMPOUND_CID>  (1) 
28111

>  <PUBCHEM_CONFORMER_RMSD>  (1) 
0.4

>  <PUBCHEM_CONFORMER_DIVERSEORDER>  (1) 
1
2

>  <PUBCHEM_MMFF94_PARTIAL_CHARGES>  (1) 
10
1 -0.84
16 0.15
2 -0.56
3 -0.56
4 0.37
5 0.37
6 -0.05
7 0.13
8 0.49
9 0.49

>  <PUBCHEM_EFFECTIVE_ROTOR_COUNT>  (1) 
1

>  <PUBCHEM_PHARMACOPHORE_FEATURES>  (1) 
3
1 1 cation
1 2 acceptor
1 3 acceptor

>  <PUBCHEM_HEAVY_ATOM_COUNT>  (1) 
9

>  <PUBCHEM_ATOM_DEF_STEREO_COUNT>  (1) 
0

>  <PUBCHEM_ATOM_UDEF_STEREO_COUNT>  (1) 
0

>  <PUBCHEM_BOND_DEF_STEREO_COUNT>  (1) 
0

>  <PUBCHEM_BOND_UDEF_STEREO_COUNT>  (1) 
0

>  <PUBCHEM_ISOTOPIC_ATOM_COUNT>  (1) 
0

>  <PUBCHEM_COMPONENT_COUNT>  (1) 
1

>  <PUBCHEM_CACTVS_TAUTO_COUNT>  (1) 
1

>  <PUBCHEM_CONFORMER_ID>  (1) 
00006DCF00000001

>  <PUBCHEM_MMFF94_ENERGY>  (1) 
18.4308

>  <PUBCHEM_FEATURE_SELFOVERLAP>  (1) 
15.223

>  <PUBCHEM_SHAPE_FINGERPRINT>  (1) 
14325111 11 18411138060734723484
14390081 3 18273494572098285273
18185500 45 18269545057790873295
21040471 1 18337391651222442344
23552423 10 18266735792665394287
23552449 1 17690843788584330730
29004967 10 17822866272852779897

>  <PUBCHEM_SHAPE_MULTIPOLES>  (1) 
170.27
3.82
1.93
0.69
0.07
1.21
-0.03
-2.05
-0.07
-0.34
0.24
0.2
0.04
-0.48

>  <PUBCHEM_SHAPE_SELFOVERLAP>  (1) 
325.39

>  <PUBCHEM_SHAPE_VOLUME>  (1) 
101.6

>  <PUBCHEM_COORDINATE_TYPE>  (1) 
2
5
10

$$$$
