28110
     RDKit          3D

 16 16  0  0  0  0  0  0  0  0999 V2000
   -3.4857   -0.5232    0.0003 N   0  0  0  0  0  0  0  0  0  0  0  0
    3.4748   -0.4989    0.0004 N   0  0  0  0  0  0  0  0  0  0  0  0
   -2.8872    0.8760   -0.0007 C   0  0  0  0  0  0  0  0  0  0  0  0
    2.8851    0.8685   -0.0006 C   0  0  0  0  0  0  0  0  0  0  0  0
   -1.3869    0.8736   -0.0006 C   0  0  0  0  0  0  0  0  0  0  0  0
    1.3938    0.8699   -0.0006 C   0  0  0  0  0  0  0  0  0  0  0  0
   -3.0257   -1.2709    1.2436 C   0  0  0  0  0  0  0  0  0  0  0  0
   -5.0045   -0.4250    0.0003 C   0  0  0  0  0  0  0  0  0  0  0  0
   -3.0258   -1.2729   -1.2416 C   0  0  0  0  0  0  0  0  0  0  0  0
    3.0301   -1.2798   -1.2417 C   0  0  0  0  0  0  0  0  0  0  0  0
    5.0063   -0.4263    0.0003 C   0  0  0  0  0  0  0  0  0  0  0  0
    3.0302   -1.2782    1.2435 C   0  0  0  0  0  0  0  0  0  0  0  0
   -0.6985    0.8716   -1.2086 C   0  0  0  0  0  0  0  0  0  0  0  0
    0.6964    0.8698   -1.2086 C   0  0  0  0  0  0  0  0  0  0  0  0
   -0.6985    0.8738    1.2073 C   0  0  0  0  0  0  0  0  0  0  0  0
    0.6964    0.8721    1.2074 C   0  0  0  0  0  0  0  0  0  0  0  0
  1  3  1  0
  1  7  1  0
  1  8  1  0
  1  9  1  0
  2  4  1  0
  2 10  1  0
  2 11  1  0
  2 12  1  0
  3  5  1  0
  4  6  1  0
  5 13  2  0
  5 15  1  0
  6 14  2  0
  6 16  1  0
 13 14  1  0
 15 16  2  0
M  CHG  2   1   1   2   1
M  END
>  <PUBCHEM_COMPOUND_CID>  (1) 
28110

>  <PUBCHEM_CONFORMER_RMSD>  (1) 
0.6

>  <PUBCHEM_CONFORMER_DIVERSEORDER>  (1) 
1
2

>  <PUBCHEM_MMFF94_PARTIAL_CHARGES>  (1) 
20
1 -1.01
10 0.5
11 0.5
12 0.5
13 -0.15
14 -0.15
15 -0.15
16 -0.15
2 -1.01
3 0.65
39 0.15
4 0.65
40 0.15
41 0.15
42 0.15
5 -0.14
6 -0.14
7 0.5
8 0.5
9 0.5

>  <PUBCHEM_EFFECTIVE_ROTOR_COUNT>  (1) 
4

>  <PUBCHEM_PHARMACOPHORE_FEATURES>  (1) 
3
1 1 cation
1 2 cation
6 5 6 13 14 15 16 rings

>  <PUBCHEM_HEAVY_ATOM_COUNT>  (1) 
16

>  <PUBCHEM_ATOM_DEF_STEREO_COUNT>  (1) 
0

>  <PUBCHEM_ATOM_UDEF_STEREO_COUNT>  (1) 
0

>  <PUBCHEM_BOND_DEF_STEREO_COUNT>  (1) 
0

>  <PUBCHEM_BOND_UDEF_STEREO_COUNT>  (1) 
0

>  <PUBCHEM_ISOTOPIC_ATOM_COUNT>  (1) 
0

>  <PUBCHEM_COMPONENT_COUNT>  (1) 
1

>  <PUBCHEM_CACTVS_TAUTO_COUNT>  (1) 
1

>  <PUBCHEM_CONFORMER_ID>  (1) 
00006DCE00000001

>  <PUBCHEM_MMFF94_ENERGY>  (1) 
62.4893

>  <PUBCHEM_FEATURE_SELFOVERLAP>  (1) 
15.223

>  <PUBCHEM_SHAPE_FINGERPRINT>  (1) 
10366900 7 15697999634628042398
10465860 250 17917991668107239713
10498660 4 12108049090485254311
106641 1 15769483330825054758
11132069 177 14548741724656564997
11769659 78 18410568487593416193
11796584 16 18412544314922105847
12173636 292 11386363751399627601
12251169 10 15841548595711412189
124424 183 17918272048162701737
12491281 212 7853579036385862143
12596602 18 15697993067644451114
12633257 1 17060066994644922299
12644460 14 17346032406702575632
12670546 177 15575005004128131963
13288520 33 18335422348239537628
13533116 47 15841279142828426007
13675066 3 17060616664269300732
13705890 14 17894633690289039464
14123260 362 8646488565486146719
14252887 29 17988928847275298902
14289901 80 17989488528257571640
14350558 41 18412833490242064604
14911166 2 15647055975226308076
14943859 89 8574711299526204141
15209294 21 12967134895270085345
15239191 94 18411414016335547914
15309172 13 14979954752846655508
15375462 189 18131064948258832246
15422964 175 17845656941425564372
17834072 8 18113610176146911261
18186145 218 13912613723166478484
192875 21 15140684661762642574
193927 3 18338531788582192642
19862831 5 15719111361671937005
19868273 293 13912610480323862392
200 152 18259984860169615936
20112054 13 14117803517947850753
20281407 28 17989489632006144177
20432913 95 17917716794194530422
20645476 183 12901553463575392064
20645477 70 18412261769923181415
20671657 53 17894631465353770029
20871999 31 17240474789378561013
21503847 285 13183018536476318746
21524375 3 9295288343659460813
22485316 2 18410851066382055137
22854114 59 13254801239426773973
231179 274 8718833076350663952
23382010 3 14418424346209205568
23402539 116 16805599231895024588
23402655 69 15864062152804530116
23557571 272 18187925037043954100
23559900 14 18188486994564699504
25 1 11097850796190550228
26918003 58 18202844344253300897
2748010 2 15432033376775306785
2871803 45 17822007588778944378
351380 180 12175625070537649755
4028521 119 8718834167188357431
4047638 21 9655582923814195148
4325135 7 18409730690710432284
465052 167 17846220011654056735
4990 188 16226046695490435937
568465 68 15482394269460462791
83771 10 18343581854094203337
9882013 296 15769776853174344802

>  <PUBCHEM_SHAPE_MULTIPOLES>  (1) 
319.31
8.83
1.47
1.38
0
0.24
0
3.86
0
0
0
0
0.19
0

>  <PUBCHEM_SHAPE_SELFOVERLAP>  (1) 
632.69

>  <PUBCHEM_SHAPE_VOLUME>  (1) 
193.9

>  <PUBCHEM_COORDINATE_TYPE>  (1) 
2
5
10

$$$$
