28128
     RDKit          3D

 17 16  0  0  1  0  0  0  0  0999 V2000
   -4.1740   -1.6489   -1.1977 O   0  0  0  0  0  0  0  0  0  0  0  0
    8.2318    0.0029   -0.6123 O   0  0  0  0  0  0  0  0  0  0  0  0
    7.0949    1.7297    0.3379 O   0  0  0  0  0  0  0  0  0  0  0  0
   -1.6706   -1.1401    0.1524 C   0  0  0  0  0  0  0  0  0  0  0  0
   -2.9869   -0.4404    0.5157 C   0  0  0  0  0  0  0  0  0  0  0  0
   -0.4671   -0.2420    0.4497 C   0  0  0  0  0  0  0  0  0  0  0  0
   -4.2061   -1.3098    0.1866 C   0  0  0  0  0  0  0  0  0  0  0  0
    0.8781   -0.9069    0.1402 C   0  0  0  0  0  0  0  0  0  0  0  0
   -5.5410   -0.6298    0.5252 C   0  0  0  0  0  0  0  0  0  0  0  0
    2.0764    0.0183    0.3688 C   0  0  0  0  0  0  0  0  0  0  0  0
    3.4168   -0.6280    0.0020 C   0  0  0  0  0  0  0  0  0  0  0  0
   -5.7732    0.7014   -0.1988 C   0  0  0  0  0  0  0  0  0  0  0  0
    4.6091    0.3222    0.1581 C   0  0  0  0  0  0  0  0  0  0  0  0
   -7.1521    1.2757    0.1312 C   0  0  0  0  0  0  0  0  0  0  0  0
    5.9261   -0.3196   -0.2808 C   0  0  0  0  0  0  0  0  0  0  0  0
   -7.3753    2.6156   -0.5520 C   0  0  0  0  0  0  0  0  0  0  0  0
    7.1132    0.5997   -0.1262 C   0  0  0  0  0  0  0  0  0  0  0  0
  1  7  1  0
  2 17  1  0
  3 17  2  0
  4  5  1  0
  4  6  1  0
  5  7  1  0
  6  8  1  0
  7  9  1  0
  8 10  1  0
  9 12  1  0
 10 11  1  0
 11 13  1  0
 12 14  1  0
 13 15  1  0
 14 16  1  0
 15 17  1  0
M  END
>  <PUBCHEM_COMPOUND_CID>  (1) 
28128

>  <PUBCHEM_CONFORMER_RMSD>  (1) 
1.2

>  <PUBCHEM_CONFORMER_DIVERSEORDER>  (1) 
1
63
57
62
2
70
22
37
72
38
33
47
55
81
15
90
84
4
68
21
24
16
79
66
39
6
29
58
41
19
49
51
54
46
83
64
31
32
14
11
9
75
7
45
53
17
78
74
56
36
87
23
52
88
12
85
42
25
27
82
71
60
10
44
91
26
73
59
18
76
28
34
5
35
40
69
20
80
13
48
50
65
43
8
89
3
67
61
86
30
77

>  <PUBCHEM_MMFF94_PARTIAL_CHARGES>  (1) 
8
1 -0.68
15 0.06
17 0.66
2 -0.65
3 -0.57
39 0.4
45 0.5
7 0.28

>  <PUBCHEM_EFFECTIVE_ROTOR_COUNT>  (1) 
12

>  <PUBCHEM_PHARMACOPHORE_FEATURES>  (1) 
6
1 1 acceptor
1 1 donor
1 16 hydrophobe
1 2 acceptor
1 3 acceptor
3 2 3 17 anion

>  <PUBCHEM_HEAVY_ATOM_COUNT>  (1) 
17

>  <PUBCHEM_ATOM_DEF_STEREO_COUNT>  (1) 
0

>  <PUBCHEM_ATOM_UDEF_STEREO_COUNT>  (1) 
1

>  <PUBCHEM_BOND_DEF_STEREO_COUNT>  (1) 
0

>  <PUBCHEM_BOND_UDEF_STEREO_COUNT>  (1) 
0

>  <PUBCHEM_ISOTOPIC_ATOM_COUNT>  (1) 
0

>  <PUBCHEM_COMPONENT_COUNT>  (1) 
1

>  <PUBCHEM_CACTVS_TAUTO_COUNT>  (1) 
1

>  <PUBCHEM_CONFORMER_ID>  (1) 
00006DE000000001

>  <PUBCHEM_MMFF94_ENERGY>  (1) 
5.6306

>  <PUBCHEM_FEATURE_SELFOVERLAP>  (1) 
30.503

>  <PUBCHEM_SHAPE_FINGERPRINT>  (1) 
10066227 112 18343017792066168193
10730089 173 18410575068127125825
11315181 36 17418097645972057787
12091667 2 18409168839941915899
125118 31 18260832635522905204
13073987 5 13190606218341730387
13533116 47 17603855690721208746
13668630 136 10447932767315226880
13964095 4 18272370867061746371
14251757 52 18408317809441688824
14251764 18 17748542654037795051
14251764 46 16081368570615326507
14428016 248 17240774995108725940
14729087 3 18408039602723924481
15048467 5 18334857208216746803
155225 1 18334575695556644941
15690457 1 11024104335254933492
15778101 99 18335139795991082707
17093844 174 18410293640352799355
17834076 25 13045938028068848234
20281389 69 17967811622235434892
20621476 66 18260269654823749955
20621476 8 18410858746342710670
21095123 145 16660659478633307915
21095123 293 17385731274540006676
21130983 4 17385726911269412150
21150785 3 15123508099202358521
21304253 13 18187085074184247581
21315759 40 11240001165598409114
220451 1 16732697277124900514
22288116 15 17774707746025506535
23559900 14 17060051596633460443
246663 6 11239996763531263269
28498 318 18201442450766376006
300161 21 18413388735019297803
33532 11 10447939356259665828
4463277 17 18410856581552437128
5104073 3 13263221239522244381
5758199 1 17240483606598364258
59567204 34 18336264557700566957
59682541 35 11169919402977968236
5969126 39 14333131845351666611
8209 1 18131073749084626210

>  <PUBCHEM_SHAPE_MULTIPOLES>  (1) 
332.24
26.57
1.74
0.77
19.64
0.88
-0.07
15.36
-2.99
-3.48
-0.23
-0.33
-0.09
0.53

>  <PUBCHEM_SHAPE_SELFOVERLAP>  (1) 
608.72

>  <PUBCHEM_SHAPE_VOLUME>  (1) 
210.6

>  <PUBCHEM_COORDINATE_TYPE>  (1) 
2
5
10

$$$$
