28121
     RDKit          3D

 33 37  0  0  1  0  0  0  0  0999 V2000
   -4.1783   -1.7736    1.5695 S   0  0  0  0  0  0  0  0  0  0  0  0
   -2.0541   -1.2259   -1.7458 O   0  0  0  0  0  0  0  0  0  0  0  0
    2.8843    2.5229   -0.3092 O   0  0  0  0  0  0  0  0  0  0  0  0
   -6.4110    2.6258    0.3400 O   0  0  0  0  0  0  0  0  0  0  0  0
    5.5764    1.6796    0.0592 N   0  0  0  0  0  0  0  0  0  0  0  0
   -1.8030   -0.6884   -0.4359 C   0  0  0  0  0  0  0  0  0  0  0  0
   -1.6314   -1.8887    0.5703 C   0  0  0  0  0  0  0  0  0  0  0  0
   -3.0645    0.1576   -0.1826 C   0  0  0  0  0  0  0  0  0  0  0  0
   -2.9150   -2.7200    0.6842 C   0  0  0  0  0  0  0  0  0  0  0  0
   -0.5286    0.1844   -0.4015 C   0  0  0  0  0  0  0  0  0  0  0  0
   -0.4339   -2.7944    0.2610 C   0  0  0  0  0  0  0  0  0  0  0  0
    7.0265    1.7681   -0.1109 C   0  0  0  0  0  0  0  0  0  0  0  0
    5.3579    0.4509    0.8218 C   0  0  0  0  0  0  0  0  0  0  0  0
    7.4195    0.3353   -0.4398 C   0  0  0  0  0  0  0  0  0  0  0  0
    6.3211   -0.5300    0.1701 C   0  0  0  0  0  0  0  0  0  0  0  0
   -4.1173   -0.2327    0.6677 C   0  0  0  0  0  0  0  0  0  0  0  0
    5.0223    2.8509    0.7218 C   0  0  0  0  0  0  0  0  0  0  0  0
   -3.2080    1.3771   -0.8873 C   0  0  0  0  0  0  0  0  0  0  0  0
    0.2831    0.2559   -1.5260 C   0  0  0  0  0  0  0  0  0  0  0  0
   -0.2106    0.8868    0.7533 C   0  0  0  0  0  0  0  0  0  0  0  0
   -5.2281    0.6151    0.8419 C   0  0  0  0  0  0  0  0  0  0  0  0
    3.5294    2.6803    0.9537 C   0  0  0  0  0  0  0  0  0  0  0  0
    0.8307   -2.4361    0.7105 C   0  0  0  0  0  0  0  0  0  0  0  0
   -0.6273   -3.9631   -0.4645 C   0  0  0  0  0  0  0  0  0  0  0  0
   -4.3181    2.2034   -0.7132 C   0  0  0  0  0  0  0  0  0  0  0  0
    1.7621    1.7536   -0.3399 C   0  0  0  0  0  0  0  0  0  0  0  0
    1.4336    1.0440   -1.4951 C   0  0  0  0  0  0  0  0  0  0  0  0
    0.9397    1.6750    0.7842 C   0  0  0  0  0  0  0  0  0  0  0  0
   -5.3257    1.8257    0.1602 C   0  0  0  0  0  0  0  0  0  0  0  0
    1.9204   -3.2603    0.4293 C   0  0  0  0  0  0  0  0  0  0  0  0
    0.4625   -4.7871   -0.7454 C   0  0  0  0  0  0  0  0  0  0  0  0
    1.7363   -4.4357   -0.2986 C   0  0  0  0  0  0  0  0  0  0  0  0
   -6.4510    3.8437   -0.4028 C   0  0  0  0  0  0  0  0  0  0  0  0
  1  9  1  0
  1 16  1  0
  2  6  1  0
  3 22  1  0
  3 26  1  0
  4 29  1  0
  4 33  1  0
  5 12  1  0
  5 13  1  0
  5 17  1  0
  6  7  1  0
  6  8  1  0
  6 10  1  0
  7  9  1  0
  7 11  1  0
  8 16  2  0
  8 18  1  0
 10 19  2  0
 10 20  1  0
 11 23  2  0
 11 24  1  0
 12 14  1  0
 13 15  1  0
 14 15  1  0
 16 21  1  0
 17 22  1  0
 18 25  2  0
 19 27  1  0
 20 28  2  0
 21 29  2  0
 23 30  1  0
 24 31  2  0
 25 29  1  0
 26 27  2  0
 26 28  1  0
 30 32  2  0
 31 32  1  0
M  END
>  <PUBCHEM_COMPOUND_CID>  (1) 
28121

>  <PUBCHEM_CONFORMER_RMSD>  (1) 
1

>  <PUBCHEM_CONFORMER_DIVERSEORDER>  (1) 
1
32
48
37
29
18
88
89
51
36
4
50
65
35
96
46
24
31
34
86
84
53
28
56
95
44
71
97
2
74
77
61
30
41
45
38
79
59
69
8
78
68
5
75
20
7
9
43
13
85
57
14
94
27
62
81
49
33
11
19
91
42
63
12
60
83
82
10
26
17
93
67
6
23
25
21
39
3
52
72
80
70
40
22
64
15
58
73
16
66
90
76
87
54
92
47
55

>  <PUBCHEM_MMFF94_PARTIAL_CHARGES>  (1) 
44
1 -0.33
10 -0.14
11 -0.14
12 0.27
13 0.27
16 0.1
17 0.27
18 -0.15
19 -0.15
2 -0.68
20 -0.15
21 -0.15
22 0.28
23 -0.15
24 -0.15
25 -0.15
26 0.08
27 -0.15
28 -0.15
29 0.08
3 -0.36
30 -0.15
31 -0.15
32 -0.15
33 0.28
4 -0.36
47 0.15
48 0.4
49 0.15
5 -0.81
50 0.15
51 0.15
54 0.15
55 0.15
56 0.15
57 0.15
58 0.15
59 0.15
6 0.57
60 0.15
61 0.15
7 0.14
8 -0.14
9 0.23

>  <PUBCHEM_EFFECTIVE_ROTOR_COUNT>  (1) 
8.8

>  <PUBCHEM_PHARMACOPHORE_FEATURES>  (1) 
10
1 2 acceptor
1 2 donor
1 3 acceptor
1 4 acceptor
1 5 cation
5 5 12 13 14 15 rings
6 1 6 7 8 9 16 rings
6 10 19 20 26 27 28 rings
6 11 23 24 30 31 32 rings
6 8 16 18 21 25 29 rings

>  <PUBCHEM_HEAVY_ATOM_COUNT>  (1) 
33

>  <PUBCHEM_ATOM_DEF_STEREO_COUNT>  (1) 
0

>  <PUBCHEM_ATOM_UDEF_STEREO_COUNT>  (1) 
2

>  <PUBCHEM_BOND_DEF_STEREO_COUNT>  (1) 
0

>  <PUBCHEM_BOND_UDEF_STEREO_COUNT>  (1) 
0

>  <PUBCHEM_ISOTOPIC_ATOM_COUNT>  (1) 
0

>  <PUBCHEM_COMPONENT_COUNT>  (1) 
1

>  <PUBCHEM_CACTVS_TAUTO_COUNT>  (1) 
1

>  <PUBCHEM_CONFORMER_ID>  (1) 
00006DD900000001

>  <PUBCHEM_MMFF94_ENERGY>  (1) 
117.1815

>  <PUBCHEM_FEATURE_SELFOVERLAP>  (1) 
50.762

>  <PUBCHEM_SHAPE_FINGERPRINT>  (1) 
10674148 151 18333731322049875064
10864689 126 18268160777490257886
10940486 97 18118127111474409916
11049842 53 18116739419977009948
11112241 14 17559943480808332834
11297010 23 18268981008537256981
12422481 6 18040152911790331178
12925494 130 18408600353358503075
13583140 156 17340685593674113784
14020679 6 17458631137634463146
14028597 1 17774457005138401451
14790565 3 18411135866000920328
14840074 17 17967530190682988622
14856354 85 16660645201861458920
14955137 171 17908425745737863807
15230672 131 18408321095566371514
15361156 5 17756432913409970824
15420108 30 18410283718540800711
15439362 3 18193555572008312921
15664445 248 17769946670681213166
15775530 1 17610034803243502324
15927050 60 18341608226739075999
17913733 40 18340221729980939209
19301679 30 17687191198294464874
20554085 129 18337121072614672732
21033648 144 18261385591287584021
21033648 29 18270951461991394944
21585483 110 18410290272802857874
21987440 362 18117274761633213148
22889206 1 17970062253692020291
23516275 137 18188791448507774002
23559900 14 18120936097732365179
255183 313 17910695468265764595
3298306 158 18412269436614150990
338550 245 18116437132147730276
3411729 13 18262236603863883451
38695281 34 18411980260755881554
4073 2 18124872620011951472
4144715 1 18191026918086153048
4408954 64 16013286964899583843
5265222 85 18192443081031274364
5385378 56 18339086969372402777
6371380 46 18343014515423015376
7226269 152 18059861683456793832
9981440 41 18410015472695786691

>  <PUBCHEM_SHAPE_MULTIPOLES>  (1) 
660.39
15.41
5.68
1.2
13.72
5.42
0.13
-17.09
-1.99
-1.23
0.35
-0.41
0.08
1.41

>  <PUBCHEM_SHAPE_SELFOVERLAP>  (1) 
1421.521

>  <PUBCHEM_SHAPE_VOLUME>  (1) 
366

>  <PUBCHEM_COORDINATE_TYPE>  (1) 
2
5
10

$$$$
