2813
     RDKit          2D

 29 32  0  0  1  0  0  0  0  0999 V2000
    0.0000    0.0000    0.0000 Cl  0  0  0  0  0  0  0  0  0  0  0  0
    0.0000    0.0000    0.0000 S   0  0  0  0  0  0  0  0  0  0  0  0
    0.0000    0.0000    0.0000 O   0  0  0  0  0  0  0  0  0  0  0  0
    0.0000    0.0000    0.0000 O   0  0  0  0  0  0  0  0  0  0  0  0
    0.0000    0.0000    0.0000 O   0  0  0  0  0  0  0  0  0  0  0  0
    0.0000    0.0000    0.0000 O   0  0  0  0  0  0  0  0  0  0  0  0
    0.0000    0.0000    0.0000 O   0  0  0  0  0  0  0  0  0  0  0  0
    0.0000    0.0000    0.0000 N   0  0  0  0  0  0  0  0  0  0  0  0
    0.0000    0.0000    0.0000 N   0  0  0  0  0  0  0  0  0  0  0  0
    0.0000    0.0000    0.0000 N   0  0  0  0  0  0  0  0  0  0  0  0
    0.0000    0.0000    0.0000 C   0  0  0  0  0  0  0  0  0  0  0  0
    0.0000    0.0000    0.0000 C   0  0  0  0  0  0  0  0  0  0  0  0
    0.0000    0.0000    0.0000 C   0  0  0  0  0  0  0  0  0  0  0  0
    0.0000    0.0000    0.0000 C   0  0  0  0  0  0  0  0  0  0  0  0
    0.0000    0.0000    0.0000 C   0  0  0  0  0  0  0  0  0  0  0  0
    0.0000    0.0000    0.0000 C   0  0  0  0  0  0  0  0  0  0  0  0
    0.0000    0.0000    0.0000 C   0  0  0  0  0  0  0  0  0  0  0  0
    0.0000    0.0000    0.0000 C   0  0  0  0  0  0  0  0  0  0  0  0
    0.0000    0.0000    0.0000 C   0  0  0  0  0  0  0  0  0  0  0  0
    0.0000    0.0000    0.0000 C   0  0  0  0  0  0  0  0  0  0  0  0
    0.0000    0.0000    0.0000 C   0  0  0  0  0  0  0  0  0  0  0  0
    0.0000    0.0000    0.0000 C   0  0  0  0  0  0  0  0  0  0  0  0
    0.0000    0.0000    0.0000 C   0  0  0  0  0  0  0  0  0  0  0  0
    0.0000    0.0000    0.0000 C   0  0  0  0  0  0  0  0  0  0  0  0
    0.0000    0.0000    0.0000 C   0  0  0  0  0  0  0  0  0  0  0  0
    0.0000    0.0000    0.0000 C   0  0  0  0  0  0  0  0  0  0  0  0
    0.0000    0.0000    0.0000 C   0  0  0  0  0  0  0  0  0  0  0  0
    0.0000    0.0000    0.0000 C   0  0  0  0  0  0  0  0  0  0  0  0
    0.0000    0.0000    0.0000 C   0  0  0  0  0  0  0  0  0  0  0  0
  1 25  1  0
  2 11  1  0
  2 12  1  0
  3 15  2  0
  4 18  1  0
  5 18  2  0
  6 19  2  0
  7 10  1  0
  7 22  1  0
  8 11  1  0
  8 13  1  0
  8 15  1  0
  9 14  1  0
  9 19  1  0
 10 21  2  0
 11 14  1  0
 12 13  1  0
 12 16  1  0
 12 17  1  0
 13 18  1  0
 14 15  1  0
 19 20  1  0
 20 21  1  0
 20 22  2  0
 21 23  1  0
 22 24  1  0
 23 25  2  0
 23 26  1  0
 25 27  1  0
 26 28  2  0
 27 29  2  0
 28 29  1  0
M  CHG  1   4  -1
M  END
>  <PUBCHEM_COMPOUND_CID>  (1) 
2813

>  <PUBCHEM_CONFORMER_RMSD>  (1) 
0.8

>  <PUBCHEM_CONFORMER_DIVERSEORDER>  (1) 
60
255
63
201
240
196
253
290
58
194
101
54
103
162
231
195
48
67
275
212
223
164
206
172
141
116
25
252
254
175
144
106
224
167
203
285
211
213
234
226
11
271
12
209
267
261
65
219
154
46
276
184
187
174
200
15
105
260
33
227
19
123
55
76
192
292
142
263
204
109
21
237
51
199
23
189
111
10
32
168
47
131
143
119
210
250
239
225
138
151
108
86
3
218
166
87
257
35
148
122
243
57
217
126
27
220
136
266
281
205
37
248
128
183
246
29
20
104
278
59
91
186
125
66
31
140
74
269
82
64
69
182
282
53
38
230
72
233
14
36
198
180
284
258
207
214
24
286
124
115
79
28
34
274
185
190
16
110
7
145
22
171
176
193
99
268
118
13
137
96
291
249
18
159
208
235
43
244
259
1
132
163
139
95
216
93
78
236
17
247
92
280
270
90
6
4
133
169
264
161
49
289
215
102
288
30
70
40
120
83
165
188
114
242
107
221
9
153
265
229
117
238
121
2
178
89
228
8
149
112
197
273
68
157
73
45
283
158
52
127
146
191
84
129
26
152
272
262
130
94
156
241
232
113
251
71
5
97
173
222
160
100
245
134
85
39
256
177
41
50
279
44
150
155
56
98
88
287
81
135
170
77
75
62
147
179
277
181
80
202
42
61

>  <PUBCHEM_MMFF94_PARTIAL_CHARGES>  (1) 
32
1 -0.18
10 -0.41
11 0.44
12 0.23
13 0.19
14 0.28
15 0.58
18 0.91
19 0.72
2 -0.45
20 -0.09
21 0.23
22 -0.04
23 0.05
24 0.18
25 0.18
26 -0.15
27 -0.15
28 -0.15
29 -0.15
3 -0.57
39 0.37
4 -0.9
43 0.15
44 0.15
45 0.15
46 0.15
5 -0.9
6 -0.57
7 -0.02
8 -0.59
9 -0.65

>  <PUBCHEM_EFFECTIVE_ROTOR_COUNT>  (1) 
5.8

>  <PUBCHEM_PHARMACOPHORE_FEATURES>  (1) 
12
1 10 acceptor
1 3 acceptor
1 4 acceptor
1 5 acceptor
1 6 acceptor
1 9 donor
3 12 16 17 hydrophobe
3 4 5 18 anion
4 8 11 14 15 rings
5 7 10 20 21 22 rings
6 23 25 26 27 28 29 rings
7 2 8 11 12 13 14 15 rings

>  <PUBCHEM_HEAVY_ATOM_COUNT>  (1) 
29

>  <PUBCHEM_ATOM_DEF_STEREO_COUNT>  (1) 
0

>  <PUBCHEM_ATOM_UDEF_STEREO_COUNT>  (1) 
3

>  <PUBCHEM_BOND_DEF_STEREO_COUNT>  (1) 
0

>  <PUBCHEM_BOND_UDEF_STEREO_COUNT>  (1) 
0

>  <PUBCHEM_ISOTOPIC_ATOM_COUNT>  (1) 
0

>  <PUBCHEM_COMPONENT_COUNT>  (1) 
1

>  <PUBCHEM_CACTVS_TAUTO_COUNT>  (1) 
2

$$$$
