28130
     RDKit          3D

 16 17  0  0  0  0  0  0  0  0999 V2000
   -0.7864   -1.0826    1.5626 O   0  0  0  0  0  0  0  0  0  0  0  0
    3.8277   -1.8863   -0.3468 O   0  0  0  0  0  0  0  0  0  0  0  0
    4.7910    0.6874   -0.7603 O   0  0  0  0  0  0  0  0  0  0  0  0
   -2.8438    0.2415    0.3078 N   0  0  0  0  0  0  0  0  0  0  0  0
   -3.9081    1.1549   -0.1074 C   0  0  0  0  0  0  0  0  0  0  0  0
   -2.8254   -0.8079   -0.7108 C   0  0  0  0  0  0  0  0  0  0  0  0
   -5.0150    0.2099   -0.5513 C   0  0  0  0  0  0  0  0  0  0  0  0
   -4.3038   -1.0813   -0.9445 C   0  0  0  0  0  0  0  0  0  0  0  0
   -1.5579    0.9102    0.4398 C   0  0  0  0  0  0  0  0  0  0  0  0
   -0.5138   -0.1034    0.8716 C   0  0  0  0  0  0  0  0  0  0  0  0
    0.8997    0.1037    0.4363 C   0  0  0  0  0  0  0  0  0  0  0  0
    1.6995   -0.9999    0.2487 C   0  0  0  0  0  0  0  0  0  0  0  0
    1.3463    1.3902    0.2408 C   0  0  0  0  0  0  0  0  0  0  0  0
    3.0198   -0.8062   -0.1572 C   0  0  0  0  0  0  0  0  0  0  0  0
    2.6668    1.5839   -0.1651 C   0  0  0  0  0  0  0  0  0  0  0  0
    3.5035    0.4857   -0.3640 C   0  0  0  0  0  0  0  0  0  0  0  0
  1 10  2  0
  2 14  1  0
  3 16  1  0
  4  5  1  0
  4  6  1  0
  4  9  1  0
  5  7  1  0
  6  8  1  0
  7  8  1  0
  9 10  1  0
 10 11  1  0
 11 12  2  0
 11 13  1  0
 12 14  1  0
 13 15  2  0
 14 16  2  0
 15 16  1  0
M  END
>  <PUBCHEM_COMPOUND_CID>  (1) 
28130

>  <PUBCHEM_CONFORMER_RMSD>  (1) 
0.6

>  <PUBCHEM_CONFORMER_DIVERSEORDER>  (1) 
1
34
52
21
19
29
44
32
18
23
10
33
45
17
30
8
50
31
43
6
20
14
40
24
16
36
35
48
46
22
37
9
5
7
49
13
39
53
25
2
3
27
38
51
47
41
15
42
28
4
11
26
12

>  <PUBCHEM_MMFF94_PARTIAL_CHARGES>  (1) 
19
1 -0.57
10 0.42
11 0.09
12 -0.15
13 -0.15
14 0.08
15 -0.15
16 0.08
2 -0.53
27 0.15
28 0.15
29 0.15
3 -0.53
30 0.45
31 0.45
4 -0.81
5 0.27
6 0.27
9 0.33

>  <PUBCHEM_EFFECTIVE_ROTOR_COUNT>  (1) 
4

>  <PUBCHEM_PHARMACOPHORE_FEATURES>  (1) 
6
1 1 acceptor
1 2 donor
1 3 donor
1 4 cation
5 4 5 6 7 8 rings
6 11 12 13 14 15 16 rings

>  <PUBCHEM_HEAVY_ATOM_COUNT>  (1) 
16

>  <PUBCHEM_ATOM_DEF_STEREO_COUNT>  (1) 
0

>  <PUBCHEM_ATOM_UDEF_STEREO_COUNT>  (1) 
0

>  <PUBCHEM_BOND_DEF_STEREO_COUNT>  (1) 
0

>  <PUBCHEM_BOND_UDEF_STEREO_COUNT>  (1) 
0

>  <PUBCHEM_ISOTOPIC_ATOM_COUNT>  (1) 
0

>  <PUBCHEM_COMPONENT_COUNT>  (1) 
1

>  <PUBCHEM_CACTVS_TAUTO_COUNT>  (1) 
22

>  <PUBCHEM_CONFORMER_ID>  (1) 
00006DE200000001

>  <PUBCHEM_MMFF94_ENERGY>  (1) 
36.6674

>  <PUBCHEM_FEATURE_SELFOVERLAP>  (1) 
30.45

>  <PUBCHEM_SHAPE_FINGERPRINT>  (1) 
10498660 4 16950829307434156541
11471102 20 18334296457371028952
11543360 7 18342736351369730225
11796584 16 17060340721226149311
12670546 177 18409165532452666047
12707595 3 16200145525876362659
12730499 353 17749394737311386499
13167823 11 18343863320807962239
13675066 3 11743843590514469643
13705890 14 18202560678964556226
14251717 144 18411136922605293862
14252887 29 12607405502714987692
14350558 41 17275107206224203822
14576447 43 18201434817828606878
14943859 89 15574713607745221761
14993402 34 18060425720210383900
15242433 33 18343301466113275943
15477762 27 18343301470402961820
17834072 33 18342737437759222404
1798214 20 18060698394429846455
18186145 218 17894906326354767875
18915474 69 18201714089555724927
19422 9 18272931626882468553
19784866 240 17560245717282568118
19862831 5 18408037399352791785
200 152 18131353015888854137
20281475 54 17989767791653120339
20645477 70 18410577245322272950
20671657 53 17132115757829065849
20871999 31 18342730832874799285
21119208 17 18272931635256222893
221357 26 18408879616833770861
221490 88 18268711799696602747
22485316 2 17918268770796452957
231179 274 16081082684211258980
23402539 116 18259697900171645172
23402655 69 18410293584064627925
23557571 272 17386860571886766355
23559900 14 17988634224971224328
25 1 18040714757678577803
26918003 58 10519987067387493485
3082319 5 18343017804945431425
4028521 119 17895185593903138885
4047638 21 17240485801600828640
4072396 5 18261662741290028704
42 15 10375874086666306205
4921388 177 17531533186984168603
4990 188 18261109673228128123
5281201 14 18260266334914296413
58051976 100 18201434822402999735
633830 44 17968095296388115561
77779 3 18412824698860721533
93112 12 18341330076029479197

>  <PUBCHEM_SHAPE_MULTIPOLES>  (1) 
306.68
9.78
1.54
0.96
3.69
0.09
0.16
0.42
-3.59
-0.75
-0.08
0.24
0.16
-0.39

>  <PUBCHEM_SHAPE_SELFOVERLAP>  (1) 
649.191

>  <PUBCHEM_SHAPE_VOLUME>  (1) 
173.6

>  <PUBCHEM_COORDINATE_TYPE>  (1) 
2
5
10

$$$$
