28132
     RDKit          3D

 14 14  0  0  0  0  0  0  0  0999 V2000
    1.5161    1.3819    1.1536 O   0  0  0  0  0  0  0  0  0  0  0  0
   -3.2778    1.7518   -0.4167 O   0  0  0  0  0  0  0  0  0  0  0  0
   -4.1445   -0.8887   -0.4084 O   0  0  0  0  0  0  0  0  0  0  0  0
    3.5285   -0.0139   -0.1036 N   0  0  0  0  0  0  0  0  0  0  0  0
    2.2869   -0.7108    0.2300 C   0  0  0  0  0  0  0  0  0  0  0  0
    1.2344    0.3105    0.6211 C   0  0  0  0  0  0  0  0  0  0  0  0
   -0.1989   -0.0054    0.3454 C   0  0  0  0  0  0  0  0  0  0  0  0
   -1.0652    1.0329    0.0920 C   0  0  0  0  0  0  0  0  0  0  0  0
    3.3140    0.9063   -1.2198 C   0  0  0  0  0  0  0  0  0  0  0  0
    4.5825   -0.9743   -0.4284 C   0  0  0  0  0  0  0  0  0  0  0  0
   -0.5967   -1.3225    0.3571 C   0  0  0  0  0  0  0  0  0  0  0  0
   -2.4043    0.7376   -0.1639 C   0  0  0  0  0  0  0  0  0  0  0  0
   -1.9357   -1.6177    0.1011 C   0  0  0  0  0  0  0  0  0  0  0  0
   -2.8394   -0.5877   -0.1594 C   0  0  0  0  0  0  0  0  0  0  0  0
  1  6  2  0
  2 12  1  0
  3 14  1  0
  4  5  1  0
  4  9  1  0
  4 10  1  0
  5  6  1  0
  6  7  1  0
  7  8  2  0
  7 11  1  0
  8 12  1  0
 11 13  2  0
 12 14  2  0
 13 14  1  0
M  END
>  <PUBCHEM_COMPOUND_CID>  (1) 
28132

>  <PUBCHEM_CONFORMER_RMSD>  (1) 
0.6

>  <PUBCHEM_CONFORMER_DIVERSEORDER>  (1) 
2
21
8
16
26
22
12
4
18
19
28
10
15
11
14
6
25
20
27
9
24
3
5
13
23
29
7
1
17
30

>  <PUBCHEM_MMFF94_PARTIAL_CHARGES>  (1) 
19
1 -0.57
10 0.27
11 -0.15
12 0.08
13 -0.15
14 0.08
17 0.15
2 -0.53
24 0.15
25 0.15
26 0.45
27 0.45
3 -0.53
4 -0.81
5 0.33
6 0.42
7 0.09
8 -0.15
9 0.27

>  <PUBCHEM_EFFECTIVE_ROTOR_COUNT>  (1) 
3

>  <PUBCHEM_PHARMACOPHORE_FEATURES>  (1) 
5
1 1 acceptor
1 2 donor
1 3 donor
1 4 cation
6 7 8 11 12 13 14 rings

>  <PUBCHEM_HEAVY_ATOM_COUNT>  (1) 
14

>  <PUBCHEM_ATOM_DEF_STEREO_COUNT>  (1) 
0

>  <PUBCHEM_ATOM_UDEF_STEREO_COUNT>  (1) 
0

>  <PUBCHEM_BOND_DEF_STEREO_COUNT>  (1) 
0

>  <PUBCHEM_BOND_UDEF_STEREO_COUNT>  (1) 
0

>  <PUBCHEM_ISOTOPIC_ATOM_COUNT>  (1) 
0

>  <PUBCHEM_COMPONENT_COUNT>  (1) 
1

>  <PUBCHEM_CACTVS_TAUTO_COUNT>  (1) 
22

>  <PUBCHEM_CONFORMER_ID>  (1) 
00006DE400000002

>  <PUBCHEM_MMFF94_ENERGY>  (1) 
39.6449

>  <PUBCHEM_FEATURE_SELFOVERLAP>  (1) 
25.376

>  <PUBCHEM_SHAPE_FINGERPRINT>  (1) 
10062212 137 18340477859760134146
10465860 250 18130500852102810242
10465860 71 18270980006638838788
10608611 8 18341323487370689104
12032990 46 18339923839555209899
12186901 62 18333447625799079351
12932764 1 18272928362238007259
13296908 3 17775281685956166768
14115302 16 18408328804325630286
14325111 11 18408319964850281913
14911166 2 18342732975404298141
14993402 34 17675922109993568327
15219456 202 18130497638998021336
15775835 57 18187928318076837697
16945 1 18336252552991927619
17870717 6 18128836174218521590
18186145 218 16370731439459002156
1986462 14 18343021081889440309
200 152 17060334124071979495
20201158 50 18131355198017349950
20279233 1 17775283872305659718
20361792 2 15769781264364350920
20645476 183 17894909624615877483
20645477 70 17561088003693299326
20671657 53 17704077295925171304
20871999 31 18408604764205669245
21119208 17 17967817145816513846
21501502 16 18263917744495429187
22094290 60 18408886247930413921
23402539 116 18337104575703382060
23403322 49 18059300851270240030
23559900 14 18271522010511361642
23598291 2 17532925009495367146
2748010 2 17832976527347021307
3082319 5 18187654625976402476
42 15 12751249107197649214
474 4 16516539957056880172
559249 180 18190737545049349322
7364860 26 18127126605162072024
81228 2 17201378277772591736
93112 12 18333735740737285182

>  <PUBCHEM_SHAPE_MULTIPOLES>  (1) 
265.52
7.48
1.58
0.87
3.54
0.06
0
-0.75
-2.2
-0.72
-0.02
0.46
0.19
0.02

>  <PUBCHEM_SHAPE_SELFOVERLAP>  (1) 
549.873

>  <PUBCHEM_SHAPE_VOLUME>  (1) 
153.6

>  <PUBCHEM_COORDINATE_TYPE>  (1) 
2
5
10

$$$$
