28149
     RDKit          3D

 18 18  0  0  1  0  0  0  0  0999 V2000
    0.9788    1.4377   -0.2185 O   0  0  0  0  0  0  0  0  0  0  0  0
   -0.7976    3.5483   -0.5896 O   0  0  0  0  0  0  0  0  0  0  0  0
   -2.1665    0.3926    0.6363 O   0  0  0  0  0  0  0  0  0  0  0  0
    0.6403   -1.0521   -1.4056 O   0  0  0  0  0  0  0  0  0  0  0  0
   -3.3403   -0.7451   -0.9769 O   0  0  0  0  0  0  0  0  0  0  0  0
   -3.0843   -1.5922    1.1679 N   0  0  0  0  0  0  0  0  0  0  0  0
   -3.8055   -2.7378    0.9064 N   0  0  0  0  0  0  0  0  0  0  0  0
   -1.0743    2.5283    0.3731 C   0  0  0  0  0  0  0  0  0  0  0  0
    0.2562    1.9863    0.8788 C   0  0  0  0  0  0  0  0  0  0  0  0
   -1.9032    1.4371   -0.2948 C   0  0  0  0  0  0  0  0  0  0  0  0
    1.8391    0.4099    0.0629 C   0  0  0  0  0  0  0  0  0  0  0  0
    1.6652   -0.8340   -0.5350 C   0  0  0  0  0  0  0  0  0  0  0  0
    2.8863    0.6263    0.9527 C   0  0  0  0  0  0  0  0  0  0  0  0
    2.5479   -1.8728   -0.2400 C   0  0  0  0  0  0  0  0  0  0  0  0
    3.7691   -0.4127    1.2477 C   0  0  0  0  0  0  0  0  0  0  0  0
    3.5999   -1.6623    0.6514 C   0  0  0  0  0  0  0  0  0  0  0  0
   -2.9073   -0.6614    0.1684 C   0  0  0  0  0  0  0  0  0  0  0  0
    0.8962   -0.7959   -2.7852 C   0  0  0  0  0  0  0  0  0  0  0  0
  1  9  1  0
  1 11  1  0
  2  8  1  0
  3 10  1  0
  3 17  1  0
  4 12  1  0
  4 18  1  0
  5 17  2  0
  6  7  1  0
  6 17  1  0
  8  9  1  0
  8 10  1  0
 11 12  2  0
 11 13  1  0
 12 14  1  0
 13 15  2  0
 14 16  2  0
 15 16  1  0
M  END
>  <PUBCHEM_COMPOUND_CID>  (1) 
28149

>  <PUBCHEM_CONFORMER_RMSD>  (1) 
1

>  <PUBCHEM_CONFORMER_DIVERSEORDER>  (1) 
1
28
248
146
29
323
8
471
317
435
299
351
5
180
117
397
206
504
72
30
387
128
258
449
23
235
148
450
3
410
359
95
62
126
360
327
15
459
472
44
164
91
470
536
174
290
306
93
9
475
105
55
32
373
159
39
432
100
13
315
362
38
61
20
374
19
363
392
305
329
154
213
31
88
557
469
76
438
265
115
22
291
2
138
223
90
275
127
121
155
16
41
118
140
479
34
14
331
65
205
419
145
274
7
131
10
70
203

>  <PUBCHEM_MMFF94_PARTIAL_CHARGES>  (1) 
26
1 -0.36
10 0.28
11 0.08
12 0.08
13 -0.15
14 -0.15
15 -0.15
16 -0.15
17 0.78
18 0.28
2 -0.68
24 0.15
25 0.4
26 0.15
27 0.15
28 0.15
3 -0.43
32 0.37
33 0.36
34 0.36
4 -0.36
5 -0.57
6 -0.42
7 -0.73
8 0.28
9 0.28

>  <PUBCHEM_EFFECTIVE_ROTOR_COUNT>  (1) 
8

>  <PUBCHEM_PHARMACOPHORE_FEATURES>  (1) 
8
1 1 acceptor
1 2 acceptor
1 2 donor
1 4 acceptor
1 5 acceptor
1 6 donor
1 7 donor
6 11 12 13 14 15 16 rings

>  <PUBCHEM_HEAVY_ATOM_COUNT>  (1) 
18

>  <PUBCHEM_ATOM_DEF_STEREO_COUNT>  (1) 
0

>  <PUBCHEM_ATOM_UDEF_STEREO_COUNT>  (1) 
1

>  <PUBCHEM_BOND_DEF_STEREO_COUNT>  (1) 
0

>  <PUBCHEM_BOND_UDEF_STEREO_COUNT>  (1) 
0

>  <PUBCHEM_ISOTOPIC_ATOM_COUNT>  (1) 
0

>  <PUBCHEM_COMPONENT_COUNT>  (1) 
1

>  <PUBCHEM_CACTVS_TAUTO_COUNT>  (1) 
2

>  <PUBCHEM_CONFORMER_ID>  (1) 
00006DF500000001

>  <PUBCHEM_MMFF94_ENERGY>  (1) 
56.8772

>  <PUBCHEM_FEATURE_SELFOVERLAP>  (1) 
42.124

>  <PUBCHEM_SHAPE_FINGERPRINT>  (1) 
10610426 29 17313368054986928656
11471102 22 17845926330337891058
12363563 72 18336270127898084019
12400797 245 18341895246180396727
12500047 106 17686334274924455504
12553582 1 18337969951315048761
12633257 1 17984139253943545306
128993 33 10159697971531501731
14115302 16 17822297847047930949
14251705 54 18337674225484135707
15852999 172 17621866605110405732
17834072 14 18338222804619214221
18186145 218 10665225917439140010
20261772 1 17846487175768192342
20645477 70 17758385658824730515
23557571 272 18271814458137853453
23559900 14 18265322929240800936
2748010 2 17773023160551022932
549884 4 12396298192314080871
568465 68 17417518117180921888
81228 2 18125458422853046457
8809292 202 17982170011496448400
9709674 26 18056189172811806108

>  <PUBCHEM_SHAPE_MULTIPOLES>  (1) 
331.12
6.35
3.09
1.59
0.59
1.4
1.13
-4.35
-2.61
2.45
-0.31
-0.33
-0.68
1.04

>  <PUBCHEM_SHAPE_SELFOVERLAP>  (1) 
672.002

>  <PUBCHEM_SHAPE_VOLUME>  (1) 
192.4

>  <PUBCHEM_COORDINATE_TYPE>  (1) 
2
5
10

$$$$
