28140
     RDKit          3D

 26 27  0  0  0  0  0  0  0  0999 V2000
   -3.0744    2.5332   -0.1229 O   0  0  0  0  0  0  0  0  0  0  0  0
    4.8831   -0.5122   -0.3025 O   0  0  0  0  0  0  0  0  0  0  0  0
   -0.6702    2.1725    0.9383 O   0  0  0  0  0  0  0  0  0  0  0  0
   -6.6710    0.7268   -0.6831 O   0  0  0  0  0  0  0  0  0  0  0  0
   -5.4794    2.5685   -0.5962 O   0  0  0  0  0  0  0  0  0  0  0  0
   -2.4719   -3.6864    0.4928 O   0  0  0  0  0  0  0  0  0  0  0  0
   -4.6204   -3.5513    0.0626 O   0  0  0  0  0  0  0  0  0  0  0  0
    8.3677   -0.2228   -0.2504 O   0  0  0  0  0  0  0  0  0  0  0  0
    7.0493   -1.8616   -0.8789 O   0  0  0  0  0  0  0  0  0  0  0  0
   -5.5799    1.3214   -0.5166 N   0  0  0  0  0  0  0  0  0  0  0  0
    0.3702    0.2838    0.0961 N   0  0  0  0  0  0  0  0  0  0  0  0
   -3.5001   -3.0140    0.2377 N   0  0  0  0  0  0  0  0  0  0  0  0
    1.6061    0.8055    0.2815 N   0  0  0  0  0  0  0  0  0  0  0  0
    7.2035   -0.6928   -0.4163 N   0  0  0  0  0  0  0  0  0  0  0  0
   -2.0525    0.4065    0.2460 C   0  0  0  0  0  0  0  0  0  0  0  0
   -3.1820    1.1750   -0.0359 C   0  0  0  0  0  0  0  0  0  0  0  0
   -4.4170    0.5553   -0.2272 C   0  0  0  0  0  0  0  0  0  0  0  0
   -2.1578   -0.9815    0.3362 C   0  0  0  0  0  0  0  0  0  0  0  0
   -3.3927   -1.6010    0.1449 C   0  0  0  0  0  0  0  0  0  0  0  0
   -4.5223   -0.8327   -0.1368 C   0  0  0  0  0  0  0  0  0  0  0  0
   -0.7529    1.0315    0.4515 C   0  0  0  0  0  0  0  0  0  0  0  0
    3.9650    0.3952    0.0757 C   0  0  0  0  0  0  0  0  0  0  0  0
    4.5225    1.5464    0.5247 C   0  0  0  0  0  0  0  0  0  0  0  0
    6.0874    0.0792   -0.0879 C   0  0  0  0  0  0  0  0  0  0  0  0
    5.9197    1.3464    0.4203 C   0  0  0  0  0  0  0  0  0  0  0  0
    2.5699    0.0092   -0.0535 C   0  0  0  0  0  0  0  0  0  0  0  0
  1 16  1  0
  2 22  1  0
  2 24  1  0
  3 21  2  0
  4 10  1  0
  5 10  2  0
  6 12  1  0
  7 12  2  0
  8 14  1  0
  9 14  2  0
 10 17  1  0
 11 13  1  0
 11 21  1  0
 12 19  1  0
 13 26  2  0
 14 24  1  0
 15 16  2  0
 15 18  1  0
 15 21  1  0
 16 17  1  0
 17 20  2  0
 18 19  2  0
 19 20  1  0
 22 23  2  0
 22 26  1  0
 23 25  1  0
 24 25  2  0
M  CHG  6   4  -1   6  -1   8  -1  10   1  12   1  14   1
M  END
>  <PUBCHEM_COMPOUND_CID>  (1) 
28140

>  <PUBCHEM_CONFORMER_RMSD>  (1) 
0.8

>  <PUBCHEM_CONFORMER_DIVERSEORDER>  (1) 
3
6
8
11
5
2
10
4
9
1
7

>  <PUBCHEM_MMFF94_PARTIAL_CHARGES>  (1) 
33
1 -0.53
10 0.91
11 -0.37
12 0.91
13 -0.51
14 0.96
15 0.09
16 0.08
17 0.13
18 -0.15
19 0.13
2 -0.28
20 -0.15
21 0.54
22 0.05
23 -0.15
24 0.22
25 -0.15
26 0.47
27 0.15
28 0.15
29 0.37
3 -0.57
30 0.15
31 0.15
32 0.06
33 0.45
4 -0.52
5 -0.52
6 -0.52
7 -0.52
8 -0.52
9 -0.52

>  <PUBCHEM_EFFECTIVE_ROTOR_COUNT>  (1) 
7

>  <PUBCHEM_PHARMACOPHORE_FEATURES>  (1) 
16
1 1 donor
1 11 donor
1 13 acceptor
1 2 acceptor
1 3 acceptor
1 4 acceptor
1 4 anion
1 5 acceptor
1 6 acceptor
1 6 anion
1 7 acceptor
1 8 acceptor
1 8 anion
1 9 acceptor
5 2 22 23 24 25 rings
6 15 16 17 18 19 20 rings

>  <PUBCHEM_HEAVY_ATOM_COUNT>  (1) 
26

>  <PUBCHEM_ATOM_DEF_STEREO_COUNT>  (1) 
0

>  <PUBCHEM_ATOM_UDEF_STEREO_COUNT>  (1) 
0

>  <PUBCHEM_BOND_DEF_STEREO_COUNT>  (1) 
0

>  <PUBCHEM_BOND_UDEF_STEREO_COUNT>  (1) 
1

>  <PUBCHEM_ISOTOPIC_ATOM_COUNT>  (1) 
0

>  <PUBCHEM_COMPONENT_COUNT>  (1) 
1

>  <PUBCHEM_CACTVS_TAUTO_COUNT>  (1) 
13

>  <PUBCHEM_CONFORMER_ID>  (1) 
00006DEC00000003

>  <PUBCHEM_MMFF94_ENERGY>  (1) 
73.3744

>  <PUBCHEM_FEATURE_SELFOVERLAP>  (1) 
81.467

>  <PUBCHEM_SHAPE_FINGERPRINT>  (1) 
10165383 225 18336825291988712853
10369192 42 13623531238382731435
10411042 1 18048598424646187243
10835480 77 18342733065915668480
11045977 3 18272646883151127616
11315181 36 17632859732707278224
11524674 6 17632574954974719847
11719270 70 18060134298670197462
11796584 16 18411418406477978874
12643181 29 18411133632729007922
12788726 201 17845087377228198305
13533116 47 17313657145542295944
13540713 4 18126270081820614545
14461889 52 18198334243200700224
15183329 4 18409165472692395512
15230672 131 18262795160229908466
15927050 60 18410568462779245579
17844677 252 18339087081220926464
20721686 146 16589696861492183165
21267235 1 18335142038021773723
21315759 40 14117798012248378332
21315764 119 18336830801666375404
21623969 137 17418383502089704054
220451 1 17821442448507967456
23559900 14 18341886445808803513
23576562 1 17750226067287342029
249057 3 18186801387631441717
3004659 81 18407757032804996520
335352 9 18410289212500051333
3545911 37 18409165489440026952
4073 2 18261114119099645482
4214541 1 18410011052446821664
44802255 64 17167850943111638951
5104073 3 18131634500230927728
559249 180 18408603673384345563
58902169 19 17603874407929871006
59755656 215 18339081493426068646
59755656 520 18260261928240940095

>  <PUBCHEM_SHAPE_MULTIPOLES>  (1) 
457.34
20.49
3.04
0.72
32.97
2.53
-0.01
1.86
4.33
-5.39
-0.23
0.07
-0.06
1.72

>  <PUBCHEM_SHAPE_SELFOVERLAP>  (1) 
993.043

>  <PUBCHEM_SHAPE_VOLUME>  (1) 
249.2

>  <PUBCHEM_COORDINATE_TYPE>  (1) 
2
5
10

$$$$
