28148
     RDKit          3D

 26 28  0  0  1  0  0  0  0  0999 V2000
    2.5903    0.7733    1.8313 O   0  0  0  0  0  0  0  0  0  0  0  0
   -6.2089    0.2070   -0.9013 O   0  0  0  0  0  0  0  0  0  0  0  0
   -5.9269    2.1987    0.2178 O   0  0  0  0  0  0  0  0  0  0  0  0
    3.5128   -0.4488    0.0208 N   0  0  0  0  0  0  0  0  0  0  0  0
    3.2209   -1.6090   -0.6637 N   0  0  0  0  0  0  0  0  0  0  0  0
    0.3377   -0.7805    0.6545 N   0  0  0  0  0  0  0  0  0  0  0  0
   -0.5494   -1.0793    1.4875 N   0  0  0  0  0  0  0  0  0  0  0  0
    1.6366   -1.3140    1.0245 C   0  0  0  0  0  0  0  0  0  0  0  0
    2.1645   -2.1189   -0.1142 C   0  0  0  0  0  0  0  0  0  0  0  0
    2.6130   -0.1750    1.0646 C   0  0  0  0  0  0  0  0  0  0  0  0
    4.6019    0.3155   -0.3663 C   0  0  0  0  0  0  0  0  0  0  0  0
    1.5301   -3.3919   -0.5570 C   0  0  0  0  0  0  0  0  0  0  0  0
    4.9057    1.5050    0.3063 C   0  0  0  0  0  0  0  0  0  0  0  0
    5.4099   -0.0938   -1.4335 C   0  0  0  0  0  0  0  0  0  0  0  0
    6.0020    2.2744   -0.0829 C   0  0  0  0  0  0  0  0  0  0  0  0
    6.5064    0.6756   -1.8225 C   0  0  0  0  0  0  0  0  0  0  0  0
   -1.7859   -0.5428    1.0910 C   0  0  0  0  0  0  0  0  0  0  0  0
    6.8024    1.8597   -1.1472 C   0  0  0  0  0  0  0  0  0  0  0  0
   -4.2345    0.5215    0.3044 C   0  0  0  0  0  0  0  0  0  0  0  0
   -2.1539    0.7311    1.5139 C   0  0  0  0  0  0  0  0  0  0  0  0
   -2.6339   -1.2882    0.2772 C   0  0  0  0  0  0  0  0  0  0  0  0
   -3.3810    1.2643    1.1198 C   0  0  0  0  0  0  0  0  0  0  0  0
   -3.8612   -0.7548   -0.1169 C   0  0  0  0  0  0  0  0  0  0  0  0
   -5.5139    1.0775   -0.1067 C   0  0  0  0  0  0  0  0  0  0  0  0
   -7.4886    0.6423   -1.3731 C   0  0  0  0  0  0  0  0  0  0  0  0
   -8.0962   -0.4490   -2.2284 C   0  0  0  0  0  0  0  0  0  0  0  0
  1 10  2  0
  2 24  1  0
  2 25  1  0
  3 24  2  0
  4  5  1  0
  4 10  1  0
  4 11  1  0
  5  9  2  0
  6  7  2  0
  6  8  1  0
  7 17  1  0
  8  9  1  0
  8 10  1  0
  9 12  1  0
 11 13  2  0
 11 14  1  0
 13 15  1  0
 14 16  2  0
 15 18  2  0
 16 18  1  0
 17 20  2  0
 17 21  1  0
 19 22  2  0
 19 23  1  0
 19 24  1  0
 20 22  1  0
 21 23  2  0
 25 26  1  0
M  END
>  <PUBCHEM_COMPOUND_CID>  (1) 
28148

>  <PUBCHEM_CONFORMER_RMSD>  (1) 
0.8

>  <PUBCHEM_CONFORMER_DIVERSEORDER>  (1) 
2
8
10
15
23
7
29
9
3
17
28
19
37
24
32
34
5
22
26
18
11
4
12
38
25
1
36
13
14
27
6
35
30
21
31
20
33
16

>  <PUBCHEM_MMFF94_PARTIAL_CHARGES>  (1) 
34
1 -0.57
10 0.57
11 0.12
12 0.06
13 -0.15
14 -0.15
15 -0.15
16 -0.15
17 0.18
18 -0.15
19 0.09
2 -0.43
20 -0.15
21 -0.15
22 -0.15
23 -0.15
24 0.63
25 0.28
3 -0.57
31 0.15
32 0.15
33 0.15
34 0.15
35 0.15
36 0.15
37 0.15
38 0.15
39 0.15
4 -0.11
5 -0.51
6 -0.25
7 -0.18
8 0.37
9 0.33

>  <PUBCHEM_EFFECTIVE_ROTOR_COUNT>  (1) 
6.4

>  <PUBCHEM_PHARMACOPHORE_FEATURES>  (1) 
6
1 1 acceptor
1 3 acceptor
1 5 acceptor
5 4 5 8 9 10 rings
6 11 13 14 15 16 18 rings
6 17 19 20 21 22 23 rings

>  <PUBCHEM_HEAVY_ATOM_COUNT>  (1) 
26

>  <PUBCHEM_ATOM_DEF_STEREO_COUNT>  (1) 
0

>  <PUBCHEM_ATOM_UDEF_STEREO_COUNT>  (1) 
1

>  <PUBCHEM_BOND_DEF_STEREO_COUNT>  (1) 
0

>  <PUBCHEM_BOND_UDEF_STEREO_COUNT>  (1) 
0

>  <PUBCHEM_ISOTOPIC_ATOM_COUNT>  (1) 
0

>  <PUBCHEM_COMPONENT_COUNT>  (1) 
1

>  <PUBCHEM_CACTVS_TAUTO_COUNT>  (1) 
3

>  <PUBCHEM_CONFORMER_ID>  (1) 
00006DF400000002

>  <PUBCHEM_MMFF94_ENERGY>  (1) 
71.3218

>  <PUBCHEM_FEATURE_SELFOVERLAP>  (1) 
30.448

>  <PUBCHEM_SHAPE_FINGERPRINT>  (1) 
10 15 14345798248956836277
10006869 2 17749097895184400412
10029044 110 16878493546383216813
10319926 262 11314301724707530563
10554248 39 18188196611736204558
10693767 8 17345766162154871294
11297750 10 13914538891102614346
11796584 16 11743299242069708386
12124843 1 17989494008694481012
12633257 1 11242265051217853314
13150687 139 18272379672378206710
13668630 136 15697995250146623133
13673619 4 12391515277999623523
13685833 64 12175622875772165270
13690498 29 17631167674992169991
13782708 43 11743836945757048585
14123256 34 14117799124365079517
14347424 109 8430306957505038423
14528608 73 18343305868486396256
14767858 380 18202278109240663903
14931854 50 18060139821174875649
15183329 4 17917439704922579112
15475509 35 11671785923620314996
15475509 84 12901541352021202078
15510800 12 12535361107798038916
15961568 22 18040720250942288900
16994733 274 17240751871110415893
17134984 74 16056882429653418694
17980427 23 15213591168634559562
1813 80 11671792555139887082
18335252 114 18334014991401082212
18335252 98 18335990835398067979
19427546 20 18042125517877952051
195137 95 14201663244666943799
1979834 28 13334733514505439736
2026 5 14835580046347512660
20567600 247 14261361215295517940
20715895 44 18337960086535299176
21033648 29 15719389529677200514
21150785 3 18272647961641248789
21298829 104 18187651275876376117
21344244 181 15051730919252675582
21521239 73 17203619172906742814
21585483 132 15768114302332473684
21637258 2 13686026358798992170
21781051 124 15338832123201807661
21792934 111 11458695090006227671
221357 26 17632581552345173160
22393880 68 17989486350925651082
22864921 267 12252447909084083808
23522609 53 17488485008912006921
23559900 14 18130220566489597865
2748736 6 17894347769916117965
2838139 119 18260552264357667936
3103668 31 17983009256850250159
312425 54 11602826817067729893
3472631 163 17748829634914613666
439807 62 15195293014451706533
5104073 3 10881985860642979749
5283384 27 17312818286541489549
54039377 194 11023838271243639448
59682541 52 17632303341727781820
6058803 2 17627805110314068891
6327066 14 18336549442970461860
8863177 126 11311761882780581916
999808 66 11959732676837303877

>  <PUBCHEM_SHAPE_MULTIPOLES>  (1) 
497.54
21.35
2.38
1.69
17.09
1.08
-0.33
-13.05
-15.05
-2.15
-0.18
0.83
-0.13
-0.69

>  <PUBCHEM_SHAPE_SELFOVERLAP>  (1) 
1071.014

>  <PUBCHEM_SHAPE_VOLUME>  (1) 
274.8

>  <PUBCHEM_COORDINATE_TYPE>  (1) 
2
5
10

$$$$
