28150
     RDKit          3D

 17 17  0  0  1  0  0  0  0  0999 V2000
    0.9841    1.3743   -0.6138 O   0  0  0  0  0  0  0  0  0  0  0  0
   -1.9506    3.0206    0.7599 O   0  0  0  0  0  0  0  0  0  0  0  0
   -2.1327    0.2689    0.2688 O   0  0  0  0  0  0  0  0  0  0  0  0
   -3.1709   -1.1506   -1.2082 O   0  0  0  0  0  0  0  0  0  0  0  0
   -2.9619   -1.6747    1.0425 N   0  0  0  0  0  0  0  0  0  0  0  0
   -3.6073   -2.8870    0.9201 N   0  0  0  0  0  0  0  0  0  0  0  0
   -1.1497    2.4098   -0.2545 C   0  0  0  0  0  0  0  0  0  0  0  0
    0.1855    2.0249    0.3690 C   0  0  0  0  0  0  0  0  0  0  0  0
   -1.8874    1.1882   -0.7904 C   0  0  0  0  0  0  0  0  0  0  0  0
    1.8868    0.4497   -0.1604 C   0  0  0  0  0  0  0  0  0  0  0  0
    2.2458   -0.6354   -0.9539 C   0  0  0  0  0  0  0  0  0  0  0  0
    2.4397    0.6118    1.1063 C   0  0  0  0  0  0  0  0  0  0  0  0
    3.1670   -1.5675   -0.4761 C   0  0  0  0  0  0  0  0  0  0  0  0
    1.6594   -0.8201   -2.3145 C   0  0  0  0  0  0  0  0  0  0  0  0
    3.3610   -0.3203    1.5839 C   0  0  0  0  0  0  0  0  0  0  0  0
    3.7246   -1.4098    0.7928 C   0  0  0  0  0  0  0  0  0  0  0  0
   -2.7933   -0.8827   -0.0716 C   0  0  0  0  0  0  0  0  0  0  0  0
  1  8  1  0
  1 10  1  0
  2  7  1  0
  3  9  1  0
  3 17  1  0
  4 17  2  0
  5  6  1  0
  5 17  1  0
  7  8  1  0
  7  9  1  0
 10 11  2  0
 10 12  1  0
 11 13  1  0
 11 14  1  0
 12 15  2  0
 13 16  2  0
 15 16  1  0
M  END
>  <PUBCHEM_COMPOUND_CID>  (1) 
28150

>  <PUBCHEM_CONFORMER_RMSD>  (1) 
0.8

>  <PUBCHEM_CONFORMER_DIVERSEORDER>  (1) 
5
23
294
176
289
257
247
46
88
266
18
203
301
6
269
149
153
67
225
171
201
221
183
234
305
177
290
3
151
163
306
45
293
56
224
215
277
116
10
139
179
54
258
202
267
169
114
44
131
223
1
220
219
211
150
143
276
62
300
81
297
160
61
265
77
242
16
310
282
233
115
145
302
94
304
296
98
268
58
311
127
121
186
291
109
313
80
228
180
168
218
193
51
182
283
227
245
299
249
226
238
2
157
251
261
235
161
199
248
273
184
174
244
75
253
214
41
34
118
263
173
285
35
308
272
92
303
64
29
38
295
246
79
200
126
99
252
42
195
280
181
73
83
152
192
209
275
43
9
210
191
125
312
135
264
256
159
117
27
78
197
255
102
170
137
59
111
236
278
65
106
142
216
287
60
243
187
241
134
66
212
240
286
13
30
189
107
133
93
288
175
33
129
119
15
140
47
48
274
91
39
206
229
31
85
190
103
208
87
69
105
155
279
260
19
28
96
11
158
198
222
148
165
213
20
132
284
70
12
138
7
21
25
26
188
162
270
90
74
172
141
104
86
53
123
32
110
254
124
97
52
154
40
232
298
112
100
207
17
194
128
259
204
130
122
22
239
57
50
250
8
68
231
166
63
237
262
36
113
24
144
230
89
14
37
281
307
55
164
217
4
72
71
84
49
156
309
95
205
147
196
82
101
178
185
292
120
108
167
146
136
271
76

>  <PUBCHEM_MMFF94_PARTIAL_CHARGES>  (1) 
25
1 -0.36
10 0.08
11 -0.14
12 -0.15
13 -0.15
14 0.14
15 -0.15
16 -0.15
17 0.78
2 -0.68
23 0.15
24 0.15
25 0.4
29 0.15
3 -0.43
30 0.15
31 0.37
32 0.36
33 0.36
4 -0.57
5 -0.42
6 -0.73
7 0.28
8 0.28
9 0.28

>  <PUBCHEM_EFFECTIVE_ROTOR_COUNT>  (1) 
7

>  <PUBCHEM_PHARMACOPHORE_FEATURES>  (1) 
7
1 1 acceptor
1 2 acceptor
1 2 donor
1 4 acceptor
1 5 donor
1 6 donor
6 10 11 12 13 15 16 rings

>  <PUBCHEM_HEAVY_ATOM_COUNT>  (1) 
17

>  <PUBCHEM_ATOM_DEF_STEREO_COUNT>  (1) 
0

>  <PUBCHEM_ATOM_UDEF_STEREO_COUNT>  (1) 
1

>  <PUBCHEM_BOND_DEF_STEREO_COUNT>  (1) 
0

>  <PUBCHEM_BOND_UDEF_STEREO_COUNT>  (1) 
0

>  <PUBCHEM_ISOTOPIC_ATOM_COUNT>  (1) 
0

>  <PUBCHEM_COMPONENT_COUNT>  (1) 
1

>  <PUBCHEM_CACTVS_TAUTO_COUNT>  (1) 
2

>  <PUBCHEM_CONFORMER_ID>  (1) 
00006DF600000005

>  <PUBCHEM_MMFF94_ENERGY>  (1) 
43.7887

>  <PUBCHEM_FEATURE_SELFOVERLAP>  (1) 
37.037

>  <PUBCHEM_SHAPE_FINGERPRINT>  (1) 
10618630 7 18336269023927711539
11471102 22 17345456112485926140
12363563 72 18336827593125572523
12400797 245 18269832171906572150
12500047 106 17905598905189425908
12553582 1 18198910390707790087
128993 33 10375875190193495379
14115302 16 17968091980605070997
14251705 54 18336265759615734987
14848160 33 18192990654685550535
15885798 251 18409174333368280057
18186145 218 10953727889915921727
18981168 100 9295282807609886960
20645477 70 17978221996396854439
21452121 199 18261951980565576169
21731516 1 18261688033450445457
23184049 29 18408321081621088528
232386 152 18261393291451580804
23557571 272 18342451513249023720
568465 68 17345457224787354530
81228 2 18340773628825849249
84936 182 14311950131878896318
8809292 202 17841148849304755988
9709674 26 17844236337779307236

>  <PUBCHEM_SHAPE_MULTIPOLES>  (1) 
316.41
6.77
2.89
1.55
0.44
0.45
0.49
-4.58
-1.72
3.28
-0.71
-0.82
-0.52
0.77

>  <PUBCHEM_SHAPE_SELFOVERLAP>  (1) 
642.97

>  <PUBCHEM_SHAPE_VOLUME>  (1) 
184.1

>  <PUBCHEM_COORDINATE_TYPE>  (1) 
2
5
10

$$$$
