28160
     RDKit          3D

 11 12  0  0  0  0  0  0  0  0999 V2000
   -0.7603   -1.7334   -0.0002 S   0  0  0  0  0  0  0  0  0  0  0  0
   -0.9793    0.8365   -0.0010 N   0  0  0  0  0  0  0  0  0  0  0  0
   -3.0237   -0.3456   -0.0005 N   0  0  0  0  0  0  0  0  0  0  0  0
    0.6973   -0.8123    0.0001 C   0  0  0  0  0  0  0  0  0  0  0  0
    0.3778    0.5489   -0.0004 C   0  0  0  0  0  0  0  0  0  0  0  0
   -1.6658   -0.2823   -0.0011 C   0  0  0  0  0  0  0  0  0  0  0  0
    2.0275   -1.2617    0.0006 C   0  0  0  0  0  0  0  0  0  0  0  0
    1.4288    1.4916   -0.0003 C   0  0  0  0  0  0  0  0  0  0  0  0
    3.0487   -0.3082    0.0006 C   0  0  0  0  0  0  0  0  0  0  0  0
    2.7555    1.0511    0.0002 C   0  0  0  0  0  0  0  0  0  0  0  0
   -3.9065    0.8154    0.0019 C   0  0  0  0  0  0  0  0  0  0  0  0
  1  4  1  0
  1  6  1  0
  2  5  1  0
  2  6  2  0
  3  6  1  0
  3 11  1  0
  4  5  2  0
  4  7  1  0
  5  8  1  0
  7  9  2  0
  8 10  2  0
  9 10  1  0
M  END
>  <PUBCHEM_COMPOUND_CID>  (1) 
28160

>  <PUBCHEM_CONFORMER_RMSD>  (1) 
0.4

>  <PUBCHEM_CONFORMER_DIVERSEORDER>  (1) 
1
2

>  <PUBCHEM_MMFF94_PARTIAL_CHARGES>  (1) 
16
1 -0.08
10 -0.15
11 0.37
12 0.15
13 0.15
14 0.15
15 0.15
16 0.4
2 -0.57
3 -0.85
4 0.04
5 0.23
6 0.46
7 -0.15
8 -0.15
9 -0.15

>  <PUBCHEM_EFFECTIVE_ROTOR_COUNT>  (1) 
1

>  <PUBCHEM_PHARMACOPHORE_FEATURES>  (1) 
4
1 3 donor
3 2 3 6 cation
5 1 2 4 5 6 rings
6 4 5 7 8 9 10 rings

>  <PUBCHEM_HEAVY_ATOM_COUNT>  (1) 
11

>  <PUBCHEM_ATOM_DEF_STEREO_COUNT>  (1) 
0

>  <PUBCHEM_ATOM_UDEF_STEREO_COUNT>  (1) 
0

>  <PUBCHEM_BOND_DEF_STEREO_COUNT>  (1) 
0

>  <PUBCHEM_BOND_UDEF_STEREO_COUNT>  (1) 
0

>  <PUBCHEM_ISOTOPIC_ATOM_COUNT>  (1) 
0

>  <PUBCHEM_COMPONENT_COUNT>  (1) 
1

>  <PUBCHEM_CACTVS_TAUTO_COUNT>  (1) 
2

>  <PUBCHEM_CONFORMER_ID>  (1) 
00006E0000000001

>  <PUBCHEM_MMFF94_ENERGY>  (1) 
21.1954

>  <PUBCHEM_FEATURE_SELFOVERLAP>  (1) 
20.368

>  <PUBCHEM_SHAPE_FINGERPRINT>  (1) 
10130415 120 18335133168365791826
10219947 1 18409732837492362615
10608611 8 18337669814600305561
11471102 20 18410569561525098973
12932764 1 17240752991315969587
13380535 76 18411417340698458670
13922767 16 18412538782444845089
14144814 61 18411983554990224137
14325111 11 18410575115033844065
14897335 6 18341325694909590718
14911166 2 18411991238955748718
15775835 57 18410015463330476108
16945 1 18410573998310724582
17844478 74 17894634742714276189
18186145 218 18412829053772930381
20201158 50 18411419496861582118
20645477 70 18339637837709460135
20871998 22 18053946148033466702
21040471 1 18266740379843219718
21501502 16 18265329693255311022
23235685 24 18411412929734994408
23402655 69 18341884161671763317
23552423 10 18117557542590704222
23559900 14 18199476622950343796
2748010 2 18122911090433899350
5084963 1 18202000993154676874
528886 8 18411695517298190922
53812653 166 18342170115861429184
63268167 104 18412830183038041033

>  <PUBCHEM_SHAPE_MULTIPOLES>  (1) 
220.26
5.28
1.63
0.61
3.37
0.23
0
-1.25
0
-0.31
0
-0.02
0.02
0

>  <PUBCHEM_SHAPE_SELFOVERLAP>  (1) 
460.569

>  <PUBCHEM_SHAPE_VOLUME>  (1) 
127.1

>  <PUBCHEM_COORDINATE_TYPE>  (1) 
2
5
10

$$$$
