28168
     RDKit          3D

 20 21  0  0  0  0  0  0  0  0999 V2000
   -3.7703    2.2982   -1.2285 O   0  0  0  0  0  0  0  0  0  0  0  0
    3.1318   -1.3669   -2.3886 O   0  0  0  0  0  0  0  0  0  0  0  0
   -1.6023    2.1794   -0.9049 O   0  0  0  0  0  0  0  0  0  0  0  0
    1.2175   -1.6334   -1.3477 O   0  0  0  0  0  0  0  0  0  0  0  0
   -2.7568    1.7041   -0.7908 N   0  0  0  0  0  0  0  0  0  0  0  0
    2.3713   -1.1475   -1.4164 N   0  0  0  0  0  0  0  0  0  0  0  0
   -0.4371    0.2934    0.2414 C   0  0  0  0  0  0  0  0  0  0  0  0
    0.6441   -0.6145    0.8573 C   0  0  0  0  0  0  0  0  0  0  0  0
   -1.8247   -0.2489    0.3611 C   0  0  0  0  0  0  0  0  0  0  0  0
    2.0362   -0.0425    0.7457 C   0  0  0  0  0  0  0  0  0  0  0  0
   -2.9223    0.4491   -0.1427 C   0  0  0  0  0  0  0  0  0  0  0  0
    2.8328   -0.3200   -0.3558 C   0  0  0  0  0  0  0  0  0  0  0  0
   -2.0105   -1.4783    0.9936 C   0  0  0  0  0  0  0  0  0  0  0  0
    2.4963    0.7659    1.7759 C   0  0  0  0  0  0  0  0  0  0  0  0
   -4.2057   -0.0822   -0.0138 C   0  0  0  0  0  0  0  0  0  0  0  0
    4.1160    0.2217   -0.4292 C   0  0  0  0  0  0  0  0  0  0  0  0
   -3.2938   -2.0100    1.1222 C   0  0  0  0  0  0  0  0  0  0  0  0
    3.7795    1.3082    1.7026 C   0  0  0  0  0  0  0  0  0  0  0  0
   -4.3914   -1.3117    0.6186 C   0  0  0  0  0  0  0  0  0  0  0  0
    4.5894    1.0358    0.6000 C   0  0  0  0  0  0  0  0  0  0  0  0
  1  5  1  0
  2  6  1  0
  3  5  2  0
  4  6  2  0
  5 11  1  0
  6 12  1  0
  7  8  1  0
  7  9  1  0
  8 10  1  0
  9 11  2  0
  9 13  1  0
 10 12  2  0
 10 14  1  0
 11 15  1  0
 12 16  1  0
 13 17  2  0
 14 18  2  0
 15 19  2  0
 16 20  2  0
 17 19  1  0
 18 20  1  0
M  CHG  4   1  -1   2  -1   5   1   6   1
M  END
>  <PUBCHEM_COMPOUND_CID>  (1) 
28168

>  <PUBCHEM_CONFORMER_RMSD>  (1) 
0.8

>  <PUBCHEM_CONFORMER_DIVERSEORDER>  (1) 
3
8
4
1
5
6
2
7

>  <PUBCHEM_MMFF94_PARTIAL_CHARGES>  (1) 
28
1 -0.52
10 -0.14
11 0.13
12 0.13
13 -0.15
14 -0.15
15 -0.15
16 -0.15
17 -0.15
18 -0.15
19 -0.15
2 -0.52
20 -0.15
25 0.15
26 0.15
27 0.15
28 0.15
29 0.15
3 -0.52
30 0.15
31 0.15
32 0.15
4 -0.52
5 0.91
6 0.91
7 0.14
8 0.14
9 -0.14

>  <PUBCHEM_EFFECTIVE_ROTOR_COUNT>  (1) 
5

>  <PUBCHEM_PHARMACOPHORE_FEATURES>  (1) 
8
1 1 acceptor
1 1 anion
1 2 acceptor
1 2 anion
1 3 acceptor
1 4 acceptor
6 10 12 14 16 18 20 rings
6 9 11 13 15 17 19 rings

>  <PUBCHEM_HEAVY_ATOM_COUNT>  (1) 
20

>  <PUBCHEM_ATOM_DEF_STEREO_COUNT>  (1) 
0

>  <PUBCHEM_ATOM_UDEF_STEREO_COUNT>  (1) 
0

>  <PUBCHEM_BOND_DEF_STEREO_COUNT>  (1) 
0

>  <PUBCHEM_BOND_UDEF_STEREO_COUNT>  (1) 
0

>  <PUBCHEM_ISOTOPIC_ATOM_COUNT>  (1) 
0

>  <PUBCHEM_COMPONENT_COUNT>  (1) 
1

>  <PUBCHEM_CACTVS_TAUTO_COUNT>  (1) 
1

>  <PUBCHEM_CONFORMER_ID>  (1) 
00006E0800000003

>  <PUBCHEM_MMFF94_ENERGY>  (1) 
85.2045

>  <PUBCHEM_FEATURE_SELFOVERLAP>  (1) 
40.761

>  <PUBCHEM_SHAPE_FINGERPRINT>  (1) 
10498660 4 18187923928778900149
10646746 165 18261106353313340912
10871710 139 16466418960018156640
11370993 144 17845954956464049259
11640471 11 16515694320370723279
12107183 9 17173461621439733096
12173636 292 17969493802454522293
12236239 1 16443342095887140026
12403259 415 18272368702772970688
12553582 1 17896333574384959307
12596602 18 16588586534281919952
12788726 201 16300948850379273098
13583140 156 18266719394765075722
13965767 371 16663443261327708845
14386348 63 18342746238353044091
14739800 52 17606118631538206060
15375358 24 18413385458069696043
15375462 189 15482677866156402986
15961568 22 17970630907741967796
17349148 13 16153704344894008290
173720 79 16950553330453213109
18186145 218 18340778039292649091
18915476 22 17846498106138122974
192875 21 15647050490552818069
20645477 70 17632297848122030494
20693207 138 18129402465076471262
20715895 44 15938628751505823191
21033648 29 18130210640767448712
21033650 10 17823434724717355632
21065201 7 18187651284117683050
21639500 275 17203603805017794370
22943178 12 18342462516913258686
23402539 116 18115295795759537387
23557571 272 18408890637228942781
23559900 14 18262801757320299814
238 59 17560218237928645692
3268164 11 18260818328696094351
341906 21 18040149613065550356
3472631 163 17967810526966378277
474 4 15553300700847056610
5281201 14 18343590633334410468
573450 72 17530951493149525633
5895379 119 18041290867807764708
6049 1 18271255940548327707
621550 34 18201439219943186371
633830 44 16056044683191943592
7615 1 16515404075102449231
77492 1 16443067200868891931
8272917 22 16701759179981774059
88987 49 18040435447486599479

>  <PUBCHEM_SHAPE_MULTIPOLES>  (1) 
378.15
9.59
1.97
1.66
0.14
0.63
-0.41
0.93
0.74
-1.91
-0.57
1.63
-0.3
2.65

>  <PUBCHEM_SHAPE_SELFOVERLAP>  (1) 
816.58

>  <PUBCHEM_SHAPE_VOLUME>  (1) 
206.7

>  <PUBCHEM_COORDINATE_TYPE>  (1) 
2
5
10

$$$$
