28166
     RDKit          3D

  9 11  0  0  1  0  0  0  0  0999 V2000
    1.2839    0.0179   -0.4535 N   0  0  0  0  0  0  0  0  0  0  0  0
   -0.5037    0.3400    1.1475 C   0  0  0  0  0  0  0  0  0  0  0  0
   -0.9249    1.2802    0.0800 C   0  0  0  0  0  0  0  0  0  0  0  0
    0.5510    1.0310    0.3502 C   0  0  0  0  0  0  0  0  0  0  0  0
   -0.6013   -1.0632    0.6258 C   0  0  0  0  0  0  0  0  0  0  0  0
   -1.6376    0.4971   -0.9894 C   0  0  0  0  0  0  0  0  0  0  0  0
   -1.7127   -0.9423   -0.4391 C   0  0  0  0  0  0  0  0  0  0  0  0
    0.8129   -1.3007    0.0397 C   0  0  0  0  0  0  0  0  0  0  0  0
    2.7324    0.1400   -0.3612 C   0  0  0  0  0  0  0  0  0  0  0  0
  1  4  1  0
  1  8  1  0
  1  9  1  0
  2  3  1  0
  2  4  1  0
  2  5  1  0
  3  4  1  0
  3  6  1  0
  5  7  1  0
  5  8  1  0
  6  7  1  0
M  END
>  <PUBCHEM_COMPOUND_CID>  (1) 
28166

>  <PUBCHEM_CONFORMER_RMSD>  (1) 
0.4

>  <PUBCHEM_CONFORMER_DIVERSEORDER>  (1) 
1
2

>  <PUBCHEM_MMFF94_PARTIAL_CHARGES>  (1) 
11
1 -0.7
10 0.1
11 0.1
12 0.1
2 -0.19
3 -0.19
4 0.06
5 0.09
6 0.09
8 0.27
9 0.27

>  <PUBCHEM_EFFECTIVE_ROTOR_COUNT>  (1) 
0.8

>  <PUBCHEM_PHARMACOPHORE_FEATURES>  (1) 
2
1 1 cation
8 1 2 3 4 5 6 7 8 rings

>  <PUBCHEM_HEAVY_ATOM_COUNT>  (1) 
9

>  <PUBCHEM_ATOM_DEF_STEREO_COUNT>  (1) 
0

>  <PUBCHEM_ATOM_UDEF_STEREO_COUNT>  (1) 
4

>  <PUBCHEM_BOND_DEF_STEREO_COUNT>  (1) 
0

>  <PUBCHEM_BOND_UDEF_STEREO_COUNT>  (1) 
0

>  <PUBCHEM_ISOTOPIC_ATOM_COUNT>  (1) 
0

>  <PUBCHEM_COMPONENT_COUNT>  (1) 
1

>  <PUBCHEM_CACTVS_TAUTO_COUNT>  (1) 
1

>  <PUBCHEM_CONFORMER_ID>  (1) 
00006E0600000001

>  <PUBCHEM_MMFF94_ENERGY>  (1) 
36.0348

>  <PUBCHEM_FEATURE_SELFOVERLAP>  (1) 
10.148

>  <PUBCHEM_SHAPE_FINGERPRINT>  (1) 
12423570 1 16820800323329563105
13024252 1 16081378495915241808
137420 1 13522098876869634145
16945 1 18341322340645647061
18185500 45 17690548698355758323
20653085 51 17168146702363183292
21040471 1 18194958539505957545
23552423 10 18263085422746298350
29004967 10 16916783036800261706
369184 2 18412268328665244376
5084963 1 17312817190881593652

>  <PUBCHEM_SHAPE_MULTIPOLES>  (1) 
180.23
2.52
1.38
0.98
1.53
0.1
-0.08
0.01
0.78
-0.23
-0.08
-0.23
-0.06
0.02

>  <PUBCHEM_SHAPE_SELFOVERLAP>  (1) 
386.891

>  <PUBCHEM_SHAPE_VOLUME>  (1) 
103.1

>  <PUBCHEM_COORDINATE_TYPE>  (1) 
2
5
10

$$$$
