28162
     RDKit          3D

 33 37  0  0  1  0  0  0  0  0999 V2000
   -5.0854    1.7406    1.3904 Cl  0  0  0  0  0  0  0  0  0  0  0  0
   -0.4968   -0.9832    1.6629 O   0  0  0  0  0  0  0  0  0  0  0  0
    1.5368    2.1505   -0.4564 O   0  0  0  0  0  0  0  0  0  0  0  0
   -3.4239    1.6615   -1.2941 O   0  0  0  0  0  0  0  0  0  0  0  0
    2.7229   -2.6231   -1.7619 O   0  0  0  0  0  0  0  0  0  0  0  0
    4.2258    0.6396    2.2028 O   0  0  0  0  0  0  0  0  0  0  0  0
    1.7310    4.4411   -0.3327 O   0  0  0  0  0  0  0  0  0  0  0  0
   -2.0336   -0.0666   -0.6102 N   0  0  0  0  0  0  0  0  0  0  0  0
    0.7846   -0.9756   -0.3546 N   0  0  0  0  0  0  0  0  0  0  0  0
    6.2009   -0.7665    0.9896 N   0  0  0  0  0  0  0  0  0  0  0  0
    1.7106    3.3584   -2.3610 N   0  0  0  0  0  0  0  0  0  0  0  0
   -0.8996    0.6307   -0.0644 C   0  0  0  0  0  0  0  0  0  0  0  0
   -0.9133    0.1745   -1.4625 C   0  0  0  0  0  0  0  0  0  0  0  0
    0.1320   -0.1486    0.6914 C   0  0  0  0  0  0  0  0  0  0  0  0
    0.1121   -0.9038   -1.6491 C   0  0  0  0  0  0  0  0  0  0  0  0
    1.3368    0.6023    1.3521 C   0  0  0  0  0  0  0  0  0  0  0  0
    2.1414   -1.0289   -0.1343 C   0  0  0  0  0  0  0  0  0  0  0  0
    2.5156   -0.2004    0.8384 C   0  0  0  0  0  0  0  0  0  0  0  0
   -3.2589    0.5491   -0.8017 C   0  0  0  0  0  0  0  0  0  0  0  0
    1.4786    2.0703    0.9556 C   0  0  0  0  0  0  0  0  0  0  0  0
    3.0901   -1.8667   -0.8697 C   0  0  0  0  0  0  0  0  0  0  0  0
    3.9083   -0.0992    1.2759 C   0  0  0  0  0  0  0  0  0  0  0  0
   -0.9836   -0.2237    2.7585 C   0  0  0  0  0  0  0  0  0  0  0  0
   -4.4322   -0.2534   -0.3537 C   0  0  0  0  0  0  0  0  0  0  0  0
    4.5303   -1.7536   -0.4605 C   0  0  0  0  0  0  0  0  0  0  0  0
    4.9192   -0.9342    0.5412 C   0  0  0  0  0  0  0  0  0  0  0  0
   -5.3087    0.2068    0.6284 C   0  0  0  0  0  0  0  0  0  0  0  0
   -4.6411   -1.4974   -0.9487 C   0  0  0  0  0  0  0  0  0  0  0  0
    5.4624   -2.6272   -1.2575 C   0  0  0  0  0  0  0  0  0  0  0  0
    1.6651    3.4075   -0.9897 C   0  0  0  0  0  0  0  0  0  0  0  0
   -6.3953   -0.5775    1.0158 C   0  0  0  0  0  0  0  0  0  0  0  0
   -5.7276   -2.2816   -0.5612 C   0  0  0  0  0  0  0  0  0  0  0  0
   -6.6046   -1.8218    0.4210 C   0  0  0  0  0  0  0  0  0  0  0  0
  1 27  1  0
  2 14  1  0
  2 23  1  0
  3 20  1  0
  3 30  1  0
  4 19  2  0
  5 21  2  0
  6 22  2  0
  7 30  2  0
  8 12  1  0
  8 13  1  0
  8 19  1  0
  9 14  1  0
  9 15  1  0
  9 17  1  0
 10 26  1  0
 11 30  1  0
 12 13  1  0
 12 14  1  0
 13 15  1  0
 14 16  1  0
 16 18  1  0
 16 20  1  0
 17 18  2  0
 17 21  1  0
 18 22  1  0
 19 24  1  0
 21 25  1  0
 22 26  1  0
 24 27  2  0
 24 28  1  0
 25 26  2  0
 25 29  1  0
 27 31  1  0
 28 32  2  0
 31 33  2  0
 32 33  1  0
M  END
>  <PUBCHEM_COMPOUND_CID>  (1) 
28162

>  <PUBCHEM_CONFORMER_RMSD>  (1) 
0.8

>  <PUBCHEM_CONFORMER_DIVERSEORDER>  (1) 
8
18
65
108
24
30
47
89
119
62
57
82
14
116
66
88
63
22
52
49
79
26
53
111
44
17
39
97
73
76
115
114
41
80
99
4
77
87
113
50
36
74
109
56
25
29
5
60
102
45
61
85
27
32
68
7
34
101
55
75
12
93
95
117
33
107
3
118
35
69
110
16
92
81
106
6
2
51
98
21
28
11
48
78
100
1
103
67
19
31
42
94
20
104
96
105
10
13
86
37
112
71
90
38
9
84
91
23
64
70
15
40
83
46
54
59
72
43
58

>  <PUBCHEM_MMFF94_PARTIAL_CHARGES>  (1) 
43
1 -0.18
10 -0.9
11 -0.8
12 -0.05
13 -0.05
14 0.74
15 0.46
16 0.14
17 0.11
18 -0.12
19 0.54
2 -0.56
20 0.28
21 0.54
22 0.54
23 0.28
24 0.09
25 -0.12
26 0.11
27 0.18
28 -0.15
29 0.14
3 -0.43
30 0.78
31 -0.15
32 -0.15
33 -0.15
34 0.1
35 0.1
4 -0.57
44 0.15
48 0.4
49 0.4
5 -0.57
50 0.15
51 0.15
52 0.15
53 0.37
54 0.37
6 -0.57
7 -0.57
8 -0.36
9 -0.84

>  <PUBCHEM_EFFECTIVE_ROTOR_COUNT>  (1) 
6.6

>  <PUBCHEM_PHARMACOPHORE_FEATURES>  (1) 
13
1 10 cation
1 10 donor
1 11 donor
1 2 acceptor
1 4 acceptor
1 5 acceptor
1 6 acceptor
1 7 acceptor
1 9 cation
5 9 14 16 17 18 rings
6 17 18 21 22 25 26 rings
6 24 27 28 31 32 33 rings
6 8 9 12 13 14 15 rings

>  <PUBCHEM_HEAVY_ATOM_COUNT>  (1) 
33

>  <PUBCHEM_ATOM_DEF_STEREO_COUNT>  (1) 
2

>  <PUBCHEM_ATOM_UDEF_STEREO_COUNT>  (1) 
2

>  <PUBCHEM_BOND_DEF_STEREO_COUNT>  (1) 
0

>  <PUBCHEM_BOND_UDEF_STEREO_COUNT>  (1) 
0

>  <PUBCHEM_ISOTOPIC_ATOM_COUNT>  (1) 
0

>  <PUBCHEM_COMPONENT_COUNT>  (1) 
1

>  <PUBCHEM_CACTVS_TAUTO_COUNT>  (1) 
42

>  <PUBCHEM_CONFORMER_ID>  (1) 
00006E0200000008

>  <PUBCHEM_MMFF94_ENERGY>  (1) 
124.3626

>  <PUBCHEM_FEATURE_SELFOVERLAP>  (1) 
66.145

>  <PUBCHEM_SHAPE_FINGERPRINT>  (1) 
10076449 9 18342184337031279566
11578080 2 16952561192602870964
12107698 1 18333728022950313349
12166972 35 18272373087327834256
12236239 1 16200425853817665426
12422481 6 17561079164133567749
13009979 54 18130796629009919465
13782708 43 17894624833829462531
14341114 176 18131071524328509667
14849402 71 18264773331893186696
14955137 171 18272088288057180336
15021287 119 18411418423499351987
15238133 3 17060073544775744171
15840311 113 17632578210839407257
1813 80 18335700512070912812
18785283 64 18337389469142088628
21033648 29 17845067620288705665
21033650 10 17534073964828833278
21267235 1 17346321441412817374
23559900 14 18410002244149048439
23569943 247 17974288724892216971
249057 3 18338519634805991817
3552219 110 17846510188677627274
46194498 28 18334573589734968021
5104073 3 17988917821604133947
6009941 240 18058734590028623139
6086070 43 17823953724666030677
6669772 16 15359131340806518950
7495541 125 18040432204675540679

>  <PUBCHEM_SHAPE_MULTIPOLES>  (1) 
625.85
14.08
3.31
1.96
12.35
3.01
-0.36
-8.94
-2.56
-2.44
1.98
-0.68
0.55
0.08

>  <PUBCHEM_SHAPE_SELFOVERLAP>  (1) 
1376.721

>  <PUBCHEM_SHAPE_VOLUME>  (1) 
340.6

>  <PUBCHEM_COORDINATE_TYPE>  (1) 
2
5
10

$$$$
