28178
     RDKit          3D

 32 35  0  0  1  0  0  0  0  0999 V2000
    2.4754   -4.2222   -0.1927 P   0  0  0  0  0  0  0  0  0  0  0  0
    2.2534   -0.3078    0.9143 O   0  0  0  0  0  0  0  0  0  0  0  0
    1.3675   -3.2526   -0.8827 O   0  0  0  0  0  0  0  0  0  0  0  0
    3.5190   -3.0590    0.2595 O   0  0  0  0  0  0  0  0  0  0  0  0
    4.0993    1.6840    0.2630 O   0  0  0  0  0  0  0  0  0  0  0  0
    3.2067   -4.9190   -1.4541 O   0  0  0  0  0  0  0  0  0  0  0  0
    1.9914   -5.1407    0.8862 O   0  0  0  0  0  0  0  0  0  0  0  0
    4.6643    2.9766   -1.5627 O   0  0  0  0  0  0  0  0  0  0  0  0
   -6.4908   -0.2413    0.3205 O   0  0  0  0  0  0  0  0  0  0  0  0
   -0.0145   -0.5178    0.2538 N   0  0  0  0  0  0  0  0  0  0  0  0
   -1.4111    1.1402   -0.2661 N   0  0  0  0  0  0  0  0  0  0  0  0
   -1.6177   -2.2361    0.8683 N   0  0  0  0  0  0  0  0  0  0  0  0
   -3.9101   -1.4268    0.6538 N   0  0  0  0  0  0  0  0  0  0  0  0
   -4.4139    0.7906   -0.0743 N   0  0  0  0  0  0  0  0  0  0  0  0
    1.7878   -1.8917   -0.7951 C   0  0  0  0  0  0  0  0  0  0  0  0
    3.2849   -1.8881   -0.5399 C   0  0  0  0  0  0  0  0  0  0  0  0
    1.2456   -1.2279    0.4620 C   0  0  0  0  0  0  0  0  0  0  0  0
    3.5096   -0.6306    0.2807 C   0  0  0  0  0  0  0  0  0  0  0  0
    3.9222    0.5567   -0.5771 C   0  0  0  0  0  0  0  0  0  0  0  0
   -1.2739   -1.0090    0.4492 C   0  0  0  0  0  0  0  0  0  0  0  0
   -0.1490    0.7762   -0.1748 C   0  0  0  0  0  0  0  0  0  0  0  0
   -2.1251    0.0340    0.1210 C   0  0  0  0  0  0  0  0  0  0  0  0
   -3.4903   -0.2084    0.2354 C   0  0  0  0  0  0  0  0  0  0  0  0
    4.4754    2.8470   -0.3610 C   0  0  0  0  0  0  0  0  0  0  0  0
    4.6216    3.9447    0.6681 C   0  0  0  0  0  0  0  0  0  0  0  0
   -2.9617   -2.3512    0.9400 C   0  0  0  0  0  0  0  0  0  0  0  0
    5.0650    5.2630    0.0387 C   0  0  0  0  0  0  0  0  0  0  0  0
   -5.8157    0.7251   -0.0179 C   0  0  0  0  0  0  0  0  0  0  0  0
   -6.4472    2.0362   -0.4704 C   0  0  0  0  0  0  0  0  0  0  0  0
    5.1771    6.3668    1.0777 C   0  0  0  0  0  0  0  0  0  0  0  0
   -7.9738    2.0330   -0.4333 C   0  0  0  0  0  0  0  0  0  0  0  0
   -8.5716    3.3564   -0.8901 C   0  0  0  0  0  0  0  0  0  0  0  0
  1  3  1  0
  1  4  1  0
  1  6  1  0
  1  7  2  0
  2 17  1  0
  2 18  1  0
  3 15  1  0
  4 16  1  0
  5 19  1  0
  5 24  1  0
  8 24  2  0
  9 28  2  0
 10 17  1  0
 10 20  1  0
 10 21  1  0
 11 21  2  0
 11 22  1  0
 12 20  1  0
 12 26  2  0
 13 23  2  0
 13 26  1  0
 14 23  1  0
 14 28  1  0
 15 16  1  0
 15 17  1  0
 16 18  1  0
 18 19  1  0
 20 22  2  0
 22 23  1  0
 24 25  1  0
 25 27  1  0
 27 30  1  0
 28 29  1  0
 29 31  1  0
 31 32  1  0
M  END
>  <PUBCHEM_COMPOUND_CID>  (1) 
28178

>  <PUBCHEM_CONFORMER_RMSD>  (1) 
1

>  <PUBCHEM_CONFORMER_DIVERSEORDER>  (1) 
1
19
78
62
22
51
88
71
8
38
42
82
95
70
72
55
61
40
35
49
59
75
12
65
90
93
86
14
23
46
20
39
57
85
25
87
56
9
10
47
84
27
92
73
29
6
77
81
44
32
52
43
24
30
17
50
76
2
64
37
66
11
80
4
94
53
68
26
21
41
18
89
58
16
31
28
15
69
83
36
54
5
74
91
79
48
33
67
34
13
60
3
63
7
45

>  <PUBCHEM_MMFF94_PARTIAL_CHARGES>  (1) 
32
1 1.51
10 0.05
11 -0.57
12 -0.57
13 -0.62
14 -0.55
15 0.28
16 0.28
17 0.54
18 0.28
19 0.28
2 -0.56
20 0.11
21 0.04
22 0.23
23 0.43
24 0.66
25 0.06
26 0.47
28 0.57
29 0.06
3 -0.55
39 0.15
4 -0.55
40 0.5
43 0.15
44 0.37
5 -0.43
6 -0.77
7 -0.7
8 -0.57
9 -0.57

>  <PUBCHEM_EFFECTIVE_ROTOR_COUNT>  (1) 
11

>  <PUBCHEM_PHARMACOPHORE_FEATURES>  (1) 
15
1 14 donor
1 2 acceptor
1 30 hydrophobe
1 32 hydrophobe
1 6 acceptor
1 7 acceptor
1 8 acceptor
1 9 acceptor
3 10 11 21 cation
3 10 12 20 cation
3 12 13 26 cation
5 1 3 4 15 16 rings
5 10 11 20 21 22 rings
5 2 15 16 17 18 rings
6 12 13 20 22 23 26 rings

>  <PUBCHEM_HEAVY_ATOM_COUNT>  (1) 
32

>  <PUBCHEM_ATOM_DEF_STEREO_COUNT>  (1) 
4

>  <PUBCHEM_ATOM_UDEF_STEREO_COUNT>  (1) 
0

>  <PUBCHEM_BOND_DEF_STEREO_COUNT>  (1) 
0

>  <PUBCHEM_BOND_UDEF_STEREO_COUNT>  (1) 
0

>  <PUBCHEM_ISOTOPIC_ATOM_COUNT>  (1) 
0

>  <PUBCHEM_COMPONENT_COUNT>  (1) 
1

>  <PUBCHEM_CACTVS_TAUTO_COUNT>  (1) 
4

>  <PUBCHEM_CONFORMER_ID>  (1) 
00006E1200000001

>  <PUBCHEM_MMFF94_ENERGY>  (1) 
42.5945

>  <PUBCHEM_FEATURE_SELFOVERLAP>  (1) 
77.216

>  <PUBCHEM_SHAPE_FINGERPRINT>  (1) 
10411042 1 17762055441727914190
10673678 19 18339364166134652569
10675989 125 18410857633398055344
10835480 77 18409166585279069245
10864689 126 18267593596957626532
11135609 127 18412254043551868029
11386260 185 18198060279072043005
12741549 16 18054494821715381312
13540713 4 18188510024717463203
13955234 65 18410016498750326298
14068700 686 18265621064180219307
14790565 3 18122629619820844644
15183329 4 18054790586286135947
15324884 4 17901418845770385538
15400415 2 18337957916680132809
15840311 113 18263084319752243085
16664035 1 18048876290869291523
19053607 189 18340755052797142601
19427546 62 18409449219433012002
23559900 14 18337955593319214082
23569914 2 17317843029164714085
255183 451 17841155446375211990
3534868 343 17702389438091673577
376196 1 18334857277063201218
5219985 13 18194684993519053164
563151 97 18196082464076211863
59521099 67 18123181304022197258
6695519 79 18052845798459599826
7808743 9 17691686006550697616

>  <PUBCHEM_SHAPE_MULTIPOLES>  (1) 
590.53
17.85
8.08
0.99
38.66
4.39
0.11
27.34
2.74
-17.37
-0.39
-0.49
-0.07
3.18

>  <PUBCHEM_SHAPE_SELFOVERLAP>  (1) 
1238.504

>  <PUBCHEM_SHAPE_VOLUME>  (1) 
335.4

>  <PUBCHEM_COORDINATE_TYPE>  (1) 
2
5
10

$$$$
