28176
     RDKit          3D

 12 12  0  0  1  0  0  0  0  0999 V2000
   -2.7105   -0.8969    1.4662 Cl  0  0  0  0  0  0  0  0  0  0  0  0
   -3.6369    0.8987   -0.6277 Cl  0  0  0  0  0  0  0  0  0  0  0  0
   -2.2378   -1.5425   -1.3367 Cl  0  0  0  0  0  0  0  0  0  0  0  0
   -1.0647    1.6596    0.8008 O   0  0  0  0  0  0  0  0  0  0  0  0
    0.1273   -0.3206    0.2851 N   0  0  0  0  0  0  0  0  0  0  0  0
    2.3655   -0.9624    0.5048 N   0  0  0  0  0  0  0  0  0  0  0  0
    2.0289    0.8997   -0.5881 N   0  0  0  0  0  0  0  0  0  0  0  0
    3.6059   -0.5695    0.1780 N   0  0  0  0  0  0  0  0  0  0  0  0
   -0.9668    0.5598   -0.1051 C   0  0  0  0  0  0  0  0  0  0  0  0
   -2.3072   -0.2064   -0.1392 C   0  0  0  0  0  0  0  0  0  0  0  0
    1.4488   -0.0811    0.0434 C   0  0  0  0  0  0  0  0  0  0  0  0
    3.3476    0.5617   -0.4816 C   0  0  0  0  0  0  0  0  0  0  0  0
  1 10  1  0
  2 10  1  0
  3 10  1  0
  4  9  1  0
  5  9  1  0
  5 11  1  0
  6  8  1  0
  6 11  1  0
  7 11  2  0
  7 12  1  0
  8 12  2  0
  9 10  1  0
M  END
>  <PUBCHEM_COMPOUND_CID>  (1) 
28176

>  <PUBCHEM_CONFORMER_RMSD>  (1) 
0.6

>  <PUBCHEM_CONFORMER_DIVERSEORDER>  (1) 
1
19
11
13
7
17
9
12
5
20
14
6
15
3
18
2
10
8
16
4

>  <PUBCHEM_MMFF94_PARTIAL_CHARGES>  (1) 
16
1 -0.29
10 0.87
11 0.27
12 0.37
14 0.4
15 0.27
16 0.4
17 0.15
2 -0.29
3 -0.29
4 -0.68
5 -0.85
6 0.3
7 -0.57
8 -0.71
9 0.65

>  <PUBCHEM_EFFECTIVE_ROTOR_COUNT>  (1) 
3

>  <PUBCHEM_PHARMACOPHORE_FEATURES>  (1) 
6
1 4 acceptor
1 4 donor
1 5 donor
1 6 donor
4 5 6 7 11 cation
5 6 7 8 11 12 rings

>  <PUBCHEM_HEAVY_ATOM_COUNT>  (1) 
12

>  <PUBCHEM_ATOM_DEF_STEREO_COUNT>  (1) 
0

>  <PUBCHEM_ATOM_UDEF_STEREO_COUNT>  (1) 
1

>  <PUBCHEM_BOND_DEF_STEREO_COUNT>  (1) 
0

>  <PUBCHEM_BOND_UDEF_STEREO_COUNT>  (1) 
0

>  <PUBCHEM_ISOTOPIC_ATOM_COUNT>  (1) 
0

>  <PUBCHEM_COMPONENT_COUNT>  (1) 
1

>  <PUBCHEM_CACTVS_TAUTO_COUNT>  (1) 
5

>  <PUBCHEM_CONFORMER_ID>  (1) 
00006E1000000001

>  <PUBCHEM_MMFF94_ENERGY>  (1) 
12.0969

>  <PUBCHEM_FEATURE_SELFOVERLAP>  (1) 
30.526

>  <PUBCHEM_SHAPE_FINGERPRINT>  (1) 
11062470 55 18260827081475550517
12932764 1 18271527588719051400
13024252 1 17748827419423456963
14325111 11 17894916243202152248
14577589 140 18410292502022798943
15775835 57 18412543214787648182
18186145 218 16732696155916506254
200 152 18410285917489774366
20279233 1 17060334119708414702
20281407 28 17846497040986103314
20645477 70 18338794507711275478
20871999 31 18200020863350562015
21119208 17 18410008810489405780
23402539 116 18341041991446162420
23402655 69 18335138674593201028
3248919 1 17749661973891014746
8030462 33 18410296887073547192

>  <PUBCHEM_SHAPE_MULTIPOLES>  (1) 
226.77
6.49
1.37
1.13
2.94
0.04
0.06
-0.08
-0.56
-0.71
-0.07
-0.98
-0.33
-0.23

>  <PUBCHEM_SHAPE_SELFOVERLAP>  (1) 
430.486

>  <PUBCHEM_SHAPE_VOLUME>  (1) 
142.5

>  <PUBCHEM_COORDINATE_TYPE>  (1) 
2
5
10

$$$$
