28171
     RDKit          3D

 19 21  0  0  0  0  0  0  0  0999 V2000
    3.2435   -1.6004    0.1328 O   0  0  0  0  0  0  0  0  0  0  0  0
    4.0563    0.6494   -0.1532 O   0  0  0  0  0  0  0  0  0  0  0  0
   -2.3043    0.9305    0.1665 N   0  0  0  0  0  0  0  0  0  0  0  0
   -1.9904   -1.4309    0.4014 C   0  0  0  0  0  0  0  0  0  0  0  0
   -1.3959   -0.0696    0.2236 C   0  0  0  0  0  0  0  0  0  0  0  0
   -1.6639   -2.4002   -0.7980 C   0  0  0  0  0  0  0  0  0  0  0  0
   -3.5488   -1.3249    0.4762 C   0  0  0  0  0  0  0  0  0  0  0  0
   -1.5781   -2.1739    1.7168 C   0  0  0  0  0  0  0  0  0  0  0  0
   -0.0155    0.1104    0.1282 C   0  0  0  0  0  0  0  0  0  0  0  0
    0.4599    1.4389   -0.0405 C   0  0  0  0  0  0  0  0  0  0  0  0
   -2.2174   -1.9487   -2.1466 C   0  0  0  0  0  0  0  0  0  0  0  0
    0.8878   -0.9655    0.1941 C   0  0  0  0  0  0  0  0  0  0  0  0
   -1.8161    2.1792    0.0053 C   0  0  0  0  0  0  0  0  0  0  0  0
   -0.4675    2.4841   -0.1018 C   0  0  0  0  0  0  0  0  0  0  0  0
    2.2351   -0.6873    0.0901 C   0  0  0  0  0  0  0  0  0  0  0  0
    1.8419    1.6767   -0.1419 C   0  0  0  0  0  0  0  0  0  0  0  0
    2.6985    0.5960   -0.0730 C   0  0  0  0  0  0  0  0  0  0  0  0
   -2.8197    3.2825   -0.0577 C   0  0  0  0  0  0  0  0  0  0  0  0
    4.3949   -0.7463   -0.0224 C   0  0  0  0  0  0  0  0  0  0  0  0
  1 15  1  0
  1 19  1  0
  2 17  1  0
  2 19  1  0
  3  5  1  0
  3 13  2  0
  4  5  1  0
  4  6  1  0
  4  7  1  0
  4  8  1  0
  5  9  2  0
  6 11  1  0
  9 10  1  0
  9 12  1  0
 10 14  2  0
 10 16  1  0
 12 15  2  0
 13 14  1  0
 13 18  1  0
 15 17  1  0
 16 17  2  0
M  END
>  <PUBCHEM_COMPOUND_CID>  (1) 
28171

>  <PUBCHEM_CONFORMER_RMSD>  (1) 
0.6

>  <PUBCHEM_CONFORMER_DIVERSEORDER>  (1) 
1
2
3

>  <PUBCHEM_MMFF94_PARTIAL_CHARGES>  (1) 
16
1 -0.36
12 -0.15
13 0.17
14 -0.15
15 0.08
16 -0.15
17 0.08
18 0.14
19 0.56
2 -0.36
3 -0.62
31 0.15
32 0.15
33 0.15
4 0.14
5 0.17

>  <PUBCHEM_EFFECTIVE_ROTOR_COUNT>  (1) 
2.6

>  <PUBCHEM_PHARMACOPHORE_FEATURES>  (1) 
8
1 1 acceptor
1 11 hydrophobe
1 2 acceptor
1 3 acceptor
3 4 7 8 hydrophobe
5 1 2 15 17 19 rings
6 3 5 9 10 13 14 rings
6 9 10 12 15 16 17 rings

>  <PUBCHEM_HEAVY_ATOM_COUNT>  (1) 
19

>  <PUBCHEM_ATOM_DEF_STEREO_COUNT>  (1) 
0

>  <PUBCHEM_ATOM_UDEF_STEREO_COUNT>  (1) 
0

>  <PUBCHEM_BOND_DEF_STEREO_COUNT>  (1) 
0

>  <PUBCHEM_BOND_UDEF_STEREO_COUNT>  (1) 
0

>  <PUBCHEM_ISOTOPIC_ATOM_COUNT>  (1) 
0

>  <PUBCHEM_COMPONENT_COUNT>  (1) 
1

>  <PUBCHEM_CACTVS_TAUTO_COUNT>  (1) 
1

>  <PUBCHEM_CONFORMER_ID>  (1) 
00006E0B00000001

>  <PUBCHEM_MMFF94_ENERGY>  (1) 
69.3177

>  <PUBCHEM_FEATURE_SELFOVERLAP>  (1) 
40.778

>  <PUBCHEM_SHAPE_FINGERPRINT>  (1) 
104564 63 18410578391798459381
10616163 171 18410579453146316710
10967382 1 17832993015283274472
1100329 8 17468192245873611859
11578080 2 17416949802797712521
12035759 4 17979040857618077581
12553582 1 18195529413869303206
12730499 353 17394728376949633189
13140716 1 18120942955824491841
13380535 76 18123469375789222997
138480 1 16103040666110729889
13911987 19 17253709889825850852
14115302 16 17531817981511591247
14178342 30 18335125467853563576
14790565 3 17182519810694638325
15042514 8 18263929838737972585
15309172 13 18049169860426116673
15906896 17 18339359669709380455
16752209 62 18339348687388353155
16945 1 17833834145910219328
18927931 339 18410857685786735310
19591789 44 17686906011995660905
20510252 161 18412548686565648472
20600515 1 14834458724791800379
20602899 9 16844999114126463583
20645476 183 17607274011308426692
20871998 184 18343025467019388111
21041028 32 18191318263023335793
21267235 1 18336558178295716362
21339142 126 18342455975773005975
21501502 16 18335144180862612880
21524375 3 18122058694076426241
22112679 90 17628646541788885143
22182313 1 18056778532540372775
2334 1 18337393863046359720
23388829 49 18124595537778780516
23402539 116 18342733023112993423
23419403 2 16751484696427490032
23557571 272 18342469123242743196
23558518 356 18114467859230135864
23559900 14 18197213647488991506
23728640 28 18268985406103530979
2748010 2 18053117133055011567
298252 57 18124590890813934105
3084891 72 17910106911268762296
3091708 16 8988603760379451657
335352 9 17976541611674219454
34934 24 18267865175816918777
352729 6 18124037836280838513
5104073 3 18409728427231038976
559249 180 18192147093291725930
6138700 20 17042891188247387342
6338986 31 18055618766710769591
6438718 38 18272094876774071003
69090 78 18266455408431191017
6992083 37 17986408890994131379
7832392 63 18335984151927470200
81228 2 18335408110697719401
8809292 202 18334582317319373570
90525 40 18342741792914232231
9709674 26 18340491058642722510

>  <PUBCHEM_SHAPE_MULTIPOLES>  (1) 
374.29
6.06
3.34
1.09
5.73
1.78
-0.27
-1.36
-0.12
-3.03
-0.21
-0.94
-0.93
-0.24

>  <PUBCHEM_SHAPE_SELFOVERLAP>  (1) 
819.369

>  <PUBCHEM_SHAPE_VOLUME>  (1) 
205.7

>  <PUBCHEM_COORDINATE_TYPE>  (1) 
2
5
10

$$$$
