28181
     RDKit          3D

 20 21  0  0  0  0  0  0  0  0999 V2000
   -3.3414   -0.8952    0.4403 N   0  0  0  0  0  0  0  0  0  0  0  0
   -2.1064   -0.3683    0.5092 N   0  0  0  0  0  0  0  0  0  0  0  0
    4.2653    0.3639   -0.0039 N   0  0  0  0  0  0  0  0  0  0  0  0
   -5.4946    1.2669   -0.0096 C   0  0  0  0  0  0  0  0  0  0  0  0
   -4.4910    1.4015   -1.1509 C   0  0  0  0  0  0  0  0  0  0  0  0
   -4.8300    0.9387    1.3285 C   0  0  0  0  0  0  0  0  0  0  0  0
   -4.0251    0.0899   -1.7831 C   0  0  0  0  0  0  0  0  0  0  0  0
   -4.3083   -0.4924    1.4551 C   0  0  0  0  0  0  0  0  0  0  0  0
   -3.9318   -1.1343   -0.8710 C   0  0  0  0  0  0  0  0  0  0  0  0
   -1.1832   -1.1475    0.0450 C   0  0  0  0  0  0  0  0  0  0  0  0
    2.9063   -0.0129    0.0082 C   0  0  0  0  0  0  0  0  0  0  0  0
    0.2174   -0.7587    0.0320 C   0  0  0  0  0  0  0  0  0  0  0  0
    4.6717    1.6615    0.4983 C   0  0  0  0  0  0  0  0  0  0  0  0
    5.2718   -0.5358   -0.5314 C   0  0  0  0  0  0  0  0  0  0  0  0
    2.5233   -1.2584   -0.4898 C   0  0  0  0  0  0  0  0  0  0  0  0
    1.9450    0.8598    0.5181 C   0  0  0  0  0  0  0  0  0  0  0  0
    1.1792   -1.6311   -0.4779 C   0  0  0  0  0  0  0  0  0  0  0  0
    0.6009    0.4870    0.5300 C   0  0  0  0  0  0  0  0  0  0  0  0
    4.4612    2.7448   -0.5459 C   0  0  0  0  0  0  0  0  0  0  0  0
    5.6694   -1.5793    0.4987 C   0  0  0  0  0  0  0  0  0  0  0  0
  1  2  1  0
  1  8  1  0
  1  9  1  0
  2 10  2  0
  3 11  1  0
  3 13  1  0
  3 14  1  0
  4  5  1  0
  4  6  1  0
  5  7  1  0
  6  8  1  0
  7  9  1  0
 10 12  1  0
 11 15  2  0
 11 16  1  0
 12 17  2  0
 12 18  1  0
 13 19  1  0
 14 20  1  0
 15 17  1  0
 16 18  2  0
M  END
>  <PUBCHEM_COMPOUND_CID>  (1) 
28181

>  <PUBCHEM_CONFORMER_RMSD>  (1) 
0.8

>  <PUBCHEM_CONFORMER_DIVERSEORDER>  (1) 
1
15
46
41
32
48
53
52
5
42
25
31
37
13
27
43
29
39
51
35
17
33
38
21
18
3
12
44
4
47
45
19
28
14
8
11
34
20
2
50
40
10
6
16
24
9
7
22
26
49
36
23
30

>  <PUBCHEM_MMFF94_PARTIAL_CHARGES>  (1) 
19
1 -0.49
10 0.3
11 0.1
12 0.09
13 0.37
14 0.37
15 -0.15
16 -0.15
17 -0.15
18 -0.15
2 -0.5
3 -0.84
33 0.06
38 0.15
39 0.15
40 0.15
41 0.15
8 0.27
9 0.27

>  <PUBCHEM_EFFECTIVE_ROTOR_COUNT>  (1) 
6.4

>  <PUBCHEM_PHARMACOPHORE_FEATURES>  (1) 
4
1 2 acceptor
1 3 cation
6 11 12 15 16 17 18 rings
7 1 4 5 6 7 8 9 rings

>  <PUBCHEM_HEAVY_ATOM_COUNT>  (1) 
20

>  <PUBCHEM_ATOM_DEF_STEREO_COUNT>  (1) 
0

>  <PUBCHEM_ATOM_UDEF_STEREO_COUNT>  (1) 
0

>  <PUBCHEM_BOND_DEF_STEREO_COUNT>  (1) 
0

>  <PUBCHEM_BOND_UDEF_STEREO_COUNT>  (1) 
1

>  <PUBCHEM_ISOTOPIC_ATOM_COUNT>  (1) 
0

>  <PUBCHEM_COMPONENT_COUNT>  (1) 
1

>  <PUBCHEM_CACTVS_TAUTO_COUNT>  (1) 
1

>  <PUBCHEM_CONFORMER_ID>  (1) 
00006E1500000001

>  <PUBCHEM_MMFF94_ENERGY>  (1) 
55.7543

>  <PUBCHEM_FEATURE_SELFOVERLAP>  (1) 
20.297

>  <PUBCHEM_SHAPE_FINGERPRINT>  (1) 
10763959 59 18333449842234676740
11089746 13 16845286129610946906
12236239 1 17274821346180881335
12403259 415 18113902671403074126
12616971 3 18060707186312427314
13675066 3 17676207995933509218
13760787 5 18343585161572325634
14528608 73 17988923413730316676
15183329 4 18272370854213663958
15196674 1 18342177799325663586
15348495 7 17895198843586908560
15788980 27 18341894095176725019
17844677 252 18259707812945478380
17870717 6 13758356674760212117
19377110 9 12179843931350580164
19433438 28 17749112196755219177
200 152 17203324507573730275
20281389 69 18259703385113900869
20645477 56 18040152894953366375
20645477 70 18202008689821091070
21033648 29 17967525796235359245
21709351 56 18272087214309802631
23402539 116 17132114628104863083
23402655 69 17917993867098580143
23557571 272 17167869629648998559
23559900 14 18343867706397228874
2838139 119 18337947896948589005
2916195 48 18186519929807940393
29717793 49 17203896236682833076
300161 21 16773794753917612675
34797466 226 14404903647659391008
3545911 37 18272373062254303875
4072396 5 18200868483931962858
5104073 3 18411982502776296666
542803 24 18260268555243433451
59755656 520 18186800275752058571
633830 44 18261103114997936726
90127 26 18040152937412376952

>  <PUBCHEM_SHAPE_MULTIPOLES>  (1) 
396.65
14.77
2
1.21
0.16
0.88
-0.1
3.77
-0.02
2.07
-0.24
-1.73
0.1
-0.03

>  <PUBCHEM_SHAPE_SELFOVERLAP>  (1) 
803.458

>  <PUBCHEM_SHAPE_VOLUME>  (1) 
227

>  <PUBCHEM_COORDINATE_TYPE>  (1) 
2
5
10

$$$$
