28185
     RDKit          3D

 21 24  0  0  0  0  0  0  0  0999 V2000
    3.0302    2.4220   -0.3327 O   0  0  0  0  0  0  0  0  0  0  0  0
    4.4714    0.7231    0.5845 O   0  0  0  0  0  0  0  0  0  0  0  0
   -1.1896   -1.9739   -0.5627 N   0  0  0  0  0  0  0  0  0  0  0  0
   -2.4362    0.9680   -0.1940 C   0  0  0  0  0  0  0  0  0  0  0  0
   -3.2440   -0.0256    0.6524 C   0  0  0  0  0  0  0  0  0  0  0  0
   -3.5460    1.8551   -0.7746 C   0  0  0  0  0  0  0  0  0  0  0  0
   -4.3676    0.8024    1.2715 C   0  0  0  0  0  0  0  0  0  0  0  0
   -4.5623    2.0097    0.3545 C   0  0  0  0  0  0  0  0  0  0  0  0
   -1.6477    0.2580   -1.2964 C   0  0  0  0  0  0  0  0  0  0  0  0
   -1.4670    1.7843    0.6767 C   0  0  0  0  0  0  0  0  0  0  0  0
   -0.6799   -0.7332   -0.7207 C   0  0  0  0  0  0  0  0  0  0  0  0
    0.6215   -0.3605   -0.3920 C   0  0  0  0  0  0  0  0  0  0  0  0
    1.4684   -1.3655    0.1488 C   0  0  0  0  0  0  0  0  0  0  0  0
    1.1003    0.9485   -0.5784 C   0  0  0  0  0  0  0  0  0  0  0  0
   -0.3564   -2.9025   -0.0461 C   0  0  0  0  0  0  0  0  0  0  0  0
    0.9583   -2.6564    0.3203 C   0  0  0  0  0  0  0  0  0  0  0  0
    2.7923   -1.0466    0.4988 C   0  0  0  0  0  0  0  0  0  0  0  0
    2.4054    1.2179   -0.2215 C   0  0  0  0  0  0  0  0  0  0  0  0
    3.2272    0.2489    0.3016 C   0  0  0  0  0  0  0  0  0  0  0  0
   -0.9170   -4.2747    0.1298 C   0  0  0  0  0  0  0  0  0  0  0  0
    4.3391    2.1011    0.1804 C   0  0  0  0  0  0  0  0  0  0  0  0
  1 18  1  0
  1 21  1  0
  2 19  1  0
  2 21  1  0
  3 11  1  0
  3 15  2  0
  4  5  1  0
  4  6  1  0
  4  9  1  0
  4 10  1  0
  5  7  1  0
  6  8  1  0
  7  8  1  0
  9 11  1  0
 11 12  2  0
 12 13  1  0
 12 14  1  0
 13 16  2  0
 13 17  1  0
 14 18  2  0
 15 16  1  0
 15 20  1  0
 17 19  2  0
 18 19  1  0
M  END
>  <PUBCHEM_COMPOUND_CID>  (1) 
28185

>  <PUBCHEM_CONFORMER_RMSD>  (1) 
0.6

>  <PUBCHEM_CONFORMER_DIVERSEORDER>  (1) 
10
13
1
14
7
6
5
8
12
3
9
4
2
11

>  <PUBCHEM_MMFF94_PARTIAL_CHARGES>  (1) 
16
1 -0.36
11 0.17
14 -0.15
15 0.17
16 -0.15
17 -0.15
18 0.08
19 0.08
2 -0.36
20 0.14
21 0.56
3 -0.62
35 0.15
36 0.15
37 0.15
9 0.14

>  <PUBCHEM_EFFECTIVE_ROTOR_COUNT>  (1) 
3.6

>  <PUBCHEM_PHARMACOPHORE_FEATURES>  (1) 
7
1 1 acceptor
1 2 acceptor
1 3 acceptor
5 1 2 18 19 21 rings
5 4 5 6 7 8 rings
6 12 13 14 17 18 19 rings
6 3 11 12 13 15 16 rings

>  <PUBCHEM_HEAVY_ATOM_COUNT>  (1) 
21

>  <PUBCHEM_ATOM_DEF_STEREO_COUNT>  (1) 
0

>  <PUBCHEM_ATOM_UDEF_STEREO_COUNT>  (1) 
0

>  <PUBCHEM_BOND_DEF_STEREO_COUNT>  (1) 
0

>  <PUBCHEM_BOND_UDEF_STEREO_COUNT>  (1) 
0

>  <PUBCHEM_ISOTOPIC_ATOM_COUNT>  (1) 
0

>  <PUBCHEM_COMPONENT_COUNT>  (1) 
1

>  <PUBCHEM_CACTVS_TAUTO_COUNT>  (1) 
2

>  <PUBCHEM_CONFORMER_ID>  (1) 
00006E190000000A

>  <PUBCHEM_MMFF94_ENERGY>  (1) 
69.4342

>  <PUBCHEM_FEATURE_SELFOVERLAP>  (1) 
35.705

>  <PUBCHEM_SHAPE_FINGERPRINT>  (1) 
10064457 181 18410295838996129380
10090160 65 18338792330515861709
10411042 1 17186155367303185351
10493431 412 18410574019711974400
10681291 71 18411427215070793964
1100329 8 18339073805382056154
11370993 70 18335983086675178865
11640471 11 17702378451707664257
12035758 1 18266736892715638274
12173636 292 18339919441070550310
12390115 104 18268162022661339092
12403259 327 16443070482208653705
12553582 1 16969709888977819427
12633257 1 17897446086556460857
12788726 201 17614858734790976958
13140716 1 18337107873906306547
13583140 156 16805864260983178540
138480 1 17689997834319235531
13965767 371 18188471528814734472
14123255 52 18411698785568109292
14178342 30 18120359111440679240
14223421 5 18047757001232881253
14787075 74 18201718505177510001
14790565 3 18193564363906302460
14955137 171 17975975367518734386
15309172 13 18408884014478926309
15475509 84 16816325259856370035
15534591 1 18201716296862972959
15906896 17 18199743816037221359
16945 1 18193829353943969310
17138139 8 17698403885004267535
1741750 31 18342736372939486282
18186145 218 18343023250721454356
19591789 44 18409451383795887831
19765921 60 18202560657716638025
19784866 9 18270116803710905041
20157964 124 18193550074671804957
204376 136 18411419505572706101
20510252 161 17905602560264370226
20739085 24 18118131277312819244
21029758 11 17329701536246375726
21033648 29 18339063935247133704
21524375 3 18273209794423125269
21731228 192 18409732863220260687
21756936 100 18271241733308572908
22182937 141 18269556220294831256
2255824 54 18125159333893630151
22854114 111 18339361855610636525
23184049 59 18261671485025928012
23558518 356 17973160922740992216
23559900 14 17976818684451973803
23845131 108 18408039607272314003
283562 15 17831571347170995010
3091708 16 9409705718379569775
335352 9 18410852132457013606
350125 39 18265332995958281727
4340502 62 18411428293597948921
474 4 18340764832537265033
49207404 50 18261689094618396305
495365 180 18194100946665272245
5048184 11 18410572915868501580
5104073 3 18409163307501410106
58807428 26 18335973203923970746
633830 44 18058735697745232469
6438718 38 17844533407866795695
6442390 28 18339091457497364331
7226269 152 18060413625947073432
7364860 26 18123472674503499919
7808743 9 18265336299384926352
81228 2 17828196932730962478
8272917 22 18196655082174862021
9999458 23 18266465299677538214

>  <PUBCHEM_SHAPE_MULTIPOLES>  (1) 
415.45
7.77
3.77
0.95
1.18
4.14
-0.03
-7.35
1.99
-0.45
0.11
0.59
-0.13
-0.2

>  <PUBCHEM_SHAPE_SELFOVERLAP>  (1) 
922.196

>  <PUBCHEM_SHAPE_VOLUME>  (1) 
225.2

>  <PUBCHEM_COORDINATE_TYPE>  (1) 
2
5
10

$$$$
