28199
     RDKit          3D

 19 20  0  0  0  0  0  0  0  0999 V2000
    5.3304    0.2584   -0.1817 N   0  0  0  0  0  0  0  0  0  0  0  0
   -0.7648   -0.4854   -0.4618 N   0  0  0  0  0  0  0  0  0  0  0  0
   -0.1929   -0.1910    0.6163 N   0  0  0  0  0  0  0  0  0  0  0  0
   -4.3518    0.3898   -0.3382 C   0  0  0  0  0  0  0  0  0  0  0  0
    3.9390    0.1450    0.0193 C   0  0  0  0  0  0  0  0  0  0  0  0
   -5.2288    1.5809   -0.5291 C   0  0  0  0  0  0  0  0  0  0  0  0
   -2.9701    0.5095   -0.4882 C   0  0  0  0  0  0  0  0  0  0  0  0
   -2.1502   -0.6047   -0.3102 C   0  0  0  0  0  0  0  0  0  0  0  0
    3.1190    1.2633   -0.1319 C   0  0  0  0  0  0  0  0  0  0  0  0
    3.3827   -1.0853    0.3696 C   0  0  0  0  0  0  0  0  0  0  0  0
   -4.9134   -0.8441   -0.0103 C   0  0  0  0  0  0  0  0  0  0  0  0
    1.1934   -0.0784    0.4161 C   0  0  0  0  0  0  0  0  0  0  0  0
    1.7431    1.1513    0.0669 C   0  0  0  0  0  0  0  0  0  0  0  0
    2.0066   -1.1972    0.5684 C   0  0  0  0  0  0  0  0  0  0  0  0
   -5.4481    2.3543    0.7686 C   0  0  0  0  0  0  0  0  0  0  0  0
   -2.7118   -1.8387    0.0178 C   0  0  0  0  0  0  0  0  0  0  0  0
   -4.0934   -1.9584    0.1678 C   0  0  0  0  0  0  0  0  0  0  0  0
    6.0123    1.5072    0.0940 C   0  0  0  0  0  0  0  0  0  0  0  0
    6.0987   -0.8766   -0.6532 C   0  0  0  0  0  0  0  0  0  0  0  0
  1  5  1  0
  1 18  1  0
  1 19  1  0
  2  3  2  0
  2  8  1  0
  3 12  1  0
  4  6  1  0
  4  7  2  0
  4 11  1  0
  5  9  2  0
  5 10  1  0
  6 15  1  0
  7  8  1  0
  8 16  2  0
  9 13  1  0
 10 14  2  0
 11 17  2  0
 12 13  2  0
 12 14  1  0
 16 17  1  0
M  END
>  <PUBCHEM_COMPOUND_CID>  (1) 
28199

>  <PUBCHEM_CONFORMER_RMSD>  (1) 
0.6

>  <PUBCHEM_CONFORMER_DIVERSEORDER>  (1) 
1
4
8
16
11
9
6
14
10
2
15
5
12
13
7
3

>  <PUBCHEM_MMFF94_PARTIAL_CHARGES>  (1) 
26
1 -0.84
10 -0.15
11 -0.15
12 0.18
13 -0.15
14 -0.15
16 -0.15
17 -0.15
18 0.37
19 0.37
2 -0.18
22 0.15
23 0.15
24 0.15
25 0.15
26 0.15
27 0.15
3 -0.18
31 0.15
32 0.15
4 -0.14
5 0.1
6 0.14
7 -0.15
8 0.18
9 -0.15

>  <PUBCHEM_EFFECTIVE_ROTOR_COUNT>  (1) 
4

>  <PUBCHEM_PHARMACOPHORE_FEATURES>  (1) 
4
1 1 cation
1 15 hydrophobe
6 4 7 8 11 16 17 rings
6 5 9 10 12 13 14 rings

>  <PUBCHEM_HEAVY_ATOM_COUNT>  (1) 
19

>  <PUBCHEM_ATOM_DEF_STEREO_COUNT>  (1) 
0

>  <PUBCHEM_ATOM_UDEF_STEREO_COUNT>  (1) 
0

>  <PUBCHEM_BOND_DEF_STEREO_COUNT>  (1) 
0

>  <PUBCHEM_BOND_UDEF_STEREO_COUNT>  (1) 
0

>  <PUBCHEM_ISOTOPIC_ATOM_COUNT>  (1) 
0

>  <PUBCHEM_COMPONENT_COUNT>  (1) 
1

>  <PUBCHEM_CACTVS_TAUTO_COUNT>  (1) 
1

>  <PUBCHEM_CONFORMER_ID>  (1) 
00006E2700000001

>  <PUBCHEM_MMFF94_ENERGY>  (1) 
64.0424

>  <PUBCHEM_FEATURE_SELFOVERLAP>  (1) 
20.297

>  <PUBCHEM_SHAPE_FINGERPRINT>  (1) 
10595046 47 18335700610691643110
10835480 77 18343577469471021680
10912923 1 17894903044620166850
11315181 36 18114462353044593269
11796584 16 18059857255767498214
11858739 19 17775290431021401518
12107183 9 17904193737897756483
12236239 1 18413388739614432184
12616971 3 16370731443268777246
12788726 201 17773877497869990393
13073987 5 18335137596424625371
14251752 14 18343019956660736826
14251764 18 18408884032212527483
14341114 176 18408608058366268988
14933364 13 18410859862591160892
15048467 5 18407758127362202412
15183329 4 18410855417426415204
15196674 1 18408882949406171046
15778101 99 18411703154314636457
15788980 27 17561361807262177222
17844677 252 18339085998482778033
18222031 100 13614520762447725674
19489759 90 11095887064270656959
200 152 18273215330546454818
20281389 69 18114177506371316997
20621476 66 18272376313476430089
20645477 56 18187642471377294861
20645477 70 18342740689809516982
20681677 155 18334293175610015171
21033648 29 17774988116093166200
21065198 48 18261385642315527179
21267235 1 18334862761873522859
21709351 56 18335414707487411351
220451 1 17676206858062620578
23081809 10 17676203589676780674
23198884 109 18272088280036815049
23402539 116 18411132554306841564
23402655 69 18410008836359501082
23536379 177 18410573994263638258
23559900 14 18272080630135851248
2916195 48 18268141127782496992
29717793 49 17703513208185133588
300161 21 18187638102836437343
3004659 81 18335421241119527366
3545911 37 18408884036201565597
4073 2 18041002886066376690
4214541 1 18409165524110637941
4463277 17 18410856573131495852
5104073 3 18260542329301533322
542803 24 18272368680733404170
543358 83 18336264552893331730
59755656 215 18270404888969176038
59755656 520 16732706038704924419
6327066 14 18117832215115315237
6328613 192 18411702075587294320
633830 44 18187639267136571558
77779 3 18335982042876929779

>  <PUBCHEM_SHAPE_MULTIPOLES>  (1) 
376.07
15.82
2
0.76
6.58
0.29
0.01
4.5
-1.09
-2.17
0.23
-0.13
0.05
-0.13

>  <PUBCHEM_SHAPE_SELFOVERLAP>  (1) 
791.108

>  <PUBCHEM_SHAPE_VOLUME>  (1) 
214.1

>  <PUBCHEM_COORDINATE_TYPE>  (1) 
2
5
10

$$$$
