28198
     RDKit          3D

 21 22  0  0  0  0  0  0  0  0999 V2000
    5.9694   -0.1339   -0.2057 N   0  0  0  0  0  0  0  0  0  0  0  0
   -0.1463    0.3490   -0.4982 N   0  0  0  0  0  0  0  0  0  0  0  0
    0.4350    0.1446    0.5934 N   0  0  0  0  0  0  0  0  0  0  0  0
   -3.6830   -0.6688   -0.1785 C   0  0  0  0  0  0  0  0  0  0  0  0
   -4.2867    0.5579    0.0984 C   0  0  0  0  0  0  0  0  0  0  0  0
   -4.4913   -1.9214   -0.2645 C   0  0  0  0  0  0  0  0  0  0  0  0
   -5.7612    0.6571    0.3144 C   0  0  0  0  0  0  0  0  0  0  0  0
   -2.3039   -0.7387   -0.3769 C   0  0  0  0  0  0  0  0  0  0  0  0
   -3.5111    1.7147    0.1776 C   0  0  0  0  0  0  0  0  0  0  0  0
   -1.5285    0.4182   -0.2981 C   0  0  0  0  0  0  0  0  0  0  0  0
   -2.1320    1.6448   -0.0206 C   0  0  0  0  0  0  0  0  0  0  0  0
   -4.6167   -2.6231    1.0845 C   0  0  0  0  0  0  0  0  0  0  0  0
   -6.5200    0.9159   -0.9837 C   0  0  0  0  0  0  0  0  0  0  0  0
    4.5753   -0.0638   -0.0045 C   0  0  0  0  0  0  0  0  0  0  0  0
    1.8242    0.0747    0.3928 C   0  0  0  0  0  0  0  0  0  0  0  0
    3.9715    1.1628    0.2726 C   0  0  0  0  0  0  0  0  0  0  0  0
    3.8003   -1.2210   -0.0821 C   0  0  0  0  0  0  0  0  0  0  0  0
    2.5925    1.2322    0.4717 C   0  0  0  0  0  0  0  0  0  0  0  0
    2.4214   -1.1515    0.1172 C   0  0  0  0  0  0  0  0  0  0  0  0
    6.8551    0.8002    0.4604 C   0  0  0  0  0  0  0  0  0  0  0  0
    6.5360   -1.1500   -1.0703 C   0  0  0  0  0  0  0  0  0  0  0  0
  1 14  1  0
  1 20  1  0
  1 21  1  0
  2  3  2  0
  2 10  1  0
  3 15  1  0
  4  5  2  0
  4  6  1  0
  4  8  1  0
  5  7  1  0
  5  9  1  0
  6 12  1  0
  7 13  1  0
  8 10  2  0
  9 11  2  0
 10 11  1  0
 14 16  2  0
 14 17  1  0
 15 18  2  0
 15 19  1  0
 16 18  1  0
 17 19  2  0
M  END
>  <PUBCHEM_COMPOUND_CID>  (1) 
28198

>  <PUBCHEM_CONFORMER_RMSD>  (1) 
0.8

>  <PUBCHEM_CONFORMER_DIVERSEORDER>  (1) 
1
4
5
2
3
7
6

>  <PUBCHEM_MMFF94_PARTIAL_CHARGES>  (1) 
26
1 -0.84
10 0.18
11 -0.15
14 0.1
15 0.18
16 -0.15
17 -0.15
18 -0.15
19 -0.15
2 -0.18
20 0.37
21 0.37
26 0.15
27 0.15
28 0.15
3 -0.18
35 0.15
36 0.15
37 0.15
38 0.15
4 -0.14
5 -0.14
6 0.14
7 0.14
8 -0.15
9 -0.15

>  <PUBCHEM_EFFECTIVE_ROTOR_COUNT>  (1) 
5

>  <PUBCHEM_PHARMACOPHORE_FEATURES>  (1) 
5
1 1 cation
1 12 hydrophobe
1 13 hydrophobe
6 14 15 16 17 18 19 rings
6 4 5 8 9 10 11 rings

>  <PUBCHEM_HEAVY_ATOM_COUNT>  (1) 
21

>  <PUBCHEM_ATOM_DEF_STEREO_COUNT>  (1) 
0

>  <PUBCHEM_ATOM_UDEF_STEREO_COUNT>  (1) 
0

>  <PUBCHEM_BOND_DEF_STEREO_COUNT>  (1) 
0

>  <PUBCHEM_BOND_UDEF_STEREO_COUNT>  (1) 
0

>  <PUBCHEM_ISOTOPIC_ATOM_COUNT>  (1) 
0

>  <PUBCHEM_COMPONENT_COUNT>  (1) 
1

>  <PUBCHEM_CACTVS_TAUTO_COUNT>  (1) 
1

>  <PUBCHEM_CONFORMER_ID>  (1) 
00006E2600000001

>  <PUBCHEM_MMFF94_ENERGY>  (1) 
69.1575

>  <PUBCHEM_FEATURE_SELFOVERLAP>  (1) 
25.371

>  <PUBCHEM_SHAPE_FINGERPRINT>  (1) 
10595046 47 18407761447846539404
10968037 39 18409728457084767149
11045977 3 18341609352151856537
11315181 36 17918274268803101881
11524674 6 16702301261032132967
12107183 9 17619348706144161297
12236239 1 17821730545802099901
12616971 3 16588031229222657623
13288520 33 18410856586232571631
14251732 16 18338516447639324616
14341114 176 18413393132997061704
14461889 52 18339356479187223986
14933364 13 18342741814742418432
15183329 4 18340488876920707306
15788980 27 17131829876310796116
17093844 174 18408037433844334161
17844677 252 18271250511731167545
18927931 339 18411985784495164175
20681677 155 18113897152850205483
21054139 6 17676766569510740578
21267235 1 18413395332162605593
21315759 40 15339114645755048421
21623969 137 17346605166493072254
220451 1 17603583019409251794
221357 26 18271803493466551256
2297311 6 18343025471240879029
2303208 19 17988653999428065782
23035841 295 18260829289051732987
23402539 116 18114178652874013511
23559900 14 18340480153589051705
29717793 49 17704075079875144124
300161 21 18187640289101365579
3004659 81 18411135827494070048
335352 9 18410570683487736917
3545911 37 18411417293538097525
4073 2 18260834816986256370
4214541 1 18412544301657187913
4325135 7 18259705584300472684
5104073 3 18413385444999990176
542803 24 16443064989060941772
59755656 215 18410293566800271974
59755656 520 16443065002162161267
67856867 119 18188776174707503748
7062679 117 18334577957859249499
7495541 125 18059855108104144840
77779 3 18412825780717804328

>  <PUBCHEM_SHAPE_MULTIPOLES>  (1) 
417.23
18.24
1.92
0.85
11.7
0.77
0.03
0.97
1.81
-2.17
-0.29
-0.15
0.15
1.34

>  <PUBCHEM_SHAPE_SELFOVERLAP>  (1) 
874.036

>  <PUBCHEM_SHAPE_VOLUME>  (1) 
237.7

>  <PUBCHEM_COORDINATE_TYPE>  (1) 
2
5
10

$$$$
