28218
     RDKit          3D

 20 20  0  0  1  0  0  0  0  0999 V2000
    1.6646   -1.2781   -2.6952 O   0  0  0  0  0  0  0  0  0  0  0  0
   -1.7096    2.0363   -2.1789 O   0  0  0  0  0  0  0  0  0  0  0  0
   -1.7746    1.6900    0.6560 C   0  0  0  0  0  0  0  0  0  0  0  0
    1.7570   -1.7837    0.1144 C   0  0  0  0  0  0  0  0  0  0  0  0
   -2.7627    0.8065    1.4474 C   0  0  0  0  0  0  0  0  0  0  0  0
    2.7678   -1.1932    1.1366 C   0  0  0  0  0  0  0  0  0  0  0  0
   -0.8524    0.8959   -0.2531 C   0  0  0  0  0  0  0  0  0  0  0  0
    0.8438   -0.7748   -0.5003 C   0  0  0  0  0  0  0  0  0  0  0  0
   -0.0086   -0.0366    0.3206 C   0  0  0  0  0  0  0  0  0  0  0  0
   -3.6355   -0.0726    0.5434 C   0  0  0  0  0  0  0  0  0  0  0  0
    3.6515   -0.0989    0.5254 C   0  0  0  0  0  0  0  0  0  0  0  0
   -0.9594    2.5573    1.6229 C   0  0  0  0  0  0  0  0  0  0  0  0
    0.9668   -2.9151    0.8044 C   0  0  0  0  0  0  0  0  0  0  0  0
    0.8367   -0.5670   -1.8796 C   0  0  0  0  0  0  0  0  0  0  0  0
   -0.8754    1.1171   -1.6169 C   0  0  0  0  0  0  0  0  0  0  0  0
   -4.5316   -0.9966    1.3688 C   0  0  0  0  0  0  0  0  0  0  0  0
    4.5830    0.5098    1.5742 C   0  0  0  0  0  0  0  0  0  0  0  0
   -0.0230    0.3789   -2.4379 C   0  0  0  0  0  0  0  0  0  0  0  0
   -5.4210   -1.8504    0.4792 C   0  0  0  0  0  0  0  0  0  0  0  0
    5.4827    1.5752    0.9686 C   0  0  0  0  0  0  0  0  0  0  0  0
  1 14  1  0
  2 15  1  0
  3  5  1  0
  3  7  1  0
  3 12  1  0
  4  6  1  0
  4  8  1  0
  4 13  1  0
  5 10  1  0
  6 11  1  0
  7  9  2  0
  7 15  1  0
  8  9  1  0
  8 14  2  0
 10 16  1  0
 11 17  1  0
 14 18  1  0
 15 18  2  0
 16 19  1  0
 17 20  1  0
M  END
>  <PUBCHEM_COMPOUND_CID>  (1) 
28218

>  <PUBCHEM_CONFORMER_RMSD>  (1) 
0.8

>  <PUBCHEM_CONFORMER_DIVERSEORDER>  (1) 
1
5
77
95
99
83
30
49
106
131
64
23
90
171
94
44
7
191
180
161
148
170
136
184
67
141
72
190
133
109
97
112
173
117
152
37
108
153
111
34
33
157
143
192
79
147
104
116
163
149
187
84
57
69
154
181
91
66
150
40
78
47
53
128
123
145
174
122
103
197
162
200
86
105
155
115
88
188
118
139
144
120
114
85
2
198
11
159
87
102
178
101
113
45
98
121
20
183
70
185
194
100
172
41
119
51
186
12
18
19
48
160
176
132
146
138
6
134
140
135
42
55
125
96
75
68
175
156
168
10
60
59
76
189
169
22
129
196
24
195
38
58
63
137
21
126
158
62
71
89
73
3
193
142
92
199
110
15
182
93
127
65
13
167
130
50
32
17
81
52
61
25
26
54
177
107
124
4
82
35
46
164
9
151
29
43
36
39
8
74
166
14
80
179
16
165
28
31
56
27

>  <PUBCHEM_MMFF94_PARTIAL_CHARGES>  (1) 
14
1 -0.53
14 0.08
15 0.08
18 -0.15
2 -0.53
27 0.15
3 0.14
4 0.14
42 0.15
49 0.45
50 0.45
7 -0.14
8 -0.14
9 -0.15

>  <PUBCHEM_EFFECTIVE_ROTOR_COUNT>  (1) 
8

>  <PUBCHEM_PHARMACOPHORE_FEATURES>  (1) 
9
1 1 donor
1 12 hydrophobe
1 13 hydrophobe
1 19 hydrophobe
1 2 donor
1 20 hydrophobe
4 3 5 10 16 hydrophobe
4 4 6 11 17 hydrophobe
6 7 8 9 14 15 18 rings

>  <PUBCHEM_HEAVY_ATOM_COUNT>  (1) 
20

>  <PUBCHEM_ATOM_DEF_STEREO_COUNT>  (1) 
0

>  <PUBCHEM_ATOM_UDEF_STEREO_COUNT>  (1) 
2

>  <PUBCHEM_BOND_DEF_STEREO_COUNT>  (1) 
0

>  <PUBCHEM_BOND_UDEF_STEREO_COUNT>  (1) 
0

>  <PUBCHEM_ISOTOPIC_ATOM_COUNT>  (1) 
0

>  <PUBCHEM_COMPONENT_COUNT>  (1) 
1

>  <PUBCHEM_CACTVS_TAUTO_COUNT>  (1) 
5

>  <PUBCHEM_CONFORMER_ID>  (1) 
00006E3A00000001

>  <PUBCHEM_MMFF94_ENERGY>  (1) 
34.2492

>  <PUBCHEM_FEATURE_SELFOVERLAP>  (1) 
45.676

>  <PUBCHEM_SHAPE_FINGERPRINT>  (1) 
11578080 2 18189614930418058541
12553582 1 17605867792230252155
128238 76 17844523525062397795
13083527 12 17313107483442026516
13134695 92 16226619601183448095
13583140 156 17982167820883694956
14341114 328 18202003230785204883
14787075 74 18341609377478451458
14955137 171 16916792940952934833
15534591 1 17489294309572957498
16945 1 14855560212042350077
17349148 13 16153715297013081398
17834072 14 16660364774840573455
17980427 23 16588309362704093956
18222031 100 16515687728266187922
192875 21 16008755692639323739
20465049 17 11383837069484582723
20600515 1 18263093269656699699
20626108 58 17749675202976024843
20681677 274 18122623855848360850
21069387 34 15068628183777829859
21304303 282 14998495762034217079
21756936 100 18130776881287849696
22079108 93 18342451599675799658
23419403 2 16226874709181738620
23557571 272 17459756908449602012
23559900 14 17913516565677516725
2637199 183 12607407680543143963
2748010 2 14063743533223388405
2818148 4 15195275387636664509
3009799 131 14707198950583349187
3027735 51 11892424925823528232
3084891 8 8573620596839299595
3797600 57 18202561761512690722
392239 28 18341898531840993523
458136 41 15338847421432073861
469060 322 18046313552844902634
59444896 2 17691969683901028861
81228 2 15504913126421904708

>  <PUBCHEM_SHAPE_MULTIPOLES>  (1) 
399.85
8.74
2.54
2.37
0.44
0.13
1.92
0.43
-6.22
-0.21
-0.71
0.09
-0.21
0.99

>  <PUBCHEM_SHAPE_SELFOVERLAP>  (1) 
795.214

>  <PUBCHEM_SHAPE_VOLUME>  (1) 
238.9

>  <PUBCHEM_COORDINATE_TYPE>  (1) 
2
5
10

$$$$
