28225
     RDKit          3D

 11 12  0  0  1  0  0  0  0  0999 V2000
    1.8868   -0.4585    0.2960 C   0  0  0  0  0  0  0  0  0  0  0  0
    1.2437    0.8252   -0.2961 C   0  0  0  0  0  0  0  0  0  0  0  0
    0.8909   -1.6030    0.0114 C   0  0  0  0  0  0  0  0  0  0  0  0
   -0.2199    0.5086   -0.1450 C   0  0  0  0  0  0  0  0  0  0  0  0
   -0.4124   -0.8684    0.0255 C   0  0  0  0  0  0  0  0  0  0  0  0
    3.2688   -0.7488   -0.2739 C   0  0  0  0  0  0  0  0  0  0  0  0
    1.6973    2.0888    0.4235 C   0  0  0  0  0  0  0  0  0  0  0  0
   -1.3049    1.3701   -0.2045 C   0  0  0  0  0  0  0  0  0  0  0  0
   -1.6833   -1.4079    0.1418 C   0  0  0  0  0  0  0  0  0  0  0  0
   -2.5895    0.8367   -0.0755 C   0  0  0  0  0  0  0  0  0  0  0  0
   -2.7775   -0.5428    0.0967 C   0  0  0  0  0  0  0  0  0  0  0  0
  1  2  1  0
  1  3  1  0
  1  6  1  0
  2  4  1  0
  2  7  1  0
  3  5  1  0
  4  5  2  0
  4  8  1  0
  5  9  1  0
  8 10  2  0
  9 11  2  0
 10 11  1  0
M  END
>  <PUBCHEM_COMPOUND_CID>  (1) 
28225

>  <PUBCHEM_CONFORMER_RMSD>  (1) 
0.4

>  <PUBCHEM_CONFORMER_DIVERSEORDER>  (1) 
2
5
1
3
4

>  <PUBCHEM_MMFF94_PARTIAL_CHARGES>  (1) 
12
10 -0.15
11 -0.15
2 0.14
22 0.15
23 0.15
24 0.15
25 0.15
3 0.14
4 -0.14
5 -0.14
8 -0.15
9 -0.15

>  <PUBCHEM_EFFECTIVE_ROTOR_COUNT>  (1) 
0.6

>  <PUBCHEM_PHARMACOPHORE_FEATURES>  (1) 
2
5 1 2 3 4 5 rings
6 4 5 8 9 10 11 rings

>  <PUBCHEM_HEAVY_ATOM_COUNT>  (1) 
11

>  <PUBCHEM_ATOM_DEF_STEREO_COUNT>  (1) 
0

>  <PUBCHEM_ATOM_UDEF_STEREO_COUNT>  (1) 
2

>  <PUBCHEM_BOND_DEF_STEREO_COUNT>  (1) 
0

>  <PUBCHEM_BOND_UDEF_STEREO_COUNT>  (1) 
0

>  <PUBCHEM_ISOTOPIC_ATOM_COUNT>  (1) 
0

>  <PUBCHEM_COMPONENT_COUNT>  (1) 
1

>  <PUBCHEM_CACTVS_TAUTO_COUNT>  (1) 
1

>  <PUBCHEM_CONFORMER_ID>  (1) 
00006E4100000002

>  <PUBCHEM_MMFF94_ENERGY>  (1) 
29.4949

>  <PUBCHEM_FEATURE_SELFOVERLAP>  (1) 
10.23

>  <PUBCHEM_SHAPE_FINGERPRINT>  (1) 
11206711 2 18335417933123882143
12032990 46 18340494352814242070
12423570 1 10970236129410126163
12524768 44 18337107972753409591
12897270 3 18408884048859711711
13380535 76 18122898995964262392
14128692 85 18410860970745289006
14325111 11 18410012156216357004
161256 15 18337391646642709980
16945 1 18410288077889920779
193761 8 18050286174128977926
19973954 147 18411138077656058417
20201158 50 18411417272021011119
20588541 1 18265337209321283662
21040471 1 18120938566389013876
21501502 16 18339644545878319684
2334 1 18193556898382450413
23402655 69 18122607368170681005
23463225 33 18189895310404617786
23552423 10 18187928442520061031
23559900 14 18341335475679291270
241688 4 17619633479603065811
2748010 2 18265050413001354095
369184 2 18272649090763979737
5084963 1 18201719569675434203
528886 8 18338230462303309931
53812653 166 18339637837255467544
63268167 104 18264489481666711747
7364860 26 18271246139886937688

>  <PUBCHEM_SHAPE_MULTIPOLES>  (1) 
226.37
4.13
1.91
0.66
0.3
0.43
0
-0.36
-0.07
0.36
0.13
0.06
0.04
0.24

>  <PUBCHEM_SHAPE_SELFOVERLAP>  (1) 
480.48

>  <PUBCHEM_SHAPE_VOLUME>  (1) 
122.8

>  <PUBCHEM_COORDINATE_TYPE>  (1) 
2
5
10

$$$$
