28227
     RDKit          3D

 15 17  0  0  1  0  0  0  0  0999 V2000
   -0.0229    1.4921   -0.2438 C   0  0  0  0  0  0  0  0  0  0  0  0
   -1.0470    0.3737   -0.1136 C   0  0  0  0  0  0  0  0  0  0  0  0
    1.2856    0.7199   -0.1508 C   0  0  0  0  0  0  0  0  0  0  0  0
   -0.3989   -0.8749    0.0200 C   0  0  0  0  0  0  0  0  0  0  0  0
    1.0323   -0.6626   -0.0029 C   0  0  0  0  0  0  0  0  0  0  0  0
   -2.4291    0.4678   -0.1326 C   0  0  0  0  0  0  0  0  0  0  0  0
   -0.1277    2.5439    0.8566 C   0  0  0  0  0  0  0  0  0  0  0  0
    2.5795    1.2111   -0.2119 C   0  0  0  0  0  0  0  0  0  0  0  0
   -1.1352   -2.0418    0.1457 C   0  0  0  0  0  0  0  0  0  0  0  0
    2.0792   -1.5647    0.0943 C   0  0  0  0  0  0  0  0  0  0  0  0
   -3.1707   -0.7082   -0.0057 C   0  0  0  0  0  0  0  0  0  0  0  0
   -2.5300   -1.9506    0.1330 C   0  0  0  0  0  0  0  0  0  0  0  0
   -3.1356    1.7656   -0.3136 C   0  0  0  0  0  0  0  0  0  0  0  0
    3.6341    0.3016   -0.1135 C   0  0  0  0  0  0  0  0  0  0  0  0
    3.3864   -1.0727    0.0388 C   0  0  0  0  0  0  0  0  0  0  0  0
  1  2  1  0
  1  3  1  0
  1  7  1  0
  2  4  2  0
  2  6  1  0
  3  5  2  0
  3  8  1  0
  4  5  1  0
  4  9  1  0
  5 10  1  0
  6 11  2  0
  6 13  1  0
  8 14  2  0
  9 12  2  0
 10 15  2  0
 11 12  1  0
 14 15  1  0
M  END
>  <PUBCHEM_COMPOUND_CID>  (1) 
28227

>  <PUBCHEM_CONFORMER_RMSD>  (1) 
0.4

>  <PUBCHEM_CONFORMER_DIVERSEORDER>  (1) 
1
2

>  <PUBCHEM_MMFF94_PARTIAL_CHARGES>  (1) 
19
1 0.29
10 -0.15
11 -0.15
12 -0.15
13 0.14
14 -0.15
15 -0.15
2 -0.14
20 0.15
21 0.15
22 0.15
23 0.15
24 0.15
28 0.15
29 0.15
3 -0.14
6 -0.14
8 -0.15
9 -0.15

>  <PUBCHEM_EFFECTIVE_ROTOR_COUNT>  (1) 
0.2

>  <PUBCHEM_PHARMACOPHORE_FEATURES>  (1) 
3
5 1 2 3 4 5 rings
6 2 4 6 9 11 12 rings
6 3 5 8 10 14 15 rings

>  <PUBCHEM_HEAVY_ATOM_COUNT>  (1) 
15

>  <PUBCHEM_ATOM_DEF_STEREO_COUNT>  (1) 
0

>  <PUBCHEM_ATOM_UDEF_STEREO_COUNT>  (1) 
1

>  <PUBCHEM_BOND_DEF_STEREO_COUNT>  (1) 
0

>  <PUBCHEM_BOND_UDEF_STEREO_COUNT>  (1) 
0

>  <PUBCHEM_ISOTOPIC_ATOM_COUNT>  (1) 
0

>  <PUBCHEM_COMPONENT_COUNT>  (1) 
1

>  <PUBCHEM_CACTVS_TAUTO_COUNT>  (1) 
1

>  <PUBCHEM_CONFORMER_ID>  (1) 
00006E4300000001

>  <PUBCHEM_MMFF94_ENERGY>  (1) 
51.3229

>  <PUBCHEM_FEATURE_SELFOVERLAP>  (1) 
15.385

>  <PUBCHEM_SHAPE_FINGERPRINT>  (1) 
10411042 1 15743883746263607094
10608611 8 18410289241836763412
10967382 1 18194119616412944991
11132069 177 18411694366283807408
12032990 46 18411144657614638078
12382932 28 18412824685638196618
12491281 212 18338528447092134577
12730499 353 17537708907864673661
13027679 85 18341333387470720793
13132413 78 18410577326720826044
13140716 1 18410292471536093371
13380535 76 18340202973373752687
14144814 61 18409167727001787818
14325111 11 18408885131049038988
14790565 3 15450606602923745487
15196674 1 18409449176198008742
15375462 189 18259987063060668770
15442244 35 18264768762184477674
15536298 74 18413389847927036606
16945 1 18194399124431810095
18186145 218 18263925449276160340
193761 8 17402893822194286134
19591789 44 16036066118628109494
200 152 18059567044790072399
20510252 161 18342740684838926825
21029758 11 18342730845511930485
21267235 1 18409176518910943722
21501502 16 18336265729476766486
22721475 48 18264492952016247383
2334 1 18410575114780798895
23402539 116 18271794675507789510
23463225 33 18408041823058388774
23559900 14 18342172216691241370
25 1 18119517753101560869
2748010 2 18411699902243509310
3312278 4 18410859858459613504
335352 9 18121216485238422326
34934 24 18410846664293673906
427121 178 15980084707564750081
5104073 3 18409446977580909978
528886 8 18410849923936435875
53812653 166 18270397333778856256
69090 78 18411413999656780319
7364860 26 18053945340035932328
81228 2 17915754067355520240
8809292 202 18335144171993175018
9709674 26 18411985758356407014

>  <PUBCHEM_SHAPE_MULTIPOLES>  (1) 
308.69
5.49
2.45
0.69
1.35
0.35
0.04
-0.56
-0.35
-0.89
0.33
-0.02
0.14
0.09

>  <PUBCHEM_SHAPE_SELFOVERLAP>  (1) 
689.011

>  <PUBCHEM_SHAPE_VOLUME>  (1) 
156.4

>  <PUBCHEM_COORDINATE_TYPE>  (1) 
2
5
10

$$$$
