28221
     RDKit          3D

 21 21  0  0  0  0  0  0  0  0999 V2000
    0.1456    0.7292   -1.1148 O   0  0  0  0  0  0  0  0  0  0  0  0
    0.5586    1.2521    1.0972 O   0  0  0  0  0  0  0  0  0  0  0  0
   -3.4809    0.9709   -0.4899 N   0  0  0  0  0  0  0  0  0  0  0  0
    2.1932    0.0324   -0.2007 C   0  0  0  0  0  0  0  0  0  0  0  0
    3.0042   -0.0064    1.1077 C   0  0  0  0  0  0  0  0  0  0  0  0
    2.9794    0.7380   -1.3208 C   0  0  0  0  0  0  0  0  0  0  0  0
    1.8339   -1.3950   -0.6346 C   0  0  0  0  0  0  0  0  0  0  0  0
    3.5493    1.3641    1.5117 C   0  0  0  0  0  0  0  0  0  0  0  0
    3.5253    2.1024   -0.8977 C   0  0  0  0  0  0  0  0  0  0  0  0
    4.3455    2.0094    0.3836 C   0  0  0  0  0  0  0  0  0  0  0  0
    1.0577   -2.1183    0.4621 C   0  0  0  0  0  0  0  0  0  0  0  0
    0.8834    0.7456    0.0317 C   0  0  0  0  0  0  0  0  0  0  0  0
    0.6130   -3.5342    0.0512 C   0  0  0  0  0  0  0  0  0  0  0  0
   -0.1112   -4.2697    1.1797 C   0  0  0  0  0  0  0  0  0  0  0  0
   -0.2941   -3.4565   -1.1793 C   0  0  0  0  0  0  0  0  0  0  0  0
   -1.1290    1.3748   -1.0351 C   0  0  0  0  0  0  0  0  0  0  0  0
   -2.1680    0.3530   -0.6015 C   0  0  0  0  0  0  0  0  0  0  0  0
   -3.5918    1.7300    0.7581 C   0  0  0  0  0  0  0  0  0  0  0  0
   -4.5378   -0.0411   -0.5614 C   0  0  0  0  0  0  0  0  0  0  0  0
   -4.9337    2.4363    0.8536 C   0  0  0  0  0  0  0  0  0  0  0  0
   -4.4427   -1.0170    0.5991 C   0  0  0  0  0  0  0  0  0  0  0  0
  1 12  1  0
  1 16  1  0
  2 12  2  0
  3 17  1  0
  3 18  1  0
  3 19  1  0
  4  5  1  0
  4  6  1  0
  4  7  1  0
  4 12  1  0
  5  8  1  0
  6  9  1  0
  7 11  1  0
  8 10  1  0
  9 10  1  0
 11 13  1  0
 13 14  1  0
 13 15  1  0
 16 17  1  0
 18 20  1  0
 19 21  1  0
M  END
>  <PUBCHEM_COMPOUND_CID>  (1) 
28221

>  <PUBCHEM_CONFORMER_RMSD>  (1) 
1.2

>  <PUBCHEM_CONFORMER_DIVERSEORDER>  (1) 
1
28
20
25
15
37
34
8
35
14
11
32
17
27
12
30
23
26
5
9
7
29
24
18
39
10
31
4
22
33
19
6
38
13
16
36
3
2
21

>  <PUBCHEM_MMFF94_PARTIAL_CHARGES>  (1) 
9
1 -0.43
12 0.66
16 0.28
17 0.27
18 0.27
19 0.27
2 -0.57
3 -0.81
4 0.06

>  <PUBCHEM_EFFECTIVE_ROTOR_COUNT>  (1) 
11.2

>  <PUBCHEM_PHARMACOPHORE_FEATURES>  (1) 
4
1 2 acceptor
1 3 cation
3 13 14 15 hydrophobe
6 4 5 6 8 9 10 rings

>  <PUBCHEM_HEAVY_ATOM_COUNT>  (1) 
21

>  <PUBCHEM_ATOM_DEF_STEREO_COUNT>  (1) 
0

>  <PUBCHEM_ATOM_UDEF_STEREO_COUNT>  (1) 
0

>  <PUBCHEM_BOND_DEF_STEREO_COUNT>  (1) 
0

>  <PUBCHEM_BOND_UDEF_STEREO_COUNT>  (1) 
0

>  <PUBCHEM_ISOTOPIC_ATOM_COUNT>  (1) 
0

>  <PUBCHEM_COMPONENT_COUNT>  (1) 
1

>  <PUBCHEM_CACTVS_TAUTO_COUNT>  (1) 
1

>  <PUBCHEM_CONFORMER_ID>  (1) 
00006E3D00000001

>  <PUBCHEM_MMFF94_ENERGY>  (1) 
33.1159

>  <PUBCHEM_FEATURE_SELFOVERLAP>  (1) 
20.297

>  <PUBCHEM_SHAPE_FINGERPRINT>  (1) 
10064457 181 18412260670485438918
10366900 7 18272365430144930681
104564 63 17905042908809201366
11370993 70 18410852179179466323
12788726 201 17905605858351218095
13140716 1 18337669719931761562
13533116 47 18269272353933894589
13583140 156 18129366138902620117
13878862 14 17906441131492591125
14178342 30 18408046199999159533
14787075 74 17915733387240632665
14955137 171 17983573014399421094
15848700 24 9079119951355531988
17138139 8 17696434706791991047
17868525 174 17473828325224070465
201361 129 18271527481397895801
20645477 70 18115577133407720517
20739085 24 18188216403082511972
21421861 104 18050569538764731385
221357 26 10303815376369443643
2255824 54 18267590100283580502
22620623 9 17838357511604801790
23559900 14 18192707843636030477
3052486 1 18045780349598129334
3060560 45 18260275122786499964
427121 178 18342736347159236894
458136 41 18337116665819957756
59755656 520 18338230566041960188
633830 44 18201719535310791749
6438718 38 17912644897532891214
6442390 28 18411423942173553254
7097593 13 17693099565437830337
81228 2 17903902698013111366

>  <PUBCHEM_SHAPE_MULTIPOLES>  (1) 
415.45
8.79
4.3
1.35
7.94
6.1
0.06
-7.95
1.56
0.08
0.72
-0.51
-0.04
-0.36

>  <PUBCHEM_SHAPE_SELFOVERLAP>  (1) 
810.141

>  <PUBCHEM_SHAPE_VOLUME>  (1) 
250.9

>  <PUBCHEM_COORDINATE_TYPE>  (1) 
2
5
10

$$$$
