28220
     RDKit          3D

 18 18  0  0  1  0  0  0  0  0999 V2000
   -3.9290    2.1351    1.3295 I   0  0  0  0  0  0  0  0  0  0  0  0
   -2.5950   -3.5906   -0.3090 I   0  0  0  0  0  0  0  0  0  0  0  0
    1.8760    3.1265   -0.2364 O   0  0  0  0  0  0  0  0  0  0  0  0
    1.2487    1.5863    1.3061 O   0  0  0  0  0  0  0  0  0  0  0  0
   -4.1214   -1.0825    1.0486 O   0  0  0  0  0  0  0  0  0  0  0  0
    1.7079    0.8571   -0.9781 C   0  0  0  0  0  0  0  0  0  0  0  0
    2.1776   -0.5224   -0.4741 C   0  0  0  0  0  0  0  0  0  0  0  0
    0.3943    0.7809   -1.7847 C   0  0  0  0  0  0  0  0  0  0  0  0
    3.5731   -0.4684    0.1626 C   0  0  0  0  0  0  0  0  0  0  0  0
    4.0838   -1.8398    0.6125 C   0  0  0  0  0  0  0  0  0  0  0  0
   -0.8133    0.2825   -1.0263 C   0  0  0  0  0  0  0  0  0  0  0  0
    1.5835    1.8607    0.1612 C   0  0  0  0  0  0  0  0  0  0  0  0
    5.4979   -1.8081    1.1710 C   0  0  0  0  0  0  0  0  0  0  0  0
   -1.0915   -1.0745   -1.0103 C   0  0  0  0  0  0  0  0  0  0  0  0
   -1.6201    1.1919   -0.3621 C   0  0  0  0  0  0  0  0  0  0  0  0
   -2.7359    0.7319    0.3374 C   0  0  0  0  0  0  0  0  0  0  0  0
   -2.2071   -1.5348   -0.3109 C   0  0  0  0  0  0  0  0  0  0  0  0
   -3.0294   -0.6316    0.3630 C   0  0  0  0  0  0  0  0  0  0  0  0
  1 16  1  0
  2 17  1  0
  3 12  1  0
  4 12  2  0
  5 18  1  0
  6  7  1  0
  6  8  1  0
  6 12  1  0
  7  9  1  0
  8 11  1  0
  9 10  1  0
 10 13  1  0
 11 14  2  0
 11 15  1  0
 14 17  1  0
 15 16  2  0
 16 18  1  0
 17 18  2  0
M  END
>  <PUBCHEM_COMPOUND_CID>  (1) 
28220

>  <PUBCHEM_CONFORMER_RMSD>  (1) 
0.8

>  <PUBCHEM_CONFORMER_DIVERSEORDER>  (1) 
1
34
46
15
5
2
35
50
37
29
25
21
28
16
43
20
36
32
3
51
47
41
27
8
10
17
23
38
48
31
24
18
9
12
30
7
39
22
13
33
26
42
19
52
14
40
44
45
49
4
6
11

>  <PUBCHEM_MMFF94_PARTIAL_CHARGES>  (1) 
18
1 -0.08
11 -0.14
12 0.66
14 -0.15
15 -0.15
16 0.08
17 0.08
18 0.08
2 -0.08
3 -0.65
31 0.15
32 0.15
33 0.5
34 0.45
4 -0.57
5 -0.53
6 0.06
8 0.14

>  <PUBCHEM_EFFECTIVE_ROTOR_COUNT>  (1) 
6

>  <PUBCHEM_PHARMACOPHORE_FEATURES>  (1) 
9
1 1 hydrophobe
1 13 hydrophobe
1 2 hydrophobe
1 3 acceptor
1 4 acceptor
1 5 donor
3 3 4 12 anion
5 6 7 8 9 10 hydrophobe
6 11 14 15 16 17 18 rings

>  <PUBCHEM_HEAVY_ATOM_COUNT>  (1) 
18

>  <PUBCHEM_ATOM_DEF_STEREO_COUNT>  (1) 
0

>  <PUBCHEM_ATOM_UDEF_STEREO_COUNT>  (1) 
1

>  <PUBCHEM_BOND_DEF_STEREO_COUNT>  (1) 
0

>  <PUBCHEM_BOND_UDEF_STEREO_COUNT>  (1) 
0

>  <PUBCHEM_ISOTOPIC_ATOM_COUNT>  (1) 
0

>  <PUBCHEM_COMPONENT_COUNT>  (1) 
1

>  <PUBCHEM_CACTVS_TAUTO_COUNT>  (1) 
2

>  <PUBCHEM_CONFORMER_ID>  (1) 
00006E3C00000001

>  <PUBCHEM_MMFF94_ENERGY>  (1) 
31.8615

>  <PUBCHEM_FEATURE_SELFOVERLAP>  (1) 
45.73

>  <PUBCHEM_SHAPE_FINGERPRINT>  (1) 
12251169 10 18342463668085599175
12403260 363 18272088297422516581
12633257 1 18130241431445918211
12892183 10 18057873835421848080
13103583 49 18340491062800377730
13140716 1 18342737450633412141
13533116 47 18264207088021206443
14251764 30 16226627190089993145
14466204 15 18051978009103055777
14787075 74 16828687120246254053
15209289 33 18186519891148181170
15375462 189 18408324406468873886
15420108 30 17839738171955264423
15537594 2 17750802052018347034
16945 1 18200894936481980263
17041 49 18412831265623175884
17780758 139 18340758240126664402
17804303 29 18409455768967598623
1813 80 17531823329057027302
18981168 100 13972852812450723421
20281475 54 18333728052877889254
20600515 1 18200599090418518564
20681677 274 18268144442964382395
20871999 31 8285905849329787745
212916 134 17986673667037463369
21403212 168 18121216477102272281
21501502 16 18341054137017842893
21524375 3 18058740087734682029
22445834 79 18335425702714536495
23503958 8 18187375358465267235
235170 7 12757439289391503410
23559900 14 18267575991257802453
23622692 88 18340771429491136525
238078 22 18409732825341054262
2838139 119 11815603173936293282
3286 77 18334579070044594155
4409770 3 17754725040501880084
5104073 3 18411143536549027304
5486654 36 18334577949290739050
58807428 26 18195824968202477987
7097593 13 18411420639327943300

>  <PUBCHEM_SHAPE_MULTIPOLES>  (1) 
376.69
8.63
3.64
1.38
8.09
1.65
0.07
3.01
-5.15
-2.19
-0.38
0.15
-0.26
-1.76

>  <PUBCHEM_SHAPE_SELFOVERLAP>  (1) 
721.972

>  <PUBCHEM_SHAPE_VOLUME>  (1) 
236.2

>  <PUBCHEM_COORDINATE_TYPE>  (1) 
2
5
10

$$$$
