28234
     RDKit          3D

 18 18  0  0  0  0  0  0  0  0999 V2000
   -5.9106   -0.5449   -0.5071 Br  0  0  0  0  0  0  0  0  0  0  0  0
    0.9850    0.1242   -1.4457 O   0  0  0  0  0  0  0  0  0  0  0  0
    3.4386   -0.0099   -0.1906 N   0  0  0  0  0  0  0  0  0  0  0  0
   -0.0253    0.4467    0.6488 N   0  0  0  0  0  0  0  0  0  0  0  0
    2.3431    0.7064    0.4617 C   0  0  0  0  0  0  0  0  0  0  0  0
    3.2069   -1.4530   -0.1409 C   0  0  0  0  0  0  0  0  0  0  0  0
    4.7150    0.3250    0.4396 C   0  0  0  0  0  0  0  0  0  0  0  0
   -1.3956    0.2162    0.3797 C   0  0  0  0  0  0  0  0  0  0  0  0
    1.0385    0.3904   -0.2492 C   0  0  0  0  0  0  0  0  0  0  0  0
   -2.2038    1.2777    0.0010 C   0  0  0  0  0  0  0  0  0  0  0  0
   -1.9066   -1.0677    0.4990 C   0  0  0  0  0  0  0  0  0  0  0  0
    4.3467   -2.1886   -0.8191 C   0  0  0  0  0  0  0  0  0  0  0  0
    4.9769    1.8147    0.3297 C   0  0  0  0  0  0  0  0  0  0  0  0
   -3.5541    1.0501   -0.2647 C   0  0  0  0  0  0  0  0  0  0  0  0
   -3.2569   -1.2953    0.2332 C   0  0  0  0  0  0  0  0  0  0  0  0
   -1.6684    2.6668   -0.1317 C   0  0  0  0  0  0  0  0  0  0  0  0
   -1.0487   -2.2223    0.9047 C   0  0  0  0  0  0  0  0  0  0  0  0
   -4.0807   -0.2364   -0.1485 C   0  0  0  0  0  0  0  0  0  0  0  0
  1 18  1  0
  2  9  2  0
  3  5  1  0
  3  6  1  0
  3  7  1  0
  4  8  1  0
  4  9  1  0
  5  9  1  0
  6 12  1  0
  7 13  1  0
  8 10  2  0
  8 11  1  0
 10 14  1  0
 10 16  1  0
 11 15  2  0
 11 17  1  0
 14 18  2  0
 15 18  1  0
M  END
>  <PUBCHEM_COMPOUND_CID>  (1) 
28234

>  <PUBCHEM_CONFORMER_RMSD>  (1) 
0.8

>  <PUBCHEM_CONFORMER_DIVERSEORDER>  (1) 
2
3
1
4

>  <PUBCHEM_MMFF94_PARTIAL_CHARGES>  (1) 
19
1 -0.11
10 -0.14
11 -0.14
14 -0.15
15 -0.15
16 0.14
17 0.14
18 0.11
2 -0.57
25 0.37
3 -0.81
32 0.15
33 0.15
4 -0.55
5 0.33
6 0.27
7 0.27
8 0.12
9 0.57

>  <PUBCHEM_EFFECTIVE_ROTOR_COUNT>  (1) 
6

>  <PUBCHEM_PHARMACOPHORE_FEATURES>  (1) 
5
1 1 hydrophobe
1 2 acceptor
1 3 cation
1 4 donor
6 8 10 11 14 15 18 rings

>  <PUBCHEM_HEAVY_ATOM_COUNT>  (1) 
18

>  <PUBCHEM_ATOM_DEF_STEREO_COUNT>  (1) 
0

>  <PUBCHEM_ATOM_UDEF_STEREO_COUNT>  (1) 
0

>  <PUBCHEM_BOND_DEF_STEREO_COUNT>  (1) 
0

>  <PUBCHEM_BOND_UDEF_STEREO_COUNT>  (1) 
0

>  <PUBCHEM_ISOTOPIC_ATOM_COUNT>  (1) 
0

>  <PUBCHEM_COMPONENT_COUNT>  (1) 
1

>  <PUBCHEM_CACTVS_TAUTO_COUNT>  (1) 
2

>  <PUBCHEM_CONFORMER_ID>  (1) 
00006E4A00000002

>  <PUBCHEM_MMFF94_ENERGY>  (1) 
62.5511

>  <PUBCHEM_FEATURE_SELFOVERLAP>  (1) 
25.371

>  <PUBCHEM_SHAPE_FINGERPRINT>  (1) 
10366900 7 18201158853537666696
11370993 70 18408882945333042378
12236239 1 17240756302836020849
12507560 40 18343018866039821420
12916748 109 18186803578090661961
12916754 54 18200879465656540176
13167823 11 18272086059053439526
13533116 47 18341331115422478114
13544592 145 18334862658731088766
14115302 16 17967820491532591007
14790565 3 17691970363361078737
15196674 1 18411700950410740715
15375358 24 18409167744614290722
15536298 74 18410855430480518578
15961568 22 17895197757631083484
17834072 14 18410576188607005966
187816 3 18334290990072781577
200 152 17561080306900726019
20279233 1 18410860975362152634
20510252 161 18411699855178620161
20645477 56 18261111893510169728
20645477 70 18059859428999584670
21029758 11 18412260675197547025
21637258 2 16486957524145268847
23402539 116 18411410735555371613
23557571 272 18411418410192950537
23559900 14 18338232773402202464
2748010 2 17828759887949593729
2871803 45 18335701615761645010
3004659 81 18334858286538660546
3286 77 17418370307543813281
351380 180 18413386540417103381
3545911 37 18409731785515772268
4214541 1 18339361855853288112
5104073 3 18340207401432008762
58051976 378 18410295847949969988
59755656 215 18261672567864348631
69090 78 18412824689938737275
9709674 26 18410016554605980410

>  <PUBCHEM_SHAPE_MULTIPOLES>  (1) 
360.54
11.52
2.28
0.88
2.09
0.08
-0.1
-1
-1.35
0.85
0.04
0.13
-0.19
0.92

>  <PUBCHEM_SHAPE_SELFOVERLAP>  (1) 
714.726

>  <PUBCHEM_SHAPE_VOLUME>  (1) 
220.8

>  <PUBCHEM_COORDINATE_TYPE>  (1) 
2
5
10

$$$$
