28236
     RDKit          3D

 16 17  0  0  1  0  0  0  0  0999 V2000
    1.3046    2.5169   -0.4713 O   0  0  0  0  0  0  0  0  0  0  0  0
    1.8395   -2.2280   -0.0999 O   0  0  0  0  0  0  0  0  0  0  0  0
    2.9297    0.2759   -0.5621 O   0  0  0  0  0  0  0  0  0  0  0  0
   -4.7934    0.9352    0.0865 N   0  0  0  0  0  0  0  0  0  0  0  0
   -2.5751   -0.2568    0.5602 C   0  0  0  0  0  0  0  0  0  0  0  0
   -3.5750    0.2908   -0.4105 C   0  0  0  0  0  0  0  0  0  0  0  0
   -3.4015   -1.1927   -0.2660 C   0  0  0  0  0  0  0  0  0  0  0  0
   -1.1216   -0.1162    0.2638 C   0  0  0  0  0  0  0  0  0  0  0  0
   -0.3064   -1.2471    0.2186 C   0  0  0  0  0  0  0  0  0  0  0  0
   -0.5761    1.1464    0.0315 C   0  0  0  0  0  0  0  0  0  0  0  0
    0.7845    1.2781   -0.2459 C   0  0  0  0  0  0  0  0  0  0  0  0
    1.0543   -1.1155   -0.0588 C   0  0  0  0  0  0  0  0  0  0  0  0
    1.5997    0.1472   -0.2910 C   0  0  0  0  0  0  0  0  0  0  0  0
    1.7933    3.2306    0.6627 C   0  0  0  0  0  0  0  0  0  0  0  0
    1.2031   -3.4798    0.1489 C   0  0  0  0  0  0  0  0  0  0  0  0
    3.8404   -0.1849    0.4334 C   0  0  0  0  0  0  0  0  0  0  0  0
  1 11  1  0
  1 14  1  0
  2 12  1  0
  2 15  1  0
  3 13  1  0
  3 16  1  0
  4  6  1  0
  5  6  1  0
  5  7  1  0
  5  8  1  0
  6  7  1  0
  8  9  2  0
  8 10  1  0
  9 12  1  0
 10 11  2  0
 11 13  1  0
 12 13  2  0
M  END
>  <PUBCHEM_COMPOUND_CID>  (1) 
28236

>  <PUBCHEM_CONFORMER_RMSD>  (1) 
0.6

>  <PUBCHEM_CONFORMER_DIVERSEORDER>  (1) 
4
22
12
14
29
8
19
6
16
25
27
18
24
28
17
20
10
5
15
1
26
23
21
3
13
11
9
2
7

>  <PUBCHEM_MMFF94_PARTIAL_CHARGES>  (1) 
24
1 -0.36
10 -0.15
11 0.08
12 0.08
13 0.08
14 0.28
15 0.28
16 0.28
17 0.1
18 0.1
19 0.1
2 -0.36
20 0.1
21 0.36
22 0.36
23 0.15
24 0.15
3 -0.36
4 -0.88
5 -0.07
6 0.06
7 -0.2
8 -0.03
9 -0.15

>  <PUBCHEM_EFFECTIVE_ROTOR_COUNT>  (1) 
4.6

>  <PUBCHEM_PHARMACOPHORE_FEATURES>  (1) 
6
1 1 acceptor
1 2 acceptor
1 3 acceptor
1 4 cation
1 4 donor
6 8 9 10 11 12 13 rings

>  <PUBCHEM_HEAVY_ATOM_COUNT>  (1) 
16

>  <PUBCHEM_ATOM_DEF_STEREO_COUNT>  (1) 
0

>  <PUBCHEM_ATOM_UDEF_STEREO_COUNT>  (1) 
2

>  <PUBCHEM_BOND_DEF_STEREO_COUNT>  (1) 
0

>  <PUBCHEM_BOND_UDEF_STEREO_COUNT>  (1) 
0

>  <PUBCHEM_ISOTOPIC_ATOM_COUNT>  (1) 
0

>  <PUBCHEM_COMPONENT_COUNT>  (1) 
1

>  <PUBCHEM_CACTVS_TAUTO_COUNT>  (1) 
1

>  <PUBCHEM_CONFORMER_ID>  (1) 
00006E4C00000004

>  <PUBCHEM_MMFF94_ENERGY>  (1) 
71.7494

>  <PUBCHEM_FEATURE_SELFOVERLAP>  (1) 
30.455

>  <PUBCHEM_SHAPE_FINGERPRINT>  (1) 
1 1 18337673125951291863
10608611 8 18335983172775179469
10967382 1 18337955584470374727
11401426 45 18411976966283480101
11471102 20 18409165489671804423
11680986 33 18049446134682182752
116883 192 17621037560457836103
12553582 1 17905901283550796867
13140716 1 18266181814703261411
13380535 76 18334015007721562795
13380536 305 18339084907640121700
13922767 16 18411697724774542768
14251717 144 18410572894261705447
14790565 3 18337682991871751900
16945 1 18339092543806994475
18186145 218 18127989687345481689
193761 8 17761213215746242822
20201158 50 18334577932136846987
20511035 2 17825682315489256586
20588541 1 18260834782278104582
20645476 183 17679603386903852678
20645477 70 18335697282614280167
21029758 11 18342182167729792876
21501502 16 18050855407630070346
21524375 3 17900532690378595929
2255824 54 18337113470132447325
2334 1 17906177600054669130
23402539 116 18343575244682892902
23419403 2 17318405952983411100
23559900 14 18197238025871297812
25 1 18333453153242667079
257057 1 18049434846954422650
2748010 2 17975709594487964846
3060560 45 18412824698460100542
3091708 16 9288894683564724315
34934 24 18340199696419194263
4072396 5 18262784195193602370
7364860 26 18411980252086422921
7832392 63 18198071270125760425
81228 2 17470174660795253698
84936 182 18129662040358025857

>  <PUBCHEM_SHAPE_MULTIPOLES>  (1) 
306.68
6.2
3.19
0.72
5.6
0.39
0.03
-0.85
0
-2.67
0.32
-0.05
-0.1
0.05

>  <PUBCHEM_SHAPE_SELFOVERLAP>  (1) 
637.55

>  <PUBCHEM_SHAPE_VOLUME>  (1) 
176.8

>  <PUBCHEM_COORDINATE_TYPE>  (1) 
2
5
10

$$$$
