28230
     RDKit          3D

 38 43  0  0  1  0  0  0  0  0999 V2000
    3.8141   -3.0553   -0.8791 O   0  0  0  0  0  0  0  0  0  0  0  0
   -4.0831   -0.9864    0.9401 O   0  0  0  0  0  0  0  0  0  0  0  0
    6.1057    3.3585    0.9874 O   0  0  0  0  0  0  0  0  0  0  0  0
   -5.8172    0.5811    1.1046 O   0  0  0  0  0  0  0  0  0  0  0  0
    8.0111    3.5458   -0.2896 O   0  0  0  0  0  0  0  0  0  0  0  0
   -6.1826   -1.5913   -0.7522 O   0  0  0  0  0  0  0  0  0  0  0  0
   -5.2735    1.6002   -2.2725 O   0  0  0  0  0  0  0  0  0  0  0  0
   -7.8495    2.3042   -1.4437 O   0  0  0  0  0  0  0  0  0  0  0  0
   -5.3095    3.2097    1.8173 O   0  0  0  0  0  0  0  0  0  0  0  0
    3.4690   -1.6729   -0.9422 C   0  0  0  0  0  0  0  0  0  0  0  0
    1.9477   -1.5426   -0.5834 C   0  0  0  0  0  0  0  0  0  0  0  0
    1.6776   -1.7390    0.9344 C   0  0  0  0  0  0  0  0  0  0  0  0
    4.4092   -0.8235   -0.0329 C   0  0  0  0  0  0  0  0  0  0  0  0
    0.1430   -1.6678    1.3254 C   0  0  0  0  0  0  0  0  0  0  0  0
   -0.6949   -2.6033    0.3927 C   0  0  0  0  0  0  0  0  0  0  0  0
    2.5514   -0.7627    1.7459 C   0  0  0  0  0  0  0  0  0  0  0  0
    4.0355   -0.9426    1.4543 C   0  0  0  0  0  0  0  0  0  0  0  0
    4.1929    0.5991   -0.6237 C   0  0  0  0  0  0  0  0  0  0  0  0
    1.0966   -2.5443   -1.3875 C   0  0  0  0  0  0  0  0  0  0  0  0
    3.7596   -1.1002   -2.3481 C   0  0  0  0  0  0  0  0  0  0  0  0
   -0.3845   -2.3790   -1.0948 C   0  0  0  0  0  0  0  0  0  0  0  0
    4.1387    0.3724   -2.1439 C   0  0  0  0  0  0  0  0  0  0  0  0
   -0.4115   -0.2170    1.2456 C   0  0  0  0  0  0  0  0  0  0  0  0
   -2.2133   -2.4759    0.6238 C   0  0  0  0  0  0  0  0  0  0  0  0
    5.8965   -1.2570   -0.1542 C   0  0  0  0  0  0  0  0  0  0  0  0
   -0.0023   -2.1750    2.7884 C   0  0  0  0  0  0  0  0  0  0  0  0
   -1.9195   -0.1183    1.4794 C   0  0  0  0  0  0  0  0  0  0  0  0
   -2.7119   -1.0339    0.5555 C   0  0  0  0  0  0  0  0  0  0  0  0
    5.1797    1.6455   -0.2163 C   0  0  0  0  0  0  0  0  0  0  0  0
    4.9455    2.5208    0.9502 C   0  0  0  0  0  0  0  0  0  0  0  0
    6.3393    1.9274   -0.8043 C   0  0  0  0  0  0  0  0  0  0  0  0
   -4.7742    0.0692    0.2740 C   0  0  0  0  0  0  0  0  0  0  0  0
    6.9384    3.0230   -0.0406 C   0  0  0  0  0  0  0  0  0  0  0  0
   -5.3377   -0.4771   -1.0429 C   0  0  0  0  0  0  0  0  0  0  0  0
   -6.1489    0.5930   -1.7743 C   0  0  0  0  0  0  0  0  0  0  0  0
   -6.5771    1.6470    0.5232 C   0  0  0  0  0  0  0  0  0  0  0  0
   -7.1783    1.2158   -0.8232 C   0  0  0  0  0  0  0  0  0  0  0  0
   -5.7818    2.9524    0.5071 C   0  0  0  0  0  0  0  0  0  0  0  0
  1 10  1  0
  2 28  1  0
  2 32  1  0
  3 30  1  0
  3 33  1  0
  4 32  1  0
  4 36  1  0
  5 33  2  0
  6 34  1  0
  7 35  1  0
  8 37  1  0
  9 38  1  0
 10 11  1  0
 10 13  1  0
 10 20  1  0
 11 12  1  0
 11 19  1  0
 12 14  1  0
 12 16  1  0
 13 17  1  0
 13 18  1  0
 13 25  1  0
 14 15  1  0
 14 23  1  0
 14 26  1  0
 15 21  1  0
 15 24  1  0
 16 17  1  0
 18 22  1  0
 18 29  1  0
 19 21  1  0
 20 22  1  0
 23 27  1  0
 24 28  1  0
 27 28  1  0
 29 30  1  0
 29 31  2  0
 31 33  1  0
 32 34  1  0
 34 35  1  0
 35 37  1  0
 36 37  1  0
 36 38  1  0
M  END
>  <PUBCHEM_COMPOUND_CID>  (1) 
28230

>  <PUBCHEM_CONFORMER_RMSD>  (1) 
1

>  <PUBCHEM_CONFORMER_DIVERSEORDER>  (1) 
1
243
61
167
53
173
73
180
70
54
17
244
192
122
4
137
184
64
113
232
104
114
205
128
154
204
230
197
133
56
178
50
183
202
99
95
138
212
239
52
226
68
224
67
136
31
223
115
176
175
199
231
225
80
160
195
182
21
221
174
66
140
30
233
190
32
163
40
37
150
82
74
218
146
58
43
168
237
220
162
228
85
116
9
88
90
125
26
106
148
91
77
141
206
57
240
169
76
47
191
92
227
135
2
211
28
18
156
8
81
130
171
78
79
203
72
152
59
36
196
121
149
14
55
117
213
216
109
120
93
119
12
209
69
236
193
201
189
3
242
157
147
153
100
35
38
159
215
63
65
134
51
111
217
214
25
24
170
75
200
103
96
42
101
186
39
139
108
110
235
105
210
98
177
49
246
144
97
185
45
222
131
62
84
6
145
71
172
164
245
129
23
241
112
126
34
234
107
20
22
5
151
118
198
161
27
143
86
155
219
132
179
44
89
165
188
194
10
207
142
166
123
41
87
19
187
124
13
102
94
208
7
229
29
127
83
33
181
46
48
238
16
60
158
15
11

>  <PUBCHEM_MMFF94_PARTIAL_CHARGES>  (1) 
28
1 -0.68
10 0.28
18 0.14
2 -0.56
28 0.28
29 -0.28
3 -0.43
30 0.42
31 -0.14
32 0.56
33 0.71
34 0.28
35 0.28
36 0.28
37 0.28
38 0.28
4 -0.56
5 -0.57
6 -0.68
68 0.4
7 -0.68
71 0.15
77 0.4
8 -0.68
80 0.4
81 0.4
82 0.4
9 -0.68

>  <PUBCHEM_EFFECTIVE_ROTOR_COUNT>  (1) 
7.8

>  <PUBCHEM_PHARMACOPHORE_FEATURES>  (1) 
19
1 1 acceptor
1 1 donor
1 2 acceptor
1 4 acceptor
1 5 acceptor
1 6 acceptor
1 6 donor
1 7 acceptor
1 7 donor
1 8 acceptor
1 8 donor
1 9 acceptor
1 9 donor
5 10 13 18 20 22 rings
5 3 29 30 31 33 rings
6 10 11 12 13 16 17 rings
6 11 12 14 15 19 21 rings
6 14 15 23 24 27 28 rings
6 4 32 34 35 36 37 rings

>  <PUBCHEM_HEAVY_ATOM_COUNT>  (1) 
38

>  <PUBCHEM_ATOM_DEF_STEREO_COUNT>  (1) 
8

>  <PUBCHEM_ATOM_UDEF_STEREO_COUNT>  (1) 
5

>  <PUBCHEM_BOND_DEF_STEREO_COUNT>  (1) 
0

>  <PUBCHEM_BOND_UDEF_STEREO_COUNT>  (1) 
0

>  <PUBCHEM_ISOTOPIC_ATOM_COUNT>  (1) 
0

>  <PUBCHEM_COMPONENT_COUNT>  (1) 
1

>  <PUBCHEM_CACTVS_TAUTO_COUNT>  (1) 
1

>  <PUBCHEM_CONFORMER_ID>  (1) 
00006E4600000001

>  <PUBCHEM_MMFF94_ENERGY>  (1) 
130.8651

>  <PUBCHEM_FEATURE_SELFOVERLAP>  (1) 
96.712

>  <PUBCHEM_SHAPE_FINGERPRINT>  (1) 
10006869 2 18334565829409610772
10280341 67 18269826683730574984
10533779 1 18262225716275678556
10554248 39 17988649553989500790
10675989 125 18337112259510949890
10677351 27 14045453514436944871
11135609 12 9079121034246167916
11135609 127 18342170059879024694
117089 54 9439139670873518412
11763715 3 11239728533965753610
12013929 29 18128545868388773217
12422481 6 15068612769336045759
12623949 98 9151176467641434426
131258 43 11095886029664126458
13383661 66 9799152763335601508
13627167 48 18341328886767423241
13673619 4 10015598198657702202
13782708 43 9799693683921057395
13947930 73 9583520893587182108
14251764 30 9007059049839182858
14664723 55 17486224323159795329
14904525 67 18264773152227389849
14931854 50 17631747057738138312
14950920 106 12468355764982693559
15082195 135 17989208109953442962
15183329 4 18272368651196329305
15238133 3 17531535394760460366
15289351 153 18411416237962599688
15350500 55 18335701706684081940
15510800 12 10592045752162745452
15950262 2 18263084486828160016
16989378 47 13758355587278963609
16994733 274 18336820987133211136
17899979 129 18342465820207021152
19246450 95 13985198026086608175
19438510 23 18334294301149812194
20691028 202 17967817094678060405
20715895 44 18341617005831232506
21033648 29 17458065988700146074
21298829 104 18334015029481235860
21424621 283 18259704518769100083
21599406 157 17203894046149565077
21814621 53 17895204298269884106
23191077 185 18336535088683993155
23522609 53 17130729196910794067
23569914 2 17904439147744659492
24180151 46 14996547487169456132
25269216 80 15841558505150315469
2748736 6 18408600374759785041
2838139 119 18411703153723896827
3388396 114 17560537169969805656
3504750 166 8430317927394324731
3862424 121 13397773034421403333
3918712 181 18336540535055763677
393628 179 18200867508827148848
4112364 45 18041268898722978362
4756326 101 17274245271957709792
50677037 204 18336270059421934309
5104073 3 13768221539590689514
513202 73 9007067855029029147
5372103 7 18413106186290291892
54039377 194 8286215950606605992
6695519 79 17824290179440087891
6697151 62 18124324809433659350
9555976 147 15864641694427762673
9896288 288 10624199247624956378
999808 66 8357996445769778488

>  <PUBCHEM_SHAPE_MULTIPOLES>  (1) 
729.2
21.74
4.04
2.09
15.45
2.37
0.07
24.58
5.69
-3.29
-0.47
0.54
-0.4
0.92

>  <PUBCHEM_SHAPE_SELFOVERLAP>  (1) 
1565.775

>  <PUBCHEM_SHAPE_VOLUME>  (1) 
399.1

>  <PUBCHEM_COORDINATE_TYPE>  (1) 
2
5
10

$$$$
