28245
     RDKit          3D

 25 27  0  0  0  0  0  0  0  0999 V2000
   -0.7791    2.3894   -1.9054 O   0  0  0  0  0  0  0  0  0  0  0  0
   -1.4157    2.3419    0.1949 O   0  0  0  0  0  0  0  0  0  0  0  0
   -3.9841   -0.5597    0.3771 N   0  0  0  0  0  0  0  0  0  0  0  0
   -0.4678   -0.3397   -0.7257 N   0  0  0  0  0  0  0  0  0  0  0  0
    3.5394   -0.1875    0.4914 N   0  0  0  0  0  0  0  0  0  0  0  0
   -0.5235    2.3147   -0.6825 N   0  0  0  0  0  0  0  0  0  0  0  0
   -2.8686   -0.4586   -0.5557 C   0  0  0  0  0  0  0  0  0  0  0  0
   -1.5473   -0.4112    0.2009 C   0  0  0  0  0  0  0  0  0  0  0  0
    0.8895   -0.2558   -0.3127 C   0  0  0  0  0  0  0  0  0  0  0  0
    1.5163    0.9753   -0.0949 C   0  0  0  0  0  0  0  0  0  0  0  0
    1.5890   -1.4527   -0.1282 C   0  0  0  0  0  0  0  0  0  0  0  0
   -5.1662   -1.1089   -0.2898 C   0  0  0  0  0  0  0  0  0  0  0  0
   -4.2915    0.7487    0.9578 C   0  0  0  0  0  0  0  0  0  0  0  0
    2.8612    0.9625    0.3122 C   0  0  0  0  0  0  0  0  0  0  0  0
    2.9309   -1.3705    0.2802 C   0  0  0  0  0  0  0  0  0  0  0  0
    0.8375    2.1934   -0.2728 C   0  0  0  0  0  0  0  0  0  0  0  0
    0.9841   -2.7039   -0.3399 C   0  0  0  0  0  0  0  0  0  0  0  0
   -4.8701   -2.4681   -0.9005 C   0  0  0  0  0  0  0  0  0  0  0  0
   -5.4090    0.6460    1.9819 C   0  0  0  0  0  0  0  0  0  0  0  0
    3.4908    2.1849    0.5305 C   0  0  0  0  0  0  0  0  0  0  0  0
    3.6327   -2.5587    0.4657 C   0  0  0  0  0  0  0  0  0  0  0  0
    1.4898    3.4020   -0.0479 C   0  0  0  0  0  0  0  0  0  0  0  0
    2.8192    3.3973    0.3547 C   0  0  0  0  0  0  0  0  0  0  0  0
    1.7077   -3.8770   -0.1476 C   0  0  0  0  0  0  0  0  0  0  0  0
    3.0347   -3.8038    0.2560 C   0  0  0  0  0  0  0  0  0  0  0  0
  1  6  1  0
  2  6  2  0
  3  7  1  0
  3 12  1  0
  3 13  1  0
  4  8  1  0
  4  9  1  0
  5 14  2  0
  5 15  1  0
  6 16  1  0
  7  8  1  0
  9 10  2  0
  9 11  1  0
 10 14  1  0
 10 16  1  0
 11 15  2  0
 11 17  1  0
 12 18  1  0
 13 19  1  0
 14 20  1  0
 15 21  1  0
 16 22  2  0
 17 24  2  0
 20 23  2  0
 21 25  2  0
 22 23  1  0
 24 25  1  0
M  CHG  2   1  -1   6   1
M  END
>  <PUBCHEM_COMPOUND_CID>  (1) 
28245

>  <PUBCHEM_CONFORMER_RMSD>  (1) 
0.8

>  <PUBCHEM_CONFORMER_DIVERSEORDER>  (1) 
6
13
8
7
2
10
3
9
14
16
19
17
11
1
12
4
5
18
15

>  <PUBCHEM_MMFF94_PARTIAL_CHARGES>  (1) 
29
1 -0.52
12 0.27
13 0.27
14 0.31
15 0.31
16 0.13
17 -0.15
2 -0.52
20 -0.15
21 -0.15
22 -0.15
23 -0.15
24 -0.15
25 -0.15
3 -0.81
30 0.4
35 0.15
4 -0.87
42 0.15
43 0.15
44 0.15
45 0.15
46 0.15
47 0.15
5 -0.62
6 0.91
7 0.27
8 0.37
9 0.1

>  <PUBCHEM_EFFECTIVE_ROTOR_COUNT>  (1) 
7

>  <PUBCHEM_PHARMACOPHORE_FEATURES>  (1) 
10
1 1 acceptor
1 1 anion
1 2 acceptor
1 3 cation
1 4 cation
1 4 donor
1 5 acceptor
6 10 14 16 20 22 23 rings
6 11 15 17 21 24 25 rings
6 5 9 10 11 14 15 rings

>  <PUBCHEM_HEAVY_ATOM_COUNT>  (1) 
25

>  <PUBCHEM_ATOM_DEF_STEREO_COUNT>  (1) 
0

>  <PUBCHEM_ATOM_UDEF_STEREO_COUNT>  (1) 
0

>  <PUBCHEM_BOND_DEF_STEREO_COUNT>  (1) 
0

>  <PUBCHEM_BOND_UDEF_STEREO_COUNT>  (1) 
0

>  <PUBCHEM_ISOTOPIC_ATOM_COUNT>  (1) 
0

>  <PUBCHEM_COMPONENT_COUNT>  (1) 
1

>  <PUBCHEM_CACTVS_TAUTO_COUNT>  (1) 
2

>  <PUBCHEM_CONFORMER_ID>  (1) 
00006E5500000006

>  <PUBCHEM_MMFF94_ENERGY>  (1) 
105.7118

>  <PUBCHEM_FEATURE_SELFOVERLAP>  (1) 
50.888

>  <PUBCHEM_SHAPE_FINGERPRINT>  (1) 
10411042 1 18194959648030227542
10967382 1 18410566327820854910
1100329 8 18051405468851139456
12107183 9 18126856989085321129
12553582 1 18267303136275829718
12633257 1 18129668470166114995
12788726 201 17685786717912881570
13140716 1 18121487223303204026
13533116 47 18342736364951334707
138480 1 18338796719650489944
14790565 3 18192721269947248460
14844126 61 17398098362164884731
14863182 85 18189623915346717164
15042514 8 17545604452858956114
15420108 30 18131347539821577542
15475509 84 17914342281556567225
15927050 60 18052537957432837174
16728300 4 17536268693607524984
17138139 8 17124778914585344631
17492 89 18411702102042906891
17818456 19 17702115668586875489
19377110 9 18058179500129428963
19591789 44 18410571804263002828
20028762 73 18128530651546068070
20511986 3 17988633130377179105
20642791 268 18131070394229650713
20739085 24 18261677076904932196
20775438 99 17543858583260713549
20775530 9 18117280250706632394
21197605 99 17903641031537164843
21285901 2 17604694673363066301
21421861 104 18270698479916831353
221490 88 18264201422732100028
2334 1 17472123455694272804
23559900 14 18339069411424452531
2748010 2 18194942090540836620
3117164 225 18197227940776442137
3421961 26 18409731729301318059
350125 39 18410572890679102336
4409770 3 17253711577531024749
474 4 18339641273324178403
5104073 3 18341337755895534275
5312544 6 18268142248362831111
54173680 148 17617935834224974182
6443956 14 18337111142397199462
7097593 13 18341899545964782443

>  <PUBCHEM_SHAPE_MULTIPOLES>  (1) 
482.83
9.3
4.98
1.06
15.15
1.17
0.07
2.81
2.83
-5.45
-0.33
1.21
-0.36
-0.98

>  <PUBCHEM_SHAPE_SELFOVERLAP>  (1) 
1044.621

>  <PUBCHEM_SHAPE_VOLUME>  (1) 
264.3

>  <PUBCHEM_COORDINATE_TYPE>  (1) 
2
5
10

$$$$
