28247
     RDKit          3D

 26 28  0  0  0  0  0  0  0  0999 V2000
    0.5567   -2.9200    1.8594 O   0  0  0  0  0  0  0  0  0  0  0  0
   -0.3570   -2.9095   -0.1367 O   0  0  0  0  0  0  0  0  0  0  0  0
   -4.2269    0.0601   -0.4388 N   0  0  0  0  0  0  0  0  0  0  0  0
   -0.1282   -0.1460    0.9803 N   0  0  0  0  0  0  0  0  0  0  0  0
    3.5276    1.0462   -0.6859 N   0  0  0  0  0  0  0  0  0  0  0  0
    0.6020   -2.6752    0.6327 N   0  0  0  0  0  0  0  0  0  0  0  0
   -3.7573   -1.1049    0.3011 C   0  0  0  0  0  0  0  0  0  0  0  0
   -2.4631   -0.8135    1.0670 C   0  0  0  0  0  0  0  0  0  0  0  0
   -1.3004   -0.3411    0.1949 C   0  0  0  0  0  0  0  0  0  0  0  0
    1.1196    0.2272    0.4114 C   0  0  0  0  0  0  0  0  0  0  0  0
   -4.9292    0.9871    0.4506 C   0  0  0  0  0  0  0  0  0  0  0  0
   -5.1013   -0.3465   -1.5405 C   0  0  0  0  0  0  0  0  0  0  0  0
    2.0463   -0.7282   -0.0179 C   0  0  0  0  0  0  0  0  0  0  0  0
    1.3980    1.5924    0.2915 C   0  0  0  0  0  0  0  0  0  0  0  0
    3.2545   -0.2676   -0.5681 C   0  0  0  0  0  0  0  0  0  0  0  0
    2.6314    1.9623   -0.2709 C   0  0  0  0  0  0  0  0  0  0  0  0
    1.7928   -2.1066    0.0907 C   0  0  0  0  0  0  0  0  0  0  0  0
   -5.3665    2.2372   -0.2938 C   0  0  0  0  0  0  0  0  0  0  0  0
   -6.3501   -1.0400   -1.0229 C   0  0  0  0  0  0  0  0  0  0  0  0
    0.4851    2.5742    0.7147 C   0  0  0  0  0  0  0  0  0  0  0  0
    4.1812   -1.2139   -0.9971 C   0  0  0  0  0  0  0  0  0  0  0  0
    2.9145    3.3201   -0.3930 C   0  0  0  0  0  0  0  0  0  0  0  0
    2.7359   -3.0323   -0.3458 C   0  0  0  0  0  0  0  0  0  0  0  0
    3.9325   -2.5846   -0.8909 C   0  0  0  0  0  0  0  0  0  0  0  0
    0.7923    3.9251    0.5816 C   0  0  0  0  0  0  0  0  0  0  0  0
    2.0096    4.2983    0.0265 C   0  0  0  0  0  0  0  0  0  0  0  0
  1  6  1  0
  2  6  2  0
  3  7  1  0
  3 11  1  0
  3 12  1  0
  4  9  1  0
  4 10  1  0
  5 15  2  0
  5 16  1  0
  6 17  1  0
  7  8  1  0
  8  9  1  0
 10 13  2  0
 10 14  1  0
 11 18  1  0
 12 19  1  0
 13 15  1  0
 13 17  1  0
 14 16  2  0
 14 20  1  0
 15 21  1  0
 16 22  1  0
 17 23  2  0
 20 25  2  0
 21 24  2  0
 22 26  2  0
 23 24  1  0
 25 26  1  0
M  CHG  2   1  -1   6   1
M  END
>  <PUBCHEM_COMPOUND_CID>  (1) 
28247

>  <PUBCHEM_CONFORMER_RMSD>  (1) 
0.8

>  <PUBCHEM_CONFORMER_DIVERSEORDER>  (1) 
4
29
26
1
21
28
18
13
16
20
23
35
40
22
33
38
12
10
15
41
7
32
5
27
19
39
17
37
45
36
44
43
14
24
6
34
30
8
2
3
31
42
11
9
25

>  <PUBCHEM_MMFF94_PARTIAL_CHARGES>  (1) 
29
1 -0.52
10 0.1
11 0.27
12 0.27
15 0.31
16 0.31
17 0.13
2 -0.52
20 -0.15
21 -0.15
22 -0.15
23 -0.15
24 -0.15
25 -0.15
26 -0.15
3 -0.81
33 0.4
4 -0.87
44 0.15
45 0.15
46 0.15
47 0.15
48 0.15
49 0.15
5 -0.62
50 0.15
6 0.91
7 0.27
9 0.37

>  <PUBCHEM_EFFECTIVE_ROTOR_COUNT>  (1) 
8

>  <PUBCHEM_PHARMACOPHORE_FEATURES>  (1) 
10
1 1 acceptor
1 1 anion
1 2 acceptor
1 3 cation
1 4 cation
1 4 donor
1 5 acceptor
6 13 15 17 21 23 24 rings
6 14 16 20 22 25 26 rings
6 5 10 13 14 15 16 rings

>  <PUBCHEM_HEAVY_ATOM_COUNT>  (1) 
26

>  <PUBCHEM_ATOM_DEF_STEREO_COUNT>  (1) 
0

>  <PUBCHEM_ATOM_UDEF_STEREO_COUNT>  (1) 
0

>  <PUBCHEM_BOND_DEF_STEREO_COUNT>  (1) 
0

>  <PUBCHEM_BOND_UDEF_STEREO_COUNT>  (1) 
0

>  <PUBCHEM_ISOTOPIC_ATOM_COUNT>  (1) 
0

>  <PUBCHEM_COMPONENT_COUNT>  (1) 
1

>  <PUBCHEM_CACTVS_TAUTO_COUNT>  (1) 
2

>  <PUBCHEM_CONFORMER_ID>  (1) 
00006E5700000004

>  <PUBCHEM_MMFF94_ENERGY>  (1) 
105.792

>  <PUBCHEM_FEATURE_SELFOVERLAP>  (1) 
50.888

>  <PUBCHEM_SHAPE_FINGERPRINT>  (1) 
10411042 1 18267027141999297814
10693767 8 18059868263863299310
10906281 52 18337686303618234000
10930396 42 18195217007567263234
10967382 1 18267603441032139992
11273773 38 17616813233133505757
12553582 1 18193568765403476611
12730499 353 18263364862245763763
12769317 202 18338231690632600281
12788726 201 17760086211895733523
13140716 1 18051430736359740584
13533116 47 18341888645838997485
14400156 260 18047482118983712120
14681490 219 18339081488725107781
15081414 286 18340783567163400936
15210252 30 18042134180241152908
15326921 28 17550935323318034160
16087824 20 17834683686680229233
18681886 176 18342730789171583763
21478907 32 17978796701316912482
21860390 5 18342464746190943310
221357 26 18410008806843401933
22393880 68 18334852836172771719
23522609 53 17630348518076820081
23536364 44 17975133132614910350
23559900 14 18340772641019729554
238 59 18339360876453051755
24771293 8 18272926112350117968
2748010 2 17835547164395327168
46194498 28 18410851092826988751
5281201 14 18411138048108232685
543358 83 18338238137742300731
6004065 56 18341608261293466706
6443956 14 18337679611489097828
7164475 11 17979078176494538102
7471813 234 18201718418640139944

>  <PUBCHEM_SHAPE_MULTIPOLES>  (1) 
503.41
10.69
5
1.11
20.33
3.46
-0.06
-1.22
4.77
-5.2
-0.47
0.47
-0.47
0.11

>  <PUBCHEM_SHAPE_SELFOVERLAP>  (1) 
1083.494

>  <PUBCHEM_SHAPE_VOLUME>  (1) 
276.9

>  <PUBCHEM_COORDINATE_TYPE>  (1) 
2
5
10

$$$$
