28242
     RDKit          3D

 19 18  0  0  1  0  0  0  0  0999 V2000
    5.1125    0.7654    1.1863 O   0  0  0  0  0  0  0  0  0  0  0  0
   -0.1367   -1.1102   -1.9818 O   0  0  0  0  0  0  0  0  0  0  0  0
    4.3291    2.9703    0.0022 O   0  0  0  0  0  0  0  0  0  0  0  0
    1.2838    0.0386   -0.5466 N   0  0  0  0  0  0  0  0  0  0  0  0
    3.9309    0.9436    0.3587 N   0  0  0  0  0  0  0  0  0  0  0  0
    4.1447    1.8730   -0.5376 N   0  0  0  0  0  0  0  0  0  0  0  0
    3.7024   -0.3919   -0.2041 C   0  0  0  0  0  0  0  0  0  0  0  0
    3.5270   -1.4553    0.9165 C   0  0  0  0  0  0  0  0  0  0  0  0
    2.5261   -0.3218   -1.1897 C   0  0  0  0  0  0  0  0  0  0  0  0
   -3.5754    0.2595    0.2422 C   0  0  0  0  0  0  0  0  0  0  0  0
   -2.4558   -0.3210   -0.6225 C   0  0  0  0  0  0  0  0  0  0  0  0
   -4.9527   -0.1755   -0.2640 C   0  0  0  0  0  0  0  0  0  0  0  0
   -1.0830    0.1400   -0.1383 C   0  0  0  0  0  0  0  0  0  0  0  0
    3.3636   -2.8629    0.3274 C   0  0  0  0  0  0  0  0  0  0  0  0
    2.3721   -1.1678    1.8817 C   0  0  0  0  0  0  0  0  0  0  0  0
   -6.0721    0.4378    0.5801 C   0  0  0  0  0  0  0  0  0  0  0  0
    0.0464   -0.3914   -1.0031 C   0  0  0  0  0  0  0  0  0  0  0  0
   -7.4733    0.0532    0.1004 C   0  0  0  0  0  0  0  0  0  0  0  0
   -8.5897    0.7164    0.8921 C   0  0  0  0  0  0  0  0  0  0  0  0
  1  5  1  0
  2 17  2  0
  3  6  2  0
  4  9  1  0
  4 17  1  0
  5  6  1  0
  5  7  1  0
  7  8  1  0
  7  9  1  0
  8 14  1  0
  8 15  1  0
 10 11  1  0
 10 12  1  0
 11 13  1  0
 12 16  1  0
 13 17  1  0
 16 18  1  0
 18 19  1  0
M  END
>  <PUBCHEM_COMPOUND_CID>  (1) 
28242

>  <PUBCHEM_CONFORMER_RMSD>  (1) 
1

>  <PUBCHEM_CONFORMER_DIVERSEORDER>  (1) 
1
144
448
18
359
154
240
153
437
106
201
142
253
305
130
94
231
89
27
52
382
68
49
63
200
289
261
102
349
439
136
277
185
220
267
443
396
446
400
71
96
362
174
3
11
361
125
155
394
182
257
337
251
40
278
16
230
9
188
141
186
165
67
122
129
259
115
422
204
227
408
211
241
275
414
301
300
272
2
416
138
351
358
13
134
341
187
258
23
19
318
291
194
427
58
85
279
163
380
313
66
50
379
53
292
143
128
82
426
26
108
104
346
24
86
447
124
111
398
184
410
78
160
55
72
449
121
183
365
328
73
232
6
147
369
139
332
344
38
209
333
417
92
10
146
270
309
429
98
162
280
235
295
377
290
87
271
110
433
425
436
288
120
222
287
401
152
217
109
412
80
90
54
22
378
156
274
219
195
114
59
356
364
381
335
387
172
167
46
15
132
407
70
77
179
8
39
30
263
409
5
384
41
119
76
36
254
140
83
214
17
12
284
329
276
91
223
297
252
286
181
21
61
262
243
322
242
190
355
166
42
191
7
99
133
196
247
376
308
135
320
249
198
327
229
340
367
224
404
43
28
173
48
316
137
406
371
150
402
45
126
255
20
57
237
432
107
158
366
103
343
415
331
419
116
360
81
246
218
245
389
29
221
269
84
323
273
216
390
32
353
405
88
234
342
311
430
350
203
250
34
93
131
339
298
205
225
149
285
282
14
373
306
197
303
312
256
228
101
208
403
51
212
64
357
294
296
210
310
148
393
244
450
159
264
248
347
33
383
118
388
233
435
354
4
411
330
386
319
239
157
60
352
74
37
238
117
374
441
168
423
213
192
177
171
236
363
175
44
75
112
25
268
392
123
424
266
164
176
169
47
283
428
215
299
418
226
399
334
420
345
391
438
62
65
293
145
395
326
260
321
151
161
314
397
180
372
317
304
56
127
31
170
445
35
348
421
325
79
385
442
199
265
440
336
178
370
315
338
207
307
100
193
97
206
413
202
105
189
302
69
444
434
95
368
113
375
324
281
431

>  <PUBCHEM_MMFF94_PARTIAL_CHARGES>  (1) 
12
1 -0.3
13 0.06
17 0.57
2 -0.57
3 -0.16
4 -0.73
40 0.37
46 0.4
5 -0.19
6 -0.01
7 0.27
9 0.3

>  <PUBCHEM_EFFECTIVE_ROTOR_COUNT>  (1) 
12

>  <PUBCHEM_PHARMACOPHORE_FEATURES>  (1) 
7
1 1 anion
1 19 hydrophobe
1 2 acceptor
1 4 donor
3 10 11 13 hydrophobe
3 12 16 18 hydrophobe
3 8 14 15 hydrophobe

>  <PUBCHEM_HEAVY_ATOM_COUNT>  (1) 
19

>  <PUBCHEM_ATOM_DEF_STEREO_COUNT>  (1) 
0

>  <PUBCHEM_ATOM_UDEF_STEREO_COUNT>  (1) 
1

>  <PUBCHEM_BOND_DEF_STEREO_COUNT>  (1) 
0

>  <PUBCHEM_BOND_UDEF_STEREO_COUNT>  (1) 
0

>  <PUBCHEM_ISOTOPIC_ATOM_COUNT>  (1) 
0

>  <PUBCHEM_COMPONENT_COUNT>  (1) 
1

>  <PUBCHEM_CACTVS_TAUTO_COUNT>  (1) 
2

>  <PUBCHEM_CONFORMER_ID>  (1) 
00006E5200000001

>  <PUBCHEM_MMFF94_ENERGY>  (1) 
18.3396

>  <PUBCHEM_FEATURE_SELFOVERLAP>  (1) 
35.533

>  <PUBCHEM_SHAPE_FINGERPRINT>  (1) 
10670039 82 16486711194021219824
125118 31 18272939285258226201
12596602 18 18408888456066013019
13533116 47 18187647955734371531
13955234 65 18335696118604563082
14251732 16 18338519746411532683
14251757 52 18202002136259945921
14251764 18 18272933848071488199
14251764 75 18124593351947180872
20157964 124 18410857659483772215
20281389 69 18335987476838981181
20369508 70 12973604456427537774
20397935 70 17894354350074878131
212847 35 16702300139908387710
21344244 78 18199171920257103936
220451 1 18334017194561302767
22224240 67 17386002927485107952
23081809 10 17703783713963108879
3060560 45 12751241406922986284
42630746 31 17385443215335881675
4340502 62 17967812768780661171
5104073 3 17823126840224307073
5374978 207 18408039593743463381
59682541 52 11167944666798338313
6438161 24 9150901541889054324
8988823 20 18260265239597207249

>  <PUBCHEM_SHAPE_MULTIPOLES>  (1) 
358.46
18.81
1.95
1.33
45.18
0.35
0.05
4.73
-6.59
-4.99
-0.3
-0.73
-0.36
-0.61

>  <PUBCHEM_SHAPE_SELFOVERLAP>  (1) 
670.668

>  <PUBCHEM_SHAPE_VOLUME>  (1) 
224.2

>  <PUBCHEM_COORDINATE_TYPE>  (1) 
2
5
10

$$$$
