28258
     RDKit          3D

  6  5  0  0  0  0  0  0  0  0999 V2000
    0.5982    0.4167    0.0000 O   0  0  0  0  0  0  0  0  0  0  0  0
   -0.5982   -0.4165    0.0000 O   0  0  0  0  0  0  0  0  0  0  0  0
    2.9309    0.1992    0.0000 O   0  0  0  0  0  0  0  0  0  0  0  0
   -2.9308   -0.1995    0.0000 O   0  0  0  0  0  0  0  0  0  0  0  0
    1.6909   -0.4929    0.0000 C   0  0  0  0  0  0  0  0  0  0  0  0
   -1.6910    0.4929    0.0000 C   0  0  0  0  0  0  0  0  0  0  0  0
  1  2  1  0
  1  5  1  0
  2  6  1  0
  3  5  1  0
  4  6  1  0
M  END
>  <PUBCHEM_COMPOUND_CID>  (1) 
28258

>  <PUBCHEM_CONFORMER_RMSD>  (1) 
0.4

>  <PUBCHEM_CONFORMER_DIVERSEORDER>  (1) 
1
5
6
4
8
9
10
7
2
3

>  <PUBCHEM_MMFF94_PARTIAL_CHARGES>  (1) 
8
1 -0.28
11 0.4
12 0.4
2 -0.28
3 -0.68
4 -0.68
5 0.56
6 0.56

>  <PUBCHEM_EFFECTIVE_ROTOR_COUNT>  (1) 
3

>  <PUBCHEM_PHARMACOPHORE_FEATURES>  (1) 
4
1 3 acceptor
1 3 donor
1 4 acceptor
1 4 donor

>  <PUBCHEM_HEAVY_ATOM_COUNT>  (1) 
6

>  <PUBCHEM_ATOM_DEF_STEREO_COUNT>  (1) 
0

>  <PUBCHEM_ATOM_UDEF_STEREO_COUNT>  (1) 
0

>  <PUBCHEM_BOND_DEF_STEREO_COUNT>  (1) 
0

>  <PUBCHEM_BOND_UDEF_STEREO_COUNT>  (1) 
0

>  <PUBCHEM_ISOTOPIC_ATOM_COUNT>  (1) 
0

>  <PUBCHEM_COMPONENT_COUNT>  (1) 
1

>  <PUBCHEM_CACTVS_TAUTO_COUNT>  (1) 
1

>  <PUBCHEM_CONFORMER_ID>  (1) 
00006E6200000001

>  <PUBCHEM_MMFF94_ENERGY>  (1) 
-1.7201

>  <PUBCHEM_FEATURE_SELFOVERLAP>  (1) 
20.297

>  <PUBCHEM_SHAPE_FINGERPRINT>  (1) 
14390081 3 10809345555011476247
16714656 1 9511460022129803185
29004967 10 16515691013446378408
5460574 1 18410856551049854983

>  <PUBCHEM_SHAPE_MULTIPOLES>  (1) 
100
4.36
0.7
0.54
0
0
0
0
0
0
0
0
0
0

>  <PUBCHEM_SHAPE_SELFOVERLAP>  (1) 
167.949

>  <PUBCHEM_SHAPE_VOLUME>  (1) 
66.3

>  <PUBCHEM_COORDINATE_TYPE>  (1) 
2
5
10

$$$$
