28268
     RDKit          3D

 24 26  0  0  1  0  0  0  0  0999 V2000
    2.5797   -3.0489   -0.4857 Cl  0  0  0  0  0  0  0  0  0  0  0  0
   -0.4674    0.1396    0.0916 O   0  0  0  0  0  0  0  0  0  0  0  0
    0.9921   -0.1822    1.8227 O   0  0  0  0  0  0  0  0  0  0  0  0
   -3.2861   -0.2708   -0.1539 N   0  0  0  0  0  0  0  0  0  0  0  0
    1.6966   -0.1554   -0.4097 N   0  0  0  0  0  0  0  0  0  0  0  0
   -2.7211    1.0380    0.1737 C   0  0  0  0  0  0  0  0  0  0  0  0
   -1.3796    0.8762    0.9068 C   0  0  0  0  0  0  0  0  0  0  0  0
   -2.5703    1.8888   -1.0952 C   0  0  0  0  0  0  0  0  0  0  0  0
   -0.7688    2.2448    1.2242 C   0  0  0  0  0  0  0  0  0  0  0  0
   -1.9522    3.2494   -0.7749 C   0  0  0  0  0  0  0  0  0  0  0  0
   -0.6283    3.1131   -0.0274 C   0  0  0  0  0  0  0  0  0  0  0  0
   -3.4311   -1.0864    1.0601 C   0  0  0  0  0  0  0  0  0  0  0  0
   -4.5729   -0.1165   -0.8469 C   0  0  0  0  0  0  0  0  0  0  0  0
   -3.9751   -2.4769    0.7289 C   0  0  0  0  0  0  0  0  0  0  0  0
   -5.1542   -1.4754   -1.2407 C   0  0  0  0  0  0  0  0  0  0  0  0
   -5.2949   -2.3901   -0.0293 C   0  0  0  0  0  0  0  0  0  0  0  0
    0.7797   -0.0786    0.6207 C   0  0  0  0  0  0  0  0  0  0  0  0
    3.0909   -0.3699   -0.3200 C   0  0  0  0  0  0  0  0  0  0  0  0
    3.9335    0.7277   -0.2066 C   0  0  0  0  0  0  0  0  0  0  0  0
    3.6001   -1.6611   -0.3457 C   0  0  0  0  0  0  0  0  0  0  0  0
    5.3114    0.5302   -0.1172 C   0  0  0  0  0  0  0  0  0  0  0  0
    3.4060    2.1258   -0.1770 C   0  0  0  0  0  0  0  0  0  0  0  0
    4.9781   -1.8585   -0.2564 C   0  0  0  0  0  0  0  0  0  0  0  0
    5.8337   -0.7629   -0.1419 C   0  0  0  0  0  0  0  0  0  0  0  0
  1 20  1  0
  2  7  1  0
  2 17  1  0
  3 17  2  0
  4  6  1  0
  4 12  1  0
  4 13  1  0
  5 17  1  0
  5 18  1  0
  6  7  1  0
  6  8  1  0
  7  9  1  0
  8 10  1  0
  9 11  1  0
 10 11  1  0
 12 14  1  0
 13 15  1  0
 14 16  1  0
 15 16  1  0
 18 19  2  0
 18 20  1  0
 19 21  1  0
 19 22  1  0
 20 23  2  0
 21 24  2  0
 23 24  1  0
M  END
>  <PUBCHEM_COMPOUND_CID>  (1) 
28268

>  <PUBCHEM_CONFORMER_RMSD>  (1) 
0.8

>  <PUBCHEM_CONFORMER_DIVERSEORDER>  (1) 
2
113
170
163
151
35
97
131
157
60
184
36
77
186
132
20
158
185
162
119
142
117
27
45
81
147
164
116
187
149
161
144
150
169
111
90
130
6
56
48
93
89
143
176
112
171
13
189
54
180
179
129
105
107
63
98
135
7
183
125
11
137
72
165
58
44
114
29
46
181
178
79
160
53
145
121
32
26
182
94
78
12
156
109
146
49
175
51
14
139
102
110
84
25
140
61
106
17
55
50
133
21
85
188
136
74
76
65
24
148
42
87
16
92
28
30
153
167
59
152
123
91
173
37
168
43
159
88
70
33
104
174
127
103
108
31
40
86
38
15
124
47
122
57
96
83
128
172
126
5
62
100
154
82
190
99
18
115
101
9
134
166
3
52
34
39
73
75
69
95
10
66
64
118
120
8
22
80
155
138
141
23
4
67
177
71
1
41
68
19

>  <PUBCHEM_MMFF94_PARTIAL_CHARGES>  (1) 
21
1 -0.18
12 0.27
13 0.27
17 0.78
18 0.12
19 -0.14
2 -0.43
20 0.18
21 -0.15
22 0.14
23 -0.15
24 -0.15
3 -0.57
4 -0.81
45 0.37
46 0.15
5 -0.55
50 0.15
51 0.15
6 0.27
7 0.28

>  <PUBCHEM_EFFECTIVE_ROTOR_COUNT>  (1) 
7.4

>  <PUBCHEM_PHARMACOPHORE_FEATURES>  (1) 
6
1 3 acceptor
1 4 cation
1 5 donor
6 18 19 20 21 23 24 rings
6 4 12 13 14 15 16 rings
6 6 7 8 9 10 11 rings

>  <PUBCHEM_HEAVY_ATOM_COUNT>  (1) 
24

>  <PUBCHEM_ATOM_DEF_STEREO_COUNT>  (1) 
0

>  <PUBCHEM_ATOM_UDEF_STEREO_COUNT>  (1) 
2

>  <PUBCHEM_BOND_DEF_STEREO_COUNT>  (1) 
0

>  <PUBCHEM_BOND_UDEF_STEREO_COUNT>  (1) 
0

>  <PUBCHEM_ISOTOPIC_ATOM_COUNT>  (1) 
0

>  <PUBCHEM_COMPONENT_COUNT>  (1) 
1

>  <PUBCHEM_CACTVS_TAUTO_COUNT>  (1) 
2

>  <PUBCHEM_CONFORMER_ID>  (1) 
00006E6C00000002

>  <PUBCHEM_MMFF94_ENERGY>  (1) 
67.9641

>  <PUBCHEM_FEATURE_SELFOVERLAP>  (1) 
30.446

>  <PUBCHEM_SHAPE_FINGERPRINT>  (1) 
11045515 52 18187366523591640237
11089746 13 13767929065777805406
12166972 35 17530966929314761084
12403259 226 18410292497875985768
12403260 363 18333450920313561584
12553582 1 18261104189187939875
12596602 18 15769492135761687147
12788726 201 18188761744197274033
12916754 54 18412831265654967376
13103583 49 16558479685784943435
13544653 18 18342744048093620929
13631057 29 18413108346874846402
14251764 30 18339920541052157111
14347332 77 18335978666890307978
15238133 3 9151172082559193058
15352361 1 18410857689480023575
15849732 13 18262248729585623945
17349148 13 17749117681708030984
17492 89 18340770321722260494
200 152 18342176661148851976
20871999 31 18335412453294433061
21033650 10 17022893520043080309
22393880 68 17968365780285234965
23402539 116 18408887330040587505
23557571 272 18341896242655345316
23559900 14 18409441483906631712
2838139 119 13912592879743107935
3004659 81 18260263061954167459
314194 84 18200313363482187575
329604 57 18411139160077429350
4280585 95 18261663874354286057
46194498 28 17533772969515718005
463206 1 18268151031565923519
5104073 3 18272369724959025658
5283173 99 18186793661058940829
6669772 16 17767400558513397024
6913067 236 18341039809349620568
7495541 125 17846212285039390304
9709674 26 18267310833010068430

>  <PUBCHEM_SHAPE_MULTIPOLES>  (1) 
474.08
12.74
3.57
1.11
4.29
0.84
0.18
-8.36
-2.56
-1.75
-0.39
-0.83
0.09
0.61

>  <PUBCHEM_SHAPE_SELFOVERLAP>  (1) 
980.748

>  <PUBCHEM_SHAPE_VOLUME>  (1) 
270.9

>  <PUBCHEM_COORDINATE_TYPE>  (1) 
2
5
10

$$$$
