28276
     RDKit          3D

 22 23  0  0  1  0  0  0  0  0999 V2000
    0.5645   -0.1637   -0.0259 O   0  0  0  0  0  0  0  0  0  0  0  0
   -0.8087   -0.9208   -1.6906 O   0  0  0  0  0  0  0  0  0  0  0  0
    3.3051   -0.6881    0.5994 N   0  0  0  0  0  0  0  0  0  0  0  0
   -1.6456   -0.1106    0.3401 N   0  0  0  0  0  0  0  0  0  0  0  0
    2.8996    0.4815   -0.1814 C   0  0  0  0  0  0  0  0  0  0  0  0
    1.5972    0.1928   -0.9455 C   0  0  0  0  0  0  0  0  0  0  0  0
    2.7579    1.7099    0.7286 C   0  0  0  0  0  0  0  0  0  0  0  0
    1.1520    1.4249   -1.7396 C   0  0  0  0  0  0  0  0  0  0  0  0
    2.3048    2.9340   -0.0664 C   0  0  0  0  0  0  0  0  0  0  0  0
    1.0235    2.6631   -0.8505 C   0  0  0  0  0  0  0  0  0  0  0  0
    4.5898   -0.4446    1.2536 C   0  0  0  0  0  0  0  0  0  0  0  0
    3.3827   -1.8710   -0.2567 C   0  0  0  0  0  0  0  0  0  0  0  0
    5.0108   -1.6358    2.0973 C   0  0  0  0  0  0  0  0  0  0  0  0
    4.3684   -1.6620   -1.3937 C   0  0  0  0  0  0  0  0  0  0  0  0
   -0.6627   -0.4462   -0.5707 C   0  0  0  0  0  0  0  0  0  0  0  0
   -3.0461   -0.2344    0.1945 C   0  0  0  0  0  0  0  0  0  0  0  0
   -3.8929    0.1560    1.2207 C   0  0  0  0  0  0  0  0  0  0  0  0
   -3.5463   -0.7517   -0.9912 C   0  0  0  0  0  0  0  0  0  0  0  0
   -5.2721    0.0262    1.0579 C   0  0  0  0  0  0  0  0  0  0  0  0
   -3.3678    0.7147    2.5035 C   0  0  0  0  0  0  0  0  0  0  0  0
   -4.9255   -0.8815   -1.1540 C   0  0  0  0  0  0  0  0  0  0  0  0
   -5.7885   -0.4927   -0.1295 C   0  0  0  0  0  0  0  0  0  0  0  0
  1  6  1  0
  1 15  1  0
  2 15  2  0
  3  5  1  0
  3 11  1  0
  3 12  1  0
  4 15  1  0
  4 16  1  0
  5  6  1  0
  5  7  1  0
  6  8  1  0
  7  9  1  0
  8 10  1  0
  9 10  1  0
 11 13  1  0
 12 14  1  0
 16 17  2  0
 16 18  1  0
 17 19  1  0
 17 20  1  0
 18 21  2  0
 19 22  2  0
 21 22  1  0
M  END
>  <PUBCHEM_COMPOUND_CID>  (1) 
28276

>  <PUBCHEM_CONFORMER_RMSD>  (1) 
0.8

>  <PUBCHEM_CONFORMER_DIVERSEORDER>  (1) 
1
116
125
146
129
155
108
130
152
9
137
22
128
31
57
14
118
37
32
54
78
148
109
107
68
151
77
103
46
102
18
70
114
74
58
71
122
53
119
149
101
25
150
75
4
160
73
79
51
132
158
144
157
113
19
89
23
154
99
30
141
90
39
159
106
105
134
153
98
110
65
112
67
121
28
17
100
93
135
84
13
136
124
138
120
63
6
62
21
34
139
61
94
35
55
81
145
50
59
91
5
41
127
87
156
111
86
66
80
43
95
20
45
56
133
97
8
48
83
38
117
52
104
76
40
49
47
12
140
126
11
64
142
92
24
44
15
36
33
143
85
131
96
69
10
88
16
123
147
26
72
27
42
7
2
82
115
29
3
60

>  <PUBCHEM_MMFF94_PARTIAL_CHARGES>  (1) 
21
1 -0.43
11 0.27
12 0.27
15 0.78
16 0.12
17 -0.14
18 -0.15
19 -0.15
2 -0.57
20 0.14
21 -0.15
22 -0.15
3 -0.81
4 -0.55
43 0.37
44 0.15
45 0.15
49 0.15
5 0.27
50 0.15
6 0.28

>  <PUBCHEM_EFFECTIVE_ROTOR_COUNT>  (1) 
8.2

>  <PUBCHEM_PHARMACOPHORE_FEATURES>  (1) 
5
1 2 acceptor
1 3 cation
1 4 donor
6 16 17 18 19 21 22 rings
6 5 6 7 8 9 10 rings

>  <PUBCHEM_HEAVY_ATOM_COUNT>  (1) 
22

>  <PUBCHEM_ATOM_DEF_STEREO_COUNT>  (1) 
0

>  <PUBCHEM_ATOM_UDEF_STEREO_COUNT>  (1) 
2

>  <PUBCHEM_BOND_DEF_STEREO_COUNT>  (1) 
0

>  <PUBCHEM_BOND_UDEF_STEREO_COUNT>  (1) 
0

>  <PUBCHEM_ISOTOPIC_ATOM_COUNT>  (1) 
0

>  <PUBCHEM_COMPONENT_COUNT>  (1) 
1

>  <PUBCHEM_CACTVS_TAUTO_COUNT>  (1) 
2

>  <PUBCHEM_CONFORMER_ID>  (1) 
00006E7400000001

>  <PUBCHEM_MMFF94_ENERGY>  (1) 
57.3708

>  <PUBCHEM_FEATURE_SELFOVERLAP>  (1) 
25.371

>  <PUBCHEM_SHAPE_FINGERPRINT>  (1) 
10366900 7 17312825974627725651
10369192 42 15649890667085565324
11405975 8 18260551177483016019
11796584 16 15647048244596217514
12107183 9 17126786223053505803
12166972 35 18201725059123933297
12236239 1 18059857281004019063
12403259 415 14764353742633229000
12553582 1 18335422322976564926
12596602 18 18131340921340505682
12616971 3 18272096019873590721
12633257 1 18407760343586666482
12670546 56 17489584528586527415
12760667 363 17604982620776753850
12824470 246 16880177928991597722
128620 24 14045748123228551401
12892183 10 17060331899426710666
13134695 92 18186801408779282612
13533116 47 18342741844870505975
13583140 156 18118974830411608185
13692114 37 17333079833141573841
13782708 43 17313394474064366939
13911852 28 18117547440844065794
13914758 101 18336539423043686909
13955234 65 17531814674798295268
14251739 40 18273216399850756663
14251757 5 14056999404362183359
14739800 52 17201908452677843488
15420108 30 17841697806687464516
15527383 91 18334852836061475592
15788980 27 18343588425916223663
15961568 22 15339115775352274320
17349148 13 18131358518253630783
17818456 19 17561367279182719167
17980427 23 16844708958820783236
1813 80 18335986376746669740
18222031 100 18409732829097860438
192875 21 18343027700782502041
19377110 9 17632026346597613835
20645477 70 18187083991862297431
20715895 44 17914907431319188145
20832881 197 17821722802113241401
2215653 11 16515675650791738707
23557571 272 15697736851734145569
23559900 14 15936693748247866063
23622692 88 18130783477909184190
239999 70 14201402694501840426
2838139 119 13470389077450219018
312423 11 18129679581093470317
314173 85 18335984173317741814
341906 21 16702027486673028153
345986 75 18337660906996247136
34797466 226 14346089619623041151
3680242 22 17274838934557262259
4325135 7 13686285903488280917
4409770 3 16253386833905084583
474 4 18195529426749216165
5104073 3 18339647858073624019
57724786 102 17822869679168515277
5895379 119 16701202831314368897
67856867 119 17988074616550013785
6823239 73 15792021124534895861
8509985 295 17775286070843657969
960060 61 10953732335586699321
9841814 1 18333450946030435928
9971528 1 18272937102770618358
9981440 41 17406822359860430145

>  <PUBCHEM_SHAPE_MULTIPOLES>  (1) 
431.05
12.46
2.2
1.9
8.96
1.61
-0.64
-5.73
-3.6
-3.41
0.27
0.05
-0.26
-1.16

>  <PUBCHEM_SHAPE_SELFOVERLAP>  (1) 
885.045

>  <PUBCHEM_SHAPE_VOLUME>  (1) 
247.8

>  <PUBCHEM_COORDINATE_TYPE>  (1) 
2
5
10

$$$$
