28270
     RDKit          3D

 25 27  0  0  1  0  0  0  0  0999 V2000
   -0.7683    0.1547    0.0922 O   0  0  0  0  0  0  0  0  0  0  0  0
    0.6976   -0.1301    1.8244 O   0  0  0  0  0  0  0  0  0  0  0  0
   -3.5745   -0.3317   -0.1570 N   0  0  0  0  0  0  0  0  0  0  0  0
    1.4034   -0.0806   -0.4071 N   0  0  0  0  0  0  0  0  0  0  0  0
   -3.0456    0.9915    0.1732 C   0  0  0  0  0  0  0  0  0  0  0  0
   -1.7010    0.8650    0.9075 C   0  0  0  0  0  0  0  0  0  0  0  0
   -2.9166    1.8481   -1.0942 C   0  0  0  0  0  0  0  0  0  0  0  0
   -1.1279    2.2492    1.2278 C   0  0  0  0  0  0  0  0  0  0  0  0
   -2.3360    3.2245   -0.7710 C   0  0  0  0  0  0  0  0  0  0  0  0
   -1.0097    3.1230   -0.0223 C   0  0  0  0  0  0  0  0  0  0  0  0
   -3.6986   -1.1528    1.0555 C   0  0  0  0  0  0  0  0  0  0  0  0
   -4.8643   -0.2112   -0.8513 C   0  0  0  0  0  0  0  0  0  0  0  0
   -4.2044   -2.5570    0.7215 C   0  0  0  0  0  0  0  0  0  0  0  0
   -5.4081   -1.5848   -1.2478 C   0  0  0  0  0  0  0  0  0  0  0  0
   -5.5252   -2.5048   -0.0381 C   0  0  0  0  0  0  0  0  0  0  0  0
    0.4837   -0.0304    0.6224 C   0  0  0  0  0  0  0  0  0  0  0  0
    2.8029   -0.2574   -0.3162 C   0  0  0  0  0  0  0  0  0  0  0  0
    3.6251    0.8546   -0.1998 C   0  0  0  0  0  0  0  0  0  0  0  0
    3.3334   -1.5395   -0.3443 C   0  0  0  0  0  0  0  0  0  0  0  0
    5.0063    0.6808   -0.1100 C   0  0  0  0  0  0  0  0  0  0  0  0
    4.7145   -1.7131   -0.2543 C   0  0  0  0  0  0  0  0  0  0  0  0
    5.5508   -0.6029   -0.1371 C   0  0  0  0  0  0  0  0  0  0  0  0
    3.0717    2.2423   -0.1669 C   0  0  0  0  0  0  0  0  0  0  0  0
    2.4635   -2.7489   -0.4673 C   0  0  0  0  0  0  0  0  0  0  0  0
    7.0273   -0.7886   -0.0401 C   0  0  0  0  0  0  0  0  0  0  0  0
  1  6  1  0
  1 16  1  0
  2 16  2  0
  3  5  1  0
  3 11  1  0
  3 12  1  0
  4 16  1  0
  4 17  1  0
  5  6  1  0
  5  7  1  0
  6  8  1  0
  7  9  1  0
  8 10  1  0
  9 10  1  0
 11 13  1  0
 12 14  1  0
 13 15  1  0
 14 15  1  0
 17 18  2  0
 17 19  1  0
 18 20  1  0
 18 23  1  0
 19 21  2  0
 19 24  1  0
 20 22  2  0
 21 22  1  0
 22 25  1  0
M  END
>  <PUBCHEM_COMPOUND_CID>  (1) 
28270

>  <PUBCHEM_CONFORMER_RMSD>  (1) 
0.8

>  <PUBCHEM_CONFORMER_DIVERSEORDER>  (1) 
1
43
108
95
114
69
62
121
19
113
109
58
67
112
44
87
118
72
28
96
48
65
117
61
4
63
94
99
128
53
75
106
120
6
42
116
130
64
40
29
123
88
103
12
54
14
49
125
45
39
36
92
78
111
110
11
71
126
47
122
100
38
41
51
77
16
104
83
8
59
46
13
124
57
101
31
15
73
90
79
89
129
23
37
32
18
97
86
107
35
33
127
25
9
115
50
119
66
27
56
30
10
84
82
76
91
34
68
105
74
81
85
102
7
55
24
98
93
22
5
80
21
20
52
70
2
26
3
60
17

>  <PUBCHEM_MMFF94_PARTIAL_CHARGES>  (1) 
21
1 -0.43
11 0.27
12 0.27
16 0.78
17 0.12
18 -0.14
19 -0.14
2 -0.57
20 -0.15
21 -0.15
22 -0.14
23 0.14
24 0.14
25 0.14
3 -0.81
4 -0.55
46 0.37
47 0.15
48 0.15
5 0.27
6 0.28

>  <PUBCHEM_EFFECTIVE_ROTOR_COUNT>  (1) 
7.4

>  <PUBCHEM_PHARMACOPHORE_FEATURES>  (1) 
6
1 2 acceptor
1 3 cation
1 4 donor
6 17 18 19 20 21 22 rings
6 3 11 12 13 14 15 rings
6 5 6 7 8 9 10 rings

>  <PUBCHEM_HEAVY_ATOM_COUNT>  (1) 
25

>  <PUBCHEM_ATOM_DEF_STEREO_COUNT>  (1) 
0

>  <PUBCHEM_ATOM_UDEF_STEREO_COUNT>  (1) 
2

>  <PUBCHEM_BOND_DEF_STEREO_COUNT>  (1) 
0

>  <PUBCHEM_BOND_UDEF_STEREO_COUNT>  (1) 
0

>  <PUBCHEM_ISOTOPIC_ATOM_COUNT>  (1) 
0

>  <PUBCHEM_COMPONENT_COUNT>  (1) 
1

>  <PUBCHEM_CACTVS_TAUTO_COUNT>  (1) 
2

>  <PUBCHEM_CONFORMER_ID>  (1) 
00006E6E00000001

>  <PUBCHEM_MMFF94_ENERGY>  (1) 
72.2301

>  <PUBCHEM_FEATURE_SELFOVERLAP>  (1) 
30.447

>  <PUBCHEM_SHAPE_FINGERPRINT>  (1) 
11045515 52 18187366528039607805
11089746 13 13623532389724337846
12166972 35 17676772066789044852
12403259 226 18410292510629090328
12403260 363 18334016082090835204
12760667 363 18342740732626905163
12788726 201 18333725806309534299
12916754 54 18412268332675790896
13103583 49 16558481889192863091
13544653 18 18342462581865093921
13631057 29 18412825776465184506
14251764 30 18339920549715925239
14347332 77 18408318856843743154
14790565 3 17834958564950936185
14856354 85 15123507051135250260
15238133 3 9151170982979032530
17349148 13 17822019709176400128
17492 89 18341051805172841702
17857418 61 18410293597023395818
18681886 176 18413103983773363562
18927931 339 18261968378935107763
200 152 18342739606717654712
20028762 73 18273497892678120494
21033650 10 17023174999425586525
22393880 68 18040703758510127109
23402539 116 18408042905110488017
23557571 272 18342177717705921901
23559900 14 18409722958941397153
2838139 119 14056989542890626511
3004659 81 18187641431478426211
314194 84 18128256877672403055
329604 57 18411702114220270934
4214541 1 18337393738476490356
4280585 95 18261947539885630393
439807 62 18410293640363575751
463206 1 18268151040261268711
5104073 3 18272088249913782192
5283173 99 18186512194772352533
6431902 208 18411136943790233535
6669772 16 17697308874154590080
7495541 125 17846494868001690248
9709674 26 18267593415945884174

>  <PUBCHEM_SHAPE_MULTIPOLES>  (1) 
492.79
14.4
3.41
1.09
8.56
1.11
0.18
-9.36
-2.57
-2.91
-0.31
-0.95
0.08
0.51

>  <PUBCHEM_SHAPE_SELFOVERLAP>  (1) 
1026.307

>  <PUBCHEM_SHAPE_VOLUME>  (1) 
279.4

>  <PUBCHEM_COORDINATE_TYPE>  (1) 
2
5
10

$$$$
