2828
     RDKit          3D

 22 26  0  0  1  0  0  0  0  0999 V2000
   -1.7043    0.7540   -1.2399 O   0  0  0  0  0  0  0  0  0  0  0  0
   -1.0626    3.8555   -0.1296 O   0  0  0  0  0  0  0  0  0  0  0  0
   -3.6668   -1.3210   -0.6297 O   0  0  0  0  0  0  0  0  0  0  0  0
    3.2708   -0.5474   -0.4967 N   0  0  0  0  0  0  0  0  0  0  0  0
    0.6320    0.6590   -0.6322 C   0  0  0  0  0  0  0  0  0  0  0  0
    1.6928    1.1004    0.3821 C   0  0  0  0  0  0  0  0  0  0  0  0
    2.5328   -0.1698    0.7338 C   0  0  0  0  0  0  0  0  0  0  0  0
   -0.5487    1.6131   -0.9011 C   0  0  0  0  0  0  0  0  0  0  0  0
    1.3499    0.1981   -1.9190 C   0  0  0  0  0  0  0  0  0  0  0  0
   -0.1665   -0.4721   -0.0826 C   0  0  0  0  0  0  0  0  0  0  0  0
    1.6645   -1.3115    1.3690 C   0  0  0  0  0  0  0  0  0  0  0  0
    2.4133   -0.8797   -1.6397 C   0  0  0  0  0  0  0  0  0  0  0  0
    0.2808   -1.4415    0.7931 C   0  0  0  0  0  0  0  0  0  0  0  0
   -0.9618    2.4978    0.3071 C   0  0  0  0  0  0  0  0  0  0  0  0
    1.1105    1.8197    1.5652 C   0  0  0  0  0  0  0  0  0  0  0  0
   -1.4707   -0.3961   -0.5245 C   0  0  0  0  0  0  0  0  0  0  0  0
   -0.0672    2.4556    1.5138 C   0  0  0  0  0  0  0  0  0  0  0  0
    4.2845   -1.5732   -0.2757 C   0  0  0  0  0  0  0  0  0  0  0  0
   -0.6333   -2.4310    1.1560 C   0  0  0  0  0  0  0  0  0  0  0  0
   -2.3850   -1.3695   -0.1928 C   0  0  0  0  0  0  0  0  0  0  0  0
   -1.9507   -2.4029    0.6497 C   0  0  0  0  0  0  0  0  0  0  0  0
   -4.6143   -0.6373    0.1939 C   0  0  0  0  0  0  0  0  0  0  0  0
  1  8  1  0
  1 16  1  0
  2 14  1  0
  3 20  1  0
  3 22  1  0
  4  7  1  0
  4 12  1  0
  4 18  1  0
  5  6  1  0
  5  8  1  0
  5  9  1  0
  5 10  1  0
  6  7  1  0
  6 15  1  0
  7 11  1  0
  8 14  1  0
  9 12  1  0
 10 13  2  0
 10 16  1  0
 11 13  1  0
 13 19  1  0
 14 17  1  0
 15 17  2  0
 16 20  2  0
 19 21  2  0
 20 21  1  0
M  END
>  <PUBCHEM_COMPOUND_CID>  (1) 
2828

>  <PUBCHEM_CONFORMER_RMSD>  (1) 
0.6

>  <PUBCHEM_CONFORMER_DIVERSEORDER>  (1) 
2
5
9
4
10
3
8
7
11
6
1

>  <PUBCHEM_MMFF94_PARTIAL_CHARGES>  (1) 
26
1 -0.36
10 -0.14
11 0.14
12 0.27
13 -0.14
14 0.42
15 -0.29
16 0.08
17 -0.29
18 0.27
19 -0.15
2 -0.68
20 0.08
21 -0.15
22 0.28
3 -0.36
33 0.15
34 0.15
38 0.15
39 0.15
4 -0.81
40 0.4
5 0.14
6 0.14
7 0.27
8 0.28

>  <PUBCHEM_EFFECTIVE_ROTOR_COUNT>  (1) 
2.2

>  <PUBCHEM_PHARMACOPHORE_FEATURES>  (1) 
10
1 1 acceptor
1 2 acceptor
1 2 donor
1 3 acceptor
1 4 cation
5 1 5 8 10 16 rings
6 10 13 16 19 20 21 rings
6 4 5 6 7 9 12 rings
6 5 6 7 10 11 13 rings
6 5 6 8 14 15 17 rings

>  <PUBCHEM_HEAVY_ATOM_COUNT>  (1) 
22

>  <PUBCHEM_ATOM_DEF_STEREO_COUNT>  (1) 
0

>  <PUBCHEM_ATOM_UDEF_STEREO_COUNT>  (1) 
5

>  <PUBCHEM_BOND_DEF_STEREO_COUNT>  (1) 
0

>  <PUBCHEM_BOND_UDEF_STEREO_COUNT>  (1) 
0

>  <PUBCHEM_ISOTOPIC_ATOM_COUNT>  (1) 
0

>  <PUBCHEM_COMPONENT_COUNT>  (1) 
1

>  <PUBCHEM_CACTVS_TAUTO_COUNT>  (1) 
1

>  <PUBCHEM_CONFORMER_ID>  (1) 
00000B0C00000002

>  <PUBCHEM_MMFF94_ENERGY>  (1) 
85.4684

>  <PUBCHEM_FEATURE_SELFOVERLAP>  (1) 
52.859

>  <PUBCHEM_SHAPE_FINGERPRINT>  (1) 
104564 63 18264209123576767851
10863032 1 18196094575598746866
10948715 1 17402609044203446512
12423570 1 16768678799375318864
12788726 201 18338817627498578556
13134695 92 18129943510849325477
13140716 1 18188765183743684178
13464514 151 17976551829053724557
13681431 1 17912667957116844404
14115302 16 17968100853780845950
141345 1 10721416360386953912
144361 1 17096075884136755286
14817 1 11991378992074379864
15881359 60 11599167526416450131
16752209 62 18187362086879341071
16945 1 18190445091718855392
20510252 161 18410007698224725248
20600515 1 18339654411507817821
20691752 17 17460016599742824283
23419403 2 18200290204665327044
23557571 272 18272093743367168974
23559900 14 18189057663391535828
25222932 49 14872047651284540006
2748010 2 18191847110735973087
404807 78 18044109973458251265
484985 159 15618113316095481198
576247 118 18127999544316245894
5845 1 13560122583002499140
7364860 26 17689441902415858603
81228 2 18198085619315882736

>  <PUBCHEM_SHAPE_MULTIPOLES>  (1) 
430.16
5.14
3.17
1.53
1.44
2.27
0.11
-3.45
0.84
1.09
-1.01
-0.64
0.15
0.42

>  <PUBCHEM_SHAPE_SELFOVERLAP>  (1) 
967.823

>  <PUBCHEM_SHAPE_VOLUME>  (1) 
225.3

>  <PUBCHEM_COORDINATE_TYPE>  (1) 
2
5
10

$$$$
