28291
     RDKit          3D

 15 15  0  0  1  0  0  0  0  0999 V2000
   -4.0444   -2.1336    0.3629 Br  0  0  0  0  0  0  0  0  0  0  0  0
    4.0586   -2.1227   -0.3621 Br  0  0  0  0  0  0  0  0  0  0  0  0
   -0.4692   -0.1737   -1.7996 O   0  0  0  0  0  0  0  0  0  0  0  0
    0.4628   -0.1707    1.8028 O   0  0  0  0  0  0  0  0  0  0  0  0
   -2.9033    0.7681   -0.0981 O   0  0  0  0  0  0  0  0  0  0  0  0
    2.9061    0.7733    0.0945 O   0  0  0  0  0  0  0  0  0  0  0  0
   -0.0057    1.5090    0.0009 C   0  0  0  0  0  0  0  0  0  0  0  0
   -0.6098    0.2126   -0.4289 C   0  0  0  0  0  0  0  0  0  0  0  0
    0.6146    0.2107    0.4263 C   0  0  0  0  0  0  0  0  0  0  0  0
   -1.9179   -0.2322    0.1578 C   0  0  0  0  0  0  0  0  0  0  0  0
    1.9114   -0.2262   -0.1548 C   0  0  0  0  0  0  0  0  0  0  0  0
    0.6937    2.3328   -1.0295 C   0  0  0  0  0  0  0  0  0  0  0  0
   -0.7073    2.3320    1.0299 C   0  0  0  0  0  0  0  0  0  0  0  0
   -2.3792   -1.5416   -0.4658 C   0  0  0  0  0  0  0  0  0  0  0  0
    2.3896   -1.5378    0.4639 C   0  0  0  0  0  0  0  0  0  0  0  0
  1 14  1  0
  2 15  1  0
  3  8  1  0
  4  9  1  0
  5 10  1  0
  6 11  1  0
  7  8  1  0
  7  9  1  0
  7 12  1  0
  7 13  1  0
  8  9  1  0
  8 10  1  0
  9 11  1  0
 10 14  1  0
 11 15  1  0
M  END
>  <PUBCHEM_COMPOUND_CID>  (1) 
28291

>  <PUBCHEM_CONFORMER_RMSD>  (1) 
0.6

>  <PUBCHEM_CONFORMER_DIVERSEORDER>  (1) 
7
28
30
48
19
20
12
16
56
38
35
50
58
57
4
36
21
43
11
1
45
40
14
27
31
55
51
8
33
63
6
44
23
32
13
46
26
29
41
61
42
37
47
17
25
49
15
22
54
9
59
52
18
3
62
5
10
39
60
2
34
24
53

>  <PUBCHEM_MMFF94_PARTIAL_CHARGES>  (1) 
19
1 -0.23
10 0.38
11 0.38
12 0.09
13 0.09
14 0.23
15 0.23
2 -0.23
24 0.4
25 0.4
3 -0.55
30 0.4
31 0.4
4 -0.55
5 -0.68
6 -0.68
7 -0.19
8 0.05
9 0.05

>  <PUBCHEM_EFFECTIVE_ROTOR_COUNT>  (1) 
4.6

>  <PUBCHEM_PHARMACOPHORE_FEATURES>  (1) 
11
1 1 hydrophobe
1 2 hydrophobe
1 3 acceptor
1 3 donor
1 4 acceptor
1 4 donor
1 5 acceptor
1 5 donor
1 6 acceptor
1 6 donor
3 7 12 13 hydrophobe

>  <PUBCHEM_HEAVY_ATOM_COUNT>  (1) 
15

>  <PUBCHEM_ATOM_DEF_STEREO_COUNT>  (1) 
0

>  <PUBCHEM_ATOM_UDEF_STEREO_COUNT>  (1) 
4

>  <PUBCHEM_BOND_DEF_STEREO_COUNT>  (1) 
0

>  <PUBCHEM_BOND_UDEF_STEREO_COUNT>  (1) 
0

>  <PUBCHEM_ISOTOPIC_ATOM_COUNT>  (1) 
0

>  <PUBCHEM_COMPONENT_COUNT>  (1) 
1

>  <PUBCHEM_CACTVS_TAUTO_COUNT>  (1) 
1

>  <PUBCHEM_CONFORMER_ID>  (1) 
00006E8300000007

>  <PUBCHEM_MMFF94_ENERGY>  (1) 
34.7963

>  <PUBCHEM_FEATURE_SELFOVERLAP>  (1) 
55.824

>  <PUBCHEM_SHAPE_FINGERPRINT>  (1) 
11769659 78 18410572889935108966
12423570 1 11262423175437641644
13024252 1 15938687016557685272
13533116 47 18051136093135581115
15001771 113 18409170986897646808
16945 1 18057613057396625344
20388580 30 18335707190502594959
20559304 39 18126005103438286217
20645477 70 18044928224409060823
20653085 51 8862663546549073116
20708731 107 18118405283082503983
20871998 22 18411135874263982471
20871999 31 18113616751072331111
21296965 67 18410292518891529091
21665056 4 17329146871448164734
23402539 116 17987225630834228661
23559900 14 18196924488615497290
2748010 2 18339061748928535430
68250623 7 18410584980268131652
7364860 26 18124311876806024049
81228 2 18195511611092711377
83771 10 18411138060428865875

>  <PUBCHEM_SHAPE_MULTIPOLES>  (1) 
297.1
5.82
2.72
1.16
0.07
0.35
0
-6.24
0
-0.02
0
0
0.21
-0.04

>  <PUBCHEM_SHAPE_SELFOVERLAP>  (1) 
569.921

>  <PUBCHEM_SHAPE_VOLUME>  (1) 
190.4

>  <PUBCHEM_COORDINATE_TYPE>  (1) 
2
5
10

$$$$
