28298
     RDKit          3D

 13 13  0  0  0  0  0  0  0  0999 V2000
    1.1113   -1.2376    0.8290 S   0  0  0  0  0  0  0  0  0  0  0  0
   -2.5905    0.0778   -0.2087 N   0  0  0  0  0  0  0  0  0  0  0  0
    3.4337   -0.9736   -0.5064 N   0  0  0  0  0  0  0  0  0  0  0  0
    2.7202    0.8848    0.6016 N   0  0  0  0  0  0  0  0  0  0  0  0
   -1.5594   -0.7690    0.3905 C   0  0  0  0  0  0  0  0  0  0  0  0
   -2.5119    1.4710    0.3006 C   0  0  0  0  0  0  0  0  0  0  0  0
   -3.9164   -0.4984    0.0141 C   0  0  0  0  0  0  0  0  0  0  0  0
   -0.1801   -0.1953    0.0909 C   0  0  0  0  0  0  0  0  0  0  0  0
    4.4852   -0.0543   -0.8229 C   0  0  0  0  0  0  0  0  0  0  0  0
    2.5107   -0.3640    0.2813 C   0  0  0  0  0  0  0  0  0  0  0  0
   -3.5184    2.3706   -0.3864 C   0  0  0  0  0  0  0  0  0  0  0  0
   -3.9984   -1.9192   -0.5048 C   0  0  0  0  0  0  0  0  0  0  0  0
    4.0143    1.2073   -0.0790 C   0  0  0  0  0  0  0  0  0  0  0  0
  1  8  1  0
  1 10  1  0
  2  5  1  0
  2  6  1  0
  2  7  1  0
  3  9  1  0
  3 10  1  0
  4 10  2  0
  4 13  1  0
  5  8  1  0
  6 11  1  0
  7 12  1  0
  9 13  1  0
M  END
>  <PUBCHEM_COMPOUND_CID>  (1) 
28298

>  <PUBCHEM_CONFORMER_RMSD>  (1) 
0.8

>  <PUBCHEM_CONFORMER_DIVERSEORDER>  (1) 
2
22
14
1
12
18
13
4
3
19
21
6
9
11
23
10
17
5
16
7
24
15
20
8

>  <PUBCHEM_MMFF94_PARTIAL_CHARGES>  (1) 
12
1 -0.37
10 0.64
13 0.25
2 -0.81
3 -0.82
32 0.4
4 -0.7
5 0.27
6 0.27
7 0.27
8 0.23
9 0.37

>  <PUBCHEM_EFFECTIVE_ROTOR_COUNT>  (1) 
6.6

>  <PUBCHEM_PHARMACOPHORE_FEATURES>  (1) 
4
1 2 cation
1 3 donor
3 3 4 10 cation
5 3 4 9 10 13 rings

>  <PUBCHEM_HEAVY_ATOM_COUNT>  (1) 
13

>  <PUBCHEM_ATOM_DEF_STEREO_COUNT>  (1) 
0

>  <PUBCHEM_ATOM_UDEF_STEREO_COUNT>  (1) 
0

>  <PUBCHEM_BOND_DEF_STEREO_COUNT>  (1) 
0

>  <PUBCHEM_BOND_UDEF_STEREO_COUNT>  (1) 
0

>  <PUBCHEM_ISOTOPIC_ATOM_COUNT>  (1) 
0

>  <PUBCHEM_COMPONENT_COUNT>  (1) 
1

>  <PUBCHEM_CACTVS_TAUTO_COUNT>  (1) 
1

>  <PUBCHEM_CONFORMER_ID>  (1) 
00006E8A00000002

>  <PUBCHEM_MMFF94_ENERGY>  (1) 
23.8779

>  <PUBCHEM_FEATURE_SELFOVERLAP>  (1) 
20.297

>  <PUBCHEM_SHAPE_FINGERPRINT>  (1) 
10498660 4 18334007259589985293
10680689 15 18410018740701856795
114248 4 17988927812051049922
11543360 7 18342458166201052170
11715629 250 18271795856882434016
12186901 62 18273496758536903615
12932764 1 17417796353625891851
13081056 2 18412829109507369328
14123260 362 17895203181430108453
17834072 32 18264206899011120365
18186145 218 18131636672962152474
1986462 14 18343868800953954269
20300324 65 18410856585704998987
20645477 56 18338521820696237333
20645477 70 17417824924381387078
20711983 171 18338232669868916748
20871999 31 18343297068219745471
23402539 116 18409161138495653575
23402655 69 18341054025802334652
23557571 272 18272658939256007853
26918003 58 10737278069911551662
3268164 11 18334566962943159399
4990 188 18271813402082385494
5281201 14 18272378568170223428
58051976 378 18411696616641578774
633830 44 17458635458271393906
77779 3 18413110550029305078

>  <PUBCHEM_SHAPE_MULTIPOLES>  (1) 
256.44
9.92
1.98
0.82
2.86
0.71
0.01
0.98
-2.26
-2.31
-0.12
0.27
-0.1
-0.13

>  <PUBCHEM_SHAPE_SELFOVERLAP>  (1) 
477.634

>  <PUBCHEM_SHAPE_VOLUME>  (1) 
163.8

>  <PUBCHEM_COORDINATE_TYPE>  (1) 
2
5
10

$$$$
