2829
     RDKit          3D

 33 37  0  0  1  0  0  0  0  0999 V2000
    2.4332   -1.1676   -2.1430 O   0  0  0  0  0  0  0  0  0  0  0  0
    0.3391   -3.1361   -1.8510 O   0  0  0  0  0  0  0  0  0  0  0  0
    7.6450    0.1719    1.0806 O   0  0  0  0  0  0  0  0  0  0  0  0
   -8.1508   -1.2877    0.4061 O   0  0  0  0  0  0  0  0  0  0  0  0
   -0.4670   -1.3618   -0.5646 N   0  0  0  0  0  0  0  0  0  0  0  0
    1.4307   -0.2270   -0.0857 N   0  0  0  0  0  0  0  0  0  0  0  0
   -2.0239    0.4664    0.7983 N   0  0  0  0  0  0  0  0  0  0  0  0
    1.8083   -1.4257   -0.8943 C   0  0  0  0  0  0  0  0  0  0  0  0
    2.7079   -2.3161   -0.0448 C   0  0  0  0  0  0  0  0  0  0  0  0
    0.1466   -0.3188    0.0212 C   0  0  0  0  0  0  0  0  0  0  0  0
    0.4791   -2.1229   -1.1841 C   0  0  0  0  0  0  0  0  0  0  0  0
   -0.7369    0.6415    0.7443 C   0  0  0  0  0  0  0  0  0  0  0  0
   -1.8152   -1.5400   -0.5085 C   0  0  0  0  0  0  0  0  0  0  0  0
    4.0249   -1.6526    0.2553 C   0  0  0  0  0  0  0  0  0  0  0  0
   -0.0897    1.8199    1.4059 C   0  0  0  0  0  0  0  0  0  0  0  0
   -2.5614   -0.6434    0.1663 C   0  0  0  0  0  0  0  0  0  0  0  0
   -0.0489    2.9991    0.4795 C   0  0  0  0  0  0  0  0  0  0  0  0
   -4.0302   -0.8133    0.2284 C   0  0  0  0  0  0  0  0  0  0  0  0
    5.0943   -1.8321   -0.6113 C   0  0  0  0  0  0  0  0  0  0  0  0
    4.1522   -0.8702    1.3947 C   0  0  0  0  0  0  0  0  0  0  0  0
    6.3150   -1.2172   -0.3328 C   0  0  0  0  0  0  0  0  0  0  0  0
    5.3728   -0.2553    1.6731 C   0  0  0  0  0  0  0  0  0  0  0  0
    1.0469    3.1803   -0.3571 C   0  0  0  0  0  0  0  0  0  0  0  0
   -1.1072    3.9010    0.4657 C   0  0  0  0  0  0  0  0  0  0  0  0
   -4.6041   -1.5518    1.2638 C   0  0  0  0  0  0  0  0  0  0  0  0
   -4.8424   -0.2344   -0.7473 C   0  0  0  0  0  0  0  0  0  0  0  0
    6.4542   -0.4288    0.8094 C   0  0  0  0  0  0  0  0  0  0  0  0
    1.0849    4.2769   -1.2183 C   0  0  0  0  0  0  0  0  0  0  0  0
   -1.0692    4.9976   -0.3955 C   0  0  0  0  0  0  0  0  0  0  0  0
   -5.9885   -1.7113    1.3233 C   0  0  0  0  0  0  0  0  0  0  0  0
   -6.2269   -0.3939   -0.6877 C   0  0  0  0  0  0  0  0  0  0  0  0
   -6.7999   -1.1324    0.3476 C   0  0  0  0  0  0  0  0  0  0  0  0
    0.0268    5.1856   -1.2375 C   0  0  0  0  0  0  0  0  0  0  0  0
  1  8  1  0
  2 11  2  0
  3 27  1  0
  4 32  1  0
  5 10  1  0
  5 11  1  0
  5 13  1  0
  6  8  1  0
  6 10  2  0
  7 12  2  0
  7 16  1  0
  8  9  1  0
  8 11  1  0
  9 14  1  0
 10 12  1  0
 12 15  1  0
 13 16  2  0
 14 19  2  0
 14 20  1  0
 15 17  1  0
 16 18  1  0
 17 23  2  0
 17 24  1  0
 18 25  2  0
 18 26  1  0
 19 21  1  0
 20 22  2  0
 21 27  2  0
 22 27  1  0
 23 28  1  0
 24 29  2  0
 25 30  1  0
 26 31  2  0
 28 33  2  0
 29 33  1  0
 30 32  2  0
 31 32  1  0
M  END
>  <PUBCHEM_COMPOUND_CID>  (1) 
2829

>  <PUBCHEM_CONFORMER_RMSD>  (1) 
0.8

>  <PUBCHEM_CONFORMER_DIVERSEORDER>  (1) 
1
35
10
19
36
31
26
14
20
17
5
6
29
16
34
27
15
37
28
9
13
33
23
32
24
8
30
18
25
2
4
22
11
21
3
7
12

>  <PUBCHEM_MMFF94_PARTIAL_CHARGES>  (1) 
50
1 -0.68
10 0.51
11 0.57
12 0.39
13 -0.04
14 -0.14
15 0.2
16 0.14
17 -0.14
18 0.03
19 -0.15
2 -0.57
20 -0.15
21 -0.15
22 -0.15
23 -0.15
24 -0.15
25 -0.15
26 -0.15
27 0.08
28 -0.15
29 -0.15
3 -0.53
30 -0.15
31 -0.15
32 0.08
33 -0.15
36 0.15
39 0.4
4 -0.53
40 0.15
41 0.15
42 0.15
43 0.15
44 0.15
45 0.15
46 0.15
47 0.15
48 0.15
49 0.15
5 -0.23
50 0.15
51 0.15
52 0.15
53 0.45
54 0.45
6 -0.7
7 -0.62
8 0.59
9 0.14

>  <PUBCHEM_EFFECTIVE_ROTOR_COUNT>  (1) 
5.2

>  <PUBCHEM_PHARMACOPHORE_FEATURES>  (1) 
11
1 1 acceptor
1 1 donor
1 2 acceptor
1 3 donor
1 4 donor
1 7 acceptor
5 5 6 8 10 11 rings
6 14 19 20 21 22 27 rings
6 17 23 24 28 29 33 rings
6 18 25 26 30 31 32 rings
6 5 7 10 12 13 16 rings

>  <PUBCHEM_HEAVY_ATOM_COUNT>  (1) 
33

>  <PUBCHEM_ATOM_DEF_STEREO_COUNT>  (1) 
0

>  <PUBCHEM_ATOM_UDEF_STEREO_COUNT>  (1) 
1

>  <PUBCHEM_BOND_DEF_STEREO_COUNT>  (1) 
0

>  <PUBCHEM_BOND_UDEF_STEREO_COUNT>  (1) 
0

>  <PUBCHEM_ISOTOPIC_ATOM_COUNT>  (1) 
0

>  <PUBCHEM_COMPONENT_COUNT>  (1) 
1

>  <PUBCHEM_CACTVS_TAUTO_COUNT>  (1) 
4

>  <PUBCHEM_CONFORMER_ID>  (1) 
00000B0D00000001

>  <PUBCHEM_MMFF94_ENERGY>  (1) 
93.7179

>  <PUBCHEM_FEATURE_SELFOVERLAP>  (1) 
55.936

>  <PUBCHEM_SHAPE_FINGERPRINT>  (1) 
10165383 225 17275101756876439650
10258939 38 18338233752285559122
10670039 82 18340219479956152726
10688039 33 18410292480278911104
10930396 42 18266154254663060146
10940486 97 17987508389547387935
11421498 54 18187638047250172842
11445158 3 18267300014229998503
11456790 92 18041575676454264665
11488393 25 18117855506306054449
12516196 113 18408322181264877531
12522641 126 17975690911823677231
12539747 91 18260818316438803813
12539765 74 13686029704441651567
12741549 16 17821722836810876357
12788726 201 18188204291343036546
12857493 111 18408036304622396141
13540713 4 17770782308735874758
13540713 5 17841431746285329303
13617811 41 18339094730631540942
13782708 43 17823145691184202467
14028597 1 17604704461129303888
140371 6 18340783580238544643
14068700 686 18198625428165179854
14840074 17 17917986187586506366
14955137 171 18339643446403563507
15131766 46 13468964192280912786
15160629 57 18191593157878781116
15183329 4 14996285799312936475
15198563 99 18264208019528164876
15439362 3 18120654896911595785
15775530 1 17481156600087352791
15849732 13 18131347531511406103
15927050 60 17690850381596643652
17899979 19 18335425720438348036
1813 80 18200609024798959783
18785283 64 18266465497931543335
19301679 30 18263640667650171554
19309040 13 14905903903932528104
20238998 120 18412542098519014985
20642791 13 18200602376189514289
21049683 271 18410295847533654237
2132832 1 18040729034619732340
21641784 216 18266479636441941844
21703447 108 18053383197568927198
2260408 40 17488207953530970339
23559900 14 18262237850106084355
24771293 8 18060142046115634627
24771750 20 17973738157397022509
25019877 29 17132398319501217694
3178227 256 18338528516714250195
4066623 53 18113332021038262685
469060 322 18265913379221167113
58260988 393 18262227834231482472
6004065 56 18336547213582047227
9962374 69 18268144435509142995

>  <PUBCHEM_SHAPE_MULTIPOLES>  (1) 
640.7
15.88
5.41
1.45
4.33
11.81
0.11
-14.31
-5.25
0.33
2.06
-0.71
-0.27
0.84

>  <PUBCHEM_SHAPE_SELFOVERLAP>  (1) 
1431.378

>  <PUBCHEM_SHAPE_VOLUME>  (1) 
338.4

>  <PUBCHEM_COORDINATE_TYPE>  (1) 
2
5
10

$$$$
