28302
     RDKit          3D

 10 10  0  0  0  0  0  0  0  0999 V2000
   -1.1529    1.3721    0.0001 N   0  0  0  0  0  0  0  0  0  0  0  0
    2.3000   -2.0191    0.0001 N   0  0  0  0  0  0  0  0  0  0  0  0
    2.1189    2.1531   -0.0001 N   0  0  0  0  0  0  0  0  0  0  0  0
    0.0582   -0.7203    0.0001 C   0  0  0  0  0  0  0  0  0  0  0  0
   -1.1415   -1.4231   -0.0001 C   0  0  0  0  0  0  0  0  0  0  0  0
   -0.0013    0.6641   -0.0001 C   0  0  0  0  0  0  0  0  0  0  0  0
   -2.3469   -0.7299   -0.0001 C   0  0  0  0  0  0  0  0  0  0  0  0
   -2.2988    0.6547    0.0001 C   0  0  0  0  0  0  0  0  0  0  0  0
    1.2957   -1.4372    0.0000 C   0  0  0  0  0  0  0  0  0  0  0  0
    1.1686    1.4857   -0.0001 C   0  0  0  0  0  0  0  0  0  0  0  0
  1  6  2  0
  1  8  1  0
  2  9  3  0
  3 10  3  0
  4  5  2  0
  4  6  1  0
  4  9  1  0
  5  7  1  0
  6 10  1  0
  7  8  2  0
M  END
>  <PUBCHEM_COMPOUND_CID>  (1) 
28302

>  <PUBCHEM_CONFORMER_RMSD>  (1) 
0.4

>  <PUBCHEM_CONFORMER_DIVERSEORDER>  (1) 
1

>  <PUBCHEM_MMFF94_PARTIAL_CHARGES>  (1) 
13
1 -0.62
10 0.48
11 0.15
12 0.15
13 0.15
2 -0.56
3 -0.56
4 0.07
5 -0.15
6 0.38
7 -0.15
8 0.16
9 0.48

>  <PUBCHEM_EFFECTIVE_ROTOR_COUNT>  (1) 
0

>  <PUBCHEM_PHARMACOPHORE_FEATURES>  (1) 
4
1 1 acceptor
1 2 acceptor
1 3 acceptor
6 1 4 5 6 7 8 rings

>  <PUBCHEM_HEAVY_ATOM_COUNT>  (1) 
10

>  <PUBCHEM_ATOM_DEF_STEREO_COUNT>  (1) 
0

>  <PUBCHEM_ATOM_UDEF_STEREO_COUNT>  (1) 
0

>  <PUBCHEM_BOND_DEF_STEREO_COUNT>  (1) 
0

>  <PUBCHEM_BOND_UDEF_STEREO_COUNT>  (1) 
0

>  <PUBCHEM_ISOTOPIC_ATOM_COUNT>  (1) 
0

>  <PUBCHEM_COMPONENT_COUNT>  (1) 
1

>  <PUBCHEM_CACTVS_TAUTO_COUNT>  (1) 
1

>  <PUBCHEM_CONFORMER_ID>  (1) 
00006E8E00000001

>  <PUBCHEM_MMFF94_ENERGY>  (1) 
16.5217

>  <PUBCHEM_FEATURE_SELFOVERLAP>  (1) 
20.297

>  <PUBCHEM_SHAPE_FINGERPRINT>  (1) 
12423570 1 16693884726932928775
161256 15 18408612473798371141
16945 1 18410575097600754311
193761 8 18410573998326483879
20871998 184 16973376236370110628
21040471 1 17906171007348681888
23552423 10 18336267928526434791
241688 4 17978787913513047498
2748010 2 18408602565493461621

>  <PUBCHEM_SHAPE_MULTIPOLES>  (1) 
190.85
3.13
2.34
0.59
0.26
0.02
0
-0.03
0
-1.6
0
0.03
0.01
0

>  <PUBCHEM_SHAPE_SELFOVERLAP>  (1) 
401.767

>  <PUBCHEM_SHAPE_VOLUME>  (1) 
102.6

>  <PUBCHEM_COORDINATE_TYPE>  (1) 
2
5
10

$$$$
