28308
     RDKit          3D

 15 17  0  0  0  0  0  0  0  0999 V2000
    4.9085    1.0544    0.0001 Cl  0  0  0  0  0  0  0  0  0  0  0  0
    0.9281    0.5282   -0.0001 C   0  0  0  0  0  0  0  0  0  0  0  0
    0.8125   -0.8793   -0.0001 C   0  0  0  0  0  0  0  0  0  0  0  0
   -1.5138    0.7286    0.0000 C   0  0  0  0  0  0  0  0  0  0  0  0
   -1.6294   -0.6787    0.0000 C   0  0  0  0  0  0  0  0  0  0  0  0
   -0.2366    1.3138   -0.0001 C   0  0  0  0  0  0  0  0  0  0  0  0
   -0.4646   -1.4643   -0.0001 C   0  0  0  0  0  0  0  0  0  0  0  0
    2.2056    1.1125   -0.0001 C   0  0  0  0  0  0  0  0  0  0  0  0
    1.9777   -1.6641    0.0000 C   0  0  0  0  0  0  0  0  0  0  0  0
   -2.6789    1.5135    0.0000 C   0  0  0  0  0  0  0  0  0  0  0  0
   -2.9068   -1.2631    0.0001 C   0  0  0  0  0  0  0  0  0  0  0  0
    3.3527    0.3185    0.0000 C   0  0  0  0  0  0  0  0  0  0  0  0
    3.2389   -1.0680    0.0000 C   0  0  0  0  0  0  0  0  0  0  0  0
   -3.9401    0.9173    0.0000 C   0  0  0  0  0  0  0  0  0  0  0  0
   -4.0540   -0.4692    0.0000 C   0  0  0  0  0  0  0  0  0  0  0  0
  1 12  1  0
  2  3  1  0
  2  6  2  0
  2  8  1  0
  3  7  2  0
  3  9  1  0
  4  5  2  0
  4  6  1  0
  4 10  1  0
  5  7  1  0
  5 11  1  0
  8 12  2  0
  9 13  2  0
 10 14  2  0
 11 15  2  0
 12 13  1  0
 14 15  1  0
M  END
>  <PUBCHEM_COMPOUND_CID>  (1) 
28308

>  <PUBCHEM_CONFORMER_RMSD>  (1) 
0.4

>  <PUBCHEM_CONFORMER_DIVERSEORDER>  (1) 
1

>  <PUBCHEM_MMFF94_PARTIAL_CHARGES>  (1) 
20
1 -0.18
10 -0.15
11 -0.15
12 0.18
13 -0.15
14 -0.15
15 -0.15
16 0.15
17 0.15
18 0.15
19 0.15
20 0.15
21 0.15
22 0.15
23 0.15
24 0.15
6 -0.15
7 -0.15
8 -0.15
9 -0.15

>  <PUBCHEM_EFFECTIVE_ROTOR_COUNT>  (1) 
0

>  <PUBCHEM_PHARMACOPHORE_FEATURES>  (1) 
3
6 2 3 4 5 6 7 rings
6 2 3 8 9 12 13 rings
6 4 5 10 11 14 15 rings

>  <PUBCHEM_HEAVY_ATOM_COUNT>  (1) 
15

>  <PUBCHEM_ATOM_DEF_STEREO_COUNT>  (1) 
0

>  <PUBCHEM_ATOM_UDEF_STEREO_COUNT>  (1) 
0

>  <PUBCHEM_BOND_DEF_STEREO_COUNT>  (1) 
0

>  <PUBCHEM_BOND_UDEF_STEREO_COUNT>  (1) 
0

>  <PUBCHEM_ISOTOPIC_ATOM_COUNT>  (1) 
0

>  <PUBCHEM_COMPONENT_COUNT>  (1) 
1

>  <PUBCHEM_CACTVS_TAUTO_COUNT>  (1) 
1

>  <PUBCHEM_CONFORMER_ID>  (1) 
00006E9400000001

>  <PUBCHEM_MMFF94_ENERGY>  (1) 
44.7187

>  <PUBCHEM_FEATURE_SELFOVERLAP>  (1) 
15.274

>  <PUBCHEM_SHAPE_FINGERPRINT>  (1) 
10411042 1 15600609998168294981
10608611 8 18410570660915667133
10616163 171 18340208599717970703
10967382 1 18410573963676653638
11132069 177 18410289207360792161
11401426 45 18411414033520509989
11471102 20 18411133619564251862
11806522 49 18337669819074497607
12032990 46 18410862040176509711
13140716 1 17905896125262731107
13214271 11 18410572920242375919
13221675 6 18411136943716055503
13380535 76 18409449197783926810
14144814 61 18410575058924930267
14325111 11 18410573963708412577
14897335 6 18411135835846497774
15196674 1 18410856538165024551
15219456 202 18411983533299135711
15375358 24 18407759244111591746
15442244 35 18122906425957108106
15536298 74 18342176635679774062
15775835 57 18411984654301320196
16945 1 18338517576556203879
18186145 218 18113900411997348254
18522853 276 18411981372956985585
200 152 18059567006177252797
20510252 161 18272373040236317617
20645477 70 18342455885478745606
21267235 1 18410583880772328143
21501502 16 18410854317693364851
2334 1 18410573985320366627
23402539 116 18341042003698133126
23402655 69 18342451509239081421
23463225 33 18408322163862935951
23559900 14 18270114583729861706
2748010 2 18410576154284145535
296302 2 18409167714085061932
3312278 4 18412829092279904057
335352 9 18050567335356649143
34934 24 18410285904731440511
3545911 37 18410576188480268996
474 4 17168995663211796828
4990 188 18060430097077483948
5104073 3 18410012104671319738
528886 8 18411132532774034690
53812653 166 18342735234667846392
57096353 35 18411417349272166823
69090 78 18343015593063868751
7364860 26 18270118998824431774
77779 3 18411420587666970934
8809292 202 18260835920798113067
9709674 26 18411425015820996902

>  <PUBCHEM_SHAPE_MULTIPOLES>  (1) 
310.56
7.98
1.77
0.62
2.13
0.17
0
-1.61
0
0.04
0
0.01
0
0

>  <PUBCHEM_SHAPE_SELFOVERLAP>  (1) 
692.253

>  <PUBCHEM_SHAPE_VOLUME>  (1) 
158.7

>  <PUBCHEM_COORDINATE_TYPE>  (1) 
2
5
10

$$$$
