28305
     RDKit          3D

 25 29  0  0  0  0  0  0  0  0999 V2000
   -0.0284   -1.5525   -1.1298 O   0  0  0  0  0  0  0  0  0  0  0  0
    0.0044    1.9926   -1.1078 N   0  0  0  0  0  0  0  0  0  0  0  0
    0.0032    1.9151    1.3518 N   0  0  0  0  0  0  0  0  0  0  0  0
   -1.2802    0.1736    0.0625 C   0  0  0  0  0  0  0  0  0  0  0  0
    1.2772    0.1650    0.0684 C   0  0  0  0  0  0  0  0  0  0  0  0
   -0.0070   -0.7337    0.0428 C   0  0  0  0  0  0  0  0  0  0  0  0
    0.0165    2.8023    0.1479 C   0  0  0  0  0  0  0  0  0  0  0  0
   -1.1985    1.1312   -1.1654 C   0  0  0  0  0  0  0  0  0  0  0  0
   -1.2023    1.0537    1.3497 C   0  0  0  0  0  0  0  0  0  0  0  0
    1.1912    1.1070   -1.1716 C   0  0  0  0  0  0  0  0  0  0  0  0
    1.1957    1.0331    1.3651 C   0  0  0  0  0  0  0  0  0  0  0  0
   -2.5376   -0.6297    0.0232 C   0  0  0  0  0  0  0  0  0  0  0  0
    2.5331   -0.6404    0.0253 C   0  0  0  0  0  0  0  0  0  0  0  0
    1.2500    3.7542    0.1770 C   0  0  0  0  0  0  0  0  0  0  0  0
   -1.1846    3.7946    0.1779 C   0  0  0  0  0  0  0  0  0  0  0  0
   -2.8103   -1.5463    1.0379 C   0  0  0  0  0  0  0  0  0  0  0  0
    2.8002   -1.5680    1.0316 C   0  0  0  0  0  0  0  0  0  0  0  0
   -3.4384   -0.4623   -1.0279 C   0  0  0  0  0  0  0  0  0  0  0  0
    3.4376   -0.4648   -1.0212 C   0  0  0  0  0  0  0  0  0  0  0  0
   -3.9854   -2.2969    1.0015 C   0  0  0  0  0  0  0  0  0  0  0  0
    3.9738   -2.3210    0.9913 C   0  0  0  0  0  0  0  0  0  0  0  0
   -4.6136   -1.2128   -1.0642 C   0  0  0  0  0  0  0  0  0  0  0  0
    4.6112   -1.2179   -1.0614 C   0  0  0  0  0  0  0  0  0  0  0  0
   -4.8870   -2.1301   -0.0495 C   0  0  0  0  0  0  0  0  0  0  0  0
    4.8791   -2.1460   -0.0551 C   0  0  0  0  0  0  0  0  0  0  0  0
  1  6  1  0
  2  7  1  0
  2  8  1  0
  2 10  1  0
  3  7  1  0
  3  9  1  0
  3 11  1  0
  4  6  1  0
  4  8  1  0
  4  9  1  0
  4 12  1  0
  5  6  1  0
  5 10  1  0
  5 11  1  0
  5 13  1  0
  7 14  1  0
  7 15  1  0
 12 16  2  0
 12 18  1  0
 13 17  2  0
 13 19  1  0
 16 20  1  0
 17 21  1  0
 18 22  2  0
 19 23  2  0
 20 24  2  0
 21 25  2  0
 22 24  1  0
 23 25  1  0
M  END
>  <PUBCHEM_COMPOUND_CID>  (1) 
28305

>  <PUBCHEM_CONFORMER_RMSD>  (1) 
0.6

>  <PUBCHEM_CONFORMER_DIVERSEORDER>  (1) 
1
2
3

>  <PUBCHEM_MMFF94_PARTIAL_CHARGES>  (1) 
34
1 -0.68
10 0.27
11 0.27
12 -0.14
13 -0.14
16 -0.15
17 -0.15
18 -0.15
19 -0.15
2 -0.81
20 -0.15
21 -0.15
22 -0.15
23 -0.15
24 -0.15
25 -0.15
3 -0.81
4 0.14
41 0.4
42 0.15
43 0.15
44 0.15
45 0.15
46 0.15
47 0.15
48 0.15
49 0.15
5 0.14
50 0.15
51 0.15
6 0.28
7 0.54
8 0.27
9 0.27

>  <PUBCHEM_EFFECTIVE_ROTOR_COUNT>  (1) 
3.2

>  <PUBCHEM_PHARMACOPHORE_FEATURES>  (1) 
11
1 1 acceptor
1 1 donor
1 2 cation
1 3 cation
3 7 14 15 hydrophobe
6 12 16 18 20 22 24 rings
6 13 17 19 21 23 25 rings
6 2 3 4 7 8 9 rings
6 2 3 5 7 10 11 rings
6 2 4 5 6 8 10 rings
6 3 4 5 6 9 11 rings

>  <PUBCHEM_HEAVY_ATOM_COUNT>  (1) 
25

>  <PUBCHEM_ATOM_DEF_STEREO_COUNT>  (1) 
0

>  <PUBCHEM_ATOM_UDEF_STEREO_COUNT>  (1) 
0

>  <PUBCHEM_BOND_DEF_STEREO_COUNT>  (1) 
0

>  <PUBCHEM_BOND_UDEF_STEREO_COUNT>  (1) 
0

>  <PUBCHEM_ISOTOPIC_ATOM_COUNT>  (1) 
0

>  <PUBCHEM_COMPONENT_COUNT>  (1) 
1

>  <PUBCHEM_CACTVS_TAUTO_COUNT>  (1) 
1

>  <PUBCHEM_CONFORMER_ID>  (1) 
00006E9100000001

>  <PUBCHEM_MMFF94_ENERGY>  (1) 
97.4802

>  <PUBCHEM_FEATURE_SELFOVERLAP>  (1) 
68.811

>  <PUBCHEM_SHAPE_FINGERPRINT>  (1) 
104564 63 18268430139909606783
10764073 3 14330074004324345350
1100329 8 18338237038357903553
11045515 52 18041000609380249452
11265709 11 18410860944986132219
11578080 2 18337658759539699668
12363563 72 18412267233111480439
12403259 118 11671777148369846863
12506688 2 18335422391173802202
12553582 1 18408611344048367067
12714826 92 18271521984018923126
12760667 363 18337670806632691226
12788726 201 18118675518208948635
12892183 10 14261352453014016887
13004483 165 18339914944197768434
13009979 54 17916885593922065883
13052359 8 18049720720252184837
13134695 92 18340200912126924413
13140716 1 18343022146825584905
133893 2 18122369001063087313
13533116 47 18124036995358993699
13544653 18 18412824698412503946
13631057 29 18335701594946386410
13911987 19 17537467349934041532
13955234 65 17907584975555401417
14251757 5 18188205386876194821
14347329 18 16590245538989282597
14787075 74 18188783876200439516
14866123 147 17977662014002207571
15042514 8 18123193406981580952
16752209 62 18266168440412952362
16945 1 17675925395453898925
17349148 13 17560804398365863279
17357779 13 18200863002978167239
17492 89 18051408763086378311
1813 80 18201449085483195494
18222031 100 18201434804849162255
19765921 60 10809336763271209581
200 152 17968099681602875078
20600515 1 18129401404203691887
20832881 197 18334011692708073139
21120745 212 18269008522150657668
21250096 35 18408321094537950683
21452121 199 18410008866445520624
21452121 71 18335991912506067172
22112679 90 18126315027819858504
22182313 1 18268122379717655548
23175994 123 18410855473493365127
23419403 2 17844217736165379913
23557571 272 18126847097459269766
23559900 14 17822849922329197567
3004659 81 17749384841475134162
3027735 51 18194398884030400819
46194498 28 17096933679553697183
463206 1 18334573572693236315
633830 44 11603082939158168163
6669772 16 17764037161287023572
7364860 26 18122909995022196413
7471813 234 18201433727154768429
7970288 3 18413389838731714071
81228 2 18127137368265343073
8863177 126 17971203757953722107
9709674 26 18045778159776822499

>  <PUBCHEM_SHAPE_MULTIPOLES>  (1) 
498.66
8.29
3.82
1.36
0.06
3.74
-0.04
-10.26
1.11
-0.06
-0.68
0.01
-0.03
0

>  <PUBCHEM_SHAPE_SELFOVERLAP>  (1) 
1112.036

>  <PUBCHEM_SHAPE_VOLUME>  (1) 
257.2

>  <PUBCHEM_COORDINATE_TYPE>  (1) 
2
5
10

$$$$
