28319
     RDKit          3D

 13 12  0  0  0  0  0  0  0  0999 V2000
   -2.7030   -0.1207    0.0059 O   0  0  0  0  0  0  0  0  0  0  0  0
   -6.2307    0.5020    0.0499 O   0  0  0  0  0  0  0  0  0  0  0  0
   -5.0733   -1.4591   -0.0002 O   0  0  0  0  0  0  0  0  0  0  0  0
    2.2114   -0.2990   -0.0832 C   0  0  0  0  0  0  0  0  0  0  0  0
    3.5380    0.4655   -0.0574 C   0  0  0  0  0  0  0  0  0  0  0  0
    0.9830    0.6114   -0.0195 C   0  0  0  0  0  0  0  0  0  0  0  0
    4.7665   -0.4468   -0.0467 C   0  0  0  0  0  0  0  0  0  0  0  0
   -0.3099   -0.2030   -0.0248 C   0  0  0  0  0  0  0  0  0  0  0  0
    6.0584    0.3660    0.0523 C   0  0  0  0  0  0  0  0  0  0  0  0
   -1.5392    0.6944   -0.0032 C   0  0  0  0  0  0  0  0  0  0  0  0
    7.2813   -0.5359    0.1019 C   0  0  0  0  0  0  0  0  0  0  0  0
   -3.8891    0.6625    0.0076 C   0  0  0  0  0  0  0  0  0  0  0  0
   -5.0934   -0.2375    0.0172 C   0  0  0  0  0  0  0  0  0  0  0  0
  1 10  1  0
  1 12  1  0
  2 13  1  0
  3 13  2  0
  4  5  1  0
  4  6  1  0
  5  7  1  0
  6  8  1  0
  7  9  1  0
  8 10  1  0
  9 11  1  0
 12 13  1  0
M  END
>  <PUBCHEM_COMPOUND_CID>  (1) 
28319

>  <PUBCHEM_CONFORMER_RMSD>  (1) 
0.8

>  <PUBCHEM_CONFORMER_DIVERSEORDER>  (1) 
1
145
296
319
21
328
77
37
61
245
119
316
168
31
206
191
250
65
57
295
233
200
52
231
140
17
199
55
257
306
4
345
3
286
182
276
290
281
132
67
142
35
163
18
202
323
54
201
97
8
69
80
16
302
47
248
75
5
146
266
220
141
217
190
137
333
84
339
230
209
81
105
258
232
14
22
104
234
317
173
6
291
278
308
19
263
243
90
242
267
227
151
139
160
20
241
59
158
321
24
298
109
279
11
251
166
13
98
2
237
66
15
159
181
270
285
117
83
9
32
215
228
135
12
299
226
239
143
311
33
116
240
120
48
186
126
249
210
273
113
344
185
213
150
38
238
127
64
264
269
76
110
282
41
138
314
103
130
322
10
46
43
262
288
259
172
148
289
341
307
70
330
268
7
284
95
136
337
23
88
297
235
205
327
87
36
208
329
222
53
152
25
121
108
82
336
187
255
211
260
89
157
196
114
203
198
176
324
58
106
74
246
73
174
184
93
91
320
96
29
315
129
133
40
280
79
194
101
177
134
272
94
112
26
78
221
309
313
45
310
275
256
49
224
305
218
131
123
207
300
63
236
326
180
92
102
50
85
197
169
271
153
125
60
212
325
303
99
42
86
189
164
253
30
28
247
332
312
144
62
124
72
343
216
294
214
34
225
274
100
178
115
154
170
155
244
287
39
118
44
193
229
318
293
156
149
335
183
195
27
161
204
254
111
147
122
340
71
167
334
107
56
338
277
331
219
342
304
68
175
261
165
51
188
171
179
128
292
223
283
301
162
192
252
265

>  <PUBCHEM_MMFF94_PARTIAL_CHARGES>  (1) 
7
1 -0.56
10 0.28
12 0.34
13 0.66
2 -0.65
3 -0.57
33 0.5

>  <PUBCHEM_EFFECTIVE_ROTOR_COUNT>  (1) 
9

>  <PUBCHEM_PHARMACOPHORE_FEATURES>  (1) 
7
1 1 acceptor
1 11 hydrophobe
1 2 acceptor
1 3 acceptor
3 2 3 13 anion
3 4 6 8 hydrophobe
3 5 7 9 hydrophobe

>  <PUBCHEM_HEAVY_ATOM_COUNT>  (1) 
13

>  <PUBCHEM_ATOM_DEF_STEREO_COUNT>  (1) 
0

>  <PUBCHEM_ATOM_UDEF_STEREO_COUNT>  (1) 
0

>  <PUBCHEM_BOND_DEF_STEREO_COUNT>  (1) 
0

>  <PUBCHEM_BOND_UDEF_STEREO_COUNT>  (1) 
0

>  <PUBCHEM_ISOTOPIC_ATOM_COUNT>  (1) 
0

>  <PUBCHEM_COMPONENT_COUNT>  (1) 
1

>  <PUBCHEM_CACTVS_TAUTO_COUNT>  (1) 
1

>  <PUBCHEM_CONFORMER_ID>  (1) 
00006E9F00000001

>  <PUBCHEM_MMFF94_ENERGY>  (1) 
3.2828

>  <PUBCHEM_FEATURE_SELFOVERLAP>  (1) 
35.597

>  <PUBCHEM_SHAPE_FINGERPRINT>  (1) 
11315181 36 18343024406421149905
12091667 2 17385724686392021693
12714333 28 10737285745134173428
13533116 47 16805874114392381056
14123238 8 18410856559650358580
1420 363 18060704991810868878
14251718 22 18335420170960059464
14251732 16 18341330101962878360
14251764 46 18411136930815186412
14729087 3 8790888462844421838
15048467 5 10087642598170896738
15716309 27 18343582949453145742
17834072 33 18408887373164522332
17834072 8 13479135696400959852
17834076 25 18260548918303571408
187816 3 15646773387953392012
20621476 8 17967532333360011909
21130983 4 12823291317475210146
22224240 67 15985098613673209462
23035841 295 18335420166433178578
23402539 116 18333447651474022085
23521765 1 18341894086966416644
33684 2 18408039602929438341
42788 4 18410575085185454764
57583515 80 17894632552117372969
8209 1 18335420162111765957

>  <PUBCHEM_SHAPE_MULTIPOLES>  (1) 
249.93
19.07
0.93
0.6
6.63
0.13
0
2.66
-0.6
-0.56
0
0.12
-0.01
-0.02

>  <PUBCHEM_SHAPE_SELFOVERLAP>  (1) 
453.784

>  <PUBCHEM_SHAPE_VOLUME>  (1) 
160

>  <PUBCHEM_COORDINATE_TYPE>  (1) 
2
5
10

$$$$
