28310
     RDKit          3D

 13 13  0  0  0  0  0  0  0  0999 V2000
   -3.0356    0.0238    0.3712 O   0  0  0  0  0  0  0  0  0  0  0  0
    4.6193    0.0057   -0.6126 O   0  0  0  0  0  0  0  0  0  0  0  0
   -1.4521   -0.1174   -1.3000 O   0  0  0  0  0  0  0  0  0  0  0  0
    0.6492    0.0136    0.5990 C   0  0  0  0  0  0  0  0  0  0  0  0
   -0.7772    0.0159    1.0338 C   0  0  0  0  0  0  0  0  0  0  0  0
    1.3272   -1.1947    0.4387 C   0  0  0  0  0  0  0  0  0  0  0  0
    1.3054    1.2194    0.3518 C   0  0  0  0  0  0  0  0  0  0  0  0
   -1.7612   -0.0352   -0.1189 C   0  0  0  0  0  0  0  0  0  0  0  0
    2.6612   -1.1973    0.0312 C   0  0  0  0  0  0  0  0  0  0  0  0
    2.6394    1.2169   -0.0556 C   0  0  0  0  0  0  0  0  0  0  0  0
    3.3173    0.0085   -0.2159 C   0  0  0  0  0  0  0  0  0  0  0  0
   -4.0761   -0.0165   -0.6108 C   0  0  0  0  0  0  0  0  0  0  0  0
   -5.4169    0.0573    0.0881 C   0  0  0  0  0  0  0  0  0  0  0  0
  1  8  1  0
  1 12  1  0
  2 11  1  0
  3  8  2  0
  4  5  1  0
  4  6  2  0
  4  7  1  0
  5  8  1  0
  6  9  1  0
  7 10  2  0
  9 11  2  0
 10 11  1  0
 12 13  1  0
M  END
>  <PUBCHEM_COMPOUND_CID>  (1) 
28310

>  <PUBCHEM_CONFORMER_RMSD>  (1) 
0.6

>  <PUBCHEM_CONFORMER_DIVERSEORDER>  (1) 
1
14
13
26
9
27
11
22
10
24
21
2
29
30
7
18
8
28
20
12
17
25
23
19
3
15
6
16
4
5

>  <PUBCHEM_MMFF94_PARTIAL_CHARGES>  (1) 
17
1 -0.43
10 -0.15
11 0.08
12 0.28
16 0.15
17 0.15
18 0.15
19 0.15
2 -0.53
25 0.45
3 -0.57
4 -0.14
5 0.2
6 -0.15
7 -0.15
8 0.66
9 -0.15

>  <PUBCHEM_EFFECTIVE_ROTOR_COUNT>  (1) 
4

>  <PUBCHEM_PHARMACOPHORE_FEATURES>  (1) 
3
1 2 donor
1 3 acceptor
6 4 6 7 9 10 11 rings

>  <PUBCHEM_HEAVY_ATOM_COUNT>  (1) 
13

>  <PUBCHEM_ATOM_DEF_STEREO_COUNT>  (1) 
0

>  <PUBCHEM_ATOM_UDEF_STEREO_COUNT>  (1) 
0

>  <PUBCHEM_BOND_DEF_STEREO_COUNT>  (1) 
0

>  <PUBCHEM_BOND_UDEF_STEREO_COUNT>  (1) 
0

>  <PUBCHEM_ISOTOPIC_ATOM_COUNT>  (1) 
0

>  <PUBCHEM_COMPONENT_COUNT>  (1) 
1

>  <PUBCHEM_CACTVS_TAUTO_COUNT>  (1) 
2

>  <PUBCHEM_CONFORMER_ID>  (1) 
00006E9600000001

>  <PUBCHEM_MMFF94_ENERGY>  (1) 
21.7352

>  <PUBCHEM_FEATURE_SELFOVERLAP>  (1) 
15.223

>  <PUBCHEM_SHAPE_FINGERPRINT>  (1) 
11031198 65 18187085052898684382
11401426 45 18413105078852808856
11471102 20 18408041810162846424
14115302 16 16988842821250385804
14911166 2 18409738369900850334
14993402 34 17989490718595784438
15477762 27 18342459223026647070
17834072 33 18412542150295200167
18186145 218 18339631317727103665
200 152 18272933812730691657
20279233 1 17385730187997162987
20645477 70 18262516992061407011
21119208 17 18131351916366624829
22485316 2 15051729798271283829
23402539 116 16153706556807654450
23402655 69 18408881811329554005
23557571 272 16732979786893057455
3060560 45 18411418414788338734
4047638 21 17022905657520080856
42 15 11815897864352721779
4990 188 18187083944823560771
522135 26 18341891883500481307
8272917 22 18199755756573597087

>  <PUBCHEM_SHAPE_MULTIPOLES>  (1) 
249.93
8.99
1.08
0.9
8.66
0.01
0.04
0.13
1.65
-0.95
-0.08
0.18
-0.01
-0.03

>  <PUBCHEM_SHAPE_SELFOVERLAP>  (1) 
509.64

>  <PUBCHEM_SHAPE_VOLUME>  (1) 
145.4

>  <PUBCHEM_COORDINATE_TYPE>  (1) 
2
5
10

$$$$
