28316
     RDKit          3D

 27 30  0  0  1  0  0  0  0  0999 V2000
    6.9597    0.6320   -0.3792 S   0  0  0  0  0  0  0  0  0  0  0  0
    3.4369   -1.0016   -0.3538 O   0  0  0  0  0  0  0  0  0  0  0  0
   -6.7946    1.6309    1.1092 O   0  0  0  0  0  0  0  0  0  0  0  0
    4.8798   -0.6895    1.4153 O   0  0  0  0  0  0  0  0  0  0  0  0
    0.5718    0.0144   -0.4418 C   0  0  0  0  0  0  0  0  0  0  0  0
    1.0126   -1.4390   -0.1640 C   0  0  0  0  0  0  0  0  0  0  0  0
   -0.9142    0.1565   -0.8410 C   0  0  0  0  0  0  0  0  0  0  0  0
   -1.8837   -0.5728    0.1258 C   0  0  0  0  0  0  0  0  0  0  0  0
   -3.4024   -0.4204   -0.2851 C   0  0  0  0  0  0  0  0  0  0  0  0
    0.0104   -2.1467    0.7782 C   0  0  0  0  0  0  0  0  0  0  0  0
   -1.4414   -2.0387    0.3117 C   0  0  0  0  0  0  0  0  0  0  0  0
    2.3660   -1.2350    0.5583 C   0  0  0  0  0  0  0  0  0  0  0  0
    0.9987    0.7826    0.8213 C   0  0  0  0  0  0  0  0  0  0  0  0
   -1.3087    1.6332   -0.9894 C   0  0  0  0  0  0  0  0  0  0  0  0
    2.1762    0.0105    1.4270 C   0  0  0  0  0  0  0  0  0  0  0  0
   -3.7144    1.0507   -0.5850 C   0  0  0  0  0  0  0  0  0  0  0  0
    1.1721   -2.2418   -1.4659 C   0  0  0  0  0  0  0  0  0  0  0  0
   -2.7416    1.7768   -1.4825 C   0  0  0  0  0  0  0  0  0  0  0  0
   -4.2778   -0.9172    0.9032 C   0  0  0  0  0  0  0  0  0  0  0  0
   -3.7508   -1.2496   -1.5426 C   0  0  0  0  0  0  0  0  0  0  0  0
   -5.7353   -0.4943    0.8059 C   0  0  0  0  0  0  0  0  0  0  0  0
   -4.7944    1.7008   -0.1205 C   0  0  0  0  0  0  0  0  0  0  0  0
   -5.8391    1.0005    0.6608 C   0  0  0  0  0  0  0  0  0  0  0  0
    4.6564   -0.7371    0.2138 C   0  0  0  0  0  0  0  0  0  0  0  0
    5.6593   -0.5164   -0.8904 C   0  0  0  0  0  0  0  0  0  0  0  0
    5.9242    2.0726   -0.0285 C   0  0  0  0  0  0  0  0  0  0  0  0
    6.7743    3.2386    0.4392 C   0  0  0  0  0  0  0  0  0  0  0  0
  1 25  1  0
  1 26  1  0
  2 12  1  0
  2 24  1  0
  3 23  2  0
  4 24  2  0
  5  6  1  0
  5  7  1  0
  5 13  1  0
  6 10  1  0
  6 12  1  0
  6 17  1  0
  7  8  1  0
  7 14  1  0
  8  9  1  0
  8 11  1  0
  9 16  1  0
  9 19  1  0
  9 20  1  0
 10 11  1  0
 12 15  1  0
 13 15  1  0
 14 18  1  0
 16 18  1  0
 16 22  2  0
 19 21  1  0
 21 23  1  0
 22 23  1  0
 24 25  1  0
 26 27  1  0
M  END
>  <PUBCHEM_COMPOUND_CID>  (1) 
28316

>  <PUBCHEM_CONFORMER_RMSD>  (1) 
1

>  <PUBCHEM_CONFORMER_DIVERSEORDER>  (1) 
2
527
64
732
227
458
204
62
740
93
720
562
536
683
383
336
212
253
583
489
153
478
557
113
498
133
130
625
660
785
294
157
642
588
351
186
145
373
341
380
412
694
534
659
116
136
471
700
444
692
232
76
55
568
435
1
470
649
711
51
388
417
650
236
349
3
287
626
197
29
179
147
537
238
298
123
17
613
211
664
264
614
432
143
630
418
42
353
216
28
667
448
173
425
45
392
414
499
27
165
516
490
22
739
188
91
82
110
118
596
4
416
48
324
365
37
114
755
146
77
252
684
14
474
86
607
370
395
540
502
132
611
436
760
279
224
278
92
339
6
20
407
492
456
40
98
88
107
25
772
196
728
672
60
293
23
96
335
137
47
328
387
126
573
187
463
127
462
741
633
122
46
347
65
24
100
175
369
696
592
26
756
234
771
104
10
83
36
321
35
75
312
32
8
21
595
251
585
12
38
148
240
272
200
84
242
297
172
15
119
39
41
284
194
94
90
317
80
443
213
371
786

>  <PUBCHEM_MMFF94_PARTIAL_CHARGES>  (1) 
15
1 -0.46
12 0.28
16 -0.28
18 0.14
2 -0.43
21 0.06
22 -0.14
23 0.49
24 0.66
25 0.29
26 0.23
3 -0.57
4 -0.57
54 0.15
9 0.14

>  <PUBCHEM_EFFECTIVE_ROTOR_COUNT>  (1) 
6.8

>  <PUBCHEM_PHARMACOPHORE_FEATURES>  (1) 
7
1 27 hydrophobe
1 3 acceptor
1 4 acceptor
5 5 6 12 13 15 rings
6 5 6 7 8 10 11 rings
6 7 8 9 14 16 18 rings
6 9 16 19 21 22 23 rings

>  <PUBCHEM_HEAVY_ATOM_COUNT>  (1) 
27

>  <PUBCHEM_ATOM_DEF_STEREO_COUNT>  (1) 
1

>  <PUBCHEM_ATOM_UDEF_STEREO_COUNT>  (1) 
5

>  <PUBCHEM_BOND_DEF_STEREO_COUNT>  (1) 
0

>  <PUBCHEM_BOND_UDEF_STEREO_COUNT>  (1) 
0

>  <PUBCHEM_ISOTOPIC_ATOM_COUNT>  (1) 
0

>  <PUBCHEM_COMPONENT_COUNT>  (1) 
1

>  <PUBCHEM_CACTVS_TAUTO_COUNT>  (1) 
5

>  <PUBCHEM_CONFORMER_ID>  (1) 
00006E9C00000002

>  <PUBCHEM_MMFF94_ENERGY>  (1) 
75.0462

>  <PUBCHEM_FEATURE_SELFOVERLAP>  (1) 
35.724

>  <PUBCHEM_SHAPE_FINGERPRINT>  (1) 
10 15 18040438763602447681
10369192 42 18413109463782336132
106641 1 18040444291499573457
10906281 52 18272099291768440210
11796584 16 12751227113229588396
12403259 415 18334570222549355020
12596602 18 16443063859315861488
12788726 201 17916585310888076849
13140716 1 18114190778363229723
13914758 101 12031796837858712369
14739800 52 18042386054988918944
14790565 3 18410576150100285736
14849402 71 18341898553564496425
14856354 85 17489590090785116295
15183329 4 13901908886553550284
15685185 35 16228611972841895492
15788980 27 13038901144454550670
16760501 71 18334577992546366804
17349148 13 11386371391914501070
17857418 61 10735884971699964676
17980427 23 18334575771551961799
19377110 9 16443339875848133376
19489759 90 8934997075277589023
200 152 12540705803860777015
21033648 29 18131057264594099346
21521721 280 18412267242070290688
22079108 93 16443068296591831264
22224240 67 18259706688181044179
23559900 14 18131344237086718120
25122255 55 9583247166905280464
2838139 119 18409158927378494724
29717793 49 12463569582720064226
34797466 226 18272657852903439436
350125 39 18335141985723062949
4093350 32 17632303376198705692
4340502 62 16877943828543252954
44317340 157 18202563999808096012
5104073 3 17749662979219635888
53794403 172 17897454007141670092
552612 73 18197496436061154520
5718773 13 8502363417576674193
59682541 35 18113629984636508841
59755656 520 13254504333081592141
6328613 192 18202288012887109952
633830 44 16629659825992651498

>  <PUBCHEM_SHAPE_MULTIPOLES>  (1) 
541.89
16.87
2.54
1.3
12.77
0.83
-0.13
10.76
2.71
1.64
-0.11
-0.43
-0.12
0.33

>  <PUBCHEM_SHAPE_SELFOVERLAP>  (1) 
1128.296

>  <PUBCHEM_SHAPE_VOLUME>  (1) 
311.8

>  <PUBCHEM_COORDINATE_TYPE>  (1) 
2
5
10

$$$$
