28322
     RDKit          3D

 14 14  0  0  0  0  0  0  0  0999 V2000
   -1.3592    2.4008   -0.3995 O   0  0  0  0  0  0  0  0  0  0  0  0
    1.1232    0.0028    0.0491 C   0  0  0  0  0  0  0  0  0  0  0  0
    2.5079   -0.0445   -0.5997 C   0  0  0  0  0  0  0  0  0  0  0  0
    0.0152   -0.0075   -1.0064 C   0  0  0  0  0  0  0  0  0  0  0  0
    3.6169   -0.0001    0.4527 C   0  0  0  0  0  0  0  0  0  0  0  0
   -1.3541    0.0029   -0.3765 C   0  0  0  0  0  0  0  0  0  0  0  0
    5.0006   -0.0135   -0.1965 C   0  0  0  0  0  0  0  0  0  0  0  0
   -1.9840   -1.1973   -0.0734 C   0  0  0  0  0  0  0  0  0  0  0  0
   -1.9699    1.2184   -0.1067 C   0  0  0  0  0  0  0  0  0  0  0  0
    6.1051    0.0648    0.8453 C   0  0  0  0  0  0  0  0  0  0  0  0
   -3.2516   -1.1821    0.5091 C   0  0  0  0  0  0  0  0  0  0  0  0
   -1.3350   -2.5121   -0.3577 C   0  0  0  0  0  0  0  0  0  0  0  0
   -3.2371    1.2339    0.4761 C   0  0  0  0  0  0  0  0  0  0  0  0
   -3.8779    0.0336    0.7841 C   0  0  0  0  0  0  0  0  0  0  0  0
  1  9  1  0
  2  3  1  0
  2  4  1  0
  3  5  1  0
  4  6  1  0
  5  7  1  0
  6  8  2  0
  6  9  1  0
  7 10  1  0
  8 11  1  0
  8 12  1  0
  9 13  2  0
 11 14  2  0
 13 14  1  0
M  END
>  <PUBCHEM_COMPOUND_CID>  (1) 
28322

>  <PUBCHEM_CONFORMER_RMSD>  (1) 
0.6

>  <PUBCHEM_CONFORMER_DIVERSEORDER>  (1) 
2
34
16
37
26
29
30
24
38
6
39
33
1
35
44
25
8
21
28
23
31
45
41
22
40
5
12
11
7
14
42
32
27
36
13
18
20
19
10
15
43
17
4
9
3

>  <PUBCHEM_MMFF94_PARTIAL_CHARGES>  (1) 
13
1 -0.53
11 -0.15
12 0.14
13 -0.15
14 -0.15
28 0.15
32 0.15
33 0.15
34 0.45
4 0.14
6 -0.14
8 -0.14
9 0.08

>  <PUBCHEM_EFFECTIVE_ROTOR_COUNT>  (1) 
5

>  <PUBCHEM_PHARMACOPHORE_FEATURES>  (1) 
4
1 1 donor
1 10 hydrophobe
5 2 3 4 5 7 hydrophobe
6 6 8 9 11 13 14 rings

>  <PUBCHEM_HEAVY_ATOM_COUNT>  (1) 
14

>  <PUBCHEM_ATOM_DEF_STEREO_COUNT>  (1) 
0

>  <PUBCHEM_ATOM_UDEF_STEREO_COUNT>  (1) 
0

>  <PUBCHEM_BOND_DEF_STEREO_COUNT>  (1) 
0

>  <PUBCHEM_BOND_UDEF_STEREO_COUNT>  (1) 
0

>  <PUBCHEM_ISOTOPIC_ATOM_COUNT>  (1) 
0

>  <PUBCHEM_COMPONENT_COUNT>  (1) 
1

>  <PUBCHEM_CACTVS_TAUTO_COUNT>  (1) 
9

>  <PUBCHEM_CONFORMER_ID>  (1) 
00006EA200000002

>  <PUBCHEM_MMFF94_ENERGY>  (1) 
22.5369

>  <PUBCHEM_FEATURE_SELFOVERLAP>  (1) 
20.297

>  <PUBCHEM_SHAPE_FINGERPRINT>  (1) 
10014705 185 12247677171486498962
11132069 177 18342186548400866397
12251169 10 18409732876162925212
13024252 1 15430036561286308677
13167823 11 18187078430713397938
13214271 11 18272088292689498205
13675066 3 18060698399531876726
13897977 58 18409174337310033788
15042514 8 18338242690492647483
15219456 202 17988653934423275326
1813 80 16878232970110569934
19050596 39 18261113002228650716
200 152 14923942357994482444
20510252 161 18200036131611360249
20645464 45 17988932171231858943
20645477 56 18343019982604678812
20645477 70 14056987301487208984
20828058 44 18409165520037314122
21637258 2 16081658893319327105
21650355 55 18337675312363854461
2297311 6 18341346530313006092
23402539 116 18343295998799444839
23403322 49 11963388544425347080
23557571 272 18129680625008296948
2748010 2 17976848410279299575
57265010 4 18342740736462982266
5924683 9 17987788743532430774

>  <PUBCHEM_SHAPE_MULTIPOLES>  (1) 
282.24
10.22
1.79
0.89
18.78
0.24
0
-0.45
-3.47
-2.16
0.2
0.13
0
0.03

>  <PUBCHEM_SHAPE_SELFOVERLAP>  (1) 
562.739

>  <PUBCHEM_SHAPE_VOLUME>  (1) 
168.5

>  <PUBCHEM_COORDINATE_TYPE>  (1) 
2
5
10

$$$$
