28324
     RDKit          3D

  9  8  0  0  0  0  0  0  0  0999 V2000
    2.9646   -1.5492   -0.4928 S   0  0  0  0  0  0  0  0  0  0  0  0
   -2.9646    1.5492   -0.4936 S   0  0  0  0  0  0  0  0  0  0  0  0
    3.0844    1.4597   -0.5009 S   0  0  0  0  0  0  0  0  0  0  0  0
   -3.0842   -1.4598   -0.5017 S   0  0  0  0  0  0  0  0  0  0  0  0
    0.0026    0.0000    0.1231 O   0  0  0  0  0  0  0  0  0  0  0  0
    1.1738    0.0151    0.9184 C   0  0  0  0  0  0  0  0  0  0  0  0
   -1.1760   -0.0150    0.9206 C   0  0  0  0  0  0  0  0  0  0  0  0
    2.3827    0.0305    0.0133 C   0  0  0  0  0  0  0  0  0  0  0  0
   -2.3833   -0.0306    0.0135 C   0  0  0  0  0  0  0  0  0  0  0  0
  1  8  1  0
  2  9  1  0
  3  8  2  0
  4  9  2  0
  5  6  1  0
  5  7  1  0
  6  8  1  0
  7  9  1  0
M  END
>  <PUBCHEM_COMPOUND_CID>  (1) 
28324

>  <PUBCHEM_CONFORMER_RMSD>  (1) 
0.6

>  <PUBCHEM_CONFORMER_DIVERSEORDER>  (1) 
1
12
13
5
7
10
9
4
3
8
2
11
6

>  <PUBCHEM_MMFF94_PARTIAL_CHARGES>  (1) 
11
1 -0.32
14 0.18
15 0.18
2 -0.32
3 -0.38
4 -0.38
5 -0.56
6 0.34
7 0.34
8 0.46
9 0.46

>  <PUBCHEM_EFFECTIVE_ROTOR_COUNT>  (1) 
4

>  <PUBCHEM_PHARMACOPHORE_FEATURES>  (1) 
5
1 3 acceptor
1 4 acceptor
1 5 acceptor
3 1 3 8 anion
3 2 4 9 anion

>  <PUBCHEM_HEAVY_ATOM_COUNT>  (1) 
9

>  <PUBCHEM_ATOM_DEF_STEREO_COUNT>  (1) 
0

>  <PUBCHEM_ATOM_UDEF_STEREO_COUNT>  (1) 
0

>  <PUBCHEM_BOND_DEF_STEREO_COUNT>  (1) 
0

>  <PUBCHEM_BOND_UDEF_STEREO_COUNT>  (1) 
0

>  <PUBCHEM_ISOTOPIC_ATOM_COUNT>  (1) 
0

>  <PUBCHEM_COMPONENT_COUNT>  (1) 
1

>  <PUBCHEM_CACTVS_TAUTO_COUNT>  (1) 
1

>  <PUBCHEM_CONFORMER_ID>  (1) 
00006EA400000001

>  <PUBCHEM_MMFF94_ENERGY>  (1) 
18.1009

>  <PUBCHEM_FEATURE_SELFOVERLAP>  (1) 
25.373

>  <PUBCHEM_SHAPE_FINGERPRINT>  (1) 
12162725 195 18040995180546751140
12932764 1 17632572794558274139
14325111 11 18410573989451719210
14390081 3 17676487258801615361
15310529 11 18271806851771760975
18186145 218 17530963566265534436
18619055 16 18201718427277365390
20645477 56 18410569570342276601
20653085 51 18261397689593173937
20711983 171 18411702075671209997
23532345 88 18411136931290213326
23552423 10 18410855425789912378
3248919 1 17603307084992898864
58051976 100 18337393742761077295
58051976 378 18267300018176668854
8030462 33 17275107202008247408
93112 12 18410573942201778388
9939556 21 18338516343868882959

>  <PUBCHEM_SHAPE_MULTIPOLES>  (1) 
194.74
6.73
1.78
0.95
0
0
0.09
0
-1.76
0
-0.53
0
0
0

>  <PUBCHEM_SHAPE_SELFOVERLAP>  (1) 
322.145

>  <PUBCHEM_SHAPE_VOLUME>  (1) 
135.5

>  <PUBCHEM_COORDINATE_TYPE>  (1) 
2
5
10

$$$$
