2832
     RDKit          3D

 27 29  0  0  1  0  0  0  0  0999 V2000
    0.8890   -2.0985    0.6392 O   0  0  0  0  0  0  0  0  0  0  0  0
    3.6225   -1.9669    0.5542 O   0  0  0  0  0  0  0  0  0  0  0  0
    4.8760    0.2145   -0.5921 O   0  0  0  0  0  0  0  0  0  0  0  0
   -5.0152   -1.5099   -0.9779 O   0  0  0  0  0  0  0  0  0  0  0  0
   -4.4904   -0.5980    1.5620 O   0  0  0  0  0  0  0  0  0  0  0  0
    0.1171    2.2087    1.7941 N   0  0  0  0  0  0  0  0  0  0  0  0
   -0.8429    2.3355    0.6866 C   0  0  0  0  0  0  0  0  0  0  0  0
   -0.2148    3.0955   -0.5093 C   0  0  0  0  0  0  0  0  0  0  0  0
    0.5475    2.2968   -1.5747 C   0  0  0  0  0  0  0  0  0  0  0  0
   -1.5376    1.0078    0.3451 C   0  0  0  0  0  0  0  0  0  0  0  0
    1.3626    1.1564   -1.0275 C   0  0  0  0  0  0  0  0  0  0  0  0
    0.7177    0.0402   -0.4552 C   0  0  0  0  0  0  0  0  0  0  0  0
   -0.7714   -0.0038   -0.3987 C   0  0  0  0  0  0  0  0  0  0  0  0
    1.4874   -1.0028    0.0836 C   0  0  0  0  0  0  0  0  0  0  0  0
    2.7624    1.2009   -1.0639 C   0  0  0  0  0  0  0  0  0  0  0  0
   -2.7870    0.8324    0.8152 C   0  0  0  0  0  0  0  0  0  0  0  0
   -1.3125   -0.9740   -1.1608 C   0  0  0  0  0  0  0  0  0  0  0  0
    2.8801   -0.9450    0.0397 C   0  0  0  0  0  0  0  0  0  0  0  0
    3.5161    0.1534   -0.5345 C   0  0  0  0  0  0  0  0  0  0  0  0
   -0.5552    1.7432    2.9922 C   0  0  0  0  0  0  0  0  0  0  0  0
   -3.6979   -0.3261    0.6621 C   0  0  0  0  0  0  0  0  0  0  0  0
   -2.6989   -1.2635   -1.4193 C   0  0  0  0  0  0  0  0  0  0  0  0
   -3.7578   -1.0438   -0.6316 C   0  0  0  0  0  0  0  0  0  0  0  0
    0.5983   -2.0373    2.0326 C   0  0  0  0  0  0  0  0  0  0  0  0
    4.5215   -1.6440    1.6122 C   0  0  0  0  0  0  0  0  0  0  0  0
    5.5004   -0.3349   -1.7505 C   0  0  0  0  0  0  0  0  0  0  0  0
   -5.7168   -0.5368   -1.7228 C   0  0  0  0  0  0  0  0  0  0  0  0
  1 14  1  0
  1 24  1  0
  2 18  1  0
  2 25  1  0
  3 19  1  0
  3 26  1  0
  4 23  1  0
  4 27  1  0
  5 21  2  0
  6  7  1  0
  6 20  1  0
  7  8  1  0
  7 10  1  0
  8  9  1  0
  9 11  1  0
 10 13  1  0
 10 16  2  0
 11 12  2  0
 11 15  1  0
 12 13  1  0
 12 14  1  0
 13 17  2  0
 14 18  2  0
 15 19  2  0
 16 21  1  0
 17 22  1  0
 18 19  1  0
 21 23  1  0
 22 23  2  0
M  END
>  <PUBCHEM_COMPOUND_CID>  (1) 
2832

>  <PUBCHEM_CONFORMER_RMSD>  (1) 
0.8

>  <PUBCHEM_CONFORMER_DIVERSEORDER>  (1) 
1
9
21
14
16
11
19
8
13
12
10
3
22
2
15
17
20
5
4
6
18
7

>  <PUBCHEM_MMFF94_PARTIAL_CHARGES>  (1) 
31
1 -0.36
10 -0.14
11 -0.14
12 0.03
13 -0.03
14 0.08
15 -0.15
16 -0.14
17 -0.15
18 0.08
19 0.08
2 -0.36
20 0.27
21 0.54
22 -0.15
23 0.09
24 0.28
25 0.28
26 0.28
27 0.28
3 -0.36
33 0.36
34 0.15
35 0.15
36 0.15
4 -0.36
40 0.15
5 -0.57
6 -0.9
7 0.41
9 0.14

>  <PUBCHEM_EFFECTIVE_ROTOR_COUNT>  (1) 
5.6

>  <PUBCHEM_PHARMACOPHORE_FEATURES>  (1) 
10
1 1 acceptor
1 2 acceptor
1 3 acceptor
1 4 acceptor
1 5 acceptor
1 6 cation
1 6 donor
6 11 12 14 15 18 19 rings
7 10 13 16 17 21 22 23 rings
7 7 8 9 10 11 12 13 rings

>  <PUBCHEM_HEAVY_ATOM_COUNT>  (1) 
27

>  <PUBCHEM_ATOM_DEF_STEREO_COUNT>  (1) 
0

>  <PUBCHEM_ATOM_UDEF_STEREO_COUNT>  (1) 
1

>  <PUBCHEM_BOND_DEF_STEREO_COUNT>  (1) 
0

>  <PUBCHEM_BOND_UDEF_STEREO_COUNT>  (1) 
0

>  <PUBCHEM_ISOTOPIC_ATOM_COUNT>  (1) 
0

>  <PUBCHEM_COMPONENT_COUNT>  (1) 
1

>  <PUBCHEM_CACTVS_TAUTO_COUNT>  (1) 
1

>  <PUBCHEM_CONFORMER_ID>  (1) 
00000B1000000001

>  <PUBCHEM_MMFF94_ENERGY>  (1) 
134.3257

>  <PUBCHEM_FEATURE_SELFOVERLAP>  (1) 
50.778

>  <PUBCHEM_SHAPE_FINGERPRINT>  (1) 
11578080 2 18196905882153065273
12166972 35 18130500946713481677
12236239 1 18341899601303504991
12553582 1 18411702092703366510
12633257 1 13542465418814672031
12788726 201 18342179942651669602
13140716 1 17753885022840832244
13782708 43 15985110686736653782
13911987 19 17386586742300177942
13965767 371 17478649748125802593
14251757 17 17095245842983604403
14294032 229 17559690447801817577
14347332 77 18200038309687469262
14787075 74 18129384959222399568
14955137 171 17916325964036710891
15375462 189 18341904021094014065
16945 1 18336266867690761252
17349148 13 18261118456800316810
17492 54 18040438814967968830
17980427 23 15769765893182859385
1813 80 18411423912172235700
18222031 100 17561074839275606743
200 152 18334290964081542367
20600515 1 16773805843549310929
20691752 17 18337382863413822321
21033648 29 14836122148350453091
22112679 90 18131072653672663621
23402539 116 17561090189356964261
23419403 2 17842239736385552581
23557571 272 17418104191011430900
23559900 14 17604420921196612919
312423 11 17969790683626791806
3411729 13 17201342216726157609
34934 24 18190468160204915265
392239 28 17988920085367916600
404807 14 13989670693966837944
5895379 119 15696623093952991801
9981440 41 16831488662773303664

>  <PUBCHEM_SHAPE_MULTIPOLES>  (1) 
521.32
9.47
2.66
2.11
0.86
1.26
-1.14
-5.41
3.64
-0.38
-0.64
0.27
0.32
-1.75

>  <PUBCHEM_SHAPE_SELFOVERLAP>  (1) 
1114.832

>  <PUBCHEM_SHAPE_VOLUME>  (1) 
286.6

>  <PUBCHEM_COORDINATE_TYPE>  (1) 
2
5
10

$$$$
