28334
     RDKit          3D

 19 19  0  0  0  0  0  0  0  0999 V2000
   -0.3155   -0.0322   -0.3584 Si  0  0  0  0  0  4  0  0  0  0  0  0
   -1.3962   -0.1369    0.9070 O   0  0  0  0  0  0  0  0  0  0  0  0
   -0.6027    1.3157   -1.2991 O   0  0  0  0  0  0  0  0  0  0  0  0
   -0.3362   -1.4124   -1.2963 O   0  0  0  0  0  0  0  0  0  0  0  0
   -4.9675   -0.4677    1.7229 N   0  0  0  0  0  0  0  0  0  0  0  0
   -0.8411    4.9858   -1.2415 N   0  0  0  0  0  0  0  0  0  0  0  0
    0.1747   -5.0546   -1.2384 N   0  0  0  0  0  0  0  0  0  0  0  0
    1.4138    0.1375    0.3470 C   0  0  0  0  0  0  0  0  0  0  0  0
   -2.7836   -0.2728    0.6345 C   0  0  0  0  0  0  0  0  0  0  0  0
   -0.5602    2.6112   -0.7179 C   0  0  0  0  0  0  0  0  0  0  0  0
   -0.0436   -2.6740   -0.7124 C   0  0  0  0  0  0  0  0  0  0  0  0
    2.5094    0.2442   -0.5098 C   0  0  0  0  0  0  0  0  0  0  0  0
    1.6044    0.1575    1.7286 C   0  0  0  0  0  0  0  0  0  0  0  0
   -3.5359   -0.3451    1.9537 C   0  0  0  0  0  0  0  0  0  0  0  0
   -0.8569    3.6406   -1.7967 C   0  0  0  0  0  0  0  0  0  0  0  0
   -0.1352   -3.7436   -1.7889 C   0  0  0  0  0  0  0  0  0  0  0  0
    3.7955    0.3711    0.0152 C   0  0  0  0  0  0  0  0  0  0  0  0
    2.8905    0.2844    2.2536 C   0  0  0  0  0  0  0  0  0  0  0  0
    3.9859    0.3911    1.3969 C   0  0  0  0  0  0  0  0  0  0  0  0
  1  2  1  0
  1  3  1  0
  1  4  1  0
  1  8  1  0
  2  9  1  0
  3 10  1  0
  4 11  1  0
  5 14  1  0
  6 15  1  0
  7 16  1  0
  8 12  2  0
  8 13  1  0
  9 14  1  0
 10 15  1  0
 11 16  1  0
 12 17  1  0
 13 18  2  0
 17 19  2  0
 18 19  1  0
M  END
>  <PUBCHEM_COMPOUND_CID>  (1) 
28334

>  <PUBCHEM_CONFORMER_RMSD>  (1) 
1

>  <PUBCHEM_CONFORMER_DIVERSEORDER>  (1) 
1
3
8
5
7
2
9
6
4

>  <PUBCHEM_MMFF94_PARTIAL_CHARGES>  (1) 
30
1 1.11
10 0.28
11 0.28
12 -0.15
13 -0.15
14 0.27
15 0.27
16 0.27
17 -0.15
18 -0.15
19 -0.15
2 -0.58
26 0.15
27 0.15
3 -0.58
34 0.15
35 0.15
36 0.15
37 0.36
38 0.36
39 0.36
4 -0.58
40 0.36
41 0.36
42 0.36
5 -0.99
6 -0.99
7 -0.99
8 -0.22
9 0.28

>  <PUBCHEM_EFFECTIVE_ROTOR_COUNT>  (1) 
10

>  <PUBCHEM_PHARMACOPHORE_FEATURES>  (1) 
7
1 5 cation
1 5 donor
1 6 cation
1 6 donor
1 7 cation
1 7 donor
6 8 12 13 17 18 19 rings

>  <PUBCHEM_HEAVY_ATOM_COUNT>  (1) 
19

>  <PUBCHEM_ATOM_DEF_STEREO_COUNT>  (1) 
0

>  <PUBCHEM_ATOM_UDEF_STEREO_COUNT>  (1) 
0

>  <PUBCHEM_BOND_DEF_STEREO_COUNT>  (1) 
0

>  <PUBCHEM_BOND_UDEF_STEREO_COUNT>  (1) 
0

>  <PUBCHEM_ISOTOPIC_ATOM_COUNT>  (1) 
0

>  <PUBCHEM_COMPONENT_COUNT>  (1) 
1

>  <PUBCHEM_CACTVS_TAUTO_COUNT>  (1) 
1

>  <PUBCHEM_CONFORMER_ID>  (1) 
00006EAE00000001

>  <PUBCHEM_MMFF94_ENERGY>  (1) 
15.1464

>  <PUBCHEM_FEATURE_SELFOVERLAP>  (1) 
35.522

>  <PUBCHEM_SHAPE_FINGERPRINT>  (1) 
10064457 181 17988372566915991258
10756046 70 18048325723516580781
11578080 2 17693125992218862025
13134695 92 17968376878960983661
14178342 30 18199208294499241779
14713325 29 17903659392663818684
14943834 7 17546452640185376423
15420108 30 18050585215881158165
15775530 1 17833555600338438583
15906896 17 17826485821907620805
17980427 26 16988839428416139144
20511035 2 17758366623107512778
21524375 3 17397504686236798028
22112679 90 18047746281004793742
23419403 2 17549833183153142153
23526113 38 17042316143338187814
23558518 356 17684348578283653293
23598288 3 17750774602623310536
2748010 2 18196080041840919460
3250762 1 17833276315737026607
68419 9 17405721753194808263
6992083 37 18196084667019712518
81228 2 17983274208939345454
90316 7 18264186162655287912
9981440 41 17693330553200746336
9999458 23 17632030701119042977

>  <PUBCHEM_SHAPE_MULTIPOLES>  (1) 
376.67
5.65
5.15
2.25
0.63
0.17
0.67
-0.11
5.63
2.36
-6.06
0.69
0
0.24

>  <PUBCHEM_SHAPE_SELFOVERLAP>  (1) 
731.354

>  <PUBCHEM_SHAPE_VOLUME>  (1) 
227.3

>  <PUBCHEM_COORDINATE_TYPE>  (1) 
2
5
10

$$$$
