28347
     RDKit          3D

 29 31  0  0  0  0  0  0  0  0999 V2000
  -10.3063   -1.2835   -1.2727 F   0  0  0  0  0  0  0  0  0  0  0  0
    6.4780    0.1520   -1.7357 O   0  0  0  0  0  0  0  0  0  0  0  0
   -4.7864   -0.8243    1.7568 O   0  0  0  0  0  0  0  0  0  0  0  0
    2.3522    1.8623    0.5248 N   0  0  0  0  0  0  0  0  0  0  0  0
    4.6059    0.1154    0.3561 N   0  0  0  0  0  0  0  0  0  0  0  0
    2.9676    1.5681   -0.7753 C   0  0  0  0  0  0  0  0  0  0  0  0
    3.3799    1.8716    1.5730 C   0  0  0  0  0  0  0  0  0  0  0  0
    3.6560    0.2014   -0.7602 C   0  0  0  0  0  0  0  0  0  0  0  0
    4.0831    0.5151    1.6662 C   0  0  0  0  0  0  0  0  0  0  0  0
    1.6514    3.1452    0.4820 C   0  0  0  0  0  0  0  0  0  0  0  0
    0.2916    2.9808   -0.1960 C   0  0  0  0  0  0  0  0  0  0  0  0
   -0.6290    1.9905    0.5243 C   0  0  0  0  0  0  0  0  0  0  0  0
    5.6279   -0.8373    0.2780 C   0  0  0  0  0  0  0  0  0  0  0  0
   -2.0019    1.8446   -0.1357 C   0  0  0  0  0  0  0  0  0  0  0  0
   -2.8822    0.8552    0.6309 C   0  0  0  0  0  0  0  0  0  0  0  0
    6.5502   -0.8049   -0.7679 C   0  0  0  0  0  0  0  0  0  0  0  0
    5.7197   -1.8249    1.2586 C   0  0  0  0  0  0  0  0  0  0  0  0
   -4.2419    0.6784   -0.0476 C   0  0  0  0  0  0  0  0  0  0  0  0
    7.5643   -1.7605   -0.8332 C   0  0  0  0  0  0  0  0  0  0  0  0
    6.7339   -2.7805    1.1932 C   0  0  0  0  0  0  0  0  0  0  0  0
   -5.1477   -0.2732    0.7195 C   0  0  0  0  0  0  0  0  0  0  0  0
    7.6561   -2.7484    0.1474 C   0  0  0  0  0  0  0  0  0  0  0  0
   -6.5177   -0.5408    0.1910 C   0  0  0  0  0  0  0  0  0  0  0  0
    7.4631    0.1068   -2.7656 C   0  0  0  0  0  0  0  0  0  0  0  0
   -6.9448    0.0771   -0.9844 C   0  0  0  0  0  0  0  0  0  0  0  0
   -7.3705   -1.4096    0.8719 C   0  0  0  0  0  0  0  0  0  0  0  0
   -8.2246   -0.1738   -1.4789 C   0  0  0  0  0  0  0  0  0  0  0  0
   -8.6504   -1.6604    0.3774 C   0  0  0  0  0  0  0  0  0  0  0  0
   -9.0775   -1.0425   -0.7979 C   0  0  0  0  0  0  0  0  0  0  0  0
  1 29  1  0
  2 16  1  0
  2 24  1  0
  3 21  2  0
  4  6  1  0
  4  7  1  0
  4 10  1  0
  5  8  1  0
  5  9  1  0
  5 13  1  0
  6  8  1  0
  7  9  1  0
 10 11  1  0
 11 12  1  0
 12 14  1  0
 13 16  2  0
 13 17  1  0
 14 15  1  0
 15 18  1  0
 16 19  1  0
 17 20  2  0
 18 21  1  0
 19 22  2  0
 20 22  1  0
 21 23  1  0
 23 25  2  0
 23 26  1  0
 25 27  1  0
 26 28  2  0
 27 29  2  0
 28 29  1  0
M  END
>  <PUBCHEM_COMPOUND_CID>  (1) 
28347

>  <PUBCHEM_CONFORMER_RMSD>  (1) 
1.4

>  <PUBCHEM_CONFORMER_DIVERSEORDER>  (1) 
2
45
1
40
27
12
46
43
7
26
55
22
51
23
6
37
53
57
58
61
13
16
48
31
17
49
50
3
35
41
14
18
24
19
25
39
8
11
28
54
34
4
56
44
60
30
47
9
20
21
5
10
33
52
42
32
15
59
36
29
38

>  <PUBCHEM_MMFF94_PARTIAL_CHARGES>  (1) 
33
1 -0.19
10 0.27
13 0.1
16 0.08
17 -0.15
18 0.06
19 -0.15
2 -0.36
20 -0.15
21 0.42
22 -0.15
23 0.09
24 0.28
25 -0.15
26 -0.15
27 -0.15
28 -0.15
29 0.19
3 -0.57
4 -0.81
48 0.15
5 -0.84
51 0.15
52 0.15
53 0.15
57 0.15
58 0.15
59 0.15
6 0.27
60 0.15
7 0.27
8 0.37
9 0.37

>  <PUBCHEM_EFFECTIVE_ROTOR_COUNT>  (1) 
11.2

>  <PUBCHEM_PHARMACOPHORE_FEATURES>  (1) 
8
1 2 acceptor
1 3 acceptor
1 4 cation
1 5 cation
5 11 12 14 15 18 hydrophobe
6 13 16 17 19 20 22 rings
6 23 25 26 27 28 29 rings
6 4 5 6 7 8 9 rings

>  <PUBCHEM_HEAVY_ATOM_COUNT>  (1) 
29

>  <PUBCHEM_ATOM_DEF_STEREO_COUNT>  (1) 
0

>  <PUBCHEM_ATOM_UDEF_STEREO_COUNT>  (1) 
0

>  <PUBCHEM_BOND_DEF_STEREO_COUNT>  (1) 
0

>  <PUBCHEM_BOND_UDEF_STEREO_COUNT>  (1) 
0

>  <PUBCHEM_ISOTOPIC_ATOM_COUNT>  (1) 
0

>  <PUBCHEM_COMPONENT_COUNT>  (1) 
1

>  <PUBCHEM_CACTVS_TAUTO_COUNT>  (1) 
2

>  <PUBCHEM_CONFORMER_ID>  (1) 
00006EBB00000002

>  <PUBCHEM_MMFF94_ENERGY>  (1) 
83.7296

>  <PUBCHEM_FEATURE_SELFOVERLAP>  (1) 
40.599

>  <PUBCHEM_SHAPE_FINGERPRINT>  (1) 
10029044 110 14057008256041640550
10066227 49 18338793520728256963
10666366 153 18408880733941836853
10917259 69 18194396694631424769
10981352 41 18060133258544007468
11273773 46 18333449846777583211
11297750 10 18340759390704120225
11386260 185 16950567722076642501
11408170 132 17749387066094296341
11607047 74 18409732903188795796
12124843 1 17458070382135549426
12592606 108 18410854356996890961
13530399 1 12180388117389250551
1361 87 17458921421504773689
13627175 4 18272931665764372551
13692115 27 18272934886478914360
14202775 3 18265330785623163203
14216079 64 18412822486741528561
14359421 15 17968090872250899475
14565420 104 11312063148861604357
14617042 71 8430320160677539967
14919807 6 17749655309241450045
14931854 50 17458346320803911569
15152005 77 18059007281148971591
15183329 4 16660357083271960837
15392192 104 16271927155708123228
15510800 12 18271808986439059687
15519825 34 15913033353382434949
15684393 108 18187365445754549366
16126227 98 8934995980483265961
1754908 1 14549017693669844911
1768 4 8718825414751506879
18393751 57 11600007639542879505
19841028 212 18201153347357704241
2026 5 18413103962404652191
21033648 29 10735872902288676688
21304304 249 18341895199152034599
21307412 95 17822017527691717227
21344244 78 16343708737556596904
21585481 104 14924214963732013959
23522609 53 17977139836627852008
23576562 1 16009606809935708911
25269216 80 14201690797109020705
255183 451 18333169474954002652
3504750 166 18131347519449482265
3711267 37 11891322124810258503
406291 66 18272649043688164179
439807 62 18260551108246333948
445580 126 9007062344306225180
474113 269 18201995539480101837
5470011 282 17458356246900476542
5718773 13 18411135805613077752
59682541 52 14779542349737620496
6712543 237 15482665793013845117
9962374 69 17917423271861019653
9980921 177 9799420980096331972
9980921 221 17096072594899339061

>  <PUBCHEM_SHAPE_MULTIPOLES>  (1) 
567.83
34.66
3.03
1.7
51.12
0.87
0.57
-30.74
11.45
-4.04
-0.83
-2.17
-0.11
-0.62

>  <PUBCHEM_SHAPE_SELFOVERLAP>  (1) 
1181.448

>  <PUBCHEM_SHAPE_VOLUME>  (1) 
323.5

>  <PUBCHEM_COORDINATE_TYPE>  (1) 
2
5
10

$$$$
