28340
     RDKit          3D

 20 21  0  0  1  0  0  0  0  0999 V2000
    0.2109    1.2703    0.7167 O   0  0  0  0  0  0  0  0  0  0  0  0
    1.8015   -2.7654   -0.9597 O   0  0  0  0  0  0  0  0  0  0  0  0
   -2.6561   -2.2958   -0.0227 O   0  0  0  0  0  0  0  0  0  0  0  0
   -5.0768    1.0216    0.4819 O   0  0  0  0  0  0  0  0  0  0  0  0
    1.1073   -0.7674    0.0287 N   0  0  0  0  0  0  0  0  0  0  0  0
   -0.4087   -2.5236   -0.4316 N   0  0  0  0  0  0  0  0  0  0  0  0
    2.4197   -0.1933   -0.1458 C   0  0  0  0  0  0  0  0  0  0  0  0
    2.3743    0.9705   -1.1395 C   0  0  0  0  0  0  0  0  0  0  0  0
    2.9961    0.2472    1.2019 C   0  0  0  0  0  0  0  0  0  0  0  0
    3.7428    1.6277   -1.2982 C   0  0  0  0  0  0  0  0  0  0  0  0
    4.3632    0.9069    1.0405 C   0  0  0  0  0  0  0  0  0  0  0  0
    4.3165    2.0642    0.0467 C   0  0  0  0  0  0  0  0  0  0  0  0
   -1.1506   -0.6952    0.9800 C   0  0  0  0  0  0  0  0  0  0  0  0
    0.0973    0.0552    0.5516 C   0  0  0  0  0  0  0  0  0  0  0  0
   -2.3434    0.2491    1.1228 C   0  0  0  0  0  0  0  0  0  0  0  0
    0.9078   -2.0696   -0.4701 C   0  0  0  0  0  0  0  0  0  0  0  0
   -1.5062   -1.8846    0.1195 C   0  0  0  0  0  0  0  0  0  0  0  0
   -2.7699    0.8091   -0.2342 C   0  0  0  0  0  0  0  0  0  0  0  0
   -3.9910    1.7265   -0.1139 C   0  0  0  0  0  0  0  0  0  0  0  0
   -4.4348    2.2470   -1.4744 C   0  0  0  0  0  0  0  0  0  0  0  0
  1 14  2  0
  2 16  2  0
  3 17  2  0
  4 19  1  0
  5  7  1  0
  5 14  1  0
  5 16  1  0
  6 16  1  0
  6 17  1  0
  7  8  1  0
  7  9  1  0
  8 10  1  0
  9 11  1  0
 10 12  1  0
 11 12  1  0
 13 14  1  0
 13 15  1  0
 13 17  1  0
 15 18  1  0
 18 19  1  0
 19 20  1  0
M  END
>  <PUBCHEM_COMPOUND_CID>  (1) 
28340

>  <PUBCHEM_CONFORMER_RMSD>  (1) 
0.8

>  <PUBCHEM_CONFORMER_DIVERSEORDER>  (1) 
1
7
37
38
32
30
19
11
34
12
31
3
24
23
21
39
5
22
25
33
6
9
20
18
40
29
13
10
26
8
28
15
4
16
36
35
2
17
14
27

>  <PUBCHEM_MMFF94_PARTIAL_CHARGES>  (1) 
14
1 -0.57
13 0.12
14 0.57
16 0.69
17 0.57
19 0.28
2 -0.57
3 -0.57
37 0.37
4 -0.68
42 0.4
5 -0.42
6 -0.49
7 0.3

>  <PUBCHEM_EFFECTIVE_ROTOR_COUNT>  (1) 
5.8

>  <PUBCHEM_PHARMACOPHORE_FEATURES>  (1) 
9
1 1 acceptor
1 13 anion
1 2 acceptor
1 3 acceptor
1 4 acceptor
1 4 donor
1 6 donor
6 5 6 13 14 16 17 rings
6 7 8 9 10 11 12 rings

>  <PUBCHEM_HEAVY_ATOM_COUNT>  (1) 
20

>  <PUBCHEM_ATOM_DEF_STEREO_COUNT>  (1) 
0

>  <PUBCHEM_ATOM_UDEF_STEREO_COUNT>  (1) 
2

>  <PUBCHEM_BOND_DEF_STEREO_COUNT>  (1) 
0

>  <PUBCHEM_BOND_UDEF_STEREO_COUNT>  (1) 
0

>  <PUBCHEM_ISOTOPIC_ATOM_COUNT>  (1) 
0

>  <PUBCHEM_COMPONENT_COUNT>  (1) 
1

>  <PUBCHEM_CACTVS_TAUTO_COUNT>  (1) 
3

>  <PUBCHEM_CONFORMER_ID>  (1) 
00006EB400000001

>  <PUBCHEM_MMFF94_ENERGY>  (1) 
36.5221

>  <PUBCHEM_FEATURE_SELFOVERLAP>  (1) 
45.672

>  <PUBCHEM_SHAPE_FINGERPRINT>  (1) 
10498660 4 18271534186042409104
11140007 195 14201677477344393624
11543360 7 14692851401920102296
11725454 13 18040985216386200433
12403259 415 18130232682840051408
12633257 1 15502651672028510152
12730499 353 18340778057152831441
13140716 1 18269849639449602419
14251764 38 18043807581136104333
14614273 12 18269566090098295091
14957384 54 18335974380935160656
16752209 62 18198616834014670042
16945 1 18201732742376976634
173720 79 18187350052491507259
1741750 31 18411984671618463041
17834072 32 18409733996970580384
18186145 218 18271822171893770885
20645477 56 18410017662607127721
20715895 44 17899683579977287037
22149856 69 18266765532073909553
22182313 1 18270419246712900575
23227448 37 18335703888047180261
23419403 2 16904356086127642186
23557571 272 18198916974787152980
23559900 14 18131361821521409276
2748010 2 18270983283161250359
4371632 12 14185324729026351408
633830 44 17313674857934468436
77492 1 17970905803154866618
84936 182 17986671467698054265
9862522 239 18260258672703358685

>  <PUBCHEM_SHAPE_MULTIPOLES>  (1) 
378.15
8.87
2.88
1.23
2.83
1.32
-0.06
-7.91
-0.3
0.87
-1.11
-0.33
-0.3
0.63

>  <PUBCHEM_SHAPE_SELFOVERLAP>  (1) 
776.29

>  <PUBCHEM_SHAPE_VOLUME>  (1) 
213.3

>  <PUBCHEM_COORDINATE_TYPE>  (1) 
2
5
10

$$$$
