28356
     RDKit          3D

 13 13  0  0  1  0  0  0  0  0999 V2000
   -3.3555    1.0049   -0.7528 O   0  0  0  0  0  0  0  0  0  0  0  0
    1.2404    0.0707   -0.3780 N   0  0  0  0  0  0  0  0  0  0  0  0
    2.9102   -1.4722    0.2027 N   0  0  0  0  0  0  0  0  0  0  0  0
   -2.3544   -0.8054    0.3167 N   0  0  0  0  0  0  0  0  0  0  0  0
   -0.0784    0.1115    0.3517 C   0  0  0  0  0  0  0  0  0  0  0  0
    2.2816    0.7114    0.3912 C   0  0  0  0  0  0  0  0  0  0  0  0
    1.1559    0.6496   -1.7677 C   0  0  0  0  0  0  0  0  0  0  0  0
    1.7827   -1.3254   -0.4167 C   0  0  0  0  0  0  0  0  0  0  0  0
   -1.0886   -0.7662   -0.3637 C   0  0  0  0  0  0  0  0  0  0  0  0
    3.1951   -0.2227    0.6859 C   0  0  0  0  0  0  0  0  0  0  0  0
    2.3065    2.1488    0.7709 C   0  0  0  0  0  0  0  0  0  0  0  0
   -3.3867    0.0880    0.0637 C   0  0  0  0  0  0  0  0  0  0  0  0
   -4.6088   -0.1929    0.8961 C   0  0  0  0  0  0  0  0  0  0  0  0
  1 12  2  0
  2  5  1  0
  2  6  1  0
  2  7  1  0
  2  8  1  0
  3  8  2  0
  3 10  1  0
  4  9  1  0
  4 12  1  0
  5  9  1  0
  6 10  2  0
  6 11  1  0
 12 13  1  0
M  CHG  1   2   1
M  END
>  <PUBCHEM_COMPOUND_CID>  (1) 
28356

>  <PUBCHEM_CONFORMER_RMSD>  (1) 
0.6

>  <PUBCHEM_CONFORMER_DIVERSEORDER>  (1) 
1
24
16
13
7
20
30
22
27
14
17
12
25
11
8
29
5
23
21
2
19
15
4
28
3
26
18
9
6
10

>  <PUBCHEM_MMFF94_PARTIAL_CHARGES>  (1) 
16
1 -0.57
10 0.02
11 0.14
12 0.57
13 0.06
19 0.06
2 -0.76
22 0.15
26 0.37
3 -0.62
4 -0.73
5 0.5
6 0.22
7 0.5
8 0.79
9 0.3

>  <PUBCHEM_EFFECTIVE_ROTOR_COUNT>  (1) 
4.2

>  <PUBCHEM_PHARMACOPHORE_FEATURES>  (1) 
4
1 1 acceptor
1 4 donor
3 2 3 8 cation
5 2 3 6 8 10 rings

>  <PUBCHEM_HEAVY_ATOM_COUNT>  (1) 
13

>  <PUBCHEM_ATOM_DEF_STEREO_COUNT>  (1) 
0

>  <PUBCHEM_ATOM_UDEF_STEREO_COUNT>  (1) 
1

>  <PUBCHEM_BOND_DEF_STEREO_COUNT>  (1) 
0

>  <PUBCHEM_BOND_UDEF_STEREO_COUNT>  (1) 
0

>  <PUBCHEM_ISOTOPIC_ATOM_COUNT>  (1) 
0

>  <PUBCHEM_COMPONENT_COUNT>  (1) 
1

>  <PUBCHEM_CACTVS_TAUTO_COUNT>  (1) 
2

>  <PUBCHEM_CONFORMER_ID>  (1) 
00006EC400000001

>  <PUBCHEM_MMFF94_ENERGY>  (1) 
27.4641

>  <PUBCHEM_FEATURE_SELFOVERLAP>  (1) 
20.297

>  <PUBCHEM_SHAPE_FINGERPRINT>  (1) 
10922523 26 18187643574888503839
11062470 55 16343982498908614819
12162725 195 17918275342180883553
12251169 10 18343297080730230938
12932764 1 18340774826963021311
13675066 3 18187365428711764571
13922767 16 18411974737237638592
14344429 50 18342745117466546756
15501101 241 18334006199143935212
15775835 57 18272373126077355023
18186145 218 18060143128473656375
19422 9 11963380826395275439
20281475 54 11602539840902031745
20339313 130 17603876588982076532
20645477 70 18342171125179081567
20871998 22 17986113998771917606
21730867 7 18411701006181979658
22485316 2 12251902620552355795
22892500 29 18270665524416601484
23402539 116 17346307168776984821
3248919 1 17603866775293203599
42 15 18260832583602995859
57812782 119 18335135371784189185

>  <PUBCHEM_SHAPE_MULTIPOLES>  (1) 
246.72
7.18
1.49
1.1
8.44
0.39
0.42
0.32
-1.92
-1.37
-0.16
-0.14
0.21
0.34

>  <PUBCHEM_SHAPE_SELFOVERLAP>  (1) 
491.912

>  <PUBCHEM_SHAPE_VOLUME>  (1) 
148.7

>  <PUBCHEM_COORDINATE_TYPE>  (1) 
2
5
10

$$$$
