28351
     RDKit          3D

 29 32  0  0  1  0  0  0  0  0999 V2000
    2.9010    0.3068   -1.0185 O   0  0  0  0  0  0  0  0  0  0  0  0
    3.3943   -1.5589    2.1077 O   0  0  0  0  0  0  0  0  0  0  0  0
    5.7614    0.0910    1.9662 O   0  0  0  0  0  0  0  0  0  0  0  0
    5.6925    0.6751   -0.7600 O   0  0  0  0  0  0  0  0  0  0  0  0
    0.7479   -1.4124   -1.2109 O   0  0  0  0  0  0  0  0  0  0  0  0
    3.7324    2.3727   -1.7600 O   0  0  0  0  0  0  0  0  0  0  0  0
   -0.3265    0.8766   -0.7987 O   0  0  0  0  0  0  0  0  0  0  0  0
   -4.9224   -1.3608    0.7608 O   0  0  0  0  0  0  0  0  0  0  0  0
   -1.2546    3.2379   -0.4411 O   0  0  0  0  0  0  0  0  0  0  0  0
    3.7967   -0.8518    0.9375 C   0  0  0  0  0  0  0  0  0  0  0  0
    2.5554   -0.5199    0.0978 C   0  0  0  0  0  0  0  0  0  0  0  0
    4.5254    0.4315    1.3447 C   0  0  0  0  0  0  0  0  0  0  0  0
    4.7773    1.3233    0.1290 C   0  0  0  0  0  0  0  0  0  0  0  0
    3.4670    1.5581   -0.6220 C   0  0  0  0  0  0  0  0  0  0  0  0
    1.8969   -1.7814   -0.4517 C   0  0  0  0  0  0  0  0  0  0  0  0
   -0.4516   -1.9153   -0.8018 C   0  0  0  0  0  0  0  0  0  0  0  0
   -1.5262   -1.1057   -0.4145 C   0  0  0  0  0  0  0  0  0  0  0  0
   -2.7269   -1.6903   -0.0064 C   0  0  0  0  0  0  0  0  0  0  0  0
   -1.3796    0.3640   -0.4421 C   0  0  0  0  0  0  0  0  0  0  0  0
   -2.5219    1.2063   -0.0323 C   0  0  0  0  0  0  0  0  0  0  0  0
   -0.5815   -3.3042   -0.7795 C   0  0  0  0  0  0  0  0  0  0  0  0
   -3.7225    0.6217    0.3758 C   0  0  0  0  0  0  0  0  0  0  0  0
   -3.8688   -0.8480    0.4042 C   0  0  0  0  0  0  0  0  0  0  0  0
   -2.8531   -3.0845    0.0145 C   0  0  0  0  0  0  0  0  0  0  0  0
   -1.7798   -3.8875   -0.3724 C   0  0  0  0  0  0  0  0  0  0  0  0
   -2.3963    2.6005   -0.0549 C   0  0  0  0  0  0  0  0  0  0  0  0
   -4.7978    1.4313    0.7612 C   0  0  0  0  0  0  0  0  0  0  0  0
   -3.4703    3.4035    0.3302 C   0  0  0  0  0  0  0  0  0  0  0  0
   -4.6684    2.8202    0.7373 C   0  0  0  0  0  0  0  0  0  0  0  0
  1 11  1  0
  1 14  1  0
  2 10  1  0
  3 12  1  0
  4 13  1  0
  5 15  1  0
  5 16  1  0
  6 14  1  0
  7 19  2  0
  8 23  2  0
  9 26  1  0
 10 11  1  0
 10 12  1  0
 11 15  1  0
 12 13  1  0
 13 14  1  0
 16 17  1  0
 16 21  2  0
 17 18  2  0
 17 19  1  0
 18 23  1  0
 18 24  1  0
 19 20  1  0
 20 22  2  0
 20 26  1  0
 21 25  1  0
 22 23  1  0
 22 27  1  0
 24 25  2  0
 26 28  2  0
 27 29  2  0
 28 29  1  0
M  END
>  <PUBCHEM_COMPOUND_CID>  (1) 
28351

>  <PUBCHEM_CONFORMER_RMSD>  (1) 
0.8

>  <PUBCHEM_CONFORMER_DIVERSEORDER>  (1) 
2
226
193
67
6
134
148
202
258
221
217
178
48
212
220
233
244
210
268
37
235
241
211
70
237
40
77
204
171
266
214
213
166
81
256
252
254
222
133
175
161
247
65
3
16
14
71
162
196
206
187
54
110
128
116
46
163
87
224
219
4
127
76
101
135
154
189
102
232
85
41
230
30
143
82
11
15
78
156
192
23
215
180
267
147
236
121
124
195
144
250
103
264
201
114
198
246
118
146
173
56
188
80
265
186
12
158
79
216
9
74
142
150
96
105
42
257
113
157
190
32
145
248
203
181
122
24
57
52
253
139
197
234
91
10
160
261
7
95
242
227
83
231
179
62
63
69
174
99
131
194
240
129
262
169
94
152
130
112
60
19
5
172
260
223
255
109
39
36
205
43
249
90
126
245
141
58
86
153
170
98
239
164
259
208
13
1
89
263
183
168
68
167
243
111
120
100
138
177
107
93
151
72
73
200
104
117
165
84
191
207
136
238
251
125
106
137
22
47
92
229
53
115
8
176
132
209
61
33
182
97
59
123
45
218
225
184
199
25
75
50
49
44
119
66
55
21
108
31
28
26
38
159
64
18
27
140
228
149
29
17
20
88
34
185
35
155
51

>  <PUBCHEM_MMFF94_PARTIAL_CHARGES>  (1) 
40
1 -0.56
10 0.28
11 0.28
12 0.28
13 0.28
14 0.56
15 0.28
16 0.08
17 0.09
18 0.09
19 0.4
2 -0.68
20 0.09
21 -0.15
22 0.09
23 0.4
24 -0.15
25 -0.15
26 0.08
27 -0.15
28 -0.15
29 -0.15
3 -0.68
37 0.4
38 0.4
39 0.4
4 -0.68
40 0.4
41 0.15
42 0.15
43 0.15
44 0.15
45 0.15
46 0.15
47 0.45
5 -0.36
6 -0.68
7 -0.57
8 -0.57
9 -0.53

>  <PUBCHEM_EFFECTIVE_ROTOR_COUNT>  (1) 
4.2

>  <PUBCHEM_PHARMACOPHORE_FEATURES>  (1) 
17
1 1 acceptor
1 2 acceptor
1 2 donor
1 3 acceptor
1 3 donor
1 4 acceptor
1 4 donor
1 5 acceptor
1 6 acceptor
1 6 donor
1 7 acceptor
1 8 acceptor
1 9 donor
6 1 10 11 12 13 14 rings
6 16 17 18 21 24 25 rings
6 17 18 19 20 22 23 rings
6 20 22 26 27 28 29 rings

>  <PUBCHEM_HEAVY_ATOM_COUNT>  (1) 
29

>  <PUBCHEM_ATOM_DEF_STEREO_COUNT>  (1) 
0

>  <PUBCHEM_ATOM_UDEF_STEREO_COUNT>  (1) 
5

>  <PUBCHEM_BOND_DEF_STEREO_COUNT>  (1) 
0

>  <PUBCHEM_BOND_UDEF_STEREO_COUNT>  (1) 
0

>  <PUBCHEM_ISOTOPIC_ATOM_COUNT>  (1) 
0

>  <PUBCHEM_COMPONENT_COUNT>  (1) 
1

>  <PUBCHEM_CACTVS_TAUTO_COUNT>  (1) 
5

>  <PUBCHEM_CONFORMER_ID>  (1) 
00006EBF00000002

>  <PUBCHEM_MMFF94_ENERGY>  (1) 
97.6446

>  <PUBCHEM_FEATURE_SELFOVERLAP>  (1) 
86.405

>  <PUBCHEM_SHAPE_FINGERPRINT>  (1) 
10319926 262 18341327813004162250
10369192 42 16265720605964475040
10411042 1 17764593509759867559
10670039 82 18338529603008166796
1100329 8 18050294966438859303
11513181 2 18130510734359030639
12107183 9 18192703450365002802
12173636 292 18413386514731767415
12390115 104 18129677321845792217
12422481 6 18116151073634104984
12596602 18 17530962526973393051
12633257 1 18189895322888261688
12788726 201 18192716862988633483
12925494 130 17691973661621902593
12978246 48 18409168805038955880
13140716 1 17978794833022248927
13583140 156 17095792218520989053
13726171 33 18128272257903448032
138480 1 17186447837390346975
13965767 371 18043251236556794172
14117953 113 18264490581252862253
14341114 328 18187080693781263682
14790565 3 18340219518105170133
14950920 106 17603584157638811354
15274700 34 17822305531457496149
15403338 16 17024019364020409361
16110190 28 18118950418229708442
19246450 95 17612564762809425002
20511986 3 18040984176698198432
20715895 44 18048029667295575549
20775438 99 10742131426112427489
21033648 29 17703208682071576882
21302155 148 18412545414022257704
21756936 100 18273205409636036430
21859007 373 17026556955527699373
22149856 69 18053691113619249049
23559900 14 18054239738622121103
24771293 8 18202012040992574739
3117164 225 18191578653900758186
350125 39 18267875977681202734
392239 28 17968388960419183923
474144 1 17823718535871848845
508706 21 18343867731533504206
5104073 3 18338805494464128091
6700243 42 17482023385018109670
6823239 73 18199203818937116996
7064713 232 18411980243523232380
7097593 13 18115855331340793018
7808743 9 18413109489488946048
9981440 41 18338518543599475563

>  <PUBCHEM_SHAPE_MULTIPOLES>  (1) 
543.98
11.58
4.36
1.26
10.33
0.92
-0.31
-6.33
-4.07
-4.91
0.67
1.78
-0.05
-1.18

>  <PUBCHEM_SHAPE_SELFOVERLAP>  (1) 
1206.077

>  <PUBCHEM_SHAPE_VOLUME>  (1) 
286

>  <PUBCHEM_COORDINATE_TYPE>  (1) 
2
5
10

$$$$
