28358
     RDKit          3D

 16 16  0  0  1  0  0  0  0  0999 V2000
    0.5629   -0.2945    0.0707 O   0  0  0  0  0  0  0  0  0  0  0  0
    2.1747    0.3955   -1.4275 O   0  0  0  0  0  0  0  0  0  0  0  0
    4.1424   -0.2471    0.2822 O   0  0  0  0  0  0  0  0  0  0  0  0
   -1.8423   -0.2851   -0.2795 C   0  0  0  0  0  0  0  0  0  0  0  0
   -0.4583    0.0526   -0.8597 C   0  0  0  0  0  0  0  0  0  0  0  0
   -2.2017    0.6426    0.8899 C   0  0  0  0  0  0  0  0  0  0  0  0
   -0.7677    2.5058   -0.1144 C   0  0  0  0  0  0  0  0  0  0  0  0
   -0.3493    1.5354   -1.2335 C   0  0  0  0  0  0  0  0  0  0  0  0
   -2.1268    2.1126    0.4793 C   0  0  0  0  0  0  0  0  0  0  0  0
   -1.9322   -1.7477    0.1603 C   0  0  0  0  0  0  0  0  0  0  0  0
    0.3013    2.6507    0.9718 C   0  0  0  0  0  0  0  0  0  0  0  0
   -3.3374   -2.0655    0.6591 C   0  0  0  0  0  0  0  0  0  0  0  0
   -1.5422   -2.6714   -0.9882 C   0  0  0  0  0  0  0  0  0  0  0  0
    1.8480   -0.0699   -0.3434 C   0  0  0  0  0  0  0  0  0  0  0  0
    2.8220   -0.5124    0.7298 C   0  0  0  0  0  0  0  0  0  0  0  0
    2.7066   -2.0018    1.0030 C   0  0  0  0  0  0  0  0  0  0  0  0
  1  5  1  0
  1 14  1  0
  2 14  2  0
  3 15  1  0
  4  5  1  0
  4  6  1  0
  4 10  1  0
  5  8  1  0
  6  9  1  0
  7  8  1  0
  7  9  1  0
  7 11  1  0
 10 12  1  0
 10 13  1  0
 14 15  1  0
 15 16  1  0
M  END
>  <PUBCHEM_COMPOUND_CID>  (1) 
28358

>  <PUBCHEM_CONFORMER_RMSD>  (1) 
0.6

>  <PUBCHEM_CONFORMER_DIVERSEORDER>  (1) 
20
336
15
405
289
159
362
357
230
157
140
162
198
308
403
343
118
356
379
187
394
415
293
334
326
242
205
71
283
249
44
393
46
57
221
210
214
222
166
299
4
269
75
218
389
360
12
310
411
388
224
227
93
173
92
358
265
373
255
374
90
172
376
84
346
396
206
207
211
135
65
337
229
78
286
139
181
318
125
124
13
352
245
351
303
128
155
167
383
409
69
68
58
81
268
100
219
142
7
270
34
215
94
176
328
164
80
110
169
340
397
231
329
301
296
339
88
72
73
201
233
119
274
311
390
33
295
277
278
371
160
369
28
401
234
133
287
367
123
353
365
364
104
366
106
161
149
348
232
163
240
112
136
354
333
41
153
370
154
345
96
228
327
200
202
314
247
377
40
414
402
331
150
204
184
156
253
263
321
254
146
191
330
363
243
194
120
381
391
313
266
258
114
175
189
226
25
359
252
380
36
192
213
67
323
282
165
395
95
97
341
332
177
83
312
355
107
404
241
82
141
399
344
235
284
372
225
416
77
182
261
53
91
208
400
43
307
294
256
382
349
398
32
186
129
320
259
300
171
412
220
264
14
131
134
27
385
108
180
138
183
335
190
319
350
158
130
152
408
49
29
216
248
368
244
413
85
8
212
145
288
392
115
387
38
342
304
280
193
285
347
338
113
302
260
109
262
410
147
30
324
325
22
281
292
56
236
291
315
59
21
203
250
185
322
386
143
378
275
199
37
70
26
126
66
23
246
170
60
117
79
55
272
238
103
42
102
317
361
137
105
195
24
305
89
267
6
179
121
5
174
64
54
197
168
151
144
76
290
10
178
86
297
122
209
87
217
35
101
188
3
316
306
11
406
62
237
18
276
257
45
31
407
47
17
61
127
48
51
111
239
148
74
273
99
271
132
251
2
279
50
116
63
19
298
384
98
1
39
52
309
16
375
196
223
9

>  <PUBCHEM_MMFF94_PARTIAL_CHARGES>  (1) 
7
1 -0.43
14 0.66
15 0.34
2 -0.57
3 -0.68
40 0.4
5 0.28

>  <PUBCHEM_EFFECTIVE_ROTOR_COUNT>  (1) 
5.2

>  <PUBCHEM_PHARMACOPHORE_FEATURES>  (1) 
5
1 2 acceptor
1 3 acceptor
1 3 donor
3 10 12 13 hydrophobe
6 4 5 6 7 8 9 rings

>  <PUBCHEM_HEAVY_ATOM_COUNT>  (1) 
16

>  <PUBCHEM_ATOM_DEF_STEREO_COUNT>  (1) 
0

>  <PUBCHEM_ATOM_UDEF_STEREO_COUNT>  (1) 
4

>  <PUBCHEM_BOND_DEF_STEREO_COUNT>  (1) 
0

>  <PUBCHEM_BOND_UDEF_STEREO_COUNT>  (1) 
0

>  <PUBCHEM_ISOTOPIC_ATOM_COUNT>  (1) 
0

>  <PUBCHEM_COMPONENT_COUNT>  (1) 
1

>  <PUBCHEM_CACTVS_TAUTO_COUNT>  (1) 
1

>  <PUBCHEM_CONFORMER_ID>  (1) 
00006EC600000014

>  <PUBCHEM_MMFF94_ENERGY>  (1) 
29.1076

>  <PUBCHEM_FEATURE_SELFOVERLAP>  (1) 
25.379

>  <PUBCHEM_SHAPE_FINGERPRINT>  (1) 
11321824 6 18413102857911917007
11578080 2 18042387200991255077
12382932 28 18341051822062066770
12553582 1 18267870673185803335
13024252 1 13985238617896596541
13538477 17 18335148544290845036
13764800 53 17917148282480039600
14787075 74 17902785594547288040
14817 1 15295972085771756077
15001771 113 18260547848366162764
15076042 46 18194401082926315114
15375462 189 18117854402087599667
16945 1 18337403625428051773
20510252 161 18128254471857792816
20871998 184 18342176644048312143
21296965 67 18337106881963793075
21524375 3 17265236684257587968
21650355 55 18411973646432301920
21731228 192 17836083368806915249
22112679 90 18338252560010248717
22445834 79 18042126470779728338
23388829 49 18264489674934965324
23402539 116 18201422654802854735
23419403 2 17976504481270885357
23500284 5 18260828206762575291
23557571 272 18201167615529289724
23598291 2 17968678037561477910
23598294 1 18412544280134911394
257057 1 18196076962122696655
2748010 2 18197214961226809725
305870 269 17116629943990056184
427121 178 16983253819543322497
5706482 22 18051682249043071025
6338986 31 18268135647071976271
6992083 37 17898007919839373228
7364860 26 17624427771539214927
81228 2 18413110528691612141

>  <PUBCHEM_SHAPE_MULTIPOLES>  (1) 
311.66
4.91
3.21
1.19
3.66
0.43
-0.17
-2.88
1.32
-1.87
0.37
0.13
0.04
-0.52

>  <PUBCHEM_SHAPE_SELFOVERLAP>  (1) 
614.988

>  <PUBCHEM_SHAPE_VOLUME>  (1) 
185.2

>  <PUBCHEM_COORDINATE_TYPE>  (1) 
2
5
10

$$$$
