28353
     RDKit          3D

 20 21  0  0  0  0  0  0  0  0999 V2000
   -4.1045   -2.9711    0.7901 I   0  0  0  0  0  0  0  0  0  0  0  0
   -4.1263    2.9972   -0.4859 I   0  0  0  0  0  0  0  0  0  0  0  0
   -5.1760   -0.0255   -0.0081 O   0  0  0  0  0  0  0  0  0  0  0  0
    0.5676    0.7972   -2.1909 O   0  0  0  0  0  0  0  0  0  0  0  0
    0.4832   -1.4579   -1.9358 O   0  0  0  0  0  0  0  0  0  0  0  0
   -1.0847    0.1222    0.6099 C   0  0  0  0  0  0  0  0  0  0  0  0
    1.3040   -0.0450   -0.1324 C   0  0  0  0  0  0  0  0  0  0  0  0
    2.7345    0.0157    0.1233 C   0  0  0  0  0  0  0  0  0  0  0  0
    0.3679    0.1744    0.8285 C   0  0  0  0  0  0  0  0  0  0  0  0
   -1.7630    1.2788    0.2534 C   0  0  0  0  0  0  0  0  0  0  0  0
   -1.7548   -1.0831    0.7620 C   0  0  0  0  0  0  0  0  0  0  0  0
    3.2306    0.8635    1.1136 C   0  0  0  0  0  0  0  0  0  0  0  0
    3.6104   -0.7738   -0.6220 C   0  0  0  0  0  0  0  0  0  0  0  0
   -3.1330   -1.1327    0.5533 C   0  0  0  0  0  0  0  0  0  0  0  0
   -3.1412    1.2292    0.0448 C   0  0  0  0  0  0  0  0  0  0  0  0
   -3.8262    0.0234    0.1949 C   0  0  0  0  0  0  0  0  0  0  0  0
    4.6026    0.9216    1.3587 C   0  0  0  0  0  0  0  0  0  0  0  0
    4.9822   -0.7157   -0.3767 C   0  0  0  0  0  0  0  0  0  0  0  0
    0.7484   -0.3504   -1.4943 C   0  0  0  0  0  0  0  0  0  0  0  0
    5.4784    0.1319    0.6136 C   0  0  0  0  0  0  0  0  0  0  0  0
  1 14  1  0
  2 15  1  0
  3 16  1  0
  4 19  1  0
  5 19  2  0
  6  9  1  0
  6 10  2  0
  6 11  1  0
  7  8  1  0
  7  9  2  0
  7 19  1  0
  8 12  2  0
  8 13  1  0
 10 15  1  0
 11 14  2  0
 12 17  1  0
 13 18  2  0
 14 16  1  0
 15 16  2  0
 17 20  2  0
 18 20  1  0
M  END
>  <PUBCHEM_COMPOUND_CID>  (1) 
28353

>  <PUBCHEM_CONFORMER_RMSD>  (1) 
0.6

>  <PUBCHEM_CONFORMER_DIVERSEORDER>  (1) 
1
2
3

>  <PUBCHEM_MMFF94_PARTIAL_CHARGES>  (1) 
30
1 -0.08
10 -0.15
11 -0.15
12 -0.15
13 -0.15
14 0.08
15 0.08
16 0.08
17 -0.15
18 -0.15
19 0.71
2 -0.08
20 -0.15
21 0.15
22 0.15
23 0.15
24 0.15
25 0.15
26 0.15
27 0.15
28 0.15
29 0.45
3 -0.53
30 0.5
4 -0.65
5 -0.57
6 0.03
7 -0.01
8 0.03
9 -0.18

>  <PUBCHEM_EFFECTIVE_ROTOR_COUNT>  (1) 
3

>  <PUBCHEM_PHARMACOPHORE_FEATURES>  (1) 
8
1 1 hydrophobe
1 2 hydrophobe
1 3 donor
1 4 acceptor
1 5 acceptor
3 4 5 19 anion
6 6 10 11 14 15 16 rings
6 8 12 13 17 18 20 rings

>  <PUBCHEM_HEAVY_ATOM_COUNT>  (1) 
20

>  <PUBCHEM_ATOM_DEF_STEREO_COUNT>  (1) 
0

>  <PUBCHEM_ATOM_UDEF_STEREO_COUNT>  (1) 
0

>  <PUBCHEM_BOND_DEF_STEREO_COUNT>  (1) 
0

>  <PUBCHEM_BOND_UDEF_STEREO_COUNT>  (1) 
1

>  <PUBCHEM_ISOTOPIC_ATOM_COUNT>  (1) 
0

>  <PUBCHEM_COMPONENT_COUNT>  (1) 
1

>  <PUBCHEM_CACTVS_TAUTO_COUNT>  (1) 
2

>  <PUBCHEM_CONFORMER_ID>  (1) 
00006EC100000001

>  <PUBCHEM_MMFF94_ENERGY>  (1) 
67.1488

>  <PUBCHEM_FEATURE_SELFOVERLAP>  (1) 
40.652

>  <PUBCHEM_SHAPE_FINGERPRINT>  (1) 
10 15 18058435656442345392
11045977 3 18344145895195937408
11796584 16 18337111138719917642
12107183 9 17682666329698050264
12236239 1 17022621979008856793
12403259 118 18339912805816083016
12403259 415 18202284684440312648
12500047 106 18336264539918551003
12507560 40 18343300375318241672
12553582 1 15430037647818154008
12633257 1 17967812713157583068
12892183 10 18409443721974950650
13009979 54 17677063459282831399
13583140 156 18202279216952082978
13675066 3 18273214222740213458
13760787 5 16200429156958538184
13911987 19 17131832105188274488
14178342 30 18114187419203328443
14294032 229 17823127931800401589
14573314 32 18409449146407479316
15042514 8 18261962968015202843
15099037 37 18341334487114074451
15375358 24 18059294266926879001
17349148 13 17386011710113213675
17844677 252 18335988639978579176
17980427 23 18334017194155342165
1813 80 15502661438657469366
18222031 100 17386001819172704802
19489759 90 18335417958935948625
200 152 16271923783810324329
204376 136 16989125374538285446
20645477 56 18337113350554040017
20645477 70 17346320349994699846
21033648 29 17988909072876980392
21065201 7 18408039598270598138
21682296 61 16700349512313874318
23402539 116 18335134319670325487
23557571 272 18340775857908399821
23559900 14 18340208467106299062
34797466 226 18270135594651748100
351380 180 18273211993383200632
4214541 1 18409448068070293752
5104073 3 18273216378777094618
5283173 99 18269270179863369745
573450 72 18040425586252270376
67856867 119 17897170336581706172
9709674 26 18271532991951842927
9862522 239 16879337910439942533

>  <PUBCHEM_SHAPE_MULTIPOLES>  (1) 
417.85
11.64
2.55
1.4
7.49
0.03
0.61
-0.02
-2.3
-5.91
-0.09
1.04
0.01
1.25

>  <PUBCHEM_SHAPE_SELFOVERLAP>  (1) 
858.312

>  <PUBCHEM_SHAPE_VOLUME>  (1) 
246.5

>  <PUBCHEM_COORDINATE_TYPE>  (1) 
2
5
10

$$$$
