28365
     RDKit          3D

 25 29  0  0  0  0  0  0  0  0999 V2000
    1.6111   -0.0001    1.1492 C   0  0  0  0  0  0  0  0  0  0  0  0
    2.3488    1.1817    0.5253 C   0  0  0  0  0  0  0  0  0  0  0  0
    2.3488   -1.1817    0.5249 C   0  0  0  0  0  0  0  0  0  0  0  0
    3.3673    0.7239   -0.3418 C   0  0  0  0  0  0  0  0  0  0  0  0
    3.3674   -0.7237   -0.3419 C   0  0  0  0  0  0  0  0  0  0  0  0
    0.1554    0.0000    0.8265 C   0  0  0  0  0  0  0  0  0  0  0  0
    2.1096    2.5346    0.7057 C   0  0  0  0  0  0  0  0  0  0  0  0
    2.1096   -2.5348    0.7050 C   0  0  0  0  0  0  0  0  0  0  0  0
    4.1658    1.6254   -1.0266 C   0  0  0  0  0  0  0  0  0  0  0  0
    4.1665   -1.6249   -1.0263 C   0  0  0  0  0  0  0  0  0  0  0  0
   -0.7877   -0.0001    1.8545 C   0  0  0  0  0  0  0  0  0  0  0  0
   -0.2639    0.0001   -0.5042 C   0  0  0  0  0  0  0  0  0  0  0  0
    2.9155    3.4416    0.0158 C   0  0  0  0  0  0  0  0  0  0  0  0
    2.9158   -3.4415    0.0151 C   0  0  0  0  0  0  0  0  0  0  0  0
    3.9342    2.9916   -0.8408 C   0  0  0  0  0  0  0  0  0  0  0  0
    3.9350   -2.9912   -0.8408 C   0  0  0  0  0  0  0  0  0  0  0  0
   -2.5684   -0.0005    0.2217 C   0  0  0  0  0  0  0  0  0  0  0  0
   -2.1494   -0.0005    1.5521 C   0  0  0  0  0  0  0  0  0  0  0  0
   -1.6257   -0.0002   -0.8065 C   0  0  0  0  0  0  0  0  0  0  0  0
   -3.9808    0.0000   -0.0923 C   0  0  0  0  0  0  0  0  0  0  0  0
   -4.6620   -1.2080   -0.2429 C   0  0  0  0  0  0  0  0  0  0  0  0
   -4.6615    1.2081   -0.2437 C   0  0  0  0  0  0  0  0  0  0  0  0
   -6.0238   -1.2079   -0.5453 C   0  0  0  0  0  0  0  0  0  0  0  0
   -6.0233    1.2082   -0.5460 C   0  0  0  0  0  0  0  0  0  0  0  0
   -6.7043    0.0001   -0.6967 C   0  0  0  0  0  0  0  0  0  0  0  0
  1  2  1  0
  1  3  1  0
  1  6  1  0
  2  4  1  0
  2  7  2  0
  3  5  2  0
  3  8  1  0
  4  5  1  0
  4  9  2  0
  5 10  1  0
  6 11  2  0
  6 12  1  0
  7 13  1  0
  8 14  2  0
  9 15  1  0
 10 16  2  0
 11 18  1  0
 12 19  2  0
 13 15  2  0
 14 16  1  0
 17 18  2  0
 17 19  1  0
 17 20  1  0
 20 21  2  0
 20 22  1  0
 21 23  1  0
 22 24  2  0
 23 25  2  0
 24 25  1  0
M  END
>  <PUBCHEM_COMPOUND_CID>  (1) 
28365

>  <PUBCHEM_CONFORMER_RMSD>  (1) 
0.6

>  <PUBCHEM_CONFORMER_DIVERSEORDER>  (1) 
1
2

>  <PUBCHEM_MMFF94_PARTIAL_CHARGES>  (1) 
38
1 0.43
10 -0.15
11 -0.15
12 -0.15
13 -0.15
14 -0.15
15 -0.15
16 -0.15
18 -0.15
19 -0.15
2 -0.14
21 -0.15
22 -0.15
23 -0.15
24 -0.15
25 -0.15
27 0.15
28 0.15
29 0.15
3 -0.14
30 0.15
31 0.15
32 0.15
33 0.15
34 0.15
35 0.15
36 0.15
37 0.15
38 0.15
39 0.15
40 0.15
41 0.15
42 0.15
43 0.15
6 -0.14
7 -0.15
8 -0.15
9 -0.15

>  <PUBCHEM_EFFECTIVE_ROTOR_COUNT>  (1) 
2.2

>  <PUBCHEM_PHARMACOPHORE_FEATURES>  (1) 
5
5 1 2 3 4 5 rings
6 2 4 7 9 13 15 rings
6 20 21 22 23 24 25 rings
6 3 5 8 10 14 16 rings
6 6 11 12 17 18 19 rings

>  <PUBCHEM_HEAVY_ATOM_COUNT>  (1) 
25

>  <PUBCHEM_ATOM_DEF_STEREO_COUNT>  (1) 
0

>  <PUBCHEM_ATOM_UDEF_STEREO_COUNT>  (1) 
0

>  <PUBCHEM_BOND_DEF_STEREO_COUNT>  (1) 
0

>  <PUBCHEM_BOND_UDEF_STEREO_COUNT>  (1) 
0

>  <PUBCHEM_ISOTOPIC_ATOM_COUNT>  (1) 
0

>  <PUBCHEM_COMPONENT_COUNT>  (1) 
1

>  <PUBCHEM_CACTVS_TAUTO_COUNT>  (1) 
1

>  <PUBCHEM_CONFORMER_ID>  (1) 
00006ECD00000001

>  <PUBCHEM_MMFF94_ENERGY>  (1) 
89.7973

>  <PUBCHEM_FEATURE_SELFOVERLAP>  (1) 
25.536

>  <PUBCHEM_SHAPE_FINGERPRINT>  (1) 
10378564 45 18335977563347424637
10595046 47 18412823616845551997
10670039 82 14996846476933116590
10693767 8 18130519535490675534
10930396 42 18116409529110721378
11135609 127 18268978933841432601
11621639 254 17110458935058441580
11796584 16 17917710176346474287
12107183 9 17909835332307859849
12236239 1 17775005652492153506
12661589 4 16056307457838791687
12730499 353 18263088858403176120
13009979 54 17488193590912010010
13167823 11 18342734118440735431
13533116 47 18341894100051778703
13583140 156 18268718367033823107
1361 2 18262517121347548381
13955234 65 18412823611901686650
14528608 73 18336262444333356221
15183329 4 18340204073523378413
15250474 111 18129645517882725359
15324884 4 17533810292607641666
15950262 2 15143812910093849550
15961568 22 17603864558921859493
16752209 62 16415206654563684249
16989378 47 17487925344503215110
16993427 108 17171777187254859914
17349148 13 16558747902128610599
17844677 252 18410859828864509757
1813 80 17986399880258376150
18681886 176 18272365343998158570
20554085 129 17916011551467751304
20645477 70 18410292501722189854
21304303 282 17123925685346690924
21304303 94 17417544591512549718
221357 26 18263079929345911981
22289505 5 18409165506725664220
23081809 10 17846776309399293109
23522609 53 17773619242388834697
23559900 14 18342167839608026603
238 59 18339091474909004586
239999 70 18412544297320451470
25147074 1 17846233111388744977
25222932 49 16341705517538136599
3004659 81 18272649004754370707
312423 11 18059584559355254857
3472631 163 16009319836867979756
34797466 226 18334012822410766989
4073 2 18188213203832854387
44317340 157 18335424556659868801
46194498 28 18334575720117757900
465052 167 17918274221184298727
495365 180 18337103570544151136
5281201 14 18408602526707101549
59682541 52 18410845539502736359
6025842 7 18411418444747387238
6327066 14 17901108835057691636
633830 44 18187355520322614891
6695519 79 17767702902355982818
70251023 43 18338239245606473386
7471813 234 18271247097827967344
7970288 3 17983579598262987654
8272917 22 18410575093479873476
90127 26 18041000614297585201
960060 61 18412265021361247303

>  <PUBCHEM_SHAPE_MULTIPOLES>  (1) 
514.49
13.39
3.39
1.23
23.78
0
-0.34
0
5.18
-6.7
0.49
-0.17
0
0

>  <PUBCHEM_SHAPE_SELFOVERLAP>  (1) 
1172.91

>  <PUBCHEM_SHAPE_VOLUME>  (1) 
247.2

>  <PUBCHEM_COORDINATE_TYPE>  (1) 
2
5
10

$$$$
