28368
     RDKit          3D

 34 36  0  0  0  0  0  0  0  0999 V2000
    4.9596   -0.9299    1.1009 N   0  0  0  0  0  0  0  0  0  0  0  0
   -4.9610   -0.9365   -1.0944 N   0  0  0  0  0  0  0  0  0  0  0  0
    1.4370   -0.1180    0.1550 N   0  0  0  0  0  0  0  0  0  0  0  0
   -1.4371   -0.1187   -0.1587 N   0  0  0  0  0  0  0  0  0  0  0  0
    3.7148   -0.9848    0.2959 C   0  0  0  0  0  0  0  0  0  0  0  0
   -3.7151   -0.9862   -0.2908 C   0  0  0  0  0  0  0  0  0  0  0  0
    2.6587   -0.1154    0.9573 C   0  0  0  0  0  0  0  0  0  0  0  0
   -2.6598   -0.1212   -0.9592 C   0  0  0  0  0  0  0  0  0  0  0  0
    0.6415   -1.3231    0.4201 C   0  0  0  0  0  0  0  0  0  0  0  0
    0.6415    1.0887    0.4126 C   0  0  0  0  0  0  0  0  0  0  0  0
   -0.6420   -1.3254   -0.4173 C   0  0  0  0  0  0  0  0  0  0  0  0
   -0.6414    1.0858   -0.4259 C   0  0  0  0  0  0  0  0  0  0  0  0
    5.5045    0.5039    1.1664 C   0  0  0  0  0  0  0  0  0  0  0  0
   -5.5060    0.4969   -1.1682 C   0  0  0  0  0  0  0  0  0  0  0  0
    4.7021   -1.4079    2.5369 C   0  0  0  0  0  0  0  0  0  0  0  0
    6.0460   -1.8250    0.4882 C   0  0  0  0  0  0  0  0  0  0  0  0
   -4.7056   -1.4237   -2.5276 C   0  0  0  0  0  0  0  0  0  0  0  0
   -6.0465   -1.8275   -0.4744 C   0  0  0  0  0  0  0  0  0  0  0  0
    5.7967    1.0841   -0.1860 C   0  0  0  0  0  0  0  0  0  0  0  0
   -5.7962    1.0857    0.1808 C   0  0  0  0  0  0  0  0  0  0  0  0
    6.0005   -1.3754    3.3132 C   0  0  0  0  0  0  0  0  0  0  0  0
    5.5351   -3.2471    0.4114 C   0  0  0  0  0  0  0  0  0  0  0  0
   -6.0051   -1.3960   -3.3022 C   0  0  0  0  0  0  0  0  0  0  0  0
   -5.5356   -3.2491   -0.3892 C   0  0  0  0  0  0  0  0  0  0  0  0
    7.0595    0.9222   -0.7563 C   0  0  0  0  0  0  0  0  0  0  0  0
   -7.0581    0.9277    0.7539 C   0  0  0  0  0  0  0  0  0  0  0  0
    4.8056    1.7848   -0.8734 C   0  0  0  0  0  0  0  0  0  0  0  0
   -4.8041    1.7908    0.8622 C   0  0  0  0  0  0  0  0  0  0  0  0
    7.3311    1.4614   -2.0137 C   0  0  0  0  0  0  0  0  0  0  0  0
   -7.3280    1.4750    2.0082 C   0  0  0  0  0  0  0  0  0  0  0  0
    5.0774    2.3238   -2.1309 C   0  0  0  0  0  0  0  0  0  0  0  0
   -5.0741    2.3380    2.1166 C   0  0  0  0  0  0  0  0  0  0  0  0
    6.3402    2.1621   -2.7010 C   0  0  0  0  0  0  0  0  0  0  0  0
   -6.3361    2.1799    2.6896 C   0  0  0  0  0  0  0  0  0  0  0  0
  1  5  1  0
  1 13  1  0
  1 15  1  0
  1 16  1  0
  2  6  1  0
  2 14  1  0
  2 17  1  0
  2 18  1  0
  3  7  1  0
  3  9  1  0
  3 10  1  0
  4  8  1  0
  4 11  1  0
  4 12  1  0
  5  7  1  0
  6  8  1  0
  9 11  1  0
 10 12  1  0
 13 19  1  0
 14 20  1  0
 15 21  1  0
 16 22  1  0
 17 23  1  0
 18 24  1  0
 19 25  2  0
 19 27  1  0
 20 26  2  0
 20 28  1  0
 25 29  1  0
 26 30  1  0
 27 31  2  0
 28 32  2  0
 29 33  2  0
 30 34  2  0
 31 33  1  0
 32 34  1  0
M  CHG  2   1   1   2   1
M  END
>  <PUBCHEM_COMPOUND_CID>  (1) 
28368

>  <PUBCHEM_CONFORMER_RMSD>  (1) 
1.6

>  <PUBCHEM_CONFORMER_DIVERSEORDER>  (1) 
3
48
38
2
28
36
15
39
18
1
20
8
47
26
23
45
5
37
30
33
4
31
41
44
6
40
7
24
10
12
22
35
11
43
42
19
14
17
13
32
21
9
25
27
46
34
29
16

>  <PUBCHEM_MMFF94_PARTIAL_CHARGES>  (1) 
40
1 -1.01
10 0.27
11 0.27
12 0.27
13 0.65
14 0.65
15 0.5
16 0.5
17 0.5
18 0.5
19 -0.14
2 -1.01
20 -0.14
25 -0.15
26 -0.15
27 -0.15
28 -0.15
29 -0.15
3 -0.81
30 -0.15
31 -0.15
32 -0.15
33 -0.15
34 -0.15
4 -0.81
5 0.5
6 0.5
7 0.27
75 0.15
76 0.15
77 0.15
78 0.15
79 0.15
8 0.27
80 0.15
81 0.15
82 0.15
83 0.15
84 0.15
9 0.27

>  <PUBCHEM_EFFECTIVE_ROTOR_COUNT>  (1) 
15.2

>  <PUBCHEM_PHARMACOPHORE_FEATURES>  (1) 
7
1 1 cation
1 2 cation
1 3 cation
1 4 cation
6 19 25 27 29 31 33 rings
6 20 26 28 30 32 34 rings
6 3 4 9 10 11 12 rings

>  <PUBCHEM_HEAVY_ATOM_COUNT>  (1) 
34

>  <PUBCHEM_ATOM_DEF_STEREO_COUNT>  (1) 
0

>  <PUBCHEM_ATOM_UDEF_STEREO_COUNT>  (1) 
0

>  <PUBCHEM_BOND_DEF_STEREO_COUNT>  (1) 
0

>  <PUBCHEM_BOND_UDEF_STEREO_COUNT>  (1) 
0

>  <PUBCHEM_ISOTOPIC_ATOM_COUNT>  (1) 
0

>  <PUBCHEM_COMPONENT_COUNT>  (1) 
1

>  <PUBCHEM_CACTVS_TAUTO_COUNT>  (1) 
1

>  <PUBCHEM_CONFORMER_ID>  (1) 
00006ED000000003

>  <PUBCHEM_MMFF94_ENERGY>  (1) 
134.1497

>  <PUBCHEM_FEATURE_SELFOVERLAP>  (1) 
35.526

>  <PUBCHEM_SHAPE_FINGERPRINT>  (1) 
10677351 14 17167856478380581951
10906281 52 18410584980273497354
10951579 204 16845026627413434872
11007060 377 17168140191604654555
11475781 23 16271924866047105048
13782708 43 16486683792203633367
14294032 229 18057616377781801664
14856354 85 18343866641323928549
15183329 4 18335980943069942397
15328829 1 18338531788577437580
1577012 14 18411135839888218476
21814621 53 15769774662762044892
2303208 19 16081088147451714921
23081809 10 18412257337490700886
23522609 53 18338533983300353636
328310 630 18260831518393084413
335507 130 18260549992014000244
3610482 184 18343029891199667357
394071 54 17530688727751924340
397830 11 15697421355899294946
4169191 19 17967534600970875542
437795 51 17022912245926476256
5109719 28 16515975877664229652
58083652 198 17967805046593272549
9962374 69 18113611258516275434

>  <PUBCHEM_SHAPE_MULTIPOLES>  (1) 
679.78
26.26
3.04
2.94
0.02
0.97
0
-4.85
0.01
-0.06
-0.01
0.05
-0.42
-9.45

>  <PUBCHEM_SHAPE_SELFOVERLAP>  (1) 
1385.692

>  <PUBCHEM_SHAPE_VOLUME>  (1) 
387.7

>  <PUBCHEM_COORDINATE_TYPE>  (1) 
2
5
10

$$$$
