28361
     RDKit          3D

 28 31  0  0  1  0  0  0  0  0999 V2000
   -6.5656   -2.4691    0.6989 Cl  0  0  0  0  0  0  0  0  0  0  0  0
   -1.6601    1.3041    1.8970 S   0  0  0  0  0  0  0  0  0  0  0  0
    7.4352    1.6674    2.0176 O   0  0  0  0  0  0  0  0  0  0  0  0
    1.6202   -1.7410   -1.2734 N   0  0  0  0  0  0  0  0  0  0  0  0
    4.2267   -1.2750   -0.1127 N   0  0  0  0  0  0  0  0  0  0  0  0
    2.2152   -0.3992   -1.2487 C   0  0  0  0  0  0  0  0  0  0  0  0
    2.6696   -2.7666   -1.3195 C   0  0  0  0  0  0  0  0  0  0  0  0
    0.7057   -1.8827   -2.4046 C   0  0  0  0  0  0  0  0  0  0  0  0
    3.1767   -0.2503   -0.0646 C   0  0  0  0  0  0  0  0  0  0  0  0
    3.6319   -2.6169   -0.1362 C   0  0  0  0  0  0  0  0  0  0  0  0
   -0.4034   -0.8351   -2.3249 C   0  0  0  0  0  0  0  0  0  0  0  0
   -1.2165   -1.0072   -1.0472 C   0  0  0  0  0  0  0  0  0  0  0  0
   -2.3123    0.0614   -0.9438 C   0  0  0  0  0  0  0  0  0  0  0  0
    5.1427   -1.1330    1.0172 C   0  0  0  0  0  0  0  0  0  0  0  0
   -3.2523   -0.2508    0.2078 C   0  0  0  0  0  0  0  0  0  0  0  0
   -1.6976    1.4496   -0.8931 C   0  0  0  0  0  0  0  0  0  0  0  0
    5.8352    0.2252    0.9700 C   0  0  0  0  0  0  0  0  0  0  0  0
   -3.0346    0.2377    1.5066 C   0  0  0  0  0  0  0  0  0  0  0  0
   -1.3553    2.0737    0.3179 C   0  0  0  0  0  0  0  0  0  0  0  0
   -4.3537   -1.0939   -0.0247 C   0  0  0  0  0  0  0  0  0  0  0  0
   -1.4210    2.1139   -2.1014 C   0  0  0  0  0  0  0  0  0  0  0  0
    6.8137    0.3940    2.1244 C   0  0  0  0  0  0  0  0  0  0  0  0
   -3.9116   -0.1178    2.5418 C   0  0  0  0  0  0  0  0  0  0  0  0
   -0.7497    3.3388    0.3039 C   0  0  0  0  0  0  0  0  0  0  0  0
   -5.2241   -1.4375    1.0090 C   0  0  0  0  0  0  0  0  0  0  0  0
   -0.8243    3.3742   -2.1060 C   0  0  0  0  0  0  0  0  0  0  0  0
   -5.0024   -0.9497    2.2921 C   0  0  0  0  0  0  0  0  0  0  0  0
   -0.4883    3.9859   -0.9033 C   0  0  0  0  0  0  0  0  0  0  0  0
  1 25  1  0
  2 18  1  0
  2 19  1  0
  3 22  1  0
  4  6  1  0
  4  7  1  0
  4  8  1  0
  5  9  1  0
  5 10  1  0
  5 14  1  0
  6  9  1  0
  7 10  1  0
  8 11  1  0
 11 12  1  0
 12 13  1  0
 13 15  1  0
 13 16  1  0
 14 17  1  0
 15 18  2  0
 15 20  1  0
 16 19  2  0
 16 21  1  0
 17 22  1  0
 18 23  1  0
 19 24  1  0
 20 25  2  0
 21 26  2  0
 23 27  2  0
 24 28  2  0
 25 27  1  0
 26 28  1  0
M  END
>  <PUBCHEM_COMPOUND_CID>  (1) 
28361

>  <PUBCHEM_CONFORMER_RMSD>  (1) 
1

>  <PUBCHEM_CONFORMER_DIVERSEORDER>  (1) 
4
75
85
2
103
65
71
94
101
20
37
89
59
29
84
90
83
34
95
44
92
91
55
45
50
56
87
82
38
18
88
36
51
79
21
66
24
76
102
49
1
99
63
81
6
70
80
61
68
15
47
98
77
72
97
39
12
11
26
43
69
31
25
41
104
5
78
46
33
8
96
73
93
52
19
86
40
100
48
67
64
27
54
32
74
9
62
60
16
3
35
7
13
58
30
42
14
57
17
53
22
28
10
23

>  <PUBCHEM_MMFF94_PARTIAL_CHARGES>  (1) 
33
1 -0.18
10 0.27
13 0.29
14 0.27
15 -0.14
16 -0.14
18 0.1
19 0.1
2 -0.2
20 -0.15
21 -0.15
22 0.28
23 -0.15
24 -0.15
25 0.18
26 -0.15
27 -0.15
28 -0.15
3 -0.68
4 -0.81
48 0.15
49 0.15
5 -0.81
52 0.15
53 0.15
54 0.15
55 0.15
56 0.15
57 0.4
6 0.27
7 0.27
8 0.27
9 0.27

>  <PUBCHEM_EFFECTIVE_ROTOR_COUNT>  (1) 
8.6

>  <PUBCHEM_PHARMACOPHORE_FEATURES>  (1) 
8
1 3 acceptor
1 3 donor
1 4 cation
1 5 cation
6 15 18 20 23 25 27 rings
6 16 19 21 24 26 28 rings
6 2 13 15 16 18 19 rings
6 4 5 6 7 9 10 rings

>  <PUBCHEM_HEAVY_ATOM_COUNT>  (1) 
28

>  <PUBCHEM_ATOM_DEF_STEREO_COUNT>  (1) 
0

>  <PUBCHEM_ATOM_UDEF_STEREO_COUNT>  (1) 
1

>  <PUBCHEM_BOND_DEF_STEREO_COUNT>  (1) 
0

>  <PUBCHEM_BOND_UDEF_STEREO_COUNT>  (1) 
0

>  <PUBCHEM_ISOTOPIC_ATOM_COUNT>  (1) 
0

>  <PUBCHEM_COMPONENT_COUNT>  (1) 
1

>  <PUBCHEM_CACTVS_TAUTO_COUNT>  (1) 
1

>  <PUBCHEM_CONFORMER_ID>  (1) 
00006EC900000004

>  <PUBCHEM_MMFF94_ENERGY>  (1) 
64.8481

>  <PUBCHEM_FEATURE_SELFOVERLAP>  (1) 
40.629

>  <PUBCHEM_SHAPE_FINGERPRINT>  (1) 
10369192 42 16773794840291439588
10483366 6 13551457177741221611
10930396 42 18189878954778349480
11963148 33 17112985617750056539
12895836 83 12463566279204677498
12895837 130 13829547904958925954
12988421 55 17631994404936486790
13583140 156 17908986504662177278
13828863 39 16630530613326453987
14068700 675 17022902371775147408
14765038 42 17418092165804726408
14840074 17 18270122439130217508
15119646 57 14404602381768838154
15131766 46 17346019122315585112
15160629 178 17898577737320043884
15188451 53 16877937248347646698
15475509 35 16813541167839245635
1813 80 18264793041961357367
18393751 57 18059573628590373750
19315092 285 16732704982459466888
21049683 118 17176872224878698505
21304303 282 17098318819644708565
21344244 78 18055384472814982329
21458453 9 18196935689404876874
21756936 100 15841540891073041190
3027735 51 16588595184594156107
3187 122 18335991852513876877
3380486 145 18341886390580292901
376196 1 17258192091878576236
392239 28 18335699485621468218
4015057 19 12324540735012807622
4058900 60 11095624302482162607
463206 1 17459208402951895555
469060 322 18341879827485129254
50009960 94 17825392048968706611
5252454 2 12966843481965989636
57634706 280 17470723309036152661
613672 6 17969241021854064667
6636798 310 16951659481937042376
7399639 24 18270684168938458774
9981440 41 17694194708962384903

>  <PUBCHEM_SHAPE_MULTIPOLES>  (1) 
566.11
14.03
3.86
2.7
16.78
3.41
0.17
-8
13.58
-0.85
-1.8
0.37
0.22
2.63

>  <PUBCHEM_SHAPE_SELFOVERLAP>  (1) 
1174.742

>  <PUBCHEM_SHAPE_VOLUME>  (1) 
324.1

>  <PUBCHEM_COORDINATE_TYPE>  (1) 
2
5
10

$$$$
