28369
     RDKit          3D

  9  8  0  0  0  0  0  0  0  0999 V2000
    3.6590   -0.9696   -0.0128 O   0  0  0  0  0  0  0  0  0  0  0  0
    2.9848    1.1765    0.3280 O   0  0  0  0  0  0  0  0  0  0  0  0
   -3.5589    0.0382   -0.4705 C   0  0  0  0  0  0  0  0  0  0  0  0
   -2.1678    0.5581   -0.2535 C   0  0  0  0  0  0  0  0  0  0  0  0
   -4.1944   -0.4088    0.8367 C   0  0  0  0  0  0  0  0  0  0  0  0
   -1.0711   -0.2130   -0.2993 C   0  0  0  0  0  0  0  0  0  0  0  0
    0.2654    0.2973   -0.0826 C   0  0  0  0  0  0  0  0  0  0  0  0
    1.3534   -0.4845   -0.1313 C   0  0  0  0  0  0  0  0  0  0  0  0
    2.7296    0.0058    0.0852 C   0  0  0  0  0  0  0  0  0  0  0  0
  1  9  1  0
  2  9  2  0
  3  4  1  0
  3  5  1  0
  4  6  2  0
  6  7  1  0
  7  8  2  0
  8  9  1  0
M  END
>  <PUBCHEM_COMPOUND_CID>  (1) 
28369

>  <PUBCHEM_CONFORMER_RMSD>  (1) 
0.6

>  <PUBCHEM_CONFORMER_DIVERSEORDER>  (1) 
2
3
5
4
6
1

>  <PUBCHEM_MMFF94_PARTIAL_CHARGES>  (1) 
13
1 -0.65
12 0.15
16 0.15
17 0.15
18 0.15
19 0.5
2 -0.57
3 0.14
4 -0.29
6 -0.15
7 -0.15
8 -0.14
9 0.71

>  <PUBCHEM_EFFECTIVE_ROTOR_COUNT>  (1) 
3

>  <PUBCHEM_PHARMACOPHORE_FEATURES>  (1) 
4
1 1 acceptor
1 2 acceptor
1 5 hydrophobe
3 1 2 9 anion

>  <PUBCHEM_HEAVY_ATOM_COUNT>  (1) 
9

>  <PUBCHEM_ATOM_DEF_STEREO_COUNT>  (1) 
0

>  <PUBCHEM_ATOM_UDEF_STEREO_COUNT>  (1) 
0

>  <PUBCHEM_BOND_DEF_STEREO_COUNT>  (1) 
0

>  <PUBCHEM_BOND_UDEF_STEREO_COUNT>  (1) 
2

>  <PUBCHEM_ISOTOPIC_ATOM_COUNT>  (1) 
0

>  <PUBCHEM_COMPONENT_COUNT>  (1) 
1

>  <PUBCHEM_CACTVS_TAUTO_COUNT>  (1) 
1

>  <PUBCHEM_CONFORMER_ID>  (1) 
00006ED100000002

>  <PUBCHEM_MMFF94_ENERGY>  (1) 
8.3134

>  <PUBCHEM_FEATURE_SELFOVERLAP>  (1) 
20.354

>  <PUBCHEM_SHAPE_FINGERPRINT>  (1) 
10219947 1 18343301470160355885
11062470 55 9799689303038545575
12032990 46 18259989253594040623
12932764 1 18337378392315514919
14325111 11 18410853256968194613
177051 138 17748829622272278899
190213 19 17967531276877093829
20645477 70 18269546148844812623
22485316 2 17675919906954939715
449060 50 18261956361706479316

>  <PUBCHEM_SHAPE_MULTIPOLES>  (1) 
173.48
7.83
0.89
0.73
1.69
0.05
-0.04
-0.88
-1.12
-0.45
-0.05
0.41
-0.02
0.39

>  <PUBCHEM_SHAPE_SELFOVERLAP>  (1) 
324.191

>  <PUBCHEM_SHAPE_VOLUME>  (1) 
108

>  <PUBCHEM_COORDINATE_TYPE>  (1) 
2
5
10

$$$$
