28375
     RDKit          3D

 18 18  0  0  0  0  0  0  0  0999 V2000
   -6.4318   -0.0076   -0.7884 Br  0  0  0  0  0  0  0  0  0  0  0  0
    0.5410    0.0018   -1.3062 O   0  0  0  0  0  0  0  0  0  0  0  0
    2.9929    0.0052   -0.1855 N   0  0  0  0  0  0  0  0  0  0  0  0
   -0.5558    0.0045    0.7696 N   0  0  0  0  0  0  0  0  0  0  0  0
    5.4301    0.0084   -0.4442 C   0  0  0  0  0  0  0  0  0  0  0  0
    4.2592   -0.0231    0.5365 C   0  0  0  0  0  0  0  0  0  0  0  0
    6.7695    0.0011    0.2936 C   0  0  0  0  0  0  0  0  0  0  0  0
    1.8339    0.0095    0.7308 C   0  0  0  0  0  0  0  0  0  0  0  0
   -1.9237    0.0018    0.4065 C   0  0  0  0  0  0  0  0  0  0  0  0
   -2.5847    1.2083    0.2319 C   0  0  0  0  0  0  0  0  0  0  0  0
   -2.5799   -1.2077    0.2323 C   0  0  0  0  0  0  0  0  0  0  0  0
    0.5491    0.0069   -0.0793 C   0  0  0  0  0  0  0  0  0  0  0  0
    7.9403   -0.0035   -0.6763 C   0  0  0  0  0  0  0  0  0  0  0  0
   -3.9330    1.2055   -0.1254 C   0  0  0  0  0  0  0  0  0  0  0  0
   -3.9282   -1.2106   -0.1252 C   0  0  0  0  0  0  0  0  0  0  0  0
   -1.8922    2.5197    0.4162 C   0  0  0  0  0  0  0  0  0  0  0  0
   -1.8820   -2.5162    0.4172 C   0  0  0  0  0  0  0  0  0  0  0  0
   -4.6048   -0.0040   -0.3041 C   0  0  0  0  0  0  0  0  0  0  0  0
  1 18  1  0
  2 12  2  0
  3  6  1  0
  3  8  1  0
  4  9  1  0
  4 12  1  0
  5  6  1  0
  5  7  1  0
  7 13  1  0
  8 12  1  0
  9 10  2  0
  9 11  1  0
 10 14  1  0
 10 16  1  0
 11 15  2  0
 11 17  1  0
 14 18  2  0
 15 18  1  0
M  END
>  <PUBCHEM_COMPOUND_CID>  (1) 
28375

>  <PUBCHEM_CONFORMER_RMSD>  (1) 
0.8

>  <PUBCHEM_CONFORMER_DIVERSEORDER>  (1) 
1
24
4
13
18
20
19
25
5
12
23
6
8
21
16
3
17
11
15
2
7
22
9
10
14

>  <PUBCHEM_MMFF94_PARTIAL_CHARGES>  (1) 
19
1 -0.11
10 -0.14
11 -0.14
12 0.57
14 -0.15
15 -0.15
16 0.14
17 0.14
18 0.11
2 -0.57
25 0.36
28 0.37
3 -0.9
32 0.15
33 0.15
4 -0.55
6 0.27
8 0.33
9 0.12

>  <PUBCHEM_EFFECTIVE_ROTOR_COUNT>  (1) 
7

>  <PUBCHEM_PHARMACOPHORE_FEATURES>  (1) 
7
1 1 hydrophobe
1 13 hydrophobe
1 2 acceptor
1 3 cation
1 3 donor
1 4 donor
6 9 10 11 14 15 18 rings

>  <PUBCHEM_HEAVY_ATOM_COUNT>  (1) 
18

>  <PUBCHEM_ATOM_DEF_STEREO_COUNT>  (1) 
0

>  <PUBCHEM_ATOM_UDEF_STEREO_COUNT>  (1) 
0

>  <PUBCHEM_BOND_DEF_STEREO_COUNT>  (1) 
0

>  <PUBCHEM_BOND_UDEF_STEREO_COUNT>  (1) 
0

>  <PUBCHEM_ISOTOPIC_ATOM_COUNT>  (1) 
0

>  <PUBCHEM_COMPONENT_COUNT>  (1) 
1

>  <PUBCHEM_CACTVS_TAUTO_COUNT>  (1) 
2

>  <PUBCHEM_CONFORMER_ID>  (1) 
00006ED700000001

>  <PUBCHEM_MMFF94_ENERGY>  (1) 
50.7732

>  <PUBCHEM_FEATURE_SELFOVERLAP>  (1) 
35.52

>  <PUBCHEM_SHAPE_FINGERPRINT>  (1) 
10411042 1 18122063372055759291
10968037 39 18408884044828468975
11315181 36 18187088372945398872
12091667 2 18261116274988358218
12107183 9 17614838514348614000
12236239 1 17603861191882970963
13288520 33 18413670227560440713
13533116 47 18339070489445959130
13668630 136 16128378177497053740
14251764 18 18409727344213626818
14251764 46 17748826319505712275
15183329 4 18408886209850955370
15716309 27 12319736964869188772
17834072 33 18261395576838418860
17834076 25 16950281810651343258
17844677 252 18343027709747080448
187816 3 18410851067167837385
19489759 90 18341896281657807720
20645477 70 16916795016271328478
21150785 3 17603584140522309807
21267235 1 18410576223552118547
2297311 6 18344148093982050024
23402539 116 18341887507298000605
23557571 272 18131074805098292633
23559900 14 18340480174910797064
2748010 2 18048303742791766435
300161 21 17894907434762421994
335352 9 18410568497327959365
34797466 226 18131077056383679996
3545911 37 18409728456662644058
4214541 1 18410012139511189608
59755656 215 18341614794023366982
59755656 520 16443343199815321291
6327066 14 17752476560993710317

>  <PUBCHEM_SHAPE_MULTIPOLES>  (1) 
360.54
17.54
1.67
0.88
33.39
0
-0.1
-0.03
-4.54
-2.36
0.33
0.09
0
-0.01

>  <PUBCHEM_SHAPE_SELFOVERLAP>  (1) 
706.983

>  <PUBCHEM_SHAPE_VOLUME>  (1) 
221.5

>  <PUBCHEM_COORDINATE_TYPE>  (1) 
2
5
10

$$$$
