28379
     RDKit          3D

 22 25  0  0  1  0  0  0  0  0999 V2000
   -1.5346   -0.0249   -0.2518 O   0  0  0  0  0  0  0  0  0  0  0  0
   -4.3473   -0.3223   -0.2427 N   0  0  0  0  0  0  0  0  0  0  0  0
    0.4520    1.3392    0.1814 C   0  0  0  0  0  0  0  0  0  0  0  0
    1.8518    1.3123    0.8786 C   0  0  0  0  0  0  0  0  0  0  0  0
   -0.2516   -0.0425    0.3506 C   0  0  0  0  0  0  0  0  0  0  0  0
    2.1073   -0.0873    1.5088 C   0  0  0  0  0  0  0  0  0  0  0  0
   -0.3925   -0.3181    1.8698 C   0  0  0  0  0  0  0  0  0  0  0  0
    0.9942   -0.3504    2.5491 C   0  0  0  0  0  0  0  0  0  0  0  0
    0.5254    1.8135   -1.2804 C   0  0  0  0  0  0  0  0  0  0  0  0
    2.9901    1.7528   -0.0535 C   0  0  0  0  0  0  0  0  0  0  0  0
    0.6726   -1.1206   -0.1989 C   0  0  0  0  0  0  0  0  0  0  0  0
    1.9371   -1.1399    0.4291 C   0  0  0  0  0  0  0  0  0  0  0  0
    1.3031    3.1213   -1.4012 C   0  0  0  0  0  0  0  0  0  0  0  0
    2.6734    3.0869   -0.7220 C   0  0  0  0  0  0  0  0  0  0  0  0
    0.3837   -2.0266   -1.2133 C   0  0  0  0  0  0  0  0  0  0  0  0
    2.9061   -2.0617    0.0514 C   0  0  0  0  0  0  0  0  0  0  0  0
   -2.3575    0.9979    0.2956 C   0  0  0  0  0  0  0  0  0  0  0  0
    1.3586   -2.9515   -1.5938 C   0  0  0  0  0  0  0  0  0  0  0  0
    2.6103   -2.9697   -0.9655 C   0  0  0  0  0  0  0  0  0  0  0  0
   -3.7037    0.9721   -0.4106 C   0  0  0  0  0  0  0  0  0  0  0  0
   -5.6253   -0.3622   -0.9577 C   0  0  0  0  0  0  0  0  0  0  0  0
   -4.5533   -0.6185    1.1771 C   0  0  0  0  0  0  0  0  0  0  0  0
  1  5  1  0
  1 17  1  0
  2 20  1  0
  2 21  1  0
  2 22  1  0
  3  4  1  0
  3  5  1  0
  3  9  1  0
  4  6  1  0
  4 10  1  0
  5  7  1  0
  5 11  1  0
  6  8  1  0
  6 12  1  0
  7  8  1  0
  9 13  1  0
 10 14  1  0
 11 12  2  0
 11 15  1  0
 12 16  1  0
 13 14  1  0
 15 18  2  0
 16 19  2  0
 17 20  1  0
 18 19  1  0
M  END
>  <PUBCHEM_COMPOUND_CID>  (1) 
28379

>  <PUBCHEM_CONFORMER_RMSD>  (1) 
0.8

>  <PUBCHEM_CONFORMER_DIVERSEORDER>  (1) 
1
16
3
20
2
21
10
7
13
6
15
4
12
5
19
17
18
9
11
8
14

>  <PUBCHEM_MMFF94_PARTIAL_CHARGES>  (1) 
18
1 -0.56
11 -0.14
12 -0.14
15 -0.15
16 -0.15
17 0.28
18 -0.15
19 -0.15
2 -0.81
20 0.27
21 0.27
22 0.27
38 0.15
39 0.15
42 0.15
43 0.15
5 0.42
6 0.14

>  <PUBCHEM_EFFECTIVE_ROTOR_COUNT>  (1) 
5.2

>  <PUBCHEM_PHARMACOPHORE_FEATURES>  (1) 
5
1 1 acceptor
1 2 cation
6 11 12 15 16 18 19 rings
6 3 4 9 10 13 14 rings
8 3 4 5 6 7 8 11 12 rings

>  <PUBCHEM_HEAVY_ATOM_COUNT>  (1) 
22

>  <PUBCHEM_ATOM_DEF_STEREO_COUNT>  (1) 
0

>  <PUBCHEM_ATOM_UDEF_STEREO_COUNT>  (1) 
4

>  <PUBCHEM_BOND_DEF_STEREO_COUNT>  (1) 
0

>  <PUBCHEM_BOND_UDEF_STEREO_COUNT>  (1) 
0

>  <PUBCHEM_ISOTOPIC_ATOM_COUNT>  (1) 
0

>  <PUBCHEM_COMPONENT_COUNT>  (1) 
1

>  <PUBCHEM_CACTVS_TAUTO_COUNT>  (1) 
1

>  <PUBCHEM_CONFORMER_ID>  (1) 
00006EDB00000001

>  <PUBCHEM_MMFF94_ENERGY>  (1) 
80.8647

>  <PUBCHEM_FEATURE_SELFOVERLAP>  (1) 
25.393

>  <PUBCHEM_SHAPE_FINGERPRINT>  (1) 
10064457 181 17702926141178351583
10948715 1 17972038312526124640
11578080 2 16666614424645017104
116883 192 18122340177590506125
12422481 6 18195498486268435986
12592029 89 18339374062113166720
13009979 54 17915754075892311193
13149001 5 17678769819181598467
133893 2 18123223205649310000
13533116 47 17775562027879558935
13681431 1 18194142753644498156
13836976 161 18340762749398908005
14181834 199 18201731608627020342
14817 1 8456565919479851336
14863182 85 18131624608246270767
15502722 9 18412552015439316831
15906896 17 17251467972836596136
16945 1 18042384912026302104
17357779 13 17908967825569377453
17492 54 18264230087786984830
1813 80 18122640356991132303
20600515 1 17540218009608332433
20602899 9 17771371904428731108
20645477 70 18335131012751080117
20691752 17 16950853487794298069
20905425 154 17968649432810858644
21304303 282 17261010642744317580
21330990 113 15607120248559318392
21503847 285 18261962825980634089
21524375 3 17971756833017427165
21756936 100 17028817937891857060
21860390 5 18040712601821507261
22149856 69 18201724012001498995
22182313 1 17981581807604753530
23352939 185 18128266584408989102
23419403 2 17267753518260769682
23559900 14 18341886352031055399
239999 70 18187644726198306003
2748010 2 17764843837717136400
298252 57 18121503715613935592
3060560 45 18339081592089055732
4340502 62 17631998849868357666
46194498 28 18335416847066940069
5262128 65 18335430010846419657
7364860 26 18410859875381234293
81228 2 17546462080586835704
9709674 26 18408040715521387235
9999458 23 16370996455920996936

>  <PUBCHEM_SHAPE_MULTIPOLES>  (1) 
441.9
6.96
3.42
1.78
14.45
0.29
-0.74
-0.63
0.89
-4.33
2.29
-0.42
-0.3
0.18

>  <PUBCHEM_SHAPE_SELFOVERLAP>  (1) 
949.568

>  <PUBCHEM_SHAPE_VOLUME>  (1) 
242.3

>  <PUBCHEM_COORDINATE_TYPE>  (1) 
2
5
10

$$$$
