28385
     RDKit          3D

 23 26  0  0  0  0  0  0  0  0999 V2000
    1.1184   -0.1598    1.4266 O   0  0  0  0  0  0  0  0  0  0  0  0
    4.3385   -0.3633   -0.3354 N   0  0  0  0  0  0  0  0  0  0  0  0
   -0.2496   -0.0593    1.0279 C   0  0  0  0  0  0  0  0  0  0  0  0
   -2.5974    0.1135   -0.4604 C   0  0  0  0  0  0  0  0  0  0  0  0
   -1.1481   -0.0221    2.2940 C   0  0  0  0  0  0  0  0  0  0  0  0
   -3.3701    0.1248    0.8776 C   0  0  0  0  0  0  0  0  0  0  0  0
   -0.4493    1.2158    0.2049 C   0  0  0  0  0  0  0  0  0  0  0  0
   -0.6253   -1.2798    0.1858 C   0  0  0  0  0  0  0  0  0  0  0  0
   -2.5705    0.5431    2.1254 C   0  0  0  0  0  0  0  0  0  0  0  0
   -1.6461    1.2953   -0.5508 C   0  0  0  0  0  0  0  0  0  0  0  0
   -1.8142   -1.1832   -0.5664 C   0  0  0  0  0  0  0  0  0  0  0  0
    0.4431    2.2903    0.1892 C   0  0  0  0  0  0  0  0  0  0  0  0
    0.1143   -2.4660    0.1446 C   0  0  0  0  0  0  0  0  0  0  0  0
   -1.9296    2.4314   -1.3096 C   0  0  0  0  0  0  0  0  0  0  0  0
   -2.2471   -2.2565   -1.3492 C   0  0  0  0  0  0  0  0  0  0  0  0
    1.9799   -0.2094    0.3009 C   0  0  0  0  0  0  0  0  0  0  0  0
    0.1551    3.4210   -0.5781 C   0  0  0  0  0  0  0  0  0  0  0  0
   -0.3202   -3.5340   -0.6433 C   0  0  0  0  0  0  0  0  0  0  0  0
   -1.0238    3.4909   -1.3241 C   0  0  0  0  0  0  0  0  0  0  0  0
   -1.4956   -3.4294   -1.3880 C   0  0  0  0  0  0  0  0  0  0  0  0
    3.4174   -0.2927    0.7890 C   0  0  0  0  0  0  0  0  0  0  0  0
    5.7208   -0.4857    0.1340 C   0  0  0  0  0  0  0  0  0  0  0  0
    4.1992    0.8150   -1.1946 C   0  0  0  0  0  0  0  0  0  0  0  0
  1  3  1  0
  1 16  1  0
  2 21  1  0
  2 22  1  0
  2 23  1  0
  3  5  1  0
  3  7  1  0
  3  8  1  0
  4  6  1  0
  4 10  1  0
  4 11  1  0
  5  9  1  0
  6  9  1  0
  7 10  1  0
  7 12  2  0
  8 11  2  0
  8 13  1  0
 10 14  2  0
 11 15  1  0
 12 17  1  0
 13 18  2  0
 14 19  1  0
 15 20  2  0
 16 21  1  0
 17 19  2  0
 18 20  1  0
M  END
>  <PUBCHEM_COMPOUND_CID>  (1) 
28385

>  <PUBCHEM_CONFORMER_RMSD>  (1) 
0.8

>  <PUBCHEM_CONFORMER_DIVERSEORDER>  (1) 
1
2
3

>  <PUBCHEM_MMFF94_PARTIAL_CHARGES>  (1) 
28
1 -0.56
10 -0.14
11 -0.14
12 -0.15
13 -0.15
14 -0.15
15 -0.15
16 0.28
17 -0.15
18 -0.15
19 -0.15
2 -0.81
20 -0.15
21 0.27
22 0.27
23 0.27
3 0.57
31 0.15
32 0.15
33 0.15
34 0.15
37 0.15
38 0.15
39 0.15
4 0.29
40 0.15
7 -0.14
8 -0.14

>  <PUBCHEM_EFFECTIVE_ROTOR_COUNT>  (1) 
4.6

>  <PUBCHEM_PHARMACOPHORE_FEATURES>  (1) 
5
1 1 acceptor
1 2 cation
6 7 10 12 14 17 19 rings
6 8 11 13 15 18 20 rings
9 3 4 5 6 7 8 9 10 11 rings

>  <PUBCHEM_HEAVY_ATOM_COUNT>  (1) 
23

>  <PUBCHEM_ATOM_DEF_STEREO_COUNT>  (1) 
0

>  <PUBCHEM_ATOM_UDEF_STEREO_COUNT>  (1) 
0

>  <PUBCHEM_BOND_DEF_STEREO_COUNT>  (1) 
0

>  <PUBCHEM_BOND_UDEF_STEREO_COUNT>  (1) 
0

>  <PUBCHEM_ISOTOPIC_ATOM_COUNT>  (1) 
0

>  <PUBCHEM_COMPONENT_COUNT>  (1) 
1

>  <PUBCHEM_CACTVS_TAUTO_COUNT>  (1) 
1

>  <PUBCHEM_CONFORMER_ID>  (1) 
00006EE100000001

>  <PUBCHEM_MMFF94_ENERGY>  (1) 
97.423

>  <PUBCHEM_FEATURE_SELFOVERLAP>  (1) 
25.384

>  <PUBCHEM_SHAPE_FINGERPRINT>  (1) 
10165383 225 18129665184210386673
10906281 52 18043266651886022225
11221954 11 17611750002812438028
11578080 2 13229121724358546683
12173636 292 17773044055276793928
12403814 3 18408891715254970424
12422481 6 17902256441011446729
12553582 1 18263633112628039642
13761468 95 17462286834078228804
13994607 96 17676496020645448438
14142880 1 18272379624531653401
14713325 29 18191310364262285729
14790565 3 18339364071972757477
14910302 57 18059028198530577406
14955137 171 18266480826390170321
1601671 61 18337953386122521361
16945 1 18059555985117169587
17492 54 18044628972372321469
1813 80 18049990383841958875
18785283 64 17259634642485987801
21330990 113 18053969276147213825
23419403 2 17127572644407691345
23559900 14 17917705808812971338
23566358 27 17541673041722892699
23598288 3 18115014200449675370
238 59 17547840859419954895
2748010 2 17979625741674105739
2818148 4 17537466258436899442
4280585 95 17906428259353258998
463206 1 16255884473483746174
531348 171 18264487287888450330
6992083 37 18341343291512006417
81228 2 18196358441347194506
90525 40 18263076626573732580
9981440 41 17976525127426376080

>  <PUBCHEM_SHAPE_MULTIPOLES>  (1) 
462.48
6.22
4.09
1.69
12.69
0.06
-0.64
0.73
0.15
-2.24
2.67
-1.02
-0.11
-0.57

>  <PUBCHEM_SHAPE_SELFOVERLAP>  (1) 
1011.344

>  <PUBCHEM_SHAPE_VOLUME>  (1) 
249.4

>  <PUBCHEM_COORDINATE_TYPE>  (1) 
2
5
10

$$$$
