28386
     RDKit          3D

 22 24  0  0  0  0  0  0  0  0999 V2000
   -0.7345   -0.7200   -1.5420 O   0  0  0  0  0  0  0  0  0  0  0  0
    1.4570    1.1156    2.5374 O   0  0  0  0  0  0  0  0  0  0  0  0
   -3.1982   -2.2042    0.7437 N   0  0  0  0  0  0  0  0  0  0  0  0
    0.4252    0.1124   -1.3805 C   0  0  0  0  0  0  0  0  0  0  0  0
   -0.0574    1.3949   -0.7177 C   0  0  0  0  0  0  0  0  0  0  0  0
    1.5077   -0.6338   -0.6094 C   0  0  0  0  0  0  0  0  0  0  0  0
    0.3095    1.7383    0.5892 C   0  0  0  0  0  0  0  0  0  0  0  0
    1.8667   -0.2779    0.6963 C   0  0  0  0  0  0  0  0  0  0  0  0
    0.9499    0.4438   -2.7918 C   0  0  0  0  0  0  0  0  0  0  0  0
    1.2235    0.8728    1.3592 C   0  0  0  0  0  0  0  0  0  0  0  0
   -1.3301   -1.0072   -0.2903 C   0  0  0  0  0  0  0  0  0  0  0  0
   -0.9172    2.2707   -1.4110 C   0  0  0  0  0  0  0  0  0  0  0  0
    2.1577   -1.7404   -1.1922 C   0  0  0  0  0  0  0  0  0  0  0  0
   -0.1723    2.9130    1.1870 C   0  0  0  0  0  0  0  0  0  0  0  0
    2.8439   -1.0018    1.3963 C   0  0  0  0  0  0  0  0  0  0  0  0
   -2.5612   -1.8688   -0.5211 C   0  0  0  0  0  0  0  0  0  0  0  0
   -1.3946    3.4410   -0.8188 C   0  0  0  0  0  0  0  0  0  0  0  0
    3.1320   -2.4594   -0.4983 C   0  0  0  0  0  0  0  0  0  0  0  0
   -1.0230    3.7607    0.4814 C   0  0  0  0  0  0  0  0  0  0  0  0
    3.4743   -2.0898    0.7968 C   0  0  0  0  0  0  0  0  0  0  0  0
   -4.3603   -3.0690    0.5254 C   0  0  0  0  0  0  0  0  0  0  0  0
   -3.5987   -0.9909    1.4601 C   0  0  0  0  0  0  0  0  0  0  0  0
  1  4  1  0
  1 11  1  0
  2 10  2  0
  3 16  1  0
  3 21  1  0
  3 22  1  0
  4  5  1  0
  4  6  1  0
  4  9  1  0
  5  7  2  0
  5 12  1  0
  6  8  2  0
  6 13  1  0
  7 10  1  0
  7 14  1  0
  8 10  1  0
  8 15  1  0
 11 16  1  0
 12 17  2  0
 13 18  2  0
 14 19  2  0
 15 20  2  0
 17 19  1  0
 18 20  1  0
M  END
>  <PUBCHEM_COMPOUND_CID>  (1) 
28386

>  <PUBCHEM_CONFORMER_RMSD>  (1) 
0.6

>  <PUBCHEM_CONFORMER_DIVERSEORDER>  (1) 
1
2
3

>  <PUBCHEM_MMFF94_PARTIAL_CHARGES>  (1) 
29
1 -0.56
10 0.4
11 0.28
12 -0.15
13 -0.15
14 -0.15
15 -0.15
16 0.27
17 -0.15
18 -0.15
19 -0.15
2 -0.57
20 -0.15
21 0.27
22 0.27
28 0.15
29 0.15
3 -0.81
30 0.15
31 0.15
34 0.15
35 0.15
36 0.15
37 0.15
4 0.57
5 -0.14
6 -0.14
7 0.09
8 0.09

>  <PUBCHEM_EFFECTIVE_ROTOR_COUNT>  (1) 
4.2

>  <PUBCHEM_PHARMACOPHORE_FEATURES>  (1) 
6
1 1 acceptor
1 2 acceptor
1 3 cation
6 4 5 6 7 8 10 rings
6 5 7 12 14 17 19 rings
6 6 8 13 15 18 20 rings

>  <PUBCHEM_HEAVY_ATOM_COUNT>  (1) 
22

>  <PUBCHEM_ATOM_DEF_STEREO_COUNT>  (1) 
0

>  <PUBCHEM_ATOM_UDEF_STEREO_COUNT>  (1) 
0

>  <PUBCHEM_BOND_DEF_STEREO_COUNT>  (1) 
0

>  <PUBCHEM_BOND_UDEF_STEREO_COUNT>  (1) 
0

>  <PUBCHEM_ISOTOPIC_ATOM_COUNT>  (1) 
0

>  <PUBCHEM_COMPONENT_COUNT>  (1) 
1

>  <PUBCHEM_CACTVS_TAUTO_COUNT>  (1) 
1

>  <PUBCHEM_CONFORMER_ID>  (1) 
00006EE200000001

>  <PUBCHEM_MMFF94_ENERGY>  (1) 
77.3593

>  <PUBCHEM_FEATURE_SELFOVERLAP>  (1) 
30.485

>  <PUBCHEM_SHAPE_FINGERPRINT>  (1) 
10064457 181 17545608850741670506
10382601 240 18055642964514356256
10764073 3 13680726600720556558
11421498 54 17972629785130265215
11578080 2 17967242118067345533
11582403 64 16094678033914441213
12788726 201 18117300089134120947
13134695 92 18265321979757986847
14787075 74 17840846504750041333
14790565 3 17835230521467911224
14955137 171 17977671140728174194
15420108 30 17700969104964688767
16945 1 15403279666472456372
17921350 177 16751077817459415163
20600515 1 17389624662356543021
20645476 183 17762610695125379420
20723712 36 17693368254133552585
21452121 199 18188211004129032351
21452121 99 18121212078501684436
2255824 54 17833846240928606127
23419403 2 17610017464576429468
23559900 14 15835601127839840202
2748010 2 17266886214140416280
3380486 145 18053630802480124647
35225 105 17899962842907930441
3759504 43 17763462812315467366
4340502 62 17188705143394985881
497634 4 15042522398086427244
539174 4 16984027059184096194
5845 1 10985942210599463711
59554788 281 17189243908392266442
7097593 13 18197219367863586731
81228 2 18264193721713235709
8509985 295 18264227888921951971
8988823 20 17906731754891930303
9981440 41 17123901178036616114

>  <PUBCHEM_SHAPE_MULTIPOLES>  (1) 
436.03
5.19
4.38
2.08
0.23
1.16
0.33
-6.56
-1.7
5.01
-0.66
-0.67
0.64
0.94

>  <PUBCHEM_SHAPE_SELFOVERLAP>  (1) 
946.398

>  <PUBCHEM_SHAPE_VOLUME>  (1) 
238.7

>  <PUBCHEM_COORDINATE_TYPE>  (1) 
2
5
10

$$$$
