28398
     RDKit          3D

 10 11  0  0  0  0  0  0  0  0999 V2000
    3.4601    0.6837   -0.0006 Cl  0  0  0  0  0  0  0  0  0  0  0  0
   -2.1333   -0.8663   -0.0005 O   0  0  0  0  0  0  0  0  0  0  0  0
   -1.7251    1.3630    0.0000 N   0  0  0  0  0  0  0  0  0  0  0  0
   -0.5337    0.6787    0.0002 C   0  0  0  0  0  0  0  0  0  0  0  0
   -0.7797   -0.6864    0.0000 C   0  0  0  0  0  0  0  0  0  0  0  0
    0.7946    1.1280    0.0002 C   0  0  0  0  0  0  0  0  0  0  0  0
    0.2036   -1.6680    0.0001 C   0  0  0  0  0  0  0  0  0  0  0  0
    1.8154    0.1663    0.0003 C   0  0  0  0  0  0  0  0  0  0  0  0
    1.5232   -1.2032    0.0002 C   0  0  0  0  0  0  0  0  0  0  0  0
   -2.6250    0.4043    0.0001 C   0  0  0  0  0  0  0  0  0  0  0  0
  1  8  1  0
  2  5  1  0
  2 10  1  0
  3  4  1  0
  3 10  2  0
  4  5  2  0
  4  6  1  0
  5  7  1  0
  6  8  2  0
  7  9  2  0
  8  9  1  0
M  END
>  <PUBCHEM_COMPOUND_CID>  (1) 
28398

>  <PUBCHEM_CONFORMER_RMSD>  (1) 
0.4

>  <PUBCHEM_CONFORMER_DIVERSEORDER>  (1) 
1

>  <PUBCHEM_MMFF94_PARTIAL_CHARGES>  (1) 
14
1 -0.18
10 0.33
11 0.15
12 0.15
13 0.15
14 0.15
2 -0.28
3 -0.57
4 0.23
5 0.14
6 -0.15
7 -0.15
8 0.18
9 -0.15

>  <PUBCHEM_EFFECTIVE_ROTOR_COUNT>  (1) 
0

>  <PUBCHEM_PHARMACOPHORE_FEATURES>  (1) 
2
5 2 3 4 5 10 rings
6 4 5 6 7 8 9 rings

>  <PUBCHEM_HEAVY_ATOM_COUNT>  (1) 
10

>  <PUBCHEM_ATOM_DEF_STEREO_COUNT>  (1) 
0

>  <PUBCHEM_ATOM_UDEF_STEREO_COUNT>  (1) 
0

>  <PUBCHEM_BOND_DEF_STEREO_COUNT>  (1) 
0

>  <PUBCHEM_BOND_UDEF_STEREO_COUNT>  (1) 
0

>  <PUBCHEM_ISOTOPIC_ATOM_COUNT>  (1) 
0

>  <PUBCHEM_COMPONENT_COUNT>  (1) 
1

>  <PUBCHEM_CACTVS_TAUTO_COUNT>  (1) 
1

>  <PUBCHEM_CONFORMER_ID>  (1) 
00006EEE00000001

>  <PUBCHEM_MMFF94_ENERGY>  (1) 
15.2859

>  <PUBCHEM_FEATURE_SELFOVERLAP>  (1) 
10.267

>  <PUBCHEM_SHAPE_FINGERPRINT>  (1) 
12897270 3 18411699880784490556
13380535 76 18409727361208963930
14325111 11 18410856564356899424
16945 1 18410574023811457542
193761 8 17762055437247447076
20645464 45 17988351685174953000
20871998 184 18056485186237275486
21040471 1 18410855473218882950
23235685 24 18410006650163170568
23402655 69 18268412565768900773
23463225 33 18334008355418042754
23552423 10 18262802839367221534
241688 4 16395217210668634042
2748010 2 18338519616692095422
29004967 10 18259993643003086073
369184 2 16153421766163482016
5084963 1 18202004381852198864
528886 8 18410851062086977561
53812653 166 18343579655292513624

>  <PUBCHEM_SHAPE_MULTIPOLES>  (1) 
196.81
4
1.55
0.6
1.44
0.32
0
-1.04
0
-0.01
0
0.05
0
0

>  <PUBCHEM_SHAPE_SELFOVERLAP>  (1) 
425.262

>  <PUBCHEM_SHAPE_VOLUME>  (1) 
111.3

>  <PUBCHEM_COORDINATE_TYPE>  (1) 
2
5
10

$$$$
