28395
     RDKit          3D

 15 15  0  0  0  0  0  0  0  0999 V2000
    0.8781   -3.6435   -0.0024 Br  0  0  0  0  0  0  0  0  0  0  0  0
    2.8017   -1.2098   -0.0005 O   0  0  0  0  0  0  0  0  0  0  0  0
    1.8457    2.7293   -0.0030 O   0  0  0  0  0  0  0  0  0  0  0  0
    3.3813    1.1605    0.0000 O   0  0  0  0  0  0  0  0  0  0  0  0
    2.1807    1.5212   -0.0004 N   0  0  0  0  0  0  0  0  0  0  0  0
   -2.6153    0.3860   -0.0004 C   0  0  0  0  0  0  0  0  0  0  0  0
   -1.1409   -0.0504    0.0017 C   0  0  0  0  0  0  0  0  0  0  0  0
   -2.9053    1.2302   -1.2603 C   0  0  0  0  0  0  0  0  0  0  0  0
   -2.9083    1.2331    1.2569 C   0  0  0  0  0  0  0  0  0  0  0  0
   -3.6159   -0.7919    0.0000 C   0  0  0  0  0  0  0  0  0  0  0  0
   -0.1733    0.9227    0.0026 C   0  0  0  0  0  0  0  0  0  0  0  0
   -0.8598   -1.3936    0.0008 C   0  0  0  0  0  0  0  0  0  0  0  0
    1.1641    0.5263    0.0026 C   0  0  0  0  0  0  0  0  0  0  0  0
    0.4776   -1.7901    0.0007 C   0  0  0  0  0  0  0  0  0  0  0  0
    1.4896   -0.8301    0.0017 C   0  0  0  0  0  0  0  0  0  0  0  0
  1 14  1  0
  2 15  1  0
  3  5  1  0
  4  5  2  0
  5 13  1  0
  6  7  1  0
  6  8  1  0
  6  9  1  0
  6 10  1  0
  7 11  2  0
  7 12  1  0
 11 13  1  0
 12 14  2  0
 13 15  2  0
 14 15  1  0
M  CHG  2   3  -1   5   1
M  END
>  <PUBCHEM_COMPOUND_CID>  (1) 
28395

>  <PUBCHEM_CONFORMER_RMSD>  (1) 
0.6

>  <PUBCHEM_CONFORMER_DIVERSEORDER>  (1) 
1
2

>  <PUBCHEM_MMFF94_PARTIAL_CHARGES>  (1) 
15
1 -0.11
11 -0.15
12 -0.15
13 0.13
14 0.11
15 0.08
2 -0.53
25 0.15
26 0.15
27 0.45
3 -0.52
4 -0.52
5 0.91
6 0.14
7 -0.14

>  <PUBCHEM_EFFECTIVE_ROTOR_COUNT>  (1) 
2

>  <PUBCHEM_PHARMACOPHORE_FEATURES>  (1) 
7
1 1 hydrophobe
1 2 donor
1 3 acceptor
1 3 anion
1 4 acceptor
4 6 8 9 10 hydrophobe
6 7 11 12 13 14 15 rings

>  <PUBCHEM_HEAVY_ATOM_COUNT>  (1) 
15

>  <PUBCHEM_ATOM_DEF_STEREO_COUNT>  (1) 
0

>  <PUBCHEM_ATOM_UDEF_STEREO_COUNT>  (1) 
0

>  <PUBCHEM_BOND_DEF_STEREO_COUNT>  (1) 
0

>  <PUBCHEM_BOND_UDEF_STEREO_COUNT>  (1) 
0

>  <PUBCHEM_ISOTOPIC_ATOM_COUNT>  (1) 
0

>  <PUBCHEM_COMPONENT_COUNT>  (1) 
1

>  <PUBCHEM_CACTVS_TAUTO_COUNT>  (1) 
4

>  <PUBCHEM_CONFORMER_ID>  (1) 
00006EEB00000001

>  <PUBCHEM_MMFF94_ENERGY>  (1) 
54.484

>  <PUBCHEM_FEATURE_SELFOVERLAP>  (1) 
35.602

>  <PUBCHEM_SHAPE_FINGERPRINT>  (1) 
1 1 18410292501590353726
10608611 8 18334007260053884197
10967382 1 18410573980956983458
11471102 20 18410570644025753541
12553582 1 17547015126330685831
12932764 1 17895479116125789115
13140716 1 18411138034753904082
13380535 76 18339641269082172814
14178342 30 18270109098776972515
14325111 11 18410575102112148833
14648413 74 18263359188314260761
15219456 202 18260825969443063213
15309172 13 18337679723205642281
15442244 35 17837213671345256537
15775835 57 18412268358677501781
16945 1 18266459797919214659
17990270 104 18265330599678208731
18186145 218 18342182150069707036
20510252 161 17837776990301790656
20645477 70 18336537232209673279
21041028 32 17545615447906382963
21160774 45 18048869990531543815
21501502 16 18411419535574284115
21524375 3 18263081174865049338
21639500 275 18338785745961699597
2334 1 18338234993515036002
23419403 2 14279299699857376379
23552423 10 18341049619065662119
23557571 272 17332823041515486700
25 1 18336270041729400740
2748010 2 18336835293769747726
352729 6 18050851310168265198
458136 41 18264514860538805819
63268167 104 18411698751392837953
7364860 26 18339643326113181199
74978 22 18195528082787936151
7832392 63 17982456992642409625
81228 2 17473259254751854506

>  <PUBCHEM_SHAPE_MULTIPOLES>  (1) 
292.05
5.08
3.15
0.83
2.28
1.52
0
-1.12
0
-2.78
0
0.69
-0.15
0

>  <PUBCHEM_SHAPE_SELFOVERLAP>  (1) 
597.546

>  <PUBCHEM_SHAPE_VOLUME>  (1) 
176.2

>  <PUBCHEM_COORDINATE_TYPE>  (1) 
2
5
10

$$$$
