28394
     RDKit          3D

 19 19  0  0  0  0  0  0  0  0999 V2000
    2.1130   -3.4130   -0.9844 Br  0  0  0  0  0  0  0  0  0  0  0  0
    3.5459   -0.6665   -0.8287 O   0  0  0  0  0  0  0  0  0  0  0  0
    2.0940    2.8238    0.6322 O   0  0  0  0  0  0  0  0  0  0  0  0
    3.7433    1.7001   -0.2925 O   0  0  0  0  0  0  0  0  0  0  0  0
    2.5810    1.7653    0.1714 N   0  0  0  0  0  0  0  0  0  0  0  0
   -1.6973   -0.4276    1.2541 C   0  0  0  0  0  0  0  0  0  0  0  0
   -2.8396    0.6426   -1.0065 C   0  0  0  0  0  0  0  0  0  0  0  0
   -2.5931    0.6475    0.5383 C   0  0  0  0  0  0  0  0  0  0  0  0
   -0.2657   -0.4952    0.6850 C   0  0  0  0  0  0  0  0  0  0  0  0
   -1.5621    0.0137    2.7405 C   0  0  0  0  0  0  0  0  0  0  0  0
   -2.4174   -1.7922    1.2914 C   0  0  0  0  0  0  0  0  0  0  0  0
   -3.6812    1.9001   -1.3372 C   0  0  0  0  0  0  0  0  0  0  0  0
   -3.6707   -0.5767   -1.4512 C   0  0  0  0  0  0  0  0  0  0  0  0
   -1.5559    0.7094   -1.8425 C   0  0  0  0  0  0  0  0  0  0  0  0
    0.4870    0.6497    0.6905 C   0  0  0  0  0  0  0  0  0  0  0  0
    0.1824   -1.6967    0.2022 C   0  0  0  0  0  0  0  0  0  0  0  0
    1.7820    0.5886    0.1758 C   0  0  0  0  0  0  0  0  0  0  0  0
    1.4773   -1.7578   -0.3126 C   0  0  0  0  0  0  0  0  0  0  0  0
    2.2772   -0.6151   -0.3259 C   0  0  0  0  0  0  0  0  0  0  0  0
  1 18  1  0
  2 19  1  0
  3  5  1  0
  4  5  2  0
  5 17  1  0
  6  8  1  0
  6  9  1  0
  6 10  1  0
  6 11  1  0
  7  8  1  0
  7 12  1  0
  7 13  1  0
  7 14  1  0
  9 15  2  0
  9 16  1  0
 15 17  1  0
 16 18  2  0
 17 19  2  0
 18 19  1  0
M  CHG  2   3  -1   5   1
M  END
>  <PUBCHEM_COMPOUND_CID>  (1) 
28394

>  <PUBCHEM_CONFORMER_RMSD>  (1) 
0.6

>  <PUBCHEM_CONFORMER_DIVERSEORDER>  (1) 
2
9
11
4
7
6
5
12
10
8
3
1

>  <PUBCHEM_MMFF94_PARTIAL_CHARGES>  (1) 
15
1 -0.11
15 -0.15
16 -0.15
17 0.13
18 0.11
19 0.08
2 -0.53
3 -0.52
37 0.15
38 0.15
39 0.45
4 -0.52
5 0.91
6 0.14
9 -0.14

>  <PUBCHEM_EFFECTIVE_ROTOR_COUNT>  (1) 
4

>  <PUBCHEM_PHARMACOPHORE_FEATURES>  (1) 
8
1 1 hydrophobe
1 2 donor
1 3 acceptor
1 3 anion
1 4 acceptor
3 6 10 11 hydrophobe
4 7 12 13 14 hydrophobe
6 9 15 16 17 18 19 rings

>  <PUBCHEM_HEAVY_ATOM_COUNT>  (1) 
19

>  <PUBCHEM_ATOM_DEF_STEREO_COUNT>  (1) 
0

>  <PUBCHEM_ATOM_UDEF_STEREO_COUNT>  (1) 
0

>  <PUBCHEM_BOND_DEF_STEREO_COUNT>  (1) 
0

>  <PUBCHEM_BOND_UDEF_STEREO_COUNT>  (1) 
0

>  <PUBCHEM_ISOTOPIC_ATOM_COUNT>  (1) 
0

>  <PUBCHEM_COMPONENT_COUNT>  (1) 
1

>  <PUBCHEM_CACTVS_TAUTO_COUNT>  (1) 
4

>  <PUBCHEM_CONFORMER_ID>  (1) 
00006EEA00000002

>  <PUBCHEM_MMFF94_ENERGY>  (1) 
77.7786

>  <PUBCHEM_FEATURE_SELFOVERLAP>  (1) 
40.675

>  <PUBCHEM_SHAPE_FINGERPRINT>  (1) 
10871710 139 15954432495319292012
11221954 11 17967810595622668213
11578080 2 17825705224533694365
12077114 3 18114736165763010528
121448 382 17558253591244099458
12553582 1 17693118283101141070
12730499 353 18334859390397762723
13009979 54 17059212514611151743
13294875 104 17388238070745706779
13464514 151 18189611644588248292
13583140 156 17823405179895802880
13764800 53 17022911120776685561
14115302 16 17202179847502849239
14614273 12 18194129735451242923
14817 1 15673298826826786419
15219456 202 18333736835568804304
15534591 1 13264693498023454006
15664445 248 16549120741778445053
16945 1 18269854050675933602
17349148 13 18060126653185129866
18186145 218 18271258200149524812
18219364 16 18337964488116810744
21069387 34 17915456086819399911
21160774 45 17910677896931862463
21486144 27 18334868190437592841
21524375 3 18121790692712563442
21639500 275 18342740723630580890
21731516 1 15194988492933419783
21756936 100 11822143047423359126
21947302 44 18261377911031139065
22112679 90 16415487025470120883
22802520 49 18261114032667380303
23114952 82 18337391547774020998
232386 152 15769194060630447127
23419403 2 17972629639233317443
23493267 7 17022913341116424784
23526113 38 18189898604222586210
23557571 272 17676783062337975227
23559900 14 17386011607846530954
23598291 2 17417266324596515044
23598294 1 15214460787884281425
238 59 18340192085520621477
25 1 18044655300326549357
2748010 2 18267033927999470786
427121 178 16951123937916786413
5845 1 17462036389839115827
6049 1 17897471456701632387
621550 34 18264220277733709059
621550 5 17104310139460069691
633830 44 17702131190488159552
6992083 37 17055286077015256691
77492 1 17275110474710088347
81228 2 17096102384512298571

>  <PUBCHEM_SHAPE_MULTIPOLES>  (1) 
374.36
6.08
2.83
1.85
0.64
0.38
0.65
-1.12
-2.7
-2.85
-0.39
1.87
0.16
1.34

>  <PUBCHEM_SHAPE_SELFOVERLAP>  (1) 
758.722

>  <PUBCHEM_SHAPE_VOLUME>  (1) 
226.6

>  <PUBCHEM_COORDINATE_TYPE>  (1) 
2
5
10

$$$$
