28401
     RDKit          3D

 16 18  0  0  0  0  0  0  0  0999 V2000
   -1.5360    3.1399    0.0005 Cl  0  0  0  0  0  0  0  0  0  0  0  0
    1.5361    3.1400   -0.0004 Cl  0  0  0  0  0  0  0  0  0  0  0  0
   -0.7200   -0.8416    0.0000 C   0  0  0  0  0  0  0  0  0  0  0  0
    0.7200   -0.8414    0.0001 C   0  0  0  0  0  0  0  0  0  0  0  0
   -1.4122    0.3977    0.0000 C   0  0  0  0  0  0  0  0  0  0  0  0
    1.4124    0.3976    0.0001 C   0  0  0  0  0  0  0  0  0  0  0  0
   -0.6954    1.5970    0.0000 C   0  0  0  0  0  0  0  0  0  0  0  0
    0.6956    1.5970    0.0002 C   0  0  0  0  0  0  0  0  0  0  0  0
   -1.5156   -2.0148    0.0001 C   0  0  0  0  0  0  0  0  0  0  0  0
    1.5151   -2.0148    0.0002 C   0  0  0  0  0  0  0  0  0  0  0  0
   -2.8172    0.4318   -0.0003 C   0  0  0  0  0  0  0  0  0  0  0  0
    2.8174    0.4315   -0.0001 C   0  0  0  0  0  0  0  0  0  0  0  0
   -2.9122   -1.9667    0.0001 C   0  0  0  0  0  0  0  0  0  0  0  0
    2.9118   -1.9670    0.0000 C   0  0  0  0  0  0  0  0  0  0  0  0
   -3.5630   -0.7429   -0.0003 C   0  0  0  0  0  0  0  0  0  0  0  0
    3.5631   -0.7433   -0.0002 C   0  0  0  0  0  0  0  0  0  0  0  0
  1  7  1  0
  2  8  1  0
  3  4  2  0
  3  5  1  0
  3  9  1  0
  4  6  1  0
  4 10  1  0
  5  7  2  0
  5 11  1  0
  6  8  2  0
  6 12  1  0
  7  8  1  0
  9 13  2  0
 10 14  2  0
 11 15  2  0
 12 16  2  0
 13 15  1  0
 14 16  1  0
M  END
>  <PUBCHEM_COMPOUND_CID>  (1) 
28401

>  <PUBCHEM_CONFORMER_RMSD>  (1) 
0.4

>  <PUBCHEM_CONFORMER_DIVERSEORDER>  (1) 
1

>  <PUBCHEM_MMFF94_PARTIAL_CHARGES>  (1) 
20
1 -0.18
10 -0.15
11 -0.15
12 -0.15
13 -0.15
14 -0.15
15 -0.15
16 -0.15
17 0.15
18 0.15
19 0.15
2 -0.18
20 0.15
21 0.15
22 0.15
23 0.15
24 0.15
7 0.18
8 0.18
9 -0.15

>  <PUBCHEM_EFFECTIVE_ROTOR_COUNT>  (1) 
0

>  <PUBCHEM_PHARMACOPHORE_FEATURES>  (1) 
3
6 3 4 5 6 7 8 rings
6 3 5 9 11 13 15 rings
6 4 6 10 12 14 16 rings

>  <PUBCHEM_HEAVY_ATOM_COUNT>  (1) 
16

>  <PUBCHEM_ATOM_DEF_STEREO_COUNT>  (1) 
0

>  <PUBCHEM_ATOM_UDEF_STEREO_COUNT>  (1) 
0

>  <PUBCHEM_BOND_DEF_STEREO_COUNT>  (1) 
0

>  <PUBCHEM_BOND_UDEF_STEREO_COUNT>  (1) 
0

>  <PUBCHEM_ISOTOPIC_ATOM_COUNT>  (1) 
0

>  <PUBCHEM_COMPONENT_COUNT>  (1) 
1

>  <PUBCHEM_CACTVS_TAUTO_COUNT>  (1) 
1

>  <PUBCHEM_CONFORMER_ID>  (1) 
00006EF100000001

>  <PUBCHEM_MMFF94_ENERGY>  (1) 
60.6967

>  <PUBCHEM_FEATURE_SELFOVERLAP>  (1) 
15.272

>  <PUBCHEM_SHAPE_FINGERPRINT>  (1) 
10319926 262 17907550577769866810
10967382 1 18122625230015894117
11132069 177 18412257324737739434
11471102 20 18338229466076736071
11578080 2 17273385423098261049
12553582 1 18410579487004700238
13140716 1 18266178520400100345
13583140 156 14117510983446450095
138480 1 14879751447796668421
15001771 113 18411705391306815049
15042514 8 17976823077639398546
15196674 1 18410573989446678287
15442244 35 18411702049727124803
15536298 74 18199752620925490144
16945 1 18410856563934886788
193761 8 18410855464423609796
19591789 44 17689722282571762084
19868273 325 18337110055801972686
20510252 161 18199465459148270944
20645477 70 18192138524694703439
21267235 1 18410583885051711522
21501502 16 18339366270673291556
221490 88 18119534485904197443
22721475 48 18410859862469750630
2334 1 17978511167211108676
23402539 116 18270104708987949951
23463225 33 18410576222845405575
23526114 1 18122906700697631084
23557571 272 18128543674229469382
23559900 14 17838612259364714118
2748010 2 18050004686029969076
3091708 16 9210391756681184024
335352 9 18338798897119840117
34934 24 18410845564523804138
352729 6 17690278205499530305
427121 178 15765034505411288697
43471831 8 17761488492773896120
54173680 148 18122344575652367042
7364860 26 18268430324682962216
81228 2 18337961064732359849
8809292 202 18261115196445736427
9709674 26 18198623229221123502

>  <PUBCHEM_SHAPE_MULTIPOLES>  (1) 
333.01
5.19
3.44
0.62
0
2.37
0
-2.38
0
0
0
0
0.02
0

>  <PUBCHEM_SHAPE_SELFOVERLAP>  (1) 
731.838

>  <PUBCHEM_SHAPE_VOLUME>  (1) 
171.7

>  <PUBCHEM_COORDINATE_TYPE>  (1) 
2
5
10

$$$$
