28406
     RDKit          3D

 16 17  0  0  1  0  0  0  0  0999 V2000
    2.4658   -1.0318   -1.5026 O   0  0  0  0  0  0  0  0  0  0  0  0
    3.5789   -0.8639    0.6282 O   0  0  0  0  0  0  0  0  0  0  0  0
   -1.0914    2.8499   -1.0700 O   0  0  0  0  0  0  0  0  0  0  0  0
   -2.5986   -0.0986    0.5861 N   0  0  0  0  0  0  0  0  0  0  0  0
   -3.2639   -2.2492    1.1264 N   0  0  0  0  0  0  0  0  0  0  0  0
   -3.3650   -1.6579   -1.0725 N   0  0  0  0  0  0  0  0  0  0  0  0
   -1.2638    1.8585   -0.0488 C   0  0  0  0  0  0  0  0  0  0  0  0
    0.0293    1.1457    0.1663 C   0  0  0  0  0  0  0  0  0  0  0  0
    1.7809   -0.2528   -0.6215 C   0  0  0  0  0  0  0  0  0  0  0  0
    0.5840    0.3879   -0.8679 C   0  0  0  0  0  0  0  0  0  0  0  0
    2.4165   -0.1571    0.5953 C   0  0  0  0  0  0  0  0  0  0  0  0
   -2.3974    0.9080   -0.4618 C   0  0  0  0  0  0  0  0  0  0  0  0
    0.6789    1.2435    1.4095 C   0  0  0  0  0  0  0  0  0  0  0  0
    1.8903    0.5846    1.6328 C   0  0  0  0  0  0  0  0  0  0  0  0
    3.6041   -1.4149   -0.7042 C   0  0  0  0  0  0  0  0  0  0  0  0
   -3.0484   -1.2518    0.2047 C   0  0  0  0  0  0  0  0  0  0  0  0
  1  9  1  0
  1 15  1  0
  2 11  1  0
  2 15  1  0
  3  7  1  0
  4 12  1  0
  4 16  2  3
  5 16  1  0
  6 16  1  0
  7  8  1  0
  7 12  1  0
  8 10  1  0
  8 13  2  0
  9 10  2  0
  9 11  1  0
 11 14  2  0
 13 14  1  0
M  END
>  <PUBCHEM_COMPOUND_CID>  (1) 
28406

>  <PUBCHEM_CONFORMER_RMSD>  (1) 
0.6

>  <PUBCHEM_CONFORMER_DIVERSEORDER>  (1) 
7
1
34
30
35
32
8
26
15
20
48
31
45
9
21
27
28
14
25
42
5
10
39
19
47
37
40
13
2
38
49
18
22
3
44
23
36
11
17
33
41
43
29
4
16
24
46
12
6

>  <PUBCHEM_MMFF94_PARTIAL_CHARGES>  (1) 
24
1 -0.36
10 -0.15
11 0.08
12 0.25
13 -0.15
14 -0.15
15 0.56
16 0.55
18 0.15
2 -0.36
21 0.15
22 0.15
25 0.4
26 0.4
27 0.4
28 0.4
29 0.4
3 -0.68
4 -0.7
5 -0.85
6 -0.85
7 0.42
8 -0.14
9 0.08

>  <PUBCHEM_EFFECTIVE_ROTOR_COUNT>  (1) 
3.6

>  <PUBCHEM_PHARMACOPHORE_FEATURES>  (1) 
9
1 1 acceptor
1 2 acceptor
1 3 acceptor
1 3 donor
1 5 donor
1 6 donor
4 4 5 6 16 cation
5 1 2 9 11 15 rings
6 8 9 10 11 13 14 rings

>  <PUBCHEM_HEAVY_ATOM_COUNT>  (1) 
16

>  <PUBCHEM_ATOM_DEF_STEREO_COUNT>  (1) 
0

>  <PUBCHEM_ATOM_UDEF_STEREO_COUNT>  (1) 
1

>  <PUBCHEM_BOND_DEF_STEREO_COUNT>  (1) 
0

>  <PUBCHEM_BOND_UDEF_STEREO_COUNT>  (1) 
0

>  <PUBCHEM_ISOTOPIC_ATOM_COUNT>  (1) 
0

>  <PUBCHEM_COMPONENT_COUNT>  (1) 
1

>  <PUBCHEM_CACTVS_TAUTO_COUNT>  (1) 
2

>  <PUBCHEM_CONFORMER_ID>  (1) 
00006EF600000007

>  <PUBCHEM_MMFF94_ENERGY>  (1) 
45.384

>  <PUBCHEM_FEATURE_SELFOVERLAP>  (1) 
45.882

>  <PUBCHEM_SHAPE_FINGERPRINT>  (1) 
10618630 7 18336830883096732611
11471102 22 17275097315056867912
11543360 7 18189070724223390286
11582403 64 15965590996400531992
12202030 40 18201431467569505961
12363563 72 18263078967494848595
12500047 106 17975687295165736588
15501101 241 17916866944731077872
16752209 62 17896303737246932733
16945 1 18191024495581581668
17844478 74 18060135410354336304
18186145 218 14057012585347613682
20281407 28 18343586217791298180
20361792 2 18261677077342145205
20645477 70 17684645816339076563
20711985 344 18261663775844604561
20871998 22 18337391672776530201
21061003 4 17346319258751194560
21452121 199 18263080075248069453
22721475 48 18343587347473224491
23402539 116 16371575778764185886
23557571 272 18335689546835270256
23559900 14 18053940655176314570
3797600 57 14330591088496326467
568465 68 17632290151456103570
81228 2 18336822009932046177
8809292 202 18199468766241316484

>  <PUBCHEM_SHAPE_MULTIPOLES>  (1) 
296.72
6.07
2.27
1.39
0.43
0.33
-0.17
-4.61
-0.04
1.74
0.29
-0.33
0.04
1.13

>  <PUBCHEM_SHAPE_SELFOVERLAP>  (1) 
632.414

>  <PUBCHEM_SHAPE_VOLUME>  (1) 
164.1

>  <PUBCHEM_COORDINATE_TYPE>  (1) 
2
5
10

$$$$
