28404
     RDKit          3D

 29 32  0  0  1  0  0  0  0  0999 V2000
    3.6429    0.4880    0.7767 O   0  0  0  0  0  0  0  0  0  0  0  0
    1.7926    0.4070   -0.6420 O   0  0  0  0  0  0  0  0  0  0  0  0
    5.8300   -1.9248   -1.7258 O   0  0  0  0  0  0  0  0  0  0  0  0
    7.1732   -0.3638    0.3030 O   0  0  0  0  0  0  0  0  0  0  0  0
    3.4690   -0.4844   -2.7410 O   0  0  0  0  0  0  0  0  0  0  0  0
    4.9332   -0.4939    3.0149 O   0  0  0  0  0  0  0  0  0  0  0  0
   -0.7619   -0.0059    0.1939 O   0  0  0  0  0  0  0  0  0  0  0  0
   -4.4255   -3.0944    0.5053 O   0  0  0  0  0  0  0  0  0  0  0  0
   -5.3799    1.3576   -0.4518 O   0  0  0  0  0  0  0  0  0  0  0  0
   -3.3621    3.0228   -0.6157 O   0  0  0  0  0  0  0  0  0  0  0  0
    5.3374   -0.6803   -1.2265 C   0  0  0  0  0  0  0  0  0  0  0  0
    5.7626   -0.5562    0.2368 C   0  0  0  0  0  0  0  0  0  0  0  0
    3.8154   -0.6431   -1.3654 C   0  0  0  0  0  0  0  0  0  0  0  0
    5.0588    0.6255    0.9082 C   0  0  0  0  0  0  0  0  0  0  0  0
    3.2138    0.5238   -0.5824 C   0  0  0  0  0  0  0  0  0  0  0  0
    5.3774    0.7007    2.3980 C   0  0  0  0  0  0  0  0  0  0  0  0
    1.1505    1.4549    0.0624 C   0  0  0  0  0  0  0  0  0  0  0  0
   -0.3343    1.2924   -0.0268 C   0  0  0  0  0  0  0  0  0  0  0  0
   -3.0623    0.7125   -0.1353 C   0  0  0  0  0  0  0  0  0  0  0  0
   -2.1098   -0.2727    0.1369 C   0  0  0  0  0  0  0  0  0  0  0  0
   -1.1508    2.3209   -0.2960 C   0  0  0  0  0  0  0  0  0  0  0  0
   -2.6060    2.0929   -0.3702 C   0  0  0  0  0  0  0  0  0  0  0  0
   -4.4327    0.4093   -0.1874 C   0  0  0  0  0  0  0  0  0  0  0  0
   -4.8302   -0.9206    0.0428 C   0  0  0  0  0  0  0  0  0  0  0  0
   -3.8528   -1.8730    0.3109 C   0  0  0  0  0  0  0  0  0  0  0  0
   -2.4870   -1.6000    0.3683 C   0  0  0  0  0  0  0  0  0  0  0  0
   -6.0674   -1.6168    0.0793 C   0  0  0  0  0  0  0  0  0  0  0  0
   -5.7663   -2.9287    0.3629 C   0  0  0  0  0  0  0  0  0  0  0  0
   -5.9279    2.0502    0.6659 C   0  0  0  0  0  0  0  0  0  0  0  0
  1 14  1  0
  1 15  1  0
  2 15  1  0
  2 17  1  0
  3 11  1  0
  4 12  1  0
  5 13  1  0
  6 16  1  0
  7 18  1  0
  7 20  1  0
  8 25  1  0
  8 28  1  0
  9 23  1  0
  9 29  1  0
 10 22  2  0
 11 12  1  0
 11 13  1  0
 12 14  1  0
 13 15  1  0
 14 16  1  0
 17 18  1  0
 18 21  2  0
 19 20  2  0
 19 22  1  0
 19 23  1  0
 20 26  1  0
 21 22  1  0
 23 24  2  0
 24 25  1  0
 24 27  1  0
 25 26  2  0
 27 28  2  0
M  END
>  <PUBCHEM_COMPOUND_CID>  (1) 
28404

>  <PUBCHEM_CONFORMER_RMSD>  (1) 
0.8

>  <PUBCHEM_CONFORMER_DIVERSEORDER>  (1) 
6
322
12
83
352
196
132
295
145
294
7
251
238
262
182
99
341
213
375
291
130
290
288
187
363
19
179
4
183
52
244
117
139
218
346
301
210
383
115
85
311
159
181
289
90
249
372
215
368
188
17
381
271
27
24
133
30
82
299
367
231
333
325
116
227
320
277
234
35
84
305
360
297
126
228
263
173
36
176
15
376
245
212
96
221
282
70
43
362
260
134
355
374
255
57
246
217
37
369
190
310
356
370
258
51
153
167
91
358
143
22
2
222
229
58
300
88
223
293
64
44
201
259
265
67
302
129
86
199
41
110
16
380
331
108
175
162
140
241
316
371
195
109
224
124
279
332
68
93
164
216
220
149
275
42
378
101
191
112
144
18
240
174
379
382
168
272
206
377
135
327
312
359
328
48
323
1
72
198
8
148
113
204
230
47
386
123
235
202
274
257
351
97
76
107
169
237
318
128
114
264
94
120
211
53
252
136
348
26
339
89
194
298
74
156
29
276
166
385
242
232
31
364
11
106
150
75
336
121
180
13
197
337
3
79
226
111
60
146
292
170
157
349
233
296
250
163
343
278
61
315
32
155
266
184
209
387
23
98
66
236
38
225
270
178
81
207
50
118
14
46
189
73
131
253
102
33
304
40
283
388
338
160
87
54
77
285
280
100
269
9
95
186
313
63
34
203
20
104
208
171
138
152
55
309
39
122
205
335
147
80
306
56
340
319
65
142
254
154
357
185
373
105
59
172
69
267
243
21
284
78
314
28
5
334
239
200
287
177
342
141
366
71
158
119
350
62
161
49
127
330
329
25
137
10
353
365
125
193
256
303
286
165
384
92
45
307
326
268
354
103
151
248
361
324
261
214
317
273
321
219
192
247
281
344
345
308
347

>  <PUBCHEM_MMFF94_PARTIAL_CHARGES>  (1) 
36
1 -0.56
10 -0.57
11 0.28
12 0.28
13 0.28
14 0.28
15 0.56
16 0.28
17 0.42
18 -0.06
19 0.09
2 -0.56
20 0.08
21 -0.14
22 0.47
23 0.08
25 0.14
26 -0.15
27 -0.15
28 -0.01
29 0.28
3 -0.68
37 0.4
38 0.4
39 0.4
4 -0.68
42 0.4
43 0.15
44 0.15
45 0.15
46 0.15
5 -0.68
6 -0.68
7 -0.16
8 -0.28
9 -0.36

>  <PUBCHEM_EFFECTIVE_ROTOR_COUNT>  (1) 
6.2

>  <PUBCHEM_PHARMACOPHORE_FEATURES>  (1) 
18
1 1 acceptor
1 10 acceptor
1 2 acceptor
1 3 acceptor
1 3 donor
1 4 acceptor
1 4 donor
1 5 acceptor
1 5 donor
1 6 acceptor
1 6 donor
1 7 acceptor
1 8 acceptor
1 9 acceptor
5 8 24 25 27 28 rings
6 1 11 12 13 14 15 rings
6 19 20 23 24 25 26 rings
6 7 18 19 20 21 22 rings

>  <PUBCHEM_HEAVY_ATOM_COUNT>  (1) 
29

>  <PUBCHEM_ATOM_DEF_STEREO_COUNT>  (1) 
0

>  <PUBCHEM_ATOM_UDEF_STEREO_COUNT>  (1) 
5

>  <PUBCHEM_BOND_DEF_STEREO_COUNT>  (1) 
0

>  <PUBCHEM_BOND_UDEF_STEREO_COUNT>  (1) 
0

>  <PUBCHEM_ISOTOPIC_ATOM_COUNT>  (1) 
0

>  <PUBCHEM_COMPONENT_COUNT>  (1) 
1

>  <PUBCHEM_CACTVS_TAUTO_COUNT>  (1) 
1

>  <PUBCHEM_CONFORMER_ID>  (1) 
00006EF400000006

>  <PUBCHEM_MMFF94_ENERGY>  (1) 
83.0412

>  <PUBCHEM_FEATURE_SELFOVERLAP>  (1) 
91.567

>  <PUBCHEM_SHAPE_FINGERPRINT>  (1) 
10 15 18130776894404918496
10319926 262 18341607114020403209
10411042 1 18192151715140493651
11524674 6 17489868250232093783
12166972 35 17312818320642719780
12236239 1 17458346334047606292
12342043 65 17917160399162783822
12616971 3 16950564372123099453
13402501 40 18272656752848960278
13782708 43 18131350829750896766
14294032 229 17751078012347013229
14347332 77 17967524692818933629
14790565 3 17690571784686299689
14910302 57 18263651658022225590
15183329 4 17748824128914330743
15250474 111 17894622660554898987
15348495 7 18201435908502620792
15537594 2 17821730502889363545
17349148 13 17603586322539626616
17857418 61 17821721749835613410
18927931 339 18261397763029487487
21033648 29 17703214161948835864
21065201 7 18338797810878339692
21267235 1 18261397801826696123
21623969 137 17489873739157839822
2303208 19 18060426806826638374
23081809 10 17167860863504611608
23522609 53 17750539332641825708
23559900 14 18412544318621182012
23569914 152 12978044219666279651
3004659 81 18113623417008851870
312425 54 18130515136583768769
3178227 256 17203608199734767146
335352 9 18407758136959803421
3383291 50 18336829796966639419
3882209 13 17120827295101457678
394071 54 15913329122079209464
397830 11 18200583817409397328
4073 2 18271531913977997724
42767 46 17749384858929427546
5104073 3 17774728567204063306
559249 180 18334011696944803403
59682541 52 14924213950404776674
86090 222 17559702618853080470

>  <PUBCHEM_SHAPE_MULTIPOLES>  (1) 
538.11
18.76
2.76
1.61
12.02
0.21
-0.43
7.14
-2.73
-5.73
0.09
4.27
0.29
1.88

>  <PUBCHEM_SHAPE_SELFOVERLAP>  (1) 
1176.234

>  <PUBCHEM_SHAPE_VOLUME>  (1) 
290.1

>  <PUBCHEM_COORDINATE_TYPE>  (1) 
2
5
10

$$$$
