28400
     RDKit          3D

 14 13  0  0  0  0  0  0  0  0999 V2000
   -2.4719    1.2532    0.7848 O   0  0  0  0  0  0  0  0  0  0  0  0
   -2.6703    0.8367   -1.4688 O   0  0  0  0  0  0  0  0  0  0  0  0
    4.1873   -0.0432    0.6287 O   0  0  0  0  0  0  0  0  0  0  0  0
    2.9646    0.5718   -1.2280 O   0  0  0  0  0  0  0  0  0  0  0  0
   -1.9871   -0.9614    0.0404 C   0  0  0  0  0  0  0  0  0  0  0  0
   -0.6138   -0.9637    0.7610 C   0  0  0  0  0  0  0  0  0  0  0  0
    0.5569   -0.4301   -0.0803 C   0  0  0  0  0  0  0  0  0  0  0  0
   -1.9390   -1.8299   -1.2293 C   0  0  0  0  0  0  0  0  0  0  0  0
   -3.0544   -1.5492    0.9821 C   0  0  0  0  0  0  0  0  0  0  0  0
   -2.4125    0.4653   -0.3299 C   0  0  0  0  0  0  0  0  0  0  0  0
    1.8922   -0.5227    0.6612 C   0  0  0  0  0  0  0  0  0  0  0  0
    3.0487    0.0624   -0.1189 C   0  0  0  0  0  0  0  0  0  0  0  0
   -2.8697    2.6102    0.5651 C   0  0  0  0  0  0  0  0  0  0  0  0
    5.3690    0.5006    0.0319 C   0  0  0  0  0  0  0  0  0  0  0  0
  1 10  1  0
  1 13  1  0
  2 10  2  0
  3 12  1  0
  3 14  1  0
  4 12  2  0
  5  6  1  0
  5  8  1  0
  5  9  1  0
  5 10  1  0
  6  7  1  0
  7 11  1  0
 11 12  1  0
M  END
>  <PUBCHEM_COMPOUND_CID>  (1) 
28400

>  <PUBCHEM_CONFORMER_RMSD>  (1) 
0.8

>  <PUBCHEM_CONFORMER_DIVERSEORDER>  (1) 
1
48
34
60
31
5
49
41
21
46
45
33
58
38
51
7
52
40
44
20
53
26
57
14
2
43
42
50
59
24
56
32
28
54
17
29
19
8
47
39
36
27
4
23
13
37
6
30
16
15
22
55
3
18
11
25
9
35
12
10

>  <PUBCHEM_MMFF94_PARTIAL_CHARGES>  (1) 
10
1 -0.43
10 0.66
11 0.06
12 0.66
13 0.28
14 0.28
2 -0.57
3 -0.43
4 -0.57
5 0.06

>  <PUBCHEM_EFFECTIVE_ROTOR_COUNT>  (1) 
7

>  <PUBCHEM_PHARMACOPHORE_FEATURES>  (1) 
4
1 2 acceptor
1 4 acceptor
3 5 8 9 hydrophobe
4 5 6 7 11 hydrophobe

>  <PUBCHEM_HEAVY_ATOM_COUNT>  (1) 
14

>  <PUBCHEM_ATOM_DEF_STEREO_COUNT>  (1) 
0

>  <PUBCHEM_ATOM_UDEF_STEREO_COUNT>  (1) 
0

>  <PUBCHEM_BOND_DEF_STEREO_COUNT>  (1) 
0

>  <PUBCHEM_BOND_UDEF_STEREO_COUNT>  (1) 
0

>  <PUBCHEM_ISOTOPIC_ATOM_COUNT>  (1) 
0

>  <PUBCHEM_COMPONENT_COUNT>  (1) 
1

>  <PUBCHEM_CACTVS_TAUTO_COUNT>  (1) 
1

>  <PUBCHEM_CONFORMER_ID>  (1) 
00006EF000000001

>  <PUBCHEM_MMFF94_ENERGY>  (1) 
24.6073

>  <PUBCHEM_FEATURE_SELFOVERLAP>  (1) 
20.324

>  <PUBCHEM_SHAPE_FINGERPRINT>  (1) 
10680689 15 18272653489074494778
12162725 195 18041001782122293294
12173636 292 18270686363882387989
12507557 5 17023178387948561038
12916754 54 16660647422391199058
12932764 1 18060134370893330986
13024252 1 18040149643737112595
14123255 52 18124034529372532441
14123260 362 18409172077914597344
14142880 1 18335137549522993253
14144814 61 17675918816043867530
1741750 31 18199753548532924897
17802600 8 18041557048189324588
18186145 218 18114185181730991554
19837323 101 18130227043574131483
1986462 14 18407763646706407574
200 152 17531239634200809555
20112054 60 18413953888253609424
20279233 1 17489872639551240286
20300324 65 18340481257063018903
20645477 56 18131919251502748017
20645477 70 15913059664362607340
20871999 31 17275092917290132949
21426921 1 18343017826193687407
21524375 3 18052250701160984217
22926399 65 18272650100150223720
2306618 200 17749382676752932221
23380061 127 18261109716083102474
23402539 116 18335697308015137119
23557571 272 18131354145576035718
4175511 318 17632859741244218310

>  <PUBCHEM_SHAPE_MULTIPOLES>  (1) 
264.64
8.5
1.92
1.15
13.16
0.93
-0.25
2.13
0.21
-2.95
0.16
-0.54
-0.14
-0.28

>  <PUBCHEM_SHAPE_SELFOVERLAP>  (1) 
503.041

>  <PUBCHEM_SHAPE_VOLUME>  (1) 
164.2

>  <PUBCHEM_COORDINATE_TYPE>  (1) 
2
5
10

$$$$
