28408
     RDKit          3D

 15 16  0  0  0  0  0  0  0  0999 V2000
    2.4693    1.6452   -0.8078 O   0  0  0  0  0  0  0  0  0  0  0  0
    3.6493    0.4070    0.8901 O   0  0  0  0  0  0  0  0  0  0  0  0
   -2.4865    0.2476   -0.3449 N   0  0  0  0  0  0  0  0  0  0  0  0
   -3.6404    2.1635    0.2580 N   0  0  0  0  0  0  0  0  0  0  0  0
   -4.4819    0.1760    0.9908 N   0  0  0  0  0  0  0  0  0  0  0  0
    0.1233   -1.1603   -0.5106 C   0  0  0  0  0  0  0  0  0  0  0  0
   -1.1618   -1.6911   -1.0521 C   0  0  0  0  0  0  0  0  0  0  0  0
    1.8247    0.4970   -0.4633 C   0  0  0  0  0  0  0  0  0  0  0  0
    0.6326    0.0477   -0.9930 C   0  0  0  0  0  0  0  0  0  0  0  0
    2.4985   -0.2100    0.5062 C   0  0  0  0  0  0  0  0  0  0  0  0
    0.8118   -1.8827    0.4800 C   0  0  0  0  0  0  0  0  0  0  0  0
   -2.3960   -1.2136   -0.2787 C   0  0  0  0  0  0  0  0  0  0  0  0
    2.0173   -1.4053    0.9994 C   0  0  0  0  0  0  0  0  0  0  0  0
    3.6246    1.5816    0.0535 C   0  0  0  0  0  0  0  0  0  0  0  0
   -3.4846    0.7974    0.2724 C   0  0  0  0  0  0  0  0  0  0  0  0
  1  8  1  0
  1 14  1  0
  2 10  1  0
  2 14  1  0
  3 12  1  0
  3 15  2  3
  4 15  1  0
  5 15  1  0
  6  7  1  0
  6  9  1  0
  6 11  2  0
  7 12  1  0
  8  9  2  0
  8 10  1  0
 10 13  2  0
 11 13  1  0
M  END
>  <PUBCHEM_COMPOUND_CID>  (1) 
28408

>  <PUBCHEM_CONFORMER_RMSD>  (1) 
0.6

>  <PUBCHEM_CONFORMER_DIVERSEORDER>  (1) 
1
21
25
10
19
29
4
31
22
26
17
3
11
16
30
23
15
14
27
6
7
9
28
2
8
5
12
24
13
20
18

>  <PUBCHEM_MMFF94_PARTIAL_CHARGES>  (1) 
22
1 -0.36
10 0.08
11 -0.15
12 0.25
13 -0.15
14 0.56
15 0.55
18 0.15
19 0.15
2 -0.36
22 0.15
25 0.4
26 0.4
27 0.4
28 0.4
3 -0.7
4 -0.85
5 -0.85
6 -0.14
7 0.14
8 0.08
9 -0.15

>  <PUBCHEM_EFFECTIVE_ROTOR_COUNT>  (1) 
3.6

>  <PUBCHEM_PHARMACOPHORE_FEATURES>  (1) 
7
1 1 acceptor
1 2 acceptor
1 4 donor
1 5 donor
4 3 4 5 15 cation
5 1 2 8 10 14 rings
6 6 8 9 10 11 13 rings

>  <PUBCHEM_HEAVY_ATOM_COUNT>  (1) 
15

>  <PUBCHEM_ATOM_DEF_STEREO_COUNT>  (1) 
0

>  <PUBCHEM_ATOM_UDEF_STEREO_COUNT>  (1) 
0

>  <PUBCHEM_BOND_DEF_STEREO_COUNT>  (1) 
0

>  <PUBCHEM_BOND_UDEF_STEREO_COUNT>  (1) 
0

>  <PUBCHEM_ISOTOPIC_ATOM_COUNT>  (1) 
0

>  <PUBCHEM_COMPONENT_COUNT>  (1) 
1

>  <PUBCHEM_CACTVS_TAUTO_COUNT>  (1) 
2

>  <PUBCHEM_CONFORMER_ID>  (1) 
00006EF800000001

>  <PUBCHEM_MMFF94_ENERGY>  (1) 
39.8797

>  <PUBCHEM_FEATURE_SELFOVERLAP>  (1) 
35.732

>  <PUBCHEM_SHAPE_FINGERPRINT>  (1) 
10382601 240 18040147397358031514
10465860 228 18410009910254396802
10498660 4 17489869306899445801
10980938 120 18335697230531223686
11471102 22 17167854262266517198
11578080 2 8790332053810422038
11769659 78 8646499517636816790
12202030 40 14418958571548004194
12251169 10 18259984872912067031
12346645 44 18337104674250311246
12491281 212 18263641930227416834
13764800 53 17988654016523577843
14123255 52 18342175566053634189
15209294 21 18268413780901494008
15775835 57 18413671331024222505
16945 1 17677588995871362166
1741750 31 18060138764676373627
1798214 20 9007057942075341281
201361 129 18408037416458957362
20233049 118 17989481909797416776
20539926 19 18412550915669479349
20711983 171 18130504227414484782
21524375 3 18272086106583059351
21665062 11 18262523584867594896
21713013 43 11671766153775490577
22926399 65 17846497071145800696
23402655 69 11599732782777988675
23419403 2 15835914440986902534
23557571 272 16701172148104565111
251288 83 15285932414975323779
2748010 2 17610021669987819630
276578 36 18408606972077257066
568465 68 14851878170912755760

>  <PUBCHEM_SHAPE_MULTIPOLES>  (1) 
282.01
7.22
2.06
1.03
4.6
0.15
0.02
4.33
-2.12
0.18
0.02
-0.09
-0.17
-0.85

>  <PUBCHEM_SHAPE_SELFOVERLAP>  (1) 
599.285

>  <PUBCHEM_SHAPE_VOLUME>  (1) 
156.2

>  <PUBCHEM_COORDINATE_TYPE>  (1) 
2
5
10

$$$$
