28419
     RDKit          3D

 22 25  0  0  0  0  0  0  0  0999 V2000
    2.6569    1.4707    0.0304 O   0  0  0  0  0  0  0  0  0  0  0  0
   -2.6733   -1.4904    0.0289 O   0  0  0  0  0  0  0  0  0  0  0  0
    2.4980   -0.7888   -0.0508 N   0  0  0  0  0  0  0  0  0  0  0  0
   -2.4841    0.7666   -0.0561 N   0  0  0  0  0  0  0  0  0  0  0  0
    3.8220   -0.4229   -0.0230 C   0  0  0  0  0  0  0  0  0  0  0  0
   -3.8129    0.4186   -0.0257 C   0  0  0  0  0  0  0  0  0  0  0  0
    3.9232    0.9596    0.0266 C   0  0  0  0  0  0  0  0  0  0  0  0
   -3.9326   -0.9624    0.0262 C   0  0  0  0  0  0  0  0  0  0  0  0
    6.2247   -0.5115    0.0015 C   0  0  0  0  0  0  0  0  0  0  0  0
   -6.2141    0.5396    0.0023 C   0  0  0  0  0  0  0  0  0  0  0  0
    4.9969   -1.1883   -0.0362 C   0  0  0  0  0  0  0  0  0  0  0  0
   -4.9774    1.1996   -0.0384 C   0  0  0  0  0  0  0  0  0  0  0  0
    1.8647    0.3632   -0.0177 C   0  0  0  0  0  0  0  0  0  0  0  0
   -1.8827   -0.3920   -0.0220 C   0  0  0  0  0  0  0  0  0  0  0  0
    5.1195    1.6652    0.0650 C   0  0  0  0  0  0  0  0  0  0  0  0
   -5.1383   -1.6516    0.0674 C   0  0  0  0  0  0  0  0  0  0  0  0
    6.2820    0.8868    0.0511 C   0  0  0  0  0  0  0  0  0  0  0  0
   -6.2902   -0.8577    0.0541 C   0  0  0  0  0  0  0  0  0  0  0  0
    0.4536    0.4915   -0.0292 C   0  0  0  0  0  0  0  0  0  0  0  0
   -0.4570   -0.5411   -0.0356 C   0  0  0  0  0  0  0  0  0  0  0  0
    7.4940   -1.2984   -0.0102 C   0  0  0  0  0  0  0  0  0  0  0  0
   -7.4728    1.3436   -0.0087 C   0  0  0  0  0  0  0  0  0  0  0  0
  1  7  1  0
  1 13  1  0
  2  8  1  0
  2 14  1  0
  3  5  1  0
  3 13  2  0
  4  6  1  0
  4 14  2  0
  5  7  2  0
  5 11  1  0
  6  8  2  0
  6 12  1  0
  7 15  1  0
  8 16  1  0
  9 11  2  0
  9 17  1  0
  9 21  1  0
 10 12  2  0
 10 18  1  0
 10 22  1  0
 13 19  1  0
 14 20  1  0
 15 17  2  0
 16 18  2  0
 19 20  2  0
M  END
>  <PUBCHEM_COMPOUND_CID>  (1) 
28419

>  <PUBCHEM_CONFORMER_RMSD>  (1) 
0.6

>  <PUBCHEM_CONFORMER_DIVERSEORDER>  (1) 
1
3
4
2

>  <PUBCHEM_MMFF94_PARTIAL_CHARGES>  (1) 
30
1 -0.28
10 -0.14
11 -0.15
12 -0.15
13 0.43
14 0.43
15 -0.15
16 -0.15
17 -0.15
18 -0.15
19 -0.11
2 -0.28
20 -0.11
21 0.14
22 0.14
23 0.15
24 0.15
25 0.15
26 0.15
27 0.15
28 0.15
29 0.15
3 -0.57
30 0.15
4 -0.57
5 0.23
6 0.23
7 0.14
8 0.14
9 -0.14

>  <PUBCHEM_EFFECTIVE_ROTOR_COUNT>  (1) 
2

>  <PUBCHEM_PHARMACOPHORE_FEATURES>  (1) 
4
5 1 3 5 7 13 rings
5 2 4 6 8 14 rings
6 5 7 9 11 15 17 rings
6 6 8 10 12 16 18 rings

>  <PUBCHEM_HEAVY_ATOM_COUNT>  (1) 
22

>  <PUBCHEM_ATOM_DEF_STEREO_COUNT>  (1) 
0

>  <PUBCHEM_ATOM_UDEF_STEREO_COUNT>  (1) 
0

>  <PUBCHEM_BOND_DEF_STEREO_COUNT>  (1) 
0

>  <PUBCHEM_BOND_UDEF_STEREO_COUNT>  (1) 
1

>  <PUBCHEM_ISOTOPIC_ATOM_COUNT>  (1) 
0

>  <PUBCHEM_COMPONENT_COUNT>  (1) 
1

>  <PUBCHEM_CACTVS_TAUTO_COUNT>  (1) 
1

>  <PUBCHEM_CONFORMER_ID>  (1) 
00006F0300000001

>  <PUBCHEM_MMFF94_ENERGY>  (1) 
47.6667

>  <PUBCHEM_FEATURE_SELFOVERLAP>  (1) 
20.537

>  <PUBCHEM_SHAPE_FINGERPRINT>  (1) 
100830 39 18337671906603352261
10299344 5 18186804669112744222
10638233 991 15574722404144121910
10835480 77 18342171219304566584
11315181 36 18060140955563096337
11524674 6 17132114662765769903
11719270 70 18060419093334991470
12091667 2 18342176683351727647
12107183 9 17762055436946644066
12166972 35 18408606993320693028
12236239 1 18410575110432882694
12516196 113 17989204862900430504
13167372 99 18341897372268673928
13533116 47 13901642796619271108
13885169 127 18411418375795957617
14251752 14 18342738503011332145
14251764 18 18410574002336601718
14251764 46 18060137631100172722
14341114 176 18409733984338535316
14933364 13 18408886243451005725
15183329 4 18410575063193524064
15461852 350 17917425454711637125
15716309 27 18342175583238778231
17093844 174 18334574660020367353
17844677 252 18410580595196303668
20281389 69 18334011687743419869
21130935 74 18341612642033950082
21267235 1 18408327691506996874
21315763 28 18411418431904592223
21792934 111 18059563673504580448
220451 1 16081083796539133035
23035841 295 18187081754147438883
23402539 116 18343861139286173405
23522609 53 18117025246062338556
23536379 177 18410573989446425178
23559900 14 18341325703795399049
23569943 247 17387401347172550458
28498 318 18341050727362371094
29717793 49 18060423508560734924
3004659 81 18334575742157005464
335352 9 18410573985151458060
3545911 37 18410011030908350285
4073 2 18041002898856352570
4214541 1 18410575097954227661
4339292 15 15912748597820772471
4463277 17 18409729573190766501
5104073 3 18410574015216223107
542803 24 17240483627972837053
559249 180 18412261749007916743
59755656 215 18335140860684321966
59755656 520 17458060486852574923

>  <PUBCHEM_SHAPE_MULTIPOLES>  (1) 
431.05
22.45
1.6
0.6
0.16
0.01
0
0.16
0.21
-0.04
0.02
0
0
0.14

>  <PUBCHEM_SHAPE_SELFOVERLAP>  (1) 
968.464

>  <PUBCHEM_SHAPE_VOLUME>  (1) 
232.7

>  <PUBCHEM_COORDINATE_TYPE>  (1) 
2
5
10

$$$$
