28414
     RDKit          3D

 23 24  0  0  0  0  0  0  0  0999 V2000
    2.5885   -1.7156   -0.5311 O   0  0  0  0  0  0  0  0  0  0  0  0
    4.9081   -0.9196    0.3717 O   0  0  0  0  0  0  0  0  0  0  0  0
    5.3842    1.2555   -0.2619 O   0  0  0  0  0  0  0  0  0  0  0  0
   -3.3415    0.6898   -0.0317 N   0  0  0  0  0  0  0  0  0  0  0  0
    1.3131    2.0196    0.3860 N   0  0  0  0  0  0  0  0  0  0  0  0
   -1.9694    0.3573   -0.0898 C   0  0  0  0  0  0  0  0  0  0  0  0
   -1.5645   -0.9390   -0.4094 C   0  0  0  0  0  0  0  0  0  0  0  0
   -2.5673   -2.0092   -0.6978 C   0  0  0  0  0  0  0  0  0  0  0  0
    0.7425   -0.2676   -0.1995 C   0  0  0  0  0  0  0  0  0  0  0  0
    0.3448    1.0435    0.1233 C   0  0  0  0  0  0  0  0  0  0  0  0
   -1.0195    1.3455    0.1756 C   0  0  0  0  0  0  0  0  0  0  0  0
   -0.2079   -1.2569   -0.4657 C   0  0  0  0  0  0  0  0  0  0  0  0
   -4.0293    1.1659   -1.2137 C   0  0  0  0  0  0  0  0  0  0  0  0
   -4.0774    0.5445    1.2070 C   0  0  0  0  0  0  0  0  0  0  0  0
   -2.9796   -2.7714    0.5679 C   0  0  0  0  0  0  0  0  0  0  0  0
    2.1961   -0.5891   -0.2543 C   0  0  0  0  0  0  0  0  0  0  0  0
   -3.7864    2.6440   -1.4394 C   0  0  0  0  0  0  0  0  0  0  0  0
   -4.6190    1.8741    1.6898 C   0  0  0  0  0  0  0  0  0  0  0  0
    3.1519    0.5182    0.0402 C   0  0  0  0  0  0  0  0  0  0  0  0
   -4.0243   -3.8358    0.2723 C   0  0  0  0  0  0  0  0  0  0  0  0
    2.6470    1.7235    0.3344 C   0  0  0  0  0  0  0  0  0  0  0  0
    4.6058    0.3576    0.0240 C   0  0  0  0  0  0  0  0  0  0  0  0
    6.3041   -1.2348    0.4023 C   0  0  0  0  0  0  0  0  0  0  0  0
  1 16  2  0
  2 22  1  0
  2 23  1  0
  3 22  2  0
  4  6  1  0
  4 13  1  0
  4 14  1  0
  5 10  1  0
  5 21  1  0
  6  7  1  0
  6 11  2  0
  7  8  1  0
  7 12  2  0
  8 15  1  0
  9 10  2  0
  9 12  1  0
  9 16  1  0
 10 11  1  0
 13 17  1  0
 14 18  1  0
 15 20  1  0
 16 19  1  0
 19 21  2  0
 19 22  1  0
M  END
>  <PUBCHEM_COMPOUND_CID>  (1) 
28414

>  <PUBCHEM_CONFORMER_RMSD>  (1) 
0.8

>  <PUBCHEM_CONFORMER_DIVERSEORDER>  (1) 
1
9
2
8
4
10
7
5
3
6

>  <PUBCHEM_MMFF94_PARTIAL_CHARGES>  (1) 
23
1 -0.57
10 0.1
11 -0.15
12 -0.15
13 0.37
14 0.37
16 0.47
19 0.03
2 -0.43
21 -0.05
22 0.71
23 0.28
26 0.15
27 0.15
3 -0.57
34 0.4
4 -0.84
44 0.15
5 -0.6
6 0.1
7 -0.14
8 0.14
9 0.09

>  <PUBCHEM_EFFECTIVE_ROTOR_COUNT>  (1) 
7

>  <PUBCHEM_PHARMACOPHORE_FEATURES>  (1) 
9
1 1 acceptor
1 19 anion
1 20 hydrophobe
1 3 acceptor
1 4 cation
1 5 cation
1 5 donor
6 5 9 10 16 19 21 rings
6 6 7 9 10 11 12 rings

>  <PUBCHEM_HEAVY_ATOM_COUNT>  (1) 
23

>  <PUBCHEM_ATOM_DEF_STEREO_COUNT>  (1) 
0

>  <PUBCHEM_ATOM_UDEF_STEREO_COUNT>  (1) 
0

>  <PUBCHEM_BOND_DEF_STEREO_COUNT>  (1) 
0

>  <PUBCHEM_BOND_UDEF_STEREO_COUNT>  (1) 
0

>  <PUBCHEM_ISOTOPIC_ATOM_COUNT>  (1) 
0

>  <PUBCHEM_COMPONENT_COUNT>  (1) 
1

>  <PUBCHEM_CACTVS_TAUTO_COUNT>  (1) 
4

>  <PUBCHEM_CONFORMER_ID>  (1) 
00006EFE00000001

>  <PUBCHEM_MMFF94_ENERGY>  (1) 
79.0078

>  <PUBCHEM_FEATURE_SELFOVERLAP>  (1) 
45.693

>  <PUBCHEM_SHAPE_FINGERPRINT>  (1) 
10062212 137 18342169003517724846
10906281 52 17988373563216411492
11089746 13 16917055634638832064
11315181 36 17632285783711720800
11405975 8 18342457071195265176
12293681 160 17914598472467059137
12403259 226 18195521721704175809
12633257 1 18412826867481745296
12788726 201 16915672375474589024
13073987 5 18341048635860900074
13140716 1 18342460378051142089
14790565 3 18125732187968257361
15042514 8 18410577309899353915
15196674 1 18412261774861661734
15295992 7 17274822497585428369
15788980 27 17894630340304219420
200 152 17060330821126214364
20600515 1 18201169775355202520
21033648 144 18342165696108577084
21033648 29 18263912272755118837
21236236 1 18411981398964497407
21267235 1 18340213010691464734
21421861 104 18116712907555646818
221490 88 18267302213094737520
22182313 1 17774461437207469302
23402539 116 17274816913648395168
23559900 14 18269541879320356848
25147074 1 18118419551206630053
2748010 2 18271804683076988245
312423 11 18117283759573256279
335352 9 18341611482497840044
34934 24 18339635655565074862
350125 39 18268716185074301289
4214541 1 18410854382196989015
5104073 3 18342171202809811546
559249 180 18337380565885899910
59755656 520 18410008815686407453
7226269 152 17845934022450856216
81228 2 18117566347838202611
9709674 26 18343303647566701198

>  <PUBCHEM_SHAPE_MULTIPOLES>  (1) 
445.76
11.82
3.21
1.06
13.3
2.25
-0.08
0.41
-1.64
-4.67
-0.03
-1.49
-0.49
0.26

>  <PUBCHEM_SHAPE_SELFOVERLAP>  (1) 
932.148

>  <PUBCHEM_SHAPE_VOLUME>  (1) 
251.9

>  <PUBCHEM_COORDINATE_TYPE>  (1) 
2
5
10

$$$$
