28418
     RDKit          3D

 17 18  0  0  0  0  0  0  0  0999 V2000
   -5.6069   -0.7554   -0.4137 Cl  0  0  0  0  0  0  0  0  0  0  0  0
    1.0549   -1.8071    0.4256 O   0  0  0  0  0  0  0  0  0  0  0  0
    2.4008    0.0894    0.5218 N   0  0  0  0  0  0  0  0  0  0  0  0
    0.1912    0.3868    0.2296 N   0  0  0  0  0  0  0  0  0  0  0  0
    0.1979    2.7804    0.1550 N   0  0  0  0  0  0  0  0  0  0  0  0
    4.8800   -0.9899   -1.5995 N   0  0  0  0  0  0  0  0  0  0  0  0
    2.2746    1.5136    0.3880 C   0  0  0  0  0  0  0  0  0  0  0  0
    0.7827    1.6333    0.2308 C   0  0  0  0  0  0  0  0  0  0  0  0
    1.1775   -0.5878    0.4076 C   0  0  0  0  0  0  0  0  0  0  0  0
   -1.2034    0.1119    0.0744 C   0  0  0  0  0  0  0  0  0  0  0  0
    3.6951   -0.5343    0.7002 C   0  0  0  0  0  0  0  0  0  0  0  0
   -2.0070    0.9676   -0.6824 C   0  0  0  0  0  0  0  0  0  0  0  0
   -1.7678   -1.0135    0.6796 C   0  0  0  0  0  0  0  0  0  0  0  0
   -3.3675    0.6996   -0.8332 C   0  0  0  0  0  0  0  0  0  0  0  0
   -3.1284   -1.2817    0.5287 C   0  0  0  0  0  0  0  0  0  0  0  0
   -3.9283   -0.4251   -0.2279 C   0  0  0  0  0  0  0  0  0  0  0  0
    4.3547   -0.7878   -0.5847 C   0  0  0  0  0  0  0  0  0  0  0  0
  1 16  1  0
  2  9  2  0
  3  7  1  0
  3  9  1  0
  3 11  1  0
  4  8  1  0
  4  9  1  0
  4 10  1  0
  5  8  2  0
  6 17  3  0
  7  8  1  0
 10 12  2  0
 10 13  1  0
 11 17  1  0
 12 14  1  0
 13 15  2  0
 14 16  2  0
 15 16  1  0
M  END
>  <PUBCHEM_COMPOUND_CID>  (1) 
28418

>  <PUBCHEM_CONFORMER_RMSD>  (1) 
0.6

>  <PUBCHEM_CONFORMER_DIVERSEORDER>  (1) 
1
7
5
9
6
8
4
3
2

>  <PUBCHEM_MMFF94_PARTIAL_CHARGES>  (1) 
22
1 -0.18
10 0.12
11 0.5
12 -0.15
13 -0.15
14 -0.15
15 -0.15
16 0.18
17 0.36
2 -0.57
22 0.15
23 0.15
24 0.4
25 0.15
26 0.15
3 -0.66
4 -0.24
5 -0.85
6 -0.56
7 0.36
8 0.45
9 0.69

>  <PUBCHEM_EFFECTIVE_ROTOR_COUNT>  (1) 
2.6

>  <PUBCHEM_PHARMACOPHORE_FEATURES>  (1) 
5
1 2 acceptor
1 5 donor
1 6 acceptor
5 3 4 7 8 9 rings
6 10 12 13 14 15 16 rings

>  <PUBCHEM_HEAVY_ATOM_COUNT>  (1) 
17

>  <PUBCHEM_ATOM_DEF_STEREO_COUNT>  (1) 
0

>  <PUBCHEM_ATOM_UDEF_STEREO_COUNT>  (1) 
0

>  <PUBCHEM_BOND_DEF_STEREO_COUNT>  (1) 
0

>  <PUBCHEM_BOND_UDEF_STEREO_COUNT>  (1) 
0

>  <PUBCHEM_ISOTOPIC_ATOM_COUNT>  (1) 
0

>  <PUBCHEM_COMPONENT_COUNT>  (1) 
1

>  <PUBCHEM_CACTVS_TAUTO_COUNT>  (1) 
1

>  <PUBCHEM_CONFORMER_ID>  (1) 
00006F0200000001

>  <PUBCHEM_MMFF94_ENERGY>  (1) 
46.3251

>  <PUBCHEM_FEATURE_SELFOVERLAP>  (1) 
25.371

>  <PUBCHEM_SHAPE_FINGERPRINT>  (1) 
10366900 7 17967812765034300619
10608611 8 18261097617577045357
11471102 20 18337382846618717369
11543360 7 16009034990289122314
12011746 2 18334855017941967487
12032990 46 18412826884698342792
12236239 1 17060338539625439963
13862211 1 18410284805030311578
14115302 16 17895198834986560503
14252887 29 18060134345481768570
14911166 2 18334858320228401379
15219456 202 18261947565761007281
15536298 74 18340199799261032673
15848700 24 18342737416695679940
15848702 151 17703515415102179846
16945 1 18263921051567415232
17804303 29 18261110803078710059
1813 80 17274558559039600332
18186145 218 18335134302015748161
18222031 100 18272649052062002690
19784866 240 17703796929097580047
200 152 18131344237635058067
20201158 50 18334850624058379379
20645477 70 18342734156451531574
20871999 31 18113904831507905924
21267235 1 18410296917333633587
221357 26 18409161113290163893
221490 88 18191308384350966507
22713019 99 18343304764579918598
23175994 123 18202282515740284665
23402539 116 18060128856956714885
23559900 14 18262794193935567417
2748010 2 18336537334882686904
2871803 45 18334007294049469619
29717793 49 17988917890829531901
3004659 81 17749665178607122202
42 15 15267345110799489934
5104073 3 18336260245415590033
69090 78 18337098077755706883
7364860 26 18266735968622254169
8809292 202 18113616828545084499
9709674 26 18118963835353787979

>  <PUBCHEM_SHAPE_MULTIPOLES>  (1) 
325.93
9.57
1.87
0.95
1.68
0.99
0.23
-4.16
3
-0.52
-0.15
-0.59
-0.17
0.83

>  <PUBCHEM_SHAPE_SELFOVERLAP>  (1) 
685.256

>  <PUBCHEM_SHAPE_VOLUME>  (1) 
183.7

>  <PUBCHEM_COORDINATE_TYPE>  (1) 
2
5
10

$$$$
