28422
     RDKit          3D

 18 18  0  0  0  0  0  0  0  0999 V2000
   -5.3746   -1.2153    1.3791 N   0  0  0  0  0  0  0  0  0  0  0  0
   -2.3902   -1.6495   -1.9133 N   0  0  0  0  0  0  0  0  0  0  0  0
    5.4118   -1.1914    1.3239 N   0  0  0  0  0  0  0  0  0  0  0  0
    2.2955   -1.7703   -1.8206 N   0  0  0  0  0  0  0  0  0  0  0  0
   -1.1970    1.0910    0.3187 C   0  0  0  0  0  0  0  0  0  0  0  0
    1.2189    1.1037    0.3002 C   0  0  0  0  0  0  0  0  0  0  0  0
    0.0172    0.5756    0.7724 C   0  0  0  0  0  0  0  0  0  0  0  0
   -1.2096    2.1344   -0.6070 C   0  0  0  0  0  0  0  0  0  0  0  0
    1.2062    2.1471   -0.6256 C   0  0  0  0  0  0  0  0  0  0  0  0
   -0.0080    2.6624   -1.0792 C   0  0  0  0  0  0  0  0  0  0  0  0
   -2.4505    0.5408    0.8101 C   0  0  0  0  0  0  0  0  0  0  0  0
    2.4857    0.5667    0.7720 C   0  0  0  0  0  0  0  0  0  0  0  0
   -3.1634   -0.4721    0.2577 C   0  0  0  0  0  0  0  0  0  0  0  0
    3.1771   -0.4695    0.2358 C   0  0  0  0  0  0  0  0  0  0  0  0
   -4.3830   -0.8810    0.8771 C   0  0  0  0  0  0  0  0  0  0  0  0
   -2.7348   -1.1204   -0.9395 C   0  0  0  0  0  0  0  0  0  0  0  0
    4.4095   -0.8670    0.8371 C   0  0  0  0  0  0  0  0  0  0  0  0
    2.6892   -1.1853   -0.8988 C   0  0  0  0  0  0  0  0  0  0  0  0
  1 15  3  0
  2 16  3  0
  3 17  3  0
  4 18  3  0
  5  7  2  0
  5  8  1  0
  5 11  1  0
  6  7  1  0
  6  9  2  0
  6 12  1  0
  8 10  2  0
  9 10  1  0
 11 13  2  3
 12 14  2  3
 13 15  1  0
 13 16  1  0
 14 17  1  0
 14 18  1  0
M  END
>  <PUBCHEM_COMPOUND_CID>  (1) 
28422

>  <PUBCHEM_CONFORMER_RMSD>  (1) 
0.6

>  <PUBCHEM_CONFORMER_DIVERSEORDER>  (1) 
1
19
18
14
12
2
3
16
4
8
15
17
11
9
7
5
13
20
6
10

>  <PUBCHEM_MMFF94_PARTIAL_CHARGES>  (1) 
24
1 -0.56
10 -0.15
11 -0.18
12 -0.18
13 0.13
14 0.13
15 0.49
16 0.49
17 0.49
18 0.49
19 0.15
2 -0.56
20 0.15
21 0.15
22 0.15
23 0.15
24 0.15
3 -0.56
4 -0.56
5 0.03
6 0.03
7 -0.15
8 -0.15
9 -0.15

>  <PUBCHEM_EFFECTIVE_ROTOR_COUNT>  (1) 
2

>  <PUBCHEM_PHARMACOPHORE_FEATURES>  (1) 
5
1 1 acceptor
1 2 acceptor
1 3 acceptor
1 4 acceptor
6 5 6 7 8 9 10 rings

>  <PUBCHEM_HEAVY_ATOM_COUNT>  (1) 
18

>  <PUBCHEM_ATOM_DEF_STEREO_COUNT>  (1) 
0

>  <PUBCHEM_ATOM_UDEF_STEREO_COUNT>  (1) 
0

>  <PUBCHEM_BOND_DEF_STEREO_COUNT>  (1) 
0

>  <PUBCHEM_BOND_UDEF_STEREO_COUNT>  (1) 
0

>  <PUBCHEM_ISOTOPIC_ATOM_COUNT>  (1) 
0

>  <PUBCHEM_COMPONENT_COUNT>  (1) 
1

>  <PUBCHEM_CACTVS_TAUTO_COUNT>  (1) 
1

>  <PUBCHEM_CONFORMER_ID>  (1) 
00006F0600000001

>  <PUBCHEM_MMFF94_ENERGY>  (1) 
37.9413

>  <PUBCHEM_FEATURE_SELFOVERLAP>  (1) 
25.374

>  <PUBCHEM_SHAPE_FINGERPRINT>  (1) 
12363563 72 18114186332344188856
12403259 327 16343708759220784387
12553582 1 18342179985469292356
12633257 1 17346312730232177827
12892183 10 16988573337880440201
14178342 30 18128263276941429424
14251764 38 12461638745538811251
14341114 328 16630525184761949402
15099037 37 18339070485472225168
15342816 4 18186812352687774602
1813 80 18335432265366691925
19141452 34 18272928298129813901
204376 136 11383833783380842529
20645477 70 18116717511781205905
20671657 53 18040438810520280489
21618674 25 13182754636553028449
23114952 82 16661778862695181717
23402539 116 17967808289783743168
23557571 272 18265891350840450488
23559900 14 17831568783623957354
57100710 210 18043797707443373850
7064713 232 17489869366448868783
76465 3 18040994004121039552
7808743 9 11599710779876770314
7970288 3 18187363242115443715

>  <PUBCHEM_SHAPE_MULTIPOLES>  (1) 
350.51
9.05
2.41
1.49
0.15
1.36
-0.51
-7.42
4.05
0.04
-0.95
-0.12
-0.69
0.03

>  <PUBCHEM_SHAPE_SELFOVERLAP>  (1) 
737.498

>  <PUBCHEM_SHAPE_VOLUME>  (1) 
188.6

>  <PUBCHEM_COORDINATE_TYPE>  (1) 
2
5
10

$$$$
