28435
     RDKit          3D

 20 20  0  0  0  0  0  0  0  0999 V2000
   -4.5287   -2.7584   -1.5554 Cl  0  0  0  0  0  0  0  0  0  0  0  0
   -4.5283    2.5557   -0.5378 Cl  0  0  0  0  0  0  0  0  0  0  0  0
   -1.5637   -0.0047    1.4371 S   0  0  0  0  0  0  0  0  0  0  0  0
   -2.0071   -1.2871    1.9521 O   0  0  0  0  0  0  0  0  0  0  0  0
   -1.5831    1.1582    2.3051 O   0  0  0  0  0  0  0  0  0  0  0  0
    4.9301    1.4699   -0.3008 O   0  0  0  0  0  0  0  0  0  0  0  0
   -2.4122    0.3525   -0.0211 N   0  0  0  0  0  0  0  0  0  0  0  0
    4.0168   -0.6985   -0.4484 N   0  0  0  0  0  0  0  0  0  0  0  0
   -2.7600   -0.7810   -0.9155 C   0  0  0  0  0  0  0  0  0  0  0  0
   -2.0005    1.5572   -0.7856 C   0  0  0  0  0  0  0  0  0  0  0  0
    0.1025   -0.2121    0.8738 C   0  0  0  0  0  0  0  0  0  0  0  0
   -4.0888   -1.3900   -0.5036 C   0  0  0  0  0  0  0  0  0  0  0  0
   -3.1690    2.0952   -1.5927 C   0  0  0  0  0  0  0  0  0  0  0  0
    0.9392    0.8877    0.8299 C   0  0  0  0  0  0  0  0  0  0  0  0
    0.5312   -1.4692    0.4903 C   0  0  0  0  0  0  0  0  0  0  0  0
    2.7037   -0.5354   -0.0051 C   0  0  0  0  0  0  0  0  0  0  0  0
    2.2515    0.7246    0.3865 C   0  0  0  0  0  0  0  0  0  0  0  0
    1.8436   -1.6324    0.0469 C   0  0  0  0  0  0  0  0  0  0  0  0
    5.0165    0.2758   -0.5681 C   0  0  0  0  0  0  0  0  0  0  0  0
    6.3064   -0.3078   -1.0876 C   0  0  0  0  0  0  0  0  0  0  0  0
  1 12  1  0
  2 13  1  0
  3  4  2  0
  3  5  2  0
  3  7  1  0
  3 11  1  0
  6 19  2  0
  7  9  1  0
  7 10  1  0
  8 16  1  0
  8 19  1  0
  9 12  1  0
 10 13  1  0
 11 14  2  0
 11 15  1  0
 14 17  1  0
 15 18  2  0
 16 17  2  0
 16 18  1  0
 19 20  1  0
M  END
>  <PUBCHEM_COMPOUND_CID>  (1) 
28435

>  <PUBCHEM_CONFORMER_RMSD>  (1) 
0.8

>  <PUBCHEM_CONFORMER_DIVERSEORDER>  (1) 
1
4
16
33
21
14
19
8
9
25
17
13
26
32
35
31
28
11
18
15
29
23
12
3
36
24
7
20
2
5
30
34
22
27
6
10

>  <PUBCHEM_MMFF94_PARTIAL_CHARGES>  (1) 
25
1 -0.29
10 0.36
11 -0.01
12 0.29
13 0.29
14 -0.15
15 -0.15
16 0.12
17 -0.15
18 -0.15
19 0.57
2 -0.29
20 0.06
29 0.15
3 1.45
30 0.15
31 0.15
32 0.15
33 0.37
4 -0.65
5 -0.65
6 -0.57
7 -0.85
8 -0.55
9 0.36

>  <PUBCHEM_EFFECTIVE_ROTOR_COUNT>  (1) 
8

>  <PUBCHEM_PHARMACOPHORE_FEATURES>  (1) 
5
1 4 acceptor
1 5 acceptor
1 6 acceptor
1 8 donor
6 11 14 15 16 17 18 rings

>  <PUBCHEM_HEAVY_ATOM_COUNT>  (1) 
20

>  <PUBCHEM_ATOM_DEF_STEREO_COUNT>  (1) 
0

>  <PUBCHEM_ATOM_UDEF_STEREO_COUNT>  (1) 
0

>  <PUBCHEM_BOND_DEF_STEREO_COUNT>  (1) 
0

>  <PUBCHEM_BOND_UDEF_STEREO_COUNT>  (1) 
0

>  <PUBCHEM_ISOTOPIC_ATOM_COUNT>  (1) 
0

>  <PUBCHEM_COMPONENT_COUNT>  (1) 
1

>  <PUBCHEM_CACTVS_TAUTO_COUNT>  (1) 
2

>  <PUBCHEM_CONFORMER_ID>  (1) 
00006F1300000001

>  <PUBCHEM_MMFF94_ENERGY>  (1) 
36.5236

>  <PUBCHEM_FEATURE_SELFOVERLAP>  (1) 
25.39

>  <PUBCHEM_SHAPE_FINGERPRINT>  (1) 
12403259 415 18409174333373912048
12553582 1 16056872529063107079
12670546 177 18342460382720584390
12892183 10 9150871902509122470
13583140 156 12973607741750640349
13675066 3 11818995162891097506
14251758 9 13840531936094607320
14251764 30 17415836044990788663
14251764 38 17604718905595697188
15209289 33 13326851149594214588
15209294 21 12757143606641540118
17980427 23 17313397724658024486
1813 80 14836127697194758464
200 152 18130792299355603491
20300324 65 18261107482784205909
20645477 56 17676497098613979520
20871999 31 18411411809101958303
21033648 29 18259988197797483624
21713013 43 18130215051830437783
22393880 68 18341606010609225958
22620623 9 18270662243820859679
23402539 116 17894349968828090316
23402655 69 18337388232080451589
23557571 272 18411986857661871349
23559900 14 17560792239302275400
238078 22 17917711348566571147
2838139 119 17385444311164517852
312423 11 12247098875261273890
531348 171 18337110047534389374

>  <PUBCHEM_SHAPE_MULTIPOLES>  (1) 
391.61
11.45
2.47
1.63
12.97
0.07
-0.59
-0.19
6.71
-4.27
0.97
-1.25
-0.03
-0.21

>  <PUBCHEM_SHAPE_SELFOVERLAP>  (1) 
757.561

>  <PUBCHEM_SHAPE_VOLUME>  (1) 
239.5

>  <PUBCHEM_COORDINATE_TYPE>  (1) 
2
5
10

$$$$
