28434
     RDKit          3D

 15 15  0  0  0  0  0  0  0  0999 V2000
    2.8990    2.1752    1.1202 O   0  0  0  0  0  0  0  0  0  0  0  0
    2.9678   -2.0158   -1.2801 O   0  0  0  0  0  0  0  0  0  0  0  0
    1.4803    0.0315   -0.0255 N   0  0  0  0  0  0  0  0  0  0  0  0
   -0.4981   -0.9862    0.8331 N   0  0  0  0  0  0  0  0  0  0  0  0
   -1.8544   -1.0560    0.9082 N   0  0  0  0  0  0  0  0  0  0  0  0
   -4.0086   -0.2511    0.2797 N   0  0  0  0  0  0  0  0  0  0  0  0
   -4.8139    0.4120   -0.6132 N   0  0  0  0  0  0  0  0  0  0  0  0
    2.1378    1.0227   -0.8448 C   0  0  0  0  0  0  0  0  0  0  0  0
    2.3066   -0.9012    0.7422 C   0  0  0  0  0  0  0  0  0  0  0  0
    0.0829   -0.0403    0.0537 C   0  0  0  0  0  0  0  0  0  0  0  0
    2.2006    2.3489   -0.1062 C   0  0  0  0  0  0  0  0  0  0  0  0
    2.4092   -2.2285    0.0102 C   0  0  0  0  0  0  0  0  0  0  0  0
   -0.6655    0.8692   -0.6781 C   0  0  0  0  0  0  0  0  0  0  0  0
   -2.0453    0.7980   -0.6016 C   0  0  0  0  0  0  0  0  0  0  0  0
   -2.5984   -0.1784    0.2022 C   0  0  0  0  0  0  0  0  0  0  0  0
  1 11  1  0
  2 12  1  0
  3  8  1  0
  3  9  1  0
  3 10  1  0
  4  5  2  0
  4 10  1  0
  5 15  1  0
  6  7  1  0
  6 15  1  0
  8 11  1  0
  9 12  1  0
 10 13  2  0
 13 14  1  0
 14 15  2  0
M  END
>  <PUBCHEM_COMPOUND_CID>  (1) 
28434

>  <PUBCHEM_CONFORMER_RMSD>  (1) 
0.8

>  <PUBCHEM_CONFORMER_DIVERSEORDER>  (1) 
1
5
24
16
12
19
2
23
25
27
30
17
15
4
10
18
29
3
20
26
7
28
6
9
11
13
8
21
22
14

>  <PUBCHEM_MMFF94_PARTIAL_CHARGES>  (1) 
22
1 -0.68
10 0.41
11 0.28
12 0.28
13 -0.15
14 -0.15
15 0.41
2 -0.68
24 0.15
25 0.15
26 0.4
27 0.4
28 0.4
29 0.36
3 -0.84
30 0.36
4 -0.31
5 -0.31
6 -0.51
7 -0.71
8 0.37
9 0.37

>  <PUBCHEM_EFFECTIVE_ROTOR_COUNT>  (1) 
6

>  <PUBCHEM_PHARMACOPHORE_FEATURES>  (1) 
9
1 1 acceptor
1 1 donor
1 2 acceptor
1 2 donor
1 6 donor
1 7 donor
3 3 4 10 cation
3 5 6 15 cation
6 4 5 10 13 14 15 rings

>  <PUBCHEM_HEAVY_ATOM_COUNT>  (1) 
15

>  <PUBCHEM_ATOM_DEF_STEREO_COUNT>  (1) 
0

>  <PUBCHEM_ATOM_UDEF_STEREO_COUNT>  (1) 
0

>  <PUBCHEM_BOND_DEF_STEREO_COUNT>  (1) 
0

>  <PUBCHEM_BOND_UDEF_STEREO_COUNT>  (1) 
0

>  <PUBCHEM_ISOTOPIC_ATOM_COUNT>  (1) 
0

>  <PUBCHEM_COMPONENT_COUNT>  (1) 
1

>  <PUBCHEM_CACTVS_TAUTO_COUNT>  (1) 
3

>  <PUBCHEM_CONFORMER_ID>  (1) 
00006F1200000001

>  <PUBCHEM_MMFF94_ENERGY>  (1) 
48.5356

>  <PUBCHEM_FEATURE_SELFOVERLAP>  (1) 
47.211

>  <PUBCHEM_SHAPE_FINGERPRINT>  (1) 
10608611 8 18260263053744008621
107287 299 18264218057135123580
10980938 120 18339080500856145345
12346645 6 18412260666301196044
13296908 3 17749395883956728451
13380535 76 18189048875049574050
15219456 202 18261394485320464347
15536298 74 18335138696099432285
16945 1 18115307761253470579
18186145 218 18040996207476269757
19026448 5 17775287162493078161
20559304 39 18343582919504607616
20645477 70 18411134732282846919
20671657 53 18268717104086818686
20708731 107 18410862044777243958
20711985 344 17333384402557829054
20715346 28 17968108563594951203
20871998 22 18267582399739631846
20871999 31 17972611991286700822
21618674 25 18267295602902900321
23559900 14 18259987084688316836
2748010 2 17969234471902103563
495365 180 18342166799872317977
7364860 26 18413952793464151788
81539 233 18335984289308434156
84936 31 18060413621430078822
9709674 26 18261678168169302275

>  <PUBCHEM_SHAPE_MULTIPOLES>  (1) 
272.05
6.5
2.23
1
6.86
0.21
0.04
-0.06
0.48
-3.01
-0.03
-0.46
-0.04
0.96

>  <PUBCHEM_SHAPE_SELFOVERLAP>  (1) 
544.072

>  <PUBCHEM_SHAPE_VOLUME>  (1) 
159.7

>  <PUBCHEM_COORDINATE_TYPE>  (1) 
2
5
10

$$$$
