28431
     RDKit          3D

  8  8  0  0  1  0  0  0  0  0999 V2000
   -0.2592   -1.7445    0.2858 O   0  0  0  0  0  0  0  0  0  0  0  0
    1.8032    0.1225    1.0675 O   0  0  0  0  0  0  0  0  0  0  0  0
   -0.2483   -0.3465    0.0297 C   0  0  0  0  0  0  0  0  0  0  0  0
   -0.5922   -1.3178   -1.0414 C   0  0  0  0  0  0  0  0  0  0  0  0
   -1.4060    0.3546    0.7200 C   0  0  0  0  0  0  0  0  0  0  0  0
    1.0694    0.2664    0.0908 C   0  0  0  0  0  0  0  0  0  0  0  0
   -1.8588    1.5824   -0.0520 C   0  0  0  0  0  0  0  0  0  0  0  0
    1.4919    1.0829   -1.1004 C   0  0  0  0  0  0  0  0  0  0  0  0
  1  3  1  0
  1  4  1  0
  2  6  2  0
  3  4  1  0
  3  5  1  0
  3  6  1  0
  5  7  1  0
  6  8  1  0
M  END
>  <PUBCHEM_COMPOUND_CID>  (1) 
28431

>  <PUBCHEM_CONFORMER_RMSD>  (1) 
0.4

>  <PUBCHEM_CONFORMER_DIVERSEORDER>  (1) 
3
20
6
14
22
2
21
9
5
19
1
12
16
23
13
15
8
10
18
17
24
25
11
4
7

>  <PUBCHEM_MMFF94_PARTIAL_CHARGES>  (1) 
9
1 -0.3
10 0.1
2 -0.57
3 0.05
4 -0.05
5 0.09
6 0.51
8 0.06
9 0.1

>  <PUBCHEM_EFFECTIVE_ROTOR_COUNT>  (1) 
2.6

>  <PUBCHEM_PHARMACOPHORE_FEATURES>  (1) 
3
1 1 acceptor
1 2 acceptor
1 7 hydrophobe

>  <PUBCHEM_HEAVY_ATOM_COUNT>  (1) 
8

>  <PUBCHEM_ATOM_DEF_STEREO_COUNT>  (1) 
0

>  <PUBCHEM_ATOM_UDEF_STEREO_COUNT>  (1) 
1

>  <PUBCHEM_BOND_DEF_STEREO_COUNT>  (1) 
0

>  <PUBCHEM_BOND_UDEF_STEREO_COUNT>  (1) 
0

>  <PUBCHEM_ISOTOPIC_ATOM_COUNT>  (1) 
0

>  <PUBCHEM_COMPONENT_COUNT>  (1) 
1

>  <PUBCHEM_CACTVS_TAUTO_COUNT>  (1) 
2

>  <PUBCHEM_CONFORMER_ID>  (1) 
00006F0F00000003

>  <PUBCHEM_MMFF94_ENERGY>  (1) 
7.6571

>  <PUBCHEM_FEATURE_SELFOVERLAP>  (1) 
15.225

>  <PUBCHEM_SHAPE_FINGERPRINT>  (1) 
137420 1 15660788596416069043
18185500 45 17829327234931602892
21040471 1 18342461413111769473
24536 1 18190736638483649942
5084963 1 18341909449795357209
5943 1 14960339727484214084

>  <PUBCHEM_SHAPE_MULTIPOLES>  (1) 
152.9
2.15
1.65
1.08
0.07
0.35
-0.08
-1.17
0.15
0.44
-0.35
-0.3
0.01
-0.21

>  <PUBCHEM_SHAPE_SELFOVERLAP>  (1) 
295.504

>  <PUBCHEM_SHAPE_VOLUME>  (1) 
95

>  <PUBCHEM_COORDINATE_TYPE>  (1) 
2
5
10

$$$$
