28447
     RDKit          3D

 17 17  0  0  0  0  0  0  0  0999 V2000
    0.9650    0.8716    1.2189 O   0  0  0  0  0  0  0  0  0  0  0  0
    3.3793    0.1321    0.1064 N   0  0  0  0  0  0  0  0  0  0  0  0
   -0.1158   -0.6360   -0.2203 N   0  0  0  0  0  0  0  0  0  0  0  0
    2.2534   -0.7994    0.0488 C   0  0  0  0  0  0  0  0  0  0  0  0
    3.1671    1.2480   -0.8147 C   0  0  0  0  0  0  0  0  0  0  0  0
    4.6302   -0.5580   -0.2060 C   0  0  0  0  0  0  0  0  0  0  0  0
    0.9767   -0.0737    0.4369 C   0  0  0  0  0  0  0  0  0  0  0  0
   -1.4733   -0.2467   -0.1273 C   0  0  0  0  0  0  0  0  0  0  0  0
    4.3384    2.2093   -0.7492 C   0  0  0  0  0  0  0  0  0  0  0  0
    4.8737   -1.6747    0.7908 C   0  0  0  0  0  0  0  0  0  0  0  0
   -2.4803   -1.1834   -0.2959 C   0  0  0  0  0  0  0  0  0  0  0  0
   -1.7634    1.0832    0.1342 C   0  0  0  0  0  0  0  0  0  0  0  0
   -3.8122   -0.7802   -0.2006 C   0  0  0  0  0  0  0  0  0  0  0  0
   -4.1196    0.5548    0.0622 C   0  0  0  0  0  0  0  0  0  0  0  0
   -3.0953    1.4866    0.2296 C   0  0  0  0  0  0  0  0  0  0  0  0
   -2.1803   -2.6198   -0.5782 C   0  0  0  0  0  0  0  0  0  0  0  0
   -5.5435    0.9863    0.1644 C   0  0  0  0  0  0  0  0  0  0  0  0
  1  7  2  0
  2  4  1  0
  2  5  1  0
  2  6  1  0
  3  7  1  0
  3  8  1  0
  4  7  1  0
  5  9  1  0
  6 10  1  0
  8 11  2  0
  8 12  1  0
 11 13  1  0
 11 16  1  0
 12 15  2  0
 13 14  2  0
 14 15  1  0
 14 17  1  0
M  END
>  <PUBCHEM_COMPOUND_CID>  (1) 
28447

>  <PUBCHEM_CONFORMER_RMSD>  (1) 
0.8

>  <PUBCHEM_CONFORMER_DIVERSEORDER>  (1) 
2
10
11
8
5
4
1
9
6
3
7
12

>  <PUBCHEM_MMFF94_PARTIAL_CHARGES>  (1) 
19
1 -0.57
11 -0.14
12 -0.15
13 -0.15
14 -0.14
15 -0.15
16 0.14
17 0.14
2 -0.81
24 0.37
3 -0.55
31 0.15
32 0.15
33 0.15
4 0.33
5 0.27
6 0.27
7 0.57
8 0.12

>  <PUBCHEM_EFFECTIVE_ROTOR_COUNT>  (1) 
6

>  <PUBCHEM_PHARMACOPHORE_FEATURES>  (1) 
4
1 1 acceptor
1 2 cation
1 3 donor
6 8 11 12 13 14 15 rings

>  <PUBCHEM_HEAVY_ATOM_COUNT>  (1) 
17

>  <PUBCHEM_ATOM_DEF_STEREO_COUNT>  (1) 
0

>  <PUBCHEM_ATOM_UDEF_STEREO_COUNT>  (1) 
0

>  <PUBCHEM_BOND_DEF_STEREO_COUNT>  (1) 
0

>  <PUBCHEM_BOND_UDEF_STEREO_COUNT>  (1) 
0

>  <PUBCHEM_ISOTOPIC_ATOM_COUNT>  (1) 
0

>  <PUBCHEM_COMPONENT_COUNT>  (1) 
1

>  <PUBCHEM_CACTVS_TAUTO_COUNT>  (1) 
2

>  <PUBCHEM_CONFORMER_ID>  (1) 
00006F1F00000002

>  <PUBCHEM_MMFF94_ENERGY>  (1) 
45.7821

>  <PUBCHEM_FEATURE_SELFOVERLAP>  (1) 
20.297

>  <PUBCHEM_SHAPE_FINGERPRINT>  (1) 
10616163 171 18341332274911083230
11405975 8 18335419080154625458
12107183 9 17832421990991699816
12236239 1 18186803569574580277
13167823 11 18335137596588200858
13533116 47 16443619095766541081
13760787 19 18411140268442826854
14115302 16 18343022181490751824
15042514 8 18340206392943550391
15196674 1 18410293644209714957
15239154 128 18335704961440948412
15242433 33 18411420626300545172
15342168 16 17169002238421455948
15375358 24 16558747910270269318
17804303 29 18201717379616542689
17834072 33 18408041831542782879
18186145 218 17022617598427057842
19050596 39 18408038524512994834
19422 9 18409165541169389246
20279233 1 16271927112399409662
20281475 54 18339354262061042854
20645477 56 18413390929995051101
20645477 70 18408888425911726582
20871999 31 18269833280419753519
21267235 1 18409456855615533643
212847 35 18342739611197472344
21652331 79 18260268555344206229
22079108 93 16950571016711884769
23175994 123 16559031593002413571
23402539 116 18130497562094603445
23402655 69 18409169952232651716
23503953 91 18410002243853753186
23559900 14 18273493481809081658
2838139 119 17823684271461505413
300161 21 18342172293525853548
3004659 81 18413392012675021342
4214541 1 18411136935147200462
474 4 17531814691746003956
5104073 3 18410012169090554330
559249 180 18265044731013322882
573450 72 18412535514027714226
58051976 100 18408042905358830294
633830 44 17531245093130031954
67856867 119 18337666533904739496
77779 3 18408605885292236694
9709674 26 18342182154460217718
9981440 41 17396986129287108744

>  <PUBCHEM_SHAPE_MULTIPOLES>  (1) 
334.02
11.53
2.12
0.83
2.76
0.37
-0.04
-1.67
0.04
0.55
0.35
0.41
-0.04
-1.4

>  <PUBCHEM_SHAPE_SELFOVERLAP>  (1) 
672.906

>  <PUBCHEM_SHAPE_VOLUME>  (1) 
198.6

>  <PUBCHEM_COORDINATE_TYPE>  (1) 
2
5
10

$$$$
