28446
     RDKit          3D

 12 13  0  0  0  0  0  0  0  0999 V2000
   -1.3979    1.1078   -0.0163 N   0  0  0  0  0  0  0  0  0  0  0  0
   -0.2853    1.8667   -0.0314 N   0  0  0  0  0  0  0  0  0  0  0  0
   -2.1594   -1.1397    0.0280 N   0  0  0  0  0  0  0  0  0  0  0  0
    1.0862   -1.5657    0.0430 C   0  0  0  0  0  0  0  0  0  0  0  0
    0.2096   -0.3692    0.0064 C   0  0  0  0  0  0  0  0  0  0  0  0
    2.5316   -1.1992   -0.3448 C   0  0  0  0  0  0  0  0  0  0  0  0
    3.0060    0.0978    0.3380 C   0  0  0  0  0  0  0  0  0  0  0  0
    2.1377    1.3107   -0.0477 C   0  0  0  0  0  0  0  0  0  0  0  0
    0.6946    0.9600   -0.0130 C   0  0  0  0  0  0  0  0  0  0  0  0
   -1.1569   -0.2372    0.0065 C   0  0  0  0  0  0  0  0  0  0  0  0
   -2.6878    1.7607   -0.0254 C   0  0  0  0  0  0  0  0  0  0  0  0
   -1.9785   -2.5926    0.0567 C   0  0  0  0  0  0  0  0  0  0  0  0
  1  2  1  0
  1 10  1  0
  1 11  1  0
  2  9  2  0
  3 10  1  0
  3 12  1  0
  4  5  1  0
  4  6  1  0
  5  9  1  0
  5 10  2  0
  6  7  1  0
  7  8  1  0
  8  9  1  0
M  END
>  <PUBCHEM_COMPOUND_CID>  (1) 
28446

>  <PUBCHEM_CONFORMER_RMSD>  (1) 
0.4

>  <PUBCHEM_CONFORMER_DIVERSEORDER>  (1) 
1
3
4
2

>  <PUBCHEM_MMFF94_PARTIAL_CHARGES>  (1) 
11
1 0.31
10 -0.07
11 0.26
12 0.37
2 -0.71
21 0.4
3 -0.85
4 0.18
5 -0.18
8 0.18
9 0.11

>  <PUBCHEM_EFFECTIVE_ROTOR_COUNT>  (1) 
1.8

>  <PUBCHEM_PHARMACOPHORE_FEATURES>  (1) 
5
1 2 acceptor
1 3 cation
1 3 donor
5 1 2 5 9 10 rings
6 4 5 6 7 8 9 rings

>  <PUBCHEM_HEAVY_ATOM_COUNT>  (1) 
12

>  <PUBCHEM_ATOM_DEF_STEREO_COUNT>  (1) 
0

>  <PUBCHEM_ATOM_UDEF_STEREO_COUNT>  (1) 
0

>  <PUBCHEM_BOND_DEF_STEREO_COUNT>  (1) 
0

>  <PUBCHEM_BOND_UDEF_STEREO_COUNT>  (1) 
0

>  <PUBCHEM_ISOTOPIC_ATOM_COUNT>  (1) 
0

>  <PUBCHEM_COMPONENT_COUNT>  (1) 
1

>  <PUBCHEM_CACTVS_TAUTO_COUNT>  (1) 
3

>  <PUBCHEM_CONFORMER_ID>  (1) 
00006F1E00000001

>  <PUBCHEM_MMFF94_ENERGY>  (1) 
14.4536

>  <PUBCHEM_FEATURE_SELFOVERLAP>  (1) 
25.471

>  <PUBCHEM_SHAPE_FINGERPRINT>  (1) 
10967382 1 18194402190906532167
12138202 97 18260819359140053365
12423570 1 8047067570758209057
12524768 44 18125443012125013278
13380535 21 18340500988274619420
13380535 76 18341043000193959527
16945 1 18266178340243705484
193761 8 18338517550828793013
19973954 147 18411139147297931484
20871998 184 18273216425721086311
21040471 1 18266178331537765332
21501502 16 18409449206431610788
2334 1 18338517546649662380
23552423 10 18261115188029335764
23559900 14 18270687447005820902
241688 4 18409168839456216568
2748010 2 18411982481221922414
5084963 1 18201163264331721490
528886 8 18339355262893697112
6333449 129 18411134701859028597

>  <PUBCHEM_SHAPE_MULTIPOLES>  (1) 
232.01
4.07
2.47
0.62
0.68
0.69
0
0.06
-0.07
-1.47
0.02
0.08
0.02
0.13

>  <PUBCHEM_SHAPE_SELFOVERLAP>  (1) 
482.503

>  <PUBCHEM_SHAPE_VOLUME>  (1) 
131.1

>  <PUBCHEM_COORDINATE_TYPE>  (1) 
2
5
10

$$$$
