28452
     RDKit          3D

 13 12  0  0  1  0  0  0  0  0999 V2000
   -0.7529    0.5385    0.1834 C   0  0  0  0  0  0  0  0  0  0  0  0
   -2.0135   -0.3581    0.1889 C   0  0  0  0  0  0  0  0  0  0  0  0
    0.5020   -0.3606    0.1160 C   0  0  0  0  0  0  0  0  0  0  0  0
   -3.3255    0.4280    0.3160 C   0  0  0  0  0  0  0  0  0  0  0  0
    1.8221    0.4148    0.1756 C   0  0  0  0  0  0  0  0  0  0  0  0
   -4.6084   -0.4277    0.3076 C   0  0  0  0  0  0  0  0  0  0  0  0
    3.0234   -0.5294    0.0780 C   0  0  0  0  0  0  0  0  0  0  0  0
   -0.7836    1.5501   -0.9665 C   0  0  0  0  0  0  0  0  0  0  0  0
    4.3427    0.2441    0.1053 C   0  0  0  0  0  0  0  0  0  0  0  0
   -4.7296   -1.2882   -0.9504 C   0  0  0  0  0  0  0  0  0  0  0  0
   -5.8706    0.4117    0.5052 C   0  0  0  0  0  0  0  0  0  0  0  0
    5.5410   -0.6957   -0.0260 C   0  0  0  0  0  0  0  0  0  0  0  0
    6.8531    0.0724   -0.0330 C   0  0  0  0  0  0  0  0  0  0  0  0
  1  2  1  0
  1  3  1  0
  1  8  1  0
  2  4  1  0
  3  5  1  0
  4  6  1  0
  5  7  1  0
  6 10  1  0
  6 11  1  0
  7  9  1  0
  9 12  1  0
 12 13  1  0
M  END
>  <PUBCHEM_COMPOUND_CID>  (1) 
28452

>  <PUBCHEM_CONFORMER_RMSD>  (1) 
0.8

>  <PUBCHEM_CONFORMER_DIVERSEORDER>  (1) 
1
33
46
28
66
29
4
51
34
16
42
80
9
52
76
11
22
97
23
2
93
55
13
58
101
31
3
83
17
57
81
94
32
30
72
92
96
56
38
69
67
95
78
53
5
35
82
79
20
39
65
36
6
19
26
10
85
63
15
89
91
27
99
8
41
62
43
54
74
60
18
50
12
68
87
14
59
86
7
70
77
47
64
48
25
21
49
44
84
45
71
73
24
90
75
88
40
61
37
98
100

>  <PUBCHEM_MMFF94_PARTIAL_CHARGES>  (1) 
0

>  <PUBCHEM_EFFECTIVE_ROTOR_COUNT>  (1) 
8

>  <PUBCHEM_PHARMACOPHORE_FEATURES>  (1) 
3
1 13 hydrophobe
1 8 hydrophobe
3 6 10 11 hydrophobe

>  <PUBCHEM_HEAVY_ATOM_COUNT>  (1) 
13

>  <PUBCHEM_ATOM_DEF_STEREO_COUNT>  (1) 
0

>  <PUBCHEM_ATOM_UDEF_STEREO_COUNT>  (1) 
1

>  <PUBCHEM_BOND_DEF_STEREO_COUNT>  (1) 
0

>  <PUBCHEM_BOND_UDEF_STEREO_COUNT>  (1) 
0

>  <PUBCHEM_ISOTOPIC_ATOM_COUNT>  (1) 
0

>  <PUBCHEM_COMPONENT_COUNT>  (1) 
1

>  <PUBCHEM_CACTVS_TAUTO_COUNT>  (1) 
1

>  <PUBCHEM_CONFORMER_ID>  (1) 
00006F2400000001

>  <PUBCHEM_MMFF94_ENERGY>  (1) 
6.9761

>  <PUBCHEM_FEATURE_SELFOVERLAP>  (1) 
15.223

>  <PUBCHEM_SHAPE_FINGERPRINT>  (1) 
10968037 39 18040436602722149146
11315181 36 17561083631521970027
114248 4 13984662555481477227
12091667 2 18334296465902837481
12714333 28 14201115713134196838
12815109 37 18186521003259458050
13288520 33 18130786789777504967
13533116 47 16877931712667163120
14123238 8 18409730656018273906
1420 363 18040438784908388058
14251718 22 18343301474708569594
14251732 16 17917424389142931336
14251764 46 16443348676183082835
15716309 27 18413670201748601330
17834072 33 18202565115713447032
17834072 8 16588019130531828199
17834076 25 8286200548278401722
187816 3 16515405166077065473
200 152 17530962471096463716
20281389 69 11239998941027272714
20645477 70 12180109961952332048
20767249 213 11815892362383603666
220451 1 18411982451125925050
23035841 295 18113337513736424531
23402539 116 18408038511701790239
23521765 1 18341896285752250058
23557571 272 18334860468202712172
23559900 14 17988353862422607521
23622692 88 14117795830120109888
3545911 37 11239998954048993164
42788 4 18273215300407661784
4463277 17 18334013886871975564
57483677 66 18202281390258483766
59755656 520 11527942335859268293
8209 1 18411139134481542970

>  <PUBCHEM_SHAPE_MULTIPOLES>  (1) 
267.53
16.28
1.09
0.8
11.99
0.1
-0.12
-2.78
0.57
-0.65
-0.27
-0.56
0.03
-0.42

>  <PUBCHEM_SHAPE_SELFOVERLAP>  (1) 
477.323

>  <PUBCHEM_SHAPE_VOLUME>  (1) 
175.9

>  <PUBCHEM_COORDINATE_TYPE>  (1) 
2
5
10

$$$$
