28453
     RDKit          3D

 13 12  0  0  1  0  0  0  0  0999 V2000
   -0.2355   -1.2452    0.2672 C   0  0  0  0  0  0  0  0  0  0  0  0
    0.6155    0.0349    0.3853 C   0  0  0  0  0  0  0  0  0  0  0  0
   -1.6827   -1.0167    0.7594 C   0  0  0  0  0  0  0  0  0  0  0  0
    2.1030   -0.1998    0.0939 C   0  0  0  0  0  0  0  0  0  0  0  0
    2.9129    1.0859    0.2943 C   0  0  0  0  0  0  0  0  0  0  0  0
   -2.5374   -0.1028   -0.1266 C   0  0  0  0  0  0  0  0  0  0  0  0
    4.4214    0.9063    0.0422 C   0  0  0  0  0  0  0  0  0  0  0  0
   -0.2108   -1.8254   -1.1493 C   0  0  0  0  0  0  0  0  0  0  0  0
   -3.9803    0.0425    0.3707 C   0  0  0  0  0  0  0  0  0  0  0  0
   -4.8481    0.9273   -0.5249 C   0  0  0  0  0  0  0  0  0  0  0  0
    4.7301    0.5242   -1.4062 C   0  0  0  0  0  0  0  0  0  0  0  0
    4.9820   -0.1590    0.9877 C   0  0  0  0  0  0  0  0  0  0  0  0
   -6.2700    1.0277    0.0064 C   0  0  0  0  0  0  0  0  0  0  0  0
  1  2  1  0
  1  3  1  0
  1  8  1  0
  2  4  1  0
  3  6  1  0
  4  5  1  0
  5  7  1  0
  6  9  1  0
  7 11  1  0
  7 12  1  0
  9 10  1  0
 10 13  1  0
M  END
>  <PUBCHEM_COMPOUND_CID>  (1) 
28453

>  <PUBCHEM_CONFORMER_RMSD>  (1) 
0.8

>  <PUBCHEM_CONFORMER_DIVERSEORDER>  (1) 
1
30
6
40
45
18
38
27
48
4
51
24
43
15
52
25
54
9
20
2
8
11
36
50
3
22
21
5
14
13
26
31
39
7
28
53
34
44
23
41
12
56
33
32
46
47
17
19
55
49
29
35
42
37
10
16

>  <PUBCHEM_MMFF94_PARTIAL_CHARGES>  (1) 
0

>  <PUBCHEM_EFFECTIVE_ROTOR_COUNT>  (1) 
8

>  <PUBCHEM_PHARMACOPHORE_FEATURES>  (1) 
3
1 13 hydrophobe
1 8 hydrophobe
3 7 11 12 hydrophobe

>  <PUBCHEM_HEAVY_ATOM_COUNT>  (1) 
13

>  <PUBCHEM_ATOM_DEF_STEREO_COUNT>  (1) 
0

>  <PUBCHEM_ATOM_UDEF_STEREO_COUNT>  (1) 
1

>  <PUBCHEM_BOND_DEF_STEREO_COUNT>  (1) 
0

>  <PUBCHEM_BOND_UDEF_STEREO_COUNT>  (1) 
0

>  <PUBCHEM_ISOTOPIC_ATOM_COUNT>  (1) 
0

>  <PUBCHEM_COMPONENT_COUNT>  (1) 
1

>  <PUBCHEM_CACTVS_TAUTO_COUNT>  (1) 
1

>  <PUBCHEM_CONFORMER_ID>  (1) 
00006F2500000001

>  <PUBCHEM_MMFF94_ENERGY>  (1) 
7.4963

>  <PUBCHEM_FEATURE_SELFOVERLAP>  (1) 
15.223

>  <PUBCHEM_SHAPE_FINGERPRINT>  (1) 
10014705 185 17987795357955470584
100836 57 18260833695936234781
10354089 29 17095243622343281853
10803635 8 13542465324568224281
11401426 45 17561360703571665690
114248 4 14476958999671662041
11458722 120 18334006186438335960
12119455 92 18413384341277978719
12555020 224 17060353915550481070
12596602 18 15502380032437366361
12670543 26 16845579677804042681
12714333 28 17418089910630248001
14123238 8 11527948971467091976
14123255 352 18333731316994992189
14251764 18 18040711494067746826
14252887 29 12901539118247193792
14445660 50 16443348727654294122
15048467 5 17313108579096692756
15501527 16 18333452062395041321
15501527 24 14620792708565504189
15531645 54 18410012118057387114
17834072 8 18272939319184694228
17834076 25 18186801379115041489
187816 3 16702303464123267827
200 152 13326859936981218178
20279233 1 16702028625567309470
20281389 69 17968092019391904941
20374829 77 11527945647721547949
20605781 2 18409730651760327241
20621476 21 13541600116576301589
20645477 56 18333734624293785931
20645477 70 17631742573238406718
20724930 31 9079115557266176699
20767249 213 17822010913458008705
212847 35 18259703411063078760
21637258 2 11383828234694487633
22218785 32 17704075100748548494
23218964 4 18335419054574576178
23253445 4 13190344586251018965
23402539 116 18060411439185772293
23402655 69 17988922241636592605
23559900 14 16845012420446660722
23622692 88 14129063616997448947
2767999 5 18410288103997594497
2838139 119 18336815434242086277
351380 180 18341890800947456073
351380 3 9223229641878783681
366044 4 18273213110069610983
4072396 5 18272079471132809242
4325135 7 18410570713573476959
449060 50 16443061703273888315
59682541 52 17416970534620564101
6430166 295 18410289229104628040
81539 233 18410856525396726023

>  <PUBCHEM_SHAPE_MULTIPOLES>  (1) 
267.53
13.54
1.4
1.05
7.27
0.39
-0.22
-7.16
-0.61
0.39
-0.23
-0.88
0.14
0

>  <PUBCHEM_SHAPE_SELFOVERLAP>  (1) 
478.409

>  <PUBCHEM_SHAPE_VOLUME>  (1) 
175.6

>  <PUBCHEM_COORDINATE_TYPE>  (1) 
2
5
10

$$$$
