28456
     RDKit          3D

 11 10  0  0  1  0  0  0  0  0999 V2000
   -0.3987   -1.2673   -0.2736 C   0  0  0  0  0  0  0  0  0  0  0  0
    0.5771   -0.1279    0.0890 C   0  0  0  0  0  0  0  0  0  0  0  0
   -1.8213   -0.9938    0.2647 C   0  0  0  0  0  0  0  0  0  0  0  0
    1.9991   -0.2542   -0.4782 C   0  0  0  0  0  0  0  0  0  0  0  0
    2.9518    0.9137   -0.1604 C   0  0  0  0  0  0  0  0  0  0  0  0
   -2.4437    0.3011   -0.2677 C   0  0  0  0  0  0  0  0  0  0  0  0
    0.0851   -2.6179    0.2674 C   0  0  0  0  0  0  0  0  0  0  0  0
   -3.8766    0.4749    0.2390 C   0  0  0  0  0  0  0  0  0  0  0  0
    3.0857    1.1643    1.3422 C   0  0  0  0  0  0  0  0  0  0  0  0
    4.3313    0.6330   -0.7630 C   0  0  0  0  0  0  0  0  0  0  0  0
   -4.4898    1.7741   -0.2592 C   0  0  0  0  0  0  0  0  0  0  0  0
  1  2  1  0
  1  3  1  0
  1  7  1  0
  2  4  1  0
  3  6  1  0
  4  5  1  0
  5  9  1  0
  5 10  1  0
  6  8  1  0
  8 11  1  0
M  END
>  <PUBCHEM_COMPOUND_CID>  (1) 
28456

>  <PUBCHEM_CONFORMER_RMSD>  (1) 
0.6

>  <PUBCHEM_CONFORMER_DIVERSEORDER>  (1) 
1
52
29
33
16
21
41
20
18
9
5
17
27
14
7
42
40
45
3
25
43
30
23
32
8
10
51
28
13
48
15
44
4
34
47
11
6
19
53
35
26
31
22
39
12
46
36
38
24
2
49
50
37

>  <PUBCHEM_MMFF94_PARTIAL_CHARGES>  (1) 
0

>  <PUBCHEM_EFFECTIVE_ROTOR_COUNT>  (1) 
6

>  <PUBCHEM_PHARMACOPHORE_FEATURES>  (1) 
3
1 11 hydrophobe
1 7 hydrophobe
3 5 9 10 hydrophobe

>  <PUBCHEM_HEAVY_ATOM_COUNT>  (1) 
11

>  <PUBCHEM_ATOM_DEF_STEREO_COUNT>  (1) 
0

>  <PUBCHEM_ATOM_UDEF_STEREO_COUNT>  (1) 
1

>  <PUBCHEM_BOND_DEF_STEREO_COUNT>  (1) 
0

>  <PUBCHEM_BOND_UDEF_STEREO_COUNT>  (1) 
0

>  <PUBCHEM_ISOTOPIC_ATOM_COUNT>  (1) 
0

>  <PUBCHEM_COMPONENT_COUNT>  (1) 
1

>  <PUBCHEM_CACTVS_TAUTO_COUNT>  (1) 
1

>  <PUBCHEM_CONFORMER_ID>  (1) 
00006F2800000001

>  <PUBCHEM_MMFF94_ENERGY>  (1) 
6.9243

>  <PUBCHEM_FEATURE_SELFOVERLAP>  (1) 
15.223

>  <PUBCHEM_SHAPE_FINGERPRINT>  (1) 
100836 57 18335711528445924549
11543360 7 15913318126604176773
122479 349 18410012181964853869
124424 183 17918003801880084342
12500047 106 18341332305428904670
14123255 352 18186799162901685957
14123255 52 18411415099078652741
14252887 29 11530482216319551116
14897335 6 18410569566110469863
15477762 27 9582934875195030751
15501527 16 18410299146242441972
15775835 57 18335139795225970707
170605 34 18340488868198884447
177051 138 8718830894291149160
17834072 32 18336271231351601965
18186145 218 17917717919486271387
19782 4 18339631287683762961
20281475 54 10159688119250908447
20432913 95 12757152376817260361
20645477 56 18198908195968861200
20645477 70 16845027791997456980
20671657 53 10879986961030128899
20724930 31 9007054660525141732
20767249 271 18411978070090432481
20767249 442 18410570690917030809
20871998 22 7997975690779954706
21119208 17 16128659643224751725
212847 35 18410573955445662136
21499 59 18410569570468584991
21524375 3 18411980252128984711
22485316 2 9583526399333750869
23382010 3 15123496043244931119
23402539 116 18272082807947767460
23402655 69 17847064363147913661
23500284 214 18408610257837950065
25 1 18272373048683599639
305870 269 18334573521015796347
4028521 119 18131351903745889353
449060 62 18338801100696655357
6430166 295 18409165511104533644
7364860 26 18196934361985869759
81539 233 18260828142496152279

>  <PUBCHEM_SHAPE_MULTIPOLES>  (1) 
226.37
8.43
2.03
0.89
2.27
1.15
0.17
-6.46
-0.66
0.78
0.2
-0.71
-0.2
0.42

>  <PUBCHEM_SHAPE_SELFOVERLAP>  (1) 
401.433

>  <PUBCHEM_SHAPE_VOLUME>  (1) 
150.1

>  <PUBCHEM_COORDINATE_TYPE>  (1) 
2
5
10

$$$$
