28457
     RDKit          3D

 11 10  0  0  1  0  0  0  0  0999 V2000
    1.8487   -1.1518    0.4497 C   0  0  0  0  0  0  0  0  0  0  0  0
    0.4857   -1.2996   -0.2551 C   0  0  0  0  0  0  0  0  0  0  0  0
   -0.6477   -0.5322    0.4340 C   0  0  0  0  0  0  0  0  0  0  0  0
   -1.9695   -0.7049   -0.3222 C   0  0  0  0  0  0  0  0  0  0  0  0
    2.2923    0.3059    0.6928 C   0  0  0  0  0  0  0  0  0  0  0  0
   -3.1328    0.1020    0.2835 C   0  0  0  0  0  0  0  0  0  0  0  0
    2.9159   -1.9362   -0.3213 C   0  0  0  0  0  0  0  0  0  0  0  0
    2.5133    1.1398   -0.5719 C   0  0  0  0  0  0  0  0  0  0  0  0
   -2.7650    1.5871    0.3298 C   0  0  0  0  0  0  0  0  0  0  0  0
   -4.4378   -0.0822   -0.4920 C   0  0  0  0  0  0  0  0  0  0  0  0
    2.8969    2.5719   -0.2273 C   0  0  0  0  0  0  0  0  0  0  0  0
  1  2  1  0
  1  5  1  0
  1  7  1  0
  2  3  1  0
  3  4  1  0
  4  6  1  0
  5  8  1  0
  6  9  1  0
  6 10  1  0
  8 11  1  0
M  END
>  <PUBCHEM_COMPOUND_CID>  (1) 
28457

>  <PUBCHEM_CONFORMER_RMSD>  (1) 
0.6

>  <PUBCHEM_CONFORMER_DIVERSEORDER>  (1) 
1
35
43
11
31
6
41
16
26
38
9
32
8
13
15
17
18
28
44
7
29
30
27
36
34
21
4
10
39
12
20
25
37
40
23
19
3
5
24
22
42
2
14
33

>  <PUBCHEM_MMFF94_PARTIAL_CHARGES>  (1) 
0

>  <PUBCHEM_EFFECTIVE_ROTOR_COUNT>  (1) 
6

>  <PUBCHEM_PHARMACOPHORE_FEATURES>  (1) 
3
1 11 hydrophobe
1 7 hydrophobe
3 6 9 10 hydrophobe

>  <PUBCHEM_HEAVY_ATOM_COUNT>  (1) 
11

>  <PUBCHEM_ATOM_DEF_STEREO_COUNT>  (1) 
0

>  <PUBCHEM_ATOM_UDEF_STEREO_COUNT>  (1) 
1

>  <PUBCHEM_BOND_DEF_STEREO_COUNT>  (1) 
0

>  <PUBCHEM_BOND_UDEF_STEREO_COUNT>  (1) 
0

>  <PUBCHEM_ISOTOPIC_ATOM_COUNT>  (1) 
0

>  <PUBCHEM_COMPONENT_COUNT>  (1) 
1

>  <PUBCHEM_CACTVS_TAUTO_COUNT>  (1) 
1

>  <PUBCHEM_CONFORMER_ID>  (1) 
00006F2900000001

>  <PUBCHEM_MMFF94_ENERGY>  (1) 
7.3897

>  <PUBCHEM_FEATURE_SELFOVERLAP>  (1) 
15.223

>  <PUBCHEM_SHAPE_FINGERPRINT>  (1) 
10149128 111 18336548316860783560
12162725 195 18412261697183011379
12932764 1 17418088853883806675
13618510 140 18336830895707535772
14123255 52 18194401319387406436
14250199 8 18410293588448967221
14251717 144 18410005546493654229
14325111 11 18341330016005575107
14415576 193 18342739581169436071
14648413 74 18408612465425156218
14897335 6 18339357573454285378
15775835 57 18341897453809579972
17041 49 18190172387144699226
17041 50 18194122915180080038
170605 34 18260828245437938154
17802600 8 18334288730355721869
18186145 218 18187082811120999715
20606313 2 18409164407023645004
20653085 51 18339088086010840611
20671657 1 18410296912933086846
21524375 3 18191300696775958496
22096605 113 18409729599097597065
22485316 2 9079107856912164899
2255824 54 18409446955990632210
22959321 54 18409448128490050913
23380061 50 17603304886375818947
23380061 81 18409453569928499115
23532345 88 18341890762376925614
3248919 1 18410564094079502755
449060 62 18411703222485493489
6333272 397 18334294296881322419
7364860 26 18413109459508428100
93112 12 18411420592067868575

>  <PUBCHEM_SHAPE_MULTIPOLES>  (1) 
226.37
7.3
2.26
0.79
5.79
1
-0.01
1.66
0.78
-2.61
0.22
-0.08
0.01
-0.35

>  <PUBCHEM_SHAPE_SELFOVERLAP>  (1) 
402.656

>  <PUBCHEM_SHAPE_VOLUME>  (1) 
149.8

>  <PUBCHEM_COORDINATE_TYPE>  (1) 
2
5
10

$$$$
