28464
     RDKit          3D

 27 28  0  0  0  0  0  0  0  0999 V2000
    1.4646   -2.6568    0.3897 O   0  0  0  0  0  0  0  0  0  0  0  0
   -1.3936    2.7711    0.0232 N   0  0  0  0  0  0  0  0  0  0  0  0
    1.6754   -0.2872    0.3492 N   0  0  0  0  0  0  0  0  0  0  0  0
    0.5234    1.5010   -0.8990 C   0  0  0  0  0  0  0  0  0  0  0  0
   -0.2163    2.8402   -0.8338 C   0  0  0  0  0  0  0  0  0  0  0  0
    1.0166    0.9860    0.4519 C   0  0  0  0  0  0  0  0  0  0  0  0
   -1.7658    4.1055    0.4969 C   0  0  0  0  0  0  0  0  0  0  0  0
   -2.5144    2.1547   -0.6891 C   0  0  0  0  0  0  0  0  0  0  0  0
    3.1253   -0.3130    0.1155 C   0  0  0  0  0  0  0  0  0  0  0  0
    3.9907    0.2808    1.0344 C   0  0  0  0  0  0  0  0  0  0  0  0
    3.6371   -0.9321   -1.0251 C   0  0  0  0  0  0  0  0  0  0  0  0
    0.9783   -1.5283    0.4651 C   0  0  0  0  0  0  0  0  0  0  0  0
   -2.1482    5.0121   -0.6607 C   0  0  0  0  0  0  0  0  0  0  0  0
   -3.7287    2.0159    0.2133 C   0  0  0  0  0  0  0  0  0  0  0  0
    5.3676    0.2555    0.8128 C   0  0  0  0  0  0  0  0  0  0  0  0
    5.0141   -0.9575   -1.2464 C   0  0  0  0  0  0  0  0  0  0  0  0
    3.4729    0.9517    2.2654 C   0  0  0  0  0  0  0  0  0  0  0  0
    2.7359   -1.5775   -2.0274 C   0  0  0  0  0  0  0  0  0  0  0  0
    5.8792   -0.3638   -0.3276 C   0  0  0  0  0  0  0  0  0  0  0  0
   -0.4911   -1.3905    0.7001 C   0  0  0  0  0  0  0  0  0  0  0  0
   -1.3574   -1.9122   -0.1807 C   0  0  0  0  0  0  0  0  0  0  0  0
   -2.8231   -1.8679   -0.0390 C   0  0  0  0  0  0  0  0  0  0  0  0
   -3.3963   -1.6458    1.2132 C   0  0  0  0  0  0  0  0  0  0  0  0
   -3.6378   -2.0479   -1.1569 C   0  0  0  0  0  0  0  0  0  0  0  0
   -4.7840   -1.6041    1.3476 C   0  0  0  0  0  0  0  0  0  0  0  0
   -5.0256   -2.0058   -1.0224 C   0  0  0  0  0  0  0  0  0  0  0  0
   -5.5986   -1.7840    0.2299 C   0  0  0  0  0  0  0  0  0  0  0  0
  1 12  2  0
  2  5  1  0
  2  7  1  0
  2  8  1  0
  3  6  1  0
  3  9  1  0
  3 12  1  0
  4  5  1  0
  4  6  1  0
  7 13  1  0
  8 14  1  0
  9 10  2  0
  9 11  1  0
 10 15  1  0
 10 17  1  0
 11 16  2  0
 11 18  1  0
 12 20  1  0
 15 19  2  0
 16 19  1  0
 20 21  2  0
 21 22  1  0
 22 23  2  0
 22 24  1  0
 23 25  1  0
 24 26  2  0
 25 27  2  0
 26 27  1  0
M  END
>  <PUBCHEM_COMPOUND_CID>  (1) 
28464

>  <PUBCHEM_CONFORMER_RMSD>  (1) 
1

>  <PUBCHEM_CONFORMER_DIVERSEORDER>  (1) 
2
54
78
83
75
57
84
21
70
85
56
10
26
48
14
9
59
17
44
74
29
82
33
30
53
40
73
24
66
65
12
88
87
20
43
32
51
61
42
25
58
27
63
89
8
68
81
80
71
86
7
41
79
34
38
37
35
45
22
4
55
50
47
49
39
69
52
62
18
15
77
36
76
1
46
28
11
3
16
6
23
19
67
60
64
5
31
13
72

>  <PUBCHEM_MMFF94_PARTIAL_CHARGES>  (1) 
34
1 -0.57
10 -0.14
11 -0.14
12 0.62
15 -0.15
16 -0.15
17 0.14
18 0.14
19 -0.15
2 -0.81
20 -0.14
21 -0.18
22 0.03
23 -0.15
24 -0.15
25 -0.15
26 -0.15
27 -0.15
3 -0.48
44 0.15
45 0.15
5 0.27
52 0.15
53 0.15
54 0.15
55 0.15
56 0.15
57 0.15
58 0.15
59 0.15
6 0.3
7 0.27
8 0.27
9 0.12

>  <PUBCHEM_EFFECTIVE_ROTOR_COUNT>  (1) 
10

>  <PUBCHEM_PHARMACOPHORE_FEATURES>  (1) 
4
1 1 acceptor
1 2 cation
6 22 23 24 25 26 27 rings
6 9 10 11 15 16 19 rings

>  <PUBCHEM_HEAVY_ATOM_COUNT>  (1) 
27

>  <PUBCHEM_ATOM_DEF_STEREO_COUNT>  (1) 
0

>  <PUBCHEM_ATOM_UDEF_STEREO_COUNT>  (1) 
0

>  <PUBCHEM_BOND_DEF_STEREO_COUNT>  (1) 
0

>  <PUBCHEM_BOND_UDEF_STEREO_COUNT>  (1) 
1

>  <PUBCHEM_ISOTOPIC_ATOM_COUNT>  (1) 
0

>  <PUBCHEM_COMPONENT_COUNT>  (1) 
1

>  <PUBCHEM_CACTVS_TAUTO_COUNT>  (1) 
1

>  <PUBCHEM_CONFORMER_ID>  (1) 
00006F3000000002

>  <PUBCHEM_MMFF94_ENERGY>  (1) 
93.7869

>  <PUBCHEM_FEATURE_SELFOVERLAP>  (1) 
20.297

>  <PUBCHEM_SHAPE_FINGERPRINT>  (1) 
10006869 2 18119524333397510323
10670039 82 18261116253540207390
11014199 57 17981043330080339343
11595378 159 18259979349494525570
11646440 116 18335708294625785611
12166972 35 17458907157855261287
12293681 4 18114475555505640619
12553582 1 18335140938072796267
12788726 201 18261968434933310588
13583140 156 15195286399986000531
14081887 123 18339349782436527185
14363568 33 17758136060636445737
14955137 171 18192157207691853371
15081414 286 18121784091131830809
15484559 13 17404003839481452133
15961568 22 18194676201758317808
16087824 20 18337390428180890069
17357779 13 18339352054568951383
1813 80 18341343282964471263
21033648 29 18060127765270423659
21033650 10 18117867441946122046
21236236 1 18409448072686799794
21285901 2 18201169805583186150
21641784 216 18041292010200195060
21796203 349 17829088516919437905
23557571 272 18411703183814957278
283562 15 18334855004640191194
3052486 1 18260266326566772580
314173 85 18411139181573507731
469060 322 17967541159676132017
5171179 24 18200867499936247912
653340 110 18339640044826628585
7399639 24 18059278968422013434
9658208 31 18052261691566043868
9971528 1 18199750404495681074

>  <PUBCHEM_SHAPE_MULTIPOLES>  (1) 
539.82
11.92
4.67
1.49
3.69
7.31
0.11
-6.8
0.39
-6.53
-0.86
0.88
-0.29
1.26

>  <PUBCHEM_SHAPE_SELFOVERLAP>  (1) 
1113.864

>  <PUBCHEM_SHAPE_VOLUME>  (1) 
310.5

>  <PUBCHEM_COORDINATE_TYPE>  (1) 
2
5
10

$$$$
