28462
     RDKit          3D

 12 12  0  0  0  0  0  0  0  0999 V2000
    4.6783    0.7600    0.1550 Br  0  0  0  0  0  0  0  0  0  0  0  0
   -4.8070    1.2920    0.3545 Cl  0  0  0  0  0  0  0  0  0  0  0  0
   -1.6395   -1.8353   -0.4156 O   0  0  0  0  0  0  0  0  0  0  0  0
    0.1350   -0.3351   -0.0867 C   0  0  0  0  0  0  0  0  0  0  0  0
    0.5584    0.9571   -0.3973 C   0  0  0  0  0  0  0  0  0  0  0  0
    1.0658   -1.3008    0.2964 C   0  0  0  0  0  0  0  0  0  0  0  0
    1.9126    1.2836   -0.3251 C   0  0  0  0  0  0  0  0  0  0  0  0
    2.4200   -0.9742    0.3687 C   0  0  0  0  0  0  0  0  0  0  0  0
   -1.2768   -0.6762   -0.1631 C   0  0  0  0  0  0  0  0  0  0  0  0
    2.8434    0.3179    0.0580 C   0  0  0  0  0  0  0  0  0  0  0  0
   -2.2932    0.3963    0.1004 C   0  0  0  0  0  0  0  0  0  0  0  0
   -3.5970    0.1146    0.0549 C   0  0  0  0  0  0  0  0  0  0  0  0
  1 10  1  0
  2 12  1  0
  3  9  2  0
  4  5  2  0
  4  6  1  0
  4  9  1  0
  5  7  1  0
  6  8  2  0
  7 10  2  0
  8 10  1  0
  9 11  1  0
 11 12  2  0
M  END
>  <PUBCHEM_COMPOUND_CID>  (1) 
28462

>  <PUBCHEM_CONFORMER_RMSD>  (1) 
0.6

>  <PUBCHEM_CONFORMER_DIVERSEORDER>  (1) 
1
3
2

>  <PUBCHEM_MMFF94_PARTIAL_CHARGES>  (1) 
18
1 -0.11
10 0.11
11 -0.14
12 -0.01
13 0.15
14 0.15
15 0.15
16 0.15
17 0.15
18 0.15
2 -0.14
3 -0.57
4 0.09
5 -0.15
6 -0.15
7 -0.15
8 -0.15
9 0.47

>  <PUBCHEM_EFFECTIVE_ROTOR_COUNT>  (1) 
2

>  <PUBCHEM_PHARMACOPHORE_FEATURES>  (1) 
3
1 1 hydrophobe
1 3 acceptor
6 4 5 6 7 8 10 rings

>  <PUBCHEM_HEAVY_ATOM_COUNT>  (1) 
12

>  <PUBCHEM_ATOM_DEF_STEREO_COUNT>  (1) 
0

>  <PUBCHEM_ATOM_UDEF_STEREO_COUNT>  (1) 
0

>  <PUBCHEM_BOND_DEF_STEREO_COUNT>  (1) 
0

>  <PUBCHEM_BOND_UDEF_STEREO_COUNT>  (1) 
1

>  <PUBCHEM_ISOTOPIC_ATOM_COUNT>  (1) 
0

>  <PUBCHEM_COMPONENT_COUNT>  (1) 
1

>  <PUBCHEM_CACTVS_TAUTO_COUNT>  (1) 
1

>  <PUBCHEM_CONFORMER_ID>  (1) 
00006F2E00000001

>  <PUBCHEM_MMFF94_ENERGY>  (1) 
30.2911

>  <PUBCHEM_FEATURE_SELFOVERLAP>  (1) 
15.223

>  <PUBCHEM_SHAPE_FINGERPRINT>  (1) 
10354089 29 18334584525059443569
10980938 120 18334011661915139091
11062470 55 17775284971442702144
11471102 20 18335698312762632117
12251169 10 18334294283711421293
12346645 6 18340769252042892422
12500047 106 17989201585803440718
13380535 76 18410856576888724287
13760787 5 17603859040457802886
14144814 61 18410292497543039777
14252887 29 12468636097524633056
14325111 11 18410856555909253239
14897335 6 18412824698565374311
15775835 57 18410576201365157857
16945 1 18262224582477099718
17844478 74 17240480278183287021
19026448 4 17131553963728079878
20645477 70 18340204072885685855
20871998 22 18049719612303759250
23402539 116 17846492634650585061
23402655 69 18271519819592886973
23559900 14 18131353047014064672
293599 30 18410577301399291484
5104073 3 18408319999210086139
528886 8 18408879668161900874
53655031 270 18408884023374926456
53812653 166 18411414046901362184
6430166 295 18410011031008888941
7364860 26 18270963428012601278

>  <PUBCHEM_SHAPE_MULTIPOLES>  (1) 
248.9
8.4
1.53
0.69
3.21
0.27
0.01
-3.86
1.19
0.16
-0.05
-0.03
-0.02
-0.41

>  <PUBCHEM_SHAPE_SELFOVERLAP>  (1) 
493.082

>  <PUBCHEM_SHAPE_VOLUME>  (1) 
152.5

>  <PUBCHEM_COORDINATE_TYPE>  (1) 
2
5
10

$$$$
