28469
     RDKit          3D

 13 12  0  0  1  0  0  0  0  0999 V2000
   -4.2418   -0.4543    0.2204 C   0  0  0  0  0  0  0  0  0  0  0  0
   -2.9316    0.2111   -0.2564 C   0  0  0  0  0  0  0  0  0  0  0  0
   -1.6279   -0.3863    0.2866 C   0  0  0  0  0  0  0  0  0  0  0  0
   -0.3748    0.3646   -0.1674 C   0  0  0  0  0  0  0  0  0  0  0  0
    0.8966   -0.3332    0.3215 C   0  0  0  0  0  0  0  0  0  0  0  0
    2.1526    0.3954   -0.1622 C   0  0  0  0  0  0  0  0  0  0  0  0
   -5.4841    0.3211   -0.2601 C   0  0  0  0  0  0  0  0  0  0  0  0
    3.4220   -0.3226    0.3003 C   0  0  0  0  0  0  0  0  0  0  0  0
   -4.2583   -1.9112   -0.2603 C   0  0  0  0  0  0  0  0  0  0  0  0
    4.7118    0.3526   -0.1759 C   0  0  0  0  0  0  0  0  0  0  0  0
   -5.5401    1.7614    0.2319 C   0  0  0  0  0  0  0  0  0  0  0  0
    6.0124   -0.3689    0.1855 C   0  0  0  0  0  0  0  0  0  0  0  0
    7.2631    0.3701   -0.2639 C   0  0  0  0  0  0  0  0  0  0  0  0
  1  2  1  0
  1  7  1  0
  1  9  1  0
  2  3  1  0
  3  4  1  0
  4  5  1  0
  5  6  1  0
  6  8  1  0
  7 11  1  0
  8 10  1  0
 10 12  1  0
 12 13  1  0
M  END
>  <PUBCHEM_COMPOUND_CID>  (1) 
28469

>  <PUBCHEM_CONFORMER_RMSD>  (1) 
1

>  <PUBCHEM_CONFORMER_DIVERSEORDER>  (1) 
1
81
17
337
8
519
72
102
5
318
281
133
492
121
277
362
26
517
124
25
258
59
163
395
193
9
457
187
179
320
32
47
360
3
464
48
4
293
56
449
120
516
24
115
186
292
6
205
23
76
249
354
41
86
171
111
172
305
105
196
288
502
384
42
447
332
10
88
84
424
142
44
152
71
190
65
77
36
178
466
161
369
414
148
232
22
52
505
474
200
468
351
330
404

>  <PUBCHEM_MMFF94_PARTIAL_CHARGES>  (1) 
0

>  <PUBCHEM_EFFECTIVE_ROTOR_COUNT>  (1) 
9

>  <PUBCHEM_PHARMACOPHORE_FEATURES>  (1) 
3
1 11 hydrophobe
1 13 hydrophobe
1 9 hydrophobe

>  <PUBCHEM_HEAVY_ATOM_COUNT>  (1) 
13

>  <PUBCHEM_ATOM_DEF_STEREO_COUNT>  (1) 
0

>  <PUBCHEM_ATOM_UDEF_STEREO_COUNT>  (1) 
1

>  <PUBCHEM_BOND_DEF_STEREO_COUNT>  (1) 
0

>  <PUBCHEM_BOND_UDEF_STEREO_COUNT>  (1) 
0

>  <PUBCHEM_ISOTOPIC_ATOM_COUNT>  (1) 
0

>  <PUBCHEM_COMPONENT_COUNT>  (1) 
1

>  <PUBCHEM_CACTVS_TAUTO_COUNT>  (1) 
1

>  <PUBCHEM_CONFORMER_ID>  (1) 
00006F3500000001

>  <PUBCHEM_MMFF94_ENERGY>  (1) 
1.8607

>  <PUBCHEM_FEATURE_SELFOVERLAP>  (1) 
15.223

>  <PUBCHEM_SHAPE_FINGERPRINT>  (1) 
11315181 36 17489871557456683273
12091667 2 18410013251754725475
13288520 33 18412262878774057223
13533116 47 17095793344831062904
13964095 4 18342740697908353788
14123238 8 17458060473967191642
1420 363 17203615904151735070
14251718 22 18408322207371921018
14251731 8 18202282511102204875
14251764 18 18260265244335383843
14251764 46 16225767419626632161
15048467 5 18335421244491205145
15242439 84 17846776317023922219
17093844 174 18411696599772316049
17834072 33 18336547209207360868
17834072 8 17703788115608352241
17834076 25 17676206870488274496
19489759 90 17775284954732253665
20281389 69 18186517687640164317
20621476 66 18261396615883121701
20621476 8 18187082802325194004
20645477 70 16486700151839195391
21130983 4 17530688719230658708
220451 1 17894628149960718946
23402539 116 18410007749711604927
23521765 1 18341894095134299620
23536379 177 18409166602047228594
23559900 14 18201151130727454672
300161 21 18260823787335887235
42788 4 18410011043930434712
4463277 17 18409449193905651884
57583515 80 18130790048750243448
8209 1 18409729565096554716

>  <PUBCHEM_SHAPE_MULTIPOLES>  (1) 
267.53
18.81
1.24
0.68
18.29
0.12
0
-2.58
0.85
-2.42
0.01
-0.01
0.01
-0.39

>  <PUBCHEM_SHAPE_SELFOVERLAP>  (1) 
473.383

>  <PUBCHEM_SHAPE_VOLUME>  (1) 
176.2

>  <PUBCHEM_COORDINATE_TYPE>  (1) 
2
5
10

$$$$
