2846
     RDKit          3D

 48 52  0  0  1  0  0  0  0  0999 V2000
    3.2337   -3.0952    1.1973 O   0  0  0  0  0  0  0  0  0  0  0  0
    2.7770    1.2238    1.4916 O   0  0  0  0  0  0  0  0  0  0  0  0
    0.2536   -2.5389   -0.1390 O   0  0  0  0  0  0  0  0  0  0  0  0
    0.7272    1.8010   -2.6695 O   0  0  0  0  0  0  0  0  0  0  0  0
   -2.4234    2.9561   -1.1005 O   0  0  0  0  0  0  0  0  0  0  0  0
    4.2958   -1.0522    0.9055 N   0  0  0  0  0  0  0  0  0  0  0  0
   -5.5441   -2.1128   -0.1020 N   0  0  0  0  0  0  0  0  0  0  0  0
    1.9246   -1.2628   -1.1202 N   0  0  0  0  0  0  0  0  0  0  0  0
    3.0896    1.9801   -0.6794 N   0  0  0  0  0  0  0  0  0  0  0  0
   -3.7998   -0.5963    0.2117 N   0  0  0  0  0  0  0  0  0  0  0  0
    0.3434    0.9234   -0.5500 N   0  0  0  0  0  0  0  0  0  0  0  0
    4.5188    0.1959    0.1398 C   0  0  0  0  0  0  0  0  0  0  0  0
    5.8802    0.8472    0.4062 C   0  0  0  0  0  0  0  0  0  0  0  0
    4.7280   -1.0535    2.3118 C   0  0  0  0  0  0  0  0  0  0  0  0
    6.2218    0.9172    1.8890 C   0  0  0  0  0  0  0  0  0  0  0  0
    6.1189   -0.4674    2.5096 C   0  0  0  0  0  0  0  0  0  0  0  0
    3.0634   -2.1671   -0.9990 C   0  0  0  0  0  0  0  0  0  0  0  0
    3.5408   -2.1529    0.4570 C   0  0  0  0  0  0  0  0  0  0  0  0
    2.7634   -3.5761   -1.5072 C   0  0  0  0  0  0  0  0  0  0  0  0
    3.3738    1.1738    0.4187 C   0  0  0  0  0  0  0  0  0  0  0  0
   -0.3180   -0.3182   -0.9376 C   0  0  0  0  0  0  0  0  0  0  0  0
    1.8712    2.7791   -0.7692 C   0  0  0  0  0  0  0  0  0  0  0  0
   -5.2742   -2.6576   -1.4321 C   0  0  0  0  0  0  0  0  0  0  0  0
   -6.9606   -2.3854    0.1397 C   0  0  0  0  0  0  0  0  0  0  0  0
   -5.2269   -0.6956   -0.0071 C   0  0  0  0  0  0  0  0  0  0  0  0
   -1.6261   -0.4299   -0.2063 C   0  0  0  0  0  0  0  0  0  0  0  0
    3.9962   -4.4962   -1.4512 C   0  0  0  0  0  0  0  0  0  0  0  0
   -6.0189   -3.9843   -1.4140 C   0  0  0  0  0  0  0  0  0  0  0  0
   -7.1293   -3.8041   -0.3836 C   0  0  0  0  0  0  0  0  0  0  0  0
    0.6380   -1.4845   -0.6419 C   0  0  0  0  0  0  0  0  0  0  0  0
    2.1067    4.0439   -1.5769 C   0  0  0  0  0  0  0  0  0  0  0  0
    2.2323   -3.5084   -2.9415 C   0  0  0  0  0  0  0  0  0  0  0  0
   -1.8056   -0.4753    1.2046 C   0  0  0  0  0  0  0  0  0  0  0  0
   -3.1782   -0.5797    1.4400 C   0  0  0  0  0  0  0  0  0  0  0  0
   -2.8701   -0.5062   -0.7892 C   0  0  0  0  0  0  0  0  0  0  0  0
    0.8931    1.8277   -1.4524 C   0  0  0  0  0  0  0  0  0  0  0  0
    0.8152    4.8412   -1.7606 C   0  0  0  0  0  0  0  0  0  0  0  0
    3.7251   -5.9075   -1.9522 C   0  0  0  0  0  0  0  0  0  0  0  0
    0.2414    5.2902   -0.4151 C   0  0  0  0  0  0  0  0  0  0  0  0
   -0.9294   -0.4374    2.3075 C   0  0  0  0  0  0  0  0  0  0  0  0
   -3.7205   -0.6484    2.7282 C   0  0  0  0  0  0  0  0  0  0  0  0
   -1.0272    6.1276   -0.6046 C   0  0  0  0  0  0  0  0  0  0  0  0
   -1.4576   -0.5053    3.6018 C   0  0  0  0  0  0  0  0  0  0  0  0
   -2.8321   -0.6091    3.8067 C   0  0  0  0  0  0  0  0  0  0  0  0
   -2.1430    5.3460   -1.2963 C   0  0  0  0  0  0  0  0  0  0  0  0
   -2.5339    4.0634   -0.5766 C   0  0  0  0  0  0  0  0  0  0  0  0
   -3.1077    4.2446    0.8190 C   0  0  0  0  0  0  0  0  0  0  0  0
   -3.4460    2.9258    1.4898 C   0  0  0  0  0  0  0  0  0  0  0  0
  1 18  2  0
  2 20  2  0
  3 30  2  0
  4 36  2  0
  5 46  2  0
  6 12  1  0
  6 14  1  0
  6 18  1  0
  7 23  1  0
  7 24  1  0
  7 25  1  0
  8 17  1  0
  8 30  1  0
  9 20  1  0
  9 22  1  0
 10 25  1  0
 10 34  1  0
 10 35  1  0
 11 21  1  0
 11 36  1  0
 12 13  1  0
 12 20  1  0
 13 15  1  0
 14 16  1  0
 15 16  1  0
 17 18  1  0
 17 19  1  0
 19 27  1  0
 19 32  1  0
 21 26  1  0
 21 30  1  0
 22 31  1  0
 22 36  1  0
 23 28  1  0
 24 29  1  0
 26 33  1  0
 26 35  2  0
 27 38  1  0
 28 29  1  0
 31 37  1  0
 33 34  2  0
 33 40  1  0
 34 41  1  0
 37 39  1  0
 39 42  1  0
 40 43  2  0
 41 44  2  0
 42 45  1  0
 43 44  1  0
 45 46  1  0
 46 47  1  0
 47 48  1  0
M  END
>  <PUBCHEM_COMPOUND_CID>  (1) 
2846

>  <PUBCHEM_CONFORMER_RMSD>  (1) 
1.6

>  <PUBCHEM_CONFORMER_DIVERSEORDER>  (1) 
3
57
107
119
150
170
259
178
93
87
239
249
272
91
71
210
62
160
117
22
246
45
18
195
222
44
276
282
5
89
275
144
94
280
253
252
111
103
79
165
129
228
11
168
167
58
161
20
158
231
63
26
73
225
76
206
171
109
196
113
65
269
215
72
226
238
82
289
177
173
8
112
47
4
42
40
240
217
184
75
136
236
254
97
122
242
23
233
244
125
106
192
257
2
108
9
208
200
56
15
205
67
35
274
142
116
86
152
235
51
147
189
43
180
154
70
60
25
104
148
283
61
146
138
176
264
261
38
102
80
6
85
234
36
13
247
186
279
69
169
90
273
199
220
77
27
105
99
118
243
140
194
1
59
271
83
98
114
7
256
157
193
213
174
24
95
100
227
54
288
159
19
50
287
187
121
66
214
14
48
179
237
12
46
263
202
163
53
96
139
211
32
115
203
37
198
10
126
31
229
232
68
284
166
132
64
267
262
255
49
78
88
16
191
74
245
156
81
218
281
188
212
120
230
52
41
130
216
241
278
286
248
221
133
92
128
266
34
201
155
21
183
39
124
131
84
137
268
143
55
270
197
134
33
204
153
250
29
265
258
101
141
181
209
162
110
17
164
219
224
285
277
30
135
149
182
207
175
145
123
223
251
28
151
190
260
127
185
172

>  <PUBCHEM_MMFF94_PARTIAL_CHARGES>  (1) 
41
1 -0.57
10 0.05
11 -0.73
12 0.36
14 0.3
17 0.36
18 0.57
2 -0.57
20 0.57
21 0.54
22 0.36
23 0.27
24 0.27
25 0.53
26 -0.18
3 -0.57
30 0.57
34 -0.15
35 -0.3
36 0.57
4 -0.57
40 -0.15
41 -0.15
43 -0.15
44 -0.15
45 0.06
46 0.45
47 0.06
5 -0.57
6 -0.66
62 0.37
7 -0.81
75 0.37
8 -0.73
81 0.15
82 0.37
9 -0.73
90 0.15
91 0.15
94 0.15
95 0.15

>  <PUBCHEM_EFFECTIVE_ROTOR_COUNT>  (1) 
15

>  <PUBCHEM_PHARMACOPHORE_FEATURES>  (1) 
18
1 1 acceptor
1 10 cation
1 11 donor
1 2 acceptor
1 3 acceptor
1 32 hydrophobe
1 38 hydrophobe
1 4 acceptor
1 48 hydrophobe
1 5 acceptor
1 7 cation
1 8 donor
1 9 donor
5 10 26 33 34 35 rings
5 31 37 39 42 45 hydrophobe
5 7 23 24 28 29 rings
6 33 34 40 41 43 44 rings
6 6 12 13 14 15 16 rings

>  <PUBCHEM_HEAVY_ATOM_COUNT>  (1) 
48

>  <PUBCHEM_ATOM_DEF_STEREO_COUNT>  (1) 
0

>  <PUBCHEM_ATOM_UDEF_STEREO_COUNT>  (1) 
5

>  <PUBCHEM_BOND_DEF_STEREO_COUNT>  (1) 
0

>  <PUBCHEM_BOND_UDEF_STEREO_COUNT>  (1) 
0

>  <PUBCHEM_ISOTOPIC_ATOM_COUNT>  (1) 
0

>  <PUBCHEM_COMPONENT_COUNT>  (1) 
1

>  <PUBCHEM_CACTVS_TAUTO_COUNT>  (1) 
24

>  <PUBCHEM_CONFORMER_ID>  (1) 
00000B1E00000003

>  <PUBCHEM_MMFF94_ENERGY>  (1) 
99.6457

>  <PUBCHEM_FEATURE_SELFOVERLAP>  (1) 
91.49

>  <PUBCHEM_SHAPE_FINGERPRINT>  (1) 
10258939 38 18411125935836605003
11578080 2 17987520299449222273
11763715 3 18194149406913064743
12107698 1 18187634847267155385
1361 2 17977383068866728997
14068700 675 18335129947072293417
15200665 1 17688040712290414890
15361156 5 18117574933324742462
15775530 1 18124882257538183820
15781502 645 17823987934107229419
18365409 1 17557137617334505894
23559900 14 16589147310939691245
3882209 13 18335411409528060241
4015057 19 18042121136831241139
469060 322 18342465871662720305
563151 74 17415537854290823320
6004065 56 18043803397525987690

>  <PUBCHEM_SHAPE_MULTIPOLES>  (1) 
928.58
13.64
8.59
2.99
6.84
6.95
-2.24
-15.08
-3.6
1.82
7.39
-0.58
-1.03
0.57

>  <PUBCHEM_SHAPE_SELFOVERLAP>  (1) 
1942.573

>  <PUBCHEM_SHAPE_VOLUME>  (1) 
520.6

>  <PUBCHEM_COORDINATE_TYPE>  (1) 
2
5
10

$$$$
