28460
     RDKit          3D

 14 14  0  0  0  0  0  0  0  0999 V2000
    3.1876    2.2400   -0.4387 Cl  0  0  0  0  0  0  0  0  0  0  0  0
    1.8381   -2.9777    0.2819 Cl  0  0  0  0  0  0  0  0  0  0  0  0
   -2.5315   -0.2251   -0.1715 O   0  0  0  0  0  0  0  0  0  0  0  0
    3.6956   -0.6881   -0.1740 O   0  0  0  0  0  0  0  0  0  0  0  0
   -2.1000    1.8557    0.7132 O   0  0  0  0  0  0  0  0  0  0  0  0
   -0.3034    0.3914    0.1538 C   0  0  0  0  0  0  0  0  0  0  0  0
    0.0681   -0.9489    0.2590 C   0  0  0  0  0  0  0  0  0  0  0  0
    0.6676    1.3694   -0.0613 C   0  0  0  0  0  0  0  0  0  0  0  0
    2.0102    1.0071   -0.1711 C   0  0  0  0  0  0  0  0  0  0  0  0
    1.4106   -1.3113    0.1491 C   0  0  0  0  0  0  0  0  0  0  0  0
   -1.7029    0.7697    0.2707 C   0  0  0  0  0  0  0  0  0  0  0  0
    2.3818   -0.3333   -0.0659 C   0  0  0  0  0  0  0  0  0  0  0  0
   -3.9390    0.0294   -0.1082 C   0  0  0  0  0  0  0  0  0  0  0  0
   -4.6828   -1.1784   -0.6369 C   0  0  0  0  0  0  0  0  0  0  0  0
  1  9  1  0
  2 10  1  0
  3 11  1  0
  3 13  1  0
  4 12  1  0
  5 11  2  0
  6  7  2  0
  6  8  1  0
  6 11  1  0
  7 10  1  0
  8  9  2  0
  9 12  1  0
 10 12  2  0
 13 14  1  0
M  END
>  <PUBCHEM_COMPOUND_CID>  (1) 
28460

>  <PUBCHEM_CONFORMER_RMSD>  (1) 
0.6

>  <PUBCHEM_CONFORMER_DIVERSEORDER>  (1) 
1
10
2
3
5
8
6
9
4
7

>  <PUBCHEM_MMFF94_PARTIAL_CHARGES>  (1) 
16
1 -0.18
10 0.18
11 0.63
12 0.08
13 0.28
15 0.15
16 0.15
2 -0.18
22 0.45
3 -0.43
4 -0.53
5 -0.57
6 0.09
7 -0.15
8 -0.15
9 0.18

>  <PUBCHEM_EFFECTIVE_ROTOR_COUNT>  (1) 
3

>  <PUBCHEM_PHARMACOPHORE_FEATURES>  (1) 
3
1 4 donor
1 5 acceptor
6 6 7 8 9 10 12 rings

>  <PUBCHEM_HEAVY_ATOM_COUNT>  (1) 
14

>  <PUBCHEM_ATOM_DEF_STEREO_COUNT>  (1) 
0

>  <PUBCHEM_ATOM_UDEF_STEREO_COUNT>  (1) 
0

>  <PUBCHEM_BOND_DEF_STEREO_COUNT>  (1) 
0

>  <PUBCHEM_BOND_UDEF_STEREO_COUNT>  (1) 
0

>  <PUBCHEM_ISOTOPIC_ATOM_COUNT>  (1) 
0

>  <PUBCHEM_COMPONENT_COUNT>  (1) 
1

>  <PUBCHEM_CACTVS_TAUTO_COUNT>  (1) 
3

>  <PUBCHEM_CONFORMER_ID>  (1) 
00006F2C00000001

>  <PUBCHEM_MMFF94_ENERGY>  (1) 
30.4497

>  <PUBCHEM_FEATURE_SELFOVERLAP>  (1) 
15.223

>  <PUBCHEM_SHAPE_FINGERPRINT>  (1) 
11471102 20 18408881875637960453
11769659 78 18268987601121761595
11806522 49 18412260631762213462
13380535 76 18262520415534716730
13862211 1 18336263441109069394
14178342 30 18124583198337466738
14251717 144 18409445903485696230
14325111 11 18410577296661329409
14576447 43 18412537726136377319
14897335 6 18265615558026214796
15375462 189 18273498987909851459
15442244 35 18051415067564722513
15477762 27 18410009905637793102
15757776 16 18333726888419557754
15852999 172 17749392627833389658
16945 1 18335712589645328688
18186145 218 17530680996699897817
19422 9 18202570566227262765
200 152 18342172272061417165
20201158 50 18333734602365489851
20281475 54 18343016675780619219
20559304 39 18341327816713170810
20645477 70 18407754837812938087
21499 59 18262799712625658132
21501502 16 18340210674445280225
21501925 9 18337662032119351138
21524375 3 18262237845552666800
221490 88 18335709342444850795
2255824 54 18408327683339003494
23402655 69 18411133641477055357
23552423 10 18338240362202972640
25610 137 18411703227118031953
257057 1 17757541963580200426
2748010 2 18118422849852204938
2871803 45 18409726274988212263
3060560 45 18262238927731269740
3071541 37 18261116300605265596
33824 294 18335699476825681683
57096353 35 18341614866810905933
58051976 378 18267589181097457540
581208 293 18410007762469997025
603831 33 18201712994465632557
7364860 26 18412263904943991946
7832392 63 18051980212099018320
81539 233 18115023116559065078
9709674 26 18409172078162783523

>  <PUBCHEM_SHAPE_MULTIPOLES>  (1) 
274.25
6.97
2.53
0.7
7.35
1.06
0
0.3
-1.45
-2.19
0.14
0.15
-0.04
-0.74

>  <PUBCHEM_SHAPE_SELFOVERLAP>  (1) 
551.628

>  <PUBCHEM_SHAPE_VOLUME>  (1) 
163.6

>  <PUBCHEM_COORDINATE_TYPE>  (1) 
2
5
10

$$$$
