28461
     RDKit          3D

 12 12  0  0  0  0  0  0  0  0999 V2000
   -4.7869    1.2532    0.3529 Cl  0  0  0  0  0  0  0  0  0  0  0  0
   -1.5893   -1.8421   -0.4219 O   0  0  0  0  0  0  0  0  0  0  0  0
    2.8720    0.3534    0.0667 C   0  0  0  0  0  0  0  0  0  0  0  0
    0.1707   -0.3260   -0.0877 C   0  0  0  0  0  0  0  0  0  0  0  0
    1.9329    1.3105   -0.3177 C   0  0  0  0  0  0  0  0  0  0  0  0
    2.4604   -0.9433    0.3739 C   0  0  0  0  0  0  0  0  0  0  0  0
    0.5822    0.9709   -0.3948 C   0  0  0  0  0  0  0  0  0  0  0  0
    1.1097   -1.2832    0.2967 C   0  0  0  0  0  0  0  0  0  0  0  0
    4.3162    0.7170    0.1480 C   0  0  0  0  0  0  0  0  0  0  0  0
   -1.2377   -0.6802   -0.1663 C   0  0  0  0  0  0  0  0  0  0  0  0
   -2.2645    0.3819    0.0989 C   0  0  0  0  0  0  0  0  0  0  0  0
   -3.5656    0.0880    0.0515 C   0  0  0  0  0  0  0  0  0  0  0  0
  1 12  1  0
  2 10  2  0
  3  5  2  0
  3  6  1  0
  3  9  1  0
  4  7  2  0
  4  8  1  0
  4 10  1  0
  5  7  1  0
  6  8  2  0
 10 11  1  0
 11 12  2  0
M  END
>  <PUBCHEM_COMPOUND_CID>  (1) 
28461

>  <PUBCHEM_CONFORMER_RMSD>  (1) 
0.6

>  <PUBCHEM_CONFORMER_DIVERSEORDER>  (1) 
1
3
2

>  <PUBCHEM_MMFF94_PARTIAL_CHARGES>  (1) 
18
1 -0.14
10 0.47
11 -0.14
12 -0.01
13 0.15
14 0.15
15 0.15
16 0.15
2 -0.57
20 0.15
21 0.15
3 -0.14
4 0.09
5 -0.15
6 -0.15
7 -0.15
8 -0.15
9 0.14

>  <PUBCHEM_EFFECTIVE_ROTOR_COUNT>  (1) 
2

>  <PUBCHEM_PHARMACOPHORE_FEATURES>  (1) 
2
1 2 acceptor
6 3 4 5 6 7 8 rings

>  <PUBCHEM_HEAVY_ATOM_COUNT>  (1) 
12

>  <PUBCHEM_ATOM_DEF_STEREO_COUNT>  (1) 
0

>  <PUBCHEM_ATOM_UDEF_STEREO_COUNT>  (1) 
0

>  <PUBCHEM_BOND_DEF_STEREO_COUNT>  (1) 
0

>  <PUBCHEM_BOND_UDEF_STEREO_COUNT>  (1) 
1

>  <PUBCHEM_ISOTOPIC_ATOM_COUNT>  (1) 
0

>  <PUBCHEM_COMPONENT_COUNT>  (1) 
1

>  <PUBCHEM_CACTVS_TAUTO_COUNT>  (1) 
1

>  <PUBCHEM_CONFORMER_ID>  (1) 
00006F2D00000001

>  <PUBCHEM_MMFF94_ENERGY>  (1) 
31.909

>  <PUBCHEM_FEATURE_SELFOVERLAP>  (1) 
10.148

>  <PUBCHEM_SHAPE_FINGERPRINT>  (1) 
10354089 29 18335148570319215657
10465860 228 17985277270332957105
10980938 120 18334011661920420346
11062470 55 17703790327273805992
11471102 20 18335698317073443157
12251169 10 18334295383296908605
12346645 6 18341050727019603086
12500047 106 17988919011272904254
12932764 1 17313088778959828302
13380535 76 18411138051986767263
14144814 61 18410292501801090305
14252887 29 12396298127879203904
14325111 11 18410011078184658583
14897335 6 18413105074062125199
15775835 57 18411139147171402393
16945 1 18262224586793133542
177051 138 8070027770095718281
17844478 74 17168140113862304173
18511873 20 18409448106804029416
20233049 118 18060417997495611441
20645477 70 18339641123000836295
20871998 22 18050001087317399674
22485316 2 7997679884072351225
23402539 116 17846773005847067901
23402655 69 18343295938659385517
23559900 14 18060419153817506440
4047638 21 18272937111022975169
528886 8 18408879668151351370
53655031 270 18409446968943703216
53812653 166 18411695521814795312
7364860 26 18270964523123779726

>  <PUBCHEM_SHAPE_MULTIPOLES>  (1) 
242.95
7.77
1.51
0.68
4.79
0.26
0.01
-3.28
1.12
0.06
-0.07
0.02
-0.01
-0.41

>  <PUBCHEM_SHAPE_SELFOVERLAP>  (1) 
493.62

>  <PUBCHEM_SHAPE_VOLUME>  (1) 
142.3

>  <PUBCHEM_COORDINATE_TYPE>  (1) 
2
5
10

$$$$
