28465
     RDKit          3D

 26 27  0  0  1  0  0  0  0  0999 V2000
    0.0552   -2.4821   -0.2707 O   0  0  0  0  0  0  0  0  0  0  0  0
    0.6728   -0.2614    0.1249 N   0  0  0  0  0  0  0  0  0  0  0  0
    4.9632   -0.4041    0.9708 N   0  0  0  0  0  0  0  0  0  0  0  0
   -1.4747   -0.8251   -1.0804 C   0  0  0  0  0  0  0  0  0  0  0  0
    1.9415   -0.5515    0.8074 C   0  0  0  0  0  0  0  0  0  0  0  0
   -0.1812   -1.2727   -0.3668 C   0  0  0  0  0  0  0  0  0  0  0  0
    2.9162   -1.3296   -0.0744 C   0  0  0  0  0  0  0  0  0  0  0  0
    0.2815    1.1211   -0.0508 C   0  0  0  0  0  0  0  0  0  0  0  0
   -1.8681   -1.7900   -2.2229 C   0  0  0  0  0  0  0  0  0  0  0  0
    4.2670   -1.6251    0.5837 C   0  0  0  0  0  0  0  0  0  0  0  0
   -2.6348   -0.7255   -0.0980 C   0  0  0  0  0  0  0  0  0  0  0  0
    0.6825    1.7694   -1.1908 C   0  0  0  0  0  0  0  0  0  0  0  0
   -0.4711    1.7126    0.9313 C   0  0  0  0  0  0  0  0  0  0  0  0
   -0.7603   -1.9503   -3.2577 C   0  0  0  0  0  0  0  0  0  0  0  0
   -3.6341    0.1940   -0.3396 C   0  0  0  0  0  0  0  0  0  0  0  0
   -2.6494   -1.5581    1.0015 C   0  0  0  0  0  0  0  0  0  0  0  0
    0.3045    3.1014   -1.3606 C   0  0  0  0  0  0  0  0  0  0  0  0
   -0.8491    3.0445    0.7615 C   0  0  0  0  0  0  0  0  0  0  0  0
    1.5029    1.1138   -2.2543 C   0  0  0  0  0  0  0  0  0  0  0  0
   -0.9027    0.9953    2.1693 C   0  0  0  0  0  0  0  0  0  0  0  0
   -0.4612    3.7389   -0.3843 C   0  0  0  0  0  0  0  0  0  0  0  0
    6.2142   -0.7206    1.6624 C   0  0  0  0  0  0  0  0  0  0  0  0
    5.2291    0.4317   -0.2016 C   0  0  0  0  0  0  0  0  0  0  0  0
   -4.6965    0.2853    0.5597 C   0  0  0  0  0  0  0  0  0  0  0  0
   -3.7120   -1.4668    1.9006 C   0  0  0  0  0  0  0  0  0  0  0  0
   -4.7354   -0.5451    1.6796 C   0  0  0  0  0  0  0  0  0  0  0  0
  1  6  2  0
  2  5  1  0
  2  6  1  0
  2  8  1  0
  3 10  1  0
  3 22  1  0
  3 23  1  0
  4  6  1  0
  4  9  1  0
  4 11  1  0
  5  7  1  0
  7 10  1  0
  8 12  2  0
  8 13  1  0
  9 14  1  0
 11 15  2  0
 11 16  1  0
 12 17  1  0
 12 19  1  0
 13 18  2  0
 13 20  1  0
 15 24  1  0
 16 25  2  0
 17 21  2  0
 18 21  1  0
 24 26  2  0
 25 26  1  0
M  END
>  <PUBCHEM_COMPOUND_CID>  (1) 
28465

>  <PUBCHEM_CONFORMER_RMSD>  (1) 
1

>  <PUBCHEM_CONFORMER_DIVERSEORDER>  (1) 
8
87
57
19
103
35
107
49
5
69
50
52
68
9
17
47
91
93
77
112
74
98
75
86
102
94
33
83
18
97
43
108
113
55
80
61
96
104
84
90
105
41
82
64
92
7
72
88
111
1
65
6
51
106
101
25
44
16
62
29
56
70
26
34
40
39
54
78
85
63
30
73
37
24
27
38
100
31
4
95
66
89
36
59
110
45
15
99
53
58
76
10
79
12
109
60
13
67
11
21
71
46
32
48
23
14
42
20
3
81
22
28
2

>  <PUBCHEM_MMFF94_PARTIAL_CHARGES>  (1) 
31
1 -0.57
10 0.27
11 -0.14
12 -0.14
13 -0.14
15 -0.15
16 -0.15
17 -0.15
18 -0.15
19 0.14
2 -0.48
20 0.14
21 -0.15
22 0.27
23 0.27
24 -0.15
25 -0.15
26 -0.15
3 -0.81
39 0.15
4 0.2
40 0.15
41 0.15
42 0.15
49 0.15
5 0.3
56 0.15
57 0.15
58 0.15
6 0.57
8 0.12

>  <PUBCHEM_EFFECTIVE_ROTOR_COUNT>  (1) 
9

>  <PUBCHEM_PHARMACOPHORE_FEATURES>  (1) 
5
1 1 acceptor
1 14 hydrophobe
1 3 cation
6 11 15 16 24 25 26 rings
6 8 12 13 17 18 21 rings

>  <PUBCHEM_HEAVY_ATOM_COUNT>  (1) 
26

>  <PUBCHEM_ATOM_DEF_STEREO_COUNT>  (1) 
0

>  <PUBCHEM_ATOM_UDEF_STEREO_COUNT>  (1) 
1

>  <PUBCHEM_BOND_DEF_STEREO_COUNT>  (1) 
0

>  <PUBCHEM_BOND_UDEF_STEREO_COUNT>  (1) 
0

>  <PUBCHEM_ISOTOPIC_ATOM_COUNT>  (1) 
0

>  <PUBCHEM_COMPONENT_COUNT>  (1) 
1

>  <PUBCHEM_CACTVS_TAUTO_COUNT>  (1) 
1

>  <PUBCHEM_CONFORMER_ID>  (1) 
00006F3100000008

>  <PUBCHEM_MMFF94_ENERGY>  (1) 
97.0953

>  <PUBCHEM_FEATURE_SELFOVERLAP>  (1) 
25.371

>  <PUBCHEM_SHAPE_FINGERPRINT>  (1) 
10863032 1 17897464993297805353
10906281 52 18268725909128757505
12403814 3 18341321211243432034
12422481 6 18126025779205361745
12633257 1 18193305033765269771
12788726 201 18339094726268098572
128993 33 17695084571137784137
13004483 165 18261105240885085160
13132413 78 18198902698184232668
133893 2 17830710403326631220
14068700 675 16770102748353461447
14142880 1 18192980527131366180
14251757 17 16588843760073640492
14840074 17 18272094919881954204
14955137 171 18269287892039031202
15238133 3 18189351112499748957
15849732 13 18130784577505448287
17980427 23 18271540710287733641
1813 80 18411143545365684894
18981168 100 17682104823296816573
20600515 1 18337971016530378251
21041028 32 18333454252570009869
21304303 282 16667912789427978108
23175994 123 18260268547012247043
23419403 2 17604137246437049916
23559900 14 17313947575567983467
238 59 18129384968455522717
2818148 4 17901673987827688239
3286 77 17750525142470227539
394222 165 17837243671528548673
469060 322 18114753620520638312
484985 159 16881587455111181482
5845 1 12070471965833923861
6992083 37 17917422176976720447

>  <PUBCHEM_SHAPE_MULTIPOLES>  (1) 
519.24
9.01
3.27
2.35
10.33
3.08
-1.28
-4.59
6.17
-0.41
-0.97
-0.74
-0.85
-0.85

>  <PUBCHEM_SHAPE_SELFOVERLAP>  (1) 
1077.537

>  <PUBCHEM_SHAPE_VOLUME>  (1) 
296.9

>  <PUBCHEM_COORDINATE_TYPE>  (1) 
2
5
10

$$$$
