28467
     RDKit          3D

 16 17  0  0  0  0  0  0  0  0999 V2000
   -0.0714   -2.6602   -0.3211 O   0  0  0  0  0  0  0  0  0  0  0  0
   -0.1146    2.8101    0.3748 O   0  0  0  0  0  0  0  0  0  0  0  0
   -2.9789   -2.0278    1.0165 O   0  0  0  0  0  0  0  0  0  0  0  0
   -2.9949    1.9370   -1.0450 O   0  0  0  0  0  0  0  0  0  0  0  0
   -0.1120   -1.3876   -0.1784 N   0  0  0  0  0  0  0  0  0  0  0  0
   -0.1012    1.3896    0.1976 N   0  0  0  0  0  0  0  0  0  0  0  0
   -1.3815   -0.6493   -0.0943 C   0  0  0  0  0  0  0  0  0  0  0  0
   -1.3177    0.6880    0.1007 C   0  0  0  0  0  0  0  0  0  0  0  0
    1.1626   -0.6796   -0.0910 C   0  0  0  0  0  0  0  0  0  0  0  0
    1.1463    0.7106    0.0990 C   0  0  0  0  0  0  0  0  0  0  0  0
   -2.5690   -1.5490   -0.2514 C   0  0  0  0  0  0  0  0  0  0  0  0
   -2.5968    1.5001    0.2334 C   0  0  0  0  0  0  0  0  0  0  0  0
    2.3662   -1.3920   -0.1953 C   0  0  0  0  0  0  0  0  0  0  0  0
    2.3903    1.3665    0.1832 C   0  0  0  0  0  0  0  0  0  0  0  0
    3.5801   -0.7167   -0.1092 C   0  0  0  0  0  0  0  0  0  0  0  0
    3.5926    0.6604    0.0804 C   0  0  0  0  0  0  0  0  0  0  0  0
  1  5  2  0
  2  6  1  0
  3 11  1  0
  4 12  1  0
  5  7  1  0
  5  9  1  0
  6  8  1  0
  6 10  1  0
  7  8  2  0
  7 11  1  0
  8 12  1  0
  9 10  2  0
  9 13  1  0
 10 14  1  0
 13 15  2  0
 14 16  2  0
 15 16  1  0
M  CHG  2   2  -1   5   1
M  END
>  <PUBCHEM_COMPOUND_CID>  (1) 
28467

>  <PUBCHEM_CONFORMER_RMSD>  (1) 
0.6

>  <PUBCHEM_CONFORMER_DIVERSEORDER>  (1) 
1
2
3

>  <PUBCHEM_MMFF94_PARTIAL_CHARGES>  (1) 
22
1 -0.63
10 -0.03
11 0.42
12 0.42
13 -0.15
14 -0.15
15 -0.15
16 -0.15
2 -0.86
21 0.15
22 0.15
23 0.15
24 0.15
25 0.4
26 0.4
3 -0.68
4 -0.68
5 0.7
6 -0.08
7 -0.17
8 -0.17
9 -0.03

>  <PUBCHEM_EFFECTIVE_ROTOR_COUNT>  (1) 
2

>  <PUBCHEM_PHARMACOPHORE_FEATURES>  (1) 
7
1 2 anion
1 3 acceptor
1 3 donor
1 4 acceptor
1 4 donor
6 5 6 7 8 9 10 rings
6 9 10 13 14 15 16 rings

>  <PUBCHEM_HEAVY_ATOM_COUNT>  (1) 
16

>  <PUBCHEM_ATOM_DEF_STEREO_COUNT>  (1) 
0

>  <PUBCHEM_ATOM_UDEF_STEREO_COUNT>  (1) 
0

>  <PUBCHEM_BOND_DEF_STEREO_COUNT>  (1) 
0

>  <PUBCHEM_BOND_UDEF_STEREO_COUNT>  (1) 
0

>  <PUBCHEM_ISOTOPIC_ATOM_COUNT>  (1) 
0

>  <PUBCHEM_COMPONENT_COUNT>  (1) 
1

>  <PUBCHEM_CACTVS_TAUTO_COUNT>  (1) 
1

>  <PUBCHEM_CONFORMER_ID>  (1) 
00006F3300000001

>  <PUBCHEM_MMFF94_ENERGY>  (1) 
53.531

>  <PUBCHEM_FEATURE_SELFOVERLAP>  (1) 
35.543

>  <PUBCHEM_SHAPE_FINGERPRINT>  (1) 
10608611 8 18411976983764308992
10967382 1 18196091049499226956
11132069 177 18341325600831818968
11206711 2 18339077198062958533
11680986 33 18268993085942899454
12032990 46 18339932613957111138
12382932 28 18413387622833407584
12730499 353 17538839188611881709
13140716 1 18412263895974145674
13380535 21 18339371768215541228
13380535 76 18267297625827020359
13538477 17 18189047616956576114
13897977 150 18340765936127595252
14325111 11 18411699889722643104
14614273 12 18261669290482015927
14790565 3 15668742017545664383
15196674 1 18411982464490426474
16945 1 18124319298403841032
17357779 13 18265879440985628199
17844478 74 18262243346931006419
18186145 218 18271530797312965548
193761 8 17908138029371565152
20510252 161 18272373109013621744
20588541 1 18195811773435021629
20871998 184 18273500082430179639
21501502 16 18410575089285093838
22802520 49 17987254230630900486
2334 1 18412262869482229730
23402539 116 18200583813003536606
23463225 33 18410294722394114810
23559900 14 18271806762611604462
25 1 18121490263739395869
2748010 2 18413388739319033140
3312278 4 18410858741805111312
335352 9 18051412872862710822
5104073 3 18411697682515525410
528886 8 18340761542507842400
6333449 129 18412824676916431996
8809292 202 18336551503911114146

>  <PUBCHEM_SHAPE_MULTIPOLES>  (1) 
295.83
5.4
2.7
0.72
1.42
0.09
0
-0.08
-0.05
-1.44
0.04
-0.32
0
0.59

>  <PUBCHEM_SHAPE_SELFOVERLAP>  (1) 
625.869

>  <PUBCHEM_SHAPE_VOLUME>  (1) 
164.2

>  <PUBCHEM_COORDINATE_TYPE>  (1) 
2
5
10

$$$$
