28474
     RDKit          3D

 13 12  0  0  0  0  0  0  0  0999 V2000
    0.0100   -1.3374    0.0086 C   0  0  0  0  0  0  0  0  0  0  0  0
    1.4504   -1.0190    0.5152 C   0  0  0  0  0  0  0  0  0  0  0  0
   -0.9176   -0.1088    0.2363 C   0  0  0  0  0  0  0  0  0  0  0  0
    2.1756    0.1298   -0.1979 C   0  0  0  0  0  0  0  0  0  0  0  0
   -2.3947   -0.3103   -0.1321 C   0  0  0  0  0  0  0  0  0  0  0  0
   -0.4966   -2.5542    0.8120 C   0  0  0  0  0  0  0  0  0  0  0  0
    0.0474   -1.7232   -1.4821 C   0  0  0  0  0  0  0  0  0  0  0  0
    3.5999    0.2986    0.3406 C   0  0  0  0  0  0  0  0  0  0  0  0
   -3.2658    0.9137    0.1773 C   0  0  0  0  0  0  0  0  0  0  0  0
    4.3418    1.4176   -0.3902 C   0  0  0  0  0  0  0  0  0  0  0  0
   -4.7446    0.7088   -0.1536 C   0  0  0  0  0  0  0  0  0  0  0  0
    5.7443    1.6105    0.1639 C   0  0  0  0  0  0  0  0  0  0  0  0
   -5.5500    1.9738    0.1019 C   0  0  0  0  0  0  0  0  0  0  0  0
  1  2  1  0
  1  3  1  0
  1  6  1  0
  1  7  1  0
  2  4  1  0
  3  5  1  0
  4  8  1  0
  5  9  1  0
  8 10  1  0
  9 11  1  0
 10 12  1  0
 11 13  1  0
M  END
>  <PUBCHEM_COMPOUND_CID>  (1) 
28474

>  <PUBCHEM_CONFORMER_RMSD>  (1) 
0.8

>  <PUBCHEM_CONFORMER_DIVERSEORDER>  (1) 
1
14
37
18
59
30
6
62
41
54
52
56
25
35
40
3
24
43
45
23
61
19
47
50
33
46
39
2
22
53
27
44
60
17
31
34
11
12
42
49
9
32
48
26
13
63
51
21
36
58
28
64
20
7
16
29
55
4
57
10
15
5
38
8

>  <PUBCHEM_MMFF94_PARTIAL_CHARGES>  (1) 
0

>  <PUBCHEM_EFFECTIVE_ROTOR_COUNT>  (1) 
8

>  <PUBCHEM_PHARMACOPHORE_FEATURES>  (1) 
3
1 12 hydrophobe
1 13 hydrophobe
3 1 6 7 hydrophobe

>  <PUBCHEM_HEAVY_ATOM_COUNT>  (1) 
13

>  <PUBCHEM_ATOM_DEF_STEREO_COUNT>  (1) 
0

>  <PUBCHEM_ATOM_UDEF_STEREO_COUNT>  (1) 
0

>  <PUBCHEM_BOND_DEF_STEREO_COUNT>  (1) 
0

>  <PUBCHEM_BOND_UDEF_STEREO_COUNT>  (1) 
0

>  <PUBCHEM_ISOTOPIC_ATOM_COUNT>  (1) 
0

>  <PUBCHEM_COMPONENT_COUNT>  (1) 
1

>  <PUBCHEM_CACTVS_TAUTO_COUNT>  (1) 
1

>  <PUBCHEM_CONFORMER_ID>  (1) 
00006F3A00000001

>  <PUBCHEM_MMFF94_ENERGY>  (1) 
11.4258

>  <PUBCHEM_FEATURE_SELFOVERLAP>  (1) 
15.223

>  <PUBCHEM_SHAPE_FINGERPRINT>  (1) 
10014705 185 18129662049285076448
100836 57 18410014338102116768
10753850 27 10592045743230010228
122479 349 18337392746407480298
12616999 72 17274532110799595271
12892183 10 15864622873743939977
13740256 8 9367341539708763505
13955234 65 18045224830381385155
14123255 352 18411702092724582241
14123255 52 18408321103285673168
14123256 34 9151172090453191368
1420 369 8718834197316529448
14252887 29 13407073656813677912
14576447 43 11671790364548303540
15061688 2 18411703183614458070
15501527 16 18410859905688637552
167882 2 17917158204334879694
170605 34 18341613651440655751
17539 30 17628061614314393510
17834072 32 18409451426877351596
17834072 8 18342748403791670758
187816 3 14979962488261928038
193927 3 9006776544060135440
200 152 12607415407421236134
20374829 77 10231761071791238985
204376 136 18334013882777358027
20605781 2 18411702080082279961
20621476 21 13757204446830992341
20621476 66 18261678177360811980
20645477 56 18336266838121699660
20767249 142 9799694800697391980
20871999 31 17345743205084694783
212847 35 18341608205522247672
21499 59 18410288091080953279
21524375 3 18341891866141426522
21637258 2 10447929434368071852
22218785 32 17560804333603178470
22620623 9 16701161149025708263
23253445 4 13479142323424760716
23402539 116 18201995564579927828
23402655 69 18060136535356037157
23500284 214 18334577975091677946
23590187 49 18410011043804003061
270888 7 18410291393731877945
2838139 119 18341887502523621852
2916195 48 18342735264648455312
293599 30 18411138047712762520
351380 3 9367348128378928408
449060 62 18339641148833469233
465052 167 8574423253197075656
59345606 38 18411136935295036361
59682541 52 17346049870356079988
633830 44 18411132494272764767
77188 2 17327453623341364987
81539 233 18340485556641975311
9999458 23 18188772713058931670

>  <PUBCHEM_SHAPE_MULTIPOLES>  (1) 
267.53
11.57
2.34
0.89
0.32
0.72
0.2
-12.78
-0.29
-0.35
-0.12
0.09
0.41
-0.11

>  <PUBCHEM_SHAPE_SELFOVERLAP>  (1) 
479.972

>  <PUBCHEM_SHAPE_VOLUME>  (1) 
176

>  <PUBCHEM_COORDINATE_TYPE>  (1) 
2
5
10

$$$$
