28476
     RDKit          3D

 13 12  0  0  1  0  0  0  0  0999 V2000
    1.7126   -0.7583    0.5149 C   0  0  0  0  0  0  0  0  0  0  0  0
    1.1482   -0.9776   -0.9046 C   0  0  0  0  0  0  0  0  0  0  0  0
    3.2142   -0.3849    0.4818 C   0  0  0  0  0  0  0  0  0  0  0  0
   -0.3563   -1.2697   -0.9926 C   0  0  0  0  0  0  0  0  0  0  0  0
    3.5854    0.8914   -0.3003 C   0  0  0  0  0  0  0  0  0  0  0  0
   -1.2757   -0.2063   -0.3847 C   0  0  0  0  0  0  0  0  0  0  0  0
    1.5380   -2.0059    1.3911 C   0  0  0  0  0  0  0  0  0  0  0  0
   -2.7629   -0.5075   -0.5796 C   0  0  0  0  0  0  0  0  0  0  0  0
   -3.6364    0.5328    0.1249 C   0  0  0  0  0  0  0  0  0  0  0  0
    5.0979    1.1221   -0.2194 C   0  0  0  0  0  0  0  0  0  0  0  0
    2.8499    2.1284    0.2159 C   0  0  0  0  0  0  0  0  0  0  0  0
   -5.1219    0.2111   -0.0362 C   0  0  0  0  0  0  0  0  0  0  0  0
   -5.9929    1.2244    0.6889 C   0  0  0  0  0  0  0  0  0  0  0  0
  1  2  1  0
  1  3  1  0
  1  7  1  0
  2  4  1  0
  3  5  1  0
  4  6  1  0
  5 10  1  0
  5 11  1  0
  6  8  1  0
  8  9  1  0
  9 12  1  0
 12 13  1  0
M  END
>  <PUBCHEM_COMPOUND_CID>  (1) 
28476

>  <PUBCHEM_CONFORMER_RMSD>  (1) 
0.8

>  <PUBCHEM_CONFORMER_DIVERSEORDER>  (1) 
1
13
10
33
6
18
20
14
61
16
32
37
44
5
21
39
9
48
53
57
26
40
30
15
31
63
12
45
36
24
28
27
8
17
50
43
11
60
56
22
3
29
19
52
54
38
47
51
23
35
46
42
7
55
59
4
2
62
25
49
41
58
34

>  <PUBCHEM_MMFF94_PARTIAL_CHARGES>  (1) 
0

>  <PUBCHEM_EFFECTIVE_ROTOR_COUNT>  (1) 
8

>  <PUBCHEM_PHARMACOPHORE_FEATURES>  (1) 
3
1 13 hydrophobe
1 7 hydrophobe
3 5 10 11 hydrophobe

>  <PUBCHEM_HEAVY_ATOM_COUNT>  (1) 
13

>  <PUBCHEM_ATOM_DEF_STEREO_COUNT>  (1) 
0

>  <PUBCHEM_ATOM_UDEF_STEREO_COUNT>  (1) 
1

>  <PUBCHEM_BOND_DEF_STEREO_COUNT>  (1) 
0

>  <PUBCHEM_BOND_UDEF_STEREO_COUNT>  (1) 
0

>  <PUBCHEM_ISOTOPIC_ATOM_COUNT>  (1) 
0

>  <PUBCHEM_COMPONENT_COUNT>  (1) 
1

>  <PUBCHEM_CACTVS_TAUTO_COUNT>  (1) 
1

>  <PUBCHEM_CONFORMER_ID>  (1) 
00006F3C00000001

>  <PUBCHEM_MMFF94_ENERGY>  (1) 
6.3978

>  <PUBCHEM_FEATURE_SELFOVERLAP>  (1) 
15.223

>  <PUBCHEM_SHAPE_FINGERPRINT>  (1) 
100836 57 18273218603322038317
10354089 29 18407761447493156976
12596602 18 18335428933405500617
13675066 3 17095241372524087487
14123260 362 17346607369953440211
14251732 16 18337393838078298915
14251764 75 18125732424423827105
14252887 29 16226048838637139563
14863182 85 12540691479744230920
15775835 57 18337387240465109372
17834072 32 18272933860043890525
17834072 33 18342171202825719599
17834072 8 17846509132078625900
20233049 118 17632570557144083488
20621476 66 18263082288132614804
20767249 142 7925638807877679152
212847 35 17846495911504708594
21354914 55 18341894082808554069
21652331 79 18410009927434590933
22218785 32 15123790690912615333
22224240 67 16877942780228100608
231179 274 18409727361483043372
23253445 4 16226048915872555173
23402655 69 18201999971295325892
23590187 302 14333127451225588495
3060560 45 13973679512098434252
32948 21 9223235131342821115
449060 50 17967531263981863303
449060 62 18410853261104912756
474 4 18188211004165942444
4990 188 13830126196318918839
633830 44 18337668741158844086
7832392 63 18129372877563408636

>  <PUBCHEM_SHAPE_MULTIPOLES>  (1) 
267.53
12.05
1.85
1.03
13.52
0.16
-0.1
7.53
-1.62
-1.49
-0.37
-0.11
-0.43
-0.93

>  <PUBCHEM_SHAPE_SELFOVERLAP>  (1) 
477.396

>  <PUBCHEM_SHAPE_VOLUME>  (1) 
176

>  <PUBCHEM_COORDINATE_TYPE>  (1) 
2
5
10

$$$$
