28470
     RDKit          3D

 13 12  0  0  0  0  0  0  0  0999 V2000
   -3.3657    0.3932   -0.0148 C   0  0  0  0  0  0  0  0  0  0  0  0
   -2.0169   -0.3108   -0.3375 C   0  0  0  0  0  0  0  0  0  0  0  0
   -0.7475    0.4615    0.0522 C   0  0  0  0  0  0  0  0  0  0  0  0
   -4.5551   -0.5126   -0.4529 C   0  0  0  0  0  0  0  0  0  0  0  0
    0.5091   -0.3611   -0.2542 C   0  0  0  0  0  0  0  0  0  0  0  0
   -3.4881    1.7168   -0.7993 C   0  0  0  0  0  0  0  0  0  0  0  0
   -3.4677    0.7105    1.4887 C   0  0  0  0  0  0  0  0  0  0  0  0
    1.8149    0.3692    0.0781 C   0  0  0  0  0  0  0  0  0  0  0  0
    3.0648   -0.4832   -0.1569 C   0  0  0  0  0  0  0  0  0  0  0  0
   -4.6307   -1.8852    0.2055 C   0  0  0  0  0  0  0  0  0  0  0  0
    4.3700    0.2484    0.1743 C   0  0  0  0  0  0  0  0  0  0  0  0
    5.6238   -0.5726   -0.1292 C   0  0  0  0  0  0  0  0  0  0  0  0
    6.8890    0.2262    0.1459 C   0  0  0  0  0  0  0  0  0  0  0  0
  1  2  1  0
  1  4  1  0
  1  6  1  0
  1  7  1  0
  2  3  1  0
  3  5  1  0
  4 10  1  0
  5  8  1  0
  8  9  1  0
  9 11  1  0
 11 12  1  0
 12 13  1  0
M  END
>  <PUBCHEM_COMPOUND_CID>  (1) 
28470

>  <PUBCHEM_CONFORMER_RMSD>  (1) 
0.8

>  <PUBCHEM_CONFORMER_DIVERSEORDER>  (1) 
1
17
49
52
91
75
103
40
50
31
92
116
8
60
57
101
48
3
86
51
5
55
111
77
79
54
33
62
95
102
108
13
28
67
85
93
42
24
88
29
12
47
63
73
53
83
45
46
34
69
114
65
118
22
39
100
87
117
106
19
9
109
30
89
74
84
25
18
58
14
23
110
97
6
82
80
2
32
64
72
11
66
44
37
115
56
35
16
20
98
94
7
76
21
59
27
70
38
105
26
61
10
112
36
71
4
99
43
41
120
90
81
107
96
104
68
119
78
15
113
121

>  <PUBCHEM_MMFF94_PARTIAL_CHARGES>  (1) 
0

>  <PUBCHEM_EFFECTIVE_ROTOR_COUNT>  (1) 
8

>  <PUBCHEM_PHARMACOPHORE_FEATURES>  (1) 
3
1 10 hydrophobe
1 13 hydrophobe
3 1 6 7 hydrophobe

>  <PUBCHEM_HEAVY_ATOM_COUNT>  (1) 
13

>  <PUBCHEM_ATOM_DEF_STEREO_COUNT>  (1) 
0

>  <PUBCHEM_ATOM_UDEF_STEREO_COUNT>  (1) 
0

>  <PUBCHEM_BOND_DEF_STEREO_COUNT>  (1) 
0

>  <PUBCHEM_BOND_UDEF_STEREO_COUNT>  (1) 
0

>  <PUBCHEM_ISOTOPIC_ATOM_COUNT>  (1) 
0

>  <PUBCHEM_COMPONENT_COUNT>  (1) 
1

>  <PUBCHEM_CACTVS_TAUTO_COUNT>  (1) 
1

>  <PUBCHEM_CONFORMER_ID>  (1) 
00006F3600000001

>  <PUBCHEM_MMFF94_ENERGY>  (1) 
11.7436

>  <PUBCHEM_FEATURE_SELFOVERLAP>  (1) 
15.225

>  <PUBCHEM_SHAPE_FINGERPRINT>  (1) 
10680689 15 18187087239116165801
10912923 1 17676483930644962328
11287383 113 18413389860875157560
11315181 36 18342177786446133945
12091667 2 17822011999741765304
12916754 54 18337674230275000781
13288520 33 18335983147116035143
14123238 8 17603585223191477086
1420 363 18060423529787826766
14251718 22 18409729577928799994
14251732 16 18339922735859033776
15716309 27 18410013247475725322
17834072 33 18336548304482050236
17834076 25 17989487420799379350
17844677 252 18334018289588136980
19433438 28 18272365399557946272
19489759 90 17821444655593831437
200 152 16660360389916360623
20645477 56 18263078834788757885
20645477 70 17632021841118943958
21426921 1 18333729101118973717
220451 1 18335427833461589314
22896161 15 18337953501885859966
2306618 200 18412829054269231409
23402539 116 17967247589844513404
23559900 14 18335412521692234441
4214541 1 18410011030982359309
42788 4 18411135832094816972
57483677 66 18408601448897345298
57583515 80 15502370127741089358
7062679 117 18260268576718607802

>  <PUBCHEM_SHAPE_MULTIPOLES>  (1) 
267.53
15.5
1.28
0.88
22.96
0.12
-0.2
1.86
-0.5
-2.08
0.08
-0.83
-0.19
0.22

>  <PUBCHEM_SHAPE_SELFOVERLAP>  (1) 
479.583

>  <PUBCHEM_SHAPE_VOLUME>  (1) 
176

>  <PUBCHEM_COORDINATE_TYPE>  (1) 
2
5
10

$$$$
