28480
     RDKit          3D

 20 21  0  0  0  0  0  0  0  0999 V2000
    6.7666   -0.4260    0.1155 O   0  0  0  0  0  0  0  0  0  0  0  0
   -6.7631   -0.4437   -0.1255 O   0  0  0  0  0  0  0  0  0  0  0  0
    3.3928    0.5807    0.7341 N   0  0  0  0  0  0  0  0  0  0  0  0
   -3.3976    0.6009   -0.7266 N   0  0  0  0  0  0  0  0  0  0  0  0
    0.7582    1.7336   -0.0008 C   0  0  0  0  0  0  0  0  0  0  0  0
   -0.7722    1.7489    0.0141 C   0  0  0  0  0  0  0  0  0  0  0  0
    1.3270    1.7001    1.4208 C   0  0  0  0  0  0  0  0  0  0  0  0
   -1.3408    1.7418   -1.4080 C   0  0  0  0  0  0  0  0  0  0  0  0
    2.8511    1.7428    1.4406 C   0  0  0  0  0  0  0  0  0  0  0  0
   -2.8653    1.7708   -1.4272 C   0  0  0  0  0  0  0  0  0  0  0  0
    4.6814    0.5589    0.7174 C   0  0  0  0  0  0  0  0  0  0  0  0
   -4.6860    0.5653   -0.7155 C   0  0  0  0  0  0  0  0  0  0  0  0
    5.4247   -0.5076    0.0692 C   0  0  0  0  0  0  0  0  0  0  0  0
   -5.4206   -0.5111   -0.0738 C   0  0  0  0  0  0  0  0  0  0  0  0
    4.9919   -1.6072   -0.5960 C   0  0  0  0  0  0  0  0  0  0  0  0
   -4.9788   -1.6081    0.5899 C   0  0  0  0  0  0  0  0  0  0  0  0
    6.1678   -2.2795   -1.0061 C   0  0  0  0  0  0  0  0  0  0  0  0
   -6.1494   -2.2941    0.9930 C   0  0  0  0  0  0  0  0  0  0  0  0
    7.2204   -1.5211   -0.5490 C   0  0  0  0  0  0  0  0  0  0  0  0
   -7.2080   -1.5456    0.5337 C   0  0  0  0  0  0  0  0  0  0  0  0
  1 13  1  0
  1 19  1  0
  2 14  1  0
  2 20  1  0
  3  9  1  0
  3 11  2  0
  4 10  1  0
  4 12  2  0
  5  6  1  0
  5  7  1  0
  6  8  1  0
  7  9  1  0
  8 10  1  0
 11 13  1  0
 12 14  1  0
 13 15  2  0
 14 16  2  0
 15 17  1  0
 16 18  1  0
 17 19  2  0
 18 20  2  0
M  END
>  <PUBCHEM_COMPOUND_CID>  (1) 
28480

>  <PUBCHEM_CONFORMER_RMSD>  (1) 
0.8

>  <PUBCHEM_CONFORMER_DIVERSEORDER>  (1) 
2
133
6
18
308
185
157
196
21
325
296
53
230
3
22
8
97
88
34
320
222
345
397
229
73
62
11
60
104
37
207
110
384
282
61
299
4
94
338
279
120
90
369
116
183
47
111
72
142
96
42
302
85
56
29
65
317
361
227
395
346
5
359
102
379
67
86
339
353
46
291
153
211
92
75
294
276
388
143
357
161
171
187
33
214
337
163
217
378
240
186
78
332
367
50
35
25
244
113
366
330
305
148
273
262
49
349
45
251
141
278
71
301
164
26
154
365
99
108
377
374
174
232
287
51
348
137
218
309
209
274
252
203
91
210
391
27
392
48
259
245
289
368
239
234
131
283
40
243
84
318
175
107
179
358
180
23
319
123
221
343
128
7
57
307
213
134
59
385
280
326
198
386
149
125
335
247
204
172
351
43
199
403
224
225
77
169
347
216
158
193
201
12
321
381
370
66
304
250
329
242
306
119
82
254
1
192
170
105
336
146
106
231
333
87
284
202
404
9
16
200
323
375
165
19
195
312
189
356
28
124
173
212
52
156
118
253
219
188
220
241
206
285
266
286
371
140
101
14
383
327
58
376
401
138
344
76
139
372
136
112
235
13
155
258
340
145
271
315
248
103
80
233
246
261
168
20
265
268
303
281
298
159
311
398
355
364
162
109
127
93
288
17
363
15
350
36
400
152
181
215
324
31
260
226
256
354
295
300
334
394
10
208
275
396
267
64
197
269
122
263
390
223
32
373
117
402
255
205
95
292
81
135
184
236
44
177
151
393
191
238
277
257
352
160
382
360
380
30
194
74
38
129
342
176
341
115
264
150
83
126
166
237
39
100
79
167
190
54
270
362
328
399
63
24
70
314
69
322
293
297
331
290
178
182
41
132
144
389
89
249
130
121
228
316
68
114
147
55
98
387
310
272
313

>  <PUBCHEM_MMFF94_PARTIAL_CHARGES>  (1) 
24
1 -0.28
10 0.25
11 0.47
12 0.47
13 0.05
14 0.05
15 -0.15
16 -0.15
17 -0.15
18 -0.15
19 -0.01
2 -0.28
20 -0.01
3 -0.7
33 0.06
34 0.06
35 0.15
36 0.15
37 0.15
38 0.15
39 0.15
4 -0.7
40 0.15
9 0.25

>  <PUBCHEM_EFFECTIVE_ROTOR_COUNT>  (1) 
9

>  <PUBCHEM_PHARMACOPHORE_FEATURES>  (1) 
7
1 1 acceptor
1 2 acceptor
1 3 acceptor
1 4 acceptor
4 5 6 7 8 hydrophobe
5 1 13 15 17 19 rings
5 2 14 16 18 20 rings

>  <PUBCHEM_HEAVY_ATOM_COUNT>  (1) 
20

>  <PUBCHEM_ATOM_DEF_STEREO_COUNT>  (1) 
0

>  <PUBCHEM_ATOM_UDEF_STEREO_COUNT>  (1) 
0

>  <PUBCHEM_BOND_DEF_STEREO_COUNT>  (1) 
0

>  <PUBCHEM_BOND_UDEF_STEREO_COUNT>  (1) 
0

>  <PUBCHEM_ISOTOPIC_ATOM_COUNT>  (1) 
0

>  <PUBCHEM_COMPONENT_COUNT>  (1) 
1

>  <PUBCHEM_CACTVS_TAUTO_COUNT>  (1) 
1

>  <PUBCHEM_CONFORMER_ID>  (1) 
00006F4000000002

>  <PUBCHEM_MMFF94_ENERGY>  (1) 
13.0754

>  <PUBCHEM_FEATURE_SELFOVERLAP>  (1) 
35.523

>  <PUBCHEM_SHAPE_FINGERPRINT>  (1) 
10669705 251 18339930427956628735
11036077 4 16558742460573826597
11408170 108 18343021138853786903
12342043 65 18412257350360356832
12778500 126 11743844630313313468
13103583 49 15554151645469315556
13402501 40 18410856563940635767
13533116 47 17988922318614143464
13673619 4 18411135839888803120
13685833 64 18343864416124849416
13757389 114 17460020791990200373
13955234 65 17916572289334024352
14123256 34 18410013238516259172
14251732 14 17603583023619848648
14251740 57 18187926230765592796
14251764 30 18410855464434035873
14420673 8 18335423500282673331
14428016 167 18341604954274865207
14556957 393 14779545643471199591
14739800 52 11239732841964559613
14767858 380 15430034352956109449
15352257 5 18410856559640094882
17134984 74 18260266318631524754
18335252 98 18410856582074864788
18643901 69 18113337501553006229
195137 95 9799693667142322814
20621476 21 18408604777333112075
21095086 4 18410863161005218606
21150785 3 17240486909955650748
21315763 76 13262686907225969860
21585481 104 14852428945240873079
21623969 137 18060701667643514094
21682296 61 18342739628783243991
22765269 38 8070026675021709872
2303208 19 18410851062087360680
23424782 7 18334575768101343580
2838139 119 8934992655434319112
3089732 80 18410291414969045275
312425 54 15697700589467560286
4107672 100 17531239501568462093
437795 70 17968381263795857851
437815 12 18410014359887995225
439807 62 18334293120086819242
46194498 28 18260823818065946604
465052 167 18131070433491329556
636775 8 18341058428687314486
8217 86 18334012774633513028
8863177 126 18341608256645025994
9980921 177 11095343871246101348
999808 66 18343302548060016711

>  <PUBCHEM_SHAPE_MULTIPOLES>  (1) 
389.89
23.63
2.73
1.3
0.26
0.39
-0.01
21.07
0.12
-0.09
0.01
0.02
-0.48
3.91

>  <PUBCHEM_SHAPE_SELFOVERLAP>  (1) 
800.116

>  <PUBCHEM_SHAPE_VOLUME>  (1) 
226.8

>  <PUBCHEM_COORDINATE_TYPE>  (1) 
2
5
10

$$$$
