28483
     RDKit          3D

 19 20  0  0  0  0  0  0  0  0999 V2000
   -2.6703    2.0779   -0.4272 O   0  0  0  0  0  0  0  0  0  0  0  0
   -0.7985   -1.9483    0.1433 O   0  0  0  0  0  0  0  0  0  0  0  0
    0.2636    0.2586    2.2384 O   0  0  0  0  0  0  0  0  0  0  0  0
   -2.7989   -2.0466   -0.9914 O   0  0  0  0  0  0  0  0  0  0  0  0
   -2.9588    0.7567   -0.7471 N   0  0  0  0  0  0  0  0  0  0  0  0
   -1.0204    0.8766    0.3552 C   0  0  0  0  0  0  0  0  0  0  0  0
   -1.4899    2.1295    0.2414 C   0  0  0  0  0  0  0  0  0  0  0  0
   -1.9355    0.0510   -0.2571 C   0  0  0  0  0  0  0  0  0  0  0  0
    0.2459    0.5118    1.0239 C   0  0  0  0  0  0  0  0  0  0  0  0
    1.4944    0.4556    0.2806 C   0  0  0  0  0  0  0  0  0  0  0  0
   -1.0362    3.4638    0.6569 C   0  0  0  0  0  0  0  0  0  0  0  0
   -1.9168   -1.3752   -0.4158 C   0  0  0  0  0  0  0  0  0  0  0  0
    1.5065    0.7343   -1.0861 C   0  0  0  0  0  0  0  0  0  0  0  0
    2.6802    0.1219    0.9349 C   0  0  0  0  0  0  0  0  0  0  0  0
    2.7046    0.6797   -1.7985 C   0  0  0  0  0  0  0  0  0  0  0  0
    3.8783    0.0670    0.2224 C   0  0  0  0  0  0  0  0  0  0  0  0
   -0.6641   -3.3705    0.0485 C   0  0  0  0  0  0  0  0  0  0  0  0
    3.8907    0.3462   -1.1443 C   0  0  0  0  0  0  0  0  0  0  0  0
    0.6252   -3.7898    0.7221 C   0  0  0  0  0  0  0  0  0  0  0  0
  1  5  1  0
  1  7  1  0
  2 12  1  0
  2 17  1  0
  3  9  2  0
  4 12  2  0
  5  8  2  0
  6  7  2  0
  6  8  1  0
  6  9  1  0
  7 11  1  0
  8 12  1  0
  9 10  1  0
 10 13  2  0
 10 14  1  0
 13 15  1  0
 14 16  2  0
 15 18  2  0
 16 18  1  0
 17 19  1  0
M  END
>  <PUBCHEM_COMPOUND_CID>  (1) 
28483

>  <PUBCHEM_CONFORMER_RMSD>  (1) 
0.6

>  <PUBCHEM_CONFORMER_DIVERSEORDER>  (1) 
1
6
14
17
4
5
18
19
2
7
3
12
8
11
13
10
9
20
16
15

>  <PUBCHEM_MMFF94_PARTIAL_CHARGES>  (1) 
23
1 -0.02
10 0.09
11 0.18
12 0.81
13 -0.15
14 -0.15
15 -0.15
16 -0.15
17 0.28
18 -0.15
2 -0.43
23 0.15
24 0.15
25 0.15
26 0.15
29 0.15
3 -0.57
4 -0.57
5 -0.41
6 -0.09
7 -0.04
8 0.2
9 0.57

>  <PUBCHEM_EFFECTIVE_ROTOR_COUNT>  (1) 
5

>  <PUBCHEM_PHARMACOPHORE_FEATURES>  (1) 
5
1 3 acceptor
1 4 acceptor
1 5 acceptor
5 1 5 6 7 8 rings
6 10 13 14 15 16 18 rings

>  <PUBCHEM_HEAVY_ATOM_COUNT>  (1) 
19

>  <PUBCHEM_ATOM_DEF_STEREO_COUNT>  (1) 
0

>  <PUBCHEM_ATOM_UDEF_STEREO_COUNT>  (1) 
0

>  <PUBCHEM_BOND_DEF_STEREO_COUNT>  (1) 
0

>  <PUBCHEM_BOND_UDEF_STEREO_COUNT>  (1) 
0

>  <PUBCHEM_ISOTOPIC_ATOM_COUNT>  (1) 
0

>  <PUBCHEM_COMPONENT_COUNT>  (1) 
1

>  <PUBCHEM_CACTVS_TAUTO_COUNT>  (1) 
1

>  <PUBCHEM_CONFORMER_ID>  (1) 
00006F4300000001

>  <PUBCHEM_MMFF94_ENERGY>  (1) 
42.0887

>  <PUBCHEM_FEATURE_SELFOVERLAP>  (1) 
25.376

>  <PUBCHEM_SHAPE_FINGERPRINT>  (1) 
10764073 3 16615681605799124555
11370993 70 18340195294446909478
11578080 2 12030067228780019731
12054548 360 17473274648225782382
12173636 292 18409444769620014428
12553582 1 18050575332654799918
12592029 89 18191319173313861507
12788726 201 18337683030177446942
14181834 199 17547847460737183159
14817 1 11011055412702546418
15415430 2 18269554008281457951
16752209 62 18336535118653240327
16945 1 18271527515673277136
18785283 64 17186464342781328305
20510252 161 18341615944536291680
20600515 1 17837737339607001201
20645476 183 18186521016097069215
20739085 24 14962242346932125473
20871999 31 18340487880108389397
20905425 154 18201153243994276343
21304253 335 15538673441932644585
21330990 113 17977143207701542747
23419403 2 17273113916270847089
23526113 38 17346587548352354040
23557571 272 18200032992359752736
23559900 14 18201994405539982136
2748010 2 18126547149685904553
305870 269 17978234850617000396
576247 118 17766862871182349927
77492 1 17822282479343988776
81228 2 18200608014917058419
90525 40 18260552190562261782

>  <PUBCHEM_SHAPE_MULTIPOLES>  (1) 
362.55
5.1
3.76
1.38
3.76
2.83
-0.12
-1.1
1.88
-2.63
-0.72
0.68
-0.18
-0.69

>  <PUBCHEM_SHAPE_SELFOVERLAP>  (1) 
776.788

>  <PUBCHEM_SHAPE_VOLUME>  (1) 
202.4

>  <PUBCHEM_COORDINATE_TYPE>  (1) 
2
5
10

$$$$
