28487
     RDKit          3D

  9  9  0  0  0  0  0  0  0  0999 V2000
    3.3674   -0.3788   -0.0006 Br  0  0  0  0  0  0  0  0  0  0  0  0
   -1.6540   -1.8499    0.0000 O   0  0  0  0  0  0  0  0  0  0  0  0
   -2.5632    0.7762   -0.0009 O   0  0  0  0  0  0  0  0  0  0  0  0
   -0.7717   -0.8122    0.0003 C   0  0  0  0  0  0  0  0  0  0  0  0
   -1.2280    0.5060    0.0004 C   0  0  0  0  0  0  0  0  0  0  0  0
    0.5981   -1.0761    0.0002 C   0  0  0  0  0  0  0  0  0  0  0  0
   -0.3148    1.5602    0.0003 C   0  0  0  0  0  0  0  0  0  0  0  0
    1.5114   -0.0218    0.0001 C   0  0  0  0  0  0  0  0  0  0  0  0
    1.0549    1.2964    0.0001 C   0  0  0  0  0  0  0  0  0  0  0  0
  1  8  1  0
  2  4  1  0
  3  5  1  0
  4  5  2  0
  4  6  1  0
  5  7  1  0
  6  8  2  0
  7  9  2  0
  8  9  1  0
M  END
>  <PUBCHEM_COMPOUND_CID>  (1) 
28487

>  <PUBCHEM_CONFORMER_RMSD>  (1) 
0.4

>  <PUBCHEM_CONFORMER_DIVERSEORDER>  (1) 
1

>  <PUBCHEM_MMFF94_PARTIAL_CHARGES>  (1) 
14
1 -0.11
10 0.15
11 0.15
12 0.15
13 0.45
14 0.45
2 -0.53
3 -0.53
4 0.08
5 0.08
6 -0.15
7 -0.15
8 0.11
9 -0.15

>  <PUBCHEM_EFFECTIVE_ROTOR_COUNT>  (1) 
0

>  <PUBCHEM_PHARMACOPHORE_FEATURES>  (1) 
4
1 1 hydrophobe
1 2 donor
1 3 donor
6 4 5 6 7 8 9 rings

>  <PUBCHEM_HEAVY_ATOM_COUNT>  (1) 
9

>  <PUBCHEM_ATOM_DEF_STEREO_COUNT>  (1) 
0

>  <PUBCHEM_ATOM_UDEF_STEREO_COUNT>  (1) 
0

>  <PUBCHEM_BOND_DEF_STEREO_COUNT>  (1) 
0

>  <PUBCHEM_BOND_UDEF_STEREO_COUNT>  (1) 
0

>  <PUBCHEM_ISOTOPIC_ATOM_COUNT>  (1) 
0

>  <PUBCHEM_COMPONENT_COUNT>  (1) 
1

>  <PUBCHEM_CACTVS_TAUTO_COUNT>  (1) 
8

>  <PUBCHEM_CONFORMER_ID>  (1) 
00006F4700000001

>  <PUBCHEM_MMFF94_ENERGY>  (1) 
18.4397

>  <PUBCHEM_FEATURE_SELFOVERLAP>  (1) 
20.301

>  <PUBCHEM_SHAPE_FINGERPRINT>  (1) 
14128692 85 18336834211764809484
15310529 11 16588303830849616840
16714656 1 18337955588933958724
16945 1 18410575046182615460
18185500 45 18407757036498284602
193761 8 18050567640283697348
20871998 184 18201721781731531726
21040471 1 18338798901198620097
23235685 24 18340482257848511940
23402655 69 17978772538406685421
23552423 10 18188211034599705796
2748010 2 18267018538825772020
369184 2 18408318861513087786
5084963 1 18200316657357918498

>  <PUBCHEM_SHAPE_MULTIPOLES>  (1) 
179.42
3.68
1.67
0.61
2.23
0.12
0
0.35
0
-0.61
0
0.1
-0.01
0

>  <PUBCHEM_SHAPE_SELFOVERLAP>  (1) 
361.123

>  <PUBCHEM_SHAPE_VOLUME>  (1) 
109

>  <PUBCHEM_COORDINATE_TYPE>  (1) 
2
5
10

$$$$
