28496
     RDKit          3D

 17 18  0  0  0  0  0  0  0  0999 V2000
   -1.5605    2.7315    0.0009 Cl  0  0  0  0  0  0  0  0  0  0  0  0
    6.1489   -1.3466    0.0020 Cl  0  0  0  0  0  0  0  0  0  0  0  0
    0.7723    1.1336   -0.0008 N   0  0  0  0  0  0  0  0  0  0  0  0
   -0.3392    0.3756   -0.0003 N   0  0  0  0  0  0  0  0  0  0  0  0
    2.0454    0.5461   -0.0012 C   0  0  0  0  0  0  0  0  0  0  0  0
   -2.7367    0.1656   -0.0002 C   0  0  0  0  0  0  0  0  0  0  0  0
    3.1923    1.3472   -0.0006 C   0  0  0  0  0  0  0  0  0  0  0  0
    2.1800   -0.8465   -0.0009 C   0  0  0  0  0  0  0  0  0  0  0  0
   -2.6541   -1.2269   -0.0008 C   0  0  0  0  0  0  0  0  0  0  0  0
   -3.9838    0.7903    0.0006 C   0  0  0  0  0  0  0  0  0  0  0  0
   -1.5227    0.9660    0.0001 C   0  0  0  0  0  0  0  0  0  0  0  0
    4.4589    0.7628    0.0000 C   0  0  0  0  0  0  0  0  0  0  0  0
    3.4465   -1.4308    0.0000 C   0  0  0  0  0  0  0  0  0  0  0  0
    4.5860   -0.6262    0.0002 C   0  0  0  0  0  0  0  0  0  0  0  0
   -3.8188   -1.9945   -0.0006 C   0  0  0  0  0  0  0  0  0  0  0  0
   -5.1484    0.0226    0.0010 C   0  0  0  0  0  0  0  0  0  0  0  0
   -5.0660   -1.3698    0.0005 C   0  0  0  0  0  0  0  0  0  0  0  0
  1 11  1  0
  2 14  1  0
  3  4  1  0
  3  5  1  0
  4 11  2  0
  5  7  2  0
  5  8  1  0
  6  9  2  0
  6 10  1  0
  6 11  1  0
  7 12  1  0
  8 13  2  0
  9 15  1  0
 10 16  2  0
 12 14  2  0
 13 14  1  0
 15 17  2  0
 16 17  1  0
M  END
>  <PUBCHEM_COMPOUND_CID>  (1) 
28496

>  <PUBCHEM_CONFORMER_RMSD>  (1) 
0.6

>  <PUBCHEM_CONFORMER_DIVERSEORDER>  (1) 
1
4
2
3

>  <PUBCHEM_MMFF94_PARTIAL_CHARGES>  (1) 
27
1 -0.21
10 -0.15
11 0.57
12 -0.15
13 -0.15
14 0.18
15 -0.15
16 -0.15
17 -0.15
18 0.15
19 0.15
2 -0.18
20 0.15
21 0.15
22 0.4
23 0.15
24 0.15
25 0.15
26 0.15
27 0.15
3 -0.46
4 -0.49
5 0.1
6 0.09
7 -0.15
8 -0.15
9 -0.15

>  <PUBCHEM_EFFECTIVE_ROTOR_COUNT>  (1) 
3

>  <PUBCHEM_PHARMACOPHORE_FEATURES>  (1) 
4
1 3 donor
1 4 acceptor
6 5 7 8 12 13 14 rings
6 6 9 10 15 16 17 rings

>  <PUBCHEM_HEAVY_ATOM_COUNT>  (1) 
17

>  <PUBCHEM_ATOM_DEF_STEREO_COUNT>  (1) 
0

>  <PUBCHEM_ATOM_UDEF_STEREO_COUNT>  (1) 
0

>  <PUBCHEM_BOND_DEF_STEREO_COUNT>  (1) 
0

>  <PUBCHEM_BOND_UDEF_STEREO_COUNT>  (1) 
1

>  <PUBCHEM_ISOTOPIC_ATOM_COUNT>  (1) 
0

>  <PUBCHEM_COMPONENT_COUNT>  (1) 
1

>  <PUBCHEM_CACTVS_TAUTO_COUNT>  (1) 
1

>  <PUBCHEM_CONFORMER_ID>  (1) 
00006F5000000001

>  <PUBCHEM_MMFF94_ENERGY>  (1) 
54.6763

>  <PUBCHEM_FEATURE_SELFOVERLAP>  (1) 
20.297

>  <PUBCHEM_SHAPE_FINGERPRINT>  (1) 
10616163 171 18412263904564521639
10968037 39 18335423482132015871
11045515 52 18113053839953437965
11315181 36 18272936024385784497
11806522 49 18335139795695592516
12107183 9 17762620581633641346
12555020 224 18338225047183415567
12596602 18 13614237083625629039
12916748 109 9367349253580641093
12916754 54 18411703179604691208
13167823 11 18410009952877009138
13288520 33 18411138026364162853
13911882 115 17918001538290531734
14251731 8 18335699421238727903
14251764 18 18201726176263439907
14252887 29 17203618073057368308
14341114 176 18410859858554688964
15196674 1 18410574015216462566
15352361 1 18410855477313305733
15880784 105 17917429877494386010
17834072 33 18408044030750726284
17834072 8 18187639194443764223
17844677 252 18411425011468026737
17857418 61 18409445865105453138
1813 80 17530682134386547741
19141452 34 18341896320655508703
200 152 18343301474360384081
20261772 1 17917989512002041366
20281475 54 18411985779757305833
20374829 77 18408882940832041307
20645477 70 18411138022169753710
21267235 1 18409737261161231299
221490 88 18191030194918410880
22485316 2 18411418436125745453
2297311 6 18343029873608562468
23402539 116 18407755928365132341
23557571 272 18201160944965563716
23559900 14 18411130376732600865
239999 70 18343588443428636398
26918003 58 18273213084130709945
2871803 45 18261107474141640522
3004659 81 18187080659131231842
3268164 11 16443336559985428269
335352 9 18410292502618969525
351380 3 18335419071174586370
42 15 18411983559063573813
4214541 1 18410856525465076773
465052 167 18272657890930709343
4921388 177 16298676091705054883
5104073 3 18342176682523475552
5283173 99 18187916236788054349
542803 24 13479131285084490063
559249 180 18409164381760308339
67856867 119 18262238944990838108
7495541 125 17917425454242294304
77779 3 18410856572582882629
9709674 26 18335708281408405242

>  <PUBCHEM_SHAPE_MULTIPOLES>  (1) 
343.63
13.54
2.17
0.61
5.37
0.58
0
-6.18
0.01
-0.9
0
0.01
0
0

>  <PUBCHEM_SHAPE_SELFOVERLAP>  (1) 
713.327

>  <PUBCHEM_SHAPE_VOLUME>  (1) 
195

>  <PUBCHEM_COORDINATE_TYPE>  (1) 
2
5
10

$$$$
