28492
     RDKit          3D

 16 16  0  0  0  0  0  0  0  0999 V2000
   -0.2974   -0.0229   -1.0089 O   0  0  0  0  0  0  0  0  0  0  0  0
   -3.7968    0.0054    0.2871 N   0  0  0  0  0  0  0  0  0  0  0  0
   -2.6838   -0.0303   -0.7502 C   0  0  0  0  0  0  0  0  0  0  0  0
   -3.6485    1.2518    1.1477 C   0  0  0  0  0  0  0  0  0  0  0  0
   -5.1456    0.0326   -0.4172 C   0  0  0  0  0  0  0  0  0  0  0  0
   -3.7094   -1.2326    1.1681 C   0  0  0  0  0  0  0  0  0  0  0  0
   -1.3419   -0.0261   -0.0447 C   0  0  0  0  0  0  0  0  0  0  0  0
    0.9864   -0.0103   -0.5291 C   0  0  0  0  0  0  0  0  0  0  0  0
    1.6242    1.2040   -0.2935 C   0  0  0  0  0  0  0  0  0  0  0  0
    1.6434   -1.2119   -0.2819 C   0  0  0  0  0  0  0  0  0  0  0  0
    3.5942    0.0152    0.4436 C   0  0  0  0  0  0  0  0  0  0  0  0
    2.9311    1.2167    0.1940 C   0  0  0  0  0  0  0  0  0  0  0  0
    2.9504   -1.1990    0.2055 C   0  0  0  0  0  0  0  0  0  0  0  0
    0.9312    2.5005   -0.5549 C   0  0  0  0  0  0  0  0  0  0  0  0
    0.9712   -2.5219   -0.5303 C   0  0  0  0  0  0  0  0  0  0  0  0
    4.9914    0.0289    0.9647 C   0  0  0  0  0  0  0  0  0  0  0  0
  1  7  1  0
  1  8  1  0
  2  3  1  0
  2  4  1  0
  2  5  1  0
  2  6  1  0
  3  7  1  0
  8  9  2  0
  8 10  1  0
  9 12  1  0
  9 14  1  0
 10 13  2  0
 10 15  1  0
 11 12  2  0
 11 13  1  0
 11 16  1  0
M  CHG  1   2   1
M  END
>  <PUBCHEM_COMPOUND_CID>  (1) 
28492

>  <PUBCHEM_CONFORMER_RMSD>  (1) 
0.6

>  <PUBCHEM_CONFORMER_DIVERSEORDER>  (1) 
1
6
5
8
3
7
2
4

>  <PUBCHEM_MMFF94_PARTIAL_CHARGES>  (1) 
18
1 -0.36
10 -0.14
11 -0.14
12 -0.15
13 -0.15
14 0.14
15 0.14
16 0.14
2 -1.01
3 0.5
30 0.15
31 0.15
4 0.5
5 0.5
6 0.5
7 0.28
8 0.08
9 -0.14

>  <PUBCHEM_EFFECTIVE_ROTOR_COUNT>  (1) 
4

>  <PUBCHEM_PHARMACOPHORE_FEATURES>  (1) 
3
1 1 acceptor
1 2 cation
6 8 9 10 11 12 13 rings

>  <PUBCHEM_HEAVY_ATOM_COUNT>  (1) 
16

>  <PUBCHEM_ATOM_DEF_STEREO_COUNT>  (1) 
0

>  <PUBCHEM_ATOM_UDEF_STEREO_COUNT>  (1) 
0

>  <PUBCHEM_BOND_DEF_STEREO_COUNT>  (1) 
0

>  <PUBCHEM_BOND_UDEF_STEREO_COUNT>  (1) 
0

>  <PUBCHEM_ISOTOPIC_ATOM_COUNT>  (1) 
0

>  <PUBCHEM_COMPONENT_COUNT>  (1) 
1

>  <PUBCHEM_CACTVS_TAUTO_COUNT>  (1) 
1

>  <PUBCHEM_CONFORMER_ID>  (1) 
00006F4C00000001

>  <PUBCHEM_MMFF94_ENERGY>  (1) 
60.5435

>  <PUBCHEM_FEATURE_SELFOVERLAP>  (1) 
15.223

>  <PUBCHEM_SHAPE_FINGERPRINT>  (1) 
10219947 1 18410289211977447956
10465860 228 18058741199260526694
10498660 4 14332860240257424075
11796584 16 16081363025327056346
12236239 1 17704346675978479703
12251169 10 18410291436559660095
12507557 5 18409165541259086105
12633257 1 18114187436388186793
13140716 1 18194108836878423640
13675066 3 18060421313368222728
14251717 144 18411417310728418951
14252887 29 18412265000202999798
14790565 3 18338525243828000484
15375358 24 18260547801612347311
16945 1 18266716088067297934
187816 3 9223231888531236112
19050596 39 18342745152142770179
200 152 18272643567974101071
20279233 1 17967253083582652767
20645477 70 18411132503152713359
20871998 22 18266179439992625966
21637258 2 15430580811010126584
22854114 59 18411980260771400487
231179 274 13686295768806451354
23184049 59 18411976975295381996
23402539 116 17968085439401384535
23557571 272 15792282709444017958
26918003 58 18260827107493183265
2748010 2 17979615872387801636
2838139 119 14548436077972938402
465052 167 18113056039097388914
4990 188 11097855168577878184
5104073 3 18261396701708550465
5281201 14 11527956663832549755
9709674 26 18409456886334841615

>  <PUBCHEM_SHAPE_MULTIPOLES>  (1) 
318.42
9.44
2
1.02
5.91
0.02
0.15
-0.06
2.99
-0.84
-0.24
0.4
0
0.02

>  <PUBCHEM_SHAPE_SELFOVERLAP>  (1) 
636.648

>  <PUBCHEM_SHAPE_VOLUME>  (1) 
193.8

>  <PUBCHEM_COORDINATE_TYPE>  (1) 
2
5
10

$$$$
