28504
     RDKit          3D

 13 14  0  0  0  0  0  0  0  0999 V2000
   -3.6807    1.8404   -0.0014 O   0  0  0  0  0  0  0  0  0  0  0  0
   -1.6334   -1.8542   -0.0004 N   0  0  0  0  0  0  0  0  0  0  0  0
    4.1515    1.5443   -0.0006 N   0  0  0  0  0  0  0  0  0  0  0  0
   -0.4512    0.0378    0.0006 C   0  0  0  0  0  0  0  0  0  0  0  0
   -0.3504   -1.3551   -0.0001 C   0  0  0  0  0  0  0  0  0  0  0  0
   -1.8381    0.3560    0.0010 C   0  0  0  0  0  0  0  0  0  0  0  0
   -2.5394   -0.8277    0.0002 C   0  0  0  0  0  0  0  0  0  0  0  0
    0.7317    0.8034    0.0009 C   0  0  0  0  0  0  0  0  0  0  0  0
    0.8792   -2.0233   -0.0006 C   0  0  0  0  0  0  0  0  0  0  0  0
    1.9687    0.1486    0.0003 C   0  0  0  0  0  0  0  0  0  0  0  0
    2.0389   -1.2431   -0.0002 C   0  0  0  0  0  0  0  0  0  0  0  0
   -2.4500    1.6543    0.0003 C   0  0  0  0  0  0  0  0  0  0  0  0
    3.1731    0.9187   -0.0001 C   0  0  0  0  0  0  0  0  0  0  0  0
  1 12  2  0
  2  5  1  0
  2  7  1  0
  3 13  3  0
  4  5  2  0
  4  6  1  0
  4  8  1  0
  5  9  1  0
  6  7  2  0
  6 12  1  0
  8 10  2  0
  9 11  2  0
 10 11  1  0
 10 13  1  0
M  END
>  <PUBCHEM_COMPOUND_CID>  (1) 
28504

>  <PUBCHEM_CONFORMER_RMSD>  (1) 
0.4

>  <PUBCHEM_CONFORMER_DIVERSEORDER>  (1) 
1
2

>  <PUBCHEM_MMFF94_PARTIAL_CHARGES>  (1) 
18
1 -0.57
10 0.07
11 -0.15
12 0.6
13 0.48
14 0.27
15 0.15
16 0.15
17 0.15
18 0.15
19 0.06
2 0.03
3 -0.56
5 -0.15
6 -0.09
7 -0.3
8 -0.15
9 -0.15

>  <PUBCHEM_EFFECTIVE_ROTOR_COUNT>  (1) 
1

>  <PUBCHEM_PHARMACOPHORE_FEATURES>  (1) 
6
1 1 acceptor
1 2 cation
1 2 donor
1 3 acceptor
5 2 4 5 6 7 rings
6 4 5 8 9 10 11 rings

>  <PUBCHEM_HEAVY_ATOM_COUNT>  (1) 
13

>  <PUBCHEM_ATOM_DEF_STEREO_COUNT>  (1) 
0

>  <PUBCHEM_ATOM_UDEF_STEREO_COUNT>  (1) 
0

>  <PUBCHEM_BOND_DEF_STEREO_COUNT>  (1) 
0

>  <PUBCHEM_BOND_UDEF_STEREO_COUNT>  (1) 
0

>  <PUBCHEM_ISOTOPIC_ATOM_COUNT>  (1) 
0

>  <PUBCHEM_COMPONENT_COUNT>  (1) 
1

>  <PUBCHEM_CACTVS_TAUTO_COUNT>  (1) 
3

>  <PUBCHEM_CONFORMER_ID>  (1) 
00006F5800000001

>  <PUBCHEM_MMFF94_ENERGY>  (1) 
17.8571

>  <PUBCHEM_FEATURE_SELFOVERLAP>  (1) 
30.537

>  <PUBCHEM_SHAPE_FINGERPRINT>  (1) 
10608611 8 18411981364572831168
10967382 1 18338798888377138660
12346645 44 18408884070492771208
12390115 104 18270140005224743952
12932764 1 17489580203496262602
13380535 21 18411146809245306923
13380535 76 18410569565698883215
14325111 11 18410575097885629888
14614273 12 18187634825834328773
14648413 74 18267027150166940530
14897335 6 18410851032169944933
15219456 202 18411707555907009086
15775835 57 18411140220776199801
16945 1 18266741461774415463
1741750 31 18343022176916424256
18186145 218 18126849292008372269
20510252 161 18270403926527093600
20871998 184 18127417962663222079
21501502 16 18410846638386973415
21524375 3 18410848845904925722
2334 1 18410855464465560978
23402539 116 18196362843525025607
23402655 69 18270950247069050701
23463225 33 18334287670036785514
23559900 14 18201442476673225732
2748010 2 18410864230462248223
305870 269 18333446530477209602
3071541 12 18196094343902900702
53812653 166 18342736325473605488
7364860 26 18269837502325294934

>  <PUBCHEM_SHAPE_MULTIPOLES>  (1) 
251.7
5.53
2.18
0.6
1.62
0.28
0
-3.74
0
-0.4
0
0.01
0.01
0

>  <PUBCHEM_SHAPE_SELFOVERLAP>  (1) 
555.136

>  <PUBCHEM_SHAPE_VOLUME>  (1) 
134.8

>  <PUBCHEM_COORDINATE_TYPE>  (1) 
2
5
10

$$$$
