28505
     RDKit          3D

 14 15  0  0  0  0  0  0  0  0999 V2000
   -1.8787    2.3400    0.0011 O   0  0  0  0  0  0  0  0  0  0  0  0
   -1.2649   -2.1889   -0.0003 N   0  0  0  0  0  0  0  0  0  0  0  0
    4.1355    1.7924   -0.0008 N   0  0  0  0  0  0  0  0  0  0  0  0
   -0.2858   -0.1842    0.0005 C   0  0  0  0  0  0  0  0  0  0  0  0
   -0.0407   -1.5591    0.0000 C   0  0  0  0  0  0  0  0  0  0  0  0
   -1.6983   -0.0119    0.0008 C   0  0  0  0  0  0  0  0  0  0  0  0
   -2.2727   -1.2621    0.0002 C   0  0  0  0  0  0  0  0  0  0  0  0
    0.8111    0.7001    0.0007 C   0  0  0  0  0  0  0  0  0  0  0  0
    1.2516   -2.0959   -0.0003 C   0  0  0  0  0  0  0  0  0  0  0  0
   -2.4417    1.2158   -0.0001 C   0  0  0  0  0  0  0  0  0  0  0  0
    2.1095    0.1775    0.0003 C   0  0  0  0  0  0  0  0  0  0  0  0
    2.3240   -1.1995    0.0000 C   0  0  0  0  0  0  0  0  0  0  0  0
   -3.9762    1.2074   -0.0017 C   0  0  0  0  0  0  0  0  0  0  0  0
    3.2274    1.0685   -0.0003 C   0  0  0  0  0  0  0  0  0  0  0  0
  1 10  2  0
  2  5  1  0
  2  7  1  0
  3 14  3  0
  4  5  2  0
  4  6  1  0
  4  8  1  0
  5  9  1  0
  6  7  2  0
  6 10  1  0
  8 11  2  0
  9 12  2  0
 10 13  1  0
 11 12  1  0
 11 14  1  0
M  END
>  <PUBCHEM_COMPOUND_CID>  (1) 
28505

>  <PUBCHEM_CONFORMER_RMSD>  (1) 
0.4

>  <PUBCHEM_CONFORMER_DIVERSEORDER>  (1) 
1
3
2
4

>  <PUBCHEM_MMFF94_PARTIAL_CHARGES>  (1) 
18
1 -0.57
10 0.6
11 0.07
12 -0.15
13 0.06
14 0.48
15 0.27
16 0.15
17 0.15
18 0.15
19 0.15
2 0.03
3 -0.56
5 -0.15
6 -0.09
7 -0.3
8 -0.15
9 -0.15

>  <PUBCHEM_EFFECTIVE_ROTOR_COUNT>  (1) 
1

>  <PUBCHEM_PHARMACOPHORE_FEATURES>  (1) 
6
1 1 acceptor
1 2 cation
1 2 donor
1 3 acceptor
5 2 4 5 6 7 rings
6 4 5 8 9 11 12 rings

>  <PUBCHEM_HEAVY_ATOM_COUNT>  (1) 
14

>  <PUBCHEM_ATOM_DEF_STEREO_COUNT>  (1) 
0

>  <PUBCHEM_ATOM_UDEF_STEREO_COUNT>  (1) 
0

>  <PUBCHEM_BOND_DEF_STEREO_COUNT>  (1) 
0

>  <PUBCHEM_BOND_UDEF_STEREO_COUNT>  (1) 
0

>  <PUBCHEM_ISOTOPIC_ATOM_COUNT>  (1) 
0

>  <PUBCHEM_COMPONENT_COUNT>  (1) 
1

>  <PUBCHEM_CACTVS_TAUTO_COUNT>  (1) 
5

>  <PUBCHEM_CONFORMER_ID>  (1) 
00006F5900000001

>  <PUBCHEM_MMFF94_ENERGY>  (1) 
22.6591

>  <PUBCHEM_FEATURE_SELFOVERLAP>  (1) 
30.537

>  <PUBCHEM_SHAPE_FINGERPRINT>  (1) 
10411042 1 17113538676208632870
10608611 8 18410575058961989844
10967382 1 18410855417199841184
12251169 10 18262227807992511298
12346645 44 18336545014468510032
12390115 104 18197800962074822184
13140716 1 18336266734510001339
13380535 21 18411709776431429410
13380535 76 18411133623711707854
14325111 11 18410855451548796193
14614273 12 18187916313637906053
14648413 74 18267027158904607162
14897335 6 18410852153029724199
15442244 35 18122622752009876386
15775835 57 18413674608031658185
16945 1 18266458882985886951
1741750 31 18343022202823293632
18186145 218 18127413345699712853
20510252 161 18269560605387745418
20671657 1 18265900150954055526
21501502 16 18411410709221428910
21524375 3 18341325613315859074
2334 1 18410855473108256074
23402539 116 18125995211696457479
23402655 69 18271515400266737837
23557571 272 18128830809271352294
23559900 14 18201442502416792108
2748010 2 18410301289104062223
3071541 12 18267870475959822142
53812653 166 18343017813366821080
7364860 26 18269556044560030526

>  <PUBCHEM_SHAPE_MULTIPOLES>  (1) 
272.28
5.82
2.44
0.6
0.71
0.26
0
-3.93
0
0.08
0
0
0.01
0

>  <PUBCHEM_SHAPE_SELFOVERLAP>  (1) 
596.205

>  <PUBCHEM_SHAPE_VOLUME>  (1) 
147.6

>  <PUBCHEM_COORDINATE_TYPE>  (1) 
2
5
10

$$$$
