2850
     RDKit          3D

 43 46  0  0  1  0  0  0  0  0999 V2000
    1.3987    3.0045    2.6401 O   0  0  0  0  0  0  0  0  0  0  0  0
    2.8423    0.5447   -2.4106 O   0  0  0  0  0  0  0  0  0  0  0  0
   -0.8845    0.3428    3.1405 O   0  0  0  0  0  0  0  0  0  0  0  0
    1.9039   -2.3729    1.7837 O   0  0  0  0  0  0  0  0  0  0  0  0
   -6.1774    1.6148   -2.9533 O   0  0  0  0  0  0  0  0  0  0  0  0
   -7.3860   -0.8033   -2.9248 O   0  0  0  0  0  0  0  0  0  0  0  0
    2.8695    1.8370   -0.4896 N   0  0  0  0  0  0  0  0  0  0  0  0
    0.4113    2.0200    0.7983 N   0  0  0  0  0  0  0  0  0  0  0  0
    1.5334   -0.9510   -0.0101 N   0  0  0  0  0  0  0  0  0  0  0  0
   -0.9188   -0.4835    0.9702 N   0  0  0  0  0  0  0  0  0  0  0  0
   -7.4762    0.0691   -1.8320 N   0  0  0  0  0  0  0  0  0  0  0  0
    2.8575    2.0205    0.9764 C   0  0  0  0  0  0  0  0  0  0  0  0
    3.9929    2.9608    1.4092 C   0  0  0  0  0  0  0  0  0  0  0  0
    3.9771    4.2756    0.6308 C   0  0  0  0  0  0  0  0  0  0  0  0
    2.8354    3.0841   -1.2674 C   0  0  0  0  0  0  0  0  0  0  0  0
    3.9782    4.0128   -0.8720 C   0  0  0  0  0  0  0  0  0  0  0  0
    1.4949    2.4642    1.5378 C   0  0  0  0  0  0  0  0  0  0  0  0
    2.8975    0.6134   -1.1766 C   0  0  0  0  0  0  0  0  0  0  0  0
    2.9204   -0.6837   -0.3593 C   0  0  0  0  0  0  0  0  0  0  0  0
   -0.9420    1.9278    1.3342 C   0  0  0  0  0  0  0  0  0  0  0  0
   -1.9994    2.1979    0.2786 C   0  0  0  0  0  0  0  0  0  0  0  0
    3.4893   -1.8440   -1.1744 C   0  0  0  0  0  0  0  0  0  0  0  0
   -0.3801   -1.8043    1.2612 C   0  0  0  0  0  0  0  0  0  0  0  0
   -3.4096    1.9717    0.8278 C   0  0  0  0  0  0  0  0  0  0  0  0
   -0.9638    0.5225    1.9255 C   0  0  0  0  0  0  0  0  0  0  0  0
    1.1388   -1.7163    1.0782 C   0  0  0  0  0  0  0  0  0  0  0  0
   -4.5146    2.2433   -0.1975 C   0  0  0  0  0  0  0  0  0  0  0  0
   -0.9729   -2.8552    0.3375 C   0  0  0  0  0  0  0  0  0  0  0  0
    4.9928   -1.8538   -1.1487 C   0  0  0  0  0  0  0  0  0  0  0  0
   -5.9203    1.9339    0.3286 C   0  0  0  0  0  0  0  0  0  0  0  0
   -2.4673   -2.9640    0.4962 C   0  0  0  0  0  0  0  0  0  0  0  0
    5.7114   -1.1565   -2.1200 C   0  0  0  0  0  0  0  0  0  0  0  0
    5.6690   -2.5594   -0.1536 C   0  0  0  0  0  0  0  0  0  0  0  0
   -6.9963    2.1443   -0.7366 C   0  0  0  0  0  0  0  0  0  0  0  0
   -3.0071   -3.8523    1.4263 C   0  0  0  0  0  0  0  0  0  0  0  0
   -3.3112   -2.1759   -0.2868 C   0  0  0  0  0  0  0  0  0  0  0  0
    7.1060   -1.1652   -2.0964 C   0  0  0  0  0  0  0  0  0  0  0  0
    7.0638   -2.5680   -0.1298 C   0  0  0  0  0  0  0  0  0  0  0  0
    7.7822   -1.8708   -1.1012 C   0  0  0  0  0  0  0  0  0  0  0  0
   -6.8196    1.2690   -1.9652 C   0  0  0  0  0  0  0  0  0  0  0  0
   -4.3906   -3.9529    1.5735 C   0  0  0  0  0  0  0  0  0  0  0  0
   -4.6946   -2.2765   -0.1395 C   0  0  0  0  0  0  0  0  0  0  0  0
   -5.2342   -3.1650    0.7907 C   0  0  0  0  0  0  0  0  0  0  0  0
  1 17  2  0
  2 18  2  0
  3 25  2  0
  4 26  2  0
  5 40  2  0
  6 11  1  0
  7 12  1  0
  7 15  1  0
  7 18  1  0
  8 17  1  0
  8 20  1  0
  9 19  1  0
  9 26  1  0
 10 23  1  0
 10 25  1  0
 11 40  1  0
 12 13  1  0
 12 17  1  0
 13 14  1  0
 14 16  1  0
 15 16  1  0
 18 19  1  0
 19 22  1  0
 20 21  1  0
 20 25  1  0
 21 24  1  0
 22 29  1  0
 23 26  1  0
 23 28  1  0
 24 27  1  0
 27 30  1  0
 28 31  1  0
 29 32  2  0
 29 33  1  0
 30 34  1  0
 31 35  2  0
 31 36  1  0
 32 37  1  0
 33 38  2  0
 34 40  1  0
 35 41  1  0
 36 42  2  0
 37 39  2  0
 38 39  1  0
 41 43  2  0
 42 43  1  0
M  END
>  <PUBCHEM_COMPOUND_CID>  (1) 
2850

>  <PUBCHEM_CONFORMER_RMSD>  (1) 
2

>  <PUBCHEM_CONFORMER_DIVERSEORDER>  (1) 
1
15
39
21
32
49
24
8
25
18
40
42
46
7
19
54
29
63
13
52
43
28
47
61
34
27
56
53
60
16
6
22
26
59
41
37
17
23
33
64
12
3
48
14
2
9
57
31
44
58
51
55
30
45
20
10
38
62
35
5
36
65
4
50
11

>  <PUBCHEM_MMFF94_PARTIAL_CHARGES>  (1) 
51
1 -0.57
10 -0.73
11 -0.39
12 0.36
15 0.3
17 0.57
18 0.57
19 0.36
2 -0.57
20 0.36
22 0.14
23 0.36
25 0.57
26 0.57
28 0.14
29 -0.14
3 -0.57
31 -0.14
32 -0.15
33 -0.15
34 0.06
35 -0.15
36 -0.15
37 -0.15
38 -0.15
39 -0.15
4 -0.57
40 0.57
41 -0.15
42 -0.15
43 -0.15
5 -0.57
55 0.37
6 -0.44
60 0.37
64 0.37
7 -0.66
71 0.15
72 0.15
75 0.15
76 0.15
77 0.15
78 0.15
79 0.15
8 -0.73
80 0.15
81 0.15
82 0.15
83 0.37
84 0.4
9 -0.73

>  <PUBCHEM_EFFECTIVE_ROTOR_COUNT>  (1) 
13

>  <PUBCHEM_PHARMACOPHORE_FEATURES>  (1) 
13
1 1 acceptor
1 10 donor
1 11 donor
1 2 acceptor
1 3 acceptor
1 4 acceptor
1 5 acceptor
1 8 donor
1 9 donor
5 21 24 27 30 34 hydrophobe
6 29 32 33 37 38 39 rings
6 31 35 36 41 42 43 rings
6 7 12 13 14 15 16 rings

>  <PUBCHEM_HEAVY_ATOM_COUNT>  (1) 
43

>  <PUBCHEM_ATOM_DEF_STEREO_COUNT>  (1) 
0

>  <PUBCHEM_ATOM_UDEF_STEREO_COUNT>  (1) 
4

>  <PUBCHEM_BOND_DEF_STEREO_COUNT>  (1) 
0

>  <PUBCHEM_BOND_UDEF_STEREO_COUNT>  (1) 
0

>  <PUBCHEM_ISOTOPIC_ATOM_COUNT>  (1) 
0

>  <PUBCHEM_COMPONENT_COUNT>  (1) 
1

>  <PUBCHEM_CACTVS_TAUTO_COUNT>  (1) 
24

>  <PUBCHEM_CONFORMER_ID>  (1) 
00000B2200000001

>  <PUBCHEM_MMFF94_ENERGY>  (1) 
111.5117

>  <PUBCHEM_FEATURE_SELFOVERLAP>  (1) 
65.984

>  <PUBCHEM_SHAPE_FINGERPRINT>  (1) 
10483366 6 18337952290663027447
10930396 42 18192133929886422824
12124843 1 18268970112974912469
13811026 1 18341891901086506514
14068700 675 18057886840841854904
15484559 13 17834950872326113005
15975801 100 17096076966553112269
16067689 391 18059299769059924583
17852330 162 18188222012863565484
20609170 92 18338517568394070092
20775438 99 18271791441745737711
2132832 1 18058189335419777522
21703447 108 18268156525472309834
23559900 14 18343023285429229048
23576562 1 18115040665864294668
249057 3 18338803320930866847
4394409 98 18342182128595579183
484989 97 18410019844756449955
5776283 40 18337108961281586185
6086070 43 18409169896303306850

>  <PUBCHEM_SHAPE_MULTIPOLES>  (1) 
824.8
19.03
5.85
2.49
6.98
0.73
0.57
-5.08
15.43
-0.62
-1.95
1.7
0.58
3.93

>  <PUBCHEM_SHAPE_SELFOVERLAP>  (1) 
1722.942

>  <PUBCHEM_SHAPE_VOLUME>  (1) 
459.1

>  <PUBCHEM_COORDINATE_TYPE>  (1) 
2
5
10

$$$$
