28509
     RDKit          3D

 20 22  0  0  1  0  0  0  0  0999 V2000
    1.5337    2.0870    1.2641 O   0  0  0  0  0  0  0  0  0  0  0  0
   -2.3374    2.6877   -0.3143 N   0  0  0  0  0  0  0  0  0  0  0  0
   -3.5040   -3.8874    0.3357 N   0  0  0  0  0  0  0  0  0  0  0  0
    0.8255    1.0686    0.5268 C   0  0  0  0  0  0  0  0  0  0  0  0
   -0.5603    1.4612    0.2003 C   0  0  0  0  0  0  0  0  0  0  0  0
   -1.6838    0.5942    0.0949 C   0  0  0  0  0  0  0  0  0  0  0  0
    1.6731    0.7594   -0.7337 C   0  0  0  0  0  0  0  0  0  0  0  0
   -2.7857    1.3889   -0.2289 C   0  0  0  0  0  0  0  0  0  0  0  0
   -0.9938    2.7414   -0.0567 C   0  0  0  0  0  0  0  0  0  0  0  0
    2.9325   -0.0185   -0.4321 C   0  0  0  0  0  0  0  0  0  0  0  0
   -1.8696   -0.7945    0.2442 C   0  0  0  0  0  0  0  0  0  0  0  0
   -4.0693    0.8620   -0.4114 C   0  0  0  0  0  0  0  0  0  0  0  0
   -3.1479   -1.3355    0.0646 C   0  0  0  0  0  0  0  0  0  0  0  0
   -4.2294   -0.5181   -0.2581 C   0  0  0  0  0  0  0  0  0  0  0  0
    4.1014    0.6678   -0.1453 C   0  0  0  0  0  0  0  0  0  0  0  0
    2.8948   -1.4033   -0.4482 C   0  0  0  0  0  0  0  0  0  0  0  0
    5.2643   -0.0506    0.1330 C   0  0  0  0  0  0  0  0  0  0  0  0
    4.0576   -2.1216   -0.1698 C   0  0  0  0  0  0  0  0  0  0  0  0
    5.2424   -1.4452    0.1209 C   0  0  0  0  0  0  0  0  0  0  0  0
   -3.3445   -2.7437    0.2142 C   0  0  0  0  0  0  0  0  0  0  0  0
  1  4  1  0
  2  8  1  0
  2  9  1  0
  3 20  3  0
  4  5  1  0
  4  7  1  0
  5  6  1  0
  5  9  2  0
  6  8  2  0
  6 11  1  0
  7 10  1  0
  8 12  1  0
 10 15  2  0
 10 16  1  0
 11 13  2  0
 12 14  2  0
 13 14  1  0
 13 20  1  0
 15 17  1  0
 16 18  2  0
 17 19  2  0
 18 19  1  0
M  END
>  <PUBCHEM_COMPOUND_CID>  (1) 
28509

>  <PUBCHEM_CONFORMER_RMSD>  (1) 
0.6

>  <PUBCHEM_CONFORMER_DIVERSEORDER>  (1) 
1
31
7
26
11
32
19
27
29
22
8
21
10
33
2
15
13
6
28
14
30
20
5
25
23
18
12
17
4
3
24
9
16

>  <PUBCHEM_MMFF94_PARTIAL_CHARGES>  (1) 
30
1 -0.68
10 -0.14
11 -0.15
12 -0.15
13 0.07
14 -0.15
15 -0.15
16 -0.15
17 -0.15
18 -0.15
19 -0.15
2 0.03
20 0.48
24 0.15
25 0.27
26 0.15
27 0.15
28 0.4
29 0.15
3 -0.56
30 0.15
31 0.15
32 0.15
33 0.15
34 0.15
4 0.46
5 -0.18
7 0.14
8 -0.15
9 -0.3

>  <PUBCHEM_EFFECTIVE_ROTOR_COUNT>  (1) 
3

>  <PUBCHEM_PHARMACOPHORE_FEATURES>  (1) 
8
1 1 acceptor
1 1 donor
1 2 cation
1 2 donor
1 3 acceptor
5 2 5 6 8 9 rings
6 10 15 16 17 18 19 rings
6 6 8 11 12 13 14 rings

>  <PUBCHEM_HEAVY_ATOM_COUNT>  (1) 
20

>  <PUBCHEM_ATOM_DEF_STEREO_COUNT>  (1) 
0

>  <PUBCHEM_ATOM_UDEF_STEREO_COUNT>  (1) 
1

>  <PUBCHEM_BOND_DEF_STEREO_COUNT>  (1) 
0

>  <PUBCHEM_BOND_UDEF_STEREO_COUNT>  (1) 
0

>  <PUBCHEM_ISOTOPIC_ATOM_COUNT>  (1) 
0

>  <PUBCHEM_COMPONENT_COUNT>  (1) 
1

>  <PUBCHEM_CACTVS_TAUTO_COUNT>  (1) 
1

>  <PUBCHEM_CONFORMER_ID>  (1) 
00006F5D00000001

>  <PUBCHEM_MMFF94_ENERGY>  (1) 
38.8681

>  <PUBCHEM_FEATURE_SELFOVERLAP>  (1) 
40.688

>  <PUBCHEM_SHAPE_FINGERPRINT>  (1) 
10616163 171 18411421683110920142
107951 10 17241614918891798691
11796584 16 18335979788177400538
12555020 224 18336818711491680095
12990986 174 18337390547041885611
13140716 1 18342745160542904793
13167823 11 18261393296057667434
13402501 40 18342458123425647551
13631057 29 18411703227133862638
13911882 115 17988650675339890598
14251764 30 17607261023940007547
14790565 3 17836088862556039529
14863182 85 16821653544817077349
14866123 147 18340492180161826499
15042514 8 18408329895626988635
15196674 1 18411138004973884806
15352361 1 18410856611290602223
15422964 175 18050561043735968789
17492 89 18409452479593037342
19141452 34 18337397049901712677
20261772 1 17703784834501420846
20281475 54 18340212971989149841
20403669 9 18343025501395366671
20626108 58 18186791501022446920
221490 88 18340206401058276720
23402539 116 18339636742297711925
23557571 272 18201724994620211548
23559900 14 18411129256120734816
26918003 58 18270113509998223436
3004659 81 18261111838308337742
335352 9 18410573986122265805
3421961 26 17979640357537738427
4214541 1 18337954468074393940
4921388 177 16805898363091938315
5104073 3 18271523109653783376
5309563 4 18050011287754269675
559249 180 17971188132297299802
633830 44 16153721877409797036
6433294 58 18339641140354921506
67856867 119 18188212104474506412
9709674 26 18270123392396413430

>  <PUBCHEM_SHAPE_MULTIPOLES>  (1) 
395.76
10.74
3.39
0.76
8.99
1.8
-0.04
5.85
0.5
-3.46
-0.36
0.14
-0.15
0.66

>  <PUBCHEM_SHAPE_SELFOVERLAP>  (1) 
869.783

>  <PUBCHEM_SHAPE_VOLUME>  (1) 
212.7

>  <PUBCHEM_COORDINATE_TYPE>  (1) 
2
5
10

$$$$
