2851
     RDKit          3D

 42 44  0  0  1  0  0  0  0  0999 V2000
    4.1592   -0.3399    2.5873 O   0  0  0  0  0  0  0  0  0  0  0  0
    2.5613   -2.9438   -2.3432 O   0  0  0  0  0  0  0  0  0  0  0  0
    2.9759    2.4614   -1.6242 O   0  0  0  0  0  0  0  0  0  0  0  0
    0.1970   -0.3462   -2.8021 O   0  0  0  0  0  0  0  0  0  0  0  0
   -5.4872    3.1771   -0.4295 O   0  0  0  0  0  0  0  0  0  0  0  0
   -7.6870   -0.8554    1.0269 O   0  0  0  0  0  0  0  0  0  0  0  0
   -9.0605   -2.9682    0.0481 O   0  0  0  0  0  0  0  0  0  0  0  0
    4.1354   -1.6739    0.6949 N   0  0  0  0  0  0  0  0  0  0  0  0
    2.7151    1.0719    0.2136 N   0  0  0  0  0  0  0  0  0  0  0  0
    1.6299   -1.9410   -0.4824 N   0  0  0  0  0  0  0  0  0  0  0  0
    0.2353    0.5275   -0.6505 N   0  0  0  0  0  0  0  0  0  0  0  0
   -7.7265   -3.0933    0.4581 N   0  0  0  0  0  0  0  0  0  0  0  0
    4.0657   -1.8902   -0.7649 C   0  0  0  0  0  0  0  0  0  0  0  0
    5.2035   -2.8141   -1.2258 C   0  0  0  0  0  0  0  0  0  0  0  0
    4.1635   -2.9037    1.4999 C   0  0  0  0  0  0  0  0  0  0  0  0
    5.2516   -4.1112   -0.4196 C   0  0  0  0  0  0  0  0  0  0  0  0
    5.3101   -3.8150    1.0758 C   0  0  0  0  0  0  0  0  0  0  0  0
    4.1215    0.8439    0.5088 C   0  0  0  0  0  0  0  0  0  0  0  0
    4.1637   -0.4349    1.3538 C   0  0  0  0  0  0  0  0  0  0  0  0
    4.6970    2.0345    1.2738 C   0  0  0  0  0  0  0  0  0  0  0  0
    2.6913   -2.3770   -1.2579 C   0  0  0  0  0  0  0  0  0  0  0  0
    0.2533   -1.8913   -0.9616 C   0  0  0  0  0  0  0  0  0  0  0  0
    5.1221    3.1837    0.3421 C   0  0  0  0  0  0  0  0  0  0  0  0
    3.6694    2.5468    2.2866 C   0  0  0  0  0  0  0  0  0  0  0  0
   -0.7518   -2.1616    0.1438 C   0  0  0  0  0  0  0  0  0  0  0  0
    0.7299    1.8532   -0.9924 C   0  0  0  0  0  0  0  0  0  0  0  0
    2.2569    1.8036   -0.8728 C   0  0  0  0  0  0  0  0  0  0  0  0
    0.1735   -0.5004   -1.5813 C   0  0  0  0  0  0  0  0  0  0  0  0
   -2.1889   -1.9795   -0.3492 C   0  0  0  0  0  0  0  0  0  0  0  0
    5.6993    4.3833    1.0801 C   0  0  0  0  0  0  0  0  0  0  0  0
    0.1523    2.9109   -0.0668 C   0  0  0  0  0  0  0  0  0  0  0  0
   -3.2429   -2.2531    0.7281 C   0  0  0  0  0  0  0  0  0  0  0  0
   -4.6764   -1.9873    0.2561 C   0  0  0  0  0  0  0  0  0  0  0  0
   -1.3496    2.9823   -0.1636 C   0  0  0  0  0  0  0  0  0  0  0  0
   -5.7011   -2.1980    1.3708 C   0  0  0  0  0  0  0  0  0  0  0  0
   -1.9498    3.8372   -1.0881 C   0  0  0  0  0  0  0  0  0  0  0  0
   -2.1401    2.1928    0.6717 C   0  0  0  0  0  0  0  0  0  0  0  0
   -7.1355   -1.9490    0.9377 C   0  0  0  0  0  0  0  0  0  0  0  0
   -3.3402    3.9027   -1.1773 C   0  0  0  0  0  0  0  0  0  0  0  0
   -3.5305    2.2584    0.5825 C   0  0  0  0  0  0  0  0  0  0  0  0
   -4.1306    3.1134   -0.3419 C   0  0  0  0  0  0  0  0  0  0  0  0
   -6.2349    2.3431    0.4544 C   0  0  0  0  0  0  0  0  0  0  0  0
  1 19  2  0
  2 21  2  0
  3 27  2  0
  4 28  2  0
  5 41  1  0
  5 42  1  0
  6 38  2  0
  7 12  1  0
  8 13  1  0
  8 15  1  0
  8 19  1  0
  9 18  1  0
  9 27  1  0
 10 21  1  0
 10 22  1  0
 11 26  1  0
 11 28  1  0
 12 38  1  0
 13 14  1  0
 13 21  1  0
 14 16  1  0
 15 17  1  0
 16 17  1  0
 18 19  1  0
 18 20  1  0
 20 23  1  0
 20 24  1  0
 22 25  1  0
 22 28  1  0
 23 30  1  0
 25 29  1  0
 26 27  1  0
 26 31  1  0
 29 32  1  0
 31 34  1  0
 32 33  1  0
 33 35  1  0
 34 36  2  0
 34 37  1  0
 35 38  1  0
 36 39  1  0
 37 40  2  0
 39 41  2  0
 40 41  1  0
M  END
>  <PUBCHEM_COMPOUND_CID>  (1) 
2851

>  <PUBCHEM_CONFORMER_RMSD>  (1) 
1.8

>  <PUBCHEM_CONFORMER_DIVERSEORDER>  (1) 
1
50
13
103
73
29
83
44
26
49
68
97
78
5
76
22
46
82
61
20
64
95
47
33
31
72
102
54
75
71
65
74
88
86
90
58
38
66
62
104
3
45
67
28
93
2
51
84
98
36
40
27
24
14
56
96
101
60
32
16
92
43
34
15
69
11
91
39
23
94
41
81
59
18
55
99
77
17
80
89
7
21
63
25
79
52
100
30
12
42
37
4
85
87
35
57
53
70
8
6
48
9
19
10

>  <PUBCHEM_MMFF94_PARTIAL_CHARGES>  (1) 
40
1 -0.57
10 -0.73
11 -0.73
12 -0.39
13 0.36
15 0.3
18 0.36
19 0.57
2 -0.57
21 0.57
22 0.36
26 0.36
27 0.57
28 0.57
3 -0.57
31 0.14
34 -0.14
35 0.06
36 -0.15
37 -0.15
38 0.57
39 -0.15
4 -0.57
40 -0.15
41 0.08
42 0.28
5 -0.36
57 0.37
58 0.37
6 -0.57
67 0.37
7 -0.44
79 0.15
8 -0.66
80 0.15
81 0.15
82 0.15
83 0.37
87 0.4
9 -0.73

>  <PUBCHEM_EFFECTIVE_ROTOR_COUNT>  (1) 
14

>  <PUBCHEM_PHARMACOPHORE_FEATURES>  (1) 
15
1 1 acceptor
1 10 donor
1 11 donor
1 12 donor
1 2 acceptor
1 24 hydrophobe
1 3 acceptor
1 30 hydrophobe
1 4 acceptor
1 5 acceptor
1 6 acceptor
1 9 donor
5 25 29 32 33 35 hydrophobe
6 34 36 37 39 40 41 rings
6 8 13 14 15 16 17 rings

>  <PUBCHEM_HEAVY_ATOM_COUNT>  (1) 
42

>  <PUBCHEM_ATOM_DEF_STEREO_COUNT>  (1) 
0

>  <PUBCHEM_ATOM_UDEF_STEREO_COUNT>  (1) 
5

>  <PUBCHEM_BOND_DEF_STEREO_COUNT>  (1) 
0

>  <PUBCHEM_BOND_UDEF_STEREO_COUNT>  (1) 
0

>  <PUBCHEM_ISOTOPIC_ATOM_COUNT>  (1) 
0

>  <PUBCHEM_COMPONENT_COUNT>  (1) 
1

>  <PUBCHEM_CACTVS_TAUTO_COUNT>  (1) 
24

>  <PUBCHEM_CONFORMER_ID>  (1) 
00000B2300000001

>  <PUBCHEM_MMFF94_ENERGY>  (1) 
116.3142

>  <PUBCHEM_FEATURE_SELFOVERLAP>  (1) 
76.136

>  <PUBCHEM_SHAPE_FINGERPRINT>  (1) 
10190108 129 18266740367196266376
10439779 11 18198352934692526721
10939801 23 18121217846611946209
11028528 32 18041558032365168211
12422481 6 18130787841669842151
13383668 362 18338502094117026544
1361 4 18408604769070680049
14040221 97 18042116733831120804
14040222 383 18048888386209197521
15001296 14 18261382309088602873
15064986 96 17988921116630065486
15274700 208 16986867093683073576
15336146 87 18409739455915952190
15420108 30 17843400945424271182
15968369 153 18272084994618955709
19301679 30 18335698381846541107
22311459 1 18121785186401245405
373842 8 18409449194100473423
9896288 288 18124300869628108664

>  <PUBCHEM_SHAPE_MULTIPOLES>  (1) 
798.35
18.14
6.9
1.83
30.96
1.8
0.13
-11.17
-7.45
-1.26
0.03
-1.86
-0.18
3.58

>  <PUBCHEM_SHAPE_SELFOVERLAP>  (1) 
1636.766

>  <PUBCHEM_SHAPE_VOLUME>  (1) 
453.3

>  <PUBCHEM_COORDINATE_TYPE>  (1) 
2
5
10

$$$$
