28511
     RDKit          3D

 16 17  0  0  0  0  0  0  0  0999 V2000
   -3.9843    0.7087   -0.0392 N   0  0  0  0  0  0  0  0  0  0  0  0
    0.6887   -2.8223   -0.1093 N   0  0  0  0  0  0  0  0  0  0  0  0
    3.3466    3.3362    0.0480 N   0  0  0  0  0  0  0  0  0  0  0  0
   -1.9658   -0.4814    0.7884 C   0  0  0  0  0  0  0  0  0  0  0  0
   -0.7286   -1.1970    0.4164 C   0  0  0  0  0  0  0  0  0  0  0  0
    0.5518   -0.6166    0.1959 C   0  0  0  0  0  0  0  0  0  0  0  0
   -2.7830   -0.0201   -0.4323 C   0  0  0  0  0  0  0  0  0  0  0  0
    1.4227   -1.6578   -0.1324 C   0  0  0  0  0  0  0  0  0  0  0  0
   -0.6124   -2.5540    0.2212 C   0  0  0  0  0  0  0  0  0  0  0  0
    1.0551    0.6986    0.2444 C   0  0  0  0  0  0  0  0  0  0  0  0
    2.7772   -1.4487   -0.4157 C   0  0  0  0  0  0  0  0  0  0  0  0
    2.4077    0.9229   -0.0368 C   0  0  0  0  0  0  0  0  0  0  0  0
   -4.7144    1.1723   -1.2200 C   0  0  0  0  0  0  0  0  0  0  0  0
   -3.6408    1.8405    0.8228 C   0  0  0  0  0  0  0  0  0  0  0  0
    3.2537   -0.1358   -0.3615 C   0  0  0  0  0  0  0  0  0  0  0  0
    2.9258    2.2545    0.0100 C   0  0  0  0  0  0  0  0  0  0  0  0
  1  7  1  0
  1 13  1  0
  1 14  1  0
  2  8  1  0
  2  9  1  0
  3 16  3  0
  4  5  1  0
  4  7  1  0
  5  6  1  0
  5  9  2  0
  6  8  2  0
  6 10  1  0
  8 11  1  0
 10 12  2  0
 11 15  2  0
 12 15  1  0
 12 16  1  0
M  END
>  <PUBCHEM_COMPOUND_CID>  (1) 
28511

>  <PUBCHEM_CONFORMER_RMSD>  (1) 
0.6

>  <PUBCHEM_CONFORMER_DIVERSEORDER>  (1) 
1
8
3
9
7
2
4
10
6
5

>  <PUBCHEM_MMFF94_PARTIAL_CHARGES>  (1) 
20
1 -0.81
10 -0.15
11 -0.15
12 0.07
13 0.27
14 0.27
15 -0.15
16 0.48
2 0.03
21 0.15
22 0.27
23 0.15
24 0.15
3 -0.56
31 0.15
4 0.18
5 -0.18
7 0.27
8 -0.15
9 -0.3

>  <PUBCHEM_EFFECTIVE_ROTOR_COUNT>  (1) 
3

>  <PUBCHEM_PHARMACOPHORE_FEATURES>  (1) 
6
1 1 cation
1 2 cation
1 2 donor
1 3 acceptor
5 2 5 6 8 9 rings
6 6 8 10 11 12 15 rings

>  <PUBCHEM_HEAVY_ATOM_COUNT>  (1) 
16

>  <PUBCHEM_ATOM_DEF_STEREO_COUNT>  (1) 
0

>  <PUBCHEM_ATOM_UDEF_STEREO_COUNT>  (1) 
0

>  <PUBCHEM_BOND_DEF_STEREO_COUNT>  (1) 
0

>  <PUBCHEM_BOND_UDEF_STEREO_COUNT>  (1) 
0

>  <PUBCHEM_ISOTOPIC_ATOM_COUNT>  (1) 
0

>  <PUBCHEM_COMPONENT_COUNT>  (1) 
1

>  <PUBCHEM_CACTVS_TAUTO_COUNT>  (1) 
1

>  <PUBCHEM_CONFORMER_ID>  (1) 
00006F5F00000001

>  <PUBCHEM_MMFF94_ENERGY>  (1) 
26.2278

>  <PUBCHEM_FEATURE_SELFOVERLAP>  (1) 
30.537

>  <PUBCHEM_SHAPE_FINGERPRINT>  (1) 
10608611 8 18337396048915571178
11471102 20 18337953368172285111
12654215 9 18335424504592961406
12730499 353 18261679173655580851
13134695 92 18047466725430643183
13583140 156 17603583049574068193
14123255 52 18337951298066698069
14250199 8 18268708321152907565
14508225 48 16255878980267865382
15279308 100 18337402637838553950
16945 1 18341629096190661450
17134986 127 18410290324136828142
1741750 31 18267304420539233232
18186145 218 18343030973093686387
20510252 161 18052545657517927795
20621476 13 18408879625118094485
21499 59 18410851088320946493
21524375 3 18334012787418415603
21639500 275 18337666408854555903
22892500 29 18335699386504573351
231179 274 17822851974943353879
23402655 69 18270396084259604885
23558518 356 17971192766356593810
23559900 14 18201165434028697148
25 1 18336834082636533907
2748010 2 18195544781436504442
3060560 45 18269834229106723550
3071541 12 18339930320312615402
43658 37 18339072787289963101
474 4 18410853248552560705
6327066 14 18118394270629037373
633830 44 18201450146756920205
7832392 63 17621043062458778145
84936 182 18201998832707441384
9981440 41 18122895693092214482

>  <PUBCHEM_SHAPE_MULTIPOLES>  (1) 
314.33
7.48
3.18
0.84
7.15
0.66
0.06
5.88
1.54
-2.49
-0.15
0.68
0.12
0.34

>  <PUBCHEM_SHAPE_SELFOVERLAP>  (1) 
667.339

>  <PUBCHEM_SHAPE_VOLUME>  (1) 
176.9

>  <PUBCHEM_COORDINATE_TYPE>  (1) 
2
5
10

$$$$
