28529
     RDKit          3D

 14 14  0  0  0  0  0  0  0  0999 V2000
   -3.8029   -2.0129   -0.0908 Cl  0  0  0  0  0  0  0  0  0  0  0  0
    0.7332    0.1294    0.7622 O   0  0  0  0  0  0  0  0  0  0  0  0
    4.0056   -0.3212   -0.6297 O   0  0  0  0  0  0  0  0  0  0  0  0
    3.2289   -0.2334    1.4933 O   0  0  0  0  0  0  0  0  0  0  0  0
    1.6305   -0.0469   -0.3345 C   0  0  0  0  0  0  0  0  0  0  0  0
    1.5600    1.2020   -1.2081 C   0  0  0  0  0  0  0  0  0  0  0  0
    1.2141   -1.3066   -1.0881 C   0  0  0  0  0  0  0  0  0  0  0  0
    3.0115   -0.2072    0.2877 C   0  0  0  0  0  0  0  0  0  0  0  0
   -0.5879    0.2964    0.4507 C   0  0  0  0  0  0  0  0  0  0  0  0
   -1.4200   -0.8146    0.3512 C   0  0  0  0  0  0  0  0  0  0  0  0
   -1.0907    1.5761    0.2359 C   0  0  0  0  0  0  0  0  0  0  0  0
   -2.7677   -0.6442    0.0339 C   0  0  0  0  0  0  0  0  0  0  0  0
   -2.4381    1.7466   -0.0814 C   0  0  0  0  0  0  0  0  0  0  0  0
   -3.2766    0.6365   -0.1823 C   0  0  0  0  0  0  0  0  0  0  0  0
  1 12  1  0
  2  5  1  0
  2  9  1  0
  3  8  1  0
  4  8  2  0
  5  6  1  0
  5  7  1  0
  5  8  1  0
  9 10  2  0
  9 11  1  0
 10 12  1  0
 11 13  2  0
 12 14  2  0
 13 14  1  0
M  END
>  <PUBCHEM_COMPOUND_CID>  (1) 
28529

>  <PUBCHEM_CONFORMER_RMSD>  (1) 
0.6

>  <PUBCHEM_CONFORMER_DIVERSEORDER>  (1) 
1
19
15
18
23
11
10
7
3
22
12
21
17
20
16
5
4
14
9
8
13
6
2

>  <PUBCHEM_MMFF94_PARTIAL_CHARGES>  (1) 
17
1 -0.18
10 -0.15
11 -0.15
12 0.18
13 -0.15
14 -0.15
2 -0.36
21 0.15
22 0.15
23 0.15
24 0.15
25 0.5
3 -0.65
4 -0.57
5 0.34
8 0.66
9 0.08

>  <PUBCHEM_EFFECTIVE_ROTOR_COUNT>  (1) 
3

>  <PUBCHEM_PHARMACOPHORE_FEATURES>  (1) 
6
1 2 acceptor
1 3 acceptor
1 4 acceptor
3 3 4 8 anion
3 5 6 7 hydrophobe
6 9 10 11 12 13 14 rings

>  <PUBCHEM_HEAVY_ATOM_COUNT>  (1) 
14

>  <PUBCHEM_ATOM_DEF_STEREO_COUNT>  (1) 
0

>  <PUBCHEM_ATOM_UDEF_STEREO_COUNT>  (1) 
0

>  <PUBCHEM_BOND_DEF_STEREO_COUNT>  (1) 
0

>  <PUBCHEM_BOND_UDEF_STEREO_COUNT>  (1) 
0

>  <PUBCHEM_ISOTOPIC_ATOM_COUNT>  (1) 
0

>  <PUBCHEM_COMPONENT_COUNT>  (1) 
1

>  <PUBCHEM_CACTVS_TAUTO_COUNT>  (1) 
1

>  <PUBCHEM_CONFORMER_ID>  (1) 
00006F7100000001

>  <PUBCHEM_MMFF94_ENERGY>  (1) 
48.657

>  <PUBCHEM_FEATURE_SELFOVERLAP>  (1) 
30.517

>  <PUBCHEM_SHAPE_FINGERPRINT>  (1) 
124424 183 11746929906299178136
12500047 106 18197777704557590037
12932764 1 17530966860553170236
13296908 3 17704073984078013838
13581323 91 18411135848494087779
14144814 61 17749109967630373336
14993402 34 17749112188371194806
15219456 202 17918272013254077386
15775835 57 17240769440982723669
15852999 172 18127682738901641567
16945 1 18339369552276420469
18175812 5 17988639683906325108
18186145 218 17240482550199783231
19026448 5 17822008696743122674
20201158 50 18130507448708359503
20279233 1 17846498110744086047
20281407 28 18273218607701460147
20645477 56 18339645517121638561
20871998 184 18202282515761201751
21061003 4 17203610410566680601
21501502 16 18336273439275807413
23402539 116 18335132103182338263
23419403 2 17902474354883279309
23557571 272 18201727232203058293
23559900 14 18199746956264436398
2748010 2 18129111030334130711
57812782 119 18201432562939036760
6333449 129 18343581807245071985
74978 22 17240775011549927824
77492 1 17675924270230223400

>  <PUBCHEM_SHAPE_MULTIPOLES>  (1) 
272.38
6.5
1.72
1.02
1.1
0.05
0.01
-1.95
0.09
-1.7
-0.25
0.78
-0.03
-0.08

>  <PUBCHEM_SHAPE_SELFOVERLAP>  (1) 
557.59

>  <PUBCHEM_SHAPE_VOLUME>  (1) 
158.5

>  <PUBCHEM_COORDINATE_TYPE>  (1) 
2
5
10

$$$$
