28528
     RDKit          3D

 16 17  0  0  0  0  0  0  0  0999 V2000
   -2.1297   -1.5054   -0.9267 O   0  0  0  0  0  0  0  0  0  0  0  0
   -3.4885    0.1549    0.9988 O   0  0  0  0  0  0  0  0  0  0  0  0
    2.7189   -0.3137   -0.3197 N   0  0  0  0  0  0  0  0  0  0  0  0
    3.7389   -2.2822    0.3512 N   0  0  0  0  0  0  0  0  0  0  0  0
    4.7095   -0.3329    1.0246 N   0  0  0  0  0  0  0  0  0  0  0  0
    0.2103    1.2602   -0.5460 C   0  0  0  0  0  0  0  0  0  0  0  0
    1.5297    1.6855   -1.0965 C   0  0  0  0  0  0  0  0  0  0  0  0
   -1.6105   -0.3230   -0.4677 C   0  0  0  0  0  0  0  0  0  0  0  0
   -2.2640    0.4760    0.4738 C   0  0  0  0  0  0  0  0  0  0  0  0
   -0.3798    0.0762   -0.9893 C   0  0  0  0  0  0  0  0  0  0  0  0
   -0.4297    2.0444    0.4142 C   0  0  0  0  0  0  0  0  0  0  0  0
   -3.1900   -1.9817   -0.0934 C   0  0  0  0  0  0  0  0  0  0  0  0
   -4.1503   -0.8538    0.2306 C   0  0  0  0  0  0  0  0  0  0  0  0
   -1.6669    1.6528    0.9263 C   0  0  0  0  0  0  0  0  0  0  0  0
    2.7267    1.1516   -0.3011 C   0  0  0  0  0  0  0  0  0  0  0  0
    3.6754   -0.9089    0.3208 C   0  0  0  0  0  0  0  0  0  0  0  0
  1  8  1  0
  1 12  1  0
  2  9  1  0
  2 13  1  0
  3 15  1  0
  3 16  2  3
  4 16  1  0
  5 16  1  0
  6  7  1  0
  6 10  2  0
  6 11  1  0
  7 15  1  0
  8  9  2  0
  8 10  1  0
  9 14  1  0
 11 14  2  0
 12 13  1  0
M  END
>  <PUBCHEM_COMPOUND_CID>  (1) 
28528

>  <PUBCHEM_CONFORMER_RMSD>  (1) 
0.6

>  <PUBCHEM_CONFORMER_DIVERSEORDER>  (1) 
1
8
38
21
39
31
15
7
30
5
10
3
19
27
40
24
18
22
17
20
4
35
6
29
33
23
37
36
26
9
13
2
11
34
28
16
32
14
12
25

>  <PUBCHEM_MMFF94_PARTIAL_CHARGES>  (1) 
23
1 -0.36
10 -0.15
11 -0.15
12 0.28
13 0.28
14 -0.15
15 0.25
16 0.55
19 0.15
2 -0.36
20 0.15
25 0.15
28 0.4
29 0.4
3 -0.7
30 0.4
31 0.4
4 -0.85
5 -0.85
6 -0.14
7 0.14
8 0.08
9 0.08

>  <PUBCHEM_EFFECTIVE_ROTOR_COUNT>  (1) 
3.8

>  <PUBCHEM_PHARMACOPHORE_FEATURES>  (1) 
7
1 1 acceptor
1 2 acceptor
1 4 donor
1 5 donor
4 3 4 5 16 cation
6 1 2 8 9 12 13 rings
6 6 8 9 10 11 14 rings

>  <PUBCHEM_HEAVY_ATOM_COUNT>  (1) 
16

>  <PUBCHEM_ATOM_DEF_STEREO_COUNT>  (1) 
0

>  <PUBCHEM_ATOM_UDEF_STEREO_COUNT>  (1) 
0

>  <PUBCHEM_BOND_DEF_STEREO_COUNT>  (1) 
0

>  <PUBCHEM_BOND_UDEF_STEREO_COUNT>  (1) 
0

>  <PUBCHEM_ISOTOPIC_ATOM_COUNT>  (1) 
0

>  <PUBCHEM_COMPONENT_COUNT>  (1) 
1

>  <PUBCHEM_CACTVS_TAUTO_COUNT>  (1) 
2

>  <PUBCHEM_CONFORMER_ID>  (1) 
00006F7000000001

>  <PUBCHEM_MMFF94_ENERGY>  (1) 
49.7915

>  <PUBCHEM_FEATURE_SELFOVERLAP>  (1) 
35.618

>  <PUBCHEM_SHAPE_FINGERPRINT>  (1) 
10062212 137 18342741853613421455
10465860 71 13623531281052887927
11132069 177 17917438613773974205
11578080 2 18263625394372167533
11769659 78 18335985354138459533
12251169 10 18272933812852134180
12553582 1 18408045108903503846
12633257 1 16415189100943103370
14123260 362 10807928306103422738
15375462 189 18268721686611117201
15375462 478 18344146981580089708
16945 1 17844835713862107541
17780758 139 18126270953693571042
17977361 122 18410289216114659875
1813 80 17822583728513381686
18186145 218 13767923550464700133
20291156 8 18408323263728128026
20361792 2 17531250526390534948
20645477 70 17895188964898565102
20671657 53 17167856465764120708
20871999 31 12035745235675113633
21650355 55 18272650129967133305
22079108 93 12535346831167705071
22445834 79 18410862053198607164
2255824 54 18045230581252826076
22646028 28 18333731321131535010
23402539 116 18201995496419971029
23419403 2 14688576535561755389
23463225 33 18340494447050022853
23559900 14 18340198682891665880
24859131 72 18201721712816694183
2748010 2 17697352567104318309
4072396 5 17988934362176759295
58807428 26 17984160170740205785
7097593 13 18268998600627770328
90316 7 18272099266236546193

>  <PUBCHEM_SHAPE_MULTIPOLES>  (1) 
302.59
7.83
2.23
1.03
4.25
0.25
0.03
4.88
-2.18
0.36
-0.07
0.03
-0.17
-1.05

>  <PUBCHEM_SHAPE_SELFOVERLAP>  (1) 
636.989

>  <PUBCHEM_SHAPE_VOLUME>  (1) 
167.8

>  <PUBCHEM_COORDINATE_TYPE>  (1) 
2
5
10

$$$$
