28524
     RDKit          3D

 16 15  0  0  0  0  0  0  0  0999 V2000
    3.3960   -1.0561   -1.7471 Cl  0  0  0  0  0  0  0  0  0  0  0  0
    4.0688   -1.2594    1.0680 Cl  0  0  0  0  0  0  0  0  0  0  0  0
    1.3919   -1.9930    0.1310 Cl  0  0  0  0  0  0  0  0  0  0  0  0
   -2.3407   -1.2725   -1.6680 Cl  0  0  0  0  0  0  0  0  0  0  0  0
   -3.4418   -1.9816    0.9212 Cl  0  0  0  0  0  0  0  0  0  0  0  0
   -4.4055    0.3952   -0.4947 Cl  0  0  0  0  0  0  0  0  0  0  0  0
    2.7701    1.2707    1.0104 O   0  0  0  0  0  0  0  0  0  0  0  0
   -1.5046   -0.0408    1.6778 O   0  0  0  0  0  0  0  0  0  0  0  0
    1.2822    0.9298   -0.7240 N   0  0  0  0  0  0  0  0  0  0  0  0
   -1.5203    1.2921   -0.2074 N   0  0  0  0  0  0  0  0  0  0  0  0
    0.6828    2.2427   -0.6910 C   0  0  0  0  0  0  0  0  0  0  0  0
   -0.5111    2.2364    0.2552 C   0  0  0  0  0  0  0  0  0  0  0  0
    2.2958    0.5380    0.1427 C   0  0  0  0  0  0  0  0  0  0  0  0
   -1.9378    0.2170    0.5550 C   0  0  0  0  0  0  0  0  0  0  0  0
    2.7692   -0.8904   -0.0877 C   0  0  0  0  0  0  0  0  0  0  0  0
   -2.9951   -0.6280   -0.1415 C   0  0  0  0  0  0  0  0  0  0  0  0
  1 15  1  0
  2 15  1  0
  3 15  1  0
  4 16  1  0
  5 16  1  0
  6 16  1  0
  7 13  2  0
  8 14  2  0
  9 11  1  0
  9 13  1  0
 10 12  1  0
 10 14  1  0
 11 12  1  0
 13 15  1  0
 14 16  1  0
M  END
>  <PUBCHEM_COMPOUND_CID>  (1) 
28524

>  <PUBCHEM_CONFORMER_RMSD>  (1) 
0.8

>  <PUBCHEM_CONFORMER_DIVERSEORDER>  (1) 
2
5
21
13
12
14
8
3
20
9
22
17
4
16
19
18
11
10
1
7
6
15

>  <PUBCHEM_MMFF94_PARTIAL_CHARGES>  (1) 
18
1 -0.29
10 -0.73
11 0.3
12 0.3
13 0.57
14 0.57
15 0.93
16 0.93
2 -0.29
21 0.37
22 0.37
3 -0.29
4 -0.29
5 -0.29
6 -0.29
7 -0.57
8 -0.57
9 -0.73

>  <PUBCHEM_EFFECTIVE_ROTOR_COUNT>  (1) 
7

>  <PUBCHEM_PHARMACOPHORE_FEATURES>  (1) 
4
1 10 donor
1 7 acceptor
1 8 acceptor
1 9 donor

>  <PUBCHEM_HEAVY_ATOM_COUNT>  (1) 
16

>  <PUBCHEM_ATOM_DEF_STEREO_COUNT>  (1) 
0

>  <PUBCHEM_ATOM_UDEF_STEREO_COUNT>  (1) 
0

>  <PUBCHEM_BOND_DEF_STEREO_COUNT>  (1) 
0

>  <PUBCHEM_BOND_UDEF_STEREO_COUNT>  (1) 
0

>  <PUBCHEM_ISOTOPIC_ATOM_COUNT>  (1) 
0

>  <PUBCHEM_COMPONENT_COUNT>  (1) 
1

>  <PUBCHEM_CACTVS_TAUTO_COUNT>  (1) 
3

>  <PUBCHEM_CONFORMER_ID>  (1) 
00006F6C00000002

>  <PUBCHEM_MMFF94_ENERGY>  (1) 
18.5341

>  <PUBCHEM_FEATURE_SELFOVERLAP>  (1) 
20.3

>  <PUBCHEM_SHAPE_FINGERPRINT>  (1) 
10618630 7 18407760343522999105
11132069 177 17775558741185079278
12363563 72 18334297565177198866
12553582 1 18263941967804672648
12596599 1 18130518495254059631
13296908 3 18408886273742396267
14251705 54 18263932205502719227
17834072 14 18336817662891918561
18186145 218 17240753017391670013
19766037 51 18188508933114703054
20201158 50 18259703389202886619
20291156 8 18412549824805789135
20442098 301 18060698381661119182
20645477 70 18272085037088444269
20671657 53 18113337518010520068
23402539 116 18335410253997072498
23557571 272 18199180698917035770
23559900 14 18335129891506646680
3286 77 17895471548256750687
81228 2 18116152177457173865

>  <PUBCHEM_SHAPE_MULTIPOLES>  (1) 
318.79
7.67
2.42
1.44
0.69
0.6
0.28
-3.35
-0.05
-0.05
-0.05
-0.29
-0.48
0.24

>  <PUBCHEM_SHAPE_SELFOVERLAP>  (1) 
568.17

>  <PUBCHEM_SHAPE_VOLUME>  (1) 
206.9

>  <PUBCHEM_COORDINATE_TYPE>  (1) 
2
5
10

$$$$
