28537
     RDKit          3D

  9  8  0  0  1  0  0  0  0  0999 V2000
   -0.7761   -2.4389   -0.0485 O   0  0  0  0  0  0  0  0  0  0  0  0
    3.7512    0.9742    0.1787 O   0  0  0  0  0  0  0  0  0  0  0  0
   -1.9482   -0.3568   -0.1377 C   0  0  0  0  0  0  0  0  0  0  0  0
   -0.6614   -1.0608    0.3106 C   0  0  0  0  0  0  0  0  0  0  0  0
   -1.9948    1.1226    0.2475 C   0  0  0  0  0  0  0  0  0  0  0  0
   -3.3208    1.7561   -0.1441 C   0  0  0  0  0  0  0  0  0  0  0  0
    0.5685   -0.4999   -0.3476 C   0  0  0  0  0  0  0  0  0  0  0  0
    1.6097   -0.0136    0.3391 C   0  0  0  0  0  0  0  0  0  0  0  0
    2.7719    0.5170   -0.3982 C   0  0  0  0  0  0  0  0  0  0  0  0
  1  4  1  0
  2  9  2  0
  3  4  1  0
  3  5  1  0
  4  7  1  0
  5  6  1  0
  7  8  2  0
  8  9  1  0
M  END
>  <PUBCHEM_COMPOUND_CID>  (1) 
28537

>  <PUBCHEM_CONFORMER_RMSD>  (1) 
0.6

>  <PUBCHEM_CONFORMER_DIVERSEORDER>  (1) 
1
15
16
13
18
6
9
19
3
7
2
5
10
12
17
14
8
11
4

>  <PUBCHEM_MMFF94_PARTIAL_CHARGES>  (1) 
10
1 -0.68
18 0.15
19 0.4
2 -0.57
20 0.15
21 0.06
4 0.42
7 -0.29
8 -0.14
9 0.5

>  <PUBCHEM_EFFECTIVE_ROTOR_COUNT>  (1) 
4

>  <PUBCHEM_PHARMACOPHORE_FEATURES>  (1) 
4
1 1 acceptor
1 1 donor
1 2 acceptor
1 6 hydrophobe

>  <PUBCHEM_HEAVY_ATOM_COUNT>  (1) 
9

>  <PUBCHEM_ATOM_DEF_STEREO_COUNT>  (1) 
0

>  <PUBCHEM_ATOM_UDEF_STEREO_COUNT>  (1) 
0

>  <PUBCHEM_BOND_DEF_STEREO_COUNT>  (1) 
0

>  <PUBCHEM_BOND_UDEF_STEREO_COUNT>  (1) 
1

>  <PUBCHEM_ISOTOPIC_ATOM_COUNT>  (1) 
0

>  <PUBCHEM_COMPONENT_COUNT>  (1) 
1

>  <PUBCHEM_CACTVS_TAUTO_COUNT>  (1) 
1

>  <PUBCHEM_CONFORMER_ID>  (1) 
00006F7900000001

>  <PUBCHEM_MMFF94_ENERGY>  (1) 
3.9253

>  <PUBCHEM_FEATURE_SELFOVERLAP>  (1) 
20.297

>  <PUBCHEM_SHAPE_FINGERPRINT>  (1) 
100427 49 17331124308792718151
10149128 76 18338235938576633205
12932764 1 17702950378242993350
14325111 11 18410575054598307845
14390081 3 18413671309491474072
15775835 57 18334294236451236161
170605 34 18263927635862802745
18342897 96 18343577430620585197
20645477 56 18341055211097309344
20653085 51 18338809939322476282
20828058 34 18343025462587608408
21028194 46 18335428911155281217
21040471 1 18410856542507666011
21499 59 18337664214310988101
21524375 3 18336823096220596795
23235685 24 18411696552348652165
23402539 116 18269263720358793503
305870 269 18261954029227897267

>  <PUBCHEM_SHAPE_MULTIPOLES>  (1) 
173.48
5.38
1.89
0.67
2
0.83
0.01
-4.1
0.12
-1.04
0.01
0.03
-0.02
0.04

>  <PUBCHEM_SHAPE_SELFOVERLAP>  (1) 
316.947

>  <PUBCHEM_SHAPE_VOLUME>  (1) 
110.3

>  <PUBCHEM_COORDINATE_TYPE>  (1) 
2
5
10

$$$$
