28535
     RDKit          3D

 14 14  0  0  0  0  0  0  0  0999 V2000
    2.2463   -0.0668    0.8509 O   0  0  0  0  0  0  0  0  0  0  0  0
    2.6855   -0.5473   -1.3977 O   0  0  0  0  0  0  0  0  0  0  0  0
   -2.4819   -0.6911   -0.0171 N   0  0  0  0  0  0  0  0  0  0  0  0
   -1.2467    0.2106    0.0469 C   0  0  0  0  0  0  0  0  0  0  0  0
   -3.0237   -0.6805   -1.4437 C   0  0  0  0  0  0  0  0  0  0  0  0
   -3.5255   -0.1646    0.9641 C   0  0  0  0  0  0  0  0  0  0  0  0
   -2.1620   -2.1361    0.3597 C   0  0  0  0  0  0  0  0  0  0  0  0
   -0.0822   -0.3706    0.4228 C   0  0  0  0  0  0  0  0  0  0  0  0
   -1.4219    1.5140   -0.2780 C   0  0  0  0  0  0  0  0  0  0  0  0
    1.0434    0.4512    0.4809 C   0  0  0  0  0  0  0  0  0  0  0  0
   -0.2964    2.3357   -0.2199 C   0  0  0  0  0  0  0  0  0  0  0  0
    0.9362    1.8044    0.1594 C   0  0  0  0  0  0  0  0  0  0  0  0
    3.0141   -0.5560   -0.2187 C   0  0  0  0  0  0  0  0  0  0  0  0
    4.3148   -1.1029    0.2902 C   0  0  0  0  0  0  0  0  0  0  0  0
  1 10  1  0
  1 13  1  0
  2 13  2  0
  3  4  1  0
  3  5  1  0
  3  6  1  0
  3  7  1  0
  4  8  2  0
  4  9  1  0
  8 10  1  0
  9 11  2  0
 10 12  2  0
 11 12  1  0
 13 14  1  0
M  CHG  1   3   1
M  END
>  <PUBCHEM_COMPOUND_CID>  (1) 
28535

>  <PUBCHEM_CONFORMER_RMSD>  (1) 
0.6

>  <PUBCHEM_CONFORMER_DIVERSEORDER>  (1) 
1
18
15
14
10
11
17
9
3
16
7
12
19
13
4
5
2
8
6

>  <PUBCHEM_MMFF94_PARTIAL_CHARGES>  (1) 
18
1 -0.23
10 0.08
11 -0.15
12 -0.15
13 0.66
14 0.06
2 -0.57
24 0.15
25 0.15
26 0.15
27 0.15
3 -0.87
4 0.36
5 0.5
6 0.5
7 0.5
8 -0.15
9 -0.15

>  <PUBCHEM_EFFECTIVE_ROTOR_COUNT>  (1) 
3

>  <PUBCHEM_PHARMACOPHORE_FEATURES>  (1) 
3
1 2 acceptor
1 3 cation
6 4 8 9 10 11 12 rings

>  <PUBCHEM_HEAVY_ATOM_COUNT>  (1) 
14

>  <PUBCHEM_ATOM_DEF_STEREO_COUNT>  (1) 
0

>  <PUBCHEM_ATOM_UDEF_STEREO_COUNT>  (1) 
0

>  <PUBCHEM_BOND_DEF_STEREO_COUNT>  (1) 
0

>  <PUBCHEM_BOND_UDEF_STEREO_COUNT>  (1) 
0

>  <PUBCHEM_ISOTOPIC_ATOM_COUNT>  (1) 
0

>  <PUBCHEM_COMPONENT_COUNT>  (1) 
1

>  <PUBCHEM_CACTVS_TAUTO_COUNT>  (1) 
1

>  <PUBCHEM_CONFORMER_ID>  (1) 
00006F7700000001

>  <PUBCHEM_MMFF94_ENERGY>  (1) 
59.8699

>  <PUBCHEM_FEATURE_SELFOVERLAP>  (1) 
15.223

>  <PUBCHEM_SHAPE_FINGERPRINT>  (1) 
10353120 184 18260270750172266297
11127187 94 18186516614045819095
11206711 2 18188197719995606997
11543360 7 15357985589476229482
11769659 78 17917704742621624087
12032990 46 18335142015961556723
12553582 1 18408882927841904434
12932764 1 17458896150033111155
13296908 3 18262516017340616499
14115302 16 17894631460974309151
14911166 2 18261943094752663343
16752209 62 18116976828662979241
16945 1 18334285474944467937
17990270 104 18120934177022108275
18186145 218 16660646249970368864
19141452 34 17989207023458877863
20281407 28 18272371958025657058
20281475 54 18411140268189528226
20361792 2 18410572907178080485
20645477 70 17976527631751492775
20653085 51 14418140603584481078
20711985 344 18264756675888141353
20871998 184 18271243798760373036
20871998 22 18337952406073198161
20871999 31 18335413526450831461
22213442 358 18338516447301629880
22721475 48 18343587347457504254
23402539 116 18336259051377666646
23557571 272 18272095942443158972
23559900 14 18267011766590806746
2748010 2 18045774847934420427
449060 23 18343301465780972870
5902787 121 18335418032024414682
7364860 26 18054791951104697384
74978 22 18337107998818651459
81228 2 18267870492802250336
83771 10 18342177760787015408

>  <PUBCHEM_SHAPE_MULTIPOLES>  (1) 
271.39
6.13
2
1.03
3.49
0.69
-0.26
-3.51
-0.16
-0.47
0
-0.32
-0.19
0.08

>  <PUBCHEM_SHAPE_SELFOVERLAP>  (1) 
553.367

>  <PUBCHEM_SHAPE_VOLUME>  (1) 
159.2

>  <PUBCHEM_COORDINATE_TYPE>  (1) 
2
5
10

$$$$
