28533
     RDKit          3D

  9  8  0  0  1  0  0  0  0  0999 V2000
    0.2088    1.0603    1.1732 F   0  0  0  0  0  0  0  0  0  0  0  0
   -0.3085    1.2766   -0.9327 F   0  0  0  0  0  0  0  0  0  0  0  0
   -2.3274    0.2676    0.5102 F   0  0  0  0  0  0  0  0  0  0  0  0
   -1.5186   -1.1856   -0.8943 F   0  0  0  0  0  0  0  0  0  0  0  0
    2.3023    0.5381   -0.5039 O   0  0  0  0  0  0  0  0  0  0  0  0
    1.2396   -0.4025   -0.3418 C   0  0  0  0  0  0  0  0  0  0  0  0
   -0.0279    0.3610    0.0300 C   0  0  0  0  0  0  0  0  0  0  0  0
   -1.2464   -0.5058    0.2490 C   0  0  0  0  0  0  0  0  0  0  0  0
    1.6780   -1.4098    0.7103 C   0  0  0  0  0  0  0  0  0  0  0  0
  1  7  1  0
  2  7  1  0
  3  8  1  0
  4  8  1  0
  5  6  1  0
  6  7  1  0
  6  9  1  0
  7  8  1  0
M  END
>  <PUBCHEM_COMPOUND_CID>  (1) 
28533

>  <PUBCHEM_CONFORMER_RMSD>  (1) 
0.4

>  <PUBCHEM_CONFORMER_DIVERSEORDER>  (1) 
1
7
9
2
10
12
8
13
11
3
5
6
4
14

>  <PUBCHEM_MMFF94_PARTIAL_CHARGES>  (1) 
9
1 -0.34
15 0.4
2 -0.34
3 -0.34
4 -0.34
5 -0.68
6 0.28
7 0.68
8 0.68

>  <PUBCHEM_EFFECTIVE_ROTOR_COUNT>  (1) 
2

>  <PUBCHEM_PHARMACOPHORE_FEATURES>  (1) 
2
1 5 acceptor
1 5 donor

>  <PUBCHEM_HEAVY_ATOM_COUNT>  (1) 
9

>  <PUBCHEM_ATOM_DEF_STEREO_COUNT>  (1) 
0

>  <PUBCHEM_ATOM_UDEF_STEREO_COUNT>  (1) 
1

>  <PUBCHEM_BOND_DEF_STEREO_COUNT>  (1) 
0

>  <PUBCHEM_BOND_UDEF_STEREO_COUNT>  (1) 
0

>  <PUBCHEM_ISOTOPIC_ATOM_COUNT>  (1) 
0

>  <PUBCHEM_COMPONENT_COUNT>  (1) 
1

>  <PUBCHEM_CACTVS_TAUTO_COUNT>  (1) 
1

>  <PUBCHEM_CONFORMER_ID>  (1) 
00006F7500000001

>  <PUBCHEM_MMFF94_ENERGY>  (1) 
5.3895

>  <PUBCHEM_FEATURE_SELFOVERLAP>  (1) 
10.148

>  <PUBCHEM_SHAPE_FINGERPRINT>  (1) 
137420 1 13427794151018096549
18185500 45 18410575101932943718
21040471 1 17702673129086684731
23552333 60 18335708195709246722
23552423 10 17968381139167536482
24536 1 17313372401351478734
29004967 10 17749122105018008752
5943 1 12044257516941799480

>  <PUBCHEM_SHAPE_MULTIPOLES>  (1) 
150.25
2.57
1.29
0.95
0.02
0.09
0.07
0.43
0
-0.26
-0.04
0.08
-0.05
-0.31

>  <PUBCHEM_SHAPE_SELFOVERLAP>  (1) 
289.422

>  <PUBCHEM_SHAPE_VOLUME>  (1) 
92.1

>  <PUBCHEM_COORDINATE_TYPE>  (1) 
2
5
10

$$$$
