2853
     RDKit          3D

 37 39  0  0  1  0  0  0  0  0999 V2000
    0.3510    0.0445    2.8060 O   0  0  0  0  0  0  0  0  0  0  0  0
    2.1214    1.3684   -2.3742 O   0  0  0  0  0  0  0  0  0  0  0  0
    0.0550   -3.0468    1.9528 O   0  0  0  0  0  0  0  0  0  0  0  0
    3.4458   -2.7680    0.2667 O   0  0  0  0  0  0  0  0  0  0  0  0
   -9.4299    0.2486    0.4526 O   0  0  0  0  0  0  0  0  0  0  0  0
   -9.6983    2.7748   -0.4720 O   0  0  0  0  0  0  0  0  0  0  0  0
    1.1615    1.7408   -0.3190 N   0  0  0  0  0  0  0  0  0  0  0  0
   -0.5563   -0.1968    0.6911 N   0  0  0  0  0  0  0  0  0  0  0  0
    2.1497   -1.2282   -0.8872 N   0  0  0  0  0  0  0  0  0  0  0  0
    0.0665   -2.8432   -0.3676 N   0  0  0  0  0  0  0  0  0  0  0  0
   -8.6084    1.9757   -0.8419 N   0  0  0  0  0  0  0  0  0  0  0  0
    1.0453    1.6227    1.1377 C   0  0  0  0  0  0  0  0  0  0  0  0
    0.2965    2.8943    1.5531 C   0  0  0  0  0  0  0  0  0  0  0  0
   -0.5802    3.1995    0.3453 C   0  0  0  0  0  0  0  0  0  0  0  0
    0.3095    2.8133   -0.8225 C   0  0  0  0  0  0  0  0  0  0  0  0
    2.0640    1.1112   -1.1664 C   0  0  0  0  0  0  0  0  0  0  0  0
    0.2775    0.3926    1.6261 C   0  0  0  0  0  0  0  0  0  0  0  0
    2.9094   -0.0230   -0.5870 C   0  0  0  0  0  0  0  0  0  0  0  0
   -1.3589   -1.3822    0.9759 C   0  0  0  0  0  0  0  0  0  0  0  0
   -2.5510   -1.5063    0.0413 C   0  0  0  0  0  0  0  0  0  0  0  0
    1.3332   -3.5274   -0.6770 C   0  0  0  0  0  0  0  0  0  0  0  0
    4.2876   -0.0501   -1.2412 C   0  0  0  0  0  0  0  0  0  0  0  0
   -0.3755   -2.5460    0.9144 C   0  0  0  0  0  0  0  0  0  0  0  0
   -3.7207   -0.6392    0.5102 C   0  0  0  0  0  0  0  0  0  0  0  0
    2.4210   -2.4819   -0.3495 C   0  0  0  0  0  0  0  0  0  0  0  0
   -4.9449   -0.7206   -0.4068 C   0  0  0  0  0  0  0  0  0  0  0  0
    1.5314   -4.8250    0.1144 C   0  0  0  0  0  0  0  0  0  0  0  0
    1.3758   -3.8572   -2.1771 C   0  0  0  0  0  0  0  0  0  0  0  0
    5.2388    0.9046   -0.5726 C   0  0  0  0  0  0  0  0  0  0  0  0
   -6.1445    0.0809    0.1097 C   0  0  0  0  0  0  0  0  0  0  0  0
    5.3360    2.2216   -1.0221 C   0  0  0  0  0  0  0  0  0  0  0  0
    6.0233    0.4732    0.4971 C   0  0  0  0  0  0  0  0  0  0  0  0
   -7.3739   -0.0759   -0.7852 C   0  0  0  0  0  0  0  0  0  0  0  0
    6.2177    3.1069   -0.4023 C   0  0  0  0  0  0  0  0  0  0  0  0
    6.9050    1.3587    1.1170 C   0  0  0  0  0  0  0  0  0  0  0  0
    7.0021    2.6756    0.6674 C   0  0  0  0  0  0  0  0  0  0  0  0
   -8.5825    0.7101   -0.3071 C   0  0  0  0  0  0  0  0  0  0  0  0
  1 17  2  0
  2 16  2  0
  3 23  2  0
  4 25  2  0
  5 37  2  0
  6 11  1  0
  7 12  1  0
  7 15  1  0
  7 16  1  0
  8 17  1  0
  8 19  1  0
  9 18  1  0
  9 25  1  0
 10 21  1  0
 10 23  1  0
 11 37  1  0
 12 13  1  0
 12 17  1  0
 13 14  1  0
 14 15  1  0
 16 18  1  0
 18 22  1  0
 19 20  1  0
 19 23  1  0
 20 24  1  0
 21 25  1  0
 21 27  1  0
 21 28  1  0
 22 29  1  0
 24 26  1  0
 26 30  1  0
 29 31  2  0
 29 32  1  0
 30 33  1  0
 31 34  1  0
 32 35  2  0
 33 37  1  0
 34 36  2  0
 35 36  1  0
M  END
>  <PUBCHEM_COMPOUND_CID>  (1) 
2853

>  <PUBCHEM_CONFORMER_RMSD>  (1) 
1.6

>  <PUBCHEM_CONFORMER_DIVERSEORDER>  (1) 
1
62
36
15
138
71
59
107
79
48
82
122
21
123
28
90
50
29
67
35
119
9
129
106
114
14
133
20
115
124
120
94
101
66
140
135
81
86
68
125
43
34
30
55
126
83
72
3
27
116
98
33
65
38
91
131
77
41
42
47
78
23
89
121
110
118
127
8
52
25
88
49
18
97
12
95
69
39
117
93
136
19
134
16
87
61
22
137
60
63
96
2
113
128
102
24
111
53
80
130
46
103
17
108
76
56
32
4
104
57
11
75
51
54
45
132
37
70
7
73
44
6
58
40
31
100
139
109
64
26
92
84
10
112
105
5
99
74
85
13

>  <PUBCHEM_MMFF94_PARTIAL_CHARGES>  (1) 
39
1 -0.57
10 -0.73
11 -0.39
12 0.36
15 0.3
16 0.57
17 0.57
18 0.36
19 0.36
2 -0.57
21 0.36
22 0.14
23 0.57
25 0.57
29 -0.14
3 -0.57
31 -0.15
32 -0.15
33 0.06
34 -0.15
35 -0.15
36 -0.15
37 0.57
4 -0.57
47 0.37
5 -0.57
52 0.37
55 0.37
6 -0.44
66 0.15
67 0.15
7 -0.66
70 0.15
71 0.15
72 0.15
73 0.37
74 0.4
8 -0.73
9 -0.73

>  <PUBCHEM_EFFECTIVE_ROTOR_COUNT>  (1) 
10.8

>  <PUBCHEM_PHARMACOPHORE_FEATURES>  (1) 
13
1 1 acceptor
1 10 donor
1 11 donor
1 2 acceptor
1 3 acceptor
1 4 acceptor
1 5 acceptor
1 8 donor
1 9 donor
3 21 27 28 hydrophobe
5 20 24 26 30 33 hydrophobe
5 7 12 13 14 15 rings
6 29 31 32 34 35 36 rings

>  <PUBCHEM_HEAVY_ATOM_COUNT>  (1) 
37

>  <PUBCHEM_ATOM_DEF_STEREO_COUNT>  (1) 
0

>  <PUBCHEM_ATOM_UDEF_STEREO_COUNT>  (1) 
3

>  <PUBCHEM_BOND_DEF_STEREO_COUNT>  (1) 
0

>  <PUBCHEM_BOND_UDEF_STEREO_COUNT>  (1) 
0

>  <PUBCHEM_ISOTOPIC_ATOM_COUNT>  (1) 
0

>  <PUBCHEM_COMPONENT_COUNT>  (1) 
1

>  <PUBCHEM_CACTVS_TAUTO_COUNT>  (1) 
24

>  <PUBCHEM_CONFORMER_ID>  (1) 
00000B2500000001

>  <PUBCHEM_MMFF94_ENERGY>  (1) 
104.4754

>  <PUBCHEM_FEATURE_SELFOVERLAP>  (1) 
65.982

>  <PUBCHEM_SHAPE_FINGERPRINT>  (1) 
10006869 2 18411414008653072102
10673678 19 18410017641264504327
10675989 125 18263932037999235083
10930396 42 17983550161453108760
11135609 187 18411982494302133265
14117953 113 18410863179118388196
15183329 4 17561084671315544489
15444296 9 18040429979882553693
15484559 13 18130791139957813327
16991971 28 10663823005237824761
20554085 129 18272362109660509642
20587220 17 18270959038645326261
20715895 44 18261116313374103500
21133410 38 17987257559420154009
21298829 104 18412546518292900941
335507 130 18338237176709246287
5171179 24 18055931909436694718
563151 248 13984660395012922185
6004065 56 17987237913738795833

>  <PUBCHEM_SHAPE_MULTIPOLES>  (1) 
701.32
20.78
5.15
1.66
53.78
4.39
0.25
-21.49
-3.72
-3.32
-0.53
-0.94
0.18
1.03

>  <PUBCHEM_SHAPE_SELFOVERLAP>  (1) 
1450.082

>  <PUBCHEM_SHAPE_VOLUME>  (1) 
397.6

>  <PUBCHEM_COORDINATE_TYPE>  (1) 
2
5
10

$$$$
