28545
     RDKit          3D

 13 13  0  0  0  0  0  0  0  0999 V2000
   -0.1939    2.0671    0.0886 O   0  0  0  0  0  0  0  0  0  0  0  0
   -3.2719   -1.5595    0.4746 O   0  0  0  0  0  0  0  0  0  0  0  0
   -1.0740   -0.0461   -0.2637 N   0  0  0  0  0  0  0  0  0  0  0  0
   -2.3639    0.4229   -0.3251 N   0  0  0  0  0  0  0  0  0  0  0  0
    1.3661   -1.0475   -0.1982 N   0  0  0  0  0  0  0  0  0  0  0  0
    1.3205    0.2772   -0.0181 C   0  0  0  0  0  0  0  0  0  0  0  0
   -0.0482    0.8554   -0.0523 C   0  0  0  0  0  0  0  0  0  0  0  0
    2.3880    1.1095    0.1870 C   0  0  0  0  0  0  0  0  0  0  0  0
    3.6460    0.5175    0.2107 C   0  0  0  0  0  0  0  0  0  0  0  0
    3.7653   -0.8562    0.0302 C   0  0  0  0  0  0  0  0  0  0  0  0
   -3.3949   -0.4069    0.0650 C   0  0  0  0  0  0  0  0  0  0  0  0
    2.6053   -1.5872   -0.1687 C   0  0  0  0  0  0  0  0  0  0  0  0
   -4.7442    0.2538   -0.0299 C   0  0  0  0  0  0  0  0  0  0  0  0
  1  7  2  0
  2 11  2  0
  3  4  1  0
  3  7  1  0
  4 11  1  0
  5  6  2  0
  5 12  1  0
  6  7  1  0
  6  8  1  0
  8  9  2  0
  9 10  1  0
 10 12  2  0
 11 13  1  0
M  END
>  <PUBCHEM_COMPOUND_CID>  (1) 
28545

>  <PUBCHEM_CONFORMER_RMSD>  (1) 
0.6

>  <PUBCHEM_CONFORMER_DIVERSEORDER>  (1) 
1
6
7
4
5
2
3

>  <PUBCHEM_MMFF94_PARTIAL_CHARGES>  (1) 
19
1 -0.57
10 -0.15
11 0.57
12 0.16
13 0.06
14 0.15
15 0.37
16 0.37
17 0.15
18 0.15
19 0.15
2 -0.57
3 -0.43
4 -0.43
5 -0.62
6 0.4
7 0.54
8 -0.15
9 -0.15

>  <PUBCHEM_EFFECTIVE_ROTOR_COUNT>  (1) 
4

>  <PUBCHEM_PHARMACOPHORE_FEATURES>  (1) 
6
1 1 acceptor
1 2 acceptor
1 3 donor
1 4 donor
1 5 acceptor
6 5 6 8 9 10 12 rings

>  <PUBCHEM_HEAVY_ATOM_COUNT>  (1) 
13

>  <PUBCHEM_ATOM_DEF_STEREO_COUNT>  (1) 
0

>  <PUBCHEM_ATOM_UDEF_STEREO_COUNT>  (1) 
0

>  <PUBCHEM_BOND_DEF_STEREO_COUNT>  (1) 
0

>  <PUBCHEM_BOND_UDEF_STEREO_COUNT>  (1) 
0

>  <PUBCHEM_ISOTOPIC_ATOM_COUNT>  (1) 
0

>  <PUBCHEM_COMPONENT_COUNT>  (1) 
1

>  <PUBCHEM_CACTVS_TAUTO_COUNT>  (1) 
4

>  <PUBCHEM_CONFORMER_ID>  (1) 
00006F8100000001

>  <PUBCHEM_MMFF94_ENERGY>  (1) 
27.594

>  <PUBCHEM_FEATURE_SELFOVERLAP>  (1) 
31.982

>  <PUBCHEM_SHAPE_FINGERPRINT>  (1) 
10219947 1 18202565094085428493
11471102 20 18412541020175469340
12032990 46 18410577283865767038
12932764 1 17346305012228804476
13296908 3 18409165506614296655
14251717 144 18413106173315381062
14252887 29 18131080324167976926
14350558 41 18334300863664544524
15375358 24 18409445886569720475
17834072 33 18201714102783342775
17834074 16 18407760343765715715
18186145 218 17530677723428448573
19107657 46 18410575106301907039
200 152 17988916791381122967
20201158 50 18335140890506240155
20279233 1 18334577949501351955
20281407 28 18407763637878862305
20645477 70 18342172233201451303
20871998 22 18129106628034713870
21501925 9 18411694370636835920
22485316 2 18409727370072990727
23402539 116 15430028847029290054
23402655 69 18412543206187164093
23557571 272 17313096428259783332
25610 137 18411138034954435204
26918003 58 18409162203631510858
2871803 45 18334854970233051294
33824 294 18410009927344946106
4047638 21 8646765608251520332
581208 293 18412541041866473114
8809292 202 18259989292338703187

>  <PUBCHEM_SHAPE_MULTIPOLES>  (1) 
240.85
8.25
1.57
0.62
6.55
0.04
-0.01
-1.75
-0.43
-0.49
-0.07
0.01
-0.02
0.32

>  <PUBCHEM_SHAPE_SELFOVERLAP>  (1) 
496.266

>  <PUBCHEM_SHAPE_VOLUME>  (1) 
136.8

>  <PUBCHEM_COORDINATE_TYPE>  (1) 
2
5
10

$$$$
