28544
     RDKit          3D

 10 10  0  0  1  0  0  0  0  0999 V2000
    3.0297    0.2813    0.0451 O   0  0  0  0  0  0  0  0  0  0  0  0
   -1.0989   -0.4600   -0.0212 C   0  0  0  0  0  0  0  0  0  0  0  0
   -0.5197    0.9275    0.4030 C   0  0  0  0  0  0  0  0  0  0  0  0
    0.8377    1.2028   -0.2569 C   0  0  0  0  0  0  0  0  0  0  0  0
   -0.0222   -1.5260    0.0928 C   0  0  0  0  0  0  0  0  0  0  0  0
   -1.6249   -0.4740   -1.4685 C   0  0  0  0  0  0  0  0  0  0  0  0
   -2.2565   -0.8511    0.9215 C   0  0  0  0  0  0  0  0  0  0  0  0
   -1.4570    2.1134    0.1488 C   0  0  0  0  0  0  0  0  0  0  0  0
    1.8170    0.0822    0.0026 C   0  0  0  0  0  0  0  0  0  0  0  0
    1.2948   -1.2960    0.1328 C   0  0  0  0  0  0  0  0  0  0  0  0
  1  9  2  0
  2  3  1  0
  2  5  1  0
  2  6  1  0
  2  7  1  0
  3  4  1  0
  3  8  1  0
  4  9  1  0
  5 10  2  0
  9 10  1  0
M  END
>  <PUBCHEM_COMPOUND_CID>  (1) 
28544

>  <PUBCHEM_CONFORMER_RMSD>  (1) 
0.4

>  <PUBCHEM_CONFORMER_DIVERSEORDER>  (1) 
1
2
4
3

>  <PUBCHEM_MMFF94_PARTIAL_CHARGES>  (1) 
8
1 -0.57
10 -0.14
14 0.15
2 0.14
24 0.15
4 0.06
5 -0.29
9 0.49

>  <PUBCHEM_EFFECTIVE_ROTOR_COUNT>  (1) 
0.6

>  <PUBCHEM_PHARMACOPHORE_FEATURES>  (1) 
3
1 1 acceptor
3 2 6 7 hydrophobe
6 2 3 4 5 9 10 rings

>  <PUBCHEM_HEAVY_ATOM_COUNT>  (1) 
10

>  <PUBCHEM_ATOM_DEF_STEREO_COUNT>  (1) 
0

>  <PUBCHEM_ATOM_UDEF_STEREO_COUNT>  (1) 
1

>  <PUBCHEM_BOND_DEF_STEREO_COUNT>  (1) 
0

>  <PUBCHEM_BOND_UDEF_STEREO_COUNT>  (1) 
0

>  <PUBCHEM_ISOTOPIC_ATOM_COUNT>  (1) 
0

>  <PUBCHEM_COMPONENT_COUNT>  (1) 
1

>  <PUBCHEM_CACTVS_TAUTO_COUNT>  (1) 
2

>  <PUBCHEM_CONFORMER_ID>  (1) 
00006F8000000001

>  <PUBCHEM_MMFF94_ENERGY>  (1) 
20.3554

>  <PUBCHEM_FEATURE_SELFOVERLAP>  (1) 
15.223

>  <PUBCHEM_SHAPE_FINGERPRINT>  (1) 
12423570 1 9047262117030674095
13024252 1 12540690427133922444
137420 1 14158031994197513679
16945 1 18411416249892524198
18185500 45 18270114759148001886
21040471 1 18050009895946702880
23235685 24 18336264630102275730
23552423 10 18189061906212744270
2748010 2 18267027154588144614
29004967 10 18334581286268870075
369184 2 17775282785415027418
5084963 1 17989202685346489578
528886 8 18411696625373444571
53812653 217 18202276962051827599
68250623 7 17981601577117710039

>  <PUBCHEM_SHAPE_MULTIPOLES>  (1) 
199.93
3.03
1.84
0.95
1.42
0.55
-0.24
0
0.17
-0.52
0.14
-0.56
-0.17
-0.05

>  <PUBCHEM_SHAPE_SELFOVERLAP>  (1) 
399.353

>  <PUBCHEM_SHAPE_VOLUME>  (1) 
119.1

>  <PUBCHEM_COORDINATE_TYPE>  (1) 
2
5
10

$$$$
