28541
     RDKit          3D

 10  9  0  0  0  0  0  0  0  0999 V2000
   -3.6078   -0.3599    0.1675 O   0  0  0  0  0  0  0  0  0  0  0  0
    1.3335   -1.3393    0.6761 O   0  0  0  0  0  0  0  0  0  0  0  0
    2.6347    0.4106   -0.3636 C   0  0  0  0  0  0  0  0  0  0  0  0
    0.0411    0.4227   -0.3417 C   0  0  0  0  0  0  0  0  0  0  0  0
   -1.2144   -0.3367    0.0763 C   0  0  0  0  0  0  0  0  0  0  0  0
    1.3346   -0.2858    0.0388 C   0  0  0  0  0  0  0  0  0  0  0  0
   -2.4956    0.4259   -0.2402 C   0  0  0  0  0  0  0  0  0  0  0  0
    3.7282   -0.6067   -0.6807 C   0  0  0  0  0  0  0  0  0  0  0  0
    3.0829    1.3584    0.7428 C   0  0  0  0  0  0  0  0  0  0  0  0
   -4.8370    0.3106   -0.0753 C   0  0  0  0  0  0  0  0  0  0  0  0
  1  7  1  0
  1 10  1  0
  2  6  2  0
  3  6  1  0
  3  8  1  0
  3  9  1  0
  4  5  1  0
  4  6  1  0
  5  7  1  0
M  END
>  <PUBCHEM_COMPOUND_CID>  (1) 
28541

>  <PUBCHEM_CONFORMER_RMSD>  (1) 
0.6

>  <PUBCHEM_CONFORMER_DIVERSEORDER>  (1) 
1
77
31
130
23
100
116
102
124
44
89
49
2
108
101
107
24
83
13
17
74
20
5
80
36
43
90
109
57
26
68
67
47
22
99
103
98
9
91
58
54
111
123
66
21
11
70
46
120
51
63
105
126
14
106
125
94
131
29
112
19
28
18
122
3
84
42
115
52
95
8
60
55
35
119
92
53
121
25
37
97
114
96
7
87
127
45
75
4
34
6
16
50
10
27
82
79
12
33
117
113
30
110
38
59
85
39
48
76
61
32
73
64
69
56
104
86
65
71
62
88
15
129
72
40
128
81
78
93
41
118

>  <PUBCHEM_MMFF94_PARTIAL_CHARGES>  (1) 
7
1 -0.56
10 0.28
2 -0.57
3 0.06
4 0.06
6 0.45
7 0.28

>  <PUBCHEM_EFFECTIVE_ROTOR_COUNT>  (1) 
5

>  <PUBCHEM_PHARMACOPHORE_FEATURES>  (1) 
3
1 1 acceptor
1 2 acceptor
3 3 8 9 hydrophobe

>  <PUBCHEM_HEAVY_ATOM_COUNT>  (1) 
10

>  <PUBCHEM_ATOM_DEF_STEREO_COUNT>  (1) 
0

>  <PUBCHEM_ATOM_UDEF_STEREO_COUNT>  (1) 
0

>  <PUBCHEM_BOND_DEF_STEREO_COUNT>  (1) 
0

>  <PUBCHEM_BOND_UDEF_STEREO_COUNT>  (1) 
0

>  <PUBCHEM_ISOTOPIC_ATOM_COUNT>  (1) 
0

>  <PUBCHEM_COMPONENT_COUNT>  (1) 
1

>  <PUBCHEM_CACTVS_TAUTO_COUNT>  (1) 
3

>  <PUBCHEM_CONFORMER_ID>  (1) 
00006F7D00000001

>  <PUBCHEM_MMFF94_ENERGY>  (1) 
11.9724

>  <PUBCHEM_FEATURE_SELFOVERLAP>  (1) 
15.223

>  <PUBCHEM_SHAPE_FINGERPRINT>  (1) 
11062470 55 14418136222802228575
12932764 1 18337941333842473543
14123238 8 9511456715147397007
14325111 11 18342175591633352095
170605 34 18342454876451041864
17834072 33 17703784873198064349
17834076 25 17530969072920023205
18186145 218 18410290307046506229
190213 19 17989207053370395081
20645477 70 17988927742830725670
20719005 15 18408042914111872775
23402655 69 18272652337627588253

>  <PUBCHEM_SHAPE_MULTIPOLES>  (1) 
194.06
8.42
1.07
0.77
7.97
0.11
-0.01
0.77
0.49
-0.91
-0.19
-0.35
-0.01
0.37

>  <PUBCHEM_SHAPE_SELFOVERLAP>  (1) 
351.915

>  <PUBCHEM_SHAPE_VOLUME>  (1) 
125.8

>  <PUBCHEM_COORDINATE_TYPE>  (1) 
2
5
10

$$$$
