28547
     RDKit          3D

 15 15  0  0  0  0  0  0  0  0999 V2000
   -2.3594    0.5691   -0.8031 S   0  0  0  0  0  0  0  0  0  0  0  0
    3.0823   -1.4078   -0.7685 O   0  0  0  0  0  0  0  0  0  0  0  0
   -4.1552   -0.1050    1.0174 O   0  0  0  0  0  0  0  0  0  0  0  0
    2.0257    1.8847    0.3932 N   0  0  0  0  0  0  0  0  0  0  0  0
    0.3995   -2.8533    0.8494 N   0  0  0  0  0  0  0  0  0  0  0  0
    0.9235   -0.6406   -0.0781 C   0  0  0  0  0  0  0  0  0  0  0  0
    0.1218    0.3946    0.3902 C   0  0  0  0  0  0  0  0  0  0  0  0
    2.2755   -0.4146   -0.3109 C   0  0  0  0  0  0  0  0  0  0  0  0
    0.3373   -1.9922   -0.3313 C   0  0  0  0  0  0  0  0  0  0  0  0
   -1.3323    0.2099    0.6551 C   0  0  0  0  0  0  0  0  0  0  0  0
    2.7732    0.8543   -0.0617 C   0  0  0  0  0  0  0  0  0  0  0  0
    0.7159    1.6272    0.6080 C   0  0  0  0  0  0  0  0  0  0  0  0
    4.2188    1.1507   -0.2945 C   0  0  0  0  0  0  0  0  0  0  0  0
   -3.9590    0.2544   -0.1371 C   0  0  0  0  0  0  0  0  0  0  0  0
   -5.0676    0.4687   -1.1283 C   0  0  0  0  0  0  0  0  0  0  0  0
  1 10  1  0
  1 14  1  0
  2  8  1  0
  3 14  2  0
  4 11  2  0
  4 12  1  0
  5  9  1  0
  6  7  1  0
  6  8  2  0
  6  9  1  0
  7 10  1  0
  7 12  2  0
  8 11  1  0
 11 13  1  0
 14 15  1  0
M  END
>  <PUBCHEM_COMPOUND_CID>  (1) 
28547

>  <PUBCHEM_CONFORMER_RMSD>  (1) 
0.6

>  <PUBCHEM_CONFORMER_DIVERSEORDER>  (1) 
2
13
43
41
17
44
42
14
18
36
30
33
29
38
34
35
4
9
37
3
5
11
50
48
8
49
12
10
47
25
40
39
26
31
46
45
6
1
22
21
32
7
23
24
20
19
27
28
16
15

>  <PUBCHEM_MMFF94_PARTIAL_CHARGES>  (1) 
19
1 -0.37
10 0.37
11 0.17
12 0.16
13 0.14
14 0.65
15 0.06
2 -0.53
20 0.15
24 0.36
25 0.36
26 0.45
3 -0.57
4 -0.62
5 -0.99
6 -0.14
7 -0.14
8 0.08
9 0.41

>  <PUBCHEM_EFFECTIVE_ROTOR_COUNT>  (1) 
4

>  <PUBCHEM_PHARMACOPHORE_FEATURES>  (1) 
5
1 2 donor
1 4 acceptor
1 5 cation
1 5 donor
6 4 6 7 8 11 12 rings

>  <PUBCHEM_HEAVY_ATOM_COUNT>  (1) 
15

>  <PUBCHEM_ATOM_DEF_STEREO_COUNT>  (1) 
0

>  <PUBCHEM_ATOM_UDEF_STEREO_COUNT>  (1) 
0

>  <PUBCHEM_BOND_DEF_STEREO_COUNT>  (1) 
0

>  <PUBCHEM_BOND_UDEF_STEREO_COUNT>  (1) 
0

>  <PUBCHEM_ISOTOPIC_ATOM_COUNT>  (1) 
0

>  <PUBCHEM_COMPONENT_COUNT>  (1) 
1

>  <PUBCHEM_CACTVS_TAUTO_COUNT>  (1) 
3

>  <PUBCHEM_CONFORMER_ID>  (1) 
00006F8300000002

>  <PUBCHEM_MMFF94_ENERGY>  (1) 
32.9349

>  <PUBCHEM_FEATURE_SELFOVERLAP>  (1) 
25.371

>  <PUBCHEM_SHAPE_FINGERPRINT>  (1) 
11471102 20 18413386523205748093
12119455 92 18041271140679750780
12236239 1 17275390906431888553
12730499 353 18260830367921987027
13380535 76 18342178907939000214
14251717 144 18342173349850295183
14576447 43 17775276205599087269
14911166 2 18343310296851236924
15375358 24 17894907413387760229
15757776 16 18341891836113461735
15775835 57 18412824715639618845
16945 1 18271257109449650656
18186145 218 18342744030708003965
19422 9 17561083596940665909
200 152 18060133233243773577
20279233 1 18040434382978275241
20645477 70 18270955748663434215
21730867 7 18408882932326476765
23402539 116 17168136871272784709
23402655 69 18272084981412417037
23557571 272 16950859011738860423
23596394 208 18262222323656598831
25 1 18413107277126991077
257057 1 17397535412274363698
2748010 2 17767973391507767696
2871803 45 18411416168515083597
3060560 45 18410004438186298847
4072396 5 18264189375327638640
543358 83 18125721193394739601
58051976 378 18412262856560703621
77492 1 17275111617535386041
81228 2 17471276822539190067
81539 233 18187079542360795479
8272917 22 18200877245796569991

>  <PUBCHEM_SHAPE_MULTIPOLES>  (1) 
290.84
7.98
2.04
0.96
7.86
1.31
-0.01
-2.48
-1.99
-1.57
0.33
0.58
0.05
0.42

>  <PUBCHEM_SHAPE_SELFOVERLAP>  (1) 
581.752

>  <PUBCHEM_SHAPE_VOLUME>  (1) 
174.1

>  <PUBCHEM_COORDINATE_TYPE>  (1) 
2
5
10

$$$$
