28554
     RDKit          3D

 19 19  0  0  0  0  0  0  0  0999 V2000
    7.0568    1.5402    0.3569 Cl  0  0  0  0  0  0  0  0  0  0  0  0
    1.8943   -1.2308   -0.0252 O   0  0  0  0  0  0  0  0  0  0  0  0
   -0.6949   -1.5911    0.6171 O   0  0  0  0  0  0  0  0  0  0  0  0
   -4.8225    0.4254   -0.0553 N   0  0  0  0  0  0  0  0  0  0  0  0
   -1.4238   -0.4707   -1.2866 N   0  0  0  0  0  0  0  0  0  0  0  0
   -3.3852    0.5659   -0.2506 C   0  0  0  0  0  0  0  0  0  0  0  0
   -5.1287   -0.8229    0.6460 C   0  0  0  0  0  0  0  0  0  0  0  0
   -5.3568    1.5684    0.6879 C   0  0  0  0  0  0  0  0  0  0  0  0
   -2.8441   -0.6052   -1.0573 C   0  0  0  0  0  0  0  0  0  0  0  0
   -6.6284   -1.0142    0.7968 C   0  0  0  0  0  0  0  0  0  0  0  0
   -5.0505    2.8764   -0.0219 C   0  0  0  0  0  0  0  0  0  0  0  0
   -0.4664   -0.9793   -0.4228 C   0  0  0  0  0  0  0  0  0  0  0  0
    0.9371   -0.6928   -0.9125 C   0  0  0  0  0  0  0  0  0  0  0  0
    3.1024   -0.5806    0.0646 C   0  0  0  0  0  0  0  0  0  0  0  0
    3.5963    0.1000   -1.0396 C   0  0  0  0  0  0  0  0  0  0  0  0
    3.8107   -0.6165    1.2578 C   0  0  0  0  0  0  0  0  0  0  0  0
    4.8230    0.7577   -0.9488 C   0  0  0  0  0  0  0  0  0  0  0  0
    5.0373    0.0415    1.3484 C   0  0  0  0  0  0  0  0  0  0  0  0
    5.5435    0.7285    0.2452 C   0  0  0  0  0  0  0  0  0  0  0  0
  1 19  1  0
  2 13  1  0
  2 14  1  0
  3 12  2  0
  4  6  1  0
  4  7  1  0
  4  8  1  0
  5  9  1  0
  5 12  1  0
  6  9  1  0
  7 10  1  0
  8 11  1  0
 12 13  1  0
 14 15  2  0
 14 16  1  0
 15 17  1  0
 16 18  2  0
 17 19  2  0
 18 19  1  0
M  END
>  <PUBCHEM_COMPOUND_CID>  (1) 
28554

>  <PUBCHEM_CONFORMER_RMSD>  (1) 
0.8

>  <PUBCHEM_CONFORMER_DIVERSEORDER>  (1) 
1
408
402
245
49
50
389
178
218
107
65
412
396
2
172
333
437
202
133
3
187
256
447
319
361
248
286
19
274
236
382
220
415
73
183
206
251
208
438
80
233
46
416
449
189
7
332
380
393
88
96
36
385
427
378
40
225
388
31
161
203
302
386
356
394
375
98
85
207
338
81
41
232
403
406
369
28
366
54
351
409
264
365
164
242
43
324
112
335
336
397
163
115
177
146
22
417
181
70
387
287
363
38
428
407
167
272
6
8
224
341
374
29
219
364
285
51
72
150
330
259
362
20
289
63
261
441
435
434
199
367
124
404
175
74
340
130
422
32
316
226
42
423
439
193
296
391
11
66
148
275
26
383
421
159
284
384
104
440
121
431
196
314
23
445
106
450
368
101
5
313
25
430
210
165
353
33
419
234
168
399
13
128
126
446
271
131
27
443
45
182
424
212
425
134
143
173
418
283
312
429
216
252
350
137
260
155
103
194
44
322
317
420
204
370
390
293
230
309
213
211
345
15
30
185
47
144
151
318
288
426
95
343
401
56
87
355
188
299
395
114
311
89
75
35
145
192
292
300
215
303
48
444
162
67
190
433
118
129
253
297
9
84
323
410
237
110
270
17
113
354
348
448
223
295
337
359
413
59
64
102
243
411
34
262
140
376
371
325
305
57
197
136
250
61
249
400
71
329
198
344
379
320
62
414
147
58
166
265
442
83
235
273
255
327
240
111
436
97
127
77
241
405
301
105
377
92
231
68
290
326
55
205
117
307
186
281
174
76
339
229
267
142
170
91
135
60
254
321
398
18
122
373
238
169
12
222
79
119
16
4
244
342
331
304
14
352
149
191
306
221
381
132
153
139
94
78
90
349
123
308
328
21
432
152
360
282
247
279
158
298
392
86
269
291
357
280
294
217
39
156
125
347
263
93
258
209
358
157
108
268
109
200
120
277
82
214
310
201
116
315
228
99
257
184
160
138
372
278
141
246
176
10
239
37
346
179
180
52
171
276
100
24
69
195
53
227
154
266
334

>  <PUBCHEM_MMFF94_PARTIAL_CHARGES>  (1) 
22
1 -0.18
12 0.57
13 0.34
14 0.08
15 -0.15
16 -0.15
17 -0.15
18 -0.15
19 0.18
2 -0.36
3 -0.57
34 0.37
37 0.15
38 0.15
39 0.15
4 -0.81
40 0.15
5 -0.73
6 0.27
7 0.27
8 0.27
9 0.3

>  <PUBCHEM_EFFECTIVE_ROTOR_COUNT>  (1) 
9

>  <PUBCHEM_PHARMACOPHORE_FEATURES>  (1) 
5
1 2 acceptor
1 3 acceptor
1 4 cation
1 5 donor
6 14 15 16 17 18 19 rings

>  <PUBCHEM_HEAVY_ATOM_COUNT>  (1) 
19

>  <PUBCHEM_ATOM_DEF_STEREO_COUNT>  (1) 
0

>  <PUBCHEM_ATOM_UDEF_STEREO_COUNT>  (1) 
0

>  <PUBCHEM_BOND_DEF_STEREO_COUNT>  (1) 
0

>  <PUBCHEM_BOND_UDEF_STEREO_COUNT>  (1) 
0

>  <PUBCHEM_ISOTOPIC_ATOM_COUNT>  (1) 
0

>  <PUBCHEM_COMPONENT_COUNT>  (1) 
1

>  <PUBCHEM_CACTVS_TAUTO_COUNT>  (1) 
2

>  <PUBCHEM_CONFORMER_ID>  (1) 
00006F8A00000001

>  <PUBCHEM_MMFF94_ENERGY>  (1) 
37.9168

>  <PUBCHEM_FEATURE_SELFOVERLAP>  (1) 
25.378

>  <PUBCHEM_SHAPE_FINGERPRINT>  (1) 
10 15 18412826902094580867
10354089 29 17967249819607688652
10613725 11 12607409888161615235
106641 1 17749671895207498379
10670039 82 16845300397365846904
11724838 91 17967812803493944166
11796584 16 7997969068299294733
12596602 18 18114178618530255953
12670543 26 13038911031521922678
12730499 353 17489596657832823110
12916748 109 18343025484020000046
13073987 5 18334013865513112411
13167372 99 18411697660924909832
13177829 20 17967533522860198562
13668630 136 9367350344771684496
13964095 4 10951779568597435195
14123256 34 7853569145255904112
14251764 18 17894630391822656518
14341114 328 18041284283580389365
14848160 23 12540699236312287181
15183329 4 14333414432223622527
15188451 53 13190335781520608694
17834072 8 14908184165761162030
17870717 6 8718824298001980873
18222031 100 8430315753582073862
19377110 9 18187641422988880819
193927 3 12324250420971769503
20281389 69 18060415815810084066
20374829 77 9007056859738275303
20645477 56 17703788132899056423
21623969 137 14851601081630372272
21637258 2 11025791007819661118
221357 26 14548743898020696178
22289505 5 16558747923793422952
23198884 109 13470687049390804115
23402655 69 15339116866622301550
25122255 55 11674882156342636897
2916195 48 18343300370748902721
29717793 49 11599732796390513960
3004659 81 11167942455116787164
312425 54 16950566532602523617
3663271 9 18040432178900514657
44062 13 9150877374867403457
465052 167 11025806370680393240
5104073 3 18115311060247316291
5718773 13 13118586086016660137
59682541 35 18340211894806855971
59682541 52 15913053049918214876
59755656 215 8286215936756294592
960060 61 12607398901693190442

>  <PUBCHEM_SHAPE_MULTIPOLES>  (1) 
371.18
19.33
1.83
1.2
1.36
1.28
-0.01
8.36
-5.26
2.44
-0.15
-0.6
-0.16
0.04

>  <PUBCHEM_SHAPE_SELFOVERLAP>  (1) 
731.589

>  <PUBCHEM_SHAPE_VOLUME>  (1) 
223.1

>  <PUBCHEM_COORDINATE_TYPE>  (1) 
2
5
10

$$$$
