28550
     RDKit          3D

 17 17  0  0  0  0  0  0  0  0999 V2000
    2.6573   -0.5020    0.1377 O   0  0  0  0  0  0  0  0  0  0  0  0
    0.2716    1.5881   -0.4395 O   0  0  0  0  0  0  0  0  0  0  0  0
   -2.3761    0.2530    0.4406 O   0  0  0  0  0  0  0  0  0  0  0  0
    1.7887   -2.4587   -0.7154 O   0  0  0  0  0  0  0  0  0  0  0  0
    0.1510    0.9459    1.7774 O   0  0  0  0  0  0  0  0  0  0  0  0
    0.3418   -0.6770    0.0171 C   0  0  0  0  0  0  0  0  0  0  0  0
   -0.7540   -1.3831   -0.3224 C   0  0  0  0  0  0  0  0  0  0  0  0
   -2.0987   -0.9397   -0.1295 C   0  0  0  0  0  0  0  0  0  0  0  0
    1.6540   -1.3431   -0.2340 C   0  0  0  0  0  0  0  0  0  0  0  0
    0.2375    0.6943    0.5852 C   0  0  0  0  0  0  0  0  0  0  0  0
    3.9856   -0.9951   -0.0652 C   0  0  0  0  0  0  0  0  0  0  0  0
    0.1966    2.9647   -0.0558 C   0  0  0  0  0  0  0  0  0  0  0  0
   -3.2385   -1.6107   -0.4726 C   0  0  0  0  0  0  0  0  0  0  0  0
   -4.3079   -0.7685   -0.0850 C   0  0  0  0  0  0  0  0  0  0  0  0
    4.9763    0.0526    0.3956 C   0  0  0  0  0  0  0  0  0  0  0  0
    0.2461    3.8266   -1.2993 C   0  0  0  0  0  0  0  0  0  0  0  0
   -3.7312    0.3524    0.4652 C   0  0  0  0  0  0  0  0  0  0  0  0
  1  9  1  0
  1 11  1  0
  2 10  1  0
  2 12  1  0
  3  8  1  0
  3 17  1  0
  4  9  2  0
  5 10  2  0
  6  7  2  3
  6  9  1  0
  6 10  1  0
  7  8  1  0
  8 13  2  0
 11 15  1  0
 12 16  1  0
 13 14  1  0
 14 17  2  0
M  END
>  <PUBCHEM_COMPOUND_CID>  (1) 
28550

>  <PUBCHEM_CONFORMER_RMSD>  (1) 
0.8

>  <PUBCHEM_CONFORMER_DIVERSEORDER>  (1) 
1
39
8
32
62
44
52
3
60
56
40
38
29
68
30
80
67
77
24
23
45
47
33
13
57
50
7
16
49
21
12
19
73
10
34
43
72
84
87
58
75
15
63
31
20
51
14
42
22
5
48
36
53
76
2
27
70
54
26
35
61
86
25
79
4
59
18
9
74
17
55
46
37
82
88
71
11
64
69
85
66
83
6
41
78
81
65
28

>  <PUBCHEM_MMFF94_PARTIAL_CHARGES>  (1) 
19
1 -0.43
10 0.71
11 0.28
12 0.28
13 -0.15
14 -0.15
17 -0.01
18 0.15
2 -0.43
23 0.15
24 0.15
3 -0.28
31 0.15
4 -0.57
5 -0.57
6 0.03
7 -0.11
8 0.09
9 0.71

>  <PUBCHEM_EFFECTIVE_ROTOR_COUNT>  (1) 
7

>  <PUBCHEM_PHARMACOPHORE_FEATURES>  (1) 
5
1 3 acceptor
1 4 acceptor
1 5 acceptor
1 6 anion
5 3 8 13 14 17 rings

>  <PUBCHEM_HEAVY_ATOM_COUNT>  (1) 
17

>  <PUBCHEM_ATOM_DEF_STEREO_COUNT>  (1) 
0

>  <PUBCHEM_ATOM_UDEF_STEREO_COUNT>  (1) 
0

>  <PUBCHEM_BOND_DEF_STEREO_COUNT>  (1) 
0

>  <PUBCHEM_BOND_UDEF_STEREO_COUNT>  (1) 
0

>  <PUBCHEM_ISOTOPIC_ATOM_COUNT>  (1) 
0

>  <PUBCHEM_COMPONENT_COUNT>  (1) 
1

>  <PUBCHEM_CACTVS_TAUTO_COUNT>  (1) 
1

>  <PUBCHEM_CONFORMER_ID>  (1) 
00006F8600000001

>  <PUBCHEM_MMFF94_ENERGY>  (1) 
29.8953

>  <PUBCHEM_FEATURE_SELFOVERLAP>  (1) 
25.374

>  <PUBCHEM_SHAPE_FINGERPRINT>  (1) 
11132069 177 18201716237150266066
11806522 49 18059568152459267191
11833330 49 18188769440362248660
13132413 78 18343867705784980941
14181834 199 18200037385673147764
14648413 74 18118407473779601595
15490181 7 17471303846409950522
167882 2 17972604565478630708
16945 1 17845920875555631403
17357779 13 18268971142923277773
1813 80 18339657675677674998
18769570 83 17604704465598896093
18785283 64 17972898117733968225
20671657 1 18124035886618679421
21029758 27 18408890654440252599
21339142 126 18339353055423165622
21524375 3 17323789441133797445
23402539 116 18411693275431140694
23419403 2 17844219935357570488
23557571 272 18338804394846758118
23558518 356 17827928321492507258
23559900 14 18197203949210464819
2748010 2 18268422452276719733
3071541 158 18411135870280186629
34934 24 18339073788059690439
537710 114 18341899627600783564
59554788 62 18196104256476222232
68521 5 18336265635293603636
7364860 26 18196371635597302321
7495541 125 17896331379429635571
81228 2 18120674443106644000
9981440 41 17184745239123867889

>  <PUBCHEM_SHAPE_MULTIPOLES>  (1) 
320.51
7.2
3.17
0.95
2.1
4.1
0.15
-3.65
0.56
0.82
-1.44
0.03
0.42
-0.16

>  <PUBCHEM_SHAPE_SELFOVERLAP>  (1) 
656.842

>  <PUBCHEM_SHAPE_VOLUME>  (1) 
186.5

>  <PUBCHEM_COORDINATE_TYPE>  (1) 
2
5
10

$$$$
