28563
     RDKit          3D

 15 16  0  0  0  0  0  0  0  0999 V2000
   -2.4446   -1.6677   -0.2619 O   0  0  0  0  0  0  0  0  0  0  0  0
   -3.4596    0.9405    0.4295 O   0  0  0  0  0  0  0  0  0  0  0  0
    2.8073   -0.1526    0.4200 N   0  0  0  0  0  0  0  0  0  0  0  0
    4.8992   -0.5940    1.3054 N   0  0  0  0  0  0  0  0  0  0  0  0
    4.8022   -0.0971   -0.9169 N   0  0  0  0  0  0  0  0  0  0  0  0
   -1.6490   -0.5538   -0.1988 C   0  0  0  0  0  0  0  0  0  0  0  0
   -2.1388    0.7082    0.1471 C   0  0  0  0  0  0  0  0  0  0  0  0
    0.5665    0.3739   -0.4416 C   0  0  0  0  0  0  0  0  0  0  0  0
   -3.6984   -1.4655    0.3961 C   0  0  0  0  0  0  0  0  0  0  0  0
   -4.2961   -0.1328   -0.0109 C   0  0  0  0  0  0  0  0  0  0  0  0
   -0.2986   -0.7185   -0.5080 C   0  0  0  0  0  0  0  0  0  0  0  0
   -1.2704    1.7971    0.2263 C   0  0  0  0  0  0  0  0  0  0  0  0
    0.0824    1.6285   -0.0697 C   0  0  0  0  0  0  0  0  0  0  0  0
    2.0128    0.2001   -0.7632 C   0  0  0  0  0  0  0  0  0  0  0  0
    4.0853   -0.2663    0.2467 C   0  0  0  0  0  0  0  0  0  0  0  0
  1  6  1  0
  1  9  1  0
  2  7  1  0
  2 10  1  0
  3 14  1  0
  3 15  2  3
  4 15  1  0
  5 15  1  0
  6  7  2  0
  6 11  1  0
  7 12  1  0
  8 11  2  0
  8 13  1  0
  8 14  1  0
  9 10  1  0
 12 13  2  0
M  END
>  <PUBCHEM_COMPOUND_CID>  (1) 
28563

>  <PUBCHEM_CONFORMER_RMSD>  (1) 
0.6

>  <PUBCHEM_CONFORMER_DIVERSEORDER>  (1) 
1
5
12
14
15
8
4
11
9
7
10
3
13
6
2

>  <PUBCHEM_MMFF94_PARTIAL_CHARGES>  (1) 
22
1 -0.36
10 0.28
11 -0.15
12 -0.15
13 -0.15
14 0.39
15 0.55
2 -0.36
20 0.15
21 0.15
22 0.15
25 0.4
26 0.4
27 0.4
28 0.4
3 -0.7
4 -0.85
5 -0.85
6 0.08
7 0.08
8 -0.14
9 0.28

>  <PUBCHEM_EFFECTIVE_ROTOR_COUNT>  (1) 
2.8

>  <PUBCHEM_PHARMACOPHORE_FEATURES>  (1) 
7
1 1 acceptor
1 2 acceptor
1 4 donor
1 5 donor
4 3 4 5 15 cation
6 1 2 6 7 9 10 rings
6 6 7 8 11 12 13 rings

>  <PUBCHEM_HEAVY_ATOM_COUNT>  (1) 
15

>  <PUBCHEM_ATOM_DEF_STEREO_COUNT>  (1) 
0

>  <PUBCHEM_ATOM_UDEF_STEREO_COUNT>  (1) 
0

>  <PUBCHEM_BOND_DEF_STEREO_COUNT>  (1) 
0

>  <PUBCHEM_BOND_UDEF_STEREO_COUNT>  (1) 
0

>  <PUBCHEM_ISOTOPIC_ATOM_COUNT>  (1) 
0

>  <PUBCHEM_COMPONENT_COUNT>  (1) 
1

>  <PUBCHEM_CACTVS_TAUTO_COUNT>  (1) 
2

>  <PUBCHEM_CONFORMER_ID>  (1) 
00006F9300000001

>  <PUBCHEM_MMFF94_ENERGY>  (1) 
48.9143

>  <PUBCHEM_FEATURE_SELFOVERLAP>  (1) 
35.618

>  <PUBCHEM_SHAPE_FINGERPRINT>  (1) 
10062212 137 18335137618010166291
10465860 250 18411979169696850001
11046707 91 18408040732062732067
11132069 177 18272092681818890501
11401426 45 18273210885756398405
12119455 92 16486972873340318373
12236239 1 18040159509276634516
12251169 10 18202561795761639020
124424 183 18334856147618320095
13214271 11 18131067121728438685
13288520 33 18410859858343530110
13675066 3 17918274255517097822
13862211 1 18411976992612927423
15209294 21 17488477290766059281
15219456 202 17560246816640948934
15342168 16 15338538570861456320
15375462 189 18040711459407380250
16945 1 18270135556017978613
17804303 29 18343586265104744081
17834072 33 18187089485758582332
1813 80 17530974548824263926
18186145 218 12612753540204891167
200 152 16443343157166035484
20279233 1 17704079490336883439
204376 136 15338834291922830284
20510252 161 18059296435495201145
21267235 1 18338528516207425319
21501925 9 18341612654522758125
22079108 93 14548726343977784174
22485316 2 18040432196349369576
22854114 59 16988841683474396818
2297311 6 18201733838142393108
232386 152 18339085989818737447
23366157 5 17972317588279581036
23402539 116 18201712956063991645
23463225 33 18408889541969844125
23532345 42 18272373087580963492
23557571 272 18059307452397642668
23559900 14 18128831750412626406
2838139 119 14044913499419233827
42 15 18408322177111906170
43471831 8 18336544902573260626
474 4 17387708338871764924
5104073 3 18340494486131990545
5374978 207 18412541033545797936
573450 72 18260824869635932488
76465 3 18196368341737467335
90316 7 18335421218669063116

>  <PUBCHEM_SHAPE_MULTIPOLES>  (1) 
282.01
9.09
1.5
0.85
8.16
0.26
0.05
-2.79
1.56
-1.28
0.1
0.72
-0.07
-0.33

>  <PUBCHEM_SHAPE_SELFOVERLAP>  (1) 
597.912

>  <PUBCHEM_SHAPE_VOLUME>  (1) 
155.5

>  <PUBCHEM_COORDINATE_TYPE>  (1) 
2
5
10

$$$$
