28569
     RDKit          3D

 10 11  0  0  1  0  0  0  0  0999 V2000
   -1.6865   -1.0969   -0.9106 S   0  0  0  0  0  0  0  0  0  0  0  0
   -0.8508    1.2056    0.7977 S   0  0  0  0  0  0  0  0  0  0  0  0
   -0.2630   -0.2921   -0.0983 C   0  0  0  0  0  0  0  0  0  0  0  0
    2.1796   -0.1222   -0.3805 C   0  0  0  0  0  0  0  0  0  0  0  0
    0.8337    0.0822   -1.1075 C   0  0  0  0  0  0  0  0  0  0  0  0
    0.4438   -1.2516    0.8630 C   0  0  0  0  0  0  0  0  0  0  0  0
    1.8383   -0.6534    1.0158 C   0  0  0  0  0  0  0  0  0  0  0  0
    3.0251    1.1424   -0.3297 C   0  0  0  0  0  0  0  0  0  0  0  0
   -2.9814   -0.2271    0.0044 C   0  0  0  0  0  0  0  0  0  0  0  0
   -2.5389    1.2130    0.1457 C   0  0  0  0  0  0  0  0  0  0  0  0
  1  3  1  0
  1  9  1  0
  2  3  1  0
  2 10  1  0
  3  5  1  0
  3  6  1  0
  4  5  1  0
  4  7  1  0
  4  8  1  0
  6  7  1  0
  9 10  1  0
M  END
>  <PUBCHEM_COMPOUND_CID>  (1) 
28569

>  <PUBCHEM_CONFORMER_RMSD>  (1) 
0.4

>  <PUBCHEM_CONFORMER_DIVERSEORDER>  (1) 
2
1

>  <PUBCHEM_MMFF94_PARTIAL_CHARGES>  (1) 
5
1 -0.46
10 0.23
2 -0.46
3 0.46
9 0.23

>  <PUBCHEM_EFFECTIVE_ROTOR_COUNT>  (1) 
1.6

>  <PUBCHEM_PHARMACOPHORE_FEATURES>  (1) 
2
5 1 2 3 9 10 rings
5 3 4 5 6 7 rings

>  <PUBCHEM_HEAVY_ATOM_COUNT>  (1) 
10

>  <PUBCHEM_ATOM_DEF_STEREO_COUNT>  (1) 
0

>  <PUBCHEM_ATOM_UDEF_STEREO_COUNT>  (1) 
1

>  <PUBCHEM_BOND_DEF_STEREO_COUNT>  (1) 
0

>  <PUBCHEM_BOND_UDEF_STEREO_COUNT>  (1) 
0

>  <PUBCHEM_ISOTOPIC_ATOM_COUNT>  (1) 
0

>  <PUBCHEM_COMPONENT_COUNT>  (1) 
1

>  <PUBCHEM_CACTVS_TAUTO_COUNT>  (1) 
1

>  <PUBCHEM_CONFORMER_ID>  (1) 
00006F9900000002

>  <PUBCHEM_MMFF94_ENERGY>  (1) 
23.8871

>  <PUBCHEM_FEATURE_SELFOVERLAP>  (1) 
10.154

>  <PUBCHEM_SHAPE_FINGERPRINT>  (1) 
10219947 1 16732983137115137062
10857977 72 17774712130459043163
12138202 97 17775563126515078149
12423570 1 13096504631642729291
12716758 59 17988926643398088751
12897270 3 17489593367655414500
12932764 1 17895479120141220589
14325111 11 18334860506361317893
15310529 11 18113897139685734809
15775835 57 18335708212747009117
16945 1 17561077008012434323
20201158 50 15698005106395058014
20653085 51 18270702899263955796
21040471 1 17916300533313551707
21922407 69 18335414612987574530
22802520 49 17130726997149059429
23235685 24 17530687632039326292
23552423 10 18268710511153945727
29004967 10 16298387920304415423
3248919 1 18342164540751272719
369184 2 17894629240697529097
5084963 1 17845095064902723986

>  <PUBCHEM_SHAPE_MULTIPOLES>  (1) 
213.49
4.28
1.42
1.11
0.03
0.2
0.05
0.96
-0.44
-0.35
0.11
0.29
-0.17
-0.54

>  <PUBCHEM_SHAPE_SELFOVERLAP>  (1) 
404.05

>  <PUBCHEM_SHAPE_VOLUME>  (1) 
133.5

>  <PUBCHEM_COORDINATE_TYPE>  (1) 
2
5
10

$$$$
