28561
     RDKit          3D

 12 13  0  0  0  0  0  0  0  0999 V2000
    2.8543   -1.2777   -0.2026 S   0  0  0  0  0  0  0  0  0  0  0  0
    1.4966    0.8332    0.1459 N   0  0  0  0  0  0  0  0  0  0  0  0
    1.1933   -1.4782   -0.2399 N   0  0  0  0  0  0  0  0  0  0  0  0
    3.8526    1.1775    0.2064 N   0  0  0  0  0  0  0  0  0  0  0  0
   -0.7519   -0.0803   -0.0148 C   0  0  0  0  0  0  0  0  0  0  0  0
    0.6722   -0.2658   -0.0390 C   0  0  0  0  0  0  0  0  0  0  0  0
   -1.2936    1.1880   -0.2235 C   0  0  0  0  0  0  0  0  0  0  0  0
   -1.5931   -1.1684    0.2172 C   0  0  0  0  0  0  0  0  0  0  0  0
   -2.6766    1.3683   -0.2001 C   0  0  0  0  0  0  0  0  0  0  0  0
   -2.9761   -0.9883    0.2404 C   0  0  0  0  0  0  0  0  0  0  0  0
   -3.5178    0.2801    0.0317 C   0  0  0  0  0  0  0  0  0  0  0  0
    2.7403    0.4115    0.0782 C   0  0  0  0  0  0  0  0  0  0  0  0
  1  3  1  0
  1 12  1  0
  2  6  1  0
  2 12  2  0
  3  6  2  0
  4 12  1  0
  5  6  1  0
  5  7  2  0
  5  8  1  0
  7  9  1  0
  8 10  2  0
  9 11  2  0
 10 11  1  0
M  END
>  <PUBCHEM_COMPOUND_CID>  (1) 
28561

>  <PUBCHEM_CONFORMER_RMSD>  (1) 
0.4

>  <PUBCHEM_CONFORMER_DIVERSEORDER>  (1) 
1

>  <PUBCHEM_MMFF94_PARTIAL_CHARGES>  (1) 
19
1 0.18
10 -0.15
11 -0.15
12 0.46
13 0.15
14 0.15
15 0.15
16 0.15
17 0.15
18 0.4
19 0.4
2 -0.57
3 -0.51
4 -0.88
5 0.05
6 0.46
7 -0.15
8 -0.15
9 -0.15

>  <PUBCHEM_EFFECTIVE_ROTOR_COUNT>  (1) 
1

>  <PUBCHEM_PHARMACOPHORE_FEATURES>  (1) 
5
1 4 donor
3 2 3 6 cation
3 2 4 12 cation
5 1 2 3 6 12 rings
6 5 7 8 9 10 11 rings

>  <PUBCHEM_HEAVY_ATOM_COUNT>  (1) 
12

>  <PUBCHEM_ATOM_DEF_STEREO_COUNT>  (1) 
0

>  <PUBCHEM_ATOM_UDEF_STEREO_COUNT>  (1) 
0

>  <PUBCHEM_BOND_DEF_STEREO_COUNT>  (1) 
0

>  <PUBCHEM_BOND_UDEF_STEREO_COUNT>  (1) 
0

>  <PUBCHEM_ISOTOPIC_ATOM_COUNT>  (1) 
0

>  <PUBCHEM_COMPONENT_COUNT>  (1) 
1

>  <PUBCHEM_CACTVS_TAUTO_COUNT>  (1) 
3

>  <PUBCHEM_CONFORMER_ID>  (1) 
00006F9100000001

>  <PUBCHEM_MMFF94_ENERGY>  (1) 
23.8671

>  <PUBCHEM_FEATURE_SELFOVERLAP>  (1) 
25.609

>  <PUBCHEM_SHAPE_FINGERPRINT>  (1) 
10608611 8 18410290276829040156
11132069 177 18334853939404002925
12932764 1 17531807939645561319
13380535 76 18409727369825311274
14144814 61 18409167684073045035
14325111 11 18410573967976869700
14897335 6 18411694383236875166
15219456 202 18411983537599345238
15442244 35 18051131397965173146
15775835 57 18131070467228335246
16945 1 18336272352479912663
17844478 74 18334305262022291961
18186145 218 18339083674710090756
19973954 147 18410858724319364901
200 152 17989194950511231879
20201158 50 18412544288693099747
20279233 1 18409450280025800211
20510252 161 18412827954472591769
20528008 55 18410288108197226551
20645477 70 18200591397752342151
20871998 184 18270969058751695239
21501502 16 18411416176772598147
23402539 116 18262788683635061991
23402655 69 18271796883749039013
23463225 33 18335137575012715254
23552423 10 18187088342838436287
23559900 14 18268424642942584418
2748010 2 18410295774386925879
3248919 1 17346601824523095207
369184 2 18411419488572061563
5104073 3 18410293592617341315
53812653 166 18272083937566396768
6333449 129 18410290320173962239
69090 78 18413102845306537959
7364860 26 18268427941208585298
8809292 202 18334021566104858394

>  <PUBCHEM_SHAPE_MULTIPOLES>  (1) 
235.86
6.26
1.57
0.63
1.4
0.06
0.01
-0.8
-0.21
0.15
0.03
-0.02
0.02
0.39

>  <PUBCHEM_SHAPE_SELFOVERLAP>  (1) 
498.243

>  <PUBCHEM_SHAPE_VOLUME>  (1) 
134

>  <PUBCHEM_COORDINATE_TYPE>  (1) 
2
5
10

$$$$
