28560
     RDKit          3D

 18 20  0  0  0  0  0  0  0  0999 V2000
   -2.8810   -0.0972    0.0013 C   0  0  0  0  0  0  0  0  0  0  0  0
    2.8811    0.0972    0.0061 C   0  0  0  0  0  0  0  0  0  0  0  0
   -1.3707   -0.1780    0.0153 C   0  0  0  0  0  0  0  0  0  0  0  0
    1.3708    0.1780   -0.0069 C   0  0  0  0  0  0  0  0  0  0  0  0
   -0.8038    1.1139    0.0169 C   0  0  0  0  0  0  0  0  0  0  0  0
    0.8039   -1.1141   -0.0082 C   0  0  0  0  0  0  0  0  0  0  0  0
   -3.0884    1.3678    0.4699 C   0  0  0  0  0  0  0  0  0  0  0  0
    3.0881   -1.3679   -0.4620 C   0  0  0  0  0  0  0  0  0  0  0  0
   -1.8673    2.1673   -0.0077 C   0  0  0  0  0  0  0  0  0  0  0  0
    1.8674   -2.1673    0.0164 C   0  0  0  0  0  0  0  0  0  0  0  0
   -0.5695   -1.3122    0.0065 C   0  0  0  0  0  0  0  0  0  0  0  0
    0.5695    1.3121    0.0022 C   0  0  0  0  0  0  0  0  0  0  0  0
   -3.5529   -1.0767    0.9669 C   0  0  0  0  0  0  0  0  0  0  0  0
   -3.4138   -0.3062   -1.4224 C   0  0  0  0  0  0  0  0  0  0  0  0
    3.4151    0.3070    1.4292 C   0  0  0  0  0  0  0  0  0  0  0  0
    3.5521    1.0764   -0.9606 C   0  0  0  0  0  0  0  0  0  0  0  0
   -1.1236   -2.6924   -0.0239 C   0  0  0  0  0  0  0  0  0  0  0  0
    1.1231    2.6922   -0.0389 C   0  0  0  0  0  0  0  0  0  0  0  0
  1  3  1  0
  1  7  1  0
  1 13  1  0
  1 14  1  0
  2  4  1  0
  2  8  1  0
  2 15  1  0
  2 16  1  0
  3  5  2  0
  3 11  1  0
  4  6  1  0
  4 12  2  0
  5  9  1  0
  5 12  1  0
  6 10  1  0
  6 11  2  0
  7  9  1  0
  8 10  1  0
 11 17  1  0
 12 18  1  0
M  END
>  <PUBCHEM_COMPOUND_CID>  (1) 
28560

>  <PUBCHEM_CONFORMER_RMSD>  (1) 
0.6

>  <PUBCHEM_CONFORMER_DIVERSEORDER>  (1) 
1

>  <PUBCHEM_MMFF94_PARTIAL_CHARGES>  (1) 
12
1 0.14
10 0.14
11 -0.14
12 -0.14
17 0.14
18 0.14
2 0.14
3 -0.14
4 -0.14
5 -0.14
6 -0.14
9 0.14

>  <PUBCHEM_EFFECTIVE_ROTOR_COUNT>  (1) 
1.2

>  <PUBCHEM_PHARMACOPHORE_FEATURES>  (1) 
5
3 1 13 14 hydrophobe
3 2 15 16 hydrophobe
5 1 3 5 7 9 rings
5 2 4 6 8 10 rings
6 3 4 5 6 11 12 rings

>  <PUBCHEM_HEAVY_ATOM_COUNT>  (1) 
18

>  <PUBCHEM_ATOM_DEF_STEREO_COUNT>  (1) 
0

>  <PUBCHEM_ATOM_UDEF_STEREO_COUNT>  (1) 
0

>  <PUBCHEM_BOND_DEF_STEREO_COUNT>  (1) 
0

>  <PUBCHEM_BOND_UDEF_STEREO_COUNT>  (1) 
0

>  <PUBCHEM_ISOTOPIC_ATOM_COUNT>  (1) 
0

>  <PUBCHEM_COMPONENT_COUNT>  (1) 
1

>  <PUBCHEM_CACTVS_TAUTO_COUNT>  (1) 
1

>  <PUBCHEM_CONFORMER_ID>  (1) 
00006F9000000001

>  <PUBCHEM_MMFF94_ENERGY>  (1) 
69.4582

>  <PUBCHEM_FEATURE_SELFOVERLAP>  (1) 
25.541

>  <PUBCHEM_SHAPE_FINGERPRINT>  (1) 
10411042 1 14590960308879818161
10608611 8 18339922619357073952
10967382 1 18338801216185849740
10980938 120 18411138013373999730
11132069 177 18339356370757993056
11578080 2 17273102827298824305
12382932 28 18338793421004980064
12553582 1 18339927111850615589
12932764 1 17703788111017803776
13140716 1 18051128386908151882
13172582 1 18410006641530947216
13221675 6 18410858784432868399
13296908 3 18410579439791740963
13538477 17 18187641466186194266
13583140 156 16805317816409643392
14144814 61 18410294709235029896
14178342 30 18268707216797979065
14223421 5 18410575089005623097
14787075 74 17824836778052195827
14790565 3 18266480830427642185
15196674 1 18410579456939786240
15309172 13 18412553089207677003
15536298 74 18200592497506276710
16945 1 18339922713730088966
18186145 218 18337955562926849814
193761 8 17906454685569515526
19591789 44 16895971725628660289
200 152 18130212827301005685
20028762 73 17912936264421268623
20510252 161 18272373048752405745
20559304 39 18408609188232980484
21267235 1 18338811025923244062
21501502 16 18340206263176010100
22721475 48 18410015454788085673
2334 1 14736197878233956354
23388829 49 18342730832342218093
23402539 116 18270952449954548742
23419403 2 16400493191507919332
23463225 33 18264772064855799842
23493267 7 17822581507788540106
23559900 14 18267303128223731318
2748010 2 18267303127521754126
335352 9 17690282607840918197
5104073 3 18411140195011437858
7364860 26 18269839881547422208
7832392 63 18197499519673605657
9709674 26 18341897376711392774

>  <PUBCHEM_SHAPE_MULTIPOLES>  (1) 
370.43
6.14
2.62
0.97
0
0
0
0
-0.02
0
0.02
0
0
-0.01

>  <PUBCHEM_SHAPE_SELFOVERLAP>  (1) 
805.733

>  <PUBCHEM_SHAPE_VOLUME>  (1) 
200.6

>  <PUBCHEM_COORDINATE_TYPE>  (1) 
2
5
10

$$$$
