28568
     RDKit          3D

 14 14  0  0  0  0  0  0  0  0999 V2000
    1.3688   -2.3947    0.0251 O   0  0  0  0  0  0  0  0  0  0  0  0
    3.1847    0.1566   -1.2108 O   0  0  0  0  0  0  0  0  0  0  0  0
    3.3581    0.1684    1.0555 O   0  0  0  0  0  0  0  0  0  0  0  0
   -3.0620   -0.3579   -0.0093 C   0  0  0  0  0  0  0  0  0  0  0  0
   -1.5760   -0.2334    0.0026 C   0  0  0  0  0  0  0  0  0  0  0  0
   -0.9819    1.0285    0.0102 C   0  0  0  0  0  0  0  0  0  0  0  0
    0.4080    1.1452    0.0229 C   0  0  0  0  0  0  0  0  0  0  0  0
   -3.6942    0.2553   -1.2732 C   0  0  0  0  0  0  0  0  0  0  0  0
   -3.7141    0.2489    1.2476 C   0  0  0  0  0  0  0  0  0  0  0  0
   -0.7800   -1.3788    0.0077 C   0  0  0  0  0  0  0  0  0  0  0  0
    1.2041   -0.0002    0.0279 C   0  0  0  0  0  0  0  0  0  0  0  0
    0.6100   -1.2624    0.0203 C   0  0  0  0  0  0  0  0  0  0  0  0
    1.0160    2.5099    0.0313 C   0  0  0  0  0  0  0  0  0  0  0  0
    2.6584    0.1146    0.0420 C   0  0  0  0  0  0  0  0  0  0  0  0
  1 12  1  0
  2 14  1  0
  3 14  2  0
  4  5  1  0
  4  8  1  0
  4  9  1  0
  5  6  2  0
  5 10  1  0
  6  7  1  0
  7 11  2  0
  7 13  1  0
 10 12  2  0
 11 12  1  0
 11 14  1  0
M  END
>  <PUBCHEM_COMPOUND_CID>  (1) 
28568

>  <PUBCHEM_CONFORMER_RMSD>  (1) 
0.6

>  <PUBCHEM_CONFORMER_DIVERSEORDER>  (1) 
1
3
2

>  <PUBCHEM_MMFF94_PARTIAL_CHARGES>  (1) 
16
1 -0.53
10 -0.15
11 0.09
12 0.08
13 0.14
14 0.63
16 0.15
17 0.15
2 -0.65
27 0.45
28 0.5
3 -0.57
4 0.14
5 -0.14
6 -0.15
7 -0.14

>  <PUBCHEM_EFFECTIVE_ROTOR_COUNT>  (1) 
2

>  <PUBCHEM_PHARMACOPHORE_FEATURES>  (1) 
6
1 1 donor
1 2 acceptor
1 3 acceptor
3 2 3 14 anion
3 4 8 9 hydrophobe
6 5 6 7 10 11 12 rings

>  <PUBCHEM_HEAVY_ATOM_COUNT>  (1) 
14

>  <PUBCHEM_ATOM_DEF_STEREO_COUNT>  (1) 
0

>  <PUBCHEM_ATOM_UDEF_STEREO_COUNT>  (1) 
0

>  <PUBCHEM_BOND_DEF_STEREO_COUNT>  (1) 
0

>  <PUBCHEM_BOND_UDEF_STEREO_COUNT>  (1) 
0

>  <PUBCHEM_ISOTOPIC_ATOM_COUNT>  (1) 
0

>  <PUBCHEM_COMPONENT_COUNT>  (1) 
1

>  <PUBCHEM_CACTVS_TAUTO_COUNT>  (1) 
25

>  <PUBCHEM_CONFORMER_ID>  (1) 
00006F9800000001

>  <PUBCHEM_MMFF94_ENERGY>  (1) 
41.1514

>  <PUBCHEM_FEATURE_SELFOVERLAP>  (1) 
30.503

>  <PUBCHEM_SHAPE_FINGERPRINT>  (1) 
10130415 120 18259980487760994528
10219947 1 18410006641525646400
10980938 120 18411136900940637719
11132069 177 18410284830947373098
11206711 2 18409448051122715181
11471102 20 18410008827991054205
11543360 7 15769769208195913401
12032990 46 18410018701894293586
124424 183 17676472939691640017
12654215 9 18261664883508031477
12932764 1 17968093183227302193
13140716 1 18266741479064795073
13380536 305 18337963410043251892
14144814 61 18413107247426229987
14289901 80 15864360197939362753
14911166 2 18411138056096650828
14993402 34 18412263956056260292
16945 1 18410856568398561705
17844478 74 17894921719733970965
18186145 218 18341054111279752389
19026448 4 15791730810504576593
19026448 5 15841554076105363203
193761 8 17762336912081596536
200 152 18129653219090817783
20201158 50 18335134280830925427
20233049 118 18186794786124191924
20511035 2 17973167510782863966
20588541 1 18334862718354007771
20645476 183 17604722199745506542
20645477 70 18266169536004224511
21501502 16 18123470471026813577
2334 1 17906169907926543017
23402539 116 18201712934372870692
23402655 69 18266721516953855701
23419403 2 16094522976904828297
23463225 33 18334289834441852874
23493267 7 17386005040102712961
23559900 14 18270131222928811836
25 1 18334579048775382173
2748010 2 18122622751883100549
4072396 5 18190998175905570787
528886 8 18411696616598887098
53812653 166 18342172284503227178
63268167 104 18411134706491684075

>  <PUBCHEM_SHAPE_MULTIPOLES>  (1) 
270.51
5.71
1.86
0.98
2.22
0.13
0.04
0.28
0.02
-0.93
-0.02
0.43
0.09
0

>  <PUBCHEM_SHAPE_SELFOVERLAP>  (1) 
563.093

>  <PUBCHEM_SHAPE_VOLUME>  (1) 
155.9

>  <PUBCHEM_COORDINATE_TYPE>  (1) 
2
5
10

$$$$
