28576
     RDKit          3D

 17 19  0  0  1  0  0  0  0  0999 V2000
    0.9800    3.6446   -0.1323 O   0  0  0  0  0  0  0  0  0  0  0  0
    0.0549    1.8127    0.8755 N   0  0  0  0  0  0  0  0  0  0  0  0
   -0.1688    0.3740    0.9999 C   0  0  0  0  0  0  0  0  0  0  0  0
    1.0139   -0.4393    0.5322 C   0  0  0  0  0  0  0  0  0  0  0  0
    1.9328    0.1175   -0.3682 C   0  0  0  0  0  0  0  0  0  0  0  0
    1.7395    1.5121   -0.8927 C   0  0  0  0  0  0  0  0  0  0  0  0
   -1.4827   -0.0427    0.3636 C   0  0  0  0  0  0  0  0  0  0  0  0
    0.9070    2.4200   -0.0174 C   0  0  0  0  0  0  0  0  0  0  0  0
    1.1946   -1.7567    0.9804 C   0  0  0  0  0  0  0  0  0  0  0  0
    3.0094   -0.6566   -0.8231 C   0  0  0  0  0  0  0  0  0  0  0  0
   -2.6489   -0.0544    1.1253 C   0  0  0  0  0  0  0  0  0  0  0  0
   -1.5167   -0.4119   -0.9788 C   0  0  0  0  0  0  0  0  0  0  0  0
    2.2760   -2.5137    0.5322 C   0  0  0  0  0  0  0  0  0  0  0  0
    3.1823   -1.9644   -0.3706 C   0  0  0  0  0  0  0  0  0  0  0  0
   -3.8560   -0.4377    0.5408 C   0  0  0  0  0  0  0  0  0  0  0  0
   -2.7238   -0.7951   -1.5633 C   0  0  0  0  0  0  0  0  0  0  0  0
   -3.8934   -0.8081   -0.8034 C   0  0  0  0  0  0  0  0  0  0  0  0
  1  8  2  0
  2  3  1  0
  2  8  1  0
  3  4  1  0
  3  7  1  0
  4  5  2  0
  4  9  1  0
  5  6  1  0
  5 10  1  0
  6  8  1  0
  7 11  2  0
  7 12  1  0
  9 13  2  0
 10 14  2  0
 11 15  1  0
 12 16  2  0
 13 14  1  0
 15 17  2  0
 16 17  1  0
M  END
>  <PUBCHEM_COMPOUND_CID>  (1) 
28576

>  <PUBCHEM_CONFORMER_RMSD>  (1) 
0.6

>  <PUBCHEM_CONFORMER_DIVERSEORDER>  (1) 
1
2
3
4

>  <PUBCHEM_MMFF94_PARTIAL_CHARGES>  (1) 
27
1 -0.57
10 -0.15
11 -0.15
12 -0.15
13 -0.15
14 -0.15
15 -0.15
16 -0.15
17 -0.15
2 -0.73
21 0.37
22 0.15
23 0.15
24 0.15
25 0.15
26 0.15
27 0.15
28 0.15
29 0.15
3 0.59
30 0.15
4 -0.14
5 -0.14
6 0.2
7 -0.14
8 0.57
9 -0.15

>  <PUBCHEM_EFFECTIVE_ROTOR_COUNT>  (1) 
1.6

>  <PUBCHEM_PHARMACOPHORE_FEATURES>  (1) 
5
1 1 acceptor
1 2 donor
6 2 3 4 5 6 8 rings
6 4 5 9 10 13 14 rings
6 7 11 12 15 16 17 rings

>  <PUBCHEM_HEAVY_ATOM_COUNT>  (1) 
17

>  <PUBCHEM_ATOM_DEF_STEREO_COUNT>  (1) 
0

>  <PUBCHEM_ATOM_UDEF_STEREO_COUNT>  (1) 
1

>  <PUBCHEM_BOND_DEF_STEREO_COUNT>  (1) 
0

>  <PUBCHEM_BOND_UDEF_STEREO_COUNT>  (1) 
0

>  <PUBCHEM_ISOTOPIC_ATOM_COUNT>  (1) 
0

>  <PUBCHEM_COMPONENT_COUNT>  (1) 
1

>  <PUBCHEM_CACTVS_TAUTO_COUNT>  (1) 
2

>  <PUBCHEM_CONFORMER_ID>  (1) 
00006FA000000001

>  <PUBCHEM_MMFF94_ENERGY>  (1) 
48.7414

>  <PUBCHEM_FEATURE_SELFOVERLAP>  (1) 
25.394

>  <PUBCHEM_SHAPE_FINGERPRINT>  (1) 
104564 63 18051413963689445158
10764073 3 16236107153870902576
11578080 2 17915438550352113872
12400797 292 18270400632239977486
12553582 1 18339082579504538442
13911987 19 17969526908199856454
14817 1 15912494471798220089
15906896 17 17544474150410097008
16945 1 18335702783823554696
1813 80 18200607886253026318
19422 9 18201445813256276607
200 152 18115592535023845626
20291156 8 18342178804242886054
20339313 130 18412546491942841767
20361792 2 18342448201887481471
20645476 183 18058451070489347551
20645477 70 18339917234043221423
21296965 67 18339923706004684400
21524375 3 17396687053032908112
21634736 98 18198902693868387455
21639500 275 18263360450823668727
21731516 1 18270112418406779719
22112679 90 18128275401402068792
2255824 54 18340769367758829711
22802520 49 17822000974381570269
232386 152 16988839501520422639
23388829 49 18340774736842431032
23402539 116 18338237038478943418
23419403 2 15151010153667680840
23598291 2 18201454566119986041
238 59 18191292987093826287
25 1 18191877940001096612
3323516 105 18188218718233284747
34934 24 18194128425533651424
465052 167 18201446904558167847
474 4 18124592247802462688
6049 1 17749103409705773413
6338986 31 18266449915289215386
6992083 37 17986127214006154697
7364860 26 18270114741978688720
74978 22 18341045311361287343
77492 1 17988653999079724147
81228 2 17759506786347589832
84936 182 17914055558087615913

>  <PUBCHEM_SHAPE_MULTIPOLES>  (1) 
339
5.71
2.77
1.25
4.02
2.27
0.13
-3.32
1.17
-2.59
-0.14
0.56
-0.2
-0.58

>  <PUBCHEM_SHAPE_SELFOVERLAP>  (1) 
744.888

>  <PUBCHEM_SHAPE_VOLUME>  (1) 
180.9

>  <PUBCHEM_COORDINATE_TYPE>  (1) 
2
5
10

$$$$
