28579
     RDKit          3D

 12 12  0  0  1  0  0  0  0  0999 V2000
    4.7900   -0.2693   -0.5558 O   0  0  0  0  0  0  0  0  0  0  0  0
    1.4317   -0.0510    0.3434 O   0  0  0  0  0  0  0  0  0  0  0  0
    0.2198    1.8143   -0.2670 O   0  0  0  0  0  0  0  0  0  0  0  0
    3.8091   -0.1999    0.4818 C   0  0  0  0  0  0  0  0  0  0  0  0
    4.0428   -1.4625   -0.2865 C   0  0  0  0  0  0  0  0  0  0  0  0
    2.6489    0.6817    0.1701 C   0  0  0  0  0  0  0  0  0  0  0  0
   -2.2362    0.3837   -0.0684 C   0  0  0  0  0  0  0  0  0  0  0  0
   -3.4260   -0.5576    0.1431 C   0  0  0  0  0  0  0  0  0  0  0  0
   -0.9014   -0.2734    0.2826 C   0  0  0  0  0  0  0  0  0  0  0  0
   -4.7413    0.1162   -0.2482 C   0  0  0  0  0  0  0  0  0  0  0  0
    0.2845    0.6454    0.0881 C   0  0  0  0  0  0  0  0  0  0  0  0
   -5.9218   -0.8277   -0.0831 C   0  0  0  0  0  0  0  0  0  0  0  0
  1  4  1  0
  1  5  1  0
  2  6  1  0
  2 11  1  0
  3 11  2  0
  4  5  1  0
  4  6  1  0
  7  8  1  0
  7  9  1  0
  8 10  1  0
  9 11  1  0
 10 12  1  0
M  END
>  <PUBCHEM_COMPOUND_CID>  (1) 
28579

>  <PUBCHEM_CONFORMER_RMSD>  (1) 
0.8

>  <PUBCHEM_CONFORMER_DIVERSEORDER>  (1) 
1
103
147
2
204
192
233
20
222
209
52
245
7
72
237
22
175
180
135
207
106
15
225
43
143
216
9
201
5
146
45
170
183
241
47
123
139
17
240
19
235
86
190
166
224
36
11
97
217
158
131
202
62
116
126
238
102
78
68
220
239
243
34
193
232
219
100
215
3
112
156
125
33
6
74
197
16
127
21
49
105
134
167
226
41
214
81
4
28
231
144
211
37
8
194
176
200
61
162
230
159
153
54
66
115
185
137
234
236
155
145
182
124
80
152
101
212
25
93
39
179
118
99
29
227
53
60
184
10
12
76
18
228
24
188
181
30
56
171
132
92
50
173
133
35
218
111
174
107
70
117
84
119
69
13
113
114
14
91
161
42
187
148
208
59
242
122
48
169
206
96
199
163
178
168
210
136
165
186
40
23
85
31
73
129
57
191
71
77
142
130
88
149
164
89
177
140
151
38
90
26
120
108
104
63
244
46
157
203
196
64
172
223
141
198
150
51
138
44
79
32
98
189
87
229
95
82
205
65
55
128
121
160
75
213
195
58
94
67
154
83
110
109
221
27

>  <PUBCHEM_MMFF94_PARTIAL_CHARGES>  (1) 
11
1 -0.3
11 0.66
13 0.1
14 0.1
15 0.1
2 -0.43
3 -0.57
4 -0.05
5 -0.05
6 0.38
9 0.06

>  <PUBCHEM_EFFECTIVE_ROTOR_COUNT>  (1) 
7.6

>  <PUBCHEM_PHARMACOPHORE_FEATURES>  (1) 
4
1 1 acceptor
1 12 hydrophobe
1 3 acceptor
4 7 8 9 10 hydrophobe

>  <PUBCHEM_HEAVY_ATOM_COUNT>  (1) 
12

>  <PUBCHEM_ATOM_DEF_STEREO_COUNT>  (1) 
0

>  <PUBCHEM_ATOM_UDEF_STEREO_COUNT>  (1) 
1

>  <PUBCHEM_BOND_DEF_STEREO_COUNT>  (1) 
0

>  <PUBCHEM_BOND_UDEF_STEREO_COUNT>  (1) 
0

>  <PUBCHEM_ISOTOPIC_ATOM_COUNT>  (1) 
0

>  <PUBCHEM_COMPONENT_COUNT>  (1) 
1

>  <PUBCHEM_CACTVS_TAUTO_COUNT>  (1) 
1

>  <PUBCHEM_CONFORMER_ID>  (1) 
00006FA300000001

>  <PUBCHEM_MMFF94_ENERGY>  (1) 
7.6389

>  <PUBCHEM_FEATURE_SELFOVERLAP>  (1) 
20.298

>  <PUBCHEM_SHAPE_FINGERPRINT>  (1) 
11287383 113 12540703617210701065
114248 4 15936411147646819103
12032990 46 18410012126167338744
12714333 28 14707209928641103038
13690532 89 18413107268948539059
14123238 8 18131070441664246711
14251718 22 12901550156998673809
14252887 29 17917437501361906126
14455015 7 18409173220792584179
14911166 2 17821729446501397219
15048467 5 10737278044490245255
15242439 84 17894629271099864963
15477762 27 18410295788052412956
17834072 33 18411701031983490477
17834072 8 18333724711572453629
17834076 25 12468636132132031191
187816 3 17313106340943893336
200 152 18202562878415066729
20605781 2 8214139655304897687
20645477 70 18411982451326313630
20719005 15 18412544310262758355
20724930 37 14189576338379161184
20767249 213 8862939481276623131
212847 35 9727629510473526546
21354914 88 18131353003025012159
22485316 2 18342453759601393222
23402539 116 14979952558877859929
23402655 69 12107781913380195003
23590187 198 17561365093429318351
4047638 21 8430314645596127136
42 15 17775568641390242203
42788 4 18410573989778740841
465052 167 18130793356228898814
522135 26 18333168371341585498
5374978 207 15697996344946792778
57483677 66 18272366490764716239
68521 5 18188206507588800597

>  <PUBCHEM_SHAPE_MULTIPOLES>  (1) 
229.35
12.32
1.19
0.67
7.48
0.11
-0.01
-4.73
1.08
-0.55
0.11
-0.14
-0.02
0.22

>  <PUBCHEM_SHAPE_SELFOVERLAP>  (1) 
430.638

>  <PUBCHEM_SHAPE_VOLUME>  (1) 
143.4

>  <PUBCHEM_COORDINATE_TYPE>  (1) 
2
5
10

$$$$
