28570
     RDKit          3D

 11 12  0  0  1  0  0  0  0  0999 V2000
    1.8312   -0.0186    1.4783 S   0  0  0  0  0  0  0  0  0  0  0  0
    1.1702   -0.1133   -1.4360 S   0  0  0  0  0  0  0  0  0  0  0  0
    0.4682    0.1652    0.2489 C   0  0  0  0  0  0  0  0  0  0  0  0
   -0.6124   -0.8883    0.5601 C   0  0  0  0  0  0  0  0  0  0  0  0
   -1.9089   -0.6894   -0.2490 C   0  0  0  0  0  0  0  0  0  0  0  0
   -0.1012    1.5910    0.3551 C   0  0  0  0  0  0  0  0  0  0  0  0
   -2.4431    0.7384   -0.0813 C   0  0  0  0  0  0  0  0  0  0  0  0
   -1.3937    1.7858   -0.4424 C   0  0  0  0  0  0  0  0  0  0  0  0
   -2.9659   -1.7096    0.1750 C   0  0  0  0  0  0  0  0  0  0  0  0
    3.2059   -0.0422    0.3029 C   0  0  0  0  0  0  0  0  0  0  0  0
    2.7498   -0.8191   -0.9116 C   0  0  0  0  0  0  0  0  0  0  0  0
  1  3  1  0
  1 10  1  0
  2  3  1  0
  2 11  1  0
  3  4  1  0
  3  6  1  0
  4  5  1  0
  5  7  1  0
  5  9  1  0
  6  8  1  0
  7  8  1  0
 10 11  1  0
M  END
>  <PUBCHEM_COMPOUND_CID>  (1) 
28570

>  <PUBCHEM_CONFORMER_RMSD>  (1) 
0.4

>  <PUBCHEM_CONFORMER_DIVERSEORDER>  (1) 
1
2
3
5
6
4

>  <PUBCHEM_MMFF94_PARTIAL_CHARGES>  (1) 
5
1 -0.46
10 0.23
11 0.23
2 -0.46
3 0.46

>  <PUBCHEM_EFFECTIVE_ROTOR_COUNT>  (1) 
1.8

>  <PUBCHEM_PHARMACOPHORE_FEATURES>  (1) 
2
5 1 2 3 10 11 rings
6 3 4 5 6 7 8 rings

>  <PUBCHEM_HEAVY_ATOM_COUNT>  (1) 
11

>  <PUBCHEM_ATOM_DEF_STEREO_COUNT>  (1) 
0

>  <PUBCHEM_ATOM_UDEF_STEREO_COUNT>  (1) 
1

>  <PUBCHEM_BOND_DEF_STEREO_COUNT>  (1) 
0

>  <PUBCHEM_BOND_UDEF_STEREO_COUNT>  (1) 
0

>  <PUBCHEM_ISOTOPIC_ATOM_COUNT>  (1) 
0

>  <PUBCHEM_COMPONENT_COUNT>  (1) 
1

>  <PUBCHEM_CACTVS_TAUTO_COUNT>  (1) 
1

>  <PUBCHEM_CONFORMER_ID>  (1) 
00006F9A00000001

>  <PUBCHEM_MMFF94_ENERGY>  (1) 
18.3407

>  <PUBCHEM_FEATURE_SELFOVERLAP>  (1) 
10.15

>  <PUBCHEM_SHAPE_FINGERPRINT>  (1) 
10857977 72 18271800250333141385
12138202 97 18269263573939339876
12423570 1 9629530111863570392
12716758 59 18267868272198169350
12932764 1 17749389226425246524
14128692 85 17968096468581878029
14817 1 12585700670884194444
14993402 34 16950564376486709942
15219456 202 17989483022278199160
15775835 57 17458632155420489884
16945 1 18263353716246578145
17844478 74 17917713508670902752
18175812 5 17917705812163439268
20201158 50 17774721948601444086
20645477 70 17688582085072862167
20711983 138 17917716747097323603
20711985 344 18336263462124489193
20715346 28 17989196070943827554
20871998 184 18343864424540736807
20871998 22 18268715076904427043
21040471 1 18048027480919253833
21061003 4 16773524286968241038
21930827 45 18198341762601978865
22802520 49 18129389189474600422
23552423 10 17968660535258626685
23557571 272 18341901804948931004
23559900 14 18269552737851924462
2748010 2 18264755739959641677
29004967 10 17132116818685805512
369184 2 18342175518734965532
5084963 1 18131070454396187394
63268167 104 15936413342559684894
6333449 129 18342736273859943293
77492 1 17385724664637461032
8030462 33 17530964683036217866
81228 2 18410857625224624625

>  <PUBCHEM_SHAPE_MULTIPOLES>  (1) 
234.07
4.53
1.61
1.23
0.59
0.31
-0.04
-1.47
-0.05
-1.27
-0.03
0.83
-0.07
0.39

>  <PUBCHEM_SHAPE_SELFOVERLAP>  (1) 
440.956

>  <PUBCHEM_SHAPE_VOLUME>  (1) 
144.1

>  <PUBCHEM_COORDINATE_TYPE>  (1) 
2
5
10

$$$$
