28578
     RDKit          3D

 22 24  0  0  0  0  0  0  0  0999 V2000
    4.2533    0.4303   -0.4704 O   0  0  0  0  0  0  0  0  0  0  0  0
    1.5268    1.9817    0.6884 O   0  0  0  0  0  0  0  0  0  0  0  0
    2.9132   -2.5635    0.3742 O   0  0  0  0  0  0  0  0  0  0  0  0
   -0.9768    2.4711    0.3948 O   0  0  0  0  0  0  0  0  0  0  0  0
   -2.0653   -2.7111   -0.3255 O   0  0  0  0  0  0  0  0  0  0  0  0
   -0.1280    0.2677    0.2707 C   0  0  0  0  0  0  0  0  0  0  0  0
   -0.4196   -1.0847    0.0810 C   0  0  0  0  0  0  0  0  0  0  0  0
    2.2161   -0.2762    0.5331 C   0  0  0  0  0  0  0  0  0  0  0  0
    1.1932    0.6719    0.4974 C   0  0  0  0  0  0  0  0  0  0  0  0
   -2.5938    0.8383   -0.0064 C   0  0  0  0  0  0  0  0  0  0  0  0
   -2.8855   -0.5141   -0.1959 C   0  0  0  0  0  0  0  0  0  0  0  0
   -1.2043    1.2787    0.2337 C   0  0  0  0  0  0  0  0  0  0  0  0
   -1.8091   -1.5251   -0.1588 C   0  0  0  0  0  0  0  0  0  0  0  0
    0.6099   -2.0328    0.1171 C   0  0  0  0  0  0  0  0  0  0  0  0
    1.9250   -1.6256    0.3430 C   0  0  0  0  0  0  0  0  0  0  0  0
    3.6295    0.1502    0.7750 C   0  0  0  0  0  0  0  0  0  0  0  0
   -3.6230    1.7866   -0.0445 C   0  0  0  0  0  0  0  0  0  0  0  0
   -4.2066   -0.9182   -0.4231 C   0  0  0  0  0  0  0  0  0  0  0  0
   -4.9382    1.3796   -0.2709 C   0  0  0  0  0  0  0  0  0  0  0  0
   -5.2294    0.0301   -0.4597 C   0  0  0  0  0  0  0  0  0  0  0  0
    5.6028    0.8413   -0.2977 C   0  0  0  0  0  0  0  0  0  0  0  0
    6.2099    1.1239   -1.6555 C   0  0  0  0  0  0  0  0  0  0  0  0
  1 16  1  0
  1 21  1  0
  2  9  1  0
  3 15  1  0
  4 12  2  0
  5 13  2  0
  6  7  2  0
  6  9  1  0
  6 12  1  0
  7 13  1  0
  7 14  1  0
  8  9  2  0
  8 15  1  0
  8 16  1  0
 10 11  2  0
 10 12  1  0
 10 17  1  0
 11 13  1  0
 11 18  1  0
 14 15  2  0
 17 19  2  0
 18 20  2  0
 19 20  1  0
 21 22  1  0
M  END
>  <PUBCHEM_COMPOUND_CID>  (1) 
28578

>  <PUBCHEM_CONFORMER_RMSD>  (1) 
0.6

>  <PUBCHEM_CONFORMER_DIVERSEORDER>  (1) 
1
6
4
5
2
3

>  <PUBCHEM_MMFF94_PARTIAL_CHARGES>  (1) 
28
1 -0.56
10 0.09
11 0.09
12 0.4
13 0.4
14 -0.15
15 0.08
16 0.42
17 -0.15
18 -0.15
19 -0.15
2 -0.53
20 -0.15
21 0.28
23 0.15
26 0.15
27 0.15
28 0.15
29 0.15
3 -0.53
30 0.45
33 0.45
4 -0.57
5 -0.57
6 0.09
7 0.09
8 -0.14
9 0.08

>  <PUBCHEM_EFFECTIVE_ROTOR_COUNT>  (1) 
3

>  <PUBCHEM_PHARMACOPHORE_FEATURES>  (1) 
8
1 1 acceptor
1 2 donor
1 3 donor
1 4 acceptor
1 5 acceptor
6 10 11 17 18 19 20 rings
6 6 7 10 11 12 13 rings
6 6 7 8 9 14 15 rings

>  <PUBCHEM_HEAVY_ATOM_COUNT>  (1) 
22

>  <PUBCHEM_ATOM_DEF_STEREO_COUNT>  (1) 
0

>  <PUBCHEM_ATOM_UDEF_STEREO_COUNT>  (1) 
0

>  <PUBCHEM_BOND_DEF_STEREO_COUNT>  (1) 
0

>  <PUBCHEM_BOND_UDEF_STEREO_COUNT>  (1) 
0

>  <PUBCHEM_ISOTOPIC_ATOM_COUNT>  (1) 
0

>  <PUBCHEM_COMPONENT_COUNT>  (1) 
1

>  <PUBCHEM_CACTVS_TAUTO_COUNT>  (1) 
12

>  <PUBCHEM_CONFORMER_ID>  (1) 
00006FA200000001

>  <PUBCHEM_MMFF94_ENERGY>  (1) 
65.3447

>  <PUBCHEM_FEATURE_SELFOVERLAP>  (1) 
40.639

>  <PUBCHEM_SHAPE_FINGERPRINT>  (1) 
10411042 1 16539889865153932279
10498660 4 18411419501451909556
10616163 171 18340763844832248831
10730089 173 18410577297135829908
10759866 29 18261108530893681490
10906281 52 18341343197318189867
10967382 1 18412536596612349139
11578080 2 17387960993762753573
12011746 2 18343579651087145509
12236239 1 17894629275305193812
12390115 104 18130517323186826713
12403814 3 17603858988564819709
12670543 26 18272376356436100382
12788726 201 17845938411844038297
12954195 1 17845670148582271000
13140716 1 18196073650428527385
14528608 73 18408886256805477676
14617045 38 18411422817087339515
14790565 3 18268716017312744241
15183329 4 18337403665132271126
15196674 1 18339918213126732203
15536298 74 18271799078155443699
15575132 122 17894631431052314380
1601671 61 18409163312118298812
16945 1 18340756104984306763
21267235 1 18341614880043967039
21637258 2 14692295006756434388
23175994 123 16773799233278268265
23402539 116 18271517667270777341
23559900 14 18055624019667314666
25147074 1 18268716000559558610
2748010 2 18052525866218703539
296302 2 17676487233152877555
3004659 81 18336547128220472414
335352 9 18052812560092420735
34934 24 18411410713521593146
350125 39 18411698769279790217
3759504 43 17894916264677437330
4340502 62 16732989691214171329
474 4 17603591850341878172
5104073 3 18339636738118503899
59755656 215 18341618079968656766
59755656 520 17167861985040046978
9709674 26 18413385436911779735

>  <PUBCHEM_SHAPE_MULTIPOLES>  (1) 
423.4
11.3
2.47
0.86
8.11
0.76
0.17
-4.45
4.24
-0.33
-0.09
0.91
-0.18
-0.87

>  <PUBCHEM_SHAPE_SELFOVERLAP>  (1) 
939.128

>  <PUBCHEM_SHAPE_VOLUME>  (1) 
226.2

>  <PUBCHEM_COORDINATE_TYPE>  (1) 
2
5
10

$$$$
