28577
     RDKit          3D

 21 24  0  0  0  0  0  0  0  0999 V2000
   -0.0705    3.0826   -0.8077 O   0  0  0  0  0  0  0  0  0  0  0  0
    0.4752   -0.0664    0.0453 C   0  0  0  0  0  0  0  0  0  0  0  0
    0.0143   -1.4036   -0.0325 C   0  0  0  0  0  0  0  0  0  0  0  0
   -1.3625   -1.6876   -0.0484 C   0  0  0  0  0  0  0  0  0  0  0  0
   -2.3249   -0.6708    0.0113 C   0  0  0  0  0  0  0  0  0  0  0  0
   -0.5168    0.9457    0.1048 C   0  0  0  0  0  0  0  0  0  0  0  0
   -1.8968    0.6668    0.0892 C   0  0  0  0  0  0  0  0  0  0  0  0
    1.8934    0.1883    0.0595 C   0  0  0  0  0  0  0  0  0  0  0  0
    2.7946   -0.9064   -0.0048 C   0  0  0  0  0  0  0  0  0  0  0  0
    0.9326   -2.4553   -0.0943 C   0  0  0  0  0  0  0  0  0  0  0  0
    2.3016   -2.2108   -0.0807 C   0  0  0  0  0  0  0  0  0  0  0  0
   -1.8267   -3.1186   -0.1318 C   0  0  0  0  0  0  0  0  0  0  0  0
   -3.7010   -0.9562   -0.0046 C   0  0  0  0  0  0  0  0  0  0  0  0
   -2.8575    1.6913    0.1495 C   0  0  0  0  0  0  0  0  0  0  0  0
    2.4702    1.4812    0.1347 C   0  0  0  0  0  0  0  0  0  0  0  0
    4.1836   -0.6925    0.0071 C   0  0  0  0  0  0  0  0  0  0  0  0
   -0.2102    2.3726    0.1870 C   0  0  0  0  0  0  0  0  0  0  0  0
   -4.6421    0.0713    0.0558 C   0  0  0  0  0  0  0  0  0  0  0  0
   -4.2206    1.3946    0.1329 C   0  0  0  0  0  0  0  0  0  0  0  0
    3.8535    1.6805    0.1457 C   0  0  0  0  0  0  0  0  0  0  0  0
    4.7106    0.5930    0.0818 C   0  0  0  0  0  0  0  0  0  0  0  0
  1 17  2  0
  2  3  1  0
  2  6  2  0
  2  8  1  0
  3  4  2  0
  3 10  1  0
  4  5  1  0
  4 12  1  0
  5  7  2  0
  5 13  1  0
  6  7  1  0
  6 17  1  0
  7 14  1  0
  8  9  2  0
  8 15  1  0
  9 11  1  0
  9 16  1  0
 10 11  2  0
 13 18  2  0
 14 19  2  0
 15 20  2  0
 16 21  2  0
 18 19  1  0
 20 21  1  0
M  END
>  <PUBCHEM_COMPOUND_CID>  (1) 
28577

>  <PUBCHEM_CONFORMER_RMSD>  (1) 
0.6

>  <PUBCHEM_CONFORMER_DIVERSEORDER>  (1) 
1

>  <PUBCHEM_MMFF94_PARTIAL_CHARGES>  (1) 
26
1 -0.57
10 -0.15
11 -0.15
12 0.14
13 -0.15
14 -0.15
15 -0.15
16 -0.15
17 0.42
18 -0.15
19 -0.15
20 -0.15
21 -0.15
22 0.15
23 0.15
27 0.15
28 0.15
29 0.15
30 0.15
31 0.06
32 0.15
33 0.15
34 0.15
35 0.15
4 -0.14
6 0.09

>  <PUBCHEM_EFFECTIVE_ROTOR_COUNT>  (1) 
1

>  <PUBCHEM_PHARMACOPHORE_FEATURES>  (1) 
5
1 1 acceptor
6 2 3 4 5 6 7 rings
6 2 3 8 9 10 11 rings
6 5 7 13 14 18 19 rings
6 8 9 15 16 20 21 rings

>  <PUBCHEM_HEAVY_ATOM_COUNT>  (1) 
21

>  <PUBCHEM_ATOM_DEF_STEREO_COUNT>  (1) 
0

>  <PUBCHEM_ATOM_UDEF_STEREO_COUNT>  (1) 
0

>  <PUBCHEM_BOND_DEF_STEREO_COUNT>  (1) 
0

>  <PUBCHEM_BOND_UDEF_STEREO_COUNT>  (1) 
0

>  <PUBCHEM_ISOTOPIC_ATOM_COUNT>  (1) 
0

>  <PUBCHEM_COMPONENT_COUNT>  (1) 
1

>  <PUBCHEM_CACTVS_TAUTO_COUNT>  (1) 
1

>  <PUBCHEM_CONFORMER_ID>  (1) 
00006FA100000001

>  <PUBCHEM_MMFF94_ENERGY>  (1) 
102.0864

>  <PUBCHEM_FEATURE_SELFOVERLAP>  (1) 
25.446

>  <PUBCHEM_SHAPE_FINGERPRINT>  (1) 
10411042 1 16609980436921037439
10493431 412 18413395328252766913
10498660 4 18409449141880572468
10608611 8 18411135805539042618
10616163 171 18339926029540241806
10967382 1 18411136917935565778
1100329 8 18267306619594208697
11112241 14 16340866637558854416
11132069 177 18411976983764159792
11578080 2 13612593283893669393
12011746 2 18411698785689227541
12236239 1 17821727265153915304
12403259 226 18121215377284494182
12403814 3 17748821921506667845
12838862 33 18338778083518893416
13132413 78 18412263973378684253
13140716 1 18410847802713325746
138480 1 17691125929002274407
14178342 30 18123172752557610418
14223421 5 18194119620892593668
14790565 3 18411427176363821457
15196674 1 18411419501003289306
15536298 74 18343303630560612566
16945 1 18194116317967946798
19591789 44 18410855430211350139
20510252 161 18271808960706432473
20642791 178 17972044905121978964
20715895 44 17829598466739023117
20739085 24 18049190807429849809
21029758 11 18343015614686521657
21267235 1 18411428305697146395
21421861 104 17970342612182364394
23227448 37 18341330080050413079
2334 1 18267021841887711634
23402539 116 18342730827788677718
23559900 14 18271806757873830774
238 59 16238399416302367933
2748010 2 18411425007199088959
335352 9 18339643330919715366
34934 24 18409725175096932106
350125 39 18122346783439623992
474 4 17894635893770623844
5104073 3 18410293583916695394
59755656 215 18342181025653432558
69090 78 18412260631820281187
7364860 26 18270401568959702702
7832392 63 18411416258445671998
9709674 26 18341900683751892614

>  <PUBCHEM_SHAPE_MULTIPOLES>  (1) 
426.3
8.05
3.13
0.64
0.68
0.43
0.01
-1.63
-0.34
-0.3
0.27
0
-0.07
-0.01

>  <PUBCHEM_SHAPE_SELFOVERLAP>  (1) 
979.481

>  <PUBCHEM_SHAPE_VOLUME>  (1) 
221.5

>  <PUBCHEM_COORDINATE_TYPE>  (1) 
2
5
10

$$$$
