28580
     RDKit          3D

 18 18  0  0  0  0  0  0  0  0999 V2000
   -4.9039   -3.1554   -0.2020 Cl  0  0  0  0  0  0  0  0  0  0  0  0
   -3.9048    3.8837   -0.2039 Cl  0  0  0  0  0  0  0  0  0  0  0  0
    2.9719   -0.6810    0.4383 O   0  0  0  0  0  0  0  0  0  0  0  0
    5.9167    1.2039   -0.3650 O   0  0  0  0  0  0  0  0  0  0  0  0
    5.4757   -1.0201   -0.5812 O   0  0  0  0  0  0  0  0  0  0  0  0
   -2.5152    0.0962   -0.0236 N   0  0  0  0  0  0  0  0  0  0  0  0
   -3.3577   -0.9370   -0.5924 C   0  0  0  0  0  0  0  0  0  0  0  0
   -3.1190    1.3403    0.4104 C   0  0  0  0  0  0  0  0  0  0  0  0
   -1.1236   -0.1014    0.0937 C   0  0  0  0  0  0  0  0  0  0  0  0
   -0.3197    0.9043    0.6302 C   0  0  0  0  0  0  0  0  0  0  0  0
   -0.5513   -1.3019   -0.3270 C   0  0  0  0  0  0  0  0  0  0  0  0
   -3.8584   -1.8869    0.4843 C   0  0  0  0  0  0  0  0  0  0  0  0
   -3.1548    2.3536   -0.7228 C   0  0  0  0  0  0  0  0  0  0  0  0
    1.0567    0.7096    0.7458 C   0  0  0  0  0  0  0  0  0  0  0  0
    0.8251   -1.4966   -0.2112 C   0  0  0  0  0  0  0  0  0  0  0  0
    1.6290   -0.4909    0.3252 C   0  0  0  0  0  0  0  0  0  0  0  0
    3.8016    0.4761    0.3474 C   0  0  0  0  0  0  0  0  0  0  0  0
    5.1318    0.1035   -0.2464 C   0  0  0  0  0  0  0  0  0  0  0  0
  1 12  1  0
  2 13  1  0
  3 16  1  0
  3 17  1  0
  4 18  1  0
  5 18  2  0
  6  7  1  0
  6  8  1  0
  6  9  1  0
  7 12  1  0
  8 13  1  0
  9 10  2  0
  9 11  1  0
 10 14  1  0
 11 15  2  0
 14 16  2  0
 15 16  1  0
 17 18  1  0
M  END
>  <PUBCHEM_COMPOUND_CID>  (1) 
28580

>  <PUBCHEM_CONFORMER_RMSD>  (1) 
0.8

>  <PUBCHEM_CONFORMER_DIVERSEORDER>  (1) 
3
48
14
29
13
32
22
69
40
62
26
67
17
65
41
28
10
34
51
19
57
36
61
54
24
37
15
53
38
58
12
31
44
30
18
39
6
23
70
43
59
64
35
56
2
60
33
46
25
11
68
66
50
7
16
21
55
63
27
5
4
45
20
1
42
9
49
8
52
47

>  <PUBCHEM_MMFF94_PARTIAL_CHARGES>  (1) 
23
1 -0.29
10 -0.15
11 -0.15
12 0.29
13 0.29
14 -0.15
15 -0.15
16 0.08
17 0.34
18 0.66
2 -0.29
23 0.15
24 0.15
29 0.15
3 -0.36
30 0.15
33 0.5
4 -0.65
5 -0.57
6 -0.84
7 0.37
8 0.37
9 0.1

>  <PUBCHEM_EFFECTIVE_ROTOR_COUNT>  (1) 
8

>  <PUBCHEM_PHARMACOPHORE_FEATURES>  (1) 
6
1 3 acceptor
1 4 acceptor
1 5 acceptor
1 6 cation
3 4 5 18 anion
6 9 10 11 14 15 16 rings

>  <PUBCHEM_HEAVY_ATOM_COUNT>  (1) 
18

>  <PUBCHEM_ATOM_DEF_STEREO_COUNT>  (1) 
0

>  <PUBCHEM_ATOM_UDEF_STEREO_COUNT>  (1) 
0

>  <PUBCHEM_BOND_DEF_STEREO_COUNT>  (1) 
0

>  <PUBCHEM_BOND_UDEF_STEREO_COUNT>  (1) 
0

>  <PUBCHEM_ISOTOPIC_ATOM_COUNT>  (1) 
0

>  <PUBCHEM_COMPONENT_COUNT>  (1) 
1

>  <PUBCHEM_CACTVS_TAUTO_COUNT>  (1) 
1

>  <PUBCHEM_CONFORMER_ID>  (1) 
00006FA400000003

>  <PUBCHEM_MMFF94_ENERGY>  (1) 
55.3766

>  <PUBCHEM_FEATURE_SELFOVERLAP>  (1) 
30.508

>  <PUBCHEM_SHAPE_FINGERPRINT>  (1) 
10680689 15 18335708229894853289
10912923 1 17821722828341864240
11056379 131 18410013247539204255
12107183 9 17829035516737739682
12390115 104 18126857001881227329
12403259 226 18199180861994333481
12403259 415 18131626811817753672
12788726 201 18261102011418358139
13073987 5 18408316697208461906
13760787 19 18188487978032712442
14508225 48 18266447880207940533
15196674 1 18412545397290397866
15778101 99 18338802212776946708
16087824 20 18410008807735120797
17834072 32 18336827464013160380
17844677 252 18409737274578792188
18186145 218 17703781527107421576
19427546 20 18335137605309933053
20101258 96 18335990865146158929
20645477 56 18337391514037170721
20871999 31 18410570686616639288
21267235 1 18270407212167012338
21426921 1 18410009936287834221
23402539 116 18187642544217951167
23557571 272 18343023259454054093
23559900 14 18338786935952561569
283562 15 18334573564603851011
350125 39 18341053007816159289
5104073 3 18343861100557920666
56616090 163 18268431226721202413
59554788 170 18197492042288290225
77188 2 18121780806156790229
7808743 9 18335980848792112777
90127 26 18261684722668821008

>  <PUBCHEM_SHAPE_MULTIPOLES>  (1) 
351.58
11.85
3.35
0.79
14.97
1.92
0.01
-0.65
-1.9
-7.8
-0.45
-0.07
0.06
0.35

>  <PUBCHEM_SHAPE_SELFOVERLAP>  (1) 
690.483

>  <PUBCHEM_SHAPE_VOLUME>  (1) 
213.6

>  <PUBCHEM_COORDINATE_TYPE>  (1) 
2
5
10

$$$$
