28594
     RDKit          3D

 15 16  0  0  1  0  0  0  0  0999 V2000
   -3.3963   -2.5437    0.2438 O   0  0  0  0  0  0  0  0  0  0  0  0
    3.4137   -2.5262   -0.2351 O   0  0  0  0  0  0  0  0  0  0  0  0
   -1.7373    0.5030    0.0400 O   0  0  0  0  0  0  0  0  0  0  0  0
    1.7344    0.5100   -0.0445 O   0  0  0  0  0  0  0  0  0  0  0  0
   -0.0058    2.2300   -0.0006 C   0  0  0  0  0  0  0  0  0  0  0  0
   -3.4406   -1.1518   -0.0793 C   0  0  0  0  0  0  0  0  0  0  0  0
    3.4516   -1.1304    0.0713 C   0  0  0  0  0  0  0  0  0  0  0  0
   -0.9354    1.3460    0.8577 C   0  0  0  0  0  0  0  0  0  0  0  0
    0.9153    1.3376   -0.8617 C   0  0  0  0  0  0  0  0  0  0  0  0
   -2.7897   -2.1432   -0.9917 C   0  0  0  0  0  0  0  0  0  0  0  0
    2.8204   -2.1160    1.0037 C   0  0  0  0  0  0  0  0  0  0  0  0
   -2.6240   -0.2879    0.8193 C   0  0  0  0  0  0  0  0  0  0  0  0
    2.6167   -0.2831   -0.8261 C   0  0  0  0  0  0  0  0  0  0  0  0
    0.8496    3.1323    0.9091 C   0  0  0  0  0  0  0  0  0  0  0  0
   -0.8728    3.1236   -0.9058 C   0  0  0  0  0  0  0  0  0  0  0  0
  1  6  1  0
  1 10  1  0
  2  7  1  0
  2 11  1  0
  3  8  1  0
  3 12  1  0
  4  9  1  0
  4 13  1  0
  5  8  1  0
  5  9  1  0
  5 14  1  0
  5 15  1  0
  6 10  1  0
  6 12  1  0
  7 11  1  0
  7 13  1  0
M  END
>  <PUBCHEM_COMPOUND_CID>  (1) 
28594

>  <PUBCHEM_CONFORMER_RMSD>  (1) 
0.8

>  <PUBCHEM_CONFORMER_DIVERSEORDER>  (1) 
3
29
47
67
37
42
18
40
50
11
62
49
16
5
52
44
66
24
53
38
13
9
68
34
22
41
43
15
20
54
12
23
36
25
7
48
59
46
26
6
30
61
63
19
35
27
8
56
45
65
58
60
10
64
2
31
17
28
51
33
21
57
1
14
39
32
55
4

>  <PUBCHEM_MMFF94_PARTIAL_CHARGES>  (1) 
18
1 -0.3
10 -0.05
11 -0.05
12 0.38
13 0.38
16 0.1
17 0.1
2 -0.3
22 0.1
23 0.1
24 0.1
25 0.1
3 -0.56
4 -0.56
6 -0.05
7 -0.05
8 0.28
9 0.28

>  <PUBCHEM_EFFECTIVE_ROTOR_COUNT>  (1) 
9.2

>  <PUBCHEM_PHARMACOPHORE_FEATURES>  (1) 
5
1 1 acceptor
1 2 acceptor
1 3 acceptor
1 4 acceptor
3 5 14 15 hydrophobe

>  <PUBCHEM_HEAVY_ATOM_COUNT>  (1) 
15

>  <PUBCHEM_ATOM_DEF_STEREO_COUNT>  (1) 
0

>  <PUBCHEM_ATOM_UDEF_STEREO_COUNT>  (1) 
2

>  <PUBCHEM_BOND_DEF_STEREO_COUNT>  (1) 
0

>  <PUBCHEM_BOND_UDEF_STEREO_COUNT>  (1) 
0

>  <PUBCHEM_ISOTOPIC_ATOM_COUNT>  (1) 
0

>  <PUBCHEM_COMPONENT_COUNT>  (1) 
1

>  <PUBCHEM_CACTVS_TAUTO_COUNT>  (1) 
1

>  <PUBCHEM_CONFORMER_ID>  (1) 
00006FB200000003

>  <PUBCHEM_MMFF94_ENERGY>  (1) 
35.8025

>  <PUBCHEM_FEATURE_SELFOVERLAP>  (1) 
25.374

>  <PUBCHEM_SHAPE_FINGERPRINT>  (1) 
11321824 6 17903348213033912154
12553582 1 18410866459539783631
12715332 25 18192994816609243029
13083527 12 18262501706905595384
13931106 250 18119234069873356372
14251705 54 18410576231488587827
14787075 74 18196665192828992628
15375462 189 18267603440341095593
20291156 8 18410579487004992546
20442098 301 18120659028854302810
20621476 51 18122048819857435954
20645477 70 17975965781304229423
20724930 33 18338237055310172270
2255824 54 17904489845590686805
23530152 11 17040078104658078901
23598291 2 18126591100207492209
23728640 28 17760080722658464818
257057 1 18410571786128364492
4175511 335 17899986224419908509
603831 33 18114761334482192934
6338986 31 18409448089539582329
85463 6 18268696251994469670

>  <PUBCHEM_SHAPE_MULTIPOLES>  (1) 
285.22
6.17
4.16
1.06
0.1
1.48
0
-7.47
0.02
-0.06
0.01
0.01
0.16
-0.35

>  <PUBCHEM_SHAPE_SELFOVERLAP>  (1) 
551.288

>  <PUBCHEM_SHAPE_VOLUME>  (1) 
175.8

>  <PUBCHEM_COORDINATE_TYPE>  (1) 
2
5
10

$$$$
