28599
     RDKit          3D

 20 24  0  0  0  0  0  0  0  0999 V2000
    0.3050    0.2175   -0.0301 C   0  0  0  0  0  0  0  0  0  0  0  0
   -0.6435   -0.8407   -0.0634 C   0  0  0  0  0  0  0  0  0  0  0  0
   -2.4437    0.8327   -0.0841 C   0  0  0  0  0  0  0  0  0  0  0  0
   -2.0332   -0.5185   -0.0974 C   0  0  0  0  0  0  0  0  0  0  0  0
    1.7014   -0.0557    0.0030 C   0  0  0  0  0  0  0  0  0  0  0  0
   -0.1259    1.5650   -0.0314 C   0  0  0  0  0  0  0  0  0  0  0  0
   -3.9078    1.1961   -0.1748 C   0  0  0  0  0  0  0  0  0  0  0  0
   -1.4918    1.8556   -0.0623 C   0  0  0  0  0  0  0  0  0  0  0  0
    2.1650   -1.3894    0.0079 C   0  0  0  0  0  0  0  0  0  0  0  0
    2.6405    1.0042    0.0314 C   0  0  0  0  0  0  0  0  0  0  0  0
   -4.8222    0.1335    0.4352 C   0  0  0  0  0  0  0  0  0  0  0  0
   -0.1347   -2.1598   -0.0520 C   0  0  0  0  0  0  0  0  0  0  0  0
   -3.0905   -1.5498   -0.1602 C   0  0  0  0  0  0  0  0  0  0  0  0
    0.8171    2.6009   -0.0038 C   0  0  0  0  0  0  0  0  0  0  0  0
    1.2356   -2.4291   -0.0185 C   0  0  0  0  0  0  0  0  0  0  0  0
   -4.3707   -1.2535    0.1032 C   0  0  0  0  0  0  0  0  0  0  0  0
    2.1825    2.3249    0.0272 C   0  0  0  0  0  0  0  0  0  0  0  0
    3.5432   -1.6489    0.0402 C   0  0  0  0  0  0  0  0  0  0  0  0
    4.0130    0.7168    0.0629 C   0  0  0  0  0  0  0  0  0  0  0  0
    4.4605   -0.6017    0.0671 C   0  0  0  0  0  0  0  0  0  0  0  0
  1  2  1  0
  1  5  2  0
  1  6  1  0
  2  4  2  0
  2 12  1  0
  3  4  1  0
  3  7  1  0
  3  8  2  0
  4 13  1  0
  5  9  1  0
  5 10  1  0
  6  8  1  0
  6 14  2  0
  7 11  1  0
  9 15  1  0
  9 18  2  0
 10 17  2  0
 10 19  1  0
 11 16  1  0
 12 15  2  0
 13 16  2  0
 14 17  1  0
 18 20  1  0
 19 20  2  0
M  END
>  <PUBCHEM_COMPOUND_CID>  (1) 
28599

>  <PUBCHEM_CONFORMER_RMSD>  (1) 
0.6

>  <PUBCHEM_CONFORMER_DIVERSEORDER>  (1) 
1

>  <PUBCHEM_MMFF94_PARTIAL_CHARGES>  (1) 
24
11 0.14
12 -0.15
13 -0.18
14 -0.15
15 -0.15
16 -0.29
17 -0.15
18 -0.15
19 -0.15
20 -0.15
23 0.15
26 0.15
27 0.15
28 0.15
29 0.15
3 -0.14
30 0.15
31 0.15
32 0.15
33 0.15
34 0.15
4 0.03
7 0.14
8 -0.15

>  <PUBCHEM_EFFECTIVE_ROTOR_COUNT>  (1) 
0.4

>  <PUBCHEM_PHARMACOPHORE_FEATURES>  (1) 
5
6 1 2 3 4 6 8 rings
6 1 2 5 9 12 15 rings
6 1 5 6 10 14 17 rings
6 3 4 7 11 13 16 rings
6 5 9 10 18 19 20 rings

>  <PUBCHEM_HEAVY_ATOM_COUNT>  (1) 
20

>  <PUBCHEM_ATOM_DEF_STEREO_COUNT>  (1) 
0

>  <PUBCHEM_ATOM_UDEF_STEREO_COUNT>  (1) 
0

>  <PUBCHEM_BOND_DEF_STEREO_COUNT>  (1) 
0

>  <PUBCHEM_BOND_UDEF_STEREO_COUNT>  (1) 
0

>  <PUBCHEM_ISOTOPIC_ATOM_COUNT>  (1) 
0

>  <PUBCHEM_COMPONENT_COUNT>  (1) 
1

>  <PUBCHEM_CACTVS_TAUTO_COUNT>  (1) 
1

>  <PUBCHEM_CONFORMER_ID>  (1) 
00006FB700000001

>  <PUBCHEM_MMFF94_ENERGY>  (1) 
66.9718

>  <PUBCHEM_FEATURE_SELFOVERLAP>  (1) 
25.524

>  <PUBCHEM_SHAPE_FINGERPRINT>  (1) 
10062212 137 18341043090673200263
10411042 1 18050568443770356870
10616163 171 18411983572365395455
10967382 1 18410855464444228126
1100329 8 18338232794871699218
11132069 177 18410849945406017112
11471102 20 18410570691048698293
11578080 2 17344597484088774305
11680986 33 18191310587547577682
11806522 49 18409449189051203653
12011746 2 18410295800436265614
12236239 1 17775286071566155671
12403259 226 18408598158477578028
12553582 1 18338226077104699399
13132413 78 18413388713618022125
13140716 1 18050279572985615016
13221675 6 18411135827056200559
138480 1 18410574011143502572
13862211 1 18410287000011729290
14178342 30 18124024642547429096
14790565 3 18265624362614810820
15042514 8 17833546796014632626
15196674 1 18410573989451699692
15230672 131 13290523891922374387
15442244 35 18411983529225772969
15536298 74 18343020007947162648
1601671 61 18412546483400133104
16945 1 17978508633412369750
1813 80 17385444319021190212
19591789 44 18338797934978859975
200 152 18202558493322022711
20028762 73 18129940203931139463
20739085 24 18190201094843677697
20905425 154 18124314904932047726
21267235 1 18411145718345011574
21421861 104 17825385176439907035
221490 88 18335989769401769683
2334 1 18410853252863105324
23402539 116 18342729720067111814
23463225 33 18409729560253032716
23559900 14 18412258411649152360
2748010 2 18339072701422142388
2871803 45 18335697221983500127
335352 9 18338797806340591237
34934 24 18337946775814113103
350125 39 18410014350976618581
3680242 22 18262518061528869538
5104073 3 18411136939489543969
7364860 26 18413108385223298093
8809292 202 18260552238086698043
9709674 26 18410016550195124355
9981440 41 17402041696240717296

>  <PUBCHEM_SHAPE_MULTIPOLES>  (1) 
411.59
8.12
2.73
0.63
3.36
0.29
0
-1.12
-0.5
-0.8
0.05
0.06
0
0.03

>  <PUBCHEM_SHAPE_SELFOVERLAP>  (1) 
960.204

>  <PUBCHEM_SHAPE_VOLUME>  (1) 
189.2

>  <PUBCHEM_COORDINATE_TYPE>  (1) 
2
5
10

$$$$
