28597
     RDKit          3D

 20 24  0  0  0  0  0  0  0  0999 V2000
    0.3087   -0.2150    0.0185 C   0  0  0  0  0  0  0  0  0  0  0  0
   -2.0235    0.5377    0.0584 C   0  0  0  0  0  0  0  0  0  0  0  0
   -0.6329    0.8470    0.0508 C   0  0  0  0  0  0  0  0  0  0  0  0
    1.7052    0.0532   -0.0048 C   0  0  0  0  0  0  0  0  0  0  0  0
   -3.0847    1.6222    0.1328 C   0  0  0  0  0  0  0  0  0  0  0  0
   -0.1316   -1.5589    0.0173 C   0  0  0  0  0  0  0  0  0  0  0  0
   -2.4449   -0.8088    0.0816 C   0  0  0  0  0  0  0  0  0  0  0  0
   -1.5011   -1.8393    0.0587 C   0  0  0  0  0  0  0  0  0  0  0  0
    2.1728    1.3857    0.0123 C   0  0  0  0  0  0  0  0  0  0  0  0
   -4.4624    1.1974   -0.3912 C   0  0  0  0  0  0  0  0  0  0  0  0
    2.6390   -1.0107   -0.0418 C   0  0  0  0  0  0  0  0  0  0  0  0
   -0.1249    2.1634    0.0811 C   0  0  0  0  0  0  0  0  0  0  0  0
    0.8066   -2.5991   -0.0177 C   0  0  0  0  0  0  0  0  0  0  0  0
   -3.8701   -1.1517    0.1473 C   0  0  0  0  0  0  0  0  0  0  0  0
    1.2463    2.4286    0.0590 C   0  0  0  0  0  0  0  0  0  0  0  0
   -4.8064   -0.2231   -0.0784 C   0  0  0  0  0  0  0  0  0  0  0  0
    2.1738   -2.3293   -0.0497 C   0  0  0  0  0  0  0  0  0  0  0  0
    3.5522    1.6398   -0.0130 C   0  0  0  0  0  0  0  0  0  0  0  0
    4.0126   -0.7280   -0.0675 C   0  0  0  0  0  0  0  0  0  0  0  0
    4.4653    0.5890   -0.0538 C   0  0  0  0  0  0  0  0  0  0  0  0
  1  3  2  0
  1  4  1  0
  1  6  1  0
  2  3  1  0
  2  5  1  0
  2  7  2  0
  3 12  1  0
  4  9  2  0
  4 11  1  0
  5 10  1  0
  6  8  2  0
  6 13  1  0
  7  8  1  0
  7 14  1  0
  9 15  1  0
  9 18  1  0
 10 16  1  0
 11 17  1  0
 11 19  2  0
 12 15  2  0
 13 17  2  0
 14 16  2  0
 18 20  2  0
 19 20  1  0
M  END
>  <PUBCHEM_COMPOUND_CID>  (1) 
28597

>  <PUBCHEM_CONFORMER_RMSD>  (1) 
0.6

>  <PUBCHEM_CONFORMER_DIVERSEORDER>  (1) 
1

>  <PUBCHEM_MMFF94_PARTIAL_CHARGES>  (1) 
24
10 0.14
12 -0.15
13 -0.15
14 -0.18
15 -0.15
16 -0.29
17 -0.15
18 -0.15
19 -0.15
2 -0.14
20 -0.15
23 0.15
26 0.15
27 0.15
28 0.15
29 0.15
30 0.15
31 0.15
32 0.15
33 0.15
34 0.15
5 0.14
7 0.03
8 -0.15

>  <PUBCHEM_EFFECTIVE_ROTOR_COUNT>  (1) 
0.4

>  <PUBCHEM_PHARMACOPHORE_FEATURES>  (1) 
5
6 1 2 3 6 7 8 rings
6 1 3 4 9 12 15 rings
6 1 4 6 11 13 17 rings
6 2 5 7 10 14 16 rings
6 4 9 11 18 19 20 rings

>  <PUBCHEM_HEAVY_ATOM_COUNT>  (1) 
20

>  <PUBCHEM_ATOM_DEF_STEREO_COUNT>  (1) 
0

>  <PUBCHEM_ATOM_UDEF_STEREO_COUNT>  (1) 
0

>  <PUBCHEM_BOND_DEF_STEREO_COUNT>  (1) 
0

>  <PUBCHEM_BOND_UDEF_STEREO_COUNT>  (1) 
0

>  <PUBCHEM_ISOTOPIC_ATOM_COUNT>  (1) 
0

>  <PUBCHEM_COMPONENT_COUNT>  (1) 
1

>  <PUBCHEM_CACTVS_TAUTO_COUNT>  (1) 
1

>  <PUBCHEM_CONFORMER_ID>  (1) 
00006FB500000001

>  <PUBCHEM_MMFF94_ENERGY>  (1) 
66.1065

>  <PUBCHEM_FEATURE_SELFOVERLAP>  (1) 
25.523

>  <PUBCHEM_SHAPE_FINGERPRINT>  (1) 
10411042 1 17617940227629079403
10608611 8 18408602548340005053
10616163 171 18339363071234236759
10863032 1 18412263921643735243
10967382 1 18410856551260916538
11132069 177 18410851075225165024
11471102 20 18410853265405161398
11578080 2 16880182309114818238
12011746 2 18410576179990529054
12236239 1 17775850112435936979
12592029 89 18408888446779798067
12838862 33 18339342141948313048
13132413 78 18412826880298082013
13140716 1 18050566540840420890
138480 1 18122344575689706034
13862211 1 18410851045260899890
14790565 3 18337399356473672380
15196674 1 18410575084668353666
15230672 131 13434921658749887443
15442244 35 18195810665454694187
15536298 74 18343021081683711894
1601671 61 18409449176345864156
16945 1 17978511158890063040
19591789 44 18410856611190219471
200 152 18059852879126686301
20028762 73 18058448888499041239
20645477 70 18343019960876855943
20905425 154 18196936574093870340
21267235 1 18411428297170502318
21279426 13 18266742385292319044
21421861 104 17825384081233679114
221490 88 18408893931711737883
23227448 37 18341611568218162719
2334 1 18339081604868130914
23402539 116 18343293791012103262
23463225 33 18409166597425194018
23559900 14 18268989796003231950
238 59 17757227610612879101
25 1 18408036316651917439
2748010 2 18339084894850100366
2871803 45 18410292480326286380
335352 9 18338517426269259214
33824 294 18409728456715482522
34934 24 18411975853987372134
350125 39 18410298047152671009
3680242 22 18262798441320516250
4072396 5 18336249177063276050
474 4 18040720298191573292
495365 180 17417521536217586592
5104073 3 18410012121914459963
543358 83 18267869389121865881
6138700 20 18338238159686888878
69090 78 18341891926286779895
7364860 26 18413107242762010347
9709674 26 18410580586764722087

>  <PUBCHEM_SHAPE_MULTIPOLES>  (1) 
411.59
8.14
2.73
0.63
3.45
0.26
0
-1.09
-0.4
-0.81
0.03
0.04
-0.01
0.14

>  <PUBCHEM_SHAPE_SELFOVERLAP>  (1) 
960.282

>  <PUBCHEM_SHAPE_VOLUME>  (1) 
189.7

>  <PUBCHEM_COORDINATE_TYPE>  (1) 
2
5
10

$$$$
