28595
     RDKit          3D

 24 25  0  0  1  0  0  0  0  0999 V2000
   -6.9702    0.0267   -0.5694 F   0  0  0  0  0  0  0  0  0  0  0  0
   -5.8426   -1.8202   -0.7163 F   0  0  0  0  0  0  0  0  0  0  0  0
   -6.1885   -0.9128    1.2293 F   0  0  0  0  0  0  0  0  0  0  0  0
    2.4144    0.6209    0.8628 O   0  0  0  0  0  0  0  0  0  0  0  0
    1.2254   -1.2399    1.5351 O   0  0  0  0  0  0  0  0  0  0  0  0
   -1.0601   -0.1648    0.6242 O   0  0  0  0  0  0  0  0  0  0  0  0
    4.3194   -1.2068   -0.8352 C   0  0  0  0  0  0  0  0  0  0  0  0
    5.4597   -0.1735   -0.9835 C   0  0  0  0  0  0  0  0  0  0  0  0
    5.1431    1.1870   -0.3431 C   0  0  0  0  0  0  0  0  0  0  0  0
    3.8820   -1.3101    0.6474 C   0  0  0  0  0  0  0  0  0  0  0  0
    3.6198    0.0319    1.3380 C   0  0  0  0  0  0  0  0  0  0  0  0
    4.7705    1.0156    1.1362 C   0  0  0  0  0  0  0  0  0  0  0  0
    4.8394   -2.5868   -1.2892 C   0  0  0  0  0  0  0  0  0  0  0  0
    3.1340   -0.8404   -1.7492 C   0  0  0  0  0  0  0  0  0  0  0  0
    6.3358    2.1339   -0.4855 C   0  0  0  0  0  0  0  0  0  0  0  0
    1.2809   -0.1291    1.0253 C   0  0  0  0  0  0  0  0  0  0  0  0
    0.1009    0.6279    0.4749 C   0  0  0  0  0  0  0  0  0  0  0  0
   -2.2415    0.3623    0.1612 C   0  0  0  0  0  0  0  0  0  0  0  0
   -3.4130   -0.3732    0.2812 C   0  0  0  0  0  0  0  0  0  0  0  0
   -2.2467    1.6228   -0.4209 C   0  0  0  0  0  0  0  0  0  0  0  0
   -4.6121    0.1620   -0.1895 C   0  0  0  0  0  0  0  0  0  0  0  0
   -3.4458    2.1580   -0.8915 C   0  0  0  0  0  0  0  0  0  0  0  0
   -4.6284    1.4276   -0.7758 C   0  0  0  0  0  0  0  0  0  0  0  0
   -5.8764   -0.6191   -0.0666 C   0  0  0  0  0  0  0  0  0  0  0  0
  1 24  1  0
  2 24  1  0
  3 24  1  0
  4 11  1  0
  4 16  1  0
  5 16  2  0
  6 17  1  0
  6 18  1  0
  7  8  1  0
  7 10  1  0
  7 13  1  0
  7 14  1  0
  8  9  1  0
  9 12  1  0
  9 15  1  0
 10 11  1  0
 11 12  1  0
 16 17  1  0
 18 19  2  0
 18 20  1  0
 19 21  1  0
 20 22  2  0
 21 23  2  0
 21 24  1  0
 22 23  1  0
M  END
>  <PUBCHEM_COMPOUND_CID>  (1) 
28595

>  <PUBCHEM_CONFORMER_RMSD>  (1) 
1

>  <PUBCHEM_CONFORMER_DIVERSEORDER>  (1) 
4
173
53
28
255
119
7
142
125
322
364
217
313
78
284
143
332
5
82
370
352
169
45
283
212
161
341
105
215
277
43
66
310
101
312
86
146
229
265
221
155
359
267
136
226
104
209
367
186
208
231
97
51
307
127
201
95
40
196
219
96
116
99
74
107
344
20
356
18
41
6
253
27
130
259
10
93
48
157
19
65
200
318
137
14
148
39
240
30
339
120
21
285
153
316
113
32
247
60
238
151
224
94
37
167
190
264
282
366
192
369
163
207
361
198
345
73
324
214
314
170
309
180
132
114
320
56
138
328
91
299
141
206
334
321
337
177
49
278
109
100
262
128
184
79
271
29
77
103
244
123
315
81
204
351
150
234
216
63
159
256
357
50
3
98
36
335
329
144
117
269
305
165
235
287
12
306
8
227
188
220
55
145
172
64
327
92
257
154
164
242
88
85
171
270
288
323
174
218
237
274
211
111
365
245
228
126
131
80
276
122
302
22
279
308
76
115
68
261
195
295
181
354
124
301
289
205
317
187
348
147
266
338
11
57
336
25
185
202
342
87
139
24
90
168
135
286
249
250
292
54
158
23
179
343
350
193
275
33
52
189
17
15
62
222
75
272
280
61
239
263
298
134
349
243
300
140
326
225
346
102
252
223
9
13
183
58
47
273
330
72
42
353
67
333
191
194
303
178
133
118
230
248
251
84
70
241
246
83
331
110
233
176
160
162
363
268
112
34
69
149
290
121
197
46
347
232
236
2
319
26
355
260
291
311
293
362
340
296
175
182
31
213
203
358
166
297
258
129
59
1
71
368
152
294
254
210
304
108
156
38
281
106
89
35
325
199
16
360
44

>  <PUBCHEM_MMFF94_PARTIAL_CHARGES>  (1) 
20
1 -0.34
11 0.28
16 0.66
17 0.34
18 0.08
19 -0.15
2 -0.34
20 -0.15
21 -0.14
22 -0.15
23 -0.15
24 1.16
3 -0.34
4 -0.43
44 0.15
45 0.15
46 0.15
47 0.15
5 -0.57
6 -0.36

>  <PUBCHEM_EFFECTIVE_ROTOR_COUNT>  (1) 
7.2

>  <PUBCHEM_PHARMACOPHORE_FEATURES>  (1) 
5
1 5 acceptor
1 6 acceptor
3 7 13 14 hydrophobe
6 18 19 20 21 22 23 rings
6 7 8 9 10 11 12 rings

>  <PUBCHEM_HEAVY_ATOM_COUNT>  (1) 
24

>  <PUBCHEM_ATOM_DEF_STEREO_COUNT>  (1) 
0

>  <PUBCHEM_ATOM_UDEF_STEREO_COUNT>  (1) 
2

>  <PUBCHEM_BOND_DEF_STEREO_COUNT>  (1) 
0

>  <PUBCHEM_BOND_UDEF_STEREO_COUNT>  (1) 
0

>  <PUBCHEM_ISOTOPIC_ATOM_COUNT>  (1) 
0

>  <PUBCHEM_COMPONENT_COUNT>  (1) 
1

>  <PUBCHEM_CACTVS_TAUTO_COUNT>  (1) 
1

>  <PUBCHEM_CONFORMER_ID>  (1) 
00006FB300000004

>  <PUBCHEM_MMFF94_ENERGY>  (1) 
60.1307

>  <PUBCHEM_FEATURE_SELFOVERLAP>  (1) 
25.379

>  <PUBCHEM_SHAPE_FINGERPRINT>  (1) 
10595046 47 18187077338926554305
10670039 82 17241051985844004918
11089746 13 11458420254146714121
11524674 6 16343701063130092151
12236239 1 16950277395403916177
12616971 3 15195276508718203676
12633257 1 13038896742503300377
12730499 353 18202282528994146248
12916748 109 18187364324435853144
13150687 139 17131280186077329036
13167372 99 12252173065547038151
13533116 47 17632579331667609178
13955234 65 17418080028269352474
14223995 32 10014493172087073403
14251718 22 18335420174965175205
14251758 9 12247683751123091425
14251764 30 17989204837288654705
14347424 109 9079118830843808846
14528608 73 17894911806559087696
14617045 38 17418378012493654854
15183329 4 16988848271949071267
15348495 7 8862649209911556468
15352257 5 17846498153847324927
15537594 2 16486969596475470108
15799311 1 17417824962424227791
15961568 22 18113901581004556540
17844677 252 18411700950363690377
18335252 98 18340209682218196451
20157964 124 13190340162582501056
20645477 70 17989210305130428910
21033650 10 17751091206169566780
21150785 3 18411982498227880541
21623969 137 17275386499373489127
21774942 28 13407611335554368599
220451 1 17418093239039939847
22061861 79 18130786720161151654
221357 26 18412824677048768736
2297311 6 18410294692793827205
2303208 19 18272370862956741675
23522609 53 17416431881065547457
23559900 14 17757814655348999051
239999 70 18342174445589448442
2838139 119 11242243074561516403
3004659 81 18342738469363925402
3472631 163 17531536494335527908
34797466 226 18408609166636863916
351380 3 15339119035132360364
4325135 7 18335136522693240268
4340502 62 16630231585852178114
44317340 157 18341895160545054684
46194498 28 18413389847943439308
465052 167 16988847168300589030
497634 4 18201442458950395113
5104073 3 17060055874684495194
513532 50 18040438755545451366
5281201 14 18341897342778727212
5312625 73 18410009970252265184
53794403 172 17751929257416230980
5385378 56 10519446129395042197
8509985 295 13262399968939939190
90127 26 18114751434266343952
960060 61 17489304166618146112

>  <PUBCHEM_SHAPE_MULTIPOLES>  (1) 
454.48
18.45
2.04
1.37
14.2
0.06
0.04
0.86
-3.68
-1.6
-0.7
-1.18
0.27
1.38

>  <PUBCHEM_SHAPE_SELFOVERLAP>  (1) 
946.932

>  <PUBCHEM_SHAPE_VOLUME>  (1) 
259

>  <PUBCHEM_COORDINATE_TYPE>  (1) 
2
5
10

$$$$
