28592
     RDKit          3D

 17 18  0  0  0  0  0  0  0  0999 V2000
    0.7988    1.4090    0.2788 O   0  0  0  0  0  0  0  0  0  0  0  0
   -2.7161   -1.7944    0.4718 O   0  0  0  0  0  0  0  0  0  0  0  0
    3.5808   -1.4848   -0.4221 O   0  0  0  0  0  0  0  0  0  0  0  0
   -3.0955    0.7275   -0.2078 N   0  0  0  0  0  0  0  0  0  0  0  0
   -0.9429   -0.1832    0.3740 C   0  0  0  0  0  0  0  0  0  0  0  0
   -1.9161    0.9234    0.6284 C   0  0  0  0  0  0  0  0  0  0  0  0
    0.4136    0.0941    0.2030 C   0  0  0  0  0  0  0  0  0  0  0  0
    1.3124   -0.9452   -0.0337 C   0  0  0  0  0  0  0  0  0  0  0  0
   -1.3953   -1.5014    0.3073 C   0  0  0  0  0  0  0  0  0  0  0  0
    0.8635   -2.2663   -0.1010 C   0  0  0  0  0  0  0  0  0  0  0  0
   -0.4939   -2.5403    0.0705 C   0  0  0  0  0  0  0  0  0  0  0  0
    2.7373   -0.6247   -0.2107 C   0  0  0  0  0  0  0  0  0  0  0  0
    2.1402    1.7131    0.1117 C   0  0  0  0  0  0  0  0  0  0  0  0
   -2.7279    0.7310   -1.6246 C   0  0  0  0  0  0  0  0  0  0  0  0
   -4.0945    1.7628    0.0606 C   0  0  0  0  0  0  0  0  0  0  0  0
    3.0979    0.8034   -0.1207 C   0  0  0  0  0  0  0  0  0  0  0  0
    2.4377    3.1757    0.2146 C   0  0  0  0  0  0  0  0  0  0  0  0
  1  7  1  0
  1 13  1  0
  2  9  1  0
  3 12  2  0
  4  6  1  0
  4 14  1  0
  4 15  1  0
  5  6  1  0
  5  7  2  0
  5  9  1  0
  7  8  1  0
  8 10  2  0
  8 12  1  0
  9 11  2  0
 10 11  1  0
 12 16  1  0
 13 16  2  0
 13 17  1  0
M  END
>  <PUBCHEM_COMPOUND_CID>  (1) 
28592

>  <PUBCHEM_CONFORMER_RMSD>  (1) 
0.6

>  <PUBCHEM_CONFORMER_DIVERSEORDER>  (1) 
2
1

>  <PUBCHEM_MMFF94_PARTIAL_CHARGES>  (1) 
21
1 -0.16
10 -0.15
11 -0.15
12 0.47
13 -0.06
14 0.27
15 0.27
16 -0.14
17 0.14
2 -0.53
20 0.15
21 0.15
28 0.15
3 -0.57
32 0.45
4 -0.81
5 -0.14
6 0.41
7 0.08
8 0.09
9 0.08

>  <PUBCHEM_EFFECTIVE_ROTOR_COUNT>  (1) 
2

>  <PUBCHEM_PHARMACOPHORE_FEATURES>  (1) 
6
1 1 acceptor
1 2 donor
1 3 acceptor
1 4 cation
6 1 7 8 12 13 16 rings
6 5 7 8 9 10 11 rings

>  <PUBCHEM_HEAVY_ATOM_COUNT>  (1) 
17

>  <PUBCHEM_ATOM_DEF_STEREO_COUNT>  (1) 
0

>  <PUBCHEM_ATOM_UDEF_STEREO_COUNT>  (1) 
0

>  <PUBCHEM_BOND_DEF_STEREO_COUNT>  (1) 
0

>  <PUBCHEM_BOND_UDEF_STEREO_COUNT>  (1) 
0

>  <PUBCHEM_ISOTOPIC_ATOM_COUNT>  (1) 
0

>  <PUBCHEM_COMPONENT_COUNT>  (1) 
1

>  <PUBCHEM_CACTVS_TAUTO_COUNT>  (1) 
14

>  <PUBCHEM_CONFORMER_ID>  (1) 
00006FB000000002

>  <PUBCHEM_MMFF94_ENERGY>  (1) 
52.235

>  <PUBCHEM_FEATURE_SELFOVERLAP>  (1) 
30.474

>  <PUBCHEM_SHAPE_FINGERPRINT>  (1) 
10411042 1 17474109791790220339
10608611 8 18337954605112303808
10967382 1 18267026050781504058
11471102 20 18339078173036566493
12403259 226 18334292024642902839
12730499 353 18188767224812939949
13140716 1 18409165523709828664
13294875 104 17897980504794143280
13380535 76 18410291376546389827
13897977 150 18409728456588862405
14614273 12 17977380869294645756
14648413 74 18410295847696756024
14911166 2 18339649914967313014
15219456 202 18410295851722600417
15279308 100 18408889542196788300
16945 1 18338801087384420714
18186145 218 18339071597515437509
18219364 16 18335432222648971745
193761 8 18267588090323320818
20233049 118 18116154372596055020
20510252 161 18125445464720203129
21501502 16 18337670926806612834
21524375 3 18260827081670911131
21639500 275 18337377241506983245
2334 1 18267025131595166736
23402539 116 18056189177444520022
23558518 356 18116714225435015762
23559900 14 18342183255036721790
238 59 17757228692981625885
25 1 18263924341401399135
2748010 2 18338523044197284266
3060560 45 18268422447612676015
335352 9 18266462014212023542
34934 24 18410289182430024770
350125 39 18265062490333319865
3524813 1 17969217833093291165
474 4 18412542081291263617
5939293 188 18411416172815312496
74978 22 18411139142923810496
81228 2 17826233183757846243
84936 182 18131061649613744897

>  <PUBCHEM_SHAPE_MULTIPOLES>  (1) 
327.26
5.84
3.05
0.83
1.83
0.31
0.24
2.69
0.7
-0.97
-0.21
0.49
0.12
0.54

>  <PUBCHEM_SHAPE_SELFOVERLAP>  (1) 
702.211

>  <PUBCHEM_SHAPE_VOLUME>  (1) 
182.1

>  <PUBCHEM_COORDINATE_TYPE>  (1) 
2
5
10

$$$$
