28603
     RDKit          3D

 15 15  0  0  0  0  0  0  0  0999 V2000
    1.5123   -0.0708   -1.2082 O   0  0  0  0  0  0  0  0  0  0  0  0
    2.1504    0.0617    1.0237 O   0  0  0  0  0  0  0  0  0  0  0  0
   -4.3945    1.1311    0.5373 O   0  0  0  0  0  0  0  0  0  0  0  0
   -4.3959   -1.0607    0.6616 O   0  0  0  0  0  0  0  0  0  0  0  0
    3.7406   -0.0390   -0.6626 N   0  0  0  0  0  0  0  0  0  0  0  0
   -3.8140    0.0247    0.4213 N   0  0  0  0  0  0  0  0  0  0  0  0
    0.2111   -0.0475   -0.8097 C   0  0  0  0  0  0  0  0  0  0  0  0
    4.9211    0.0094    0.1683 C   0  0  0  0  0  0  0  0  0  0  0  0
   -2.4568    0.0002    0.0045 C   0  0  0  0  0  0  0  0  0  0  0  0
   -0.4557    1.1704   -0.6759 C   0  0  0  0  0  0  0  0  0  0  0  0
   -0.4561   -1.2415   -0.5364 C   0  0  0  0  0  0  0  0  0  0  0  0
   -1.7896    1.1942   -0.2687 C   0  0  0  0  0  0  0  0  0  0  0  0
   -1.7900   -1.2177   -0.1293 C   0  0  0  0  0  0  0  0  0  0  0  0
    4.5624    0.0952    1.6374 C   0  0  0  0  0  0  0  0  0  0  0  0
    2.4547   -0.0098   -0.1634 C   0  0  0  0  0  0  0  0  0  0  0  0
  1  7  1  0
  1 15  1  0
  2 15  2  0
  3  6  1  0
  4  6  2  0
  5  8  1  0
  5 15  1  0
  6  9  1  0
  7 10  2  0
  7 11  1  0
  8 14  1  0
  9 12  2  0
  9 13  1  0
 10 12  1  0
 11 13  2  0
M  CHG  2   3  -1   6   1
M  END
>  <PUBCHEM_COMPOUND_CID>  (1) 
28603

>  <PUBCHEM_CONFORMER_RMSD>  (1) 
0.6

>  <PUBCHEM_CONFORMER_DIVERSEORDER>  (1) 
1
2
4
6
3
5
7

>  <PUBCHEM_MMFF94_PARTIAL_CHARGES>  (1) 
19
1 -0.23
10 -0.15
11 -0.15
12 -0.15
13 -0.15
15 0.78
18 0.15
19 0.15
2 -0.57
20 0.15
21 0.15
22 0.37
3 -0.52
4 -0.52
5 -0.73
6 0.91
7 0.08
8 0.3
9 0.13

>  <PUBCHEM_EFFECTIVE_ROTOR_COUNT>  (1) 
5

>  <PUBCHEM_PHARMACOPHORE_FEATURES>  (1) 
6
1 2 acceptor
1 3 acceptor
1 3 anion
1 4 acceptor
1 5 donor
6 7 9 10 11 12 13 rings

>  <PUBCHEM_HEAVY_ATOM_COUNT>  (1) 
15

>  <PUBCHEM_ATOM_DEF_STEREO_COUNT>  (1) 
0

>  <PUBCHEM_ATOM_UDEF_STEREO_COUNT>  (1) 
0

>  <PUBCHEM_BOND_DEF_STEREO_COUNT>  (1) 
0

>  <PUBCHEM_BOND_UDEF_STEREO_COUNT>  (1) 
0

>  <PUBCHEM_ISOTOPIC_ATOM_COUNT>  (1) 
0

>  <PUBCHEM_COMPONENT_COUNT>  (1) 
1

>  <PUBCHEM_CACTVS_TAUTO_COUNT>  (1) 
2

>  <PUBCHEM_CONFORMER_ID>  (1) 
00006FBB00000001

>  <PUBCHEM_MMFF94_ENERGY>  (1) 
47.5921

>  <PUBCHEM_FEATURE_SELFOVERLAP>  (1) 
30.527

>  <PUBCHEM_SHAPE_FINGERPRINT>  (1) 
11132069 177 18272371975073573205
11401426 45 18411699877196340261
12119455 92 16988561281843897709
12236239 1 17603872204342615788
12251169 10 18411980282235674564
13214271 11 17489864955780881789
13581323 91 18334012787486604230
13675066 3 18343587338756806470
13690532 89 16081087078141982048
14252887 29 17168142304728271570
14943859 89 15985101916234086318
15219456 202 17987805107183222566
15375462 189 17530958094899270656
17870717 6 10881679061937848360
187816 3 9439403531835166887
200 152 15430033257902661076
20112054 13 16988555832052605680
20374829 77 11818990794424190792
20645477 56 17775280573686283068
20645477 70 13984653729898736304
20871999 31 10447634808169832829
21119208 17 11672064151121675282
21637258 2 16081365310634675483
22485316 2 15357695301279231906
22854114 59 17703790323231922844
22926399 37 14548735122985746162
2297311 6 18338808836254470324
23402539 116 18343858922893157725
23402655 69 13686294703918299736
23532345 42 18411990173524180429
23559900 14 18199202719219962390
26918003 58 16443065001882605145
2748010 2 18048609118623286879
42 15 18113899342893207354
449060 50 16917354739991939087
4990 188 11097855206921269244

>  <PUBCHEM_SHAPE_MULTIPOLES>  (1) 
275.25
9.4
1.14
1.1
4.04
0
-0.18
-0.05
-3.9
-1.08
0.07
0.85
0
0.02

>  <PUBCHEM_SHAPE_SELFOVERLAP>  (1) 
570.05

>  <PUBCHEM_SHAPE_VOLUME>  (1) 
154.7

>  <PUBCHEM_COORDINATE_TYPE>  (1) 
2
5
10

$$$$
