28606
     RDKit          3D

 15 16  0  0  1  0  0  0  0  0999 V2000
    0.8568   -0.9521    0.0297 O   0  0  0  0  0  0  0  0  0  0  0  0
    2.3483    0.1949    1.3467 O   0  0  0  0  0  0  0  0  0  0  0  0
    2.9617   -0.6363   -0.7306 N   0  0  0  0  0  0  0  0  0  0  0  0
   -1.6206   -0.9816    0.2545 C   0  0  0  0  0  0  0  0  0  0  0  0
   -1.9811    1.1472   -0.3063 C   0  0  0  0  0  0  0  0  0  0  0  0
   -0.4836    1.1758    0.1489 C   0  0  0  0  0  0  0  0  0  0  0  0
   -0.2654   -0.3035    0.5957 C   0  0  0  0  0  0  0  0  0  0  0  0
   -2.6098    0.1193    0.6479 C   0  0  0  0  0  0  0  0  0  0  0  0
   -1.8200   -1.0485   -1.2779 C   0  0  0  0  0  0  0  0  0  0  0  0
   -2.1477    0.4054   -1.6456 C   0  0  0  0  0  0  0  0  0  0  0  0
   -1.8221   -2.3179    0.9399 C   0  0  0  0  0  0  0  0  0  0  0  0
    0.4857    1.6690   -0.9349 C   0  0  0  0  0  0  0  0  0  0  0  0
   -0.3238    2.1224    1.3593 C   0  0  0  0  0  0  0  0  0  0  0  0
    2.0868   -0.4069    0.3104 C   0  0  0  0  0  0  0  0  0  0  0  0
    4.3349   -0.1872   -0.7378 C   0  0  0  0  0  0  0  0  0  0  0  0
  1  7  1  0
  1 14  1  0
  2 14  2  0
  3 14  1  0
  3 15  1  0
  4  7  1  0
  4  8  1  0
  4  9  1  0
  4 11  1  0
  5  6  1  0
  5  8  1  0
  5 10  1  0
  6  7  1  0
  6 12  1  0
  6 13  1  0
  9 10  1  0
M  END
>  <PUBCHEM_COMPOUND_CID>  (1) 
28606

>  <PUBCHEM_CONFORMER_RMSD>  (1) 
0.6

>  <PUBCHEM_CONFORMER_DIVERSEORDER>  (1) 
1
5
7
11
15
9
12
8
14
2
10
4
13
16
6
3

>  <PUBCHEM_MMFF94_PARTIAL_CHARGES>  (1) 
7
1 -0.43
14 0.78
15 0.3
2 -0.57
3 -0.73
33 0.37
7 0.28

>  <PUBCHEM_EFFECTIVE_ROTOR_COUNT>  (1) 
4

>  <PUBCHEM_PHARMACOPHORE_FEATURES>  (1) 
4
1 2 acceptor
1 3 donor
3 6 12 13 hydrophobe
7 4 5 6 7 8 9 10 rings

>  <PUBCHEM_HEAVY_ATOM_COUNT>  (1) 
15

>  <PUBCHEM_ATOM_DEF_STEREO_COUNT>  (1) 
0

>  <PUBCHEM_ATOM_UDEF_STEREO_COUNT>  (1) 
3

>  <PUBCHEM_BOND_DEF_STEREO_COUNT>  (1) 
0

>  <PUBCHEM_BOND_UDEF_STEREO_COUNT>  (1) 
0

>  <PUBCHEM_ISOTOPIC_ATOM_COUNT>  (1) 
0

>  <PUBCHEM_COMPONENT_COUNT>  (1) 
1

>  <PUBCHEM_CACTVS_TAUTO_COUNT>  (1) 
2

>  <PUBCHEM_CONFORMER_ID>  (1) 
00006FBE00000001

>  <PUBCHEM_MMFF94_ENERGY>  (1) 
61.2757

>  <PUBCHEM_FEATURE_SELFOVERLAP>  (1) 
20.297

>  <PUBCHEM_SHAPE_FINGERPRINT>  (1) 
12423570 1 10680222972832554465
13024252 1 13479144488140998965
13380535 239 17534618519236787621
14128692 85 18116161136773907164
15310529 11 16081367427689600561
15775835 57 17022623044192407662
16945 1 18260257543142439337
19010151 120 10303228271398851189
19868273 325 18410013238700979516
20645476 183 17822290141486491007
20871999 31 18334852822944446127
21061003 4 18200603621181579283
21524375 3 17336752210388588208
22344851 262 17060338509528929509
22802520 49 18126021381359446830
23419403 2 16972445834537220993
23559900 14 18409726228455793410
2748010 2 18120361314268349961
369184 2 14851888010782986241
528886 8 17895747401126311797
81228 2 18129091243209068072

>  <PUBCHEM_SHAPE_MULTIPOLES>  (1) 
291.97
4.78
1.93
1.39
6.1
0.07
-0.15
-1.24
-1.1
-0.93
0.48
-0.32
0.2
0.28

>  <PUBCHEM_SHAPE_SELFOVERLAP>  (1) 
609.164

>  <PUBCHEM_SHAPE_VOLUME>  (1) 
171.4

>  <PUBCHEM_COORDINATE_TYPE>  (1) 
2
5
10

$$$$
