28604
     RDKit          3D

 18 19  0  0  0  0  0  0  0  0999 V2000
   -5.6478    2.3188   -0.1014 Br  0  0  0  0  0  0  0  0  0  0  0  0
    5.0455    0.1582   -0.1862 N   0  0  0  0  0  0  0  0  0  0  0  0
   -0.4885   -0.1366    0.6107 N   0  0  0  0  0  0  0  0  0  0  0  0
   -1.0738   -0.2709   -0.4895 N   0  0  0  0  0  0  0  0  0  0  0  0
    3.6512    0.0842    0.0144 C   0  0  0  0  0  0  0  0  0  0  0  0
    2.8828    1.2484    0.0090 C   0  0  0  0  0  0  0  0  0  0  0  0
    3.0407   -1.1534    0.2182 C   0  0  0  0  0  0  0  0  0  0  0  0
    0.8937   -0.0623    0.4114 C   0  0  0  0  0  0  0  0  0  0  0  0
    1.5041    1.1752    0.2076 C   0  0  0  0  0  0  0  0  0  0  0  0
    1.6619   -1.2266    0.4167 C   0  0  0  0  0  0  0  0  0  0  0  0
    5.7857    1.3320    0.2318 C   0  0  0  0  0  0  0  0  0  0  0  0
    5.7580   -0.9445   -0.8004 C   0  0  0  0  0  0  0  0  0  0  0  0
   -2.4627   -0.3457   -0.2888 C   0  0  0  0  0  0  0  0  0  0  0  0
   -3.2255    0.8180   -0.2943 C   0  0  0  0  0  0  0  0  0  0  0  0
   -3.0650   -1.5838   -0.0859 C   0  0  0  0  0  0  0  0  0  0  0  0
   -4.6042    0.7430   -0.0951 C   0  0  0  0  0  0  0  0  0  0  0  0
   -4.4433   -1.6587    0.1133 C   0  0  0  0  0  0  0  0  0  0  0  0
   -5.2130   -0.4955    0.1086 C   0  0  0  0  0  0  0  0  0  0  0  0
  1 16  1  0
  2  5  1  0
  2 11  1  0
  2 12  1  0
  3  4  2  0
  3  8  1  0
  4 13  1  0
  5  6  2  0
  5  7  1  0
  6  9  1  0
  7 10  2  0
  8  9  2  0
  8 10  1  0
 13 14  2  0
 13 15  1  0
 14 16  1  0
 15 17  2  0
 16 18  2  0
 17 18  1  0
M  END
>  <PUBCHEM_COMPOUND_CID>  (1) 
28604

>  <PUBCHEM_CONFORMER_RMSD>  (1) 
0.6

>  <PUBCHEM_CONFORMER_DIVERSEORDER>  (1) 
1
3
4
2
5
7
8
6

>  <PUBCHEM_MMFF94_PARTIAL_CHARGES>  (1) 
26
1 -0.11
10 -0.15
11 0.37
12 0.37
13 0.18
14 -0.15
15 -0.15
16 0.11
17 -0.15
18 -0.15
19 0.15
2 -0.84
20 0.15
21 0.15
22 0.15
29 0.15
3 -0.18
30 0.15
31 0.15
32 0.15
4 -0.18
5 0.1
6 -0.15
7 -0.15
8 0.18
9 -0.15

>  <PUBCHEM_EFFECTIVE_ROTOR_COUNT>  (1) 
3

>  <PUBCHEM_PHARMACOPHORE_FEATURES>  (1) 
4
1 1 hydrophobe
1 2 cation
6 13 14 15 16 17 18 rings
6 5 6 7 8 9 10 rings

>  <PUBCHEM_HEAVY_ATOM_COUNT>  (1) 
18

>  <PUBCHEM_ATOM_DEF_STEREO_COUNT>  (1) 
0

>  <PUBCHEM_ATOM_UDEF_STEREO_COUNT>  (1) 
0

>  <PUBCHEM_BOND_DEF_STEREO_COUNT>  (1) 
0

>  <PUBCHEM_BOND_UDEF_STEREO_COUNT>  (1) 
0

>  <PUBCHEM_ISOTOPIC_ATOM_COUNT>  (1) 
0

>  <PUBCHEM_COMPONENT_COUNT>  (1) 
1

>  <PUBCHEM_CACTVS_TAUTO_COUNT>  (1) 
1

>  <PUBCHEM_CONFORMER_ID>  (1) 
00006FBC00000001

>  <PUBCHEM_MMFF94_ENERGY>  (1) 
62.5717

>  <PUBCHEM_FEATURE_SELFOVERLAP>  (1) 
20.297

>  <PUBCHEM_SHAPE_FINGERPRINT>  (1) 
10595046 47 18335420222214947375
10912923 1 17748819726451331931
11287383 113 18410856603090603042
11315181 36 17967814989774397725
11858739 19 17703514303248878358
12107183 9 17760079627842620827
12236239 1 18131354115532279250
12616971 3 12967127263688447435
13073987 5 18333448733779608451
13167823 11 18410008870735362475
13533116 47 14692300504620658662
13760787 19 18408881819930220011
14251731 8 18342458127772972361
14251752 14 18340205193876918040
14251764 18 18272373079592259729
14341114 176 18411142441268770197
15048467 5 18335701624240751349
15183329 4 18342177709105015456
15196674 1 18410291410668393970
15501527 16 18410857642657558385
15778101 99 18410858716568310793
15788980 27 17489867154524471428
17834072 33 18412262860976769174
17834072 8 18273214166758023589
17844677 252 18411144674942258777
200 152 18202847672853014011
20281389 69 18259982635387456845
20621476 66 18201163135910626881
20645477 56 18334574604128049381
20645477 70 18272655610936344166
20681677 155 18334574642239384371
21065198 48 18260822679603707115
21267235 1 18336552702734497363
21709351 56 18335977648945921557
220451 1 17458345221587838314
2297311 6 18411987966238044245
23402539 116 18334008406345707636
23402655 69 18409727352645071803
23536379 177 18410573985562888448
23557571 272 18411705382880410925
23559900 14 18272361001548670401
2916195 48 18341043133781304496
29717793 49 17561086865490022972
300161 21 18261385637872489771
3004659 81 18408606929734544486
3545911 37 18410573977120783201
4073 2 18041285451727397210
4214541 1 18410573985715986025
42788 4 18410855473023619686
4463277 17 18411982464290206760
4990 188 18342182171971824494
5104073 3 18261106361845189075
542803 24 17094962143055487414
59755656 215 18341616949759066806
59755656 520 16805326578496277883
6327066 14 18117269252319294013
633830 44 18260823851849983022
77779 3 18409448098572719539

>  <PUBCHEM_SHAPE_MULTIPOLES>  (1) 
361.43
15.33
1.88
0.72
3.22
0.38
-0.02
3.6
-1.42
-1.85
0.02
0.17
-0.03
0.42

>  <PUBCHEM_SHAPE_SELFOVERLAP>  (1) 
752.147

>  <PUBCHEM_SHAPE_VOLUME>  (1) 
212.5

>  <PUBCHEM_COORDINATE_TYPE>  (1) 
2
5
10

$$$$
