28612
     RDKit          3D

 16 16  0  0  0  0  0  0  0  0999 V2000
    2.7087    0.1262    0.8463 O   0  0  0  0  0  0  0  0  0  0  0  0
    3.1182   -1.0613   -1.1290 O   0  0  0  0  0  0  0  0  0  0  0  0
   -2.0488   -0.4474    0.1129 N   0  0  0  0  0  0  0  0  0  0  0  0
   -2.1982   -1.4295   -1.0457 C   0  0  0  0  0  0  0  0  0  0  0  0
   -3.2840    0.4505    0.1368 C   0  0  0  0  0  0  0  0  0  0  0  0
   -0.7571    0.3506   -0.0814 C   0  0  0  0  0  0  0  0  0  0  0  0
   -1.9728   -1.1871    1.4454 C   0  0  0  0  0  0  0  0  0  0  0  0
   -3.4582   -2.2438   -0.8493 C   0  0  0  0  0  0  0  0  0  0  0  0
   -3.1743    1.4181    1.2948 C   0  0  0  0  0  0  0  0  0  0  0  0
    0.3662   -0.1531    0.4836 C   0  0  0  0  0  0  0  0  0  0  0  0
   -0.8466    1.4945   -0.8016 C   0  0  0  0  0  0  0  0  0  0  0  0
    1.5427    0.5752    0.3069 C   0  0  0  0  0  0  0  0  0  0  0  0
    0.3298    2.2228   -0.9782 C   0  0  0  0  0  0  0  0  0  0  0  0
    1.5244    1.7630   -0.4240 C   0  0  0  0  0  0  0  0  0  0  0  0
    3.4443   -0.7200    0.0002 C   0  0  0  0  0  0  0  0  0  0  0  0
    4.7058   -1.1588    0.6826 C   0  0  0  0  0  0  0  0  0  0  0  0
  1 12  1  0
  1 15  1  0
  2 15  2  0
  3  4  1  0
  3  5  1  0
  3  6  1  0
  3  7  1  0
  4  8  1  0
  5  9  1  0
  6 10  2  0
  6 11  1  0
 10 12  1  0
 11 13  2  0
 12 14  2  0
 13 14  1  0
 15 16  1  0
M  CHG  1   3   1
M  END
>  <PUBCHEM_COMPOUND_CID>  (1) 
28612

>  <PUBCHEM_CONFORMER_RMSD>  (1) 
0.6

>  <PUBCHEM_CONFORMER_DIVERSEORDER>  (1) 
110
68
46
47
92
53
115
90
19
94
102
67
131
80
121
136
61
72
56
96
41
83
93
137
122
145
112
13
146
74
98
78
132
99
20
97
142
82
129
31
22
101
126
89
35
37
128
60
55
108
125
79
120
30
70
143
26
77
10
71
91
138
127
124
23
16
103
14
21
25
88
95
45
130
73
144
116
39
134
76
34
6
11
109
36
44
32
17
27
113
86
38
12
87
9
42
114
75
15
5
85
84
69
18
105
7
54
139
28
100
43
3
140
63
66
48
50
2
118
133
51
104
65
123
119
57
62
58
4
64
106
59
107
8
33
117
141
24
49
29
1
81
135
40
111
52

>  <PUBCHEM_MMFF94_PARTIAL_CHARGES>  (1) 
18
1 -0.23
10 -0.15
11 -0.15
12 0.08
13 -0.15
14 -0.15
15 0.66
16 0.06
2 -0.57
3 -0.87
30 0.15
31 0.15
32 0.15
33 0.15
4 0.5
5 0.5
6 0.36
7 0.5

>  <PUBCHEM_EFFECTIVE_ROTOR_COUNT>  (1) 
5

>  <PUBCHEM_PHARMACOPHORE_FEATURES>  (1) 
3
1 2 acceptor
1 3 cation
6 6 10 11 12 13 14 rings

>  <PUBCHEM_HEAVY_ATOM_COUNT>  (1) 
16

>  <PUBCHEM_ATOM_DEF_STEREO_COUNT>  (1) 
0

>  <PUBCHEM_ATOM_UDEF_STEREO_COUNT>  (1) 
0

>  <PUBCHEM_BOND_DEF_STEREO_COUNT>  (1) 
0

>  <PUBCHEM_BOND_UDEF_STEREO_COUNT>  (1) 
0

>  <PUBCHEM_ISOTOPIC_ATOM_COUNT>  (1) 
0

>  <PUBCHEM_COMPONENT_COUNT>  (1) 
1

>  <PUBCHEM_CACTVS_TAUTO_COUNT>  (1) 
1

>  <PUBCHEM_CONFORMER_ID>  (1) 
00006FC40000006E

>  <PUBCHEM_MMFF94_ENERGY>  (1) 
70.1289

>  <PUBCHEM_FEATURE_SELFOVERLAP>  (1) 
15.223

>  <PUBCHEM_SHAPE_FINGERPRINT>  (1) 
11769659 78 18343015639981305398
12346177 29 18272362062510600111
12500047 106 17846495885645084699
12553582 1 17967808323800648938
12932764 1 15719667766211321993
13296909 8 17775280577896841417
13544592 145 17772483287156105518
13583140 156 16343691141074986794
14289901 80 17916578885796447144
14965852 173 18412546530655387921
15099037 8 18269552913365243975
15279308 51 18411140276890310773
15534591 1 7997697523128450559
16752209 62 17605536787142109625
16945 1 18335977558778215429
1813 80 18114194003282354188
18186145 218 15791452638705889216
18511873 20 18340212907807253201
19107657 47 14117519788245081004
19141452 34 18343019943586138663
19422 9 18411420652080911452
20281475 54 18411980248192440742
20361792 2 18113335323281958948
204376 136 11743834789783543336
20645477 70 17972868435341924079
20671657 53 18188197823079953847
21069387 34 18264200477886949639
21339142 126 18189892028685307932
21501502 16 18339366369478943836
21713013 43 15574725715226432923
23114952 82 17242726739078362677
23402539 116 18040710334553385074
23419403 2 17257871395344842169
23493267 7 14201386158582286769
23557571 272 18265618685247644692
23559900 14 17916853733427714377
23598291 2 18337679705915061893
2748010 2 17460599374821841241
3286 77 17916854837434496434
449060 23 18408600357785338782
458136 41 10879727532146916020
6992083 37 18341060644220480209
7364860 26 18195809802319813516
74978 22 18041847332186033905
81228 2 18116716218664292384
83771 10 18334575711854987304

>  <PUBCHEM_SHAPE_MULTIPOLES>  (1) 
312.55
6.99
2.2
1.23
4.84
0.26
0.11
-3.83
0.9
-0.88
-0.6
-0.54
-0.11
-0.92

>  <PUBCHEM_SHAPE_SELFOVERLAP>  (1) 
634.354

>  <PUBCHEM_SHAPE_VOLUME>  (1) 
182.7

>  <PUBCHEM_COORDINATE_TYPE>  (1) 
2
5
10

$$$$
