28613
     RDKit          3D

 15 16  0  0  0  0  0  0  0  0999 V2000
    5.3484   -0.0579   -0.0062 Cl  0  0  0  0  0  0  0  0  0  0  0  0
   -3.2630    2.2412    0.2932 O   0  0  0  0  0  0  0  0  0  0  0  0
   -1.3800   -1.1194   -0.1432 N   0  0  0  0  0  0  0  0  0  0  0  0
   -1.2683    1.1882    0.1563 N   0  0  0  0  0  0  0  0  0  0  0  0
   -3.4226    0.0068   -0.0047 N   0  0  0  0  0  0  0  0  0  0  0  0
   -3.3385   -2.3367   -0.3075 N   0  0  0  0  0  0  0  0  0  0  0  0
    0.8387    0.0185    0.0030 C   0  0  0  0  0  0  0  0  0  0  0  0
   -0.6523    0.0431    0.0060 C   0  0  0  0  0  0  0  0  0  0  0  0
    1.5538    1.1225   -0.4609 C   0  0  0  0  0  0  0  0  0  0  0  0
    1.5181   -1.1092    0.4640 C   0  0  0  0  0  0  0  0  0  0  0  0
   -2.7557   -1.1093   -0.1465 C   0  0  0  0  0  0  0  0  0  0  0  0
    2.9485    1.0989   -0.4639 C   0  0  0  0  0  0  0  0  0  0  0  0
    2.9128   -1.1327    0.4610 C   0  0  0  0  0  0  0  0  0  0  0  0
    3.6280   -0.0287   -0.0030 C   0  0  0  0  0  0  0  0  0  0  0  0
   -2.6679    1.1747    0.1524 C   0  0  0  0  0  0  0  0  0  0  0  0
  1 14  1  0
  2 15  2  0
  3  8  1  0
  3 11  1  0
  4  8  2  0
  4 15  1  0
  5 11  2  0
  5 15  1  0
  6 11  1  0
  7  8  1  0
  7  9  2  0
  7 10  1  0
  9 12  1  0
 10 13  2  0
 12 14  2  0
 13 14  1  0
M  END
>  <PUBCHEM_COMPOUND_CID>  (1) 
28613

>  <PUBCHEM_CONFORMER_RMSD>  (1) 
0.4

>  <PUBCHEM_CONFORMER_DIVERSEORDER>  (1) 
2
1
3

>  <PUBCHEM_MMFF94_PARTIAL_CHARGES>  (1) 
22
1 -0.18
10 -0.15
11 0.55
12 -0.15
13 -0.15
14 0.18
15 0.99
16 0.15
17 0.15
18 0.4
19 0.15
2 -0.57
20 0.15
21 0.4
22 0.4
3 -0.5
4 -0.66
5 -0.66
6 -0.85
7 0.09
8 0.41
9 -0.15

>  <PUBCHEM_EFFECTIVE_ROTOR_COUNT>  (1) 
1

>  <PUBCHEM_PHARMACOPHORE_FEATURES>  (1) 
7
1 2 acceptor
1 3 donor
1 4 donor
1 5 donor
1 6 donor
6 3 4 5 8 11 15 rings
6 7 9 10 12 13 14 rings

>  <PUBCHEM_HEAVY_ATOM_COUNT>  (1) 
15

>  <PUBCHEM_ATOM_DEF_STEREO_COUNT>  (1) 
0

>  <PUBCHEM_ATOM_UDEF_STEREO_COUNT>  (1) 
0

>  <PUBCHEM_BOND_DEF_STEREO_COUNT>  (1) 
0

>  <PUBCHEM_BOND_UDEF_STEREO_COUNT>  (1) 
0

>  <PUBCHEM_ISOTOPIC_ATOM_COUNT>  (1) 
0

>  <PUBCHEM_COMPONENT_COUNT>  (1) 
1

>  <PUBCHEM_CACTVS_TAUTO_COUNT>  (1) 
9

>  <PUBCHEM_CONFORMER_ID>  (1) 
00006FC500000002

>  <PUBCHEM_MMFF94_ENERGY>  (1) 
46.0106

>  <PUBCHEM_FEATURE_SELFOVERLAP>  (1) 
35.718

>  <PUBCHEM_SHAPE_FINGERPRINT>  (1) 
10608611 8 18413385445116482120
10616163 171 18411982481038072598
11132069 177 18409445856520721736
11806522 49 18335136553042789310
12251169 10 18408888408220004965
12500047 106 18341605967359008937
12932764 1 17418085550800722430
13675066 3 17989202655751177894
13760787 19 18336266760511621042
14144814 61 18408322163952652272
14325111 11 18409731763734876756
14965852 173 18410291406484189993
15196674 1 18409449198311168108
15442244 35 18264486179053288290
15536298 74 18340486763875912356
15669948 3 18342450452603325383
15775835 57 18335144146070299424
17834072 33 18336831978777539036
17862501 102 18334286596284425090
18186145 218 17967812726152702326
19026448 4 17704071794298703592
19050596 39 18408325509705789168
19422 9 18335703857839821766
200 152 18337664312831517727
20279233 1 16487256564609791980
20281475 54 18260822675282352818
20645477 56 18341334392614426337
21267235 1 18336837454106668546
21501502 16 18408041814172925056
2306618 200 18131360704365630649
23402539 116 18412256263780460758
23402655 69 18260545589398176532
23463225 33 18335701611524375182
23557571 272 18060424607465876392
23559900 14 18341884246896044664
3312278 4 18342176648179456824
3545911 37 18411983529051667076
4214541 1 18411419492677267700
4990 188 18272380750419694398
5104073 3 18410009940540630440
57096353 35 18263084481916008222
573450 72 18335973199697412866
58051976 100 18409729568916781639
77779 3 18412265030309728542
7832392 63 18337673018667020380
9709674 26 18410581703556517318

>  <PUBCHEM_SHAPE_MULTIPOLES>  (1) 
284.77
8.45
1.84
0.67
4.51
0.06
0
0.32
0.07
-1.94
0.01
0.13
0
-0.72

>  <PUBCHEM_SHAPE_SELFOVERLAP>  (1) 
605.529

>  <PUBCHEM_SHAPE_VOLUME>  (1) 
159.1

>  <PUBCHEM_COORDINATE_TYPE>  (1) 
2
5
10

$$$$
