28616
     RDKit          3D

 16 17  0  0  0  0  0  0  0  0999 V2000
   -0.1072   -0.0001    0.5042 N   0  0  0  0  0  0  0  0  0  0  0  0
    0.5269    0.0001   -0.5755 N   0  0  0  0  0  0  0  0  0  0  0  0
   -1.4856   -0.0001    0.2458 C   0  0  0  0  0  0  0  0  0  0  0  0
   -2.1713    1.2079    0.1176 C   0  0  0  0  0  0  0  0  0  0  0  0
   -2.1713   -1.2081    0.1179 C   0  0  0  0  0  0  0  0  0  0  0  0
   -3.5424    1.2081   -0.1383 C   0  0  0  0  0  0  0  0  0  0  0  0
   -3.5426   -1.2079   -0.1381 C   0  0  0  0  0  0  0  0  0  0  0  0
   -4.2280    0.0002   -0.2662 C   0  0  0  0  0  0  0  0  0  0  0  0
   -1.4603    2.5154    0.2490 C   0  0  0  0  0  0  0  0  0  0  0  0
   -1.4606   -2.5155    0.2494 C   0  0  0  0  0  0  0  0  0  0  0  0
    1.9084    0.0003   -0.3171 C   0  0  0  0  0  0  0  0  0  0  0  0
    2.5871   -1.2079   -0.1902 C   0  0  0  0  0  0  0  0  0  0  0  0
    2.5872    1.2083   -0.1893 C   0  0  0  0  0  0  0  0  0  0  0  0
    3.9580   -1.2081    0.0670 C   0  0  0  0  0  0  0  0  0  0  0  0
    3.9582    1.2079    0.0679 C   0  0  0  0  0  0  0  0  0  0  0  0
    4.6435   -0.0003    0.1960 C   0  0  0  0  0  0  0  0  0  0  0  0
  1  2  2  0
  1  3  1  0
  2 11  1  0
  3  4  2  0
  3  5  1  0
  4  6  1  0
  4  9  1  0
  5  7  2  0
  5 10  1  0
  6  8  2  0
  7  8  1  0
 11 12  2  0
 11 13  1  0
 12 14  1  0
 13 15  2  0
 14 16  2  0
 15 16  1  0
M  END
>  <PUBCHEM_COMPOUND_CID>  (1) 
28616

>  <PUBCHEM_CONFORMER_RMSD>  (1) 
0.6

>  <PUBCHEM_CONFORMER_DIVERSEORDER>  (1) 
1
2

>  <PUBCHEM_MMFF94_PARTIAL_CHARGES>  (1) 
24
1 -0.18
10 0.14
11 0.18
12 -0.15
13 -0.15
14 -0.15
15 -0.15
16 -0.15
17 0.15
18 0.15
19 0.15
2 -0.18
26 0.15
27 0.15
28 0.15
29 0.15
3 0.18
30 0.15
4 -0.14
5 -0.14
6 -0.15
7 -0.15
8 -0.15
9 0.14

>  <PUBCHEM_EFFECTIVE_ROTOR_COUNT>  (1) 
2

>  <PUBCHEM_PHARMACOPHORE_FEATURES>  (1) 
2
6 11 12 13 14 15 16 rings
6 3 4 5 6 7 8 rings

>  <PUBCHEM_HEAVY_ATOM_COUNT>  (1) 
16

>  <PUBCHEM_ATOM_DEF_STEREO_COUNT>  (1) 
0

>  <PUBCHEM_ATOM_UDEF_STEREO_COUNT>  (1) 
0

>  <PUBCHEM_BOND_DEF_STEREO_COUNT>  (1) 
0

>  <PUBCHEM_BOND_UDEF_STEREO_COUNT>  (1) 
0

>  <PUBCHEM_ISOTOPIC_ATOM_COUNT>  (1) 
0

>  <PUBCHEM_COMPONENT_COUNT>  (1) 
1

>  <PUBCHEM_CACTVS_TAUTO_COUNT>  (1) 
1

>  <PUBCHEM_CONFORMER_ID>  (1) 
00006FC800000001

>  <PUBCHEM_MMFF94_ENERGY>  (1) 
44.4615

>  <PUBCHEM_FEATURE_SELFOVERLAP>  (1) 
10.149

>  <PUBCHEM_SHAPE_FINGERPRINT>  (1) 
10366900 7 18060136565753039776
10608611 8 18412543219404622048
10616163 171 18339927112046301182
11370993 70 18411133628202126838
11615757 297 16988847210970713056
12107183 9 17688587165775560904
12173636 292 18338232674480590421
12251169 10 18408322181522814164
12500047 106 18410569604464339186
13167823 11 18408882932268707826
14144814 61 18409732833255443658
15196674 1 18410575084673628437
15375358 24 18342739624071863662
15442244 35 18265614269609710170
15536298 74 18411700967828084146
17492 89 18410293601308430690
17802600 8 18413385432395052048
17834074 16 18410857659483902118
18186145 218 18339366253509259740
19050596 39 18410856572857098328
200 152 17917708006823051821
20279233 1 18271814522789300822
20300324 65 18201997742328579389
20510252 161 18342741775966380817
20528008 55 18412260648873367966
20645477 56 18408324380298442077
20645477 70 18342459205915765774
21029758 11 18343014532523581057
21267235 1 18409739468727000614
2306618 200 18130514050205177185
23402539 116 18341886386158672565
23557571 272 18202293493376103660
23559900 14 18342736274376985922
2838139 119 16082465823348534831
3421961 26 17110734912804625691
351380 180 18341609304537814564
3545911 37 18410576193192071644
4028521 119 18261386724499391301
4214541 1 18410292480389654700
474 4 17386294328004996716
5104073 3 18411138034685072960
5374978 207 18411979174097208576
573450 72 18334565820270978954
58051976 100 18334860510793695246
67856867 119 18262233456249395956
69090 78 18410008827727504855
77779 3 18410576184433176076
8809292 202 18409451418181623282
93112 12 18410014334059960814
9709674 26 18413395327883943478

>  <PUBCHEM_SHAPE_MULTIPOLES>  (1) 
319.31
8.92
2.17
0.67
4.76
0
0
0
0.2
-1.03
-0.18
-0.01
0
0

>  <PUBCHEM_SHAPE_SELFOVERLAP>  (1) 
684.277

>  <PUBCHEM_SHAPE_VOLUME>  (1) 
178.2

>  <PUBCHEM_COORDINATE_TYPE>  (1) 
2
5
10

$$$$
