28622
     RDKit          3D

 12 12  0  0  1  0  0  0  0  0999 V2000
   -3.1825    0.8639   -0.1915 N   0  0  0  0  0  0  0  0  0  0  0  0
   -4.5458    0.7615   -0.5954 N   0  0  0  0  0  0  0  0  0  0  0  0
   -1.1738   -0.4591    0.3876 C   0  0  0  0  0  0  0  0  0  0  0  0
   -2.6700   -0.4895    0.0236 C   0  0  0  0  0  0  0  0  0  0  0  0
   -0.2567    0.1407   -0.6889 C   0  0  0  0  0  0  0  0  0  0  0  0
    1.2086    0.0980   -0.3353 C   0  0  0  0  0  0  0  0  0  0  0  0
   -3.4749   -1.1712    1.1306 C   0  0  0  0  0  0  0  0  0  0  0  0
    1.7754    1.1631    0.3484 C   0  0  0  0  0  0  0  0  0  0  0  0
    1.9652   -1.0057   -0.6991 C   0  0  0  0  0  0  0  0  0  0  0  0
    3.1308    1.1237    0.6758 C   0  0  0  0  0  0  0  0  0  0  0  0
    3.3205   -1.0451   -0.3716 C   0  0  0  0  0  0  0  0  0  0  0  0
    3.9032    0.0196    0.3158 C   0  0  0  0  0  0  0  0  0  0  0  0
  1  2  1  0
  1  4  1  0
  3  4  1  0
  3  5  1  0
  4  7  1  0
  5  6  1  0
  6  8  2  0
  6  9  1  0
  8 10  1  0
  9 11  2  0
 10 12  2  0
 11 12  1  0
M  END
>  <PUBCHEM_COMPOUND_CID>  (1) 
28622

>  <PUBCHEM_CONFORMER_RMSD>  (1) 
0.6

>  <PUBCHEM_CONFORMER_DIVERSEORDER>  (1) 
6
20
10
9
22
19
17
4
21
2
13
5
16
3
18
7
1
12
14
11
15
8

>  <PUBCHEM_MMFF94_PARTIAL_CHARGES>  (1) 
18
1 -0.63
10 -0.15
11 -0.15
12 -0.15
2 -0.72
21 0.36
22 0.15
23 0.15
24 0.15
25 0.15
26 0.36
27 0.36
28 0.15
4 0.27
5 0.14
6 -0.14
8 -0.15
9 -0.15

>  <PUBCHEM_EFFECTIVE_ROTOR_COUNT>  (1) 
4

>  <PUBCHEM_PHARMACOPHORE_FEATURES>  (1) 
3
1 1 donor
1 2 donor
6 6 8 9 10 11 12 rings

>  <PUBCHEM_HEAVY_ATOM_COUNT>  (1) 
12

>  <PUBCHEM_ATOM_DEF_STEREO_COUNT>  (1) 
0

>  <PUBCHEM_ATOM_UDEF_STEREO_COUNT>  (1) 
1

>  <PUBCHEM_BOND_DEF_STEREO_COUNT>  (1) 
0

>  <PUBCHEM_BOND_UDEF_STEREO_COUNT>  (1) 
0

>  <PUBCHEM_ISOTOPIC_ATOM_COUNT>  (1) 
0

>  <PUBCHEM_COMPONENT_COUNT>  (1) 
1

>  <PUBCHEM_CACTVS_TAUTO_COUNT>  (1) 
1

>  <PUBCHEM_CONFORMER_ID>  (1) 
00006FCE00000006

>  <PUBCHEM_MMFF94_ENERGY>  (1) 
19.6206

>  <PUBCHEM_FEATURE_SELFOVERLAP>  (1) 
16.553

>  <PUBCHEM_SHAPE_FINGERPRINT>  (1) 
10219947 1 17775287153544486566
10608611 8 18411697707578810297
11062470 55 18342737407678451518
11471102 20 18202843245269193884
12162725 195 17704077269896910969
12346177 29 17822004354890252767
124424 183 18411698772767337153
12500047 106 18261108582285621771
12932764 1 18201728395928179583
13296908 3 18335143111093820931
13922767 16 18272929414710573584
14144814 61 17704360965229217290
14251717 144 17917990551310189382
14252887 29 18059862736229936238
14325111 11 18341612645943288487
15219456 202 18411982481021475180
15653759 3 18261115187981863081
18186145 218 17845947289382929559
190213 19 12251899308605127726
19026448 4 18408887355884302891
19107657 47 18060699481067134825
19422 9 15285648719558673499
1986462 14 17894351090273626827
200 152 17489300880709481101
20201158 50 18341896268467028594
20279233 1 18410295813284386887
20281407 28 18041003920878863050
20528008 55 18343861121584109999
20645477 70 18130504132814688174
20715346 28 18410018757786754351
20871998 22 17630338428766326390
22169311 21 18410012143510926627
22485316 2 17821727234572322602
23048698 100 17418373597124745258
23402539 116 18335127713477724943
23402655 69 17988922262462901084
449060 50 18269840963899922544
57812782 119 18412545409679401651
69090 78 18343578564608353079

>  <PUBCHEM_SHAPE_MULTIPOLES>  (1) 
236.99
8.27
1.26
0.92
5.01
0.02
-0.09
0.32
-0.65
-0.26
-0.07
0.29
-0.09
1.06

>  <PUBCHEM_SHAPE_SELFOVERLAP>  (1) 
471.28

>  <PUBCHEM_SHAPE_VOLUME>  (1) 
140.3

>  <PUBCHEM_COORDINATE_TYPE>  (1) 
2
5
10

$$$$
