28627
     RDKit          3D

 16 16  0  0  0  0  0  0  0  0999 V2000
   -0.4037    0.3614   -0.0136 O   0  0  0  0  0  0  0  0  0  0  0  0
    0.5557    2.3896    0.5013 O   0  0  0  0  0  0  0  0  0  0  0  0
   -5.1250   -0.6512   -0.3929 N   0  0  0  0  0  0  0  0  0  0  0  0
    5.5698   -1.5285   -0.2357 N   0  0  0  0  0  0  0  0  0  0  0  0
   -4.1562    0.4057   -0.1284 C   0  0  0  0  0  0  0  0  0  0  0  0
   -2.7360   -0.1428   -0.2206 C   0  0  0  0  0  0  0  0  0  0  0  0
   -1.7009    0.9347    0.0728 C   0  0  0  0  0  0  0  0  0  0  0  0
   -6.4917   -0.1399   -0.2728 C   0  0  0  0  0  0  0  0  0  0  0  0
   -4.9223   -1.7770    0.5207 C   0  0  0  0  0  0  0  0  0  0  0  0
    1.9343    0.4857    0.1023 C   0  0  0  0  0  0  0  0  0  0  0  0
    0.6402    1.2032    0.2244 C   0  0  0  0  0  0  0  0  0  0  0  0
    3.0487    1.1858   -0.3128 C   0  0  0  0  0  0  0  0  0  0  0  0
    1.9832   -0.8589    0.4088 C   0  0  0  0  0  0  0  0  0  0  0  0
    4.3400   -0.8473   -0.1223 C   0  0  0  0  0  0  0  0  0  0  0  0
    4.2647    0.5120   -0.4264 C   0  0  0  0  0  0  0  0  0  0  0  0
    3.1993   -1.5327    0.2952 C   0  0  0  0  0  0  0  0  0  0  0  0
  1  7  1  0
  1 11  1  0
  2 11  2  0
  3  5  1  0
  3  8  1  0
  3  9  1  0
  4 14  1  0
  5  6  1  0
  6  7  1  0
 10 11  1  0
 10 12  2  0
 10 13  1  0
 12 15  1  0
 13 16  2  0
 14 15  2  0
 14 16  1  0
M  END
>  <PUBCHEM_COMPOUND_CID>  (1) 
28627

>  <PUBCHEM_CONFORMER_RMSD>  (1) 
0.8

>  <PUBCHEM_CONFORMER_DIVERSEORDER>  (1) 
1
34
3
29
31
24
18
36
32
2
40
30
23
26
27
22
10
16
42
37
25
21
19
12
39
41
20
9
38
14
28
4
35
6
17
11
7
33
8
5
15
13

>  <PUBCHEM_MMFF94_PARTIAL_CHARGES>  (1) 
21
1 -0.43
10 0.09
11 0.63
12 -0.15
13 -0.15
14 0.1
15 -0.15
16 -0.15
2 -0.57
29 0.15
3 -0.81
30 0.15
31 0.15
32 0.15
33 0.4
34 0.4
4 -0.9
5 0.27
7 0.28
8 0.27
9 0.27

>  <PUBCHEM_EFFECTIVE_ROTOR_COUNT>  (1) 
6

>  <PUBCHEM_PHARMACOPHORE_FEATURES>  (1) 
5
1 2 acceptor
1 3 cation
1 4 cation
1 4 donor
6 10 12 13 14 15 16 rings

>  <PUBCHEM_HEAVY_ATOM_COUNT>  (1) 
16

>  <PUBCHEM_ATOM_DEF_STEREO_COUNT>  (1) 
0

>  <PUBCHEM_ATOM_UDEF_STEREO_COUNT>  (1) 
0

>  <PUBCHEM_BOND_DEF_STEREO_COUNT>  (1) 
0

>  <PUBCHEM_BOND_UDEF_STEREO_COUNT>  (1) 
0

>  <PUBCHEM_ISOTOPIC_ATOM_COUNT>  (1) 
0

>  <PUBCHEM_COMPONENT_COUNT>  (1) 
1

>  <PUBCHEM_CACTVS_TAUTO_COUNT>  (1) 
2

>  <PUBCHEM_CONFORMER_ID>  (1) 
00006FD300000001

>  <PUBCHEM_MMFF94_ENERGY>  (1) 
49.5805

>  <PUBCHEM_FEATURE_SELFOVERLAP>  (1) 
25.371

>  <PUBCHEM_SHAPE_FINGERPRINT>  (1) 
100836 57 9223225265079950410
11806522 49 18336829689575664320
12596602 18 16415191312967454771
13167823 11 18410854382566293167
13690532 89 18341894095398160653
13862211 1 18273212002120997279
13955234 65 18127408067227604920
14251764 18 18272938233169904465
14252887 29 17632302259063694206
14455015 7 18335707165339147163
14576447 43 18334296414695812074
15183329 4 18335413527357984437
15188451 53 15697419136297775319
15242439 84 18259699021922688485
15475509 35 14979409352962835508
15477762 27 18335422340356471828
17834072 33 18409730681440009069
17834072 8 18333443241117576543
17844677 252 18335145289033065589
193927 3 18201450154924770639
19784866 240 18341338815992494989
200 152 18413670197031628040
20261772 1 17918269870060427711
20374829 77 18187641406035494755
20645477 70 18409167692884753030
20871999 31 17603581885817583957
21267235 1 18341056237663038902
221490 88 18191030208098861363
2215653 11 18336537283975848375
23557571 272 17313099714030882709
23559900 14 18337103588146052297
239999 70 18410294718379021246
2871803 45 18186518791398799466
29717793 49 18343303647603319085
3004659 81 18187363216529495330
314194 84 18272086119341328063
351380 3 18273210902672646975
4047638 21 9655577422240644340
4214541 1 18409166580847081853
465052 167 18272937154352586551
5104073 3 18271806800206118241
59682541 35 18271794741129882586
59682541 52 13479414895673245682

>  <PUBCHEM_SHAPE_MULTIPOLES>  (1) 
307.57
14.14
1.78
0.68
14.77
0.07
-0.01
-6.4
1.8
-0.83
-0.26
0.03
0
0.15

>  <PUBCHEM_SHAPE_SELFOVERLAP>  (1) 
621.683

>  <PUBCHEM_SHAPE_VOLUME>  (1) 
181.7

>  <PUBCHEM_COORDINATE_TYPE>  (1) 
2
5
10

$$$$
