28629
     RDKit          3D

 18 18  0  0  0  0  0  0  0  0999 V2000
    0.2257    0.9842   -0.6002 O   0  0  0  0  0  0  0  0  0  0  0  0
   -0.5973    2.3962    1.0210 O   0  0  0  0  0  0  0  0  0  0  0  0
    3.2757   -0.5290    0.0513 N   0  0  0  0  0  0  0  0  0  0  0  0
   -5.4446   -1.6402   -0.1005 N   0  0  0  0  0  0  0  0  0  0  0  0
    2.6684   -0.4285   -1.2701 C   0  0  0  0  0  0  0  0  0  0  0  0
    2.3938    1.0312   -1.6170 C   0  0  0  0  0  0  0  0  0  0  0  0
    4.5425    0.2037    0.0937 C   0  0  0  0  0  0  0  0  0  0  0  0
    3.4879   -1.9308    0.4163 C   0  0  0  0  0  0  0  0  0  0  0  0
    1.4638    1.6815   -0.6017 C   0  0  0  0  0  0  0  0  0  0  0  0
    5.1540    0.1630    1.4839 C   0  0  0  0  0  0  0  0  0  0  0  0
    2.1848   -2.7112    0.3789 C   0  0  0  0  0  0  0  0  0  0  0  0
   -0.7214    1.4476    0.2620 C   0  0  0  0  0  0  0  0  0  0  0  0
   -1.9615    0.6366    0.1681 C   0  0  0  0  0  0  0  0  0  0  0  0
   -3.1744    1.2395    0.4317 C   0  0  0  0  0  0  0  0  0  0  0  0
   -1.8631   -0.6949   -0.1809 C   0  0  0  0  0  0  0  0  0  0  0  0
   -4.2665   -0.8702   -0.0086 C   0  0  0  0  0  0  0  0  0  0  0  0
   -4.3396    0.4778    0.3424 C   0  0  0  0  0  0  0  0  0  0  0  0
   -3.0282   -1.4565   -0.2703 C   0  0  0  0  0  0  0  0  0  0  0  0
  1  9  1  0
  1 12  1  0
  2 12  2  0
  3  5  1  0
  3  7  1  0
  3  8  1  0
  4 16  1  0
  5  6  1  0
  6  9  1  0
  7 10  1  0
  8 11  1  0
 12 13  1  0
 13 14  2  0
 13 15  1  0
 14 17  1  0
 15 18  2  0
 16 17  2  0
 16 18  1  0
M  END
>  <PUBCHEM_COMPOUND_CID>  (1) 
28629

>  <PUBCHEM_CONFORMER_RMSD>  (1) 
0.8

>  <PUBCHEM_CONFORMER_DIVERSEORDER>  (1) 
2
170
61
30
94
158
118
11
152
96
139
70
13
73
148
175
8
77
39
131
109
7
54
138
4
20
59
107
14
154
89
53
168
121
147
74
115
38
44
149
174
1
15
22
85
29
166
141
176
82
105
144
37
33
177
150
161
128
98
60
162
17
104
79
114
57
83
6
66
9
173
157
86
169
119
95
67
27
132
16
120
163
113
35
155
78
50
18
146
127
102
117
3
99
21
25
52
116
65
134
23
172
101
69
143
153
43
151
100
103
64
34
5
130
87
135
19
46
31
51
159
48
72
160
71
171
142
111
24
108
45
145
26
28
165
76
167
81
49
93
140
90
124
10
125
106
137
75
88
80
40
55
129
133
164
68
63
156
62
84
123
42
110
97
12
126
36
41
136
92
122
112
91
47
56
58
32

>  <PUBCHEM_MMFF94_PARTIAL_CHARGES>  (1) 
21
1 -0.43
12 0.63
13 0.09
14 -0.15
15 -0.15
16 0.1
17 -0.15
18 -0.15
2 -0.57
3 -0.81
35 0.15
36 0.15
37 0.15
38 0.15
39 0.4
4 -0.9
40 0.4
5 0.27
7 0.27
8 0.27
9 0.28

>  <PUBCHEM_EFFECTIVE_ROTOR_COUNT>  (1) 
8

>  <PUBCHEM_PHARMACOPHORE_FEATURES>  (1) 
5
1 2 acceptor
1 3 cation
1 4 cation
1 4 donor
6 13 14 15 16 17 18 rings

>  <PUBCHEM_HEAVY_ATOM_COUNT>  (1) 
18

>  <PUBCHEM_ATOM_DEF_STEREO_COUNT>  (1) 
0

>  <PUBCHEM_ATOM_UDEF_STEREO_COUNT>  (1) 
0

>  <PUBCHEM_BOND_DEF_STEREO_COUNT>  (1) 
0

>  <PUBCHEM_BOND_UDEF_STEREO_COUNT>  (1) 
0

>  <PUBCHEM_ISOTOPIC_ATOM_COUNT>  (1) 
0

>  <PUBCHEM_COMPONENT_COUNT>  (1) 
1

>  <PUBCHEM_CACTVS_TAUTO_COUNT>  (1) 
2

>  <PUBCHEM_CONFORMER_ID>  (1) 
00006FD500000002

>  <PUBCHEM_MMFF94_ENERGY>  (1) 
47.125

>  <PUBCHEM_FEATURE_SELFOVERLAP>  (1) 
25.372

>  <PUBCHEM_SHAPE_FINGERPRINT>  (1) 
10062212 137 18341897372938301079
10447042 23 18336253605037570574
11118852 30 18413389817646585598
12553582 1 18262536830615099748
12596602 18 17489593380624940339
13083527 12 18186797002812879876
14178342 30 18265613178793745824
14252887 29 17632307773796486020
14341114 328 18202558506323203304
14787075 74 18200868608427719336
14863182 85 18336555954062040886
15196674 1 18410575041756000258
15880784 105 17846502517312388802
17857418 61 18408882966939578591
1798214 20 18333732416158401911
18186145 218 14273740685158175189
20291156 8 18336267821321206798
20626108 58 17967523597533837824
20645477 70 17749395892187895420
21250096 35 18412825780881172179
21315763 178 18413670227602944071
21673915 165 18411134715008006018
2255824 54 18115602576615121236
23253445 4 17274820289513451096
23557571 272 18059862757250897258
23559900 14 17844547521123984452
251288 83 18202002123290316292
3004659 81 18333740134124962428
339767 52 18335972117054534507
4990 188 12612753518914884920
5104073 3 18271808956237392275
5161694 15 13190346751268119784
573450 72 18410295791904684337
67856867 119 18263364866129976060

>  <PUBCHEM_SHAPE_MULTIPOLES>  (1) 
348.73
10.87
2.36
1.11
1.59
0.67
-0.11
3.88
2.06
-0.22
0.25
-1.21
-0.3
-0.83

>  <PUBCHEM_SHAPE_SELFOVERLAP>  (1) 
701.182

>  <PUBCHEM_SHAPE_VOLUME>  (1) 
206.1

>  <PUBCHEM_COORDINATE_TYPE>  (1) 
2
5
10

$$$$
