28631
     RDKit          3D

 20 20  0  0  0  0  0  0  0  0999 V2000
   -0.1496   -1.2571    0.5191 O   0  0  0  0  0  0  0  0  0  0  0  0
   -0.8764   -2.2827   -1.4093 O   0  0  0  0  0  0  0  0  0  0  0  0
    2.8995    0.3841    0.3589 N   0  0  0  0  0  0  0  0  0  0  0  0
   -5.8625    1.3887    0.3469 N   0  0  0  0  0  0  0  0  0  0  0  0
    2.2367   -0.0095    1.5962 C   0  0  0  0  0  0  0  0  0  0  0  0
    4.3318    0.0874    0.4242 C   0  0  0  0  0  0  0  0  0  0  0  0
    2.6882    1.8078    0.0907 C   0  0  0  0  0  0  0  0  0  0  0  0
    1.9724   -1.5117    1.6005 C   0  0  0  0  0  0  0  0  0  0  0  0
    4.9110   -0.0405   -0.9824 C   0  0  0  0  0  0  0  0  0  0  0  0
    1.2836    2.0402   -0.4605 C   0  0  0  0  0  0  0  0  0  0  0  0
    1.0990   -1.9287    0.4249 C   0  0  0  0  0  0  0  0  0  0  0  0
    6.3952   -0.3703   -0.9423 C   0  0  0  0  0  0  0  0  0  0  0  0
    1.0457    3.5106   -0.7680 C   0  0  0  0  0  0  0  0  0  0  0  0
   -1.0499   -1.5256   -0.4670 C   0  0  0  0  0  0  0  0  0  0  0  0
   -2.3067   -0.7641   -0.2549 C   0  0  0  0  0  0  0  0  0  0  0  0
   -3.3626   -0.8953   -1.1569 C   0  0  0  0  0  0  0  0  0  0  0  0
   -2.4317    0.0825    0.8467 C   0  0  0  0  0  0  0  0  0  0  0  0
   -4.5433   -0.1802   -0.9573 C   0  0  0  0  0  0  0  0  0  0  0  0
   -3.6123    0.7977    1.0463 C   0  0  0  0  0  0  0  0  0  0  0  0
   -4.6682    0.6665    0.1442 C   0  0  0  0  0  0  0  0  0  0  0  0
  1 11  1  0
  1 14  1  0
  2 14  2  0
  3  5  1  0
  3  6  1  0
  3  7  1  0
  4 20  1  0
  5  8  1  0
  6  9  1  0
  7 10  1  0
  8 11  1  0
  9 12  1  0
 10 13  1  0
 14 15  1  0
 15 16  2  0
 15 17  1  0
 16 18  1  0
 17 19  2  0
 18 20  2  0
 19 20  1  0
M  END
>  <PUBCHEM_COMPOUND_CID>  (1) 
28631

>  <PUBCHEM_CONFORMER_RMSD>  (1) 
1

>  <PUBCHEM_CONFORMER_DIVERSEORDER>  (1) 
1
34
45
16
54
47
21
53
61
60
23
29
22
39
20
9
55
18
59
38
30
33
24
28
31
37
42
2
10
17
3
25
43
14
27
35
12
44
46
58
40
15
32
13
19
7
8
62
26
41
48
5
52
11
56
51
36
4
6
50
49
57

>  <PUBCHEM_MMFF94_PARTIAL_CHARGES>  (1) 
21
1 -0.43
11 0.28
14 0.63
15 0.09
16 -0.15
17 -0.15
18 -0.15
19 -0.15
2 -0.57
20 0.1
3 -0.81
4 -0.9
41 0.15
42 0.15
43 0.15
44 0.15
45 0.4
46 0.4
5 0.27
6 0.27
7 0.27

>  <PUBCHEM_EFFECTIVE_ROTOR_COUNT>  (1) 
10

>  <PUBCHEM_PHARMACOPHORE_FEATURES>  (1) 
7
1 12 hydrophobe
1 13 hydrophobe
1 2 acceptor
1 3 cation
1 4 cation
1 4 donor
6 15 16 17 18 19 20 rings

>  <PUBCHEM_HEAVY_ATOM_COUNT>  (1) 
20

>  <PUBCHEM_ATOM_DEF_STEREO_COUNT>  (1) 
0

>  <PUBCHEM_ATOM_UDEF_STEREO_COUNT>  (1) 
0

>  <PUBCHEM_BOND_DEF_STEREO_COUNT>  (1) 
0

>  <PUBCHEM_BOND_UDEF_STEREO_COUNT>  (1) 
0

>  <PUBCHEM_ISOTOPIC_ATOM_COUNT>  (1) 
0

>  <PUBCHEM_COMPONENT_COUNT>  (1) 
1

>  <PUBCHEM_CACTVS_TAUTO_COUNT>  (1) 
2

>  <PUBCHEM_CONFORMER_ID>  (1) 
00006FD700000001

>  <PUBCHEM_MMFF94_ENERGY>  (1) 
43.176

>  <PUBCHEM_FEATURE_SELFOVERLAP>  (1) 
35.52

>  <PUBCHEM_SHAPE_FINGERPRINT>  (1) 
10366900 7 17313376864059856755
104564 63 18261668156568945180
10670039 82 17917431965238856185
12011746 2 18334294249304327277
12166972 35 18201156650098280209
12553582 1 18260818298336365648
12633257 1 17385991897492218769
13583140 156 17894623778074473083
14251751 18 15338829906502842966
15183329 4 17989212504137899326
15238133 3 17677316260931488024
15475509 8 18341626871534492620
1601671 61 18408882910704005636
17834072 8 18130793352144635326
20645476 183 18341886433419656463
21041028 32 17826210927364049058
21285901 2 18128546977048673542
21503847 285 18336263530791348424
23557571 272 17131547349420733967
23558518 356 17828481710780285978
23559900 14 16916776418519468282
2637199 183 18334575758999595906
3084891 8 18267308638819740078
347723 3 18334858308298294890
3797600 57 12396566478005219662
392239 28 10881399850904742670
4325135 7 18410012157340054699
4409770 3 15821020327506970159
474 4 18409726253729731619
59682541 35 10881697831551463518
6328613 192 18342183319066189780
633830 44 18262232347962769094
7832392 63 18338229487714959866
9981440 41 17044001158146799392

>  <PUBCHEM_SHAPE_MULTIPOLES>  (1) 
389.89
12
2.56
1.35
1.48
1.76
0.13
1.89
-2.25
0.71
-0.51
0.25
-0.39
-1.01

>  <PUBCHEM_SHAPE_SELFOVERLAP>  (1) 
774.279

>  <PUBCHEM_SHAPE_VOLUME>  (1) 
233.1

>  <PUBCHEM_COORDINATE_TYPE>  (1) 
2
5
10

$$$$
