28638
     RDKit          3D

 14 14  0  0  1  0  0  0  0  0999 V2000
   -0.3393    1.6784    1.0006 O   0  0  0  0  0  0  0  0  0  0  0  0
   -4.3858    0.6398   -0.7046 O   0  0  0  0  0  0  0  0  0  0  0  0
   -2.5177    0.0741    0.0898 N   0  0  0  0  0  0  0  0  0  0  0  0
   -3.4436   -0.1532   -0.8185 N   0  0  0  0  0  0  0  0  0  0  0  0
   -1.1466   -0.1631   -0.3791 C   0  0  0  0  0  0  0  0  0  0  0  0
   -0.1418    0.2936    0.7024 C   0  0  0  0  0  0  0  0  0  0  0  0
    1.3068    0.1376    0.2917 C   0  0  0  0  0  0  0  0  0  0  0  0
   -1.0130   -1.6497   -0.7148 C   0  0  0  0  0  0  0  0  0  0  0  0
    1.9633   -1.0486    0.5695 C   0  0  0  0  0  0  0  0  0  0  0  0
    1.9424    1.1843   -0.3531 C   0  0  0  0  0  0  0  0  0  0  0  0
   -2.7547   -0.6926    1.3171 C   0  0  0  0  0  0  0  0  0  0  0  0
    3.2980   -1.1925    0.1908 C   0  0  0  0  0  0  0  0  0  0  0  0
    3.2771    1.0402   -0.7319 C   0  0  0  0  0  0  0  0  0  0  0  0
    3.9549   -0.1483   -0.4598 C   0  0  0  0  0  0  0  0  0  0  0  0
  1  6  1  0
  2  4  2  0
  3  4  1  0
  3  5  1  0
  3 11  1  0
  5  6  1  0
  5  8  1  0
  6  7  1  0
  7  9  2  0
  7 10  1  0
  9 12  1  0
 10 13  2  0
 12 14  2  0
 13 14  1  0
M  END
>  <PUBCHEM_COMPOUND_CID>  (1) 
28638

>  <PUBCHEM_CONFORMER_RMSD>  (1) 
0.6

>  <PUBCHEM_CONFORMER_DIVERSEORDER>  (1) 
18
36
11
9
48
3
30
15
34
49
21
44
4
39
26
17
12
46
19
43
25
37
16
1
14
13
23
45
40
38
27
2
6
41
5
33
20
35
29
28
47
7
32
42
24
10
22
31
8

>  <PUBCHEM_MMFF94_PARTIAL_CHARGES>  (1) 
19
1 -0.68
10 -0.15
11 0.27
12 -0.15
13 -0.15
14 -0.15
2 -0.16
20 0.15
21 0.15
25 0.4
26 0.15
27 0.15
28 0.15
3 -0.36
4 -0.01
5 0.27
6 0.42
7 -0.14
9 -0.15

>  <PUBCHEM_EFFECTIVE_ROTOR_COUNT>  (1) 
4

>  <PUBCHEM_PHARMACOPHORE_FEATURES>  (1) 
3
1 1 acceptor
1 1 donor
6 7 9 10 12 13 14 rings

>  <PUBCHEM_HEAVY_ATOM_COUNT>  (1) 
14

>  <PUBCHEM_ATOM_DEF_STEREO_COUNT>  (1) 
0

>  <PUBCHEM_ATOM_UDEF_STEREO_COUNT>  (1) 
2

>  <PUBCHEM_BOND_DEF_STEREO_COUNT>  (1) 
0

>  <PUBCHEM_BOND_UDEF_STEREO_COUNT>  (1) 
0

>  <PUBCHEM_ISOTOPIC_ATOM_COUNT>  (1) 
0

>  <PUBCHEM_COMPONENT_COUNT>  (1) 
1

>  <PUBCHEM_CACTVS_TAUTO_COUNT>  (1) 
1

>  <PUBCHEM_CONFORMER_ID>  (1) 
00006FDE00000012

>  <PUBCHEM_MMFF94_ENERGY>  (1) 
44.9682

>  <PUBCHEM_FEATURE_SELFOVERLAP>  (1) 
15.223

>  <PUBCHEM_SHAPE_FINGERPRINT>  (1) 
10130415 120 18201719561180354232
10608611 8 17749110036218111180
11031198 65 17676494960131430478
11471102 20 18261109669154603014
12251169 10 10303810982164335900
12500047 106 17312821580565322483
12932764 1 18341614875120966464
13296908 3 18040438818904175042
13571099 22 18410292497421837358
13581323 91 12679458690111266472
13760787 5 18272378567705954049
14115302 16 18342457066910795222
14144814 61 18131637789490144930
14943859 89 15647052659516609520
14993402 34 18060137652237321247
15219456 202 17749114417052961714
15775835 57 18334016129082047398
16752209 62 18130506318926401297
16945 1 18131077034454876882
17844478 74 17821737160067488419
18175812 5 17458065975398493127
18186145 218 17095238116216021554
18619055 16 18412261761428153134
190213 19 18411985771188048058
19026448 4 17530971297248936859
19422 9 18411708706931916275
200 152 18412543193576503664
20201158 50 18333450919743960026
20279233 1 17603587438904160530
20523700 14 18409731793921038758
20645476 183 18338236075794300942
20645477 70 18334856082756506350
21119208 17 18408886235177361590
23402539 116 17560803191136784488
23402655 69 18333171665470816452
25 1 17749105578189692514
2748010 2 17841990276057539090
3286 77 14549018758536566038
522135 26 18334009471487073463
74978 22 17916582179930724667
8272917 22 18263643961826361407
93112 12 18114181951445781175

>  <PUBCHEM_SHAPE_MULTIPOLES>  (1) 
266.41
7.05
1.41
1.03
2.08
0.05
0.12
-0.22
-1.51
-0.47
0.02
0.52
0.02
-0.14

>  <PUBCHEM_SHAPE_SELFOVERLAP>  (1) 
544.631

>  <PUBCHEM_SHAPE_VOLUME>  (1) 
155.3

>  <PUBCHEM_COORDINATE_TYPE>  (1) 
2
5
10

$$$$
