28633
     RDKit          3D

 22 22  0  0  0  0  0  0  0  0999 V2000
   -0.4332   -1.3111   -0.6100 O   0  0  0  0  0  0  0  0  0  0  0  0
   -1.0845   -2.2773    1.3753 O   0  0  0  0  0  0  0  0  0  0  0  0
    2.6055    0.3811   -0.6436 N   0  0  0  0  0  0  0  0  0  0  0  0
   -6.1600    1.2948   -0.3288 N   0  0  0  0  0  0  0  0  0  0  0  0
    4.0276    0.0557   -0.7622 C   0  0  0  0  0  0  0  0  0  0  0  0
    2.4217    1.8164   -0.4555 C   0  0  0  0  0  0  0  0  0  0  0  0
    4.7306   -0.0132    0.6044 C   0  0  0  0  0  0  0  0  0  0  0  0
    1.1083    2.1501    0.2725 C   0  0  0  0  0  0  0  0  0  0  0  0
    1.8780   -0.0800   -1.8268 C   0  0  0  0  0  0  0  0  0  0  0  0
    1.6521   -1.5868   -1.7557 C   0  0  0  0  0  0  0  0  0  0  0  0
    4.0734   -1.0921    1.4695 C   0  0  0  0  0  0  0  0  0  0  0  0
    6.2299   -0.2960    0.4800 C   0  0  0  0  0  0  0  0  0  0  0  0
    1.1021    1.4917    1.6548 C   0  0  0  0  0  0  0  0  0  0  0  0
    0.8849    3.6575    0.4198 C   0  0  0  0  0  0  0  0  0  0  0  0
    0.8233   -1.9706   -0.5373 C   0  0  0  0  0  0  0  0  0  0  0  0
   -1.2965   -1.5530    0.4152 C   0  0  0  0  0  0  0  0  0  0  0  0
   -2.5671   -0.8098    0.2206 C   0  0  0  0  0  0  0  0  0  0  0  0
   -3.5911   -0.9208    1.1613 C   0  0  0  0  0  0  0  0  0  0  0  0
   -2.7365   -0.0002   -0.9025 C   0  0  0  0  0  0  0  0  0  0  0  0
   -4.7846   -0.2221    0.9787 C   0  0  0  0  0  0  0  0  0  0  0  0
   -3.9298    0.6983   -1.0852 C   0  0  0  0  0  0  0  0  0  0  0  0
   -4.9539    0.5873   -0.1446 C   0  0  0  0  0  0  0  0  0  0  0  0
  1 15  1  0
  1 16  1  0
  2 16  2  0
  3  5  1  0
  3  6  1  0
  3  9  1  0
  4 22  1  0
  5  7  1  0
  6  8  1  0
  7 11  1  0
  7 12  1  0
  8 13  1  0
  8 14  1  0
  9 10  1  0
 10 15  1  0
 16 17  1  0
 17 18  2  0
 17 19  1  0
 18 20  1  0
 19 21  2  0
 20 22  2  0
 21 22  1  0
M  END
>  <PUBCHEM_COMPOUND_CID>  (1) 
28633

>  <PUBCHEM_CONFORMER_RMSD>  (1) 
1

>  <PUBCHEM_CONFORMER_DIVERSEORDER>  (1) 
1
56
43
29
47
37
11
52
21
28
17
24
40
39
10
42
53
9
2
19
51
46
31
45
49
50
54
15
34
48
23
35
36
7
22
33
20
14
27
44
12
8
5
16
55
32
6
13
4
30
38
25
18
26
41
3

>  <PUBCHEM_MMFF94_PARTIAL_CHARGES>  (1) 
21
1 -0.43
15 0.28
16 0.63
17 0.09
18 -0.15
19 -0.15
2 -0.57
20 -0.15
21 -0.15
22 0.1
3 -0.81
4 -0.9
47 0.15
48 0.15
49 0.15
5 0.27
50 0.15
51 0.4
52 0.4
6 0.27
9 0.27

>  <PUBCHEM_EFFECTIVE_ROTOR_COUNT>  (1) 
10

>  <PUBCHEM_PHARMACOPHORE_FEATURES>  (1) 
7
1 2 acceptor
1 3 cation
1 4 cation
1 4 donor
3 7 11 12 hydrophobe
3 8 13 14 hydrophobe
6 17 18 19 20 21 22 rings

>  <PUBCHEM_HEAVY_ATOM_COUNT>  (1) 
22

>  <PUBCHEM_ATOM_DEF_STEREO_COUNT>  (1) 
0

>  <PUBCHEM_ATOM_UDEF_STEREO_COUNT>  (1) 
0

>  <PUBCHEM_BOND_DEF_STEREO_COUNT>  (1) 
0

>  <PUBCHEM_BOND_UDEF_STEREO_COUNT>  (1) 
0

>  <PUBCHEM_ISOTOPIC_ATOM_COUNT>  (1) 
0

>  <PUBCHEM_COMPONENT_COUNT>  (1) 
1

>  <PUBCHEM_CACTVS_TAUTO_COUNT>  (1) 
2

>  <PUBCHEM_CONFORMER_ID>  (1) 
00006FD900000001

>  <PUBCHEM_MMFF94_ENERGY>  (1) 
52.5137

>  <PUBCHEM_FEATURE_SELFOVERLAP>  (1) 
35.52

>  <PUBCHEM_SHAPE_FINGERPRINT>  (1) 
10064457 181 17168429388879790042
10906281 52 18271544051645617272
11578080 2 13336180532327323852
11646440 116 18060427918985778513
12011746 2 16773800325133423312
12403260 363 18126840727727689255
12467345 10 17168141213563809712
12507557 5 18342741840464632643
12633257 1 18410012164800880575
12778500 126 16805600305347022837
12788726 201 18339651053418931184
13004483 165 18335408034004967144
13402501 40 18409445873727374197
14251764 30 13190331332256354328
14466204 15 18337952290336233257
14790565 3 17402046095078966664
15238133 3 18261399948861717542
15295992 7 18262804085192281867
16988056 13 12519961111262585411
17349148 13 17989212563644741554
18785283 64 18195541504344744305
192875 21 17917437548432518800
19784866 9 18040433261279986050
21298829 104 17775008934433185153
23559900 14 18042424459611098990
3052486 1 18266465295651829728
345986 75 17825083958089231098
3472631 163 14045479799394508475
3524813 1 18334294262658825389
3680242 22 18263650567258871985
4072396 5 18343295942964915102
4325135 7 12751517383734558379
474 4 18202288017540480703
5207 217 10519979384018275650
7226269 152 18409165498330525072
7399639 24 17187008033947848713
7495541 125 18262246641302707003
8509985 295 18333725806224715450
9971528 1 17561093488113354676

>  <PUBCHEM_SHAPE_MULTIPOLES>  (1) 
431.05
11.89
2.62
1.54
3.57
1.91
0.06
0.73
-1.57
-0.73
-0.36
-0.46
-0.39
0.66

>  <PUBCHEM_SHAPE_SELFOVERLAP>  (1) 
856.256

>  <PUBCHEM_SHAPE_VOLUME>  (1) 
258.2

>  <PUBCHEM_COORDINATE_TYPE>  (1) 
2
5
10

$$$$
