28644
     RDKit          3D

 27 30  0  0  0  0  0  0  0  0999 V2000
    1.1047    1.3970    0.4088 N   0  0  0  0  0  0  0  0  0  0  0  0
    3.4574   -0.2251   -0.2327 N   0  0  0  0  0  0  0  0  0  0  0  0
    1.1132    0.0206    0.4154 C   0  0  0  0  0  0  0  0  0  0  0  0
   -0.1796   -0.4234    0.2388 C   0  0  0  0  0  0  0  0  0  0  0  0
    2.3643   -0.7557    0.5909 C   0  0  0  0  0  0  0  0  0  0  0  0
   -1.0125    0.7158    0.1195 C   0  0  0  0  0  0  0  0  0  0  0  0
   -0.2056    1.8284    0.2264 C   0  0  0  0  0  0  0  0  0  0  0  0
   -0.5251   -1.8173    0.1955 C   0  0  0  0  0  0  0  0  0  0  0  0
   -2.4346    0.7878   -0.0759 C   0  0  0  0  0  0  0  0  0  0  0  0
    4.6854   -0.9773    0.0114 C   0  0  0  0  0  0  0  0  0  0  0  0
    3.0950   -0.2743   -1.6467 C   0  0  0  0  0  0  0  0  0  0  0  0
    2.1811    2.2726    0.5540 C   0  0  0  0  0  0  0  0  0  0  0  0
   -0.4356    3.2343    0.1887 C   0  0  0  0  0  0  0  0  0  0  0  0
    1.9590    3.5964    0.5179 C   0  0  0  0  0  0  0  0  0  0  0  0
    0.6019    4.0818    0.3281 C   0  0  0  0  0  0  0  0  0  0  0  0
   -0.5268   -2.4974   -1.0220 C   0  0  0  0  0  0  0  0  0  0  0  0
   -0.8584   -2.4897    1.3709 C   0  0  0  0  0  0  0  0  0  0  0  0
    5.1032   -0.8880    1.4694 C   0  0  0  0  0  0  0  0  0  0  0  0
    4.2131    0.2706   -2.5192 C   0  0  0  0  0  0  0  0  0  0  0  0
   -3.2878    0.8281    1.0263 C   0  0  0  0  0  0  0  0  0  0  0  0
   -2.9596    0.8177   -1.3671 C   0  0  0  0  0  0  0  0  0  0  0  0
   -0.8620   -3.8507   -1.0642 C   0  0  0  0  0  0  0  0  0  0  0  0
   -1.1936   -3.8429    1.3290 C   0  0  0  0  0  0  0  0  0  0  0  0
   -4.6681    0.8982    0.8369 C   0  0  0  0  0  0  0  0  0  0  0  0
   -4.3397    0.8879   -1.5567 C   0  0  0  0  0  0  0  0  0  0  0  0
   -1.1953   -4.5235    0.1113 C   0  0  0  0  0  0  0  0  0  0  0  0
   -5.1939    0.9282   -0.4546 C   0  0  0  0  0  0  0  0  0  0  0  0
  1  3  1  0
  1  7  1  0
  1 12  1  0
  2  5  1  0
  2 10  1  0
  2 11  1  0
  3  4  2  0
  3  5  1  0
  4  6  1  0
  4  8  1  0
  6  7  2  0
  6  9  1  0
  7 13  1  0
  8 16  2  0
  8 17  1  0
  9 20  2  0
  9 21  1  0
 10 18  1  0
 11 19  1  0
 12 14  2  0
 13 15  2  0
 14 15  1  0
 16 22  1  0
 17 23  2  0
 20 24  1  0
 21 25  2  0
 22 26  2  0
 23 26  1  0
 24 27  2  0
 25 27  1  0
M  END
>  <PUBCHEM_COMPOUND_CID>  (1) 
28644

>  <PUBCHEM_CONFORMER_RMSD>  (1) 
0.8

>  <PUBCHEM_CONFORMER_DIVERSEORDER>  (1) 
1
5
6
2
3
4

>  <PUBCHEM_MMFF94_PARTIAL_CHARGES>  (1) 
39
1 0.33
10 0.27
11 0.27
12 -0.18
13 -0.11
14 -0.15
15 -0.15
16 -0.15
17 -0.15
2 -0.81
20 -0.15
21 -0.15
22 -0.15
23 -0.15
24 -0.15
25 -0.15
26 -0.15
27 -0.15
3 -0.33
34 0.15
35 0.15
36 0.15
37 0.15
38 0.15
39 0.15
4 -0.05
46 0.15
47 0.15
48 0.15
49 0.15
5 0.45
50 0.15
51 0.15
52 0.15
53 0.15
6 -0.05
7 -0.2
8 0.05
9 0.05

>  <PUBCHEM_EFFECTIVE_ROTOR_COUNT>  (1) 
6

>  <PUBCHEM_PHARMACOPHORE_FEATURES>  (1) 
6
1 1 cation
1 2 cation
5 1 3 4 6 7 rings
6 1 7 12 13 14 15 rings
6 8 16 17 22 23 26 rings
6 9 20 21 24 25 27 rings

>  <PUBCHEM_HEAVY_ATOM_COUNT>  (1) 
27

>  <PUBCHEM_ATOM_DEF_STEREO_COUNT>  (1) 
0

>  <PUBCHEM_ATOM_UDEF_STEREO_COUNT>  (1) 
0

>  <PUBCHEM_BOND_DEF_STEREO_COUNT>  (1) 
0

>  <PUBCHEM_BOND_UDEF_STEREO_COUNT>  (1) 
0

>  <PUBCHEM_ISOTOPIC_ATOM_COUNT>  (1) 
0

>  <PUBCHEM_COMPONENT_COUNT>  (1) 
1

>  <PUBCHEM_CACTVS_TAUTO_COUNT>  (1) 
1

>  <PUBCHEM_CONFORMER_ID>  (1) 
00006FE400000001

>  <PUBCHEM_MMFF94_ENERGY>  (1) 
76.0794

>  <PUBCHEM_FEATURE_SELFOVERLAP>  (1) 
30.55

>  <PUBCHEM_SHAPE_FINGERPRINT>  (1) 
10906281 52 18201445787539376256
10930396 42 17976498872908624432
1100329 8 18410283744204512008
11578080 2 18123204655733485924
12035758 1 18412267245959089499
12553582 1 18341624685153604004
12788726 201 18269288871909091116
13140716 1 18339075016573071600
13149001 5 18341055223597096028
13911987 19 18262531311640140629
14022347 108 18340500975890760528
14178342 30 17908691083826423280
14223421 5 17834396004936627297
14790565 3 18339652126559777808
15324884 4 17895461644658505765
15420108 30 16909491900815315737
15439362 3 18339349889938238733
16728300 4 17318707103195249890
16752209 62 18265340495551721540
17909252 39 16911693531162917407
1813 80 18131355163452325140
19319366 153 17894349969398121514
19591789 44 18409447011951398435
20028762 73 18201998867869292655
20600515 1 18272649056710489248
20642791 105 17900813860919439920
20642791 239 18117868657533078388
20775438 99 18057020614034879599
20905425 154 17623007889394540638
21421861 104 17616259083218745553
22182313 1 17983870153026375588
23558518 356 17902222643992363281
23559900 14 18341623620650184628
23566358 2 18053095404863083517
266924 87 17978224955012090740
2748010 2 18197501942177377472
283562 15 18125154940284654352
3027735 51 18052546464961190784
3060560 45 18338783542780620229
3084891 72 18338514132113933826
3178227 256 18408890616423941889
3298306 158 18262233309856251255
3380486 77 18337957788173732648
3383291 50 18122058698778550362
460360 51 18117272764483339352
57527358 35 15266789784433981906
70251023 43 17550676509110320855
81228 2 17683238436801411683
9709674 26 18052815033592604495

>  <PUBCHEM_SHAPE_MULTIPOLES>  (1) 
545.69
8.17
5.27
1.55
0.87
2.63
0.7
-1.76
1.4
-0.92
-1.04
0.76
0.44
0.31

>  <PUBCHEM_SHAPE_SELFOVERLAP>  (1) 
1196.311

>  <PUBCHEM_SHAPE_VOLUME>  (1) 
295.6

>  <PUBCHEM_COORDINATE_TYPE>  (1) 
2
5
10

$$$$
