28645
     RDKit          3D

 21 24  0  0  1  0  0  0  0  0999 V2000
    1.2478    4.0586    1.3401 Cl  0  0  0  0  0  0  0  0  0  0  0  0
   -0.1700   -1.8125    0.7471 N   0  0  0  0  0  0  0  0  0  0  0  0
    2.5172   -1.3632   -0.7183 N   0  0  0  0  0  0  0  0  0  0  0  0
   -0.2603   -0.7290   -0.2683 C   0  0  0  0  0  0  0  0  0  0  0  0
   -1.4594   -2.4497    1.0443 C   0  0  0  0  0  0  0  0  0  0  0  0
    0.8024   -2.8462    0.3376 C   0  0  0  0  0  0  0  0  0  0  0  0
   -1.6452   -0.0929   -0.4423 C   0  0  0  0  0  0  0  0  0  0  0  0
    0.8626    0.2917   -0.0114 C   0  0  0  0  0  0  0  0  0  0  0  0
   -2.4741   -1.4121    1.5166 C   0  0  0  0  0  0  0  0  0  0  0  0
   -2.6989   -0.4030    0.4311 C   0  0  0  0  0  0  0  0  0  0  0  0
    2.2557   -2.3676    0.3187 C   0  0  0  0  0  0  0  0  0  0  0  0
    2.1989   -0.0498   -0.3431 C   0  0  0  0  0  0  0  0  0  0  0  0
   -1.8834    0.8004   -1.5021 C   0  0  0  0  0  0  0  0  0  0  0  0
    0.5973    1.5592    0.5431 C   0  0  0  0  0  0  0  0  0  0  0  0
   -3.9420    0.2257    0.2848 C   0  0  0  0  0  0  0  0  0  0  0  0
    3.1955    0.9382   -0.2156 C   0  0  0  0  0  0  0  0  0  0  0  0
    3.6302   -1.6024   -1.6249 C   0  0  0  0  0  0  0  0  0  0  0  0
   -3.1290    1.4100   -1.6532 C   0  0  0  0  0  0  0  0  0  0  0  0
   -4.1545    1.1298   -0.7543 C   0  0  0  0  0  0  0  0  0  0  0  0
    1.6073    2.5091    0.6836 C   0  0  0  0  0  0  0  0  0  0  0  0
    2.9018    2.2057    0.2865 C   0  0  0  0  0  0  0  0  0  0  0  0
  1 20  1  0
  2  4  1  0
  2  5  1  0
  2  6  1  0
  3 11  1  0
  3 12  1  0
  3 17  1  0
  4  7  1  0
  4  8  1  0
  5  9  1  0
  6 11  1  0
  7 10  2  0
  7 13  1  0
  8 12  2  0
  8 14  1  0
  9 10  1  0
 10 15  1  0
 12 16  1  0
 13 18  2  0
 14 20  2  0
 15 19  2  0
 16 21  2  0
 18 19  1  0
 20 21  1  0
M  END
>  <PUBCHEM_COMPOUND_CID>  (1) 
28645

>  <PUBCHEM_CONFORMER_RMSD>  (1) 
0.6

>  <PUBCHEM_CONFORMER_DIVERSEORDER>  (1) 
1
3
6
2
4
8
5
7

>  <PUBCHEM_MMFF94_PARTIAL_CHARGES>  (1) 
28
1 -0.18
10 -0.14
11 0.37
12 0.1
13 -0.15
14 -0.15
15 -0.15
16 -0.15
17 0.37
18 -0.15
19 -0.15
2 -0.81
20 0.18
21 -0.15
3 -0.84
31 0.15
32 0.15
33 0.15
34 0.15
38 0.15
39 0.15
4 0.56
40 0.15
5 0.27
6 0.27
7 -0.14
8 -0.14
9 0.14

>  <PUBCHEM_EFFECTIVE_ROTOR_COUNT>  (1) 
1

>  <PUBCHEM_PHARMACOPHORE_FEATURES>  (1) 
6
1 2 cation
1 3 cation
6 2 4 5 7 9 10 rings
6 7 10 13 15 18 19 rings
6 8 12 14 16 20 21 rings
7 2 3 4 6 8 11 12 rings

>  <PUBCHEM_HEAVY_ATOM_COUNT>  (1) 
21

>  <PUBCHEM_ATOM_DEF_STEREO_COUNT>  (1) 
0

>  <PUBCHEM_ATOM_UDEF_STEREO_COUNT>  (1) 
1

>  <PUBCHEM_BOND_DEF_STEREO_COUNT>  (1) 
0

>  <PUBCHEM_BOND_UDEF_STEREO_COUNT>  (1) 
0

>  <PUBCHEM_ISOTOPIC_ATOM_COUNT>  (1) 
0

>  <PUBCHEM_COMPONENT_COUNT>  (1) 
1

>  <PUBCHEM_CACTVS_TAUTO_COUNT>  (1) 
1

>  <PUBCHEM_CONFORMER_ID>  (1) 
00006FE500000001

>  <PUBCHEM_MMFF94_ENERGY>  (1) 
79.653

>  <PUBCHEM_FEATURE_SELFOVERLAP>  (1) 
30.489

>  <PUBCHEM_SHAPE_FINGERPRINT>  (1) 
10165383 225 17834703833848938841
10366900 7 18336263560798110381
104564 63 17767407872667751884
10608611 8 18336547234655404697
10906281 52 18343027688187847840
1100329 8 17039503588426047888
11640471 11 16414926368918679952
12403259 226 18334860532374150083
12403259 415 18186523177283238229
12553582 1 18124608478726194570
12623949 98 17768004108829824967
12730499 353 18408881863285769461
12788726 201 17981329980544564130
13134695 92 18201434740677620052
13140716 1 18408039623935121114
13294875 104 18043506387673627506
14223421 5 18192719066396156939
14866123 147 15743026457131944915
14957384 54 15069173473058216055
15490181 7 18264763449030526586
16945 1 18266455416963044911
17138139 8 16395445973591758780
1813 80 17273436979769299974
18186145 218 18410295770255410855
18219364 16 18337117855489086305
19049666 15 18334857199405337513
19930381 70 18198058295330324233
20600515 1 15657992521383407531
20645477 70 18273495654324153022
20832881 197 18194399979362501541
21041028 32 17835236749322347121
21639500 275 18341319046574490725
221357 26 18268144271709243717
23175994 123 18198637552778488318
23526113 38 18413388747824571616
23536364 44 17906181646314873926
23558518 356 17257662114425956586
23559900 14 18113900446367402535
238 59 18125694993650817599
25 1 18410287008369380029
2748010 2 18262805193009189351
3187 122 17320137933032037755
3323516 105 18335986376541045167
350125 39 17905895030104261528
3524813 1 18187087217467308263
495365 180 18338779149039515325
5845 1 16674134250965574397
6049 1 18262532488460990735
7226269 152 18336821988694054018
81228 2 16538752527047008320
90316 7 16392373440029217112
9709674 26 18338518654777936431
9862522 239 17550089807797835776
9981440 41 17411025728367861321

>  <PUBCHEM_SHAPE_MULTIPOLES>  (1) 
424.08
6.29
3.78
1.39
2.81
1.53
0.24
1.03
1.72
-2.8
-1.6
0.44
0.11
2.13

>  <PUBCHEM_SHAPE_SELFOVERLAP>  (1) 
918.44

>  <PUBCHEM_SHAPE_VOLUME>  (1) 
231.2

>  <PUBCHEM_COORDINATE_TYPE>  (1) 
2
5
10

$$$$
