28657
     RDKit          3D

  8  8  0  0  0  0  0  0  0  0999 V2000
    1.8280    0.6209    0.0000 O   0  0  0  0  0  0  0  0  0  0  0  0
    0.1997   -1.0231    0.0002 N   0  0  0  0  0  0  0  0  0  0  0  0
   -0.3824    1.3047    0.0001 N   0  0  0  0  0  0  0  0  0  0  0  0
   -2.1074   -0.3632   -0.0001 N   0  0  0  0  0  0  0  0  0  0  0  0
    0.4936    0.2871    0.0001 C   0  0  0  0  0  0  0  0  0  0  0  0
    2.7522   -0.4576   -0.0001 C   0  0  0  0  0  0  0  0  0  0  0  0
   -1.1196   -1.2730    0.0000 C   0  0  0  0  0  0  0  0  0  0  0  0
   -1.6641    0.9042   -0.0001 C   0  0  0  0  0  0  0  0  0  0  0  0
  1  5  1  0
  1  6  1  0
  2  5  2  0
  2  7  1  0
  3  5  1  0
  3  8  2  0
  4  7  2  0
  4  8  1  0
M  END
>  <PUBCHEM_COMPOUND_CID>  (1) 
28657

>  <PUBCHEM_CONFORMER_RMSD>  (1) 
0.4

>  <PUBCHEM_CONFORMER_DIVERSEORDER>  (1) 
1

>  <PUBCHEM_MMFF94_PARTIAL_CHARGES>  (1) 
10
1 -0.36
12 0.15
13 0.15
2 -0.62
3 -0.62
4 -0.62
5 0.7
6 0.28
7 0.47
8 0.47

>  <PUBCHEM_EFFECTIVE_ROTOR_COUNT>  (1) 
1

>  <PUBCHEM_PHARMACOPHORE_FEATURES>  (1) 
4
3 2 3 5 cation
3 2 4 7 cation
3 3 4 8 cation
6 2 3 4 5 7 8 rings

>  <PUBCHEM_HEAVY_ATOM_COUNT>  (1) 
8

>  <PUBCHEM_ATOM_DEF_STEREO_COUNT>  (1) 
0

>  <PUBCHEM_ATOM_UDEF_STEREO_COUNT>  (1) 
0

>  <PUBCHEM_BOND_DEF_STEREO_COUNT>  (1) 
0

>  <PUBCHEM_BOND_UDEF_STEREO_COUNT>  (1) 
0

>  <PUBCHEM_ISOTOPIC_ATOM_COUNT>  (1) 
0

>  <PUBCHEM_COMPONENT_COUNT>  (1) 
1

>  <PUBCHEM_CACTVS_TAUTO_COUNT>  (1) 
1

>  <PUBCHEM_CONFORMER_ID>  (1) 
00006FF100000001

>  <PUBCHEM_MMFF94_ENERGY>  (1) 
21.5561

>  <PUBCHEM_FEATURE_SELFOVERLAP>  (1) 
23.07

>  <PUBCHEM_SHAPE_FINGERPRINT>  (1) 
16714656 1 18410013234221285414
21040471 1 18338797788833738949
23552423 10 18259987110648082990
29004967 10 18264775530773095114
369184 2 15267058129748480702

>  <PUBCHEM_SHAPE_MULTIPOLES>  (1) 
143.82
3.11
1.31
0.57
1.74
0.06
0
0.19
0
-0.39
0
0
0.01
0

>  <PUBCHEM_SHAPE_SELFOVERLAP>  (1) 
291.386

>  <PUBCHEM_SHAPE_VOLUME>  (1) 
80.3

>  <PUBCHEM_COORDINATE_TYPE>  (1) 
2
5
10

$$$$
