28652
     RDKit          3D

 17 18  0  0  1  0  0  0  0  0999 V2000
    0.8573   -0.7191   -2.3874 O   0  0  0  0  0  0  0  0  0  0  0  0
    0.8295   -0.9807    2.3010 O   0  0  0  0  0  0  0  0  0  0  0  0
    3.2058    2.3007    0.1467 O   0  0  0  0  0  0  0  0  0  0  0  0
    1.9494    0.8477   -1.1166 N   0  0  0  0  0  0  0  0  0  0  0  0
    1.9359    0.7167    1.2254 N   0  0  0  0  0  0  0  0  0  0  0  0
   -0.9752    0.2530    0.0077 C   0  0  0  0  0  0  0  0  0  0  0  0
    0.2913   -0.5995   -0.0326 C   0  0  0  0  0  0  0  0  0  0  0  0
   -1.8246    0.0411   -1.2520 C   0  0  0  0  0  0  0  0  0  0  0  0
   -1.7991   -0.0545    1.2710 C   0  0  0  0  0  0  0  0  0  0  0  0
   -0.0979   -2.0826   -0.1176 C   0  0  0  0  0  0  0  0  0  0  0  0
   -3.0731    0.9286   -1.2372 C   0  0  0  0  0  0  0  0  0  0  0  0
    1.0583   -0.2009   -1.2893 C   0  0  0  0  0  0  0  0  0  0  0  0
    1.0433   -0.3438    1.2698 C   0  0  0  0  0  0  0  0  0  0  0  0
   -3.1847    0.5184    1.2244 C   0  0  0  0  0  0  0  0  0  0  0  0
   -3.7518    0.9734    0.0988 C   0  0  0  0  0  0  0  0  0  0  0  0
    1.1296   -2.9637   -0.2017 C   0  0  0  0  0  0  0  0  0  0  0  0
    2.4060    1.3652    0.0896 C   0  0  0  0  0  0  0  0  0  0  0  0
  1 12  2  0
  2 13  2  0
  3 17  2  0
  4 12  1  0
  4 17  1  0
  5 13  1  0
  5 17  1  0
  6  7  1  0
  6  8  1  0
  6  9  1  0
  7 10  1  0
  7 12  1  0
  7 13  1  0
  8 11  1  0
  9 14  1  0
 10 16  1  0
 11 15  1  0
 14 15  2  0
M  END
>  <PUBCHEM_COMPOUND_CID>  (1) 
28652

>  <PUBCHEM_CONFORMER_RMSD>  (1) 
0.6

>  <PUBCHEM_CONFORMER_DIVERSEORDER>  (1) 
1
4
5
3
2

>  <PUBCHEM_MMFF94_PARTIAL_CHARGES>  (1) 
17
1 -0.57
11 0.14
12 0.57
13 0.57
14 -0.29
15 -0.29
17 0.69
2 -0.57
27 0.15
28 0.15
3 -0.57
32 0.37
33 0.37
4 -0.49
5 -0.49
7 0.12
9 0.14

>  <PUBCHEM_EFFECTIVE_ROTOR_COUNT>  (1) 
3.4

>  <PUBCHEM_PHARMACOPHORE_FEATURES>  (1) 
8
1 1 acceptor
1 16 hydrophobe
1 2 acceptor
1 3 acceptor
1 4 donor
1 5 donor
6 4 5 7 12 13 17 rings
6 6 8 9 11 14 15 rings

>  <PUBCHEM_HEAVY_ATOM_COUNT>  (1) 
17

>  <PUBCHEM_ATOM_DEF_STEREO_COUNT>  (1) 
0

>  <PUBCHEM_ATOM_UDEF_STEREO_COUNT>  (1) 
1

>  <PUBCHEM_BOND_DEF_STEREO_COUNT>  (1) 
0

>  <PUBCHEM_BOND_UDEF_STEREO_COUNT>  (1) 
0

>  <PUBCHEM_ISOTOPIC_ATOM_COUNT>  (1) 
0

>  <PUBCHEM_COMPONENT_COUNT>  (1) 
1

>  <PUBCHEM_CACTVS_TAUTO_COUNT>  (1) 
5

>  <PUBCHEM_CONFORMER_ID>  (1) 
00006FEC00000001

>  <PUBCHEM_MMFF94_ENERGY>  (1) 
44.1598

>  <PUBCHEM_FEATURE_SELFOVERLAP>  (1) 
40.636

>  <PUBCHEM_SHAPE_FINGERPRINT>  (1) 
10465860 71 13182752441202676721
12138202 97 17986679374917143806
12251169 10 15430033292231082233
12326174 3 18115301155435520410
12382932 28 15647319840995471317
12423570 1 14176143372984370390
12696612 119 15285360621747686533
12725867 57 17908977708357547414
13132413 78 17695914332469007074
13134695 92 17976253534942793919
13299463 15 14907621271557867661
14817 1 8773955334967389406
15775835 57 18188203316211490337
16945 1 18340205172539439374
1813 80 17412195252458093238
18186145 218 18201451284654195828
18981168 100 18192441766455069209
19765921 60 17917715720610728425
20473742 2 18335976463920283582
20559304 39 16128085617046357695
21524375 3 18115868671060529016
22802520 49 14620223230351509197
23382010 3 16414914296040073304
23419403 2 17757318913038433770
25 1 17703528656491699448
305870 269 18411138034743126820
430814 3 18339354270682418312
549884 4 14692572113297931865
5845 1 13696409054920174454
7364860 26 18265335010387796203
81228 2 17616540991623551962

>  <PUBCHEM_SHAPE_MULTIPOLES>  (1) 
322.28
4.7
2.07
1.84
3.61
0.98
-0.03
-2.98
0.15
-2.03
-0.06
-0.08
0.21
0.16

>  <PUBCHEM_SHAPE_SELFOVERLAP>  (1) 
681.01

>  <PUBCHEM_SHAPE_VOLUME>  (1) 
175.5

>  <PUBCHEM_COORDINATE_TYPE>  (1) 
2
5
10

$$$$
