28659
     RDKit          3D

  7  6  0  0  1  0  0  0  0  0999 V2000
   -2.3305   -0.8641   -0.1784 Cl  0  0  0  0  0  0  0  0  0  0  0  0
    1.3020    0.5864   -0.2885 O   0  0  0  0  0  0  0  0  0  0  0  0
    0.4432   -1.4316    0.4170 O   0  0  0  0  0  0  0  0  0  0  0  0
   -1.0291    0.3365   -0.3930 C   0  0  0  0  0  0  0  0  0  0  0  0
   -1.3052    1.5530    0.4735 C   0  0  0  0  0  0  0  0  0  0  0  0
    0.2947   -0.3020   -0.0296 C   0  0  0  0  0  0  0  0  0  0  0  0
    2.6248    0.1217   -0.0010 C   0  0  0  0  0  0  0  0  0  0  0  0
  1  4  1  0
  2  6  1  0
  2  7  1  0
  3  6  2  0
  4  5  1  0
  4  6  1  0
M  END
>  <PUBCHEM_COMPOUND_CID>  (1) 
28659

>  <PUBCHEM_CONFORMER_RMSD>  (1) 
0.4

>  <PUBCHEM_CONFORMER_DIVERSEORDER>  (1) 
4
6
3
1
2
5

>  <PUBCHEM_MMFF94_PARTIAL_CHARGES>  (1) 
6
1 -0.29
2 -0.43
3 -0.57
4 0.35
6 0.66
7 0.28

>  <PUBCHEM_EFFECTIVE_ROTOR_COUNT>  (1) 
2

>  <PUBCHEM_PHARMACOPHORE_FEATURES>  (1) 
1
1 3 acceptor

>  <PUBCHEM_HEAVY_ATOM_COUNT>  (1) 
7

>  <PUBCHEM_ATOM_DEF_STEREO_COUNT>  (1) 
0

>  <PUBCHEM_ATOM_UDEF_STEREO_COUNT>  (1) 
1

>  <PUBCHEM_BOND_DEF_STEREO_COUNT>  (1) 
0

>  <PUBCHEM_BOND_UDEF_STEREO_COUNT>  (1) 
0

>  <PUBCHEM_ISOTOPIC_ATOM_COUNT>  (1) 
0

>  <PUBCHEM_COMPONENT_COUNT>  (1) 
1

>  <PUBCHEM_CACTVS_TAUTO_COUNT>  (1) 
1

>  <PUBCHEM_CONFORMER_ID>  (1) 
00006FF300000004

>  <PUBCHEM_MMFF94_ENERGY>  (1) 
7.9314

>  <PUBCHEM_FEATURE_SELFOVERLAP>  (1) 
5.074

>  <PUBCHEM_SHAPE_FINGERPRINT>  (1) 
16714656 1 18202002174344614279
20096714 4 18196094343617953600
21040471 1 18053103925914824001
23552423 10 18262523585110168606
24536 1 18055338159401686135
29004967 10 15698007361395371366
5084963 1 18040149634682662124
5460574 1 9727643808039457148

>  <PUBCHEM_SHAPE_MULTIPOLES>  (1) 
134.19
3.19
1.39
0.69
1.12
0.19
0
-0.22
-0.13
-0.6
0.23
-0.07
0.02
-0.2

>  <PUBCHEM_SHAPE_SELFOVERLAP>  (1) 
236.654

>  <PUBCHEM_SHAPE_VOLUME>  (1) 
89.4

>  <PUBCHEM_COORDINATE_TYPE>  (1) 
2
5
10

$$$$
