28654
     RDKit          3D

 17 19  0  0  1  0  0  0  0  0999 V2000
    0.5049   -2.3724    0.1202 O   0  0  0  0  0  0  0  0  0  0  0  0
    2.7231   -1.4467    0.2290 O   0  0  0  0  0  0  0  0  0  0  0  0
    3.2418    1.3857    0.2846 O   0  0  0  0  0  0  0  0  0  0  0  0
   -3.0640    0.1791    0.4374 N   0  0  0  0  0  0  0  0  0  0  0  0
   -2.0391   -0.7842   -0.0243 C   0  0  0  0  0  0  0  0  0  0  0  0
   -0.6398   -0.2024    0.0812 C   0  0  0  0  0  0  0  0  0  0  0  0
   -0.4341    1.1912    0.1077 C   0  0  0  0  0  0  0  0  0  0  0  0
   -2.9382    1.4775   -0.2299 C   0  0  0  0  0  0  0  0  0  0  0  0
   -1.6078    2.1365    0.1417 C   0  0  0  0  0  0  0  0  0  0  0  0
    0.4903   -1.0087    0.1280 C   0  0  0  0  0  0  0  0  0  0  0  0
   -2.2635   -1.3358   -1.4449 C   0  0  0  0  0  0  0  0  0  0  0  0
    0.8754    1.7174    0.1806 C   0  0  0  0  0  0  0  0  0  0  0  0
    1.7618   -0.4838    0.1924 C   0  0  0  0  0  0  0  0  0  0  0  0
   -4.4278   -0.3331    0.3504 C   0  0  0  0  0  0  0  0  0  0  0  0
    1.9876    0.8753    0.2173 C   0  0  0  0  0  0  0  0  0  0  0  0
    1.9191   -2.6407    0.1803 C   0  0  0  0  0  0  0  0  0  0  0  0
    3.9103    1.6449   -0.9518 C   0  0  0  0  0  0  0  0  0  0  0  0
  1 10  1  0
  1 16  1  0
  2 13  1  0
  2 16  1  0
  3 15  1  0
  3 17  1  0
  4  5  1  0
  4  8  1  0
  4 14  1  0
  5  6  1  0
  5 11  1  0
  6  7  1  0
  6 10  2  0
  7  9  1  0
  7 12  2  0
  8  9  1  0
 10 13  1  0
 12 15  1  0
 13 15  2  0
M  END
>  <PUBCHEM_COMPOUND_CID>  (1) 
28654

>  <PUBCHEM_CONFORMER_RMSD>  (1) 
0.6

>  <PUBCHEM_CONFORMER_DIVERSEORDER>  (1) 
1
2
3
4
5

>  <PUBCHEM_MMFF94_PARTIAL_CHARGES>  (1) 
17
1 -0.36
10 0.08
12 -0.15
13 0.08
14 0.27
15 0.08
16 0.56
17 0.28
2 -0.36
26 0.15
3 -0.36
4 -0.81
5 0.41
6 -0.14
7 -0.14
8 0.27
9 0.14

>  <PUBCHEM_EFFECTIVE_ROTOR_COUNT>  (1) 
2.4

>  <PUBCHEM_PHARMACOPHORE_FEATURES>  (1) 
7
1 1 acceptor
1 2 acceptor
1 3 acceptor
1 4 cation
5 1 2 10 13 16 rings
6 4 5 6 7 8 9 rings
6 6 7 10 12 13 15 rings

>  <PUBCHEM_HEAVY_ATOM_COUNT>  (1) 
17

>  <PUBCHEM_ATOM_DEF_STEREO_COUNT>  (1) 
0

>  <PUBCHEM_ATOM_UDEF_STEREO_COUNT>  (1) 
1

>  <PUBCHEM_BOND_DEF_STEREO_COUNT>  (1) 
0

>  <PUBCHEM_BOND_UDEF_STEREO_COUNT>  (1) 
0

>  <PUBCHEM_ISOTOPIC_ATOM_COUNT>  (1) 
0

>  <PUBCHEM_COMPONENT_COUNT>  (1) 
1

>  <PUBCHEM_CACTVS_TAUTO_COUNT>  (1) 
1

>  <PUBCHEM_CONFORMER_ID>  (1) 
00006FEE00000001

>  <PUBCHEM_MMFF94_ENERGY>  (1) 
54.1741

>  <PUBCHEM_FEATURE_SELFOVERLAP>  (1) 
35.699

>  <PUBCHEM_SHAPE_FINGERPRINT>  (1) 
10608611 8 18263077726080468909
10967382 1 18410854382154739089
10980938 120 18411981351566434747
11471102 20 18410006637610519637
12932764 1 17917702522255511289
13140716 1 17977942719820978720
13221675 6 18413390964233502621
13380535 21 18411424994393217385
13380535 76 18334576879885560570
13583140 156 16446129461185990416
14576447 43 18056463175083700199
14790565 3 18193290803906251137
15196674 1 18410293580154581097
15219456 202 18334573504162760313
15375462 189 18272368693971721193
15375462 6 18409168788185718493
15442244 35 18123750842254964617
15536298 74 18343301440390879776
15775835 57 18272374208483018569
16945 1 18267011933071099216
193761 8 18194401091548190592
19591789 44 17977675534110608818
20559304 39 18340204098570599810
20645477 70 18338792321915416791
21267235 1 18339651048517120443
21501502 16 18339080372012368841
221490 88 18263934254001594419
22854114 111 18408888416667332865
2334 1 18410570678237785768
23366157 5 17968664796314564298
23402539 116 18270397325727173812
23463225 33 18338795594078934122
23552423 10 18336824182631103346
23559900 14 18194110816114853874
25 1 18336827588687862086
2748010 2 18338509721066417740
3071541 37 18334862722917773086
335352 9 17906451026373638597
34934 24 18342170094523748957
350125 39 18337957770661573408
43471831 8 18408600392145200794
5104073 3 18409731721138710649
528886 8 18339076107072680425
53812653 166 18271522108467674896
57096353 35 18341324595556270989
58051976 378 18411419544206631332
63268167 104 18413671301017564857
7364860 26 18341612556155222098
81228 2 17186713360731841882
90316 7 17107894341651151490
90525 40 17987511520662513687

>  <PUBCHEM_SHAPE_MULTIPOLES>  (1) 
327.26
6.11
2.62
0.82
1.32
0.7
-0.24
-1.32
-0.42
-1.31
-0.05
0.12
0.07
-0.63

>  <PUBCHEM_SHAPE_SELFOVERLAP>  (1) 
707.725

>  <PUBCHEM_SHAPE_VOLUME>  (1) 
181.5

>  <PUBCHEM_COORDINATE_TYPE>  (1) 
2
5
10

$$$$
