28666
     RDKit          3D

 12 12  0  0  0  0  0  0  0  0999 V2000
   -4.2504   -1.2138    1.1930 I   0  0  0  0  0  0  0  0  0  0  0  0
    4.0443   -1.7542   -0.0327 Br  0  0  0  0  0  0  0  0  0  0  0  0
   -2.3399    1.4696   -0.1614 O   0  0  0  0  0  0  0  0  0  0  0  0
   -1.0584   -0.4931   -0.3793 N   0  0  0  0  0  0  0  0  0  0  0  0
    0.2471   -0.0554   -0.1546 C   0  0  0  0  0  0  0  0  0  0  0  0
    1.3053   -0.9632   -0.1983 C   0  0  0  0  0  0  0  0  0  0  0  0
    0.4939    1.2910    0.1138 C   0  0  0  0  0  0  0  0  0  0  0  0
    2.6103   -0.5244    0.0264 C   0  0  0  0  0  0  0  0  0  0  0  0
    1.7987    1.7298    0.3384 C   0  0  0  0  0  0  0  0  0  0  0  0
    2.8568    0.8221    0.2947 C   0  0  0  0  0  0  0  0  0  0  0  0
   -2.2387    0.2643   -0.3763 C   0  0  0  0  0  0  0  0  0  0  0  0
   -3.4690   -0.5726   -0.6638 C   0  0  0  0  0  0  0  0  0  0  0  0
  1 12  1  0
  2  8  1  0
  3 11  2  0
  4  5  1  0
  4 11  1  0
  5  6  2  0
  5  7  1  0
  6  8  1  0
  7  9  2  0
  8 10  2  0
  9 10  1  0
 11 12  1  0
M  END
>  <PUBCHEM_COMPOUND_CID>  (1) 
28666

>  <PUBCHEM_CONFORMER_RMSD>  (1) 
0.6

>  <PUBCHEM_CONFORMER_DIVERSEORDER>  (1) 
1
8
11
9
5
4
3
12
2
7
10
6

>  <PUBCHEM_MMFF94_PARTIAL_CHARGES>  (1) 
17
1 -0.19
10 -0.15
11 0.57
12 0.25
13 0.15
14 0.15
15 0.37
16 0.15
17 0.15
2 -0.11
3 -0.57
4 -0.55
5 0.12
6 -0.15
7 -0.15
8 0.11
9 -0.15

>  <PUBCHEM_EFFECTIVE_ROTOR_COUNT>  (1) 
3

>  <PUBCHEM_PHARMACOPHORE_FEATURES>  (1) 
5
1 1 hydrophobe
1 2 hydrophobe
1 3 acceptor
1 4 donor
6 5 6 7 8 9 10 rings

>  <PUBCHEM_HEAVY_ATOM_COUNT>  (1) 
12

>  <PUBCHEM_ATOM_DEF_STEREO_COUNT>  (1) 
0

>  <PUBCHEM_ATOM_UDEF_STEREO_COUNT>  (1) 
0

>  <PUBCHEM_BOND_DEF_STEREO_COUNT>  (1) 
0

>  <PUBCHEM_BOND_UDEF_STEREO_COUNT>  (1) 
0

>  <PUBCHEM_ISOTOPIC_ATOM_COUNT>  (1) 
0

>  <PUBCHEM_COMPONENT_COUNT>  (1) 
1

>  <PUBCHEM_CACTVS_TAUTO_COUNT>  (1) 
2

>  <PUBCHEM_CONFORMER_ID>  (1) 
00006FFA00000001

>  <PUBCHEM_MMFF94_ENERGY>  (1) 
30.1596

>  <PUBCHEM_FEATURE_SELFOVERLAP>  (1) 
25.371

>  <PUBCHEM_SHAPE_FINGERPRINT>  (1) 
11543360 7 16371018398813901662
12032990 46 18410014308216537862
12932764 1 17774996938045779245
13296908 3 18409726248812109495
14251710 61 18335145284321210923
14252887 29 18060138692110562918
14325111 11 18412538821062672917
16945 1 18269265932098022020
17834074 16 18260268563923474331
17844478 74 18334858346467664605
18186145 218 17822005389428342231
200 152 18060407028802810271
20281475 54 18340490075037215351
20339313 130 18273501152314801498
20645477 70 18340756096637322815
20871998 22 17987242127645266350
21501925 9 18341316834803574282
221490 88 18335706061010351530
23557571 272 17313373561151190725
2748010 2 18339910541919756188
5104073 3 18412260610239924592
7364860 26 18201148958144129904
8809292 202 18334016055867214555

>  <PUBCHEM_SHAPE_MULTIPOLES>  (1) 
253.98
8.08
1.84
0.89
3.98
0.08
-0.13
-4.37
-1.35
-1.04
-0.23
0.72
-0.15
0.78

>  <PUBCHEM_SHAPE_SELFOVERLAP>  (1) 
484.974

>  <PUBCHEM_SHAPE_VOLUME>  (1) 
159.8

>  <PUBCHEM_COORDINATE_TYPE>  (1) 
2
5
10

$$$$
