28663
     RDKit          3D

 14 14  0  0  0  0  0  0  0  0999 V2000
    2.5820    2.9539    0.0001 Cl  0  0  0  0  0  0  0  0  0  0  0  0
    3.9306   -2.2721    0.0003 Cl  0  0  0  0  0  0  0  0  0  0  0  0
   -4.2761   -0.2119    1.4606 Cl  0  0  0  0  0  0  0  0  0  0  0  0
   -4.2742   -0.2144   -1.4614 Cl  0  0  0  0  0  0  0  0  0  0  0  0
   -2.0485    1.3342   -0.0010 O   0  0  0  0  0  0  0  0  0  0  0  0
   -0.9537   -0.7458    0.0004 N   0  0  0  0  0  0  0  0  0  0  0  0
    0.3972   -0.3967    0.0003 C   0  0  0  0  0  0  0  0  0  0  0  0
    1.3742   -1.3922    0.0004 C   0  0  0  0  0  0  0  0  0  0  0  0
    0.7709    0.9471   -0.0001 C   0  0  0  0  0  0  0  0  0  0  0  0
    2.1216    1.2956   -0.0004 C   0  0  0  0  0  0  0  0  0  0  0  0
    2.7249   -1.0439    0.0001 C   0  0  0  0  0  0  0  0  0  0  0  0
    3.0987    0.3001   -0.0003 C   0  0  0  0  0  0  0  0  0  0  0  0
   -2.0699    0.1056    0.0004 C   0  0  0  0  0  0  0  0  0  0  0  0
   -3.3776   -0.6596    0.0005 C   0  0  0  0  0  0  0  0  0  0  0  0
  1 10  1  0
  2 11  1  0
  3 14  1  0
  4 14  1  0
  5 13  2  0
  6  7  1  0
  6 13  1  0
  7  8  2  0
  7  9  1  0
  8 11  1  0
  9 10  2  0
 10 12  1  0
 11 12  2  0
 13 14  1  0
M  END
>  <PUBCHEM_COMPOUND_CID>  (1) 
28663

>  <PUBCHEM_CONFORMER_RMSD>  (1) 
0.6

>  <PUBCHEM_CONFORMER_DIVERSEORDER>  (1) 
1
5
3
2
6
4

>  <PUBCHEM_MMFF94_PARTIAL_CHARGES>  (1) 
18
1 -0.18
10 0.18
11 0.18
12 -0.15
13 0.57
14 0.64
15 0.37
16 0.15
17 0.15
18 0.15
2 -0.18
3 -0.29
4 -0.29
5 -0.57
6 -0.55
7 0.12
8 -0.15
9 -0.15

>  <PUBCHEM_EFFECTIVE_ROTOR_COUNT>  (1) 
3

>  <PUBCHEM_PHARMACOPHORE_FEATURES>  (1) 
3
1 5 acceptor
1 6 donor
6 7 8 9 10 11 12 rings

>  <PUBCHEM_HEAVY_ATOM_COUNT>  (1) 
14

>  <PUBCHEM_ATOM_DEF_STEREO_COUNT>  (1) 
0

>  <PUBCHEM_ATOM_UDEF_STEREO_COUNT>  (1) 
0

>  <PUBCHEM_BOND_DEF_STEREO_COUNT>  (1) 
0

>  <PUBCHEM_BOND_UDEF_STEREO_COUNT>  (1) 
0

>  <PUBCHEM_ISOTOPIC_ATOM_COUNT>  (1) 
0

>  <PUBCHEM_COMPONENT_COUNT>  (1) 
1

>  <PUBCHEM_CACTVS_TAUTO_COUNT>  (1) 
2

>  <PUBCHEM_CONFORMER_ID>  (1) 
00006FF700000001

>  <PUBCHEM_MMFF94_ENERGY>  (1) 
31.5408

>  <PUBCHEM_FEATURE_SELFOVERLAP>  (1) 
15.223

>  <PUBCHEM_SHAPE_FINGERPRINT>  (1) 
10608611 8 18334008410910012069
10980938 120 18340766047997237456
11471102 20 18409725166728309846
12032990 46 18266182738548926274
12916754 54 18411980282673784247
13296908 3 17676205788631302003
13760787 5 18342458149390181783
14144814 61 18412827975551568219
14250199 8 18410852174715719829
14251717 144 18412255151389335630
15442244 35 18341052895972734824
15477762 27 18412823577747838622
16945 1 18410856590126573286
18186145 218 18412549833501062751
19026448 4 17676486168322773903
19026448 5 17703792539598590859
19422 9 17988926699633518775
200 152 18201708540747972895
20279233 1 17822286912103529731
20281475 54 18201437012847175103
20339313 130 18341619161909933922
20559304 39 18411983568123221160
20645477 70 18408594868806942527
20671657 1 18341617074492511548
20671657 53 18339644425935746598
20715346 28 17822009847915612357
20871998 22 18055641620770127030
21041028 32 18269004102080450345
21065201 7 16515399673251555459
21501925 9 18339632365815376490
21524375 3 17984139542028587572
21639500 275 18268418199879658957
221490 88 18335707186265734162
2255824 54 18412266151175133438
22854114 111 18339644541715383640
22943178 12 17967532410917375491
23402539 116 18129090143734031799
23402655 69 18412820283449842109
23557571 272 17095519630433098253
23559900 14 18410284822378810466
23598291 2 18060703896430736829
312423 11 18202010936278234565
449060 62 18269280225527831896
54173680 148 17689434885030010722
581208 293 18340479075267157172
6049 1 17967254195757591077
7364860 26 18412825819984459120
7615 1 17846497045666199177
77492 1 17703793643331300431
81539 233 18116710905905597068

>  <PUBCHEM_SHAPE_MULTIPOLES>  (1) 
284.74
8.39
2.3
0.95
6.64
1.09
0
-1.97
0
-3.74
0
1.44
-0.06
0

>  <PUBCHEM_SHAPE_SELFOVERLAP>  (1) 
551.464

>  <PUBCHEM_SHAPE_VOLUME>  (1) 
175.4

>  <PUBCHEM_COORDINATE_TYPE>  (1) 
2
5
10

$$$$
