28662
     RDKit          3D

 26 26  0  0  0  0  0  0  0  0999 V2000
    2.2367   -1.7848   -0.8862 O   0  0  0  0  0  0  0  0  0  0  0  0
    1.9194    0.9395   -0.4099 O   0  0  0  0  0  0  0  0  0  0  0  0
   -4.1248   -1.6466    0.5060 O   0  0  0  0  0  0  0  0  0  0  0  0
   -6.1219    0.4519    0.0273 N   0  0  0  0  0  0  0  0  0  0  0  0
   -2.7421    0.2563    0.4978 N   0  0  0  0  0  0  0  0  0  0  0  0
    6.3118   -1.1769    0.3266 C   0  0  0  0  0  0  0  0  0  0  0  0
    6.8523    0.1744    0.8028 C   0  0  0  0  0  0  0  0  0  0  0  0
    4.7875   -1.2858    0.4087 C   0  0  0  0  0  0  0  0  0  0  0  0
    6.3789    1.3540   -0.0492 C   0  0  0  0  0  0  0  0  0  0  0  0
    4.3054   -2.6595   -0.0555 C   0  0  0  0  0  0  0  0  0  0  0  0
    7.0050    2.6661    0.4258 C   0  0  0  0  0  0  0  0  0  0  0  0
    2.7873   -2.7646   -0.0169 C   0  0  0  0  0  0  0  0  0  0  0  0
    6.5687    3.8371   -0.4402 C   0  0  0  0  0  0  0  0  0  0  0  0
   -5.0763    0.5055    1.0390 C   0  0  0  0  0  0  0  0  0  0  0  0
   -7.2480    1.3112    0.4008 C   0  0  0  0  0  0  0  0  0  0  0  0
   -5.5967    0.8469   -1.2816 C   0  0  0  0  0  0  0  0  0  0  0  0
    1.0124   -1.2721   -0.5438 C   0  0  0  0  0  0  0  0  0  0  0  0
   -3.9524   -0.4411    0.6545 C   0  0  0  0  0  0  0  0  0  0  0  0
   -1.4901   -0.2534    0.1512 C   0  0  0  0  0  0  0  0  0  0  0  0
    0.8569    0.0935   -0.3057 C   0  0  0  0  0  0  0  0  0  0  0  0
   -0.0835   -2.1282   -0.4347 C   0  0  0  0  0  0  0  0  0  0  0  0
   -7.8541    0.8775    1.7247 C   0  0  0  0  0  0  0  0  0  0  0  0
   -6.6794    0.7948   -2.3461 C   0  0  0  0  0  0  0  0  0  0  0  0
   -0.3945    0.6028    0.0417 C   0  0  0  0  0  0  0  0  0  0  0  0
   -1.3346   -1.6190   -0.0869 C   0  0  0  0  0  0  0  0  0  0  0  0
    1.6761    2.3207   -0.1502 C   0  0  0  0  0  0  0  0  0  0  0  0
  1 12  1  0
  1 17  1  0
  2 20  1  0
  2 26  1  0
  3 18  2  0
  4 14  1  0
  4 15  1  0
  4 16  1  0
  5 18  1  0
  5 19  1  0
  6  7  1  0
  6  8  1  0
  7  9  1  0
  8 10  1  0
  9 11  1  0
 10 12  1  0
 11 13  1  0
 14 18  1  0
 15 22  1  0
 16 23  1  0
 17 20  2  0
 17 21  1  0
 19 24  2  0
 19 25  1  0
 20 24  1  0
 21 25  2  0
M  END
>  <PUBCHEM_COMPOUND_CID>  (1) 
28662

>  <PUBCHEM_CONFORMER_RMSD>  (1) 
1.2

>  <PUBCHEM_CONFORMER_DIVERSEORDER>  (1) 
4
51
32
19
47
46
85
78
72
60
36
70
15
52
16
65
62
57
33
34
63
35
66
73
12
39
13
43
48
37
29
81
50
30
74
87
76
77
83
75
14
9
82
80
42
26
56
3
31
64
67
71
27
86
28
68
40
20
6
24
41
49
2
84
18
54
61
5
58
44
38
21
55
79
53
17
22
8
69
59
45
25
23
10
7
11
1

>  <PUBCHEM_MMFF94_PARTIAL_CHARGES>  (1) 
21
1 -0.36
12 0.28
14 0.33
15 0.27
16 0.27
17 0.08
18 0.57
19 0.12
2 -0.36
20 0.08
21 -0.15
24 -0.15
25 -0.15
26 0.28
3 -0.57
4 -0.81
5 -0.55
50 0.15
51 0.37
58 0.15
59 0.15

>  <PUBCHEM_EFFECTIVE_ROTOR_COUNT>  (1) 
15

>  <PUBCHEM_PHARMACOPHORE_FEATURES>  (1) 
9
1 1 acceptor
1 13 hydrophobe
1 2 acceptor
1 3 acceptor
1 4 cation
1 5 donor
3 6 8 10 hydrophobe
3 7 9 11 hydrophobe
6 17 19 20 21 24 25 rings

>  <PUBCHEM_HEAVY_ATOM_COUNT>  (1) 
26

>  <PUBCHEM_ATOM_DEF_STEREO_COUNT>  (1) 
0

>  <PUBCHEM_ATOM_UDEF_STEREO_COUNT>  (1) 
0

>  <PUBCHEM_BOND_DEF_STEREO_COUNT>  (1) 
0

>  <PUBCHEM_BOND_UDEF_STEREO_COUNT>  (1) 
0

>  <PUBCHEM_ISOTOPIC_ATOM_COUNT>  (1) 
0

>  <PUBCHEM_COMPONENT_COUNT>  (1) 
1

>  <PUBCHEM_CACTVS_TAUTO_COUNT>  (1) 
2

>  <PUBCHEM_CONFORMER_ID>  (1) 
00006FF600000004

>  <PUBCHEM_MMFF94_ENERGY>  (1) 
63.1562

>  <PUBCHEM_FEATURE_SELFOVERLAP>  (1) 
45.687

>  <PUBCHEM_SHAPE_FINGERPRINT>  (1) 
10 15 18113903753587328210
10906281 52 18131918156281430191
11374522 174 17753908409002050860
12236239 1 17417803990637023983
12539765 74 17704080559678570319
12717326 135 16155365612791199013
12838862 33 18341598353431935256
14170010 4 18336270058830187567
14251764 18 18408327687792577187
14347332 77 8430328926420947882
14429380 56 18411125936200088572
14849402 71 18272653467515717593
155225 6 18192436484173075796
15840311 113 18410298004012886340
16120349 18 18411979161101718633
20642791 178 17972325277056387948
21033648 144 18410853262070205853
21033648 29 17748825173482739077
21315759 40 12324251542248565859
21521721 280 18411984633022117611
21792934 111 18337944581386531538
21859007 373 17458613463611957589
23559900 14 18411133632902964635
255183 451 17557434185269555838
3009799 131 18261391092518132407
3411729 13 18409732889643880450
34797466 226 17988649545309635526
397830 11 18114755930843960555
4073 2 18334018332126555059
4169191 19 18411420626322202808
444735 82 18411706456638513760
6328613 192 18341894116909803746

>  <PUBCHEM_SHAPE_MULTIPOLES>  (1) 
507.5
23.37
3.25
1.2
9.34
1.03
0.32
15.53
-3.32
-8.01
0.36
2.83
0.32
-0.08

>  <PUBCHEM_SHAPE_SELFOVERLAP>  (1) 
997.754

>  <PUBCHEM_SHAPE_VOLUME>  (1) 
305.3

>  <PUBCHEM_COORDINATE_TYPE>  (1) 
2
5
10

$$$$
