28660
     RDKit          3D

  6  5  0  0  0  0  0  0  0  0999 V2000
   -0.9209    0.7748   -0.0007 O   0  0  0  0  0  0  0  0  0  0  0  0
   -0.3911   -1.4779    0.0002 O   0  0  0  0  0  0  0  0  0  0  0  0
    2.4132    0.4306    0.0006 N   0  0  0  0  0  0  0  0  0  0  0  0
   -2.3173    0.4606    0.0008 C   0  0  0  0  0  0  0  0  0  0  0  0
   -0.0828   -0.2955   -0.0008 C   0  0  0  0  0  0  0  0  0  0  0  0
    1.2989    0.1073   -0.0001 C   0  0  0  0  0  0  0  0  0  0  0  0
  1  4  1  0
  1  5  1  0
  2  5  2  0
  3  6  3  0
  5  6  1  0
M  END
>  <PUBCHEM_COMPOUND_CID>  (1) 
28660

>  <PUBCHEM_CONFORMER_RMSD>  (1) 
0.4

>  <PUBCHEM_CONFORMER_DIVERSEORDER>  (1) 
1

>  <PUBCHEM_MMFF94_PARTIAL_CHARGES>  (1) 
6
1 -0.43
2 -0.57
3 -0.56
4 0.28
5 0.83
6 0.45

>  <PUBCHEM_EFFECTIVE_ROTOR_COUNT>  (1) 
1

>  <PUBCHEM_PHARMACOPHORE_FEATURES>  (1) 
2
1 2 acceptor
1 3 acceptor

>  <PUBCHEM_HEAVY_ATOM_COUNT>  (1) 
6

>  <PUBCHEM_ATOM_DEF_STEREO_COUNT>  (1) 
0

>  <PUBCHEM_ATOM_UDEF_STEREO_COUNT>  (1) 
0

>  <PUBCHEM_BOND_DEF_STEREO_COUNT>  (1) 
0

>  <PUBCHEM_BOND_UDEF_STEREO_COUNT>  (1) 
0

>  <PUBCHEM_ISOTOPIC_ATOM_COUNT>  (1) 
0

>  <PUBCHEM_COMPONENT_COUNT>  (1) 
1

>  <PUBCHEM_CACTVS_TAUTO_COUNT>  (1) 
1

>  <PUBCHEM_CONFORMER_ID>  (1) 
00006FF400000001

>  <PUBCHEM_MMFF94_ENERGY>  (1) 
4.7093

>  <PUBCHEM_FEATURE_SELFOVERLAP>  (1) 
10.149

>  <PUBCHEM_SHAPE_FINGERPRINT>  (1) 
16714656 1 18409450310085244629
20096714 4 18409448076839420184
21040471 1 18410573976645912582
5460574 1 9223230745315821184
5943 1 9680938155882518027

>  <PUBCHEM_SHAPE_MULTIPOLES>  (1) 
106.76
2.92
1.04
0.57
0.14
0.37
0
-0.91
0
-0.17
0
-0.02
-0.01
0

>  <PUBCHEM_SHAPE_SELFOVERLAP>  (1) 
196.775

>  <PUBCHEM_SHAPE_VOLUME>  (1) 
65.7

>  <PUBCHEM_COORDINATE_TYPE>  (1) 
2
5
10

$$$$
