28670
     RDKit          3D

 14 14  0  0  0  0  0  0  0  0999 V2000
    4.6928    1.0530   -0.9032 Cl  0  0  0  0  0  0  0  0  0  0  0  0
   -2.7384    0.7048   -0.4930 O   0  0  0  0  0  0  0  0  0  0  0  0
    1.8634    1.5629    0.0943 O   0  0  0  0  0  0  0  0  0  0  0  0
    1.7598   -0.7790    0.3055 N   0  0  0  0  0  0  0  0  0  0  0  0
    0.4047   -1.0614    0.1304 C   0  0  0  0  0  0  0  0  0  0  0  0
   -1.8550   -0.3072   -0.2720 C   0  0  0  0  0  0  0  0  0  0  0  0
   -0.5006   -0.0246   -0.0960 C   0  0  0  0  0  0  0  0  0  0  0  0
   -0.0448   -2.3810    0.1808 C   0  0  0  0  0  0  0  0  0  0  0  0
   -2.3044   -1.6267   -0.2216 C   0  0  0  0  0  0  0  0  0  0  0  0
   -1.3993   -2.6637    0.0050 C   0  0  0  0  0  0  0  0  0  0  0  0
   -2.4311    1.9724    0.0847 C   0  0  0  0  0  0  0  0  0  0  0  0
    2.3925    0.4715    0.2881 C   0  0  0  0  0  0  0  0  0  0  0  0
   -3.7220    2.7058    0.3803 C   0  0  0  0  0  0  0  0  0  0  0  0
    3.8824    0.3734    0.5168 C   0  0  0  0  0  0  0  0  0  0  0  0
  1 14  1  0
  2  6  1  0
  2 11  1  0
  3 12  2  0
  4  5  1  0
  4 12  1  0
  5  7  2  0
  5  8  1  0
  6  7  1  0
  6  9  2  0
  8 10  2  0
  9 10  1  0
 11 13  1  0
 12 14  1  0
M  END
>  <PUBCHEM_COMPOUND_CID>  (1) 
28670

>  <PUBCHEM_CONFORMER_RMSD>  (1) 
0.6

>  <PUBCHEM_CONFORMER_DIVERSEORDER>  (1) 
1
40
24
31
52
19
17
44
21
5
7
51
28
48
15
41
22
50
8
30
26
43
6
54
9
4
53
33
16
20
46
14
47
25
34
18
37
2
35
32
10
45
23
39
13
29
49
36
11
38
27
42
12
3

>  <PUBCHEM_MMFF94_PARTIAL_CHARGES>  (1) 
18
1 -0.29
10 -0.15
11 0.28
12 0.57
14 0.35
15 0.15
16 0.15
17 0.15
18 0.15
19 0.37
2 -0.36
3 -0.57
4 -0.55
5 0.12
6 0.08
7 -0.15
8 -0.15
9 -0.15

>  <PUBCHEM_EFFECTIVE_ROTOR_COUNT>  (1) 
5

>  <PUBCHEM_PHARMACOPHORE_FEATURES>  (1) 
4
1 2 acceptor
1 3 acceptor
1 4 donor
6 5 6 7 8 9 10 rings

>  <PUBCHEM_HEAVY_ATOM_COUNT>  (1) 
14

>  <PUBCHEM_ATOM_DEF_STEREO_COUNT>  (1) 
0

>  <PUBCHEM_ATOM_UDEF_STEREO_COUNT>  (1) 
0

>  <PUBCHEM_BOND_DEF_STEREO_COUNT>  (1) 
0

>  <PUBCHEM_BOND_UDEF_STEREO_COUNT>  (1) 
0

>  <PUBCHEM_ISOTOPIC_ATOM_COUNT>  (1) 
0

>  <PUBCHEM_COMPONENT_COUNT>  (1) 
1

>  <PUBCHEM_CACTVS_TAUTO_COUNT>  (1) 
2

>  <PUBCHEM_CONFORMER_ID>  (1) 
00006FFE00000001

>  <PUBCHEM_MMFF94_ENERGY>  (1) 
41.5773

>  <PUBCHEM_FEATURE_SELFOVERLAP>  (1) 
20.297

>  <PUBCHEM_SHAPE_FINGERPRINT>  (1) 
10608611 8 18270395139414486832
10681291 71 18340497651138200321
12173636 292 18339355370288946270
12390115 104 18271261434233921481
12491281 212 18334012804561023874
13618510 140 18267582412287138057
14123255 52 18339079263942708241
15342168 16 18263927631626481645
15775835 57 18333731290898127704
16945 1 18266732661391850210
1741750 31 18341046341673150232
17834072 32 18409733954205725180
20510252 161 18269554008275767787
20645477 56 18412548729726259104
20671657 1 17979919311236764367
21501502 16 18337099090650791370
21524375 3 18337662019313635191
22182937 141 18342744026492502633
2306618 200 18201166566808469499
23402539 116 18198894993440321327
23559900 14 18273213093886572672
25 1 18269835315685437004
2748010 2 18338239250028287943
305870 269 18264486191727148099
3071541 12 17980198587011111711
7364860 26 17838051507748167999

>  <PUBCHEM_SHAPE_MULTIPOLES>  (1) 
273.26
7.07
3.01
0.74
6.75
0.21
0.04
-5.59
0.7
-3.37
-0.2
0.31
-0.08
-0.56

>  <PUBCHEM_SHAPE_SELFOVERLAP>  (1) 
545.804

>  <PUBCHEM_SHAPE_VOLUME>  (1) 
162.2

>  <PUBCHEM_COORDINATE_TYPE>  (1) 
2
5
10

$$$$
