28673
     RDKit          3D

  8  8  0  0  1  0  0  0  0  0999 V2000
    0.8979   -1.4883    0.1195 S   0  0  0  0  0  0  0  0  0  0  0  0
    0.6624    1.1491    0.0417 O   0  0  0  0  0  0  0  0  0  0  0  0
   -1.3970   -0.0292   -0.3257 C   0  0  0  0  0  0  0  0  0  0  0  0
   -0.0901   -0.0034    0.4449 C   0  0  0  0  0  0  0  0  0  0  0  0
    2.3036   -0.5140   -0.4432 C   0  0  0  0  0  0  0  0  0  0  0  0
    2.0523    0.8395    0.1969 C   0  0  0  0  0  0  0  0  0  0  0  0
   -2.2535   -1.2270    0.0911 C   0  0  0  0  0  0  0  0  0  0  0  0
   -2.1755    1.2732   -0.1252 C   0  0  0  0  0  0  0  0  0  0  0  0
  1  4  1  0
  1  5  1  0
  2  4  1  0
  2  6  1  0
  3  4  1  0
  3  7  1  0
  3  8  1  0
  5  6  1  0
M  END
>  <PUBCHEM_COMPOUND_CID>  (1) 
28673

>  <PUBCHEM_CONFORMER_RMSD>  (1) 
0.4

>  <PUBCHEM_CONFORMER_DIVERSEORDER>  (1) 
1
6
5
3
4
2

>  <PUBCHEM_MMFF94_PARTIAL_CHARGES>  (1) 
5
1 -0.46
2 -0.56
4 0.51
5 0.23
6 0.28

>  <PUBCHEM_EFFECTIVE_ROTOR_COUNT>  (1) 
2

>  <PUBCHEM_PHARMACOPHORE_FEATURES>  (1) 
3
1 2 acceptor
3 3 7 8 hydrophobe
5 1 2 4 5 6 rings

>  <PUBCHEM_HEAVY_ATOM_COUNT>  (1) 
8

>  <PUBCHEM_ATOM_DEF_STEREO_COUNT>  (1) 
0

>  <PUBCHEM_ATOM_UDEF_STEREO_COUNT>  (1) 
1

>  <PUBCHEM_BOND_DEF_STEREO_COUNT>  (1) 
0

>  <PUBCHEM_BOND_UDEF_STEREO_COUNT>  (1) 
0

>  <PUBCHEM_ISOTOPIC_ATOM_COUNT>  (1) 
0

>  <PUBCHEM_COMPONENT_COUNT>  (1) 
1

>  <PUBCHEM_CACTVS_TAUTO_COUNT>  (1) 
1

>  <PUBCHEM_CONFORMER_ID>  (1) 
0000700100000001

>  <PUBCHEM_MMFF94_ENERGY>  (1) 
14.3866

>  <PUBCHEM_FEATURE_SELFOVERLAP>  (1) 
15.223

>  <PUBCHEM_SHAPE_FINGERPRINT>  (1) 
12897270 3 18337105760834832687
14325111 11 18410011061353033424
14390081 3 18412258428459918785
18185500 45 18194681462660264402
19973954 147 18410294730715342389
21040471 1 18337389443577564754
23552423 10 18334016085752546510
24536 1 18338497691036913009
29004967 10 18202284710220386490
5084963 1 18271249429441243090

>  <PUBCHEM_SHAPE_MULTIPOLES>  (1) 
162.62
3.47
1.58
0.69
0.3
0.16
0
-0.13
-0.28
0.23
0.05
-0.05
0.03
0.15

>  <PUBCHEM_SHAPE_SELFOVERLAP>  (1) 
297.867

>  <PUBCHEM_SHAPE_VOLUME>  (1) 
106

>  <PUBCHEM_COORDINATE_TYPE>  (1) 
2
5
10

$$$$
