28674
     RDKit          3D

  7  7  0  0  0  0  0  0  0  0999 V2000
   -1.6346    0.5187    0.0004 O   0  0  0  0  0  0  0  0  0  0  0  0
   -0.5204    1.3600    0.0000 N   0  0  0  0  0  0  0  0  0  0  0  0
   -1.2534   -0.8245   -0.0003 N   0  0  0  0  0  0  0  0  0  0  0  0
    0.9172   -1.8554    0.0003 N   0  0  0  0  0  0  0  0  0  0  0  0
    0.5210    0.5300   -0.0004 C   0  0  0  0  0  0  0  0  0  0  0  0
    0.0780   -0.7908   -0.0003 C   0  0  0  0  0  0  0  0  0  0  0  0
    1.8923    1.0619    0.0001 C   0  0  0  0  0  0  0  0  0  0  0  0
  1  2  1  0
  1  3  1  0
  2  5  2  0
  3  6  2  0
  4  6  1  0
  5  6  1  0
  5  7  1  0
M  END
>  <PUBCHEM_COMPOUND_CID>  (1) 
28674

>  <PUBCHEM_CONFORMER_RMSD>  (1) 
0.4

>  <PUBCHEM_CONFORMER_DIVERSEORDER>  (1) 
1

>  <PUBCHEM_MMFF94_PARTIAL_CHARGES>  (1) 
9
1 0.24
11 0.4
12 0.4
2 -0.41
3 -0.41
4 -0.88
5 0.11
6 0.37
7 0.18

>  <PUBCHEM_EFFECTIVE_ROTOR_COUNT>  (1) 
0

>  <PUBCHEM_PHARMACOPHORE_FEATURES>  (1) 
4
1 2 acceptor
1 4 donor
3 3 4 6 cation
5 1 2 3 5 6 rings

>  <PUBCHEM_HEAVY_ATOM_COUNT>  (1) 
7

>  <PUBCHEM_ATOM_DEF_STEREO_COUNT>  (1) 
0

>  <PUBCHEM_ATOM_UDEF_STEREO_COUNT>  (1) 
0

>  <PUBCHEM_BOND_DEF_STEREO_COUNT>  (1) 
0

>  <PUBCHEM_BOND_UDEF_STEREO_COUNT>  (1) 
0

>  <PUBCHEM_ISOTOPIC_ATOM_COUNT>  (1) 
0

>  <PUBCHEM_COMPONENT_COUNT>  (1) 
1

>  <PUBCHEM_CACTVS_TAUTO_COUNT>  (1) 
2

>  <PUBCHEM_CONFORMER_ID>  (1) 
0000700200000001

>  <PUBCHEM_MMFF94_ENERGY>  (1) 
4.6406

>  <PUBCHEM_FEATURE_SELFOVERLAP>  (1) 
20.297

>  <PUBCHEM_SHAPE_FINGERPRINT>  (1) 
16714656 1 18049166858401744844
20096714 4 18411702079844753720
21040471 1 18266740370963349156
5943 1 9862405154165737830

>  <PUBCHEM_SHAPE_MULTIPOLES>  (1) 
123.24
1.89
1.65
0.56
0.75
0.57
0
-0.34
0
-0.23
0
0.04
0.01
0

>  <PUBCHEM_SHAPE_SELFOVERLAP>  (1) 
247.829

>  <PUBCHEM_SHAPE_VOLUME>  (1) 
73.2

>  <PUBCHEM_COORDINATE_TYPE>  (1) 
2
5
10

$$$$
