28671
     RDKit          3D

 14 14  0  0  0  0  0  0  0  0999 V2000
   -5.0505    0.9443   -1.5246 I   0  0  0  0  0  0  0  0  0  0  0  0
    3.4325   -0.4859    0.1400 O   0  0  0  0  0  0  0  0  0  0  0  0
   -2.9830   -1.5706   -0.0801 O   0  0  0  0  0  0  0  0  0  0  0  0
   -2.0149    0.5162    0.4202 N   0  0  0  0  0  0  0  0  0  0  0  0
   -0.6445    0.2641    0.3491 C   0  0  0  0  0  0  0  0  0  0  0  0
    2.0957   -0.2397    0.2075 C   0  0  0  0  0  0  0  0  0  0  0  0
    0.2669    1.2928    0.5870 C   0  0  0  0  0  0  0  0  0  0  0  0
   -0.1859   -1.0166    0.0405 C   0  0  0  0  0  0  0  0  0  0  0  0
    1.6370    1.0409    0.5161 C   0  0  0  0  0  0  0  0  0  0  0  0
    1.1842   -1.2684   -0.0302 C   0  0  0  0  0  0  0  0  0  0  0  0
    4.2725    0.5955   -0.2605 C   0  0  0  0  0  0  0  0  0  0  0  0
   -3.0728   -0.3814    0.2148 C   0  0  0  0  0  0  0  0  0  0  0  0
    5.4934    0.0384   -0.9610 C   0  0  0  0  0  0  0  0  0  0  0  0
   -4.4307    0.2705    0.3811 C   0  0  0  0  0  0  0  0  0  0  0  0
  1 14  1  0
  2  6  1  0
  2 11  1  0
  3 12  2  0
  4  5  1  0
  4 12  1  0
  5  7  2  0
  5  8  1  0
  6  9  2  0
  6 10  1  0
  7  9  1  0
  8 10  2  0
 11 13  1  0
 12 14  1  0
M  END
>  <PUBCHEM_COMPOUND_CID>  (1) 
28671

>  <PUBCHEM_CONFORMER_RMSD>  (1) 
0.6

>  <PUBCHEM_CONFORMER_DIVERSEORDER>  (1) 
1
18
5
20
8
15
24
13
21
16
10
17
12
23
9
14
19
7
6
26
4
25
11
2
22
3

>  <PUBCHEM_MMFF94_PARTIAL_CHARGES>  (1) 
18
1 -0.19
10 -0.15
11 0.28
12 0.57
14 0.25
15 0.15
16 0.15
17 0.15
18 0.15
19 0.37
2 -0.36
3 -0.57
4 -0.55
5 0.12
6 0.08
7 -0.15
8 -0.15
9 -0.15

>  <PUBCHEM_EFFECTIVE_ROTOR_COUNT>  (1) 
5

>  <PUBCHEM_PHARMACOPHORE_FEATURES>  (1) 
5
1 1 hydrophobe
1 2 acceptor
1 3 acceptor
1 4 donor
6 5 6 7 8 9 10 rings

>  <PUBCHEM_HEAVY_ATOM_COUNT>  (1) 
14

>  <PUBCHEM_ATOM_DEF_STEREO_COUNT>  (1) 
0

>  <PUBCHEM_ATOM_UDEF_STEREO_COUNT>  (1) 
0

>  <PUBCHEM_BOND_DEF_STEREO_COUNT>  (1) 
0

>  <PUBCHEM_BOND_UDEF_STEREO_COUNT>  (1) 
0

>  <PUBCHEM_ISOTOPIC_ATOM_COUNT>  (1) 
0

>  <PUBCHEM_COMPONENT_COUNT>  (1) 
1

>  <PUBCHEM_CACTVS_TAUTO_COUNT>  (1) 
2

>  <PUBCHEM_CONFORMER_ID>  (1) 
00006FFF00000001

>  <PUBCHEM_MMFF94_ENERGY>  (1) 
41.5472

>  <PUBCHEM_FEATURE_SELFOVERLAP>  (1) 
25.371

>  <PUBCHEM_SHAPE_FINGERPRINT>  (1) 
11401426 45 18341891909228061200
11471102 20 18341889679918507873
117890 112 16587742027673621476
12032990 46 18130514118950890770
12119455 92 14851884794448626290
12500047 106 18186514419591869859
12670543 26 18341051813672482092
13288520 33 14692851397899324437
13760787 19 17967247606935062634
14251752 14 18113614548165097062
14911166 2 18343584049022756692
14993402 34 18059855073322198614
15048467 5 17458063759242737572
15242439 84 18343300374864599945
17834072 33 14836114494359665368
17834072 8 18343300370516924357
17834076 25 16588026818370183560
18186145 218 18341326781710565529
200 152 17275383209823860505
20645477 56 17894345567262091541
20645477 70 18340485552257674895
21267235 1 18272660090592261539
21637258 2 15267338479638900172
23402539 116 17022900163866499823
23402655 69 18270390599876817029
23557571 272 17822014189800748293
23559900 14 18202003274568470056
26918003 58 10807931583712017733
4072396 5 18265595642225894978
42 15 11240000057370187653
465052 167 11815896773515801628
4990 188 17846509123214312932

>  <PUBCHEM_SHAPE_MULTIPOLES>  (1) 
283.33
11.11
1.32
1.02
0.75
0.13
0.24
-3.01
4.72
-0.59
0.11
-0.49
-0.29
0.56

>  <PUBCHEM_SHAPE_SELFOVERLAP>  (1) 
553.516

>  <PUBCHEM_SHAPE_VOLUME>  (1) 
173.6

>  <PUBCHEM_COORDINATE_TYPE>  (1) 
2
5
10

$$$$
