28680
     RDKit          3D

 21 22  0  0  1  0  0  0  0  0999 V2000
   -0.8917   -3.8379   -0.7919 O   0  0  0  0  0  0  0  0  0  0  0  0
   -1.7684   -2.1172    0.5070 N   0  0  0  0  0  0  0  0  0  0  0  0
   -4.7591    3.4426    0.1173 N   0  0  0  0  0  0  0  0  0  0  0  0
    6.5175    0.8746    0.5193 N   0  0  0  0  0  0  0  0  0  0  0  0
   -1.2278   -1.0059   -0.2494 C   0  0  0  0  0  0  0  0  0  0  0  0
    0.2233   -0.7226    0.1953 C   0  0  0  0  0  0  0  0  0  0  0  0
    0.9942    0.2556   -0.7066 C   0  0  0  0  0  0  0  0  0  0  0  0
   -2.1663    0.1777   -0.1521 C   0  0  0  0  0  0  0  0  0  0  0  0
    2.4573    0.4201   -0.3824 C   0  0  0  0  0  0  0  0  0  0  0  0
   -2.8131    0.6218   -1.2918 C   0  0  0  0  0  0  0  0  0  0  0  0
   -2.3574    0.7886    1.0748 C   0  0  0  0  0  0  0  0  0  0  0  0
    2.8497    1.3993    0.5176 C   0  0  0  0  0  0  0  0  0  0  0  0
    3.3871   -0.4114   -0.9889 C   0  0  0  0  0  0  0  0  0  0  0  0
   -1.5499   -3.4385    0.1650 C   0  0  0  0  0  0  0  0  0  0  0  0
   -3.6787    1.7119   -1.2019 C   0  0  0  0  0  0  0  0  0  0  0  0
   -3.2231    1.8786    1.1649 C   0  0  0  0  0  0  0  0  0  0  0  0
   -3.8839    2.3403    0.0264 C   0  0  0  0  0  0  0  0  0  0  0  0
    4.2033    1.5509    0.8183 C   0  0  0  0  0  0  0  0  0  0  0  0
    4.7407   -0.2600   -0.6883 C   0  0  0  0  0  0  0  0  0  0  0  0
    5.1489    0.7211    0.2154 C   0  0  0  0  0  0  0  0  0  0  0  0
   -2.2029   -4.3894    1.1320 C   0  0  0  0  0  0  0  0  0  0  0  0
  1 14  2  0
  2  5  1  0
  2 14  1  0
  3 17  1  0
  4 20  1  0
  5  6  1  0
  5  8  1  0
  6  7  1  0
  7  9  1  0
  8 10  2  0
  8 11  1  0
  9 12  2  0
  9 13  1  0
 10 15  1  0
 11 16  2  0
 12 18  1  0
 13 19  2  0
 14 21  1  0
 15 17  2  0
 16 17  1  0
 18 20  2  0
 19 20  1  0
M  END
>  <PUBCHEM_COMPOUND_CID>  (1) 
28680

>  <PUBCHEM_CONFORMER_RMSD>  (1) 
0.8

>  <PUBCHEM_CONFORMER_DIVERSEORDER>  (1) 
1
33
40
25
32
35
17
19
27
23
4
29
26
38
28
20
34
37
15
12
16
10
13
22
31
8
39
6
5
3
2
11
24
14
7
9
21
30
18
36

>  <PUBCHEM_MMFF94_PARTIAL_CHARGES>  (1) 
33
1 -0.57
10 -0.15
11 -0.15
12 -0.15
13 -0.15
14 0.57
15 -0.15
16 -0.15
17 0.1
18 -0.15
19 -0.15
2 -0.73
20 0.1
21 0.06
27 0.37
28 0.15
29 0.15
3 -0.9
30 0.15
31 0.15
32 0.15
33 0.15
34 0.15
35 0.15
39 0.4
4 -0.9
40 0.4
41 0.4
42 0.4
5 0.44
7 0.14
8 -0.14
9 -0.14

>  <PUBCHEM_EFFECTIVE_ROTOR_COUNT>  (1) 
6

>  <PUBCHEM_PHARMACOPHORE_FEATURES>  (1) 
8
1 1 acceptor
1 2 donor
1 3 cation
1 3 donor
1 4 cation
1 4 donor
6 8 10 11 15 16 17 rings
6 9 12 13 18 19 20 rings

>  <PUBCHEM_HEAVY_ATOM_COUNT>  (1) 
21

>  <PUBCHEM_ATOM_DEF_STEREO_COUNT>  (1) 
0

>  <PUBCHEM_ATOM_UDEF_STEREO_COUNT>  (1) 
1

>  <PUBCHEM_BOND_DEF_STEREO_COUNT>  (1) 
0

>  <PUBCHEM_BOND_UDEF_STEREO_COUNT>  (1) 
0

>  <PUBCHEM_ISOTOPIC_ATOM_COUNT>  (1) 
0

>  <PUBCHEM_COMPONENT_COUNT>  (1) 
1

>  <PUBCHEM_CACTVS_TAUTO_COUNT>  (1) 
2

>  <PUBCHEM_CONFORMER_ID>  (1) 
0000700800000001

>  <PUBCHEM_MMFF94_ENERGY>  (1) 
70.5559

>  <PUBCHEM_FEATURE_SELFOVERLAP>  (1) 
40.596

>  <PUBCHEM_SHAPE_FINGERPRINT>  (1) 
105312 117 18408323259164096812
11056379 131 18193568989296098990
11405975 8 18410007771851131640
11545043 162 18270679896194435946
11796584 16 18409733942312327294
12107183 9 18263071125327340538
121448 382 18342170068890887405
12293681 160 17845649231843802289
12500047 106 18411136944137970758
12788726 201 18265315382773064179
13004483 165 17977391864801748899
13140716 1 17903645425282745123
13583140 156 17917147333808952334
13955234 65 17760095017211543689
14178342 30 18334860575598136166
15042514 8 18118973722521763555
15842332 3 17460333258980568926
16988056 13 11011264174052455906
1741750 31 18410573976598628243
17913733 40 18196392337803685625
17980427 26 18051682253354168623
19784866 34 18268429028019908113
20645477 56 18412269453598555304
20645477 70 17060350591525089462
21033648 29 18411412878196309752
21065198 57 18340204193772030120
21120745 212 17612624475555053023
21426921 1 18264771137100984194
22224240 67 18340500989240023169
23557571 272 18270400615297192652
23558518 356 17971197168950896320
23845131 108 18263088713276485187
283562 15 18117553157139679106
3091708 16 9125131193121433035
312423 11 17533789457700027126
3380486 145 17479446189797178879
4073 2 18410572925376022242
4409770 3 18262510528995547431
474 4 18125156031379959291
5104073 3 18339072809466374872
56616090 46 18340210691830611596
59755656 520 18408599241078004871
633830 44 18057040203607335525
7399639 24 17480011334642217656
7615 1 17605280786006504046
77188 2 17616818077623798899
81228 2 18118411880432254779
9709674 26 18202007655071173758
9981440 41 18060692897014691014

>  <PUBCHEM_SHAPE_MULTIPOLES>  (1) 
411.36
11.18
4.32
1.15
15.49
5.76
0.04
-8.91
-0.75
-7.33
-1
-0.44
-0.05
1.06

>  <PUBCHEM_SHAPE_SELFOVERLAP>  (1) 
863.562

>  <PUBCHEM_SHAPE_VOLUME>  (1) 
232.6

>  <PUBCHEM_COORDINATE_TYPE>  (1) 
2
5
10

$$$$
