28694
     RDKit          3D

 20 21  0  0  0  0  0  0  0  0999 V2000
   -3.6769   -0.8921    3.4352 Cl  0  0  0  0  0  0  0  0  0  0  0  0
   -4.2662    0.2087   -3.1130 Cl  0  0  0  0  0  0  0  0  0  0  0  0
    3.3755   -1.4367   -0.4958 O   0  0  0  0  0  0  0  0  0  0  0  0
   -1.8362    0.4409    0.1005 N   0  0  0  0  0  0  0  0  0  0  0  0
   -0.4943    0.0101   -0.0444 C   0  0  0  0  0  0  0  0  0  0  0  0
    0.5794    0.9121    0.0324 C   0  0  0  0  0  0  0  0  0  0  0  0
    1.9010    0.4295   -0.1200 C   0  0  0  0  0  0  0  0  0  0  0  0
   -2.4535    0.4709    1.4079 C   0  0  0  0  0  0  0  0  0  0  0  0
   -2.5925    0.8667   -1.0563 C   0  0  0  0  0  0  0  0  0  0  0  0
   -0.2682   -1.3482   -0.2682 C   0  0  0  0  0  0  0  0  0  0  0  0
    1.0315   -1.8229   -0.4182 C   0  0  0  0  0  0  0  0  0  0  0  0
    2.1100   -0.9410   -0.3448 C   0  0  0  0  0  0  0  0  0  0  0  0
    0.3704    2.2826    0.2572 C   0  0  0  0  0  0  0  0  0  0  0  0
    2.9747    1.3315   -0.0433 C   0  0  0  0  0  0  0  0  0  0  0  0
   -2.9238   -0.9149    1.8210 C   0  0  0  0  0  0  0  0  0  0  0  0
   -3.3224   -0.3058   -1.6926 C   0  0  0  0  0  0  0  0  0  0  0  0
    1.2498   -3.2814   -0.6554 C   0  0  0  0  0  0  0  0  0  0  0  0
    1.4490    3.1644    0.3306 C   0  0  0  0  0  0  0  0  0  0  0  0
    2.7486    2.6898    0.1807 C   0  0  0  0  0  0  0  0  0  0  0  0
    4.0440   -1.8642    0.6865 C   0  0  0  0  0  0  0  0  0  0  0  0
  1 15  1  0
  2 16  1  0
  3 12  1  0
  3 20  1  0
  4  5  1  0
  4  8  1  0
  4  9  1  0
  5  6  2  0
  5 10  1  0
  6  7  1  0
  6 13  1  0
  7 12  2  0
  7 14  1  0
  8 15  1  0
  9 16  1  0
 10 11  2  0
 11 12  1  0
 11 17  1  0
 13 18  2  0
 14 19  2  0
 18 19  1  0
M  END
>  <PUBCHEM_COMPOUND_CID>  (1) 
28694

>  <PUBCHEM_CONFORMER_RMSD>  (1) 
0.8

>  <PUBCHEM_CONFORMER_DIVERSEORDER>  (1) 
1
16
12
5
6
14
4
15
13
11
10
8
17
18
9
2
3
7

>  <PUBCHEM_MMFF94_PARTIAL_CHARGES>  (1) 
23
1 -0.29
10 -0.15
11 -0.14
12 0.08
13 -0.15
14 -0.15
15 0.29
16 0.29
17 0.14
18 -0.15
19 -0.15
2 -0.29
20 0.28
25 0.15
26 0.15
27 0.15
3 -0.36
35 0.15
36 0.15
4 -0.84
5 0.1
8 0.37
9 0.37

>  <PUBCHEM_EFFECTIVE_ROTOR_COUNT>  (1) 
6

>  <PUBCHEM_PHARMACOPHORE_FEATURES>  (1) 
4
1 3 acceptor
1 4 cation
6 5 6 7 10 11 12 rings
6 6 7 13 14 18 19 rings

>  <PUBCHEM_HEAVY_ATOM_COUNT>  (1) 
20

>  <PUBCHEM_ATOM_DEF_STEREO_COUNT>  (1) 
0

>  <PUBCHEM_ATOM_UDEF_STEREO_COUNT>  (1) 
0

>  <PUBCHEM_BOND_DEF_STEREO_COUNT>  (1) 
0

>  <PUBCHEM_BOND_UDEF_STEREO_COUNT>  (1) 
0

>  <PUBCHEM_ISOTOPIC_ATOM_COUNT>  (1) 
0

>  <PUBCHEM_COMPONENT_COUNT>  (1) 
1

>  <PUBCHEM_CACTVS_TAUTO_COUNT>  (1) 
1

>  <PUBCHEM_CONFORMER_ID>  (1) 
0000701600000001

>  <PUBCHEM_MMFF94_ENERGY>  (1) 
84.2751

>  <PUBCHEM_FEATURE_SELFOVERLAP>  (1) 
20.324

>  <PUBCHEM_SHAPE_FINGERPRINT>  (1) 
10967382 1 18340764927379992964
11578080 2 17458351844147834141
11582403 64 17105597831164961661
11725454 13 17462526737365003621
11796584 16 16733255739153950338
12160290 23 17331408571509399444
12553582 1 18269284469403893918
12596599 1 17561085782525184117
12633257 1 18194150506118893443
12759256 9 18341897372394910526
13009979 54 17346595244760019543
13140716 1 18413111675685543114
13583140 156 17460579549385172080
14790565 3 18197527102539623648
14844126 61 16683714794006201111
15422964 175 18049750449736194331
15842332 3 17417820568741125441
16945 1 18269280071314976870
18219364 16 18265053707209959297
19010151 120 18058712625027697086
192875 21 18128796638511532221
19591789 44 18051150369152126622
20510252 161 16830087894002703296
20600515 1 17534071765842702302
20645477 70 18409441501270818463
20739085 24 18123221011137676624
21041028 32 18198084511272687408
21639500 275 18341324595466775285
21756936 100 17341842236450712448
22112679 90 17203614782933240289
22182313 1 18114463465014063045
2334 1 18268992158282548782
23388829 49 18128248996153947476
23402539 116 18055334865584127342
23419403 2 18186528725805802649
23526113 38 18043521708006867475
23557571 272 17240760731095145613
23598291 2 17775290443210016637
238 59 18267003111440336805
2748010 2 18338240474257127366
31174 14 18191892169179873089
6049 1 17822301209749062137
633830 44 17628100067177731780
7615 1 17489870453228387169
77492 1 17489874855633129929
81228 2 17545606656377567672
88987 49 16081360873896710429

>  <PUBCHEM_SHAPE_MULTIPOLES>  (1) 
404.48
6.92
3.15
2.36
2.75
0.26
-0.73
-0.95
0.44
-3.7
-0.06
5.71
-0.62
1.51

>  <PUBCHEM_SHAPE_SELFOVERLAP>  (1) 
829.694

>  <PUBCHEM_SHAPE_VOLUME>  (1) 
237.7

>  <PUBCHEM_COORDINATE_TYPE>  (1) 
2
5
10

$$$$
