2869
     RDKit          3D

 27 30  0  0  0  0  0  0  0  0999 V2000
   -6.3348   -3.8374    1.0837 Br  0  0  0  0  0  0  0  0  0  0  0  0
    6.6975   -1.9740   -1.9753 O   0  0  0  0  0  0  0  0  0  0  0  0
    2.5857    1.4839    2.0697 O   0  0  0  0  0  0  0  0  0  0  0  0
    1.1519    3.0197   -0.0838 O   0  0  0  0  0  0  0  0  0  0  0  0
    4.1105   -0.4305   -1.8121 N   0  0  0  0  0  0  0  0  0  0  0  0
   -5.4188    1.7505   -0.9340 N   0  0  0  0  0  0  0  0  0  0  0  0
    0.0342    1.0254    0.4728 N   0  0  0  0  0  0  0  0  0  0  0  0
    4.5126   -0.0972    0.3569 C   0  0  0  0  0  0  0  0  0  0  0  0
    5.0121   -0.6904   -0.8047 C   0  0  0  0  0  0  0  0  0  0  0  0
    3.2814    0.5268    0.0110 C   0  0  0  0  0  0  0  0  0  0  0  0
   -4.7092   -0.1631   -0.0330 C   0  0  0  0  0  0  0  0  0  0  0  0
   -5.8332    0.5025   -0.5268 C   0  0  0  0  0  0  0  0  0  0  0  0
   -3.6366    0.7336   -0.1663 C   0  0  0  0  0  0  0  0  0  0  0  0
    3.0613    0.3045   -1.3289 C   0  0  0  0  0  0  0  0  0  0  0  0
    6.2191   -1.3980   -0.8325 C   0  0  0  0  0  0  0  0  0  0  0  0
    5.2524   -0.2147    1.5503 C   0  0  0  0  0  0  0  0  0  0  0  0
   -4.0752    1.8965   -0.7154 C   0  0  0  0  0  0  0  0  0  0  0  0
   -4.8585   -1.4766    0.4546 C   0  0  0  0  0  0  0  0  0  0  0  0
    2.3930    1.2660    0.8620 C   0  0  0  0  0  0  0  0  0  0  0  0
   -7.1043   -0.0823   -0.5574 C   0  0  0  0  0  0  0  0  0  0  0  0
    6.9355   -1.5013    0.3633 C   0  0  0  0  0  0  0  0  0  0  0  0
    6.4615   -0.9195    1.5375 C   0  0  0  0  0  0  0  0  0  0  0  0
   -2.2622    0.5028    0.2070 C   0  0  0  0  0  0  0  0  0  0  0  0
   -6.1239   -2.0742    0.4302 C   0  0  0  0  0  0  0  0  0  0  0  0
   -7.2281   -1.3859   -0.0685 C   0  0  0  0  0  0  0  0  0  0  0  0
    1.1069    1.8816    0.3557 C   0  0  0  0  0  0  0  0  0  0  0  0
   -1.2312    1.3515    0.0841 C   0  0  0  0  0  0  0  0  0  0  0  0
  1 24  1  0
  2 15  1  0
  3 19  2  0
  4 26  2  0
  5  9  1  0
  5 14  1  0
  6 12  1  0
  6 17  1  0
  7 26  1  0
  7 27  1  0
  8  9  2  0
  8 10  1  0
  8 16  1  0
  9 15  1  0
 10 14  2  0
 10 19  1  0
 11 12  2  0
 11 13  1  0
 11 18  1  0
 12 20  1  0
 13 17  2  0
 13 23  1  0
 15 21  2  0
 16 22  2  0
 18 24  2  0
 19 26  1  0
 20 25  2  0
 21 22  1  0
 23 27  2  0
 24 25  1  0
M  END
>  <PUBCHEM_COMPOUND_CID>  (1) 
2869

>  <PUBCHEM_CONFORMER_RMSD>  (1) 
0.8

>  <PUBCHEM_CONFORMER_DIVERSEORDER>  (1) 
1
85
25
18
13
72
75
55
33
69
59
26
22
46
57
50
48
11
84
73
45
5
23
60
9
56
70
81
6
30
4
36
14
77
82
31
39
61
64
83
38
28
10
91
78
12
51
21
63
71
87
49
40
37
15
92
24
86
27
62
89
47
53
3
41
58
2
74
16
17
65
32
20
42
7
29
54
79
43
19
67
66
68
8
35
90
88
44
80
34
76
52
93

>  <PUBCHEM_MMFF94_PARTIAL_CHARGES>  (1) 
39
1 -0.11
10 -0.09
12 -0.15
13 -0.05
14 -0.3
15 0.08
16 -0.15
17 -0.3
18 -0.15
19 0.66
2 -0.53
20 -0.15
21 -0.15
22 -0.15
23 -0.1
24 0.11
25 -0.15
26 0.63
27 -0.04
28 0.27
29 0.15
3 -0.57
30 0.15
31 0.27
32 0.15
33 0.15
34 0.15
35 0.15
36 0.15
37 0.15
38 0.15
39 0.15
4 -0.57
40 0.37
41 0.45
5 0.03
6 0.03
7 -0.54
9 -0.15

>  <PUBCHEM_EFFECTIVE_ROTOR_COUNT>  (1) 
5

>  <PUBCHEM_PHARMACOPHORE_FEATURES>  (1) 
13
1 1 hydrophobe
1 2 donor
1 3 acceptor
1 4 acceptor
1 5 cation
1 5 donor
1 6 cation
1 6 donor
1 7 donor
5 5 8 9 10 14 rings
5 6 11 12 13 17 rings
6 11 12 18 20 24 25 rings
6 8 9 15 16 21 22 rings

>  <PUBCHEM_HEAVY_ATOM_COUNT>  (1) 
27

>  <PUBCHEM_ATOM_DEF_STEREO_COUNT>  (1) 
0

>  <PUBCHEM_ATOM_UDEF_STEREO_COUNT>  (1) 
0

>  <PUBCHEM_BOND_DEF_STEREO_COUNT>  (1) 
0

>  <PUBCHEM_BOND_UDEF_STEREO_COUNT>  (1) 
1

>  <PUBCHEM_ISOTOPIC_ATOM_COUNT>  (1) 
0

>  <PUBCHEM_COMPONENT_COUNT>  (1) 
1

>  <PUBCHEM_CACTVS_TAUTO_COUNT>  (1) 
34

>  <PUBCHEM_CONFORMER_ID>  (1) 
00000B3500000001

>  <PUBCHEM_MMFF94_ENERGY>  (1) 
47.6572

>  <PUBCHEM_FEATURE_SELFOVERLAP>  (1) 
66.157

>  <PUBCHEM_SHAPE_FINGERPRINT>  (1) 
10670039 82 13407065960300706230
10740516 88 17701837488246642718
11315621 246 17968092049962779607
11393246 34 18341891953048744023
11524674 6 17847058909489189567
11545043 162 18342172267777499897
11646440 116 17418093217639092938
11963148 33 18335413539684743770
11991303 11 14490480815308393401
12166972 35 18040719177290070588
12342043 65 18341330110843223513
12661589 4 18188769582011670074
1361 4 18119250812209913483
13668630 136 18412826863091702518
13685833 64 18273494567813653112
13782708 43 18339359773020814595
13911987 19 13551182308819532737
14068700 675 17967532350624907804
14251757 52 11023813008145635074
14251764 18 13326566372135714977
14344974 204 18196087962120510951
14420673 8 18409731777468922851
14444916 359 18187370939894057331
14556957 393 15430321274151669855
14598715 104 8574430894207691199
14849402 71 14332543679571657330
14951699 99 10591774185854720003
15183329 4 16660645133173272952
15352257 5 18409448081356303883
15419008 91 18267280119541289832
15510800 12 18202293484791548070
17844677 252 18408323306958064497
19377110 9 14764630823969243857
2026 5 18343299245837724199
20281389 69 9439405730869062845
21623969 137 17704354363880268902
21682296 61 18202005434789086479
229767 8 17900832849138973267
2303208 19 18341332275316505161
23081809 10 16732699415702212696
23522609 53 16806734958086446621
23559900 14 18262512736698323865
25122255 55 18412548747401857683
3004659 81 18187086144189714332
3383291 50 18272650164791536903
439807 62 18333734628457059867
465052 167 18131634478634979212
504579 68 16515677849830474103
5718773 13 18339078298102535327
58902169 19 16732986414085864327
59682541 35 17988349413812383058
59682541 52 15213297496366719314
6009941 240 17844810291734853401
636775 8 18342469114864058942
86090 222 17703244939895924382
8863177 126 18339923835117668459
999808 66 18272374174476890191

>  <PUBCHEM_SHAPE_MULTIPOLES>  (1) 
529.04
24.3
2.89
1.42
4.19
1.46
-0.06
17.87
-2.25
4.37
0.46
-2.84
0.27
2.58

>  <PUBCHEM_SHAPE_SELFOVERLAP>  (1) 
1169.821

>  <PUBCHEM_SHAPE_VOLUME>  (1) 
290.6

>  <PUBCHEM_COORDINATE_TYPE>  (1) 
2
5
10

$$$$
