28697
     RDKit          3D

 12 12  0  0  0  0  0  0  0  0999 V2000
    0.7902    2.3742    0.0005 Cl  0  0  0  0  0  0  0  0  0  0  0  0
   -2.3586    2.0365   -0.0002 Cl  0  0  0  0  0  0  0  0  0  0  0  0
   -3.5920   -0.9073   -0.0016 Cl  0  0  0  0  0  0  0  0  0  0  0  0
    2.9934   -1.2785    0.0001 O   0  0  0  0  0  0  0  0  0  0  0  0
    2.8327    0.9108   -0.0009 O   0  0  0  0  0  0  0  0  0  0  0  0
    2.3108   -0.2280   -0.0003 N   0  0  0  0  0  0  0  0  0  0  0  0
    0.8905   -0.3324   -0.0002 C   0  0  0  0  0  0  0  0  0  0  0  0
    0.0653    0.7923    0.0002 C   0  0  0  0  0  0  0  0  0  0  0  0
    0.3290   -1.6093    0.0001 C   0  0  0  0  0  0  0  0  0  0  0  0
   -1.3211    0.6401    0.0007 C   0  0  0  0  0  0  0  0  0  0  0  0
   -1.0575   -1.7615    0.0008 C   0  0  0  0  0  0  0  0  0  0  0  0
   -1.8826   -0.6368    0.0010 C   0  0  0  0  0  0  0  0  0  0  0  0
  1  8  1  0
  2 10  1  0
  3 12  1  0
  4  6  1  0
  5  6  2  0
  6  7  1  0
  7  8  2  0
  7  9  1  0
  8 10  1  0
  9 11  2  0
 10 12  2  0
 11 12  1  0
M  CHG  2   4  -1   6   1
M  END
>  <PUBCHEM_COMPOUND_CID>  (1) 
28697

>  <PUBCHEM_CONFORMER_RMSD>  (1) 
0.4

>  <PUBCHEM_CONFORMER_DIVERSEORDER>  (1) 
1

>  <PUBCHEM_MMFF94_PARTIAL_CHARGES>  (1) 
14
1 -0.18
10 0.18
11 -0.15
12 0.18
13 0.15
14 0.15
2 -0.18
3 -0.18
4 -0.52
5 -0.52
6 0.91
7 0.13
8 0.18
9 -0.15

>  <PUBCHEM_EFFECTIVE_ROTOR_COUNT>  (1) 
1

>  <PUBCHEM_PHARMACOPHORE_FEATURES>  (1) 
4
1 4 acceptor
1 4 anion
1 5 acceptor
6 7 8 9 10 11 12 rings

>  <PUBCHEM_HEAVY_ATOM_COUNT>  (1) 
12

>  <PUBCHEM_ATOM_DEF_STEREO_COUNT>  (1) 
0

>  <PUBCHEM_ATOM_UDEF_STEREO_COUNT>  (1) 
0

>  <PUBCHEM_BOND_DEF_STEREO_COUNT>  (1) 
0

>  <PUBCHEM_BOND_UDEF_STEREO_COUNT>  (1) 
0

>  <PUBCHEM_ISOTOPIC_ATOM_COUNT>  (1) 
0

>  <PUBCHEM_COMPONENT_COUNT>  (1) 
1

>  <PUBCHEM_CACTVS_TAUTO_COUNT>  (1) 
1

>  <PUBCHEM_CONFORMER_ID>  (1) 
0000701900000001

>  <PUBCHEM_MMFF94_ENERGY>  (1) 
42.972

>  <PUBCHEM_FEATURE_SELFOVERLAP>  (1) 
20.379

>  <PUBCHEM_SHAPE_FINGERPRINT>  (1) 
10967382 1 18266741474843686821
11206711 2 18409166602094779597
11471102 20 18410005568311440599
12032990 46 18411143515058541183
12524768 44 18048589610454572977
13380535 76 18122902028226906655
14325111 11 18410856533891156256
16945 1 18338516472739059303
193761 8 17329991807579345703
19973954 147 18410293652689003108
21040471 1 18338797788786110275
21501502 16 18410296908385106733
22802520 49 17842853122039230278
2334 1 18410856533875280037
23402539 116 18271230669040230463
23402655 69 18268412561674218157
23463225 33 18336264527033837482
23552423 10 17975412730580090238
23559900 14 18198905808858945478
241688 4 18338234864650128264
2748010 2 18339923705883358767
5084963 1 18202565102896961187
528886 8 18194958548143280513
53812653 166 18270113509544718489
7364860 26 18198908213185978216

>  <PUBCHEM_SHAPE_MULTIPOLES>  (1) 
235.84
4.42
2.4
0.6
0.13
0.97
0
-0.67
0
0.24
0
0.08
0.02
0

>  <PUBCHEM_SHAPE_SELFOVERLAP>  (1) 
471.706

>  <PUBCHEM_SHAPE_VOLUME>  (1) 
142.1

>  <PUBCHEM_COORDINATE_TYPE>  (1) 
2
5
10

$$$$
