287
     RDKit          3D

 23 23  0  0  1  0  0  0  0  0999 V2000
   -6.0895   -0.9423   -0.3461 P   0  0  0  0  0  0  0  0  0  0  0  0
   -2.2530    0.7889   -1.3211 O   0  0  0  0  0  0  0  0  0  0  0  0
   -2.1551    2.5251    0.9146 O   0  0  0  0  0  0  0  0  0  0  0  0
   -4.5068   -0.6725   -0.5236 O   0  0  0  0  0  0  0  0  0  0  0  0
    0.3843    2.4310    0.2303 O   0  0  0  0  0  0  0  0  0  0  0  0
   -6.1998   -1.4025    1.2002 O   0  0  0  0  0  0  0  0  0  0  0  0
   -6.7355    0.5402   -0.3398 O   0  0  0  0  0  0  0  0  0  0  0  0
   -6.6876   -1.8986   -1.3362 O   0  0  0  0  0  0  0  0  0  0  0  0
    6.0396    1.4198   -0.2954 O   0  0  0  0  0  0  0  0  0  0  0  0
    3.9698    1.9386   -1.0785 O   0  0  0  0  0  0  0  0  0  0  0  0
    2.0829    0.3708    0.2283 N   0  0  0  0  0  0  0  0  0  0  0  0
   -1.5778    1.2265    0.9481 C   0  0  0  0  0  0  0  0  0  0  0  0
   -2.3883    0.3189    0.0185 C   0  0  0  0  0  0  0  0  0  0  0  0
   -0.1014    1.3496    0.5662 C   0  0  0  0  0  0  0  0  0  0  0  0
   -3.8701    0.2251    0.3811 C   0  0  0  0  0  0  0  0  0  0  0  0
    0.7265    0.0814    0.6207 C   0  0  0  0  0  0  0  0  0  0  0  0
    3.0894   -0.5819    0.1704 C   0  0  0  0  0  0  0  0  0  0  0  0
    4.4020   -0.2519   -0.2189 C   0  0  0  0  0  0  0  0  0  0  0  0
    2.8123   -1.9205    0.5062 C   0  0  0  0  0  0  0  0  0  0  0  0
    5.4000   -1.2251   -0.2701 C   0  0  0  0  0  0  0  0  0  0  0  0
    3.8104   -2.8937    0.4552 C   0  0  0  0  0  0  0  0  0  0  0  0
    5.1041   -2.5459    0.0670 C   0  0  0  0  0  0  0  0  0  0  0  0
    4.7434    1.1191   -0.5771 C   0  0  0  0  0  0  0  0  0  0  0  0
  1  4  1  0
  1  6  1  0
  1  7  1  0
  1  8  2  0
  2 13  1  0
  3 12  1  0
  4 15  1  0
  5 14  2  0
  9 23  1  0
 10 23  2  0
 11 16  1  0
 11 17  1  0
 12 13  1  0
 12 14  1  0
 13 15  1  0
 14 16  1  0
 17 18  2  0
 17 19  1  0
 18 20  1  0
 18 23  1  0
 19 21  2  0
 20 22  2  0
 21 22  1  0
M  END
>  <PUBCHEM_COMPOUND_CID>  (1) 
287

>  <PUBCHEM_CONFORMER_RMSD>  (1) 
1

>  <PUBCHEM_CONFORMER_DIVERSEORDER>  (1) 
1
162
120
22
137
172
12
124
150
336
308
39
291
149
19
323
250
60
304
214
264
274
11
2
263
49
133
196
262
14
111
258
119
192
37
243
118
121
319
226
230
176
236
122
255
275
131
167
292
271
30
6
134
13
301
116
42
327
33
53
160
235
260
329
82
321
88
231
286
203
200
324
211
87
207
29
293
332
97
165
296
186
170
168
273
313
288
161
72
245
318
317
90
36
16
102
99
248
101
194
209
225
158
217
50
54
205
17
107
41
270
227
78
94
259
123
306
164
261
295
27
228
80
287
267
156
147
173
183
55
179
21
215
218
24
110
282
86
91
247
257
83
152
31
77
127
305
28
244
277
85
144
265
254
38
268
136
294
302
177
79
157
300
52
44
284
339
163
63
187
129
47
20
299
184
242
108
89
135
171
229
197
117
139
145
148
330
92
241
212
7
51
106
98
246
278
337
253
290
237
56
307
153
206
9
130
75
222
64
115
210
178
74
45
334
69
328
316
61
3
272
326
190
46
65
269
68
15
266
138
25
303
126
112
132
325
220
66
239
224
251
174
43
314
191
104
146
309
276
234
128
201
73
249
143
204
59
93
40
320
114
322
84
95
34
103
48
26
105
315
23
155
5
240
312
219
280
166
311
202
216
175
252
151
310
279
109
140
76
113
340
181
81
185
193
188
213
180
32
289
57
67
35
182
335
198
58
169
233
4
18
141
331
62
70
338
71
154
256
333
159
96
189
100
285
283
142
298
297
223
8
195
10
232
281
125
208
221
238
199

>  <PUBCHEM_MMFF94_PARTIAL_CHARGES>  (1) 
33
1 1.51
10 -0.57
11 -0.87
12 0.34
13 0.28
14 0.45
15 0.28
16 0.43
17 0.1
18 0.09
19 -0.15
2 -0.68
20 -0.15
21 -0.15
22 -0.15
23 0.63
3 -0.68
30 0.4
31 0.4
32 0.4
33 0.15
34 0.15
35 0.15
36 0.15
37 0.5
38 0.5
39 0.5
4 -0.55
5 -0.57
6 -0.77
7 -0.77
8 -0.7
9 -0.65

>  <PUBCHEM_EFFECTIVE_ROTOR_COUNT>  (1) 
9

>  <PUBCHEM_PHARMACOPHORE_FEATURES>  (1) 
15
1 10 acceptor
1 11 cation
1 11 donor
1 2 acceptor
1 2 donor
1 3 acceptor
1 3 donor
1 5 acceptor
1 6 acceptor
1 7 acceptor
1 8 acceptor
1 9 acceptor
3 9 10 23 anion
4 1 6 7 8 anion
6 17 18 19 20 21 22 rings

>  <PUBCHEM_HEAVY_ATOM_COUNT>  (1) 
23

>  <PUBCHEM_ATOM_DEF_STEREO_COUNT>  (1) 
0

>  <PUBCHEM_ATOM_UDEF_STEREO_COUNT>  (1) 
2

>  <PUBCHEM_BOND_DEF_STEREO_COUNT>  (1) 
0

>  <PUBCHEM_BOND_UDEF_STEREO_COUNT>  (1) 
0

>  <PUBCHEM_ISOTOPIC_ATOM_COUNT>  (1) 
0

>  <PUBCHEM_COMPONENT_COUNT>  (1) 
1

>  <PUBCHEM_CACTVS_TAUTO_COUNT>  (1) 
15

>  <PUBCHEM_CONFORMER_ID>  (1) 
0000011F00000001

>  <PUBCHEM_MMFF94_ENERGY>  (1) 
26.3348

>  <PUBCHEM_FEATURE_SELFOVERLAP>  (1) 
76.236

>  <PUBCHEM_SHAPE_FINGERPRINT>  (1) 
10447042 23 18411134731929243526
10595046 47 18411985732760507576
11135609 187 18335140933387627177
12236239 1 18343867692821029241
12592606 108 18272083921367936591
12760667 363 18342174445658026795
12788726 201 17917720080229393969
12916754 54 18264489490636623176
13167823 11 18269557148387451778
13533116 47 18411982459931728144
13955234 65 18056474187010965585
14576447 43 18410576146237523298
15183329 4 17095517375622662299
15537594 2 18201715188946215495
17134984 74 17748823042499115291
17492 89 18197218036481682198
20028762 73 18341328878040617566
20567600 247 18341327894518720551
20645477 70 18334860468519144978
21267235 1 18342182124911956286
22950370 63 18343019986947086521
23522609 53 18057352598228417713
23559900 14 18336541733419854105
2767999 5 11746932105691952239
2838139 119 12251899322091734671
3004659 81 18260827073001842410
314194 84 18413393159125457963
329604 57 18410857642124652506
351380 3 18060134353940113695
397830 11 12319160876489516367
4325135 7 18410012152301055132
46194498 28 17603584170576714084
465052 167 18060419118418596615
5104073 3 17987795203363061392
6327066 14 17753906205873394132
7970288 3 18272080604888669959

>  <PUBCHEM_SHAPE_MULTIPOLES>  (1) 
419.37
17.77
2.73
0.98
19.35
0.43
-0.07
8.62
-3.73
-2.3
0.19
0.78
-0.03
-1.5

>  <PUBCHEM_SHAPE_SELFOVERLAP>  (1) 
846.162

>  <PUBCHEM_SHAPE_VOLUME>  (1) 
244.6

>  <PUBCHEM_COORDINATE_TYPE>  (1) 
2
5
10

$$$$
