28707
     RDKit          3D

 39 44  0  0  1  0  0  0  0  0999 V2000
   -3.2900    0.6777   -1.6923 N   0  0  0  0  0  0  0  0  0  0  0  0
    3.3791   -2.1387    0.2518 N   0  0  0  0  0  0  0  0  0  0  0  0
   -6.1218    0.7560   -0.8345 N   0  0  0  0  0  0  0  0  0  0  0  0
    5.7387   -0.4242   -0.3150 N   0  0  0  0  0  0  0  0  0  0  0  0
   -4.4476    0.5942   -2.7100 C   0  0  0  0  0  0  0  0  0  0  0  0
   -3.7663   -0.0261   -0.4036 C   0  0  0  0  0  0  0  0  0  0  0  0
    3.7178   -0.8782    1.1189 C   0  0  0  0  0  0  0  0  0  0  0  0
    4.7713   -2.7434   -0.1377 C   0  0  0  0  0  0  0  0  0  0  0  0
   -2.0047    0.0266   -2.2472 C   0  0  0  0  0  0  0  0  0  0  0  0
    2.5183   -1.8372   -0.9172 C   0  0  0  0  0  0  0  0  0  0  0  0
   -4.7282   -0.8792   -3.0680 C   0  0  0  0  0  0  0  0  0  0  0  0
   -4.0250   -1.5201   -0.6848 C   0  0  0  0  0  0  0  0  0  0  0  0
    4.4922   -1.2487    2.3999 C   0  0  0  0  0  0  0  0  0  0  0  0
    5.5812   -3.1756    1.1014 C   0  0  0  0  0  0  0  0  0  0  0  0
   -5.6989    1.2936   -2.1313 C   0  0  0  0  0  0  0  0  0  0  0  0
   -5.0280    0.6834    0.1390 C   0  0  0  0  0  0  0  0  0  0  0  0
    4.5009    0.1275    0.2443 C   0  0  0  0  0  0  0  0  0  0  0  0
    5.5376   -1.7085   -0.9929 C   0  0  0  0  0  0  0  0  0  0  0  0
   -4.9535   -1.7995   -1.8675 C   0  0  0  0  0  0  0  0  0  0  0  0
    5.7458   -2.0939    2.1700 C   0  0  0  0  0  0  0  0  0  0  0  0
   -2.8713    2.1378   -1.4232 C   0  0  0  0  0  0  0  0  0  0  0  0
    2.5842   -3.1669    1.1113 C   0  0  0  0  0  0  0  0  0  0  0  0
   -1.0226   -0.2718   -1.1211 C   0  0  0  0  0  0  0  0  0  0  0  0
    1.2169   -1.2166   -0.4310 C   0  0  0  0  0  0  0  0  0  0  0  0
    0.2741   -0.9297   -1.6017 C   0  0  0  0  0  0  0  0  0  0  0  0
   -7.2614    1.4953   -0.2990 C   0  0  0  0  0  0  0  0  0  0  0  0
    6.4029    0.5391   -1.1883 C   0  0  0  0  0  0  0  0  0  0  0  0
   -7.7058    0.9529    1.0333 C   0  0  0  0  0  0  0  0  0  0  0  0
    7.1857    1.5593   -0.4052 C   0  0  0  0  0  0  0  0  0  0  0  0
   -8.6666   -0.0569    1.0898 C   0  0  0  0  0  0  0  0  0  0  0  0
    6.5737    2.7446    0.0032 C   0  0  0  0  0  0  0  0  0  0  0  0
   -7.1567    1.4596    2.2112 C   0  0  0  0  0  0  0  0  0  0  0  0
    8.5226    1.3194   -0.0875 C   0  0  0  0  0  0  0  0  0  0  0  0
   -9.0783   -0.5597    2.3241 C   0  0  0  0  0  0  0  0  0  0  0  0
    7.2987    3.6898    0.7289 C   0  0  0  0  0  0  0  0  0  0  0  0
   -7.5684    0.9567    3.4454 C   0  0  0  0  0  0  0  0  0  0  0  0
    9.2475    2.2647    0.6382 C   0  0  0  0  0  0  0  0  0  0  0  0
   -8.5292   -0.0530    3.5018 C   0  0  0  0  0  0  0  0  0  0  0  0
    8.6354    3.4499    1.0465 C   0  0  0  0  0  0  0  0  0  0  0  0
  1  5  1  0
  1  6  1  0
  1  9  1  0
  1 21  1  0
  2  7  1  0
  2  8  1  0
  2 10  1  0
  2 22  1  0
  3 15  1  0
  3 16  1  0
  3 26  1  0
  4 17  1  0
  4 18  1  0
  4 27  1  0
  5 11  1  0
  5 15  1  0
  6 12  1  0
  6 16  1  0
  7 13  1  0
  7 17  1  0
  8 14  1  0
  8 18  1  0
  9 23  1  0
 10 24  1  0
 11 19  1  0
 12 19  1  0
 13 20  1  0
 14 20  1  0
 23 25  1  0
 24 25  1  0
 26 28  1  0
 27 29  1  0
 28 30  2  0
 28 32  1  0
 29 31  2  0
 29 33  1  0
 30 34  1  0
 31 35  1  0
 32 36  2  0
 33 37  2  0
 34 38  2  0
 35 39  2  0
 36 38  1  0
 37 39  1  0
M  CHG  2   1   1   2   1
M  END
>  <PUBCHEM_COMPOUND_CID>  (1) 
28707

>  <PUBCHEM_CONFORMER_RMSD>  (1) 
1.8

>  <PUBCHEM_CONFORMER_DIVERSEORDER>  (1) 
2
51
53
59
61
8
43
20
44
25
9
27
23
7
36
15
46
32
10
5
37
3
45
40
12
60
35
54
6
11
50
55
30
49
48
17
18
38
28
22
58
56
41
42
16
24
14
19
52
47
13
39
34
4
1
57
26
21
29
33
31

>  <PUBCHEM_MMFF94_PARTIAL_CHARGES>  (1) 
40
1 -1.01
10 0.5
15 0.27
16 0.27
17 0.27
18 0.27
2 -1.01
21 0.5
22 0.5
26 0.41
27 0.41
28 -0.14
29 -0.14
3 -0.81
30 -0.15
31 -0.15
32 -0.15
33 -0.15
34 -0.15
35 -0.15
36 -0.15
37 -0.15
38 -0.15
39 -0.15
4 -0.81
5 0.5
6 0.5
7 0.5
8 0.5
84 0.15
85 0.15
86 0.15
87 0.15
88 0.15
89 0.15
9 0.5
90 0.15
91 0.15
92 0.15
93 0.15

>  <PUBCHEM_EFFECTIVE_ROTOR_COUNT>  (1) 
12.8

>  <PUBCHEM_PHARMACOPHORE_FEATURES>  (1) 
10
1 1 cation
1 2 cation
1 3 cation
1 4 cation
6 1 3 5 6 15 16 rings
6 1 5 6 11 12 19 rings
6 2 4 7 8 17 18 rings
6 2 7 8 13 14 20 rings
6 28 30 32 34 36 38 rings
6 29 31 33 35 37 39 rings

>  <PUBCHEM_HEAVY_ATOM_COUNT>  (1) 
39

>  <PUBCHEM_ATOM_DEF_STEREO_COUNT>  (1) 
0

>  <PUBCHEM_ATOM_UDEF_STEREO_COUNT>  (1) 
4

>  <PUBCHEM_BOND_DEF_STEREO_COUNT>  (1) 
0

>  <PUBCHEM_BOND_UDEF_STEREO_COUNT>  (1) 
0

>  <PUBCHEM_ISOTOPIC_ATOM_COUNT>  (1) 
0

>  <PUBCHEM_COMPONENT_COUNT>  (1) 
1

>  <PUBCHEM_CACTVS_TAUTO_COUNT>  (1) 
1

>  <PUBCHEM_CONFORMER_ID>  (1) 
0000702300000002

>  <PUBCHEM_MMFF94_ENERGY>  (1) 
141.5327

>  <PUBCHEM_FEATURE_SELFOVERLAP>  (1) 
54.022

>  <PUBCHEM_SHAPE_FINGERPRINT>  (1) 
10391435 84 16805325479691472687
11115154 58 16559036000214028400
12013929 112 14979967960071901484
12120059 9 15647040574080369651
12133447 93 14979959142724926801
12144603 126 17632302288849553377
13692114 37 15213023730951186330
13726171 33 18129658729402360310
13782708 43 15936705800453723207
14359421 15 13985523555893725145
14904525 67 18265606602788099972
14918687 75 13045941322883991624
15152005 77 10737823406838219016
1577012 14 18130498695464816462
16728433 281 17774718774742081158
19304671 126 18060144280480141996
2026 5 7853585611992231568
21585481 104 16916799483137893572
21781055 127 17060338492808639350
23522609 53 17846780706412017973
25269216 80 17131262584351421175
2747138 104 17313391089028464845
3383291 50 16081383955557245403
3711267 37 17917434194058188745
397830 11 17385443202572188863
3986486 107 15267345132823023852
4149490 64 17531239527380113218
474113 269 11530476757220640304
504579 68 12319738047021859543
5109719 28 18407755933187516326
5937810 71 18131350846951689564
9831232 110 12751235922323777876

>  <PUBCHEM_SHAPE_MULTIPOLES>  (1) 
782.68
34.72
3.5
3.13
5.27
0.56
-1.09
22.18
-19.85
-10.74
-0.98
8.86
-0.22
-1.73

>  <PUBCHEM_SHAPE_SELFOVERLAP>  (1) 
1640.396

>  <PUBCHEM_SHAPE_VOLUME>  (1) 
432.4

>  <PUBCHEM_COORDINATE_TYPE>  (1) 
2
5
10

$$$$
