28700
     RDKit          3D

 15 14  0  0  0  0  0  0  0  0999 V2000
    4.0132    0.0551   -1.7366 Cl  0  0  0  0  0  0  0  0  0  0  0  0
    5.7730   -0.7503    0.7519 Cl  0  0  0  0  0  0  0  0  0  0  0  0
    0.7987   -0.3758   -0.0883 S   0  0  0  0  0  0  0  0  0  0  0  0
   -0.6036    1.8180    0.1104 O   0  0  0  0  0  0  0  0  0  0  0  0
   -1.8909   -0.1168    0.0164 N   0  0  0  0  0  0  0  0  0  0  0  0
   -1.9450   -1.5769   -0.0747 C   0  0  0  0  0  0  0  0  0  0  0  0
   -3.1884    0.5446    0.0872 C   0  0  0  0  0  0  0  0  0  0  0  0
   -2.6884   -2.0009   -1.3383 C   0  0  0  0  0  0  0  0  0  0  0  0
   -2.6195   -2.1390    1.1726 C   0  0  0  0  0  0  0  0  0  0  0  0
   -3.3693    1.4831   -1.1026 C   0  0  0  0  0  0  0  0  0  0  0  0
   -3.3003    1.3035    1.4057 C   0  0  0  0  0  0  0  0  0  0  0  0
   -0.6800    0.5936    0.0346 C   0  0  0  0  0  0  0  0  0  0  0  0
    2.0604    0.9151   -0.0260 C   0  0  0  0  0  0  0  0  0  0  0  0
    3.4328    0.3174   -0.1161 C   0  0  0  0  0  0  0  0  0  0  0  0
    4.2074   -0.0708    0.9039 C   0  0  0  0  0  0  0  0  0  0  0  0
  1 14  1  0
  2 15  1  0
  3 12  1  0
  3 13  1  0
  4 12  2  0
  5  6  1  0
  5  7  1  0
  5 12  1  0
  6  8  1  0
  6  9  1  0
  7 10  1  0
  7 11  1  0
 13 14  1  0
 14 15  2  0
M  END
>  <PUBCHEM_COMPOUND_CID>  (1) 
28700

>  <PUBCHEM_CONFORMER_RMSD>  (1) 
0.6

>  <PUBCHEM_CONFORMER_DIVERSEORDER>  (1) 
1
10
9
35
28
49
39
42
20
32
53
30
41
46
56
54
34
27
52
37
5
50
38
57
3
55
7
33
36
15
8
40
58
31
2
44
43
4
6
29
48
13
26
47
21
18
11
24
23
17
19
12
51
45
25
22
16
14

>  <PUBCHEM_MMFF94_PARTIAL_CHARGES>  (1) 
11
1 -0.14
12 0.77
13 0.37
15 -0.01
2 -0.14
3 -0.37
32 0.15
4 -0.57
5 -0.66
6 0.3
7 0.3

>  <PUBCHEM_EFFECTIVE_ROTOR_COUNT>  (1) 
6

>  <PUBCHEM_PHARMACOPHORE_FEATURES>  (1) 
2
3 6 8 9 hydrophobe
3 7 10 11 hydrophobe

>  <PUBCHEM_HEAVY_ATOM_COUNT>  (1) 
15

>  <PUBCHEM_ATOM_DEF_STEREO_COUNT>  (1) 
0

>  <PUBCHEM_ATOM_UDEF_STEREO_COUNT>  (1) 
0

>  <PUBCHEM_BOND_DEF_STEREO_COUNT>  (1) 
0

>  <PUBCHEM_BOND_UDEF_STEREO_COUNT>  (1) 
1

>  <PUBCHEM_ISOTOPIC_ATOM_COUNT>  (1) 
0

>  <PUBCHEM_COMPONENT_COUNT>  (1) 
1

>  <PUBCHEM_CACTVS_TAUTO_COUNT>  (1) 
1

>  <PUBCHEM_CONFORMER_ID>  (1) 
0000701C00000001

>  <PUBCHEM_MMFF94_ENERGY>  (1) 
29.4409

>  <PUBCHEM_FEATURE_SELFOVERLAP>  (1) 
10.149

>  <PUBCHEM_SHAPE_FINGERPRINT>  (1) 
10014705 185 18408877447389846509
10062212 137 18334853935367557074
11132069 177 18272371962341710388
11315181 36 18130781274728228288
11405975 8 18342739632988709784
12346177 29 18341606036025510991
124424 183 18342731918884547888
12616971 3 17458349632946291580
12932764 1 18113338630428116068
13167823 11 17676207983417723282
13296908 3 17988650730662281484
15375358 24 17704070673064417148
17834072 33 18040439902285622300
18186145 218 18410299129168126284
19050596 39 18334296466113853546
19422 9 17822013155103902602
19433438 15 17603305938474111924
20279233 1 17632859724491578070
20281475 54 17894914070307448550
20645477 56 18060423503849166073
20645477 70 15625948578200356612
21339142 126 18187639167888412044
21339142 149 17203610376602678185
22485316 2 18335134294074562520
23402539 116 18340474591437533348
23557571 272 17918270991342245178
23559900 14 18130518457463816252
23598291 2 17313107488043059326
312423 11 18189343531539398388
4175511 318 18334573521237070013
5104073 3 18410853300477200008
559249 180 18262225638833702946
573450 72 18409720764566296554
58051976 100 18113896061506531886
633830 44 16153709817157220008

>  <PUBCHEM_SHAPE_MULTIPOLES>  (1) 
305.43
10.18
1.94
1.37
13.6
0.64
0.26
0.84
-0.99
-2.62
-0.03
0.03
0.15
-0.44

>  <PUBCHEM_SHAPE_SELFOVERLAP>  (1) 
551.882

>  <PUBCHEM_SHAPE_VOLUME>  (1) 
198.9

>  <PUBCHEM_COORDINATE_TYPE>  (1) 
2
5
10

$$$$
