28717
     RDKit          3D

 10 10  0  0  1  0  0  0  0  0999 V2000
   -2.5206   -0.6333    0.3783 O   0  0  0  0  0  0  0  0  0  0  0  0
   -0.4911   -0.2884    0.0072 N   0  0  0  0  0  0  0  0  0  0  0  0
   -1.6242   -0.7775   -0.4589 N   0  0  0  0  0  0  0  0  0  0  0  0
   -0.3269    1.1480   -0.3409 C   0  0  0  0  0  0  0  0  0  0  0  0
    0.7086   -1.1066   -0.3192 C   0  0  0  0  0  0  0  0  0  0  0  0
    0.9604    1.7478    0.2511 C   0  0  0  0  0  0  0  0  0  0  0  0
    1.9986   -0.4967    0.2646 C   0  0  0  0  0  0  0  0  0  0  0  0
    2.1835    0.9489   -0.1559 C   0  0  0  0  0  0  0  0  0  0  0  0
   -1.5059    2.0080    0.1572 C   0  0  0  0  0  0  0  0  0  0  0  0
    0.6176   -2.5501    0.2165 C   0  0  0  0  0  0  0  0  0  0  0  0
  1  3  2  0
  2  3  1  0
  2  4  1  0
  2  5  1  0
  4  6  1  0
  4  9  1  0
  5  7  1  0
  5 10  1  0
  6  8  1  0
  7  8  1  0
M  END
>  <PUBCHEM_COMPOUND_CID>  (1) 
28717

>  <PUBCHEM_CONFORMER_RMSD>  (1) 
0.4

>  <PUBCHEM_CONFORMER_DIVERSEORDER>  (1) 
6
19
3
23
16
22
20
17
12
14
10
4
9
15
8
13
1
18
2
5
7
11
21

>  <PUBCHEM_MMFF94_PARTIAL_CHARGES>  (1) 
5
1 -0.16
2 -0.36
3 -0.01
4 0.27
5 0.27

>  <PUBCHEM_EFFECTIVE_ROTOR_COUNT>  (1) 
2.2

>  <PUBCHEM_PHARMACOPHORE_FEATURES>  (1) 
1
6 2 4 5 6 7 8 rings

>  <PUBCHEM_HEAVY_ATOM_COUNT>  (1) 
10

>  <PUBCHEM_ATOM_DEF_STEREO_COUNT>  (1) 
0

>  <PUBCHEM_ATOM_UDEF_STEREO_COUNT>  (1) 
2

>  <PUBCHEM_BOND_DEF_STEREO_COUNT>  (1) 
0

>  <PUBCHEM_BOND_UDEF_STEREO_COUNT>  (1) 
0

>  <PUBCHEM_ISOTOPIC_ATOM_COUNT>  (1) 
0

>  <PUBCHEM_COMPONENT_COUNT>  (1) 
1

>  <PUBCHEM_CACTVS_TAUTO_COUNT>  (1) 
1

>  <PUBCHEM_CONFORMER_ID>  (1) 
0000702D00000006

>  <PUBCHEM_MMFF94_ENERGY>  (1) 
10.7872

>  <PUBCHEM_FEATURE_SELFOVERLAP>  (1) 
5.074

>  <PUBCHEM_SHAPE_FINGERPRINT>  (1) 
12423570 1 16041987671775222404
16945 1 18267019642811663092
18185500 45 18122622760610191494
193761 8 18194119612197118516
21040471 1 17977946014134545956
23552423 10 18263087608694384302
241688 4 18121501250186299410
2748010 2 18338793425463458004
29004967 10 18188773979936451977
5084963 1 18131072653561841730
66348 1 17907578386542773408

>  <PUBCHEM_SHAPE_MULTIPOLES>  (1) 
189.96
2.75
2.5
0.67
0.59
0.28
-0.01
0.19
0.23
-0.27
0.14
-0.01
0
-0.05

>  <PUBCHEM_SHAPE_SELFOVERLAP>  (1) 
367.751

>  <PUBCHEM_SHAPE_VOLUME>  (1) 
116.7

>  <PUBCHEM_COORDINATE_TYPE>  (1) 
2
5
10

$$$$
