28728
     RDKit          3D

 19 20  0  0  0  0  0  0  0  0999 V2000
    3.9100   -2.9175    0.6853 Cl  0  0  0  0  0  0  0  0  0  0  0  0
   -2.0472   -2.9514   -1.7982 Cl  0  0  0  0  0  0  0  0  0  0  0  0
   -3.8366   -0.1634    2.2125 Cl  0  0  0  0  0  0  0  0  0  0  0  0
    0.5923    2.3197   -0.1563 S   0  0  0  0  0  0  0  0  0  0  0  0
    1.3992    3.2342   -0.9556 O   0  0  0  0  0  0  0  0  0  0  0  0
    0.0942    2.7704    1.1375 O   0  0  0  0  0  0  0  0  0  0  0  0
   -0.7265    1.7828   -1.1265 N   0  0  0  0  0  0  0  0  0  0  0  0
   -2.2047    0.8215    0.4389 N   0  0  0  0  0  0  0  0  0  0  0  0
   -1.3793   -0.4644   -1.4112 N   0  0  0  0  0  0  0  0  0  0  0  0
   -2.8820   -1.4646    0.1697 N   0  0  0  0  0  0  0  0  0  0  0  0
    1.5193    0.8592    0.0794 C   0  0  0  0  0  0  0  0  0  0  0  0
    2.5252    0.5181   -0.8245 C   0  0  0  0  0  0  0  0  0  0  0  0
    1.2528    0.0328    1.1711 C   0  0  0  0  0  0  0  0  0  0  0  0
   -1.4818    0.6462   -0.6727 C   0  0  0  0  0  0  0  0  0  0  0  0
    3.2647   -0.6496   -0.6369 C   0  0  0  0  0  0  0  0  0  0  0  0
    1.9924   -1.1350    1.3588 C   0  0  0  0  0  0  0  0  0  0  0  0
    2.9984   -1.4762    0.4549 C   0  0  0  0  0  0  0  0  0  0  0  0
   -2.1093   -1.4828   -0.9283 C   0  0  0  0  0  0  0  0  0  0  0  0
   -2.8813   -0.2801    0.8020 C   0  0  0  0  0  0  0  0  0  0  0  0
  1 17  1  0
  2 18  1  0
  3 19  1  0
  4  5  2  0
  4  6  2  0
  4  7  1  0
  4 11  1  0
  7 14  1  0
  8 14  2  0
  8 19  1  0
  9 14  1  0
  9 18  2  0
 10 18  1  0
 10 19  2  0
 11 12  2  0
 11 13  1  0
 12 15  1  0
 13 16  2  0
 15 17  2  0
 16 17  1  0
M  END
>  <PUBCHEM_COMPOUND_CID>  (1) 
28728

>  <PUBCHEM_CONFORMER_RMSD>  (1) 
0.6

>  <PUBCHEM_CONFORMER_DIVERSEORDER>  (1) 
1
14
2
7
9
16
3
6
4
17
11
15
8
5
10
12
13

>  <PUBCHEM_MMFF94_PARTIAL_CHARGES>  (1) 
24
1 -0.18
10 -0.62
11 -0.01
12 -0.15
13 -0.15
14 0.82
15 -0.15
16 -0.15
17 0.18
18 0.8
19 0.8
2 -0.18
20 0.42
21 0.15
22 0.15
23 0.15
24 0.15
3 -0.18
4 1.45
5 -0.65
6 -0.65
7 -0.76
8 -0.62
9 -0.62

>  <PUBCHEM_EFFECTIVE_ROTOR_COUNT>  (1) 
3

>  <PUBCHEM_PHARMACOPHORE_FEATURES>  (1) 
7
1 5 acceptor
1 6 acceptor
1 7 donor
3 8 10 19 cation
3 9 10 18 cation
6 11 12 13 15 16 17 rings
6 8 9 10 14 18 19 rings

>  <PUBCHEM_HEAVY_ATOM_COUNT>  (1) 
19

>  <PUBCHEM_ATOM_DEF_STEREO_COUNT>  (1) 
0

>  <PUBCHEM_ATOM_UDEF_STEREO_COUNT>  (1) 
0

>  <PUBCHEM_BOND_DEF_STEREO_COUNT>  (1) 
0

>  <PUBCHEM_BOND_UDEF_STEREO_COUNT>  (1) 
0

>  <PUBCHEM_ISOTOPIC_ATOM_COUNT>  (1) 
0

>  <PUBCHEM_COMPONENT_COUNT>  (1) 
1

>  <PUBCHEM_CACTVS_TAUTO_COUNT>  (1) 
3

>  <PUBCHEM_CONFORMER_ID>  (1) 
0000703800000001

>  <PUBCHEM_MMFF94_ENERGY>  (1) 
31.8794

>  <PUBCHEM_FEATURE_SELFOVERLAP>  (1) 
36.463

>  <PUBCHEM_SHAPE_FINGERPRINT>  (1) 
107951 10 17032194073805912695
11578080 2 18199163205305230161
11725454 13 14476121043215420995
12403259 327 16558462011298285795
12553582 1 18409730647191332830
12596599 1 18200595911726027102
12633257 1 17131260260610635266
13533116 47 18193851564164401827
13583140 156 17904782307942729371
15276787 5 16487260928191056482
15375462 189 18336558178311280632
16752209 62 17831558904165260060
16945 1 18115304613163826844
17349148 13 17632016442492342831
17492 54 10954613078718231779
18522851 12 18411425024526800734
20291156 8 18335423418018872602
20361792 2 18336536166482458966
20645477 70 18043801203283047895
21634736 98 18188215278407462310
21713013 43 16443071577498985291
21731516 1 18409440405885430806
22445834 79 18125728026471163397
23419403 2 13708717052648544288
23598288 3 18044659689635277060
23598291 2 18127422356551415749
23728640 28 17764001602666879218
238 59 17680124550677650959
465052 167 18336563667902139979
6992083 37 18201436961006939275
7097593 13 18270970153667194435
81228 2 17904456551120616520
90525 40 17615118893765771980

>  <PUBCHEM_SHAPE_MULTIPOLES>  (1) 
368.81
6.17
3.4
1.72
0.66
0.59
0.28
-4.59
2.18
1.1
-1.03
-1.26
-0.51
-1.5

>  <PUBCHEM_SHAPE_SELFOVERLAP>  (1) 
745.867

>  <PUBCHEM_SHAPE_VOLUME>  (1) 
218

>  <PUBCHEM_COORDINATE_TYPE>  (1) 
2
5
10

$$$$
