28737
     RDKit          3D

 28 30  0  0  0  0  0  0  0  0999 V2000
    4.8133   -2.1585   -1.6511 Cl  0  0  0  0  0  0  0  0  0  0  0  0
   -0.8810    1.6779    1.6904 O   0  0  0  0  0  0  0  0  0  0  0  0
   -4.9780   -2.3602    0.5073 O   0  0  0  0  0  0  0  0  0  0  0  0
   -5.0094    2.1163   -1.1956 O   0  0  0  0  0  0  0  0  0  0  0  0
   -6.2520   -0.3415   -0.8974 O   0  0  0  0  0  0  0  0  0  0  0  0
    1.1409   -0.1607    1.3576 N   0  0  0  0  0  0  0  0  0  0  0  0
    3.7673   -0.0083    0.2449 N   0  0  0  0  0  0  0  0  0  0  0  0
    1.3612    0.4858    0.0583 C   0  0  0  0  0  0  0  0  0  0  0  0
    2.0853   -1.2717    1.5291 C   0  0  0  0  0  0  0  0  0  0  0  0
    2.7844    1.0397   -0.0465 C   0  0  0  0  0  0  0  0  0  0  0  0
    3.5321   -0.7758    1.4744 C   0  0  0  0  0  0  0  0  0  0  0  0
   -0.2372   -0.6378    1.4663 C   0  0  0  0  0  0  0  0  0  0  0  0
    5.0868    0.1349   -0.1985 C   0  0  0  0  0  0  0  0  0  0  0  0
   -1.1828    0.5419    1.3308 C   0  0  0  0  0  0  0  0  0  0  0  0
    5.6937   -0.7877   -1.0769 C   0  0  0  0  0  0  0  0  0  0  0  0
    5.8558    1.2343    0.2354 C   0  0  0  0  0  0  0  0  0  0  0  0
   -2.5322    0.3060    0.7362 C   0  0  0  0  0  0  0  0  0  0  0  0
    7.0113   -0.6175   -1.5018 C   0  0  0  0  0  0  0  0  0  0  0  0
    7.1735    1.4044   -0.1896 C   0  0  0  0  0  0  0  0  0  0  0  0
   -3.1350    1.3314    0.0450 C   0  0  0  0  0  0  0  0  0  0  0  0
   -3.1198   -0.9264    0.9047 C   0  0  0  0  0  0  0  0  0  0  0  0
    7.7513    0.4786   -1.0581 C   0  0  0  0  0  0  0  0  0  0  0  0
   -4.3811   -1.1457    0.3508 C   0  0  0  0  0  0  0  0  0  0  0  0
   -4.3963    1.1121   -0.5086 C   0  0  0  0  0  0  0  0  0  0  0  0
   -5.0193   -0.1264   -0.3559 C   0  0  0  0  0  0  0  0  0  0  0  0
   -4.7192   -3.3432   -0.4931 C   0  0  0  0  0  0  0  0  0  0  0  0
   -5.8426    2.9990   -0.4469 C   0  0  0  0  0  0  0  0  0  0  0  0
   -6.3711   -0.2008   -2.3111 C   0  0  0  0  0  0  0  0  0  0  0  0
  1 15  1  0
  2 14  2  0
  3 23  1  0
  3 26  1  0
  4 24  1  0
  4 27  1  0
  5 25  1  0
  5 28  1  0
  6  8  1  0
  6  9  1  0
  6 12  1  0
  7 10  1  0
  7 11  1  0
  7 13  1  0
  8 10  1  0
  9 11  1  0
 12 14  1  0
 13 15  2  0
 13 16  1  0
 14 17  1  0
 15 18  1  0
 16 19  2  0
 17 20  2  0
 17 21  1  0
 18 22  2  0
 19 22  1  0
 20 24  1  0
 21 23  2  0
 23 25  1  0
 24 25  2  0
M  END
>  <PUBCHEM_COMPOUND_CID>  (1) 
28737

>  <PUBCHEM_CONFORMER_RMSD>  (1) 
1

>  <PUBCHEM_CONFORMER_DIVERSEORDER>  (1) 
1
71
81
8
20
68
73
44
52
33
39
116
29
94
24
103
50
58
120
87
96
97
11
66
84
57
65
121
17
38
107
61
51
101
119
76
106
46
75
37
53
22
92
72
40
95
82
47
93
36
56
110
32
59
48
30
90
117
98
31
79
99
91
60
43
54
26
42
18
62
100
45
86
27
41
23
34
3
25
113
85
16
6
112
105
63
28
80
64
2
15
118
74
115
35
104
108
102
9
10
78
4
88
13
19
49
89
67
83
77
69
109
111
70
114
21
12
5
7
55
14

>  <PUBCHEM_MMFF94_PARTIAL_CHARGES>  (1) 
34
1 -0.18
10 0.37
11 0.37
12 0.33
13 0.1
14 0.42
15 0.18
16 -0.15
17 0.09
18 -0.15
19 -0.15
2 -0.57
20 -0.15
21 -0.15
22 -0.15
23 0.08
24 0.08
25 0.08
26 0.28
27 0.28
28 0.28
3 -0.36
39 0.15
4 -0.36
40 0.15
41 0.15
42 0.15
43 0.15
44 0.15
5 -0.36
6 -0.81
7 -0.84
8 0.27
9 0.27

>  <PUBCHEM_EFFECTIVE_ROTOR_COUNT>  (1) 
8.2

>  <PUBCHEM_PHARMACOPHORE_FEATURES>  (1) 
9
1 2 acceptor
1 3 acceptor
1 4 acceptor
1 5 acceptor
1 6 cation
1 7 cation
6 13 15 16 18 19 22 rings
6 17 20 21 23 24 25 rings
6 6 7 8 9 10 11 rings

>  <PUBCHEM_HEAVY_ATOM_COUNT>  (1) 
28

>  <PUBCHEM_ATOM_DEF_STEREO_COUNT>  (1) 
0

>  <PUBCHEM_ATOM_UDEF_STEREO_COUNT>  (1) 
0

>  <PUBCHEM_BOND_DEF_STEREO_COUNT>  (1) 
0

>  <PUBCHEM_BOND_UDEF_STEREO_COUNT>  (1) 
0

>  <PUBCHEM_ISOTOPIC_ATOM_COUNT>  (1) 
0

>  <PUBCHEM_COMPONENT_COUNT>  (1) 
1

>  <PUBCHEM_CACTVS_TAUTO_COUNT>  (1) 
2

>  <PUBCHEM_CONFORMER_ID>  (1) 
0000704100000001

>  <PUBCHEM_MMFF94_ENERGY>  (1) 
124.0004

>  <PUBCHEM_FEATURE_SELFOVERLAP>  (1) 
45.684

>  <PUBCHEM_SHAPE_FINGERPRINT>  (1) 
10 15 11386374737620047976
10076449 9 18114463457780019259
10299344 5 14261355777924982016
10554248 39 16081081576843296938
10906281 52 16371020572394212648
11089746 13 17313106388916598532
11456790 92 8357981006200841174
13673619 4 14836119949121015296
13690498 29 18339075021190311487
13782708 43 15769775732699622424
14528608 73 18040999553271520322
15064981 194 17749119924208681813
15183329 4 18040712554465908264
15188451 53 11383818356127418649
15352257 5 17060339643036689086
1577012 14 18040991796497676289
17780758 139 11312060941812169323
18681886 176 18339641252260837872
19841028 212 13613364097875440821
20281389 69 12540695946583778630
20567600 247 17274825731770031446
21150785 3 18201719561628837988
21298829 104 17603587391839336324
22122407 14 13984674641646114524
22393880 68 18408600374748930529
23081809 10 17458058266438287730
23516275 100 18190171481451503964
23559900 14 18342453789518744745
24771293 8 17967535722897032108
2748736 6 16081090394120641230
2767999 5 16587742049369977632
2838139 119 16153707643555589484
3103668 31 17899140691457877499
328310 630 16153718634329284438
34797466 226 18413392055155345384
3663271 9 11024104339818815862
4169191 19 15502384469343734158
44880568 143 18410299107841541972
465052 167 14692572113893991824
484985 159 15554440856298980767
504843 32 15502665939329256386
5104073 3 11815889080955347218
543368 44 17385441016781864529
6608658 132 17822004273069778845

>  <PUBCHEM_SHAPE_MULTIPOLES>  (1) 
544.66
22.08
2.44
1.69
14.73
0.62
0.16
-1.63
12.5
-3.92
0.48
-0.19
0.34
1.21

>  <PUBCHEM_SHAPE_SELFOVERLAP>  (1) 
1144.581

>  <PUBCHEM_SHAPE_VOLUME>  (1) 
309.6

>  <PUBCHEM_COORDINATE_TYPE>  (1) 
2
5
10

$$$$
