28736
     RDKit          3D

 29 31  0  0  0  0  0  0  0  0999 V2000
    1.6546    1.5228   -3.1401 O   0  0  0  0  0  0  0  0  0  0  0  0
    3.9445   -2.6648   -1.4689 O   0  0  0  0  0  0  0  0  0  0  0  0
    4.5419    0.6825    1.9043 O   0  0  0  0  0  0  0  0  0  0  0  0
    5.0814   -1.8507    0.9219 O   0  0  0  0  0  0  0  0  0  0  0  0
   -2.5942    1.2254    0.8555 N   0  0  0  0  0  0  0  0  0  0  0  0
    0.0038    1.9140   -0.2099 N   0  0  0  0  0  0  0  0  0  0  0  0
   -1.6836    2.1175    1.5838 C   0  0  0  0  0  0  0  0  0  0  0  0
   -1.8338    0.2798    0.0292 C   0  0  0  0  0  0  0  0  0  0  0  0
   -0.7565    2.8603    0.6157 C   0  0  0  0  0  0  0  0  0  0  0  0
   -0.9076    1.0236   -0.9392 C   0  0  0  0  0  0  0  0  0  0  0  0
   -3.4750    0.5148    1.7805 C   0  0  0  0  0  0  0  0  0  0  0  0
    0.8861    2.6236   -1.1339 C   0  0  0  0  0  0  0  0  0  0  0  0
   -4.4676   -0.3535    1.0544 C   0  0  0  0  0  0  0  0  0  0  0  0
    1.7039    1.6113   -1.9151 C   0  0  0  0  0  0  0  0  0  0  0  0
   -5.1414    0.1532   -0.0477 C   0  0  0  0  0  0  0  0  0  0  0  0
   -4.6945   -1.6487    1.4982 C   0  0  0  0  0  0  0  0  0  0  0  0
    2.6022    0.6886   -1.1590 C   0  0  0  0  0  0  0  0  0  0  0  0
   -6.0610   -0.6518   -0.7202 C   0  0  0  0  0  0  0  0  0  0  0  0
   -5.6140   -2.4538    0.8258 C   0  0  0  0  0  0  0  0  0  0  0  0
   -6.2972   -1.9553   -0.2834 C   0  0  0  0  0  0  0  0  0  0  0  0
    3.1493    1.1267    0.0249 C   0  0  0  0  0  0  0  0  0  0  0  0
    2.8488   -0.5617   -1.6769 C   0  0  0  0  0  0  0  0  0  0  0  0
   -6.7917   -0.1192   -1.9060 C   0  0  0  0  0  0  0  0  0  0  0  0
    3.6895   -1.4225   -0.9712 C   0  0  0  0  0  0  0  0  0  0  0  0
    3.9901    0.2658    0.7304 C   0  0  0  0  0  0  0  0  0  0  0  0
    4.2602   -1.0088    0.2325 C   0  0  0  0  0  0  0  0  0  0  0  0
    3.0643   -3.7148   -1.0729 C   0  0  0  0  0  0  0  0  0  0  0  0
    4.2145    1.9995    2.3427 C   0  0  0  0  0  0  0  0  0  0  0  0
    4.6830   -2.2039    2.2446 C   0  0  0  0  0  0  0  0  0  0  0  0
  1 14  2  0
  2 24  1  0
  2 27  1  0
  3 25  1  0
  3 28  1  0
  4 26  1  0
  4 29  1  0
  5  7  1  0
  5  8  1  0
  5 11  1  0
  6  9  1  0
  6 10  1  0
  6 12  1  0
  7  9  1  0
  8 10  1  0
 11 13  1  0
 12 14  1  0
 13 15  2  0
 13 16  1  0
 14 17  1  0
 15 18  1  0
 16 19  2  0
 17 21  2  0
 17 22  1  0
 18 20  2  0
 18 23  1  0
 19 20  1  0
 21 25  1  0
 22 24  2  0
 24 26  1  0
 25 26  2  0
M  END
>  <PUBCHEM_COMPOUND_CID>  (1) 
28736

>  <PUBCHEM_CONFORMER_RMSD>  (1) 
1.2

>  <PUBCHEM_CONFORMER_DIVERSEORDER>  (1) 
6
59
95
2
53
42
75
81
13
9
17
32
88
49
74
60
50
78
63
67
61
65
24
55
73
48
68
62
86
70
93
76
10
45
52
94
36
54
31
83
87
105
37
1
41
100
46
47
101
7
51
77
28
8
69
103
90
82
91
71
20
30
106
16
58
3
34
44
66
26
35
64
19
85
40
27
98
79
80
23
29
5
21
72
22
96
56
43
39
4
25
107
18
12
84
89
33
97
57
92
38
14
15
11
104
102
99

>  <PUBCHEM_MMFF94_PARTIAL_CHARGES>  (1) 
35
1 -0.57
10 0.27
11 0.41
12 0.33
13 -0.14
14 0.42
15 -0.15
16 -0.15
17 0.09
18 -0.14
19 -0.15
2 -0.36
20 -0.15
21 -0.15
22 -0.15
23 0.14
24 0.08
25 0.08
26 0.08
27 0.28
28 0.28
29 0.28
3 -0.36
4 -0.36
42 0.15
43 0.15
44 0.15
45 0.15
46 0.15
47 0.15
5 -0.81
6 -0.81
7 0.27
8 0.27
9 0.27

>  <PUBCHEM_EFFECTIVE_ROTOR_COUNT>  (1) 
9.2

>  <PUBCHEM_PHARMACOPHORE_FEATURES>  (1) 
9
1 1 acceptor
1 2 acceptor
1 3 acceptor
1 4 acceptor
1 5 cation
1 6 cation
6 13 15 16 18 19 20 rings
6 17 21 22 24 25 26 rings
6 5 6 7 8 9 10 rings

>  <PUBCHEM_HEAVY_ATOM_COUNT>  (1) 
29

>  <PUBCHEM_ATOM_DEF_STEREO_COUNT>  (1) 
0

>  <PUBCHEM_ATOM_UDEF_STEREO_COUNT>  (1) 
0

>  <PUBCHEM_BOND_DEF_STEREO_COUNT>  (1) 
0

>  <PUBCHEM_BOND_UDEF_STEREO_COUNT>  (1) 
0

>  <PUBCHEM_ISOTOPIC_ATOM_COUNT>  (1) 
0

>  <PUBCHEM_COMPONENT_COUNT>  (1) 
1

>  <PUBCHEM_CACTVS_TAUTO_COUNT>  (1) 
2

>  <PUBCHEM_CONFORMER_ID>  (1) 
0000704000000006

>  <PUBCHEM_MMFF94_ENERGY>  (1) 
112.6972

>  <PUBCHEM_FEATURE_SELFOVERLAP>  (1) 
45.683

>  <PUBCHEM_SHAPE_FINGERPRINT>  (1) 
10042902 136 18122929550419830414
11070050 100 14261355734526760924
11135609 201 16844426402229200760
11796584 16 17895193342060869169
13533116 47 18130791144030343927
13583140 156 17845084070161635628
13627167 48 11025795366895871679
13692114 37 17698173846672645817
13782708 43 17916881097202726358
13828863 39 11959722785690768113
14251740 57 18272381849277727134
14251751 18 18260263088309130885
14251764 75 11311765194211053202
14429115 67 18409730664049143313
14537116 161 13190613997472437663
14848178 5 18410579504769943473
14950920 106 16988007072180910147
15183329 4 17095237030301491341
15188451 53 18413102836405152571
15684389 69 16127230390194608497
17349148 13 18340223950436878085
18222031 100 18261401022302900076
19315092 285 18339071597810655706
19377110 9 14979953692575347685
19752476 56 8646479670904185046
20465049 17 9943541738206355544
20775530 9 17975998478484189002
21315764 21 12757152364053853512
21458453 9 15840693248948725523
23572383 38 18410574011428079579
3004659 81 18040723609780254645
312425 83 16733839743005251965
4339292 15 17750788858564641978
437795 70 16081360813883064207
4394409 98 17240472590303123579
57307002 182 16987694918701008976
6081469 158 11819531755443626720
613672 6 18408608071594029923
6443934 186 15769775805613846233
8988823 20 18131064974055308633
960060 61 16008755731283395422

>  <PUBCHEM_SHAPE_MULTIPOLES>  (1) 
563.37
15.88
3.44
2.42
19.07
1.38
-0.21
11.07
2.15
-2.65
-0.03
-1.74
-0.46
0.52

>  <PUBCHEM_SHAPE_SELFOVERLAP>  (1) 
1189.822

>  <PUBCHEM_SHAPE_VOLUME>  (1) 
318.3

>  <PUBCHEM_COORDINATE_TYPE>  (1) 
2
5
10

$$$$
