2873
     RDKit          3D

 30 33  0  0  1  0  0  0  0  0999 V2000
   -8.2566    0.3723    1.0069 Cl  0  0  0  0  0  0  0  0  0  0  0  0
    1.2941    1.3476    2.1938 O   0  0  0  0  0  0  0  0  0  0  0  0
    7.1280    2.6484   -0.5284 O   0  0  0  0  0  0  0  0  0  0  0  0
    5.2329    3.4000   -1.5146 O   0  0  0  0  0  0  0  0  0  0  0  0
   -0.0598    1.0433   -1.3611 O   0  0  0  0  0  0  0  0  0  0  0  0
    3.1189    1.2486    0.8040 N   0  0  0  0  0  0  0  0  0  0  0  0
   -0.0520   -0.2129    0.5620 N   0  0  0  0  0  0  0  0  0  0  0  0
   -2.9355    1.2911   -1.2227 N   0  0  0  0  0  0  0  0  0  0  0  0
    5.0481    1.7548    0.3479 C   0  0  0  0  0  0  0  0  0  0  0  0
    3.9242    2.3962    1.1703 C   0  0  0  0  0  0  0  0  0  0  0  0
    4.0117    0.7897   -0.2405 C   0  0  0  0  0  0  0  0  0  0  0  0
    1.9128    0.8112    1.2760 C   0  0  0  0  0  0  0  0  0  0  0  0
    1.3796   -0.4116    0.5786 C   0  0  0  0  0  0  0  0  0  0  0  0
    5.7740    2.6894   -0.6708 C   0  0  0  0  0  0  0  0  0  0  0  0
    1.7892   -1.6801    1.3250 C   0  0  0  0  0  0  0  0  0  0  0  0
    1.6764   -2.9182    0.4698 C   0  0  0  0  0  0  0  0  0  0  0  0
   -0.7270    0.5252   -0.4333 C   0  0  0  0  0  0  0  0  0  0  0  0
   -2.1497    0.6094   -0.3326 C   0  0  0  0  0  0  0  0  0  0  0  0
    0.4850   -3.6268    0.4532 C   0  0  0  0  0  0  0  0  0  0  0  0
    2.7658   -3.3252   -0.2848 C   0  0  0  0  0  0  0  0  0  0  0  0
   -2.9724    0.0577    0.6224 C   0  0  0  0  0  0  0  0  0  0  0  0
   -4.3109    0.4179    0.3012 C   0  0  0  0  0  0  0  0  0  0  0  0
   -4.2599    1.1913   -0.8604 C   0  0  0  0  0  0  0  0  0  0  0  0
    0.3805   -4.7712   -0.3374 C   0  0  0  0  0  0  0  0  0  0  0  0
    2.6609   -4.4696   -1.0755 C   0  0  0  0  0  0  0  0  0  0  0  0
   -5.5651    0.1591    0.8890 C   0  0  0  0  0  0  0  0  0  0  0  0
   -5.4049    1.7208   -1.4660 C   0  0  0  0  0  0  0  0  0  0  0  0
    1.4684   -5.1925   -1.1017 C   0  0  0  0  0  0  0  0  0  0  0  0
   -6.7189    0.6827    0.2946 C   0  0  0  0  0  0  0  0  0  0  0  0
   -6.6378    1.4514   -0.8649 C   0  0  0  0  0  0  0  0  0  0  0  0
  1 29  1  0
  2 12  2  0
  3 14  1  0
  4 14  2  0
  5 17  2  0
  6 10  1  0
  6 11  1  0
  6 12  1  0
  7 13  1  0
  7 17  1  0
  8 18  1  0
  8 23  1  0
  9 10  1  0
  9 11  1  0
  9 14  1  0
 12 13  1  0
 13 15  1  0
 15 16  1  0
 16 19  2  0
 16 20  1  0
 17 18  1  0
 18 21  2  0
 19 24  1  0
 20 25  2  0
 21 22  1  0
 22 23  2  0
 22 26  1  0
 23 27  1  0
 24 28  2  0
 25 28  1  0
 26 29  2  0
 27 30  2  0
 29 30  1  0
M  END
>  <PUBCHEM_COMPOUND_CID>  (1) 
2873

>  <PUBCHEM_CONFORMER_RMSD>  (1) 
1

>  <PUBCHEM_CONFORMER_DIVERSEORDER>  (1) 
1
109
119
45
104
81
73
60
122
69
75
91
54
25
98
103
102
92
63
106
66
44
30
28
101
42
118
49
46
61
79
78
96
83
120
87
99
57
85
72
43
77
38
116
82
13
50
123
34
76
47
18
111
41
11
68
51
113
27
14
53
8
70
65
52
107
6
84
115
93
94
121
33
23
39
55
37
5
21
64
67
110
36
35
86
9
108
10
89
15
59
24
26
71
62
19
90
31
7
29
88
112
2
97
22
20
4
40
74
117
12
114
56
16
48
80
32
95
3
58
105
17
100

>  <PUBCHEM_MMFF94_PARTIAL_CHARGES>  (1) 
41
1 -0.18
10 0.22
11 0.22
12 0.57
13 0.36
14 0.67
15 0.14
16 -0.14
17 0.71
18 -0.24
19 -0.15
2 -0.57
20 -0.15
21 -0.15
23 -0.15
24 -0.15
25 -0.15
26 -0.15
27 -0.15
28 -0.15
29 0.18
3 -0.65
30 -0.15
39 0.37
4 -0.57
40 0.5
41 0.15
42 0.15
43 0.15
44 0.27
45 0.15
46 0.15
47 0.15
48 0.15
49 0.15
5 -0.57
50 0.15
6 -0.51
7 -0.73
8 0.03
9 0.05

>  <PUBCHEM_EFFECTIVE_ROTOR_COUNT>  (1) 
8.8

>  <PUBCHEM_PHARMACOPHORE_FEATURES>  (1) 
12
1 2 acceptor
1 3 acceptor
1 4 acceptor
1 5 acceptor
1 7 donor
1 8 cation
1 8 donor
3 3 4 14 anion
4 6 9 10 11 rings
5 8 18 21 22 23 rings
6 16 19 20 24 25 28 rings
6 22 23 26 27 29 30 rings

>  <PUBCHEM_HEAVY_ATOM_COUNT>  (1) 
30

>  <PUBCHEM_ATOM_DEF_STEREO_COUNT>  (1) 
0

>  <PUBCHEM_ATOM_UDEF_STEREO_COUNT>  (1) 
1

>  <PUBCHEM_BOND_DEF_STEREO_COUNT>  (1) 
0

>  <PUBCHEM_BOND_UDEF_STEREO_COUNT>  (1) 
0

>  <PUBCHEM_ISOTOPIC_ATOM_COUNT>  (1) 
0

>  <PUBCHEM_COMPONENT_COUNT>  (1) 
1

>  <PUBCHEM_CACTVS_TAUTO_COUNT>  (1) 
3

>  <PUBCHEM_CONFORMER_ID>  (1) 
00000B3900000001

>  <PUBCHEM_MMFF94_ENERGY>  (1) 
63.9826

>  <PUBCHEM_FEATURE_SELFOVERLAP>  (1) 
61.048

>  <PUBCHEM_SHAPE_FINGERPRINT>  (1) 
10165383 225 18409731798427320944
10190206 1 18050555533077118590
10319688 140 18268994189343676511
10369192 42 18187644751620327340
10815517 723 17694508443666205039
11181472 205 18200031713171973337
11991303 11 18263648540482889286
12107183 9 17410500879934063889
12730499 353 18409729547484117187
12895836 83 18190742132164163632
12895837 130 17535759825978318308
13008946 62 17973752421020914269
13533116 47 18201151045777615947
13757389 114 18118974834765052996
13955234 65 18270954648687848995
14068700 686 18188205408145874885
14294032 229 18192436496350504906
15183329 4 15913336800795425752
15357212 105 18193286187201659829
15392192 104 18336551599360315731
15927050 60 18271803566465574207
17980427 23 17241327017910887551
19315958 150 18409738331879056915
19319366 153 18273206491656811974
1979834 28 18335134276341026209
20505436 4 17846777429889833813
20578428 11 18271534113075301871
21033648 29 18197206160623095072
21365058 27 18340493364623396726
21716022 299 17915191113607856198
21781055 127 18272935999676674280
23559900 14 17969510299471353047
239999 70 18188765029314687587
24771750 20 18411145723178393990
27425 322 18199467847451248924
3178227 256 18337948987886288618
3411729 13 18260263032057896514
38695281 34 18335984254874686836
4144715 1 18189621549896383849
437795 51 18411145696896796094
4461854 278 18048896361958536379
46194498 28 18263076609230476135
5265222 85 18194406829534950649
54076057 127 18341621395361623347
563151 40 18200029680570650887
6025842 7 18341324500988115523
6669772 16 18343025497580454078
9658208 31 18126276678731937344

>  <PUBCHEM_SHAPE_MULTIPOLES>  (1) 
580.84
17.05
5.83
1.43
24.46
9.84
0.08
-17.35
-1.22
-12.4
-2.18
0.03
-0.46
0.77

>  <PUBCHEM_SHAPE_SELFOVERLAP>  (1) 
1253.884

>  <PUBCHEM_SHAPE_VOLUME>  (1) 
319.8

>  <PUBCHEM_COORDINATE_TYPE>  (1) 
2
5
10

$$$$
