28732
     RDKit          3D

 24 25  0  0  1  0  0  0  0  0999 V2000
   -6.3797    1.3905   -0.8309 F   0  0  0  0  0  0  0  0  0  0  0  0
    3.5107    0.1776   -0.1593 O   0  0  0  0  0  0  0  0  0  0  0  0
    1.2057   -2.3364   -0.4477 O   0  0  0  0  0  0  0  0  0  0  0  0
    4.8563   -2.2455   -0.4163 O   0  0  0  0  0  0  0  0  0  0  0  0
   -2.0867   -1.6464    0.7470 O   0  0  0  0  0  0  0  0  0  0  0  0
    0.4069   -1.9724    1.6873 O   0  0  0  0  0  0  0  0  0  0  0  0
    3.5482   -2.0803   -0.9686 C   0  0  0  0  0  0  0  0  0  0  0  0
    3.3752   -0.6124   -1.3360 C   0  0  0  0  0  0  0  0  0  0  0  0
    2.5203   -2.5204    0.0675 C   0  0  0  0  0  0  0  0  0  0  0  0
    2.8205    1.3600   -0.1286 C   0  0  0  0  0  0  0  0  0  0  0  0
    2.3681    1.8829    1.0788 C   0  0  0  0  0  0  0  0  0  0  0  0
    2.5787    2.0310   -1.3236 C   0  0  0  0  0  0  0  0  0  0  0  0
    1.6670    3.0888    1.0914 C   0  0  0  0  0  0  0  0  0  0  0  0
    2.6214    1.1723    2.3673 C   0  0  0  0  0  0  0  0  0  0  0  0
    1.8777    3.2369   -1.3107 C   0  0  0  0  0  0  0  0  0  0  0  0
    1.4219    3.7657   -0.1034 C   0  0  0  0  0  0  0  0  0  0  0  0
    0.2358   -2.0660    0.4793 C   0  0  0  0  0  0  0  0  0  0  0  0
   -1.0875   -1.9001   -0.2202 C   0  0  0  0  0  0  0  0  0  0  0  0
   -3.1613   -0.8867    0.3521 C   0  0  0  0  0  0  0  0  0  0  0  0
   -3.5762   -0.9240   -0.9722 C   0  0  0  0  0  0  0  0  0  0  0  0
   -3.8166   -0.0921    1.2832 C   0  0  0  0  0  0  0  0  0  0  0  0
   -4.6668   -0.1523   -1.3730 C   0  0  0  0  0  0  0  0  0  0  0  0
   -4.9072    0.6797    0.8824 C   0  0  0  0  0  0  0  0  0  0  0  0
   -5.3324    0.6496   -0.4458 C   0  0  0  0  0  0  0  0  0  0  0  0
  1 24  1  0
  2  8  1  0
  2 10  1  0
  3  9  1  0
  3 17  1  0
  4  7  1  0
  5 18  1  0
  5 19  1  0
  6 17  2  0
  7  8  1  0
  7  9  1  0
 10 11  2  0
 10 12  1  0
 11 13  1  0
 11 14  1  0
 12 15  2  0
 13 16  2  0
 15 16  1  0
 17 18  1  0
 19 20  2  0
 19 21  1  0
 20 22  1  0
 21 23  2  0
 22 24  2  0
 23 24  1  0
M  END
>  <PUBCHEM_COMPOUND_CID>  (1) 
28732

>  <PUBCHEM_CONFORMER_RMSD>  (1) 
1.2

>  <PUBCHEM_CONFORMER_DIVERSEORDER>  (1) 
6
139
21
25
8
76
17
49
174
156
104
163
128
10
155
87
150
175
47
102
162
117
27
168
16
126
43
4
132
24
34
38
1
171
9
159
3
147
44
166
124
7
112
39
2
129
46
161
160
42
136
164
93
114
118
170
153
109
123
96
73
14
80
70
144
95
30
26
60
69
83
77
90
103
154
75
66
167
48
130
91
45
28
84
79
59
143
135
120
12
151
35
101
100
82
138
53
58
116
106
31
64
32
33
108
119
71
134
61
98
89
65
36
165
78
149
20
62
113
15
97
127
67
68
152
122
137
148
141
19
86
57
92
11
169
173
125
99
88
13
81
74
145
146
52
55
157
94
133
51
23
107
142
56
29
85
63
5
115
140
105
131
41
37
22
111
158
54
40
72
172
18
121
50
110

>  <PUBCHEM_MMFF94_PARTIAL_CHARGES>  (1) 
33
1 -0.19
10 0.08
11 -0.14
12 -0.15
13 -0.15
14 0.14
15 -0.15
16 -0.15
17 0.66
18 0.34
19 0.08
2 -0.36
20 -0.15
21 -0.15
22 -0.15
23 -0.15
24 0.19
3 -0.43
30 0.15
31 0.15
32 0.4
36 0.15
37 0.15
4 -0.68
40 0.15
41 0.15
42 0.15
43 0.15
5 -0.36
6 -0.57
7 0.28
8 0.28
9 0.28

>  <PUBCHEM_EFFECTIVE_ROTOR_COUNT>  (1) 
9

>  <PUBCHEM_PHARMACOPHORE_FEATURES>  (1) 
7
1 2 acceptor
1 4 acceptor
1 4 donor
1 5 acceptor
1 6 acceptor
6 10 11 12 13 15 16 rings
6 19 20 21 22 23 24 rings

>  <PUBCHEM_HEAVY_ATOM_COUNT>  (1) 
24

>  <PUBCHEM_ATOM_DEF_STEREO_COUNT>  (1) 
0

>  <PUBCHEM_ATOM_UDEF_STEREO_COUNT>  (1) 
1

>  <PUBCHEM_BOND_DEF_STEREO_COUNT>  (1) 
0

>  <PUBCHEM_BOND_UDEF_STEREO_COUNT>  (1) 
0

>  <PUBCHEM_ISOTOPIC_ATOM_COUNT>  (1) 
0

>  <PUBCHEM_COMPONENT_COUNT>  (1) 
1

>  <PUBCHEM_CACTVS_TAUTO_COUNT>  (1) 
1

>  <PUBCHEM_CONFORMER_ID>  (1) 
0000703C00000006

>  <PUBCHEM_MMFF94_ENERGY>  (1) 
68.4117

>  <PUBCHEM_FEATURE_SELFOVERLAP>  (1) 
35.534

>  <PUBCHEM_SHAPE_FINGERPRINT>  (1) 
11595378 159 14707203280511972159
12156800 1 17612002921126273592
12633257 1 17968640735390735968
12769317 202 18334014977651354447
13150687 139 11526798973385606130
13402501 40 18261110734063997181
14251764 38 18192147316239349375
14848178 96 18336828688421159541
15003188 100 18408598180706451015
151778 21 18118417356177953653
15210252 30 18187377527735267404
15848702 68 18413392055366134366
17093844 170 18410571820931662816
17921350 177 17605252133968962116
20567600 299 18271809063748632948
20621476 13 18339079414240118365
21315764 21 18409456915914128193
21475661 188 18260264187530705895
21860390 5 18272379654554597158
22749437 52 18195804300439995857
23559900 14 18412263956019291351
238 59 17985843741890613530
3014063 31 18337954472110885477
3052486 1 18044368332297702928
338550 245 18267317447449985361
340366 18 18131354102500438471
354706 35 17686314866147178621
44317340 157 18343300392988844807
474 4 18337106864783969371
508706 21 18041835109131629221
54672768 99 18192155012736640108
550186 7 16324586357976283892
574716 61 18059846299284281639

>  <PUBCHEM_SHAPE_MULTIPOLES>  (1) 
457.29
11.17
4.18
1.64
17.09
1.74
-0.46
1.14
2.51
-5.17
0.27
-0.46
0.52
0.72

>  <PUBCHEM_SHAPE_SELFOVERLAP>  (1) 
959.314

>  <PUBCHEM_SHAPE_VOLUME>  (1) 
258.4

>  <PUBCHEM_COORDINATE_TYPE>  (1) 
2
5
10

$$$$
