28749
     RDKit          3D

 17 18  0  0  1  0  0  0  0  0999 V2000
    2.3579    1.3978   -0.7298 S   0  0  0  0  0  0  0  0  0  0  0  0
    3.5210   -1.4343   -0.0355 O   0  0  0  0  0  0  0  0  0  0  0  0
    2.0929    2.6195    0.0978 O   0  0  0  0  0  0  0  0  0  0  0  0
   -0.0151    0.6819    1.6885 O   0  0  0  0  0  0  0  0  0  0  0  0
   -0.7270   -0.1489   -0.3970 N   0  0  0  0  0  0  0  0  0  0  0  0
    4.0707    0.8858   -0.4770 C   0  0  0  0  0  0  0  0  0  0  0  0
    1.5811    0.0320    0.1111 C   0  0  0  0  0  0  0  0  0  0  0  0
    4.1884   -0.5496   -0.9324 C   0  0  0  0  0  0  0  0  0  0  0  0
    2.2218   -1.1371    0.3301 C   0  0  0  0  0  0  0  0  0  0  0  0
    0.1955    0.2295    0.5666 C   0  0  0  0  0  0  0  0  0  0  0  0
    1.5895   -2.2936    1.0582 C   0  0  0  0  0  0  0  0  0  0  0  0
   -2.1393   -0.0970   -0.3039 C   0  0  0  0  0  0  0  0  0  0  0  0
   -2.9038   -0.5215   -1.3773 C   0  0  0  0  0  0  0  0  0  0  0  0
   -2.7239    0.3764    0.8585 C   0  0  0  0  0  0  0  0  0  0  0  0
   -4.2947   -0.4709   -1.2858 C   0  0  0  0  0  0  0  0  0  0  0  0
   -4.1149    0.4269    0.9500 C   0  0  0  0  0  0  0  0  0  0  0  0
   -4.9003    0.0031   -0.1222 C   0  0  0  0  0  0  0  0  0  0  0  0
  1  3  2  0
  1  6  1  0
  1  7  1  0
  2  8  1  0
  2  9  1  0
  4 10  2  0
  5 10  1  0
  5 12  1  0
  6  8  1  0
  7  9  2  0
  7 10  1  0
  9 11  1  0
 12 13  2  0
 12 14  1  0
 13 15  1  0
 14 16  2  0
 15 17  2  0
 16 17  1  0
M  END
>  <PUBCHEM_COMPOUND_CID>  (1) 
28749

>  <PUBCHEM_CONFORMER_RMSD>  (1) 
0.6

>  <PUBCHEM_CONFORMER_DIVERSEORDER>  (1) 
1
7
9
8
2
4
6
3
5

>  <PUBCHEM_MMFF94_PARTIAL_CHARGES>  (1) 
23
1 0.25
10 0.62
11 0.14
12 0.12
13 -0.15
14 -0.15
15 -0.15
16 -0.15
17 -0.15
2 -0.36
25 0.37
26 0.15
27 0.15
28 0.15
29 0.15
3 -0.5
30 0.15
4 -0.57
5 -0.55
6 0.19
7 0.07
8 0.28
9 -0.06

>  <PUBCHEM_EFFECTIVE_ROTOR_COUNT>  (1) 
3.6

>  <PUBCHEM_PHARMACOPHORE_FEATURES>  (1) 
6
1 2 acceptor
1 3 acceptor
1 4 acceptor
1 5 donor
6 1 2 6 7 8 9 rings
6 12 13 14 15 16 17 rings

>  <PUBCHEM_HEAVY_ATOM_COUNT>  (1) 
17

>  <PUBCHEM_ATOM_DEF_STEREO_COUNT>  (1) 
0

>  <PUBCHEM_ATOM_UDEF_STEREO_COUNT>  (1) 
1

>  <PUBCHEM_BOND_DEF_STEREO_COUNT>  (1) 
0

>  <PUBCHEM_BOND_UDEF_STEREO_COUNT>  (1) 
0

>  <PUBCHEM_ISOTOPIC_ATOM_COUNT>  (1) 
0

>  <PUBCHEM_COMPONENT_COUNT>  (1) 
1

>  <PUBCHEM_CACTVS_TAUTO_COUNT>  (1) 
2

>  <PUBCHEM_CONFORMER_ID>  (1) 
0000704D00000001

>  <PUBCHEM_MMFF94_ENERGY>  (1) 
50.4171

>  <PUBCHEM_FEATURE_SELFOVERLAP>  (1) 
30.447

>  <PUBCHEM_SHAPE_FINGERPRINT>  (1) 
10498660 4 15140951825655161095
10751810 167 17704355480956854855
11471102 20 18333452040898878348
11578080 2 17914589727491658184
11615757 297 18410012135042012509
11796584 16 15913060767958205958
12236239 1 18131356293286420020
12346177 29 15482656988736965877
12730499 353 17821733836185035195
13675066 3 13973959909402317511
13760787 19 18342174475553992759
14115302 16 17846780727823492287
14251717 144 18334857216859519806
15375358 24 16732702744560070003
15375462 189 18272084955289140019
16752209 62 17417524714572363729
17804303 29 16271923822723466667
17834072 33 18411136970076761559
1813 80 18126571115677620334
18186145 218 18333732441854190154
18915474 69 17988923400676506071
19422 9 18131351933915778711
19862831 5 18201442488397402788
200 152 18410857637681933696
20279233 1 16877943832547971915
20281475 54 18130498682870350399
20645476 183 18272649090943653119
20645477 70 18187360987230881387
22289505 5 17968084283802176245
2255824 54 18411415133301189062
23402539 116 17775287136454385668
23402655 69 18408040684696974125
23557571 272 15769507434260758592
23558518 356 17392761779958537442
23559900 14 15626223519951301080
23590187 302 18334857212327149828
23596394 208 17749381538386274935
23598291 2 18272377442525080565
25 1 18186525414570796210
2838139 119 15503807284830292118
3060560 45 18260827116241607350
3082319 5 18201718483333512325
474 4 18194396921225006720
5281201 14 17749109954587183846
573450 72 17417812820804551439
77492 1 18130795537813406272
8272917 22 18337112246473066759
9981440 41 17122529343875731240

>  <PUBCHEM_SHAPE_MULTIPOLES>  (1) 
331.11
9.48
1.7
1.26
5.12
0
-0.01
0.07
2.34
-2.28
-0.32
0.78
-0.05
-0.59

>  <PUBCHEM_SHAPE_SELFOVERLAP>  (1) 
683.384

>  <PUBCHEM_SHAPE_VOLUME>  (1) 
189.9

>  <PUBCHEM_COORDINATE_TYPE>  (1) 
2
5
10

$$$$
