28756
     RDKit          3D

 27 29  0  0  0  0  0  0  0  0999 V2000
   -8.4730   -1.4621   -0.7783 Cl  0  0  0  0  0  0  0  0  0  0  0  0
    1.3352    2.8356    1.5089 O   0  0  0  0  0  0  0  0  0  0  0  0
    4.3961   -1.6765    1.8024 O   0  0  0  0  0  0  0  0  0  0  0  0
    4.3949    0.5953   -2.4133 O   0  0  0  0  0  0  0  0  0  0  0  0
    5.4853   -1.3015   -0.7163 O   0  0  0  0  0  0  0  0  0  0  0  0
   -2.9107    0.3753    0.2208 N   0  0  0  0  0  0  0  0  0  0  0  0
   -0.1994    1.2829    0.6790 N   0  0  0  0  0  0  0  0  0  0  0  0
   -1.8239   -0.5859    0.4268 C   0  0  0  0  0  0  0  0  0  0  0  0
   -2.5917    1.8043    0.2851 C   0  0  0  0  0  0  0  0  0  0  0  0
   -0.4833    0.0137    0.0020 C   0  0  0  0  0  0  0  0  0  0  0  0
   -1.3551    2.0412    1.1487 C   0  0  0  0  0  0  0  0  0  0  0  0
   -4.2145   -0.0551   -0.0125 C   0  0  0  0  0  0  0  0  0  0  0  0
    1.0837    1.7729    0.9421 C   0  0  0  0  0  0  0  0  0  0  0  0
    2.2369    0.9681    0.5080 C   0  0  0  0  0  0  0  0  0  0  0  0
   -4.6959   -1.2724    0.5243 C   0  0  0  0  0  0  0  0  0  0  0  0
   -5.1121    0.7067   -0.7973 C   0  0  0  0  0  0  0  0  0  0  0  0
    2.7781    1.1625   -0.7596 C   0  0  0  0  0  0  0  0  0  0  0  0
    2.7794    0.0168    1.3675 C   0  0  0  0  0  0  0  0  0  0  0  0
   -6.0014   -1.7037    0.2897 C   0  0  0  0  0  0  0  0  0  0  0  0
   -6.4179    0.2755   -1.0320 C   0  0  0  0  0  0  0  0  0  0  0  0
    3.8721   -0.7463    0.9561 C   0  0  0  0  0  0  0  0  0  0  0  0
    3.8707    0.3993   -1.1712 C   0  0  0  0  0  0  0  0  0  0  0  0
   -6.8626   -0.9297   -0.4884 C   0  0  0  0  0  0  0  0  0  0  0  0
    4.4179   -0.5551   -0.3133 C   0  0  0  0  0  0  0  0  0  0  0  0
    3.8543   -2.9940    1.7330 C   0  0  0  0  0  0  0  0  0  0  0  0
    3.8544   -0.1880   -3.4756 C   0  0  0  0  0  0  0  0  0  0  0  0
    6.7823   -0.7796   -0.4368 C   0  0  0  0  0  0  0  0  0  0  0  0
  1 23  1  0
  2 13  2  0
  3 21  1  0
  3 25  1  0
  4 22  1  0
  4 26  1  0
  5 24  1  0
  5 27  1  0
  6  8  1  0
  6  9  1  0
  6 12  1  0
  7 10  1  0
  7 11  1  0
  7 13  1  0
  8 10  1  0
  9 11  1  0
 12 15  2  0
 12 16  1  0
 13 14  1  0
 14 17  2  0
 14 18  1  0
 15 19  1  0
 16 20  2  0
 17 22  1  0
 18 21  2  0
 19 23  2  0
 20 23  1  0
 21 24  1  0
 22 24  2  0
M  END
>  <PUBCHEM_COMPOUND_CID>  (1) 
28756

>  <PUBCHEM_CONFORMER_RMSD>  (1) 
0.8

>  <PUBCHEM_CONFORMER_DIVERSEORDER>  (1) 
1
15
18
10
8
9
11
6
14
12
13
17
7
4
3
5
16
2

>  <PUBCHEM_MMFF94_PARTIAL_CHARGES>  (1) 
33
1 -0.18
10 0.3
11 0.3
12 0.1
13 0.54
14 0.09
15 -0.15
16 -0.15
17 -0.15
18 -0.15
19 -0.15
2 -0.57
20 -0.15
21 0.08
22 0.08
23 0.18
24 0.08
25 0.28
26 0.28
27 0.28
3 -0.36
36 0.15
37 0.15
38 0.15
39 0.15
4 -0.36
40 0.15
41 0.15
5 -0.36
6 -0.84
7 -0.66
8 0.37
9 0.37

>  <PUBCHEM_EFFECTIVE_ROTOR_COUNT>  (1) 
7.2

>  <PUBCHEM_PHARMACOPHORE_FEATURES>  (1) 
8
1 2 acceptor
1 3 acceptor
1 4 acceptor
1 5 acceptor
1 6 cation
6 12 15 16 19 20 23 rings
6 14 17 18 21 22 24 rings
6 6 7 8 9 10 11 rings

>  <PUBCHEM_HEAVY_ATOM_COUNT>  (1) 
27

>  <PUBCHEM_ATOM_DEF_STEREO_COUNT>  (1) 
0

>  <PUBCHEM_ATOM_UDEF_STEREO_COUNT>  (1) 
0

>  <PUBCHEM_BOND_DEF_STEREO_COUNT>  (1) 
0

>  <PUBCHEM_BOND_UDEF_STEREO_COUNT>  (1) 
0

>  <PUBCHEM_ISOTOPIC_ATOM_COUNT>  (1) 
0

>  <PUBCHEM_COMPONENT_COUNT>  (1) 
1

>  <PUBCHEM_CACTVS_TAUTO_COUNT>  (1) 
1

>  <PUBCHEM_CONFORMER_ID>  (1) 
0000705400000001

>  <PUBCHEM_MMFF94_ENERGY>  (1) 
119.9403

>  <PUBCHEM_FEATURE_SELFOVERLAP>  (1) 
40.607

>  <PUBCHEM_SHAPE_FINGERPRINT>  (1) 
10 15 10231757803927587077
10622 236 17898839154804244226
11069576 57 18115306653669444706
11135609 127 17386289929831827212
11135609 149 16082746181539296034
11181472 205 15648432492215051031
11724838 91 10375863069906478041
11796584 16 18343023298271887103
12166972 35 18187646929622407301
12236239 1 18261679182134667600
12403259 118 9871450020294480568
12616971 3 17346307259393551333
12760667 363 18131071533013298969
13533116 47 18259980466201898531
13668630 136 18342740701971407703
13685833 64 17917993888330765097
13782708 43 17987231317835119855
13862211 1 18131633400571567087
14251764 75 10662943408673352578
14347332 77 18334568006847409429
14528608 73 14996279245440093273
14849402 71 13110377102154841610
14931854 50 18187369787967095738
15183329 4 17676203559537981261
15510800 12 17775015591178664119
15799311 1 18261688008224116939
15803439 3 17390271218982904918
17134984 74 18113898273467820490
18222031 100 17775007903245076473
18335252 114 15502371223501179278
193927 3 17846226561373954169
1979834 28 16559033800394116013
20028762 73 17632857559913048639
20369508 70 18343295994172343528
20397935 70 16271932631274045149
21150785 3 16153707635540687035
21223535 225 15358253767192117965
21267235 1 18130790057398271737
21304303 94 17676201368830828978
21315764 119 17676481714684398239
21781051 124 18335993077234008507
21792934 111 15123797280389680947
22224240 67 15697990843816288430
23522609 53 18191895395339615753
23559900 14 18335698407648032441
239999 70 18130507530708734440
3004659 81 18113897156680955490
312425 54 14907907080821322591
3663271 9 13254793560389324039
439807 62 18259982665742209635
46194498 28 16660363667113967222
465052 167 18059576922861236789
5104073 3 17988918973103795113
59682541 52 17167860863525795191
86090 222 16629702694056011350
960060 61 17967253108766894089
9962374 69 17560226050711481957

>  <PUBCHEM_SHAPE_MULTIPOLES>  (1) 
524.08
19.59
2.27
1.96
25.87
0.23
-1.53
11.68
-7.5
-0.85
1.38
-3.59
-0.04
-1.26

>  <PUBCHEM_SHAPE_SELFOVERLAP>  (1) 
1102.932

>  <PUBCHEM_SHAPE_VOLUME>  (1) 
297.8

>  <PUBCHEM_COORDINATE_TYPE>  (1) 
2
5
10

$$$$
