28754
     RDKit          3D

 31 33  0  0  0  0  0  0  0  0999 V2000
    1.8788   -1.3236    2.5079 O   0  0  0  0  0  0  0  0  0  0  0  0
    6.0550   -2.0842   -0.9018 O   0  0  0  0  0  0  0  0  0  0  0  0
    5.4460    2.3854    0.7078 O   0  0  0  0  0  0  0  0  0  0  0  0
    7.0112    0.4951   -0.5759 O   0  0  0  0  0  0  0  0  0  0  0  0
   -1.5023    0.3296   -0.7773 N   0  0  0  0  0  0  0  0  0  0  0  0
    0.8270   -0.7355    0.5047 N   0  0  0  0  0  0  0  0  0  0  0  0
   -1.5235    0.0026    0.6559 C   0  0  0  0  0  0  0  0  0  0  0  0
   -0.1619    0.7771   -1.1821 C   0  0  0  0  0  0  0  0  0  0  0  0
   -0.5095   -1.0954    0.9728 C   0  0  0  0  0  0  0  0  0  0  0  0
    0.8885   -0.2979   -0.8942 C   0  0  0  0  0  0  0  0  0  0  0  0
   -2.5004    1.3530   -1.0854 C   0  0  0  0  0  0  0  0  0  0  0  0
   -7.8425   -0.3872    0.2377 C   0  0  0  0  0  0  0  0  0  0  0  0
   -3.8940    0.8992   -0.7407 C   0  0  0  0  0  0  0  0  0  0  0  0
   -6.4624    0.0625   -0.1040 C   0  0  0  0  0  0  0  0  0  0  0  0
    1.9231   -0.8941    1.3560 C   0  0  0  0  0  0  0  0  0  0  0  0
   -4.7477    1.7640   -0.0705 C   0  0  0  0  0  0  0  0  0  0  0  0
   -4.3044   -0.3774   -1.0974 C   0  0  0  0  0  0  0  0  0  0  0  0
   -6.0385    1.3434    0.2495 C   0  0  0  0  0  0  0  0  0  0  0  0
   -5.5953   -0.7980   -0.7775 C   0  0  0  0  0  0  0  0  0  0  0  0
   -7.8156   -1.6448    1.1609 C   0  0  0  0  0  0  0  0  0  0  0  0
   -8.6494   -0.7620   -1.0440 C   0  0  0  0  0  0  0  0  0  0  0  0
   -8.7238    0.6635    0.9916 C   0  0  0  0  0  0  0  0  0  0  0  0
    3.2532   -0.5302    0.8496 C   0  0  0  0  0  0  0  0  0  0  0  0
    3.7271    0.7680    1.0180 C   0  0  0  0  0  0  0  0  0  0  0  0
    4.0338   -1.4865    0.2055 C   0  0  0  0  0  0  0  0  0  0  0  0
    5.2976   -1.1419   -0.2738 C   0  0  0  0  0  0  0  0  0  0  0  0
    4.9909    1.1125    0.5387 C   0  0  0  0  0  0  0  0  0  0  0  0
    5.7762    0.1576   -0.1071 C   0  0  0  0  0  0  0  0  0  0  0  0
    5.9034   -2.2010   -2.3151 C   0  0  0  0  0  0  0  0  0  0  0  0
    5.1492    3.3223   -0.3257 C   0  0  0  0  0  0  0  0  0  0  0  0
    8.1105    0.3239    0.3157 C   0  0  0  0  0  0  0  0  0  0  0  0
  1 15  2  0
  2 26  1  0
  2 29  1  0
  3 27  1  0
  3 30  1  0
  4 28  1  0
  4 31  1  0
  5  7  1  0
  5  8  1  0
  5 11  1  0
  6  9  1  0
  6 10  1  0
  6 15  1  0
  7  9  1  0
  8 10  1  0
 11 13  1  0
 12 14  1  0
 12 20  1  0
 12 21  1  0
 12 22  1  0
 13 16  2  0
 13 17  1  0
 14 18  2  0
 14 19  1  0
 15 23  1  0
 16 18  1  0
 17 19  2  0
 23 24  2  0
 23 25  1  0
 24 27  1  0
 25 26  2  0
 26 28  1  0
 27 28  2  0
M  END
>  <PUBCHEM_COMPOUND_CID>  (1) 
28754

>  <PUBCHEM_CONFORMER_RMSD>  (1) 
1

>  <PUBCHEM_CONFORMER_DIVERSEORDER>  (1) 
1
13
33
15
35
11
29
30
34
10
9
28
26
24
14
31
19
20
7
23
17
16
5
8
4
3
6
12
22
21
25
27
32
18
2

>  <PUBCHEM_MMFF94_PARTIAL_CHARGES>  (1) 
34
1 -0.57
10 0.3
11 0.41
12 0.14
13 -0.14
14 -0.14
15 0.54
16 -0.15
17 -0.15
18 -0.15
19 -0.15
2 -0.36
23 0.09
24 -0.15
25 -0.15
26 0.08
27 0.08
28 0.08
29 0.28
3 -0.36
30 0.28
31 0.28
4 -0.36
42 0.15
43 0.15
44 0.15
45 0.15
5 -0.81
55 0.15
56 0.15
6 -0.66
7 0.27
8 0.27
9 0.3

>  <PUBCHEM_EFFECTIVE_ROTOR_COUNT>  (1) 
9.2

>  <PUBCHEM_PHARMACOPHORE_FEATURES>  (1) 
9
1 1 acceptor
1 2 acceptor
1 3 acceptor
1 4 acceptor
1 5 cation
4 12 20 21 22 hydrophobe
6 13 14 16 17 18 19 rings
6 23 24 25 26 27 28 rings
6 5 6 7 8 9 10 rings

>  <PUBCHEM_HEAVY_ATOM_COUNT>  (1) 
31

>  <PUBCHEM_ATOM_DEF_STEREO_COUNT>  (1) 
0

>  <PUBCHEM_ATOM_UDEF_STEREO_COUNT>  (1) 
0

>  <PUBCHEM_BOND_DEF_STEREO_COUNT>  (1) 
0

>  <PUBCHEM_BOND_UDEF_STEREO_COUNT>  (1) 
0

>  <PUBCHEM_ISOTOPIC_ATOM_COUNT>  (1) 
0

>  <PUBCHEM_COMPONENT_COUNT>  (1) 
1

>  <PUBCHEM_CACTVS_TAUTO_COUNT>  (1) 
1

>  <PUBCHEM_CONFORMER_ID>  (1) 
0000705200000001

>  <PUBCHEM_MMFF94_ENERGY>  (1) 
128.0947

>  <PUBCHEM_FEATURE_SELFOVERLAP>  (1) 
45.681

>  <PUBCHEM_SHAPE_FINGERPRINT>  (1) 
10 15 15068343423404306138
10165383 225 17676205780647938024
10299344 5 17775282772983955647
10391435 84 17749104539725518155
11135609 127 17845082043485750680
11719270 70 14418127405224106897
11724838 91 16877662366287718294
11796584 16 14620502476440699324
11828532 37 17967824876968539186
12516196 113 17748825203051735325
12596602 18 18408882911242310145
12730499 353 18334573517285273218
13617811 41 16805606958335572852
13914758 101 10015589411212480687
14118638 360 17385997326916293273
14394314 77 18113616747758824733
1454969 45 16877948226325974039
14849402 71 18338800138788381969
14856354 85 17418088850221725597
14933364 13 18343018878766526145
150020 25 18259703398172778627
15183329 4 14476956779157810593
15301273 46 18343019961493774629
15352257 5 17561360699625384711
15728490 51 18040998471014004435
18335252 98 18409730651243596546
20105231 36 18335146384387142443
21095086 128 17775563148538735495
21150785 3 15357700786321838127
21521721 280 18408602587094983427
22149856 69 16733544902011272389
22224240 67 16949999240452762752
23424782 7 18333734632577927987
23516275 137 17559977462290074559
23569943 247 17754736026907274618
2747138 104 17894919529369546753
3004659 81 14333119793889509810
335507 130 18272366490242061396
34797466 226 18412825793903204830
4093350 32 18201721764788746996
4325135 7 18409164424651881189
437795 51 18337106868973650065
44317340 157 18060414746490120392
4461854 278 18338248162872261979
46194498 28 18343018853550669364
4625314 4 18411698773521678773
4760202 70 18194958772299258109
53794403 172 17677339454077205532
5381727 24 17603580825688454530
5758199 1 18040152907843322475
59682541 35 17313104176370365265
6081469 158 10159704603751985576
8988823 20 11169913875397242998
9831232 110 18058172726296175070

>  <PUBCHEM_SHAPE_MULTIPOLES>  (1) 
604.53
27.6
2.15
1.5
24.66
0.94
-0.02
-1.21
0.77
-3.27
0.29
-0.64
-0.68
1.35

>  <PUBCHEM_SHAPE_SELFOVERLAP>  (1) 
1271.869

>  <PUBCHEM_SHAPE_VOLUME>  (1) 
342.9

>  <PUBCHEM_COORDINATE_TYPE>  (1) 
2
5
10

$$$$
