28766
     RDKit          3D

  7  6  0  0  0  0  0  0  0  0999 V2000
   -0.7932    0.1635    1.7484 Cl  0  0  0  0  0  0  0  0  0  0  0  0
   -1.5872   -1.2958   -0.6339 Cl  0  0  0  0  0  0  0  0  0  0  0  0
    0.8875   -0.0904   -0.4558 C   0  0  0  0  0  0  0  0  0  0  0  0
   -0.6027    0.0979   -0.0399 C   0  0  0  0  0  0  0  0  0  0  0  0
    1.5421   -1.3578    0.1194 C   0  0  0  0  0  0  0  0  0  0  0  0
    1.7758    1.1142   -0.1084 C   0  0  0  0  0  0  0  0  0  0  0  0
   -1.2223    1.3684   -0.6297 C   0  0  0  0  0  0  0  0  0  0  0  0
  1  4  1  0
  2  4  1  0
  3  4  1  0
  3  5  1  0
  3  6  1  0
  4  7  1  0
M  END
>  <PUBCHEM_COMPOUND_CID>  (1) 
28766

>  <PUBCHEM_CONFORMER_RMSD>  (1) 
0.4

>  <PUBCHEM_CONFORMER_DIVERSEORDER>  (1) 
1
2
3

>  <PUBCHEM_MMFF94_PARTIAL_CHARGES>  (1) 
3
1 -0.29
2 -0.29
4 0.58

>  <PUBCHEM_EFFECTIVE_ROTOR_COUNT>  (1) 
1

>  <PUBCHEM_PHARMACOPHORE_FEATURES>  (1) 
1
3 3 5 6 hydrophobe

>  <PUBCHEM_HEAVY_ATOM_COUNT>  (1) 
7

>  <PUBCHEM_ATOM_DEF_STEREO_COUNT>  (1) 
0

>  <PUBCHEM_ATOM_UDEF_STEREO_COUNT>  (1) 
0

>  <PUBCHEM_BOND_DEF_STEREO_COUNT>  (1) 
0

>  <PUBCHEM_BOND_UDEF_STEREO_COUNT>  (1) 
0

>  <PUBCHEM_ISOTOPIC_ATOM_COUNT>  (1) 
0

>  <PUBCHEM_COMPONENT_COUNT>  (1) 
1

>  <PUBCHEM_CACTVS_TAUTO_COUNT>  (1) 
1

>  <PUBCHEM_CONFORMER_ID>  (1) 
0000705E00000001

>  <PUBCHEM_MMFF94_ENERGY>  (1) 
11.1822

>  <PUBCHEM_FEATURE_SELFOVERLAP>  (1) 
5.074

>  <PUBCHEM_SHAPE_FINGERPRINT>  (1) 
137420 1 16128079131213087897
18185500 45 18197497543819805647
21040471 1 18122335783611673772
23552333 60 18343020038112446411
24536 1 17274830099334539790
29004967 10 18044378463798486899
5084963 1 18199754820117609284
5943 1 15327573832528599665

>  <PUBCHEM_SHAPE_MULTIPOLES>  (1) 
147.8
2.24
1.58
1.24
0.51
0.14
-0.7
0.17
0.28
-0.01
0.29
-0.48
-0.14
-0.17

>  <PUBCHEM_SHAPE_SELFOVERLAP>  (1) 
248.114

>  <PUBCHEM_SHAPE_VOLUME>  (1) 
101.9

>  <PUBCHEM_COORDINATE_TYPE>  (1) 
2
5
10

$$$$
