28762
     RDKit          3D

 25 27  0  0  0  0  0  0  0  0999 V2000
    4.8802    1.5979    1.4497 S   0  0  0  0  0  0  0  0  0  0  0  0
   -0.4403   -2.6051   -1.7668 O   0  0  0  0  0  0  0  0  0  0  0  0
   -4.3260   -1.0545    1.7332 O   0  0  0  0  0  0  0  0  0  0  0  0
   -3.0999    2.1440   -1.6133 O   0  0  0  0  0  0  0  0  0  0  0  0
   -4.8372    1.3025    0.3718 O   0  0  0  0  0  0  0  0  0  0  0  0
    0.8843   -1.4891   -0.1989 N   0  0  0  0  0  0  0  0  0  0  0  0
    3.3962   -0.2648    0.1672 N   0  0  0  0  0  0  0  0  0  0  0  0
    5.6843    0.1059   -0.5022 N   0  0  0  0  0  0  0  0  0  0  0  0
    2.0935   -2.2486   -0.4999 C   0  0  0  0  0  0  0  0  0  0  0  0
    1.0531   -0.5094    0.8767 C   0  0  0  0  0  0  0  0  0  0  0  0
    3.2404   -1.3067   -0.8618 C   0  0  0  0  0  0  0  0  0  0  0  0
    2.1765    0.4682    0.5366 C   0  0  0  0  0  0  0  0  0  0  0  0
   -0.2988   -1.7560   -0.8882 C   0  0  0  0  0  0  0  0  0  0  0  0
    4.6392    0.3717    0.2634 C   0  0  0  0  0  0  0  0  0  0  0  0
   -1.4858   -0.9566   -0.5591 C   0  0  0  0  0  0  0  0  0  0  0  0
   -1.7353    0.2269   -1.2478 C   0  0  0  0  0  0  0  0  0  0  0  0
   -2.3544   -1.3870    0.4400 C   0  0  0  0  0  0  0  0  0  0  0  0
   -3.4818   -0.6275    0.7529 C   0  0  0  0  0  0  0  0  0  0  0  0
   -2.8625    0.9866   -0.9348 C   0  0  0  0  0  0  0  0  0  0  0  0
   -3.7359    0.5593    0.0654 C   0  0  0  0  0  0  0  0  0  0  0  0
    6.4955    1.7891    0.9061 C   0  0  0  0  0  0  0  0  0  0  0  0
    6.7403    0.9161   -0.1331 C   0  0  0  0  0  0  0  0  0  0  0  0
   -4.0523   -0.6137    3.0616 C   0  0  0  0  0  0  0  0  0  0  0  0
   -2.5391    3.3387   -1.0727 C   0  0  0  0  0  0  0  0  0  0  0  0
   -6.0342    1.0119   -0.3463 C   0  0  0  0  0  0  0  0  0  0  0  0
  1 14  1  0
  1 21  1  0
  2 13  2  0
  3 18  1  0
  3 23  1  0
  4 19  1  0
  4 24  1  0
  5 20  1  0
  5 25  1  0
  6  9  1  0
  6 10  1  0
  6 13  1  0
  7 11  1  0
  7 12  1  0
  7 14  1  0
  8 14  2  0
  8 22  1  0
  9 11  1  0
 10 12  1  0
 13 15  1  0
 15 16  2  0
 15 17  1  0
 16 19  1  0
 17 18  2  0
 18 20  1  0
 19 20  2  0
 21 22  2  0
M  END
>  <PUBCHEM_COMPOUND_CID>  (1) 
28762

>  <PUBCHEM_CONFORMER_RMSD>  (1) 
0.8

>  <PUBCHEM_CONFORMER_DIVERSEORDER>  (1) 
1
30
32
26
27
34
7
13
33
14
23
12
24
10
21
9
15
17
2
11
29
16
31
28
3
19
20
22
18
5
6
25
8
4

>  <PUBCHEM_MMFF94_PARTIAL_CHARGES>  (1) 
29
1 -0.08
10 0.3
11 0.37
12 0.37
13 0.54
14 0.46
15 0.09
16 -0.15
17 -0.15
18 0.08
19 0.08
2 -0.57
20 0.08
21 -0.11
22 0.08
23 0.28
24 0.28
25 0.28
3 -0.36
34 0.15
35 0.15
36 0.15
37 0.15
4 -0.36
5 -0.36
6 -0.66
7 -0.82
8 -0.57
9 0.3

>  <PUBCHEM_EFFECTIVE_ROTOR_COUNT>  (1) 
7.2

>  <PUBCHEM_PHARMACOPHORE_FEATURES>  (1) 
8
1 2 acceptor
1 3 acceptor
1 4 acceptor
1 5 acceptor
3 7 8 14 cation
5 1 8 14 21 22 rings
6 15 16 17 18 19 20 rings
6 6 7 9 10 11 12 rings

>  <PUBCHEM_HEAVY_ATOM_COUNT>  (1) 
25

>  <PUBCHEM_ATOM_DEF_STEREO_COUNT>  (1) 
0

>  <PUBCHEM_ATOM_UDEF_STEREO_COUNT>  (1) 
0

>  <PUBCHEM_BOND_DEF_STEREO_COUNT>  (1) 
0

>  <PUBCHEM_BOND_UDEF_STEREO_COUNT>  (1) 
0

>  <PUBCHEM_ISOTOPIC_ATOM_COUNT>  (1) 
0

>  <PUBCHEM_COMPONENT_COUNT>  (1) 
1

>  <PUBCHEM_CACTVS_TAUTO_COUNT>  (1) 
1

>  <PUBCHEM_CONFORMER_ID>  (1) 
0000705A00000001

>  <PUBCHEM_MMFF94_ENERGY>  (1) 
100.5015

>  <PUBCHEM_FEATURE_SELFOVERLAP>  (1) 
40.607

>  <PUBCHEM_SHAPE_FINGERPRINT>  (1) 
10 15 18187644739093822232
10165383 225 18201719556938166721
10319926 262 17749391417085615946
10675989 125 16963486678676696212
11595378 159 17531791494938919672
12035758 1 17968678046942982569
12403259 118 18040437719413620613
12523318 42 16877664569595320523
12596602 18 16443344317076568656
12616971 3 13840273593131569507
12633257 1 16660650664959307524
12892183 10 17967249776178584946
13402501 40 18411976966331589560
13583140 156 17096062767449071396
13685833 64 8070025579736250348
14341114 176 17676209026530234600
14341114 328 16805329881326102044
14739800 52 18042109990932380048
14844126 61 17095815420709873987
14848160 23 9079119951640245296
15081414 286 18202010928205550440
15183329 4 17561086900118591646
15188451 53 16009313226760661851
15510800 12 10737553987586469912
17780758 139 16515404096883176265
17870717 6 11095890379626576794
19377110 9 15936414455214729214
193927 3 8358258198267027062
200 152 11891329863470685718
20028762 73 12540699219391706680
20645477 56 18343018917447625222
21033648 29 18408042887925305102
21307412 95 10519690190975291369
21315759 148 17676211273558013618
21756936 100 18187918526084341394
22393880 68 12031784747636537564
22956985 138 16450690347461214619
23198884 109 15698001850836305465
23402539 116 11242240853593919566
23559900 14 17678473964913486559
25122255 55 8502372260929946328
2838139 119 18341878676903496340
314194 84 12396299266657265610
350125 39 17916299631186427095
376196 1 17612855021036759165
392239 28 17168157770430952457
484985 159 9439127610662945645
497634 4 17417806283848451191
5104073 3 18041840597798763538
5718773 13 7925618995494496249
57527585 21 18054764223423946317
59755656 520 17060347356861411599
633830 44 16988014794495301927
7808743 9 18339633525472162718

>  <PUBCHEM_SHAPE_MULTIPOLES>  (1) 
479.92
14.89
2.59
1.75
15.54
0.68
1.08
8.73
3.91
-0.7
-1.13
-2.09
-0.12
2.53

>  <PUBCHEM_SHAPE_SELFOVERLAP>  (1) 
1003.031

>  <PUBCHEM_SHAPE_VOLUME>  (1) 
275.4

>  <PUBCHEM_COORDINATE_TYPE>  (1) 
2
5
10

$$$$
