28768
     RDKit          3D

 22 24  0  0  0  0  0  0  0  0999 V2000
    5.1468   -2.4916   -0.7339 Cl  0  0  0  0  0  0  0  0  0  0  0  0
   -4.9097   -2.8112   -0.7314 Cl  0  0  0  0  0  0  0  0  0  0  0  0
   -0.0328    0.3649    2.1531 O   0  0  0  0  0  0  0  0  0  0  0  0
    0.8971    3.5683   -0.9594 N   0  0  0  0  0  0  0  0  0  0  0  0
    0.0253    0.2949    0.6918 C   0  0  0  0  0  0  0  0  0  0  0  0
    1.2982   -0.3968    0.3369 C   0  0  0  0  0  0  0  0  0  0  0  0
   -1.2623   -0.5144    0.3211 C   0  0  0  0  0  0  0  0  0  0  0  0
   -0.0937    1.7749    0.1920 C   0  0  0  0  0  0  0  0  0  0  0  0
    1.3395   -1.2646   -0.7542 C   0  0  0  0  0  0  0  0  0  0  0  0
   -1.7579   -1.3626    1.2607 C   0  0  0  0  0  0  0  0  0  0  0  0
    2.4470   -0.1767    1.0970 C   0  0  0  0  0  0  0  0  0  0  0  0
   -1.7921   -0.3117   -0.9145 C   0  0  0  0  0  0  0  0  0  0  0  0
   -1.2241    2.4564    0.4818 C   0  0  0  0  0  0  0  0  0  0  0  0
    0.9357    2.2971   -0.5011 C   0  0  0  0  0  0  0  0  0  0  0  0
    2.5297   -1.9124   -1.0855 C   0  0  0  0  0  0  0  0  0  0  0  0
   -2.9044   -2.0847    0.9299 C   0  0  0  0  0  0  0  0  0  0  0  0
    3.6372   -0.8243    0.7658 C   0  0  0  0  0  0  0  0  0  0  0  0
   -2.9388   -1.0337   -1.2454 C   0  0  0  0  0  0  0  0  0  0  0  0
   -1.3011    3.7680    0.0267 C   0  0  0  0  0  0  0  0  0  0  0  0
    3.6786   -1.6922   -0.3255 C   0  0  0  0  0  0  0  0  0  0  0  0
   -3.4952   -1.9202   -0.3231 C   0  0  0  0  0  0  0  0  0  0  0  0
   -0.2232    4.2726   -0.6828 C   0  0  0  0  0  0  0  0  0  0  0  0
  1 20  1  0
  2 21  1  0
  3  5  1  0
  4 14  2  0
  4 22  1  0
  5  6  1  0
  5  7  1  0
  5  8  1  0
  6  9  2  0
  6 11  1  0
  7 10  2  0
  7 12  1  0
  8 13  2  0
  8 14  1  0
  9 15  1  0
 10 16  1  0
 11 17  2  0
 12 18  2  0
 13 19  1  0
 15 20  2  0
 16 21  2  0
 17 20  1  0
 18 21  1  0
 19 22  2  0
M  END
>  <PUBCHEM_COMPOUND_CID>  (1) 
28768

>  <PUBCHEM_CONFORMER_RMSD>  (1) 
0.6

>  <PUBCHEM_CONFORMER_DIVERSEORDER>  (1) 
1
3
8
4
5
2
7
6

>  <PUBCHEM_MMFF94_PARTIAL_CHARGES>  (1) 
35
1 -0.18
10 -0.15
11 -0.15
12 -0.15
13 -0.15
14 0.16
15 -0.15
16 -0.15
17 -0.15
18 -0.15
19 -0.15
2 -0.18
20 0.18
21 0.18
22 0.16
23 0.15
24 0.15
25 0.15
26 0.15
27 0.15
28 0.4
29 0.15
3 -0.68
30 0.15
31 0.15
32 0.15
33 0.15
34 0.15
35 0.15
4 -0.62
5 0.71
6 -0.14
7 -0.14
8 -0.14
9 -0.15

>  <PUBCHEM_EFFECTIVE_ROTOR_COUNT>  (1) 
3

>  <PUBCHEM_PHARMACOPHORE_FEATURES>  (1) 
6
1 3 acceptor
1 3 donor
1 4 acceptor
6 4 8 13 14 19 22 rings
6 6 9 11 15 17 20 rings
6 7 10 12 16 18 21 rings

>  <PUBCHEM_HEAVY_ATOM_COUNT>  (1) 
22

>  <PUBCHEM_ATOM_DEF_STEREO_COUNT>  (1) 
0

>  <PUBCHEM_ATOM_UDEF_STEREO_COUNT>  (1) 
0

>  <PUBCHEM_BOND_DEF_STEREO_COUNT>  (1) 
0

>  <PUBCHEM_BOND_UDEF_STEREO_COUNT>  (1) 
0

>  <PUBCHEM_ISOTOPIC_ATOM_COUNT>  (1) 
0

>  <PUBCHEM_COMPONENT_COUNT>  (1) 
1

>  <PUBCHEM_CACTVS_TAUTO_COUNT>  (1) 
1

>  <PUBCHEM_CONFORMER_ID>  (1) 
0000706000000001

>  <PUBCHEM_MMFF94_ENERGY>  (1) 
84.4268

>  <PUBCHEM_FEATURE_SELFOVERLAP>  (1) 
30.446

>  <PUBCHEM_SHAPE_FINGERPRINT>  (1) 
10254770 206 16101635494509924882
10411042 1 18410576201381605863
1100329 8 18336543825037544717
11045515 52 18333733515559078380
11101153 10 18335995229333812452
11488393 25 17685506733247169994
11578080 2 17631996598815313456
116883 192 18411978035989053077
11833330 49 18335981956798326785
12363563 72 18409450305769788898
12553582 1 18337410308276026914
12592029 89 17688873459325833969
12730499 353 17542790158959893139
12788726 201 18118120273226474163
13004483 165 18339350894833316374
13009979 54 18059592324935798499
13583140 156 14476673049387203490
13681431 1 18265614462424361049
13899415 180 18339905100243898911
13911987 19 17756731971714279988
13955234 65 17907579486603462995
14508225 48 18410570669526454220
14840074 17 17907274887707739680
14955137 171 17907008831304619944
15131766 46 15001696509292431174
15463212 79 17755583742066288178
15502722 9 17904200678490949215
15842332 3 17627814207740759403
16945 1 18193548961330555240
17357779 13 18200856410071551078
17539 30 18267018366926704119
1813 80 18200610171075491878
18915476 22 17758408756831898451
19591789 44 17402329274581609009
20101258 96 18265072279059672752
20645477 70 18048024466232409975
21285901 2 18058157328969657405
21304303 282 17324599372954430060
21452121 199 18338508758993594137
21524375 3 17254841871305572544
21703447 108 18339062814967148850
23114952 82 17972873937263062895
23175994 123 18335421292121123167
23227448 37 18193565463307271092
23419403 2 17344879998083118968
23557571 272 18336812131401283312
23559900 14 18196644323498615539
238 59 17545580706211422431
298252 57 14129052625532690314
3057174 1 17038939547408496325
3060560 45 17618219950332369541
3729539 64 17613747094360856124
44062 13 17908431256128546910
458136 41 17472714988317594883
46194498 28 18047448296480344223
6025842 7 17834106829727627015
6442390 28 17620194230729053369
6669772 16 17118039522091820454
7364860 26 17976252757759207525
7399639 24 18129080330461682986
81228 2 18338231549019895257
8272917 22 17979640357817371655
84936 31 17910383223462258801
9925002 15 18264789686938473325

>  <PUBCHEM_SHAPE_MULTIPOLES>  (1) 
445.64
7.07
4.88
1.32
2.67
6.34
0.3
-10.5
-1.66
-1.84
-1.51
-0.08
-0.22
0.17

>  <PUBCHEM_SHAPE_SELFOVERLAP>  (1) 
968.709

>  <PUBCHEM_SHAPE_VOLUME>  (1) 
245.3

>  <PUBCHEM_COORDINATE_TYPE>  (1) 
2
5
10

$$$$
