28761
     RDKit          3D

 26 28  0  0  0  0  0  0  0  0999 V2000
    0.7823    2.5781   -1.8544 O   0  0  0  0  0  0  0  0  0  0  0  0
    4.5976    1.0331    1.7248 O   0  0  0  0  0  0  0  0  0  0  0  0
    3.3138   -2.2324   -1.5343 O   0  0  0  0  0  0  0  0  0  0  0  0
    5.0569   -1.3768    0.4396 O   0  0  0  0  0  0  0  0  0  0  0  0
   -0.5838    1.5454   -0.2652 N   0  0  0  0  0  0  0  0  0  0  0  0
   -3.1301    0.3992    0.1158 N   0  0  0  0  0  0  0  0  0  0  0  0
   -5.1773   -0.3649   -0.8943 N   0  0  0  0  0  0  0  0  0  0  0  0
   -1.7700    2.3269   -0.5995 C   0  0  0  0  0  0  0  0  0  0  0  0
   -0.7871    0.6036    0.8381 C   0  0  0  0  0  0  0  0  0  0  0  0
   -2.9386    1.4049   -0.9427 C   0  0  0  0  0  0  0  0  0  0  0  0
   -1.9333   -0.3540    0.5178 C   0  0  0  0  0  0  0  0  0  0  0  0
    0.6113    1.7600   -0.9518 C   0  0  0  0  0  0  0  0  0  0  0  0
   -4.3903   -0.2012    0.2203 C   0  0  0  0  0  0  0  0  0  0  0  0
    1.7741    0.9401   -0.5884 C   0  0  0  0  0  0  0  0  0  0  0  0
   -4.8347   -0.6325    1.4838 C   0  0  0  0  0  0  0  0  0  0  0  0
    1.9976   -0.2700   -1.2388 C   0  0  0  0  0  0  0  0  0  0  0  0
    2.6459    1.3778    0.4048 C   0  0  0  0  0  0  0  0  0  0  0  0
    3.7502    0.5988    0.7505 C   0  0  0  0  0  0  0  0  0  0  0  0
    3.1018   -1.0490   -0.8932 C   0  0  0  0  0  0  0  0  0  0  0  0
   -6.0841   -1.2308    1.6038 C   0  0  0  0  0  0  0  0  0  0  0  0
    3.9783   -0.6147    0.1014 C   0  0  0  0  0  0  0  0  0  0  0  0
   -6.3857   -0.9506   -0.7387 C   0  0  0  0  0  0  0  0  0  0  0  0
   -6.8806   -1.3967    0.4762 C   0  0  0  0  0  0  0  0  0  0  0  0
    4.3017    0.6402    3.0634 C   0  0  0  0  0  0  0  0  0  0  0  0
    2.7172   -3.3949   -0.9628 C   0  0  0  0  0  0  0  0  0  0  0  0
    6.2668   -1.1396   -0.2765 C   0  0  0  0  0  0  0  0  0  0  0  0
  1 12  2  0
  2 18  1  0
  2 24  1  0
  3 19  1  0
  3 25  1  0
  4 21  1  0
  4 26  1  0
  5  8  1  0
  5  9  1  0
  5 12  1  0
  6 10  1  0
  6 11  1  0
  6 13  1  0
  7 13  2  0
  7 22  1  0
  8 10  1  0
  9 11  1  0
 12 14  1  0
 13 15  1  0
 14 16  2  0
 14 17  1  0
 15 20  2  0
 16 19  1  0
 17 18  2  0
 18 21  1  0
 19 21  2  0
 20 23  1  0
 22 23  2  0
M  END
>  <PUBCHEM_COMPOUND_CID>  (1) 
28761

>  <PUBCHEM_CONFORMER_RMSD>  (1) 
0.8

>  <PUBCHEM_CONFORMER_DIVERSEORDER>  (1) 
1
32
19
25
24
30
39
15
36
31
14
6
34
18
26
21
11
28
8
35
10
20
33
38
9
27
23
16
17
4
12
22
40
13
37
2
29
5
7
3

>  <PUBCHEM_MMFF94_PARTIAL_CHARGES>  (1) 
32
1 -0.57
10 0.37
11 0.37
12 0.54
13 0.41
14 0.09
15 -0.15
16 -0.15
17 -0.15
18 0.08
19 0.08
2 -0.36
20 -0.15
21 0.08
22 0.16
23 -0.15
24 0.28
25 0.28
26 0.28
3 -0.36
35 0.15
36 0.15
37 0.15
38 0.15
39 0.15
4 -0.36
40 0.15
5 -0.66
6 -0.84
7 -0.62
8 0.3
9 0.3

>  <PUBCHEM_EFFECTIVE_ROTOR_COUNT>  (1) 
7.2

>  <PUBCHEM_PHARMACOPHORE_FEATURES>  (1) 
9
1 1 acceptor
1 2 acceptor
1 3 acceptor
1 4 acceptor
1 6 cation
1 7 acceptor
6 14 16 17 18 19 21 rings
6 5 6 8 9 10 11 rings
6 7 13 15 20 22 23 rings

>  <PUBCHEM_HEAVY_ATOM_COUNT>  (1) 
26

>  <PUBCHEM_ATOM_DEF_STEREO_COUNT>  (1) 
0

>  <PUBCHEM_ATOM_UDEF_STEREO_COUNT>  (1) 
0

>  <PUBCHEM_BOND_DEF_STEREO_COUNT>  (1) 
0

>  <PUBCHEM_BOND_UDEF_STEREO_COUNT>  (1) 
0

>  <PUBCHEM_ISOTOPIC_ATOM_COUNT>  (1) 
0

>  <PUBCHEM_COMPONENT_COUNT>  (1) 
1

>  <PUBCHEM_CACTVS_TAUTO_COUNT>  (1) 
1

>  <PUBCHEM_CONFORMER_ID>  (1) 
0000705900000001

>  <PUBCHEM_MMFF94_ENERGY>  (1) 
117.8099

>  <PUBCHEM_FEATURE_SELFOVERLAP>  (1) 
45.683

>  <PUBCHEM_SHAPE_FINGERPRINT>  (1) 
10076449 9 18272379646855958678
10165383 225 18130222792116340616
11796584 16 17675924322344688081
12596602 18 16558753446889523275
12616971 3 15697990838798913912
12623949 98 17916598526840589510
12633257 1 16774072977313689701
12892183 10 17988924440117159481
13150687 139 17899726676264302460
13533116 47 17846505824183947171
13583140 156 17417241022892076552
13782708 43 18267866082514519230
14251740 57 18201451245962872559
14341114 328 16200146629466874565
14528608 73 8574434184663810089
146900 427 16773790441617194354
14849402 71 16988552559762521232
14863182 85 18343029916790156086
14950920 106 17203609242388537795
15142526 21 16484699225486837448
15183329 4 15285352916940282823
15342816 4 17458345217424869524
15510800 12 18187375358845698851
17134984 74 15791736342564931496
1813 80 18187654604491458469
18222031 100 17967531276861659232
19377110 9 16343696656097798685
193927 3 18261404338350137285
1979834 28 18342462564215966671
20369508 70 17458624561712802776
20511986 3 17417517091031975727
20645477 70 18042133201141382077
21120745 212 14374225474271653261
21315763 87 18273213136245609939
21315764 119 14851870457916506899
21623969 137 18342458144768498215
21781051 124 16081663270302452283
22224240 67 18059006302581580056
22289505 5 10953744396113667070
23559900 14 17749676310819383757
2838139 119 8574430881464928143
3004659 81 17458064884518809653
312425 54 17917162619661187579
3178227 256 17918272035773678666
38570 142 16342569747380622752
392239 28 17560787840960481666
4340502 62 17418089953258271314
463206 1 18341894160055305223
5104073 3 18058731290955637305
5718773 13 18188485775131656274
59682541 52 13840260403249943883
86090 222 18270978855329920270
8988823 20 17846499266064142473
960060 61 14634867556738708457
9658208 31 17904197027764382701

>  <PUBCHEM_SHAPE_MULTIPOLES>  (1) 
496.65
16.03
2.5
1.82
16.19
0.67
1.09
9.48
4.75
-1.67
-1.21
-1.41
-0.27
2.17

>  <PUBCHEM_SHAPE_SELFOVERLAP>  (1) 
1052.478

>  <PUBCHEM_SHAPE_VOLUME>  (1) 
276.5

>  <PUBCHEM_COORDINATE_TYPE>  (1) 
2
5
10

$$$$
