28772
     RDKit          3D

 19 19  0  0  0  0  0  0  0  0999 V2000
    2.2485   -0.5802    0.9323 O   0  0  0  0  0  0  0  0  0  0  0  0
    2.6520    0.1742   -1.2296 O   0  0  0  0  0  0  0  0  0  0  0  0
   -4.1970   -0.9806   -0.5498 O   0  0  0  0  0  0  0  0  0  0  0  0
    4.2568    0.4085    0.4292 N   0  0  0  0  0  0  0  0  0  0  0  0
   -2.4257    0.3155    0.2849 N   0  0  0  0  0  0  0  0  0  0  0  0
    5.2757    1.0559   -0.3639 C   0  0  0  0  0  0  0  0  0  0  0  0
    6.6632    0.6831    0.1508 C   0  0  0  0  0  0  0  0  0  0  0  0
    5.0649    2.5663   -0.3268 C   0  0  0  0  0  0  0  0  0  0  0  0
    1.0163   -0.9941    0.5293 C   0  0  0  0  0  0  0  0  0  0  0  0
   -1.3195   -0.5653    0.1998 C   0  0  0  0  0  0  0  0  0  0  0  0
    3.0303    0.0236   -0.0716 C   0  0  0  0  0  0  0  0  0  0  0  0
   -0.0735   -0.1275    0.6146 C   0  0  0  0  0  0  0  0  0  0  0  0
    0.8431   -2.2853    0.0305 C   0  0  0  0  0  0  0  0  0  0  0  0
   -1.5092   -1.8431   -0.2978 C   0  0  0  0  0  0  0  0  0  0  0  0
   -0.4197   -2.7097   -0.3832 C   0  0  0  0  0  0  0  0  0  0  0  0
   -3.7396    0.0555   -0.0822 C   0  0  0  0  0  0  0  0  0  0  0  0
   -4.6079    1.2452    0.1632 C   0  0  0  0  0  0  0  0  0  0  0  0
   -5.9161    1.2035   -0.1248 C   0  0  0  0  0  0  0  0  0  0  0  0
   -6.8425    2.3545    0.0951 C   0  0  0  0  0  0  0  0  0  0  0  0
  1  9  1  0
  1 11  1  0
  2 11  2  0
  3 16  2  0
  4  6  1  0
  4 11  1  0
  5 10  1  0
  5 16  1  0
  6  7  1  0
  6  8  1  0
  9 12  2  0
  9 13  1  0
 10 12  1  0
 10 14  2  0
 13 15  2  0
 14 15  1  0
 16 17  1  0
 17 18  2  0
 18 19  1  0
M  END
>  <PUBCHEM_COMPOUND_CID>  (1) 
28772

>  <PUBCHEM_CONFORMER_RMSD>  (1) 
0.8

>  <PUBCHEM_CONFORMER_DIVERSEORDER>  (1) 
1
72
83
105
30
47
55
23
109
76
114
102
11
65
94
82
57
64
50
84
27
90
35
54
74
93
78
113
91
80
112
66
5
38
31
49
107
117
68
52
110
95
59
63
41
119
88
3
20
6
62
44
106
26
71
32
53
51
103
100
8
115
67
36
42
22
96
28
18
13
87
45
39
108
99
98
75
33
121
104
97
81
48
111
61
4
120
25
37
69
40
46
58
43
16
85
92
34
86
101
116
7
118
79
10
56
15
17
89
24
19
9
60
73
70
12
14
29
21
77
2

>  <PUBCHEM_MMFF94_PARTIAL_CHARGES>  (1) 
25
1 -0.23
10 0.12
11 0.78
12 -0.15
13 -0.15
14 -0.15
15 -0.15
16 0.62
17 -0.14
18 -0.29
19 0.14
2 -0.57
27 0.37
28 0.15
29 0.15
3 -0.57
30 0.15
31 0.15
32 0.37
33 0.15
34 0.15
4 -0.73
5 -0.55
6 0.3
9 0.08

>  <PUBCHEM_EFFECTIVE_ROTOR_COUNT>  (1) 
7

>  <PUBCHEM_PHARMACOPHORE_FEATURES>  (1) 
7
1 19 hydrophobe
1 2 acceptor
1 3 acceptor
1 4 donor
1 5 donor
3 6 7 8 hydrophobe
6 9 10 12 13 14 15 rings

>  <PUBCHEM_HEAVY_ATOM_COUNT>  (1) 
19

>  <PUBCHEM_ATOM_DEF_STEREO_COUNT>  (1) 
0

>  <PUBCHEM_ATOM_UDEF_STEREO_COUNT>  (1) 
0

>  <PUBCHEM_BOND_DEF_STEREO_COUNT>  (1) 
0

>  <PUBCHEM_BOND_UDEF_STEREO_COUNT>  (1) 
1

>  <PUBCHEM_ISOTOPIC_ATOM_COUNT>  (1) 
0

>  <PUBCHEM_COMPONENT_COUNT>  (1) 
1

>  <PUBCHEM_CACTVS_TAUTO_COUNT>  (1) 
4

>  <PUBCHEM_CONFORMER_ID>  (1) 
0000706400000001

>  <PUBCHEM_MMFF94_ENERGY>  (1) 
45.5838

>  <PUBCHEM_FEATURE_SELFOVERLAP>  (1) 
35.52

>  <PUBCHEM_SHAPE_FINGERPRINT>  (1) 
10014705 185 18340208617377257586
106641 1 12035740825023021908
10753850 27 10952048940092399269
11796584 16 13110954310866474157
11823591 26 18411408501745206991
12236239 1 18187079585774633874
12293681 160 17918275333395848755
12390115 104 18270975612839828635
12403259 118 17822865293652749965
12633257 1 15430043192114537460
12760667 363 10087641520276614933
12892183 10 15141227785572044603
13668630 136 11887667373597050677
13685833 64 9367340440181357021
13740256 8 9439400233295041099
13955234 65 18044096744251883755
14123256 34 9943520834547888885
1420 369 9511472125627510448
14257110 125 18411136926973997189
14774955 27 18336542733978058533
14790565 3 18411704283364092889
15048467 5 18409728439741614449
15188451 53 13768221523207594177
15778101 99 18409731768304118235
17134984 74 14117507736171762661
17834072 32 18337392750797523124
17959699 21 18267022933099750200
17980427 23 17894635889723908247
18006028 8 8502652597544839491
1813 80 10879720922260715978
18335252 114 18338791230550878428
193927 3 10879996903689443660
19784866 240 10375868593571881211
200 152 13038917646209525262
20281389 69 18186799166779862924
20388580 30 10879985878624654026
20526848 3 18407763633441989901
20554085 129 17774986982939653586
20612939 158 18129103320920776387
20621476 21 13972814274785869917
20621476 66 18410295817310328793
20645477 56 18409732902180798110
20715895 44 18412828006075677808
21150785 3 18131062737294972781
21304253 335 18260271866758502628
21585482 111 18118687613286474805
21637258 2 11671782641616492676
22950370 63 9439409037972794702
23402539 116 18272647987226358254
23402655 69 18130783439249404847
23559900 14 18130795586139649934
25147074 1 18338778066386873859
270888 7 18409166636196457444
2838139 119 18334005099300401004
2916195 48 18342454897878561656
293599 30 18411699889416577665
3472631 163 18412829109338720548
351380 3 9943805577783708629
4340502 62 16732706025835833745
465052 167 8718534039305772073
5104073 3 17749662017521138112
57724786 102 16951135117985833692
59682541 35 18187661206715873513
59682541 52 17346048770801916420
59755656 520 17385720327048027522
6327066 14 18410574006658319700
76465 3 9367341540172961167
77188 2 17328581722440430459
7808743 9 18410570708386797009
7970288 3 9439404622789404901

>  <PUBCHEM_SHAPE_MULTIPOLES>  (1) 
363.44
15.85
2.58
0.78
2.29
0.35
-0.03
-16.26
-0.76
0.71
-0.3
-0.27
0.04
-0.61

>  <PUBCHEM_SHAPE_SELFOVERLAP>  (1) 
738.637

>  <PUBCHEM_SHAPE_VOLUME>  (1) 
209.2

>  <PUBCHEM_COORDINATE_TYPE>  (1) 
2
5
10

$$$$
