28776
     RDKit          3D

 20 20  0  0  0  0  0  0  0  0999 V2000
   -2.4872   -1.7094   -0.2863 O   0  0  0  0  0  0  0  0  0  0  0  0
    3.7570    0.0831   -0.8693 O   0  0  0  0  0  0  0  0  0  0  0  0
    4.1751    0.6670    1.3422 O   0  0  0  0  0  0  0  0  0  0  0  0
   -0.9657    0.0314    0.1280 N   0  0  0  0  0  0  0  0  0  0  0  0
    5.6060    1.3383   -0.3560 N   0  0  0  0  0  0  0  0  0  0  0  0
   -4.7174   -0.0591   -0.0381 C   0  0  0  0  0  0  0  0  0  0  0  0
   -5.7868    1.0123    0.1779 C   0  0  0  0  0  0  0  0  0  0  0  0
   -3.3127    0.5147    0.1343 C   0  0  0  0  0  0  0  0  0  0  0  0
   -7.1912    0.4454   -0.0280 C   0  0  0  0  0  0  0  0  0  0  0  0
   -2.2254   -0.5372   -0.0377 C   0  0  0  0  0  0  0  0  0  0  0  0
    0.2903   -0.6154    0.0455 C   0  0  0  0  0  0  0  0  0  0  0  0
   -8.2560    1.5153    0.1530 C   0  0  0  0  0  0  0  0  0  0  0  0
    1.4092    0.0827   -0.3799 C   0  0  0  0  0  0  0  0  0  0  0  0
    2.6375   -0.5740   -0.4550 C   0  0  0  0  0  0  0  0  0  0  0  0
    0.3677   -1.9538    0.3979 C   0  0  0  0  0  0  0  0  0  0  0  0
    1.3198    1.5273   -0.7595 C   0  0  0  0  0  0  0  0  0  0  0  0
    2.7309   -1.9207   -0.1039 C   0  0  0  0  0  0  0  0  0  0  0  0
    1.5960   -2.6105    0.3227 C   0  0  0  0  0  0  0  0  0  0  0  0
    4.4954    0.7010    0.1577 C   0  0  0  0  0  0  0  0  0  0  0  0
    6.5577    2.0618    0.4545 C   0  0  0  0  0  0  0  0  0  0  0  0
  1 10  2  0
  2 14  1  0
  2 19  1  0
  3 19  2  0
  4 10  1  0
  4 11  1  0
  5 19  1  0
  5 20  1  0
  6  7  1  0
  6  8  1  0
  7  9  1  0
  8 10  1  0
  9 12  1  0
 11 13  2  0
 11 15  1  0
 13 14  1  0
 13 16  1  0
 14 17  2  0
 15 18  2  0
 17 18  1  0
M  END
>  <PUBCHEM_COMPOUND_CID>  (1) 
28776

>  <PUBCHEM_CONFORMER_RMSD>  (1) 
0.8

>  <PUBCHEM_CONFORMER_DIVERSEORDER>  (1) 
1
83
287
252
230
119
191
80
61
221
151
291
285
231
123
95
296
139
236
47
173
234
156
220
200
118
228
167
124
98
253
310
96
249
279
314
327
36
117
264
163
49
304
160
275
133
161
303
54
271
82
57
192
320
216
265
302
109
158
232
313
260
97
273
332
274
263
128
305
137
219
20
298
126
243
306
237
102
209
164
120
106
111
336
140
146
292
56
257
165
329
254
149
60
281
131
5
284
193
169
308
212
107
46
258
179
142
289
70
290
307
222
101
277
125
235
38
213
300
7
170
195
282
239
335
240
86
312
189
286
116
309
105
99
153
328
143
334
184
12
187
278
141
176
333
186
250
150
94
301
172
113
246
272
199
121
23
331
201
174
79
168
208
288
68
122
185
251
204
202
183
262
45
321
132
241
108
88
248
259
210
31
48
316
135
182
28
93
324
59
206
62
269
175
198
154
283
178
8
297
43
9
270
148
39
267
295
58
293
66
227
203
211
15
280
233
10
11
33
103
194
65
3
330
181
77
76
155
4
92
319
268
112
44
261
207
190
218
166
180
152
129
89
247
6
84
138
71
159
35
21
326
157
104
223
42
74
75
325
115
87
2
317
127
266
171
205
224
294
63
72
67
114
315
90
134
276
40
225
51
214
13
69
188
64
318
147
323
177
73
322
81
91
55
238
196
100
311
50
215
245
229
52
18
197
255
30
136
53
242
27
244
299
25
256
162
14
217
226
17
34
37
26
78
145
19
32
29
24
144
130
22
41
110
16
85

>  <PUBCHEM_MMFF94_PARTIAL_CHARGES>  (1) 
21
1 -0.57
10 0.57
11 0.12
13 -0.14
14 0.08
15 -0.15
16 0.14
17 -0.15
18 -0.15
19 0.78
2 -0.23
20 0.3
3 -0.57
32 0.37
33 0.15
37 0.15
38 0.15
39 0.37
4 -0.55
5 -0.73
8 0.06

>  <PUBCHEM_EFFECTIVE_ROTOR_COUNT>  (1) 
9

>  <PUBCHEM_PHARMACOPHORE_FEATURES>  (1) 
7
1 1 acceptor
1 12 hydrophobe
1 3 acceptor
1 4 donor
1 5 donor
4 6 7 8 9 hydrophobe
6 11 13 14 15 17 18 rings

>  <PUBCHEM_HEAVY_ATOM_COUNT>  (1) 
20

>  <PUBCHEM_ATOM_DEF_STEREO_COUNT>  (1) 
0

>  <PUBCHEM_ATOM_UDEF_STEREO_COUNT>  (1) 
0

>  <PUBCHEM_BOND_DEF_STEREO_COUNT>  (1) 
0

>  <PUBCHEM_BOND_UDEF_STEREO_COUNT>  (1) 
0

>  <PUBCHEM_ISOTOPIC_ATOM_COUNT>  (1) 
0

>  <PUBCHEM_COMPONENT_COUNT>  (1) 
1

>  <PUBCHEM_CACTVS_TAUTO_COUNT>  (1) 
4

>  <PUBCHEM_CONFORMER_ID>  (1) 
0000706800000001

>  <PUBCHEM_MMFF94_ENERGY>  (1) 
46.2332

>  <PUBCHEM_FEATURE_SELFOVERLAP>  (1) 
35.52

>  <PUBCHEM_SHAPE_FINGERPRINT>  (1) 
10 15 17967534588149478345
10411042 1 17832987144744502138
10595046 47 18341892953706915267
11724838 91 18259986007347961551
12236239 1 18202000998240960887
12838862 33 18338219536107534069
13533116 47 18059011670969219183
13668630 136 10159692487654953477
14170010 4 18259990353438088493
14461889 52 18113625607864627651
15048467 5 18413670218807170693
15475509 35 15936959722941080242
17980427 23 17750516354798348502
20157964 124 18336830801951185927
20281389 69 18260546706205938749
20554085 129 17917136283074670674
20621476 38 8646767798875102689
20645477 70 18265899060285914351
21033648 29 18198614626733712056
21150785 3 17275383218788393501
21298829 104 18411985737345975873
22224240 67 18260544554121004545
23402539 116 18341045337225770542
23402655 69 18342736325716387023
29717793 49 17774725243068440983
300161 21 18410854348533680335
335352 9 18409453557793099566
34934 24 18341891904738246439
3545911 37 18409451375685481479
4072396 5 18187076248405605890
4073 2 18187652410174795851
42630746 31 18408886204780605766
4340502 62 16877943823873797699
5104073 3 18188495653597920953
59682541 35 18114186363348132297
59682541 52 17203342078706906300

>  <PUBCHEM_SHAPE_MULTIPOLES>  (1) 
384.02
18.11
2.2
0.78
27.93
0.82
0.05
-14.33
1.78
-2.31
0.17
-0.55
-0.1
0.11

>  <PUBCHEM_SHAPE_SELFOVERLAP>  (1) 
773.591

>  <PUBCHEM_SHAPE_VOLUME>  (1) 
223.8

>  <PUBCHEM_COORDINATE_TYPE>  (1) 
2
5
10

$$$$
