2877
     RDKit          3D

 19 21  0  0  0  0  0  0  0  0999 V2000
    2.1421    0.2962    1.1484 O   0  0  0  0  0  0  0  0  0  0  0  0
   -2.4660   -2.2600   -0.9235 O   0  0  0  0  0  0  0  0  0  0  0  0
    2.2743    0.0951   -1.1687 N   0  0  0  0  0  0  0  0  0  0  0  0
   -0.9772    2.4951    1.3634 N   0  0  0  0  0  0  0  0  0  0  0  0
    2.1159   -1.8701    0.2318 C   0  0  0  0  0  0  0  0  0  0  0  0
    2.7716   -2.5276    1.3973 C   0  0  0  0  0  0  0  0  0  0  0  0
    1.2749   -2.4719    1.3049 C   0  0  0  0  0  0  0  0  0  0  0  0
    2.1786   -0.3823    0.1286 C   0  0  0  0  0  0  0  0  0  0  0  0
    2.3451    1.4944   -1.4940 C   0  0  0  0  0  0  0  0  0  0  0  0
    0.9546    2.1135   -1.7114 C   0  0  0  0  0  0  0  0  0  0  0  0
    0.0610    2.0177   -0.5396 C   0  0  0  0  0  0  0  0  0  0  0  0
   -0.8413    0.9570   -0.2468 C   0  0  0  0  0  0  0  0  0  0  0  0
   -1.4797    1.2812    0.9521 C   0  0  0  0  0  0  0  0  0  0  0  0
   -0.0456    2.9482    0.4681 C   0  0  0  0  0  0  0  0  0  0  0  0
   -1.1771   -0.2515   -0.8886 C   0  0  0  0  0  0  0  0  0  0  0  0
   -2.4410    0.4540    1.5437 C   0  0  0  0  0  0  0  0  0  0  0  0
   -2.1368   -1.0889   -0.3086 C   0  0  0  0  0  0  0  0  0  0  0  0
   -2.7579   -0.7397    0.8888 C   0  0  0  0  0  0  0  0  0  0  0  0
   -1.7955   -2.5603   -2.1457 C   0  0  0  0  0  0  0  0  0  0  0  0
  1  8  2  0
  2 17  1  0
  2 19  1  0
  3  8  1  0
  3  9  1  0
  4 13  1  0
  4 14  1  0
  5  6  1  0
  5  7  1  0
  5  8  1  0
  6  7  1  0
  9 10  1  0
 10 11  1  0
 11 12  1  0
 11 14  2  0
 12 13  2  0
 12 15  1  0
 13 16  1  0
 15 17  2  0
 16 18  2  0
 17 18  1  0
M  END
>  <PUBCHEM_COMPOUND_CID>  (1) 
2877

>  <PUBCHEM_CONFORMER_RMSD>  (1) 
0.8

>  <PUBCHEM_CONFORMER_DIVERSEORDER>  (1) 
3
38
1
12
33
2
18
27
21
41
36
28
14
5
45
46
24
31
22
34
11
40
10
42
4
23
7
17
39
44
16
20
25
26
30
13
6
43
8
32
47
35
37
29
15
19
9

>  <PUBCHEM_MMFF94_PARTIAL_CHARGES>  (1) 
29
1 -0.57
10 0.18
11 -0.18
13 -0.15
14 -0.3
15 -0.15
16 -0.15
17 0.08
18 -0.15
19 0.28
2 -0.36
20 0.1
21 0.1
22 0.1
23 0.1
24 0.1
25 0.37
3 -0.73
30 0.15
31 0.27
32 0.15
33 0.15
34 0.15
4 0.03
5 -0.1
6 -0.2
7 -0.2
8 0.63
9 0.3

>  <PUBCHEM_EFFECTIVE_ROTOR_COUNT>  (1) 
6.6

>  <PUBCHEM_PHARMACOPHORE_FEATURES>  (1) 
7
1 1 acceptor
1 2 acceptor
1 3 donor
1 4 cation
1 4 donor
5 4 11 12 13 14 rings
6 12 13 15 16 17 18 rings

>  <PUBCHEM_HEAVY_ATOM_COUNT>  (1) 
19

>  <PUBCHEM_ATOM_DEF_STEREO_COUNT>  (1) 
0

>  <PUBCHEM_ATOM_UDEF_STEREO_COUNT>  (1) 
0

>  <PUBCHEM_BOND_DEF_STEREO_COUNT>  (1) 
0

>  <PUBCHEM_BOND_UDEF_STEREO_COUNT>  (1) 
0

>  <PUBCHEM_ISOTOPIC_ATOM_COUNT>  (1) 
0

>  <PUBCHEM_COMPONENT_COUNT>  (1) 
1

>  <PUBCHEM_CACTVS_TAUTO_COUNT>  (1) 
2

>  <PUBCHEM_CONFORMER_ID>  (1) 
00000B3D00000003

>  <PUBCHEM_MMFF94_ENERGY>  (1) 
38.3705

>  <PUBCHEM_FEATURE_SELFOVERLAP>  (1) 
35.612

>  <PUBCHEM_SHAPE_FINGERPRINT>  (1) 
10064457 181 17106536921300057355
11321824 6 18268710519790956885
11578080 2 18195783328052068117
14251711 518 18410304591954946862
14817 1 8764484189013210121
15209289 33 18337691792533391924
15324115 91 17110675474509506687
16945 1 17484564261826752373
19777482 4 17973976519297057511
21731516 1 18411420617710740462
22112679 90 18272656782829029879
22445834 79 18117865246732530368
23388829 49 18407758157658906596
23419403 2 16314345210031237728
238 59 17609764658654398415
2748010 2 16030160645933699917
34934 24 18128272249012345301
465052 167 17104283605395188937
484985 159 15725289268422180355
5845 1 11568320590281229635
598444 67 16098827350179381946
84936 31 12478296350577254958
90525 40 17906464224802838126

>  <PUBCHEM_SHAPE_MULTIPOLES>  (1) 
369.31
4.11
3.66
1.88
1.48
0.05
-0.46
-2.35
1.12
0.05
-0.68
-0.21
-0.42
-2.15

>  <PUBCHEM_SHAPE_SELFOVERLAP>  (1) 
791.872

>  <PUBCHEM_SHAPE_VOLUME>  (1) 
206

>  <PUBCHEM_COORDINATE_TYPE>  (1) 
2
5
10

$$$$
