28774
     RDKit          3D

  7  6  0  0  0  0  0  0  0  0999 V2000
    0.6746    1.3886    0.0033 O   0  0  0  0  0  0  0  0  0  0  0  0
    1.6557   -0.7153   -0.0007 N   0  0  0  0  0  0  0  0  0  0  0  0
   -0.7446   -0.5729   -0.0100 C   0  0  0  0  0  0  0  0  0  0  0  0
   -1.9387    0.3772   -0.0106 C   0  0  0  0  0  0  0  0  0  0  0  0
    0.5827    0.1639   -0.0011 C   0  0  0  0  0  0  0  0  0  0  0  0
   -3.2553   -0.3817    0.0137 C   0  0  0  0  0  0  0  0  0  0  0  0
    3.0256   -0.2597    0.0053 C   0  0  0  0  0  0  0  0  0  0  0  0
  1  5  2  0
  2  5  1  0
  2  7  1  0
  3  4  1  0
  3  5  1  0
  4  6  1  0
M  END
>  <PUBCHEM_COMPOUND_CID>  (1) 
28774

>  <PUBCHEM_CONFORMER_RMSD>  (1) 
0.4

>  <PUBCHEM_CONFORMER_DIVERSEORDER>  (1) 
1
7
9
11
8
6
3
10
5
4
2

>  <PUBCHEM_MMFF94_PARTIAL_CHARGES>  (1) 
6
1 -0.57
15 0.37
2 -0.73
3 0.06
5 0.57
7 0.3

>  <PUBCHEM_EFFECTIVE_ROTOR_COUNT>  (1) 
3

>  <PUBCHEM_PHARMACOPHORE_FEATURES>  (1) 
3
1 1 acceptor
1 2 donor
1 6 hydrophobe

>  <PUBCHEM_HEAVY_ATOM_COUNT>  (1) 
7

>  <PUBCHEM_ATOM_DEF_STEREO_COUNT>  (1) 
0

>  <PUBCHEM_ATOM_UDEF_STEREO_COUNT>  (1) 
0

>  <PUBCHEM_BOND_DEF_STEREO_COUNT>  (1) 
0

>  <PUBCHEM_BOND_UDEF_STEREO_COUNT>  (1) 
0

>  <PUBCHEM_ISOTOPIC_ATOM_COUNT>  (1) 
0

>  <PUBCHEM_COMPONENT_COUNT>  (1) 
1

>  <PUBCHEM_CACTVS_TAUTO_COUNT>  (1) 
2

>  <PUBCHEM_CONFORMER_ID>  (1) 
0000706600000001

>  <PUBCHEM_MMFF94_ENERGY>  (1) 
0.741

>  <PUBCHEM_FEATURE_SELFOVERLAP>  (1) 
15.223

>  <PUBCHEM_SHAPE_FINGERPRINT>  (1) 
11062470 55 17275103924927081915
14325111 11 18410573985362519175
16714656 1 18411418375806305838
29004967 10 18410014316700847610
5460574 1 9295287239915902919

>  <PUBCHEM_SHAPE_MULTIPOLES>  (1) 
133.21
4.72
0.97
0.59
0.6
0.23
0
-0.84
-0.02
-0.13
0
0.03
-0.01
0

>  <PUBCHEM_SHAPE_SELFOVERLAP>  (1) 
236.12

>  <PUBCHEM_SHAPE_VOLUME>  (1) 
87.6

>  <PUBCHEM_COORDINATE_TYPE>  (1) 
2
5
10

$$$$
