2878
     RDKit          3D

 18 19  0  0  1  0  0  0  0  0999 V2000
   -3.8173    0.0167   -0.0533 P   0  0  0  0  0  0  0  0  0  0  0  0
    2.3032    2.4147    0.4701 O   0  0  0  0  0  0  0  0  0  0  0  0
    3.5981    1.3427   -1.0429 O   0  0  0  0  0  0  0  0  0  0  0  0
   -4.2283    1.5831   -0.1299 O   0  0  0  0  0  0  0  0  0  0  0  0
   -4.1167   -0.4747   -1.5689 O   0  0  0  0  0  0  0  0  0  0  0  0
   -4.6085   -0.7428    0.9719 O   0  0  0  0  0  0  0  0  0  0  0  0
    2.6072   -0.1291    1.8636 N   0  0  0  0  0  0  0  0  0  0  0  0
    2.8728   -1.1773   -0.2691 C   0  0  0  0  0  0  0  0  0  0  0  0
    2.1601   -2.4771   -0.2913 C   0  0  0  0  0  0  0  0  0  0  0  0
    2.2676   -1.6487   -1.5378 C   0  0  0  0  0  0  0  0  0  0  0  0
    2.2093   -0.0118    0.4483 C   0  0  0  0  0  0  0  0  0  0  0  0
    0.6769   -0.0046    0.3208 C   0  0  0  0  0  0  0  0  0  0  0  0
    2.8018    1.2923   -0.1118 C   0  0  0  0  0  0  0  0  0  0  0  0
    0.1131    0.6925   -0.7182 C   0  0  0  0  0  0  0  0  0  0  0  0
   -0.0574   -0.6955    1.2519 C   0  0  0  0  0  0  0  0  0  0  0  0
   -1.2770    0.6994   -0.8336 C   0  0  0  0  0  0  0  0  0  0  0  0
   -1.4475   -0.6886    1.1365 C   0  0  0  0  0  0  0  0  0  0  0  0
   -2.0573    0.0089    0.0937 C   0  0  0  0  0  0  0  0  0  0  0  0
  1  4  1  0
  1  5  1  0
  1  6  2  0
  1 18  1  0
  2 13  1  0
  3 13  2  0
  7 11  1  0
  8  9  1  0
  8 10  1  0
  8 11  1  0
  9 10  1  0
 11 12  1  0
 11 13  1  0
 12 14  2  0
 12 15  1  0
 14 16  1  0
 15 17  2  0
 16 18  2  0
 17 18  1  0
M  END
>  <PUBCHEM_COMPOUND_CID>  (1) 
2878

>  <PUBCHEM_CONFORMER_RMSD>  (1) 
0.6

>  <PUBCHEM_CONFORMER_DIVERSEORDER>  (1) 
1
6
17
18
4
13
11
14
16
7
9
3
12
19
2
5
15
8
10

>  <PUBCHEM_MMFF94_PARTIAL_CHARGES>  (1) 
32
1 1.38
10 -0.2
11 0.57
12 -0.14
13 0.66
14 -0.15
15 -0.15
16 -0.15
17 -0.15
18 -0.14
19 0.1
2 -0.65
20 0.1
21 0.1
22 0.1
23 0.1
24 0.36
25 0.36
26 0.15
27 0.15
28 0.15
29 0.15
3 -0.57
30 0.5
31 0.5
32 0.5
4 -0.77
5 -0.77
6 -0.7
7 -0.99
8 -0.19
9 -0.2

>  <PUBCHEM_EFFECTIVE_ROTOR_COUNT>  (1) 
4.6

>  <PUBCHEM_PHARMACOPHORE_FEATURES>  (1) 
10
1 2 acceptor
1 3 acceptor
1 4 acceptor
1 5 acceptor
1 6 acceptor
1 7 cation
1 7 donor
3 2 3 13 anion
4 1 4 5 6 anion
6 12 14 15 16 17 18 rings

>  <PUBCHEM_HEAVY_ATOM_COUNT>  (1) 
18

>  <PUBCHEM_ATOM_DEF_STEREO_COUNT>  (1) 
0

>  <PUBCHEM_ATOM_UDEF_STEREO_COUNT>  (1) 
1

>  <PUBCHEM_BOND_DEF_STEREO_COUNT>  (1) 
0

>  <PUBCHEM_BOND_UDEF_STEREO_COUNT>  (1) 
0

>  <PUBCHEM_ISOTOPIC_ATOM_COUNT>  (1) 
0

>  <PUBCHEM_COMPONENT_COUNT>  (1) 
1

>  <PUBCHEM_CACTVS_TAUTO_COUNT>  (1) 
1

>  <PUBCHEM_CONFORMER_ID>  (1) 
00000B3E00000001

>  <PUBCHEM_MMFF94_ENERGY>  (1) 
22.1221

>  <PUBCHEM_FEATURE_SELFOVERLAP>  (1) 
50.848

>  <PUBCHEM_SHAPE_FINGERPRINT>  (1) 
10646746 165 17676760985878818381
11543360 7 18201150053207484805
116883 192 18055075350363757220
12616999 72 18342461469141464750
12932764 1 17346876754254347049
13224815 77 17458062660174039117
13296908 3 18186242827244976595
13538477 17 16415469467601636182
13583140 156 17130968959001555545
13705890 14 18272929401630700763
13760787 19 17561367300963289695
14252887 29 18187659028170187867
14289901 80 18202280316785249953
15219456 202 18334864925919614722
15375358 24 18114464543066522483
16945 1 18343578577076133640
18186145 218 17821728304245883189
19026448 5 17917993871709974105
19786989 88 18337383932981510764
200 152 18202004308916966978
20281475 54 17775564252155452303
20559304 39 16343423908294329330
20645477 70 18342739577001355471
20708731 107 18343305838569402734
2255824 54 18272374144217122246
23557571 272 17750813218336847259
23559900 14 18338516326863437954
2748010 2 17822869682946010883
3060560 45 18270966846938113284
495365 180 18271516602309110368
4990 188 18260553277521524411
5281201 14 18339929225301404037
58051976 378 18342735268779664854
581208 293 18342450448055163462
633830 44 18260266305223785533
7364860 26 18413390934464156624
8272917 22 18202013104936090823
9709674 26 18408890646088110667

>  <PUBCHEM_SHAPE_MULTIPOLES>  (1) 
339.95
7.54
1.89
1.37
8.09
0.04
-0.09
0.4
0.91
-1.86
0.3
-0.13
-0.28
0.46

>  <PUBCHEM_SHAPE_SELFOVERLAP>  (1) 
706.982

>  <PUBCHEM_SHAPE_VOLUME>  (1) 
195.4

>  <PUBCHEM_COORDINATE_TYPE>  (1) 
2
5
10

$$$$
