28796
     RDKit          3D

 14 14  0  0  0  0  0  0  0  0999 V2000
   -3.7106   -1.8755   -0.6482 Cl  0  0  0  0  0  0  0  0  0  0  0  0
   -4.4018    1.1617    0.2294 Cl  0  0  0  0  0  0  0  0  0  0  0  0
    1.2139   -0.7289    0.0597 N   0  0  0  0  0  0  0  0  0  0  0  0
    3.5437   -0.7415   -0.0314 N   0  0  0  0  0  0  0  0  0  0  0  0
    2.3468    1.2886   -0.4044 N   0  0  0  0  0  0  0  0  0  0  0  0
   -0.1294   -0.2926    0.0950 C   0  0  0  0  0  0  0  0  0  0  0  0
   -1.1552   -1.1716   -0.2478 C   0  0  0  0  0  0  0  0  0  0  0  0
   -0.4251    1.0160    0.4728 C   0  0  0  0  0  0  0  0  0  0  0  0
    2.3746    0.0108   -0.1486 C   0  0  0  0  0  0  0  0  0  0  0  0
   -2.4814   -0.7404   -0.2126 C   0  0  0  0  0  0  0  0  0  0  0  0
   -1.7511    1.4470    0.5080 C   0  0  0  0  0  0  0  0  0  0  0  0
   -2.7792    0.5688    0.1654 C   0  0  0  0  0  0  0  0  0  0  0  0
    3.7483   -1.9323    0.7629 C   0  0  0  0  0  0  0  0  0  0  0  0
    3.6067    1.9901   -0.6003 C   0  0  0  0  0  0  0  0  0  0  0  0
  1 10  1  0
  2 12  1  0
  3  6  1  0
  3  9  1  0
  4  9  1  0
  4 13  1  0
  5  9  2  0
  5 14  1  0
  6  7  2  0
  6  8  1  0
  7 10  1  0
  8 11  2  0
 10 12  2  0
 11 12  1  0
M  END
>  <PUBCHEM_COMPOUND_CID>  (1) 
28796

>  <PUBCHEM_CONFORMER_RMSD>  (1) 
0.6

>  <PUBCHEM_CONFORMER_DIVERSEORDER>  (1) 
1
23
9
21
20
13
7
15
6
19
12
14
8
11
10
22
4
17
16
2
18
3
5

>  <PUBCHEM_MMFF94_PARTIAL_CHARGES>  (1) 
19
1 -0.18
10 0.18
11 -0.15
12 0.18
13 0.37
14 0.25
15 0.4
16 0.15
17 0.15
18 0.15
19 0.4
2 -0.18
3 -0.55
4 -0.82
5 -0.7
6 0.1
7 -0.15
8 -0.15
9 0.55

>  <PUBCHEM_EFFECTIVE_ROTOR_COUNT>  (1) 
3

>  <PUBCHEM_PHARMACOPHORE_FEATURES>  (1) 
4
1 3 donor
1 4 donor
4 3 4 5 9 cation
6 6 7 8 10 11 12 rings

>  <PUBCHEM_HEAVY_ATOM_COUNT>  (1) 
14

>  <PUBCHEM_ATOM_DEF_STEREO_COUNT>  (1) 
0

>  <PUBCHEM_ATOM_UDEF_STEREO_COUNT>  (1) 
0

>  <PUBCHEM_BOND_DEF_STEREO_COUNT>  (1) 
0

>  <PUBCHEM_BOND_UDEF_STEREO_COUNT>  (1) 
0

>  <PUBCHEM_ISOTOPIC_ATOM_COUNT>  (1) 
0

>  <PUBCHEM_COMPONENT_COUNT>  (1) 
1

>  <PUBCHEM_CACTVS_TAUTO_COUNT>  (1) 
2

>  <PUBCHEM_CONFORMER_ID>  (1) 
0000707C00000001

>  <PUBCHEM_MMFF94_ENERGY>  (1) 
48.4678

>  <PUBCHEM_FEATURE_SELFOVERLAP>  (1) 
20.341

>  <PUBCHEM_SHAPE_FINGERPRINT>  (1) 
10062212 137 18342730810999471263
11132069 177 18201718423156445531
11769659 78 18411132549980420391
12251169 10 18338234856271144490
12932764 1 17167854244965257266
13380535 76 18129381514769144551
13760787 5 18410009940624902183
14325111 11 18410858780169673053
15196674 1 18412265059894581645
15442244 35 18337391513936508712
15536298 74 18412827997448456204
15669948 3 18059292174866349614
15775835 57 18409739477433142292
16945 1 18198916816078922397
17492 89 18411982459705881790
18186145 218 17312818286066748571
19026448 5 18410292527502432767
19422 9 18411136956759316847
20279233 1 15769772437969024758
20281475 54 18341326790527437659
20645477 70 18409167701369361558
21501502 16 18412263956014029577
2255824 54 18187087252444302802
22959321 4 18408322202523156739
23402539 116 18058999572267736765
23402655 69 18410298003607139628
23463225 33 18411419479755416574
23557571 272 17916599767690063213
23559900 14 18059862710222678094
23598291 2 18335702719678691726
2748010 2 17986093318535730505
3248919 1 17560809792221703268
474 4 17823422780624529644
5104073 3 18411982476847919059
57096353 35 18267305507012770796
58051976 100 18409450254314259351
603831 33 18198052775785554990
633830 44 17313105241617018129
67856867 119 18338228367013650608
7364860 26 18412265039152877224
81228 2 16271103504906697840
9709674 26 18411425011742495766
9939556 21 18410293588427816112
9981440 41 17902510716619654960

>  <PUBCHEM_SHAPE_MULTIPOLES>  (1) 
276.91
8.16
2.13
0.77
1.36
0.12
-0.01
0.33
0.29
0.51
0.07
0.09
0.03
-1.44

>  <PUBCHEM_SHAPE_SELFOVERLAP>  (1) 
545.228

>  <PUBCHEM_SHAPE_VOLUME>  (1) 
166.4

>  <PUBCHEM_COORDINATE_TYPE>  (1) 
2
5
10

$$$$
