28795
     RDKit          3D

 14 14  0  0  0  0  0  0  0  0999 V2000
   -2.1096    2.5441    0.6639 Cl  0  0  0  0  0  0  0  0  0  0  0  0
   -4.5112    0.6294   -0.3555 Cl  0  0  0  0  0  0  0  0  0  0  0  0
    0.9897   -1.4926    0.2577 N   0  0  0  0  0  0  0  0  0  0  0  0
    2.3762    0.3966   -0.1513 N   0  0  0  0  0  0  0  0  0  0  0  0
    3.2397   -1.7562    0.4037 N   0  0  0  0  0  0  0  0  0  0  0  0
   -0.3141   -0.9736    0.1171 C   0  0  0  0  0  0  0  0  0  0  0  0
   -0.5683    0.3649    0.4167 C   0  0  0  0  0  0  0  0  0  0  0  0
   -1.3494   -1.7988   -0.3220 C   0  0  0  0  0  0  0  0  0  0  0  0
    2.2207   -0.8588    0.1418 C   0  0  0  0  0  0  0  0  0  0  0  0
   -1.8580    0.8778    0.2773 C   0  0  0  0  0  0  0  0  0  0  0  0
   -2.6389   -1.2859   -0.4614 C   0  0  0  0  0  0  0  0  0  0  0  0
    3.7343    0.9164   -0.2278 C   0  0  0  0  0  0  0  0  0  0  0  0
   -2.8932    0.0525   -0.1619 C   0  0  0  0  0  0  0  0  0  0  0  0
    3.6821    2.3844   -0.5982 C   0  0  0  0  0  0  0  0  0  0  0  0
  1 10  1  0
  2 13  1  0
  3  6  1  0
  3  9  1  0
  4  9  2  0
  4 12  1  0
  5  9  1  0
  6  7  2  0
  6  8  1  0
  7 10  1  0
  8 11  2  0
 10 13  2  0
 11 13  1  0
 12 14  1  0
M  END
>  <PUBCHEM_COMPOUND_CID>  (1) 
28795

>  <PUBCHEM_CONFORMER_RMSD>  (1) 
0.6

>  <PUBCHEM_CONFORMER_DIVERSEORDER>  (1) 
1
14
30
31
23
18
16
6
22
8
21
3
24
20
32
13
7
15
9
25
4
29
19
5
26
28
17
10
27
2
11
12

>  <PUBCHEM_MMFF94_PARTIAL_CHARGES>  (1) 
19
1 -0.18
10 0.18
11 -0.15
12 0.25
13 0.18
15 0.4
16 0.15
17 0.15
2 -0.18
20 0.15
24 0.4
25 0.4
3 -0.55
4 -0.7
5 -0.85
6 0.1
7 -0.15
8 -0.15
9 0.55

>  <PUBCHEM_EFFECTIVE_ROTOR_COUNT>  (1) 
3

>  <PUBCHEM_PHARMACOPHORE_FEATURES>  (1) 
4
1 3 donor
1 5 donor
4 3 4 5 9 cation
6 6 7 8 10 11 13 rings

>  <PUBCHEM_HEAVY_ATOM_COUNT>  (1) 
14

>  <PUBCHEM_ATOM_DEF_STEREO_COUNT>  (1) 
0

>  <PUBCHEM_ATOM_UDEF_STEREO_COUNT>  (1) 
0

>  <PUBCHEM_BOND_DEF_STEREO_COUNT>  (1) 
0

>  <PUBCHEM_BOND_UDEF_STEREO_COUNT>  (1) 
0

>  <PUBCHEM_ISOTOPIC_ATOM_COUNT>  (1) 
0

>  <PUBCHEM_COMPONENT_COUNT>  (1) 
1

>  <PUBCHEM_CACTVS_TAUTO_COUNT>  (1) 
3

>  <PUBCHEM_CONFORMER_ID>  (1) 
0000707B00000001

>  <PUBCHEM_MMFF94_ENERGY>  (1) 
41.9813

>  <PUBCHEM_FEATURE_SELFOVERLAP>  (1) 
20.356

>  <PUBCHEM_SHAPE_FINGERPRINT>  (1) 
10498660 4 18339927137784294004
12162725 195 18339922615062009194
12173636 292 18272082782146243629
14250199 8 18409451353968071414
14787075 74 18043818808348908051
14897335 6 18409727382989502166
15342168 16 17749679600505525924
15442244 35 18266176132968099578
15536298 74 18412826880730436142
15669948 3 18130218358586256959
15775835 57 18409733975616634556
16945 1 18272084959926933443
17834072 32 18123191199817413737
18186145 218 17676480640283587302
20671657 1 18336552629646018430
20871999 31 18200020893489497919
21501502 16 18412825767985785842
22959321 54 18409731763571456920
23402539 116 18129363931199181303
23557571 272 18127703822716912198
23559900 14 18343297042450389890
25610 137 18410296951587721083
2748010 2 16394654265020599385
474 4 17894916277810174372
526903 126 18267588103097699872
537710 114 18341892996066088897
57096353 35 18269268126652230966
58051976 378 18343864411708497990
7364860 26 18412545380137292230
8199 26 18410016567427552764
9981440 41 18046622580448371872

>  <PUBCHEM_SHAPE_MULTIPOLES>  (1) 
276.91
7.53
2.5
0.74
2.42
0.92
-0.01
2.87
-1.26
0.72
0.1
-0.05
0.12
-1.03

>  <PUBCHEM_SHAPE_SELFOVERLAP>  (1) 
546.469

>  <PUBCHEM_SHAPE_VOLUME>  (1) 
165.7

>  <PUBCHEM_COORDINATE_TYPE>  (1) 
2
5
10

$$$$
