28801
     RDKit          3D

 19 20  0  0  1  0  0  0  0  0999 V2000
    1.0323    0.1093   -0.1979 O   0  0  0  0  0  0  0  0  0  0  0  0
   -0.3211    0.5857    1.5830 O   0  0  0  0  0  0  0  0  0  0  0  0
    4.6708    0.3817    0.4890 N   0  0  0  0  0  0  0  0  0  0  0  0
   -1.1906   -0.0763   -0.4873 N   0  0  0  0  0  0  0  0  0  0  0  0
    3.4189    0.1978   -0.2582 C   0  0  0  0  0  0  0  0  0  0  0  0
    3.5359   -1.2418   -0.7636 C   0  0  0  0  0  0  0  0  0  0  0  0
    5.0320   -1.5327   -0.8082 C   0  0  0  0  0  0  0  0  0  0  0  0
    5.7004   -0.2515   -0.3388 C   0  0  0  0  0  0  0  0  0  0  0  0
    2.1715    0.3987    0.5929 C   0  0  0  0  0  0  0  0  0  0  0  0
    4.9848    1.7804    0.7544 C   0  0  0  0  0  0  0  0  0  0  0  0
   -0.1934    0.2393    0.4150 C   0  0  0  0  0  0  0  0  0  0  0  0
   -2.5882   -0.0747   -0.2758 C   0  0  0  0  0  0  0  0  0  0  0  0
   -3.2125   -1.2297    0.1742 C   0  0  0  0  0  0  0  0  0  0  0  0
   -3.3152    1.0816   -0.5219 C   0  0  0  0  0  0  0  0  0  0  0  0
   -4.5918   -1.2285    0.3819 C   0  0  0  0  0  0  0  0  0  0  0  0
   -4.6945    1.0828   -0.3140 C   0  0  0  0  0  0  0  0  0  0  0  0
   -2.4462   -2.4842    0.4438 C   0  0  0  0  0  0  0  0  0  0  0  0
   -2.6602    2.3345   -1.0065 C   0  0  0  0  0  0  0  0  0  0  0  0
   -5.3327   -0.0723    0.1379 C   0  0  0  0  0  0  0  0  0  0  0  0
  1  9  1  0
  1 11  1  0
  2 11  2  0
  3  5  1  0
  3  8  1  0
  3 10  1  0
  4 11  1  0
  4 12  1  0
  5  6  1  0
  5  9  1  0
  6  7  1  0
  7  8  1  0
 12 13  2  0
 12 14  1  0
 13 15  1  0
 13 17  1  0
 14 16  2  0
 14 18  1  0
 15 19  2  0
 16 19  1  0
M  END
>  <PUBCHEM_COMPOUND_CID>  (1) 
28801

>  <PUBCHEM_CONFORMER_RMSD>  (1) 
0.8

>  <PUBCHEM_CONFORMER_DIVERSEORDER>  (1) 
1
7
48
53
50
27
24
33
18
19
25
54
55
36
12
40
13
34
15
11
30
4
52
42
31
49
22
5
44
41
23
46
43
9
2
14
35
37
29
20
21
3
26
38
39
6
47
16
51
28
10
32
8
45
17

>  <PUBCHEM_MMFF94_PARTIAL_CHARGES>  (1) 
21
1 -0.43
10 0.27
11 0.78
12 0.12
13 -0.14
14 -0.14
15 -0.15
16 -0.15
17 0.14
18 0.14
19 -0.15
2 -0.57
3 -0.81
32 0.37
33 0.15
34 0.15
4 -0.55
41 0.15
5 0.27
8 0.27
9 0.28

>  <PUBCHEM_EFFECTIVE_ROTOR_COUNT>  (1) 
6

>  <PUBCHEM_PHARMACOPHORE_FEATURES>  (1) 
5
1 2 acceptor
1 3 cation
1 4 donor
5 3 5 6 7 8 rings
6 12 13 14 15 16 19 rings

>  <PUBCHEM_HEAVY_ATOM_COUNT>  (1) 
19

>  <PUBCHEM_ATOM_DEF_STEREO_COUNT>  (1) 
0

>  <PUBCHEM_ATOM_UDEF_STEREO_COUNT>  (1) 
1

>  <PUBCHEM_BOND_DEF_STEREO_COUNT>  (1) 
0

>  <PUBCHEM_BOND_UDEF_STEREO_COUNT>  (1) 
0

>  <PUBCHEM_ISOTOPIC_ATOM_COUNT>  (1) 
0

>  <PUBCHEM_COMPONENT_COUNT>  (1) 
1

>  <PUBCHEM_CACTVS_TAUTO_COUNT>  (1) 
2

>  <PUBCHEM_CONFORMER_ID>  (1) 
0000708100000001

>  <PUBCHEM_MMFF94_ENERGY>  (1) 
62.5583

>  <PUBCHEM_FEATURE_SELFOVERLAP>  (1) 
25.371

>  <PUBCHEM_SHAPE_FINGERPRINT>  (1) 
10680689 15 18187369821978115705
10835480 77 18271801345782566848
11287383 113 18410855481993505432
12107183 9 17321250226171289368
12236239 1 16805322180170087237
12390115 104 18193277395614140317
12596602 18 14476950207910900918
12916748 109 18040999535490537024
13167823 11 18113613465612182234
13533116 47 17632017460194175286
13675066 3 18343299292801743348
13760787 5 16917347039374234828
14251764 18 17418381307435041307
14341114 176 18411422825424352260
14386348 63 18202286909159492846
14573314 32 18409730638453328550
15042514 8 18189623911922583947
15788980 27 18060415815926109118
15961568 22 17895475955431780676
17844677 252 18411143528244136408
19489759 90 18113336396955172040
200 152 17203327780264800994
20645477 56 18334574633565040477
20645477 70 17775570802080838326
21033650 10 17460331944952788644
21065201 7 18260261937089097250
21267235 1 18114188566571155819
2297311 6 18334583434221970981
23175994 123 17847063285638617305
23402539 116 17749385975055596503
23536379 177 18334013869918583000
23557571 272 18408890602964273820
23559900 14 18341891905297155832
239999 70 18343867710887219294
26918003 58 18202846556578365194
2838139 119 16128379208748622049
3004659 81 18409451358864626654
3545911 37 18412265038847019620
4073 2 18261115218548171098
4214541 1 18409449167581804380
5104073 3 18411136905198357770
5281201 14 18410857659700459516
5283173 99 18339360768994765656
542803 24 17704073992704936688

>  <PUBCHEM_SHAPE_MULTIPOLES>  (1) 
369.31
14.12
1.98
0.96
9.85
0.14
-0.09
0.41
0.83
-0.92
0.15
0.3
-0.15
1.8

>  <PUBCHEM_SHAPE_SELFOVERLAP>  (1) 
763.763

>  <PUBCHEM_SHAPE_VOLUME>  (1) 
214

>  <PUBCHEM_COORDINATE_TYPE>  (1) 
2
5
10

$$$$
