28800
     RDKit          3D

 19 20  0  0  1  0  0  0  0  0999 V2000
    2.3704    2.6868    0.4579 Cl  0  0  0  0  0  0  0  0  0  0  0  0
   -1.0272   -0.1181   -0.1977 O   0  0  0  0  0  0  0  0  0  0  0  0
    0.3264   -0.5718    1.5888 O   0  0  0  0  0  0  0  0  0  0  0  0
   -4.6657   -0.3817    0.4929 N   0  0  0  0  0  0  0  0  0  0  0  0
    1.1957    0.0640   -0.4898 N   0  0  0  0  0  0  0  0  0  0  0  0
   -3.4138   -0.2074   -0.2567 C   0  0  0  0  0  0  0  0  0  0  0  0
   -3.5309    1.2257   -0.7802 C   0  0  0  0  0  0  0  0  0  0  0  0
   -5.0270    1.5162   -0.8285 C   0  0  0  0  0  0  0  0  0  0  0  0
   -5.6953    0.2409   -0.3427 C   0  0  0  0  0  0  0  0  0  0  0  0
   -2.1663   -0.3974    0.5968 C   0  0  0  0  0  0  0  0  0  0  0  0
   -4.9796   -1.7770    0.7761 C   0  0  0  0  0  0  0  0  0  0  0  0
    0.1985   -0.2402    0.4165 C   0  0  0  0  0  0  0  0  0  0  0  0
    2.5932    0.0650   -0.2783 C   0  0  0  0  0  0  0  0  0  0  0  0
    3.3091   -1.1013   -0.5127 C   0  0  0  0  0  0  0  0  0  0  0  0
    3.2311    1.2187    0.1568 C   0  0  0  0  0  0  0  0  0  0  0  0
    4.6889   -1.1140   -0.3081 C   0  0  0  0  0  0  0  0  0  0  0  0
    2.6421   -2.3541   -0.9814 C   0  0  0  0  0  0  0  0  0  0  0  0
    4.6108    1.2060    0.3615 C   0  0  0  0  0  0  0  0  0  0  0  0
    5.3397    0.0396    0.1289 C   0  0  0  0  0  0  0  0  0  0  0  0
  1 15  1  0
  2 10  1  0
  2 12  1  0
  3 12  2  0
  4  6  1  0
  4  9  1  0
  4 11  1  0
  5 12  1  0
  5 13  1  0
  6  7  1  0
  6 10  1  0
  7  8  1  0
  8  9  1  0
 13 14  2  0
 13 15  1  0
 14 16  1  0
 14 17  1  0
 15 18  2  0
 16 19  2  0
 18 19  1  0
M  END
>  <PUBCHEM_COMPOUND_CID>  (1) 
28800

>  <PUBCHEM_CONFORMER_RMSD>  (1) 
0.8

>  <PUBCHEM_CONFORMER_DIVERSEORDER>  (1) 
2
14
114
126
116
132
136
119
98
121
108
83
71
129
104
23
1
32
131
120
125
75
93
35
107
117
7
30
74
13
66
48
82
36
52
21
94
62
90
29
138
106
26
134
86
95
8
135
49
123
24
124
130
84
73
115
4
38
140
59
60
79
81
64
61
10
133
50
103
118
128
9
63
3
110
20
22
96
70
69
43
31
41
122
19
127
33
39
67
25
6
40
109
101
42
44
53
87
18
137
89
102
57
58
78
139
51
17
5
76
91
77
72
12
105
112
80
88
68
45
56
11
34
111
65
55
16
113
54
28
15
85
27
100
92
37
47
46
97
99

>  <PUBCHEM_MMFF94_PARTIAL_CHARGES>  (1) 
21
1 -0.18
10 0.28
11 0.27
12 0.78
13 0.12
14 -0.14
15 0.18
16 -0.15
17 0.14
18 -0.15
19 -0.15
2 -0.43
3 -0.57
32 0.37
33 0.15
37 0.15
38 0.15
4 -0.81
5 -0.55
6 0.27
9 0.27

>  <PUBCHEM_EFFECTIVE_ROTOR_COUNT>  (1) 
6

>  <PUBCHEM_PHARMACOPHORE_FEATURES>  (1) 
5
1 3 acceptor
1 4 cation
1 5 donor
5 4 6 7 8 9 rings
6 13 14 15 16 18 19 rings

>  <PUBCHEM_HEAVY_ATOM_COUNT>  (1) 
19

>  <PUBCHEM_ATOM_DEF_STEREO_COUNT>  (1) 
0

>  <PUBCHEM_ATOM_UDEF_STEREO_COUNT>  (1) 
1

>  <PUBCHEM_BOND_DEF_STEREO_COUNT>  (1) 
0

>  <PUBCHEM_BOND_UDEF_STEREO_COUNT>  (1) 
0

>  <PUBCHEM_ISOTOPIC_ATOM_COUNT>  (1) 
0

>  <PUBCHEM_COMPONENT_COUNT>  (1) 
1

>  <PUBCHEM_CACTVS_TAUTO_COUNT>  (1) 
2

>  <PUBCHEM_CONFORMER_ID>  (1) 
0000708000000002

>  <PUBCHEM_MMFF94_ENERGY>  (1) 
60.8961

>  <PUBCHEM_FEATURE_SELFOVERLAP>  (1) 
25.371

>  <PUBCHEM_SHAPE_FINGERPRINT>  (1) 
11287383 113 18410294730736311531
11471102 20 18343302565883437828
12107183 9 17410227109421852203
12236239 1 16845575300931570814
12596602 18 14490484096510841413
12916748 109 17894916217654018017
13533116 47 16343427211720415822
13675066 3 18333734641146451671
14251764 18 17313097571527841456
14573314 32 18334576815297527309
14863182 85 15769782325611390932
15788980 27 18272930531354617375
15961568 22 17531813583523558316
17834072 33 18273492394718366047
17844677 252 18412270540700288169
19433438 28 18260548952658204081
19489759 90 17675923205637425105
200 152 17775003466337962528
20645477 56 18333730226241824719
20645477 70 18202289065475876718
21315763 129 18334573559675594829
21709351 56 18342733056960977190
221357 26 18411975837108638173
22289505 5 18411415077672732516
23402539 116 18113614599393669615
23536379 177 18342738490379488251
23557571 272 18187368744368559685
23559900 14 18412542119565738993
2916195 48 18260261988286222592
29717793 49 16988849341475062356
3060560 45 18131918165735956462
33824 294 18341895173952254550
351380 180 18408321098758863557
3545911 37 18341896307084674644
4072396 5 18339911655191673946
4073 2 18113624511946379275
4214541 1 18408604760327251285
441001 317 18333729092455296261
495365 180 18129935797605111416
4990 188 18260832574659724179
5104073 3 18410012100508175617
5281201 14 18411704278968379189
5283173 99 18335980861814028201
542803 24 17675926503555136580
7164475 11 17273710762396448496
7495541 125 18340207487252369032
9995097 60 18412262843786311519

>  <PUBCHEM_SHAPE_MULTIPOLES>  (1) 
371.18
14.05
2.07
0.97
10.05
0.37
-0.1
0.18
0.86
-1.16
0.12
0.35
-0.13
1.8

>  <PUBCHEM_SHAPE_SELFOVERLAP>  (1) 
760.356

>  <PUBCHEM_SHAPE_VOLUME>  (1) 
217.1

>  <PUBCHEM_COORDINATE_TYPE>  (1) 
2
5
10

$$$$
