2880
     RDKit          3D

 22 24  0  0  0  0  0  0  0  0999 V2000
    4.1558    1.6301   -0.6789 Cl  0  0  0  0  0  0  0  0  0  0  0  0
   -0.4880   -1.5949    0.4302 O   0  0  0  0  0  0  0  0  0  0  0  0
   -0.7531    1.9388    0.3067 N   0  0  0  0  0  0  0  0  0  0  0  0
    0.1190    2.9535   -1.3967 N   0  0  0  0  0  0  0  0  0  0  0  0
   -2.3269   -0.0483    0.3930 C   0  0  0  0  0  0  0  0  0  0  0  0
   -1.7794   -1.2990    0.1074 C   0  0  0  0  0  0  0  0  0  0  0  0
   -1.5369    0.9861    1.0471 C   0  0  0  0  0  0  0  0  0  0  0  0
    0.3821   -1.9476   -0.6426 C   0  0  0  0  0  0  0  0  0  0  0  0
    1.7861   -1.5598   -0.2821 C   0  0  0  0  0  0  0  0  0  0  0  0
   -3.6506    0.2283    0.0509 C   0  0  0  0  0  0  0  0  0  0  0  0
   -2.5557   -2.2732   -0.5204 C   0  0  0  0  0  0  0  0  0  0  0  0
   -4.4268   -0.7459   -0.5768 C   0  0  0  0  0  0  0  0  0  0  0  0
   -3.8794   -1.9966   -0.8625 C   0  0  0  0  0  0  0  0  0  0  0  0
    2.2580   -0.2941   -0.6117 C   0  0  0  0  0  0  0  0  0  0  0  0
    2.6020   -2.4699    0.3807 C   0  0  0  0  0  0  0  0  0  0  0  0
   -0.0174    2.8994    0.8651 C   0  0  0  0  0  0  0  0  0  0  0  0
   -0.6717    1.9717   -1.0238 C   0  0  0  0  0  0  0  0  0  0  0  0
   -1.6039    0.9713    2.4040 C   0  0  0  0  0  0  0  0  0  0  0  0
    3.5626    0.0661   -0.2742 C   0  0  0  0  0  0  0  0  0  0  0  0
    3.9066   -2.1096    0.7180 C   0  0  0  0  0  0  0  0  0  0  0  0
    4.3869   -0.8417    0.3906 C   0  0  0  0  0  0  0  0  0  0  0  0
    0.5307    3.5354   -0.2239 C   0  0  0  0  0  0  0  0  0  0  0  0
  1 19  1  0
  2  6  1  0
  2  8  1  0
  3  7  1  0
  3 16  1  0
  3 17  1  0
  4 17  2  0
  4 22  1  0
  5  6  1  0
  5  7  1  0
  5 10  2  0
  6 11  2  0
  7 18  2  0
  8  9  1  0
  9 14  2  0
  9 15  1  0
 10 12  1  0
 11 13  1  0
 12 13  2  0
 14 19  1  0
 15 20  2  0
 16 22  2  0
 19 21  2  0
 20 21  1  0
M  END
>  <PUBCHEM_COMPOUND_CID>  (1) 
2880

>  <PUBCHEM_CONFORMER_RMSD>  (1) 
0.8

>  <PUBCHEM_CONFORMER_DIVERSEORDER>  (1) 
1
245
223
184
146
91
96
241
48
233
220
151
33
51
18
150
166
207
12
105
81
98
44
180
28
206
214
129
178
127
208
240
148
29
121
80
143
217
109
179
230
224
163
186
176
194
126
136
55
59
130
147
177
246
144
64
199
87
45
57
195
228
165
123
16
132
209
145
231
236
27
62
182
149
73
212
192
99
161
185
26
226
7
215
133
92
49
3
43
197
242
219
125
216
203
69
155
50
139
170
152
90
4
134
41
239
189
160
66
234
106
8
40
169
167
39
210
183
175
172
35
193
225
156
174
88
65
188
159
128
218
198
235
238
9
158
74
56
153
131
97
31
187
173
221
119
34
211
142
135
222
100
23
13
5
42
75
82
67
227
37
68
114
83
2
60
141
171
46
30
162
154
232
213
229
36
200
25
58
76
191
11
140
72
53
168
190
108
54
14
104
84
202
101
85
116
164
22
201
79
137
63
17
117
122
70
77
120
196
10
71
93
204
61
115
103
21
124
181
157
19
89
32
94
237
243
52
20
110
95
138
112
6
47
107
118
244
78
86
15
102
111
38
113
205
24

>  <PUBCHEM_MMFF94_PARTIAL_CHARGES>  (1) 
35
1 -0.18
10 -0.15
11 -0.15
12 -0.15
13 -0.15
14 -0.15
15 -0.15
16 -0.3
17 0.04
18 -0.3
19 0.18
2 -0.36
20 -0.15
21 -0.15
22 0.08
25 0.15
26 0.15
27 0.15
28 0.15
29 0.15
3 0.33
30 0.15
31 0.15
32 0.15
33 0.15
34 0.15
35 0.15
36 0.15
37 0.15
4 -0.57
5 0.03
6 0.08
7 -0.06
8 0.42
9 -0.14

>  <PUBCHEM_EFFECTIVE_ROTOR_COUNT>  (1) 
5

>  <PUBCHEM_PHARMACOPHORE_FEATURES>  (1) 
5
1 2 acceptor
3 3 4 17 cation
5 3 4 16 17 22 rings
6 5 6 10 11 12 13 rings
6 9 14 15 19 20 21 rings

>  <PUBCHEM_HEAVY_ATOM_COUNT>  (1) 
22

>  <PUBCHEM_ATOM_DEF_STEREO_COUNT>  (1) 
0

>  <PUBCHEM_ATOM_UDEF_STEREO_COUNT>  (1) 
0

>  <PUBCHEM_BOND_DEF_STEREO_COUNT>  (1) 
0

>  <PUBCHEM_BOND_UDEF_STEREO_COUNT>  (1) 
0

>  <PUBCHEM_ISOTOPIC_ATOM_COUNT>  (1) 
0

>  <PUBCHEM_COMPONENT_COUNT>  (1) 
1

>  <PUBCHEM_CACTVS_TAUTO_COUNT>  (1) 
1

>  <PUBCHEM_CONFORMER_ID>  (1) 
00000B4000000001

>  <PUBCHEM_MMFF94_ENERGY>  (1) 
69.3678

>  <PUBCHEM_FEATURE_SELFOVERLAP>  (1) 
25.373

>  <PUBCHEM_SHAPE_FINGERPRINT>  (1) 
10165383 225 16761450330439542480
10498660 4 18411425007583957718
10670039 82 18337122190060556478
10708813 3 18270127931987070920
10871710 139 18337687325050005268
1100329 8 17835524100051760566
11045515 52 18333444331474871279
11112241 14 16339467006427573552
11582403 64 15871381357240949357
12156800 1 16593038310792043372
12166972 35 18040719203080856542
12403259 226 18270673148447671626
12403814 3 18266746775075904281
12422481 6 17687495393795780417
12553582 1 18337409183131258080
12596599 1 17916606249133270804
12633257 1 18056770819005754592
13004483 165 18337663114493242475
13140716 1 18337121063624298219
138480 1 14664421982732967860
14117953 113 18125440813143962741
14142880 1 18056200176871375225
14251757 17 17532910767146359391
14790565 3 17908707229130994273
14955137 171 18126879099376734451
167882 2 18118963843621995237
17492 54 18190185770320809244
18785283 64 17899715727980758721
19591789 44 16464742208505635627
20715895 44 17829599570640356085
20905425 154 17190953064404141055
21524375 3 16891745727006871569
23352939 185 18412259550036947393
23402539 116 18342728598785612199
23419403 2 17772154662002181881
23557571 272 17988361468762611670
350125 39 17548708382732047211
5265222 85 16971106852708329464
81228 2 18197512735361919435

>  <PUBCHEM_SHAPE_MULTIPOLES>  (1) 
438.79
7.67
3.89
1.27
2.33
2.38
0.5
-4.24
-0.7
0.83
-0.45
-0.45
0.56
-1.41

>  <PUBCHEM_SHAPE_SELFOVERLAP>  (1) 
948.944

>  <PUBCHEM_SHAPE_VOLUME>  (1) 
242.7

>  <PUBCHEM_COORDINATE_TYPE>  (1) 
2
5
10

$$$$
