28807
     RDKit          3D

 20 20  0  0  0  0  0  0  0  0999 V2000
   -1.9727   -0.6537    1.0631 O   0  0  0  0  0  0  0  0  0  0  0  0
   -2.4129    0.1492   -1.0751 O   0  0  0  0  0  0  0  0  0  0  0  0
    4.4468   -0.9470   -0.6125 O   0  0  0  0  0  0  0  0  0  0  0  0
   -3.9645    0.3166    0.6401 N   0  0  0  0  0  0  0  0  0  0  0  0
    2.6734    0.2990    0.3036 N   0  0  0  0  0  0  0  0  0  0  0  0
   -5.0176    0.9798   -0.1073 C   0  0  0  0  0  0  0  0  0  0  0  0
   -6.2163    1.2262    0.8161 C   0  0  0  0  0  0  0  0  0  0  0  0
   -4.4892    2.3161   -0.6390 C   0  0  0  0  0  0  0  0  0  0  0  0
   -5.4464    0.0884   -1.2785 C   0  0  0  0  0  0  0  0  0  0  0  0
   -2.7561   -0.0403    0.0881 C   0  0  0  0  0  0  0  0  0  0  0  0
   -0.7165   -1.0562    0.5991 C   0  0  0  0  0  0  0  0  0  0  0  0
    0.3349   -0.1720    0.6881 C   0  0  0  0  0  0  0  0  0  0  0  0
    1.5879   -0.5741    0.2254 C   0  0  0  0  0  0  0  0  0  0  0  0
   -0.5818   -2.3209    0.0721 C   0  0  0  0  0  0  0  0  0  0  0  0
    1.7560   -1.8495   -0.3139 C   0  0  0  0  0  0  0  0  0  0  0  0
    0.6713   -2.7229   -0.3904 C   0  0  0  0  0  0  0  0  0  0  0  0
    3.9949    0.0727   -0.1051 C   0  0  0  0  0  0  0  0  0  0  0  0
    4.8616    1.2617    0.1495 C   0  0  0  0  0  0  0  0  0  0  0  0
    6.1616    1.2377   -0.1745 C   0  0  0  0  0  0  0  0  0  0  0  0
    7.0857    2.3895    0.0512 C   0  0  0  0  0  0  0  0  0  0  0  0
  1 10  1  0
  1 11  1  0
  2 10  2  0
  3 17  2  0
  4  6  1  0
  4 10  1  0
  5 13  1  0
  5 17  1  0
  6  7  1  0
  6  8  1  0
  6  9  1  0
 11 12  2  0
 11 14  1  0
 12 13  1  0
 13 15  2  0
 14 16  2  0
 15 16  1  0
 17 18  1  0
 18 19  2  0
 19 20  1  0
M  END
>  <PUBCHEM_COMPOUND_CID>  (1) 
28807

>  <PUBCHEM_CONFORMER_RMSD>  (1) 
0.8

>  <PUBCHEM_CONFORMER_DIVERSEORDER>  (1) 
1
31
35
27
24
65
51
69
7
18
28
43
23
37
70
9
22
14
59
41
72
26
48
25
8
12
64
42
34
63
60
6
49
15
30
32
58
47
29
66
5
10
19
21
40
67
2
62
55
11
3
45
44
54
57
16
53
17
46
61
36
38
71
4
33
50
13
68
20
52
56
39

>  <PUBCHEM_MMFF94_PARTIAL_CHARGES>  (1) 
25
1 -0.23
10 0.78
11 0.08
12 -0.15
13 0.12
14 -0.15
15 -0.15
16 -0.15
17 0.62
18 -0.14
19 -0.29
2 -0.57
20 0.14
3 -0.57
30 0.37
31 0.15
32 0.15
33 0.15
34 0.15
35 0.37
36 0.15
37 0.15
4 -0.73
5 -0.55
6 0.3

>  <PUBCHEM_EFFECTIVE_ROTOR_COUNT>  (1) 
7

>  <PUBCHEM_PHARMACOPHORE_FEATURES>  (1) 
7
1 2 acceptor
1 20 hydrophobe
1 3 acceptor
1 4 donor
1 5 donor
4 6 7 8 9 hydrophobe
6 11 12 13 14 15 16 rings

>  <PUBCHEM_HEAVY_ATOM_COUNT>  (1) 
20

>  <PUBCHEM_ATOM_DEF_STEREO_COUNT>  (1) 
0

>  <PUBCHEM_ATOM_UDEF_STEREO_COUNT>  (1) 
0

>  <PUBCHEM_BOND_DEF_STEREO_COUNT>  (1) 
0

>  <PUBCHEM_BOND_UDEF_STEREO_COUNT>  (1) 
1

>  <PUBCHEM_ISOTOPIC_ATOM_COUNT>  (1) 
0

>  <PUBCHEM_COMPONENT_COUNT>  (1) 
1

>  <PUBCHEM_CACTVS_TAUTO_COUNT>  (1) 
4

>  <PUBCHEM_CONFORMER_ID>  (1) 
0000708700000001

>  <PUBCHEM_MMFF94_ENERGY>  (1) 
55.776

>  <PUBCHEM_FEATURE_SELFOVERLAP>  (1) 
35.52

>  <PUBCHEM_SHAPE_FINGERPRINT>  (1) 
10 15 17968100845174944368
10014705 185 18340490079564161362
11796584 16 13038895608510524141
12236239 1 17775566403870562511
12293681 160 17846782909999312258
12403259 118 17750243663003078350
12403259 415 18337968843277283490
12507557 5 16950286200519636709
12633257 1 15719397265071107862
12730499 353 18338526244206889579
12892183 10 15502642755174867034
12895836 83 18339639040104760432
13103583 49 10881682360878764167
13257819 101 18187354415856591950
13288520 33 9943534011116812123
13540713 4 18267608908188975930
13631057 29 18128809915200372031
13685833 64 10231751201972249661
13740256 8 9655574119326202850
13955234 65 18117280246301487090
14123256 34 10231756716715798860
14420673 8 9943808906779106037
14528608 73 18272929418773386829
15061688 2 18408606959145259306
15183329 4 16415484830710346169
15188451 53 13551484695828750569
167882 2 18341897334110210686
17780758 139 11891326552330189869
17870717 6 14045740422420923973
17980427 23 17676775386756703127
18222031 100 13254799036525302322
20281389 69 18186518813354041056
20374829 77 12103555360692099407
20554085 129 17703776038962436154
20612939 158 18200596878098969291
20621476 66 18410014377342391420
20645477 56 18336827588956803074
21307412 95 12031781462356607117
21637258 2 11312060924537166016
22224240 67 18041000644277739507
22950370 63 9223228568052329746
23402655 69 18131630071407722063
23559900 14 10879408609540320443
270888 7 18409446968601045556
2767999 5 18408317800429702092
2838139 119 18335976528223447892
2916195 48 18186802452793574929
293599 30 18411138052250089136
314194 84 8214130846421854384
34934 24 18335980961120073954
351380 3 9583520906223878344
5104073 3 17967537826776308011
5283384 27 17968085426585275781
543368 44 18343585127682365145
5718773 13 9871484093077654892
59682541 35 18114474431131193593
59682541 52 17274840021558469780
6327066 14 18410290345928214844
636775 8 8718563744239114528
77188 2 17471568829024507378

>  <PUBCHEM_SHAPE_MULTIPOLES>  (1) 
384.02
16.37
2.49
0.93
7.62
0.53
0.06
-15.84
1.31
1.4
0.27
-0.94
-0.02
0.3

>  <PUBCHEM_SHAPE_SELFOVERLAP>  (1) 
784.515

>  <PUBCHEM_SHAPE_VOLUME>  (1) 
220.9

>  <PUBCHEM_COORDINATE_TYPE>  (1) 
2
5
10

$$$$
