2881
     RDKit          3D

 34 37  0  0  0  0  0  0  0  0999 V2000
   -2.0040   -2.3928    0.7793 O   0  0  0  0  0  0  0  0  0  0  0  0
    1.0567   -2.9695   -0.6442 O   0  0  0  0  0  0  0  0  0  0  0  0
   -2.0066   -4.9364   -0.3547 O   0  0  0  0  0  0  0  0  0  0  0  0
   -2.4483    2.4353    0.8284 O   0  0  0  0  0  0  0  0  0  0  0  0
    3.2237    1.3620   -0.8746 O   0  0  0  0  0  0  0  0  0  0  0  0
   -2.7363   -1.0010   -1.3495 O   0  0  0  0  0  0  0  0  0  0  0  0
    2.2844   -1.8711    1.4275 O   0  0  0  0  0  0  0  0  0  0  0  0
   -2.9997    4.7556   -0.3412 O   0  0  0  0  0  0  0  0  0  0  0  0
    4.6023    3.3593    0.2053 O   0  0  0  0  0  0  0  0  0  0  0  0
   -3.4663    3.7325   -2.3336 O   0  0  0  0  0  0  0  0  0  0  0  0
    4.7026    2.3018    2.2314 O   0  0  0  0  0  0  0  0  0  0  0  0
   -0.7849   -4.3440    0.0929 C   0  0  0  0  0  0  0  0  0  0  0  0
   -1.1130   -3.4043    1.2457 C   0  0  0  0  0  0  0  0  0  0  0  0
   -0.1483   -3.5955   -1.0725 C   0  0  0  0  0  0  0  0  0  0  0  0
   -1.9440   -1.1813    1.3988 C   0  0  0  0  0  0  0  0  0  0  0  0
    1.4313   -1.8338   -1.3113 C   0  0  0  0  0  0  0  0  0  0  0  0
   -2.2427    0.0150    0.7428 C   0  0  0  0  0  0  0  0  0  0  0  0
    2.1545   -0.8137   -0.6982 C   0  0  0  0  0  0  0  0  0  0  0  0
   -2.1654    1.2310    1.4240 C   0  0  0  0  0  0  0  0  0  0  0  0
    2.5115    0.3243   -1.4236 C   0  0  0  0  0  0  0  0  0  0  0  0
   -1.5667   -1.1529    2.7421 C   0  0  0  0  0  0  0  0  0  0  0  0
    1.0630   -1.7199   -2.6490 C   0  0  0  0  0  0  0  0  0  0  0  0
   -2.6439    0.0155   -0.6752 C   0  0  0  0  0  0  0  0  0  0  0  0
    2.5549   -0.9132    0.7165 C   0  0  0  0  0  0  0  0  0  0  0  0
   -1.7879    1.2559    2.7667 C   0  0  0  0  0  0  0  0  0  0  0  0
    2.1437    0.4413   -2.7640 C   0  0  0  0  0  0  0  0  0  0  0  0
   -1.4887    0.0624    3.4245 C   0  0  0  0  0  0  0  0  0  0  0  0
    1.4191   -0.5823   -3.3754 C   0  0  0  0  0  0  0  0  0  0  0  0
   -2.9377    1.3353   -1.2691 C   0  0  0  0  0  0  0  0  0  0  0  0
    3.3193    0.2279    1.2594 C   0  0  0  0  0  0  0  0  0  0  0  0
   -2.8223    2.4203   -0.4971 C   0  0  0  0  0  0  0  0  0  0  0  0
    3.5915    1.2548    0.4485 C   0  0  0  0  0  0  0  0  0  0  0  0
   -3.1252    3.7650   -1.1167 C   0  0  0  0  0  0  0  0  0  0  0  0
    4.3737    2.4165    1.0160 C   0  0  0  0  0  0  0  0  0  0  0  0
  1 13  1  0
  1 15  1  0
  2 14  1  0
  2 16  1  0
  3 12  1  0
  4 19  1  0
  4 31  1  0
  5 20  1  0
  5 32  1  0
  6 23  2  0
  7 24  2  0
  8 33  1  0
  9 34  1  0
 10 33  2  0
 11 34  2  0
 12 13  1  0
 12 14  1  0
 15 17  1  0
 15 21  2  0
 16 18  1  0
 16 22  2  0
 17 19  2  0
 17 23  1  0
 18 20  2  0
 18 24  1  0
 19 25  1  0
 20 26  1  0
 21 27  1  0
 22 28  1  0
 23 29  1  0
 24 30  1  0
 25 27  2  0
 26 28  2  0
 29 31  2  0
 30 32  2  0
 31 33  1  0
 32 34  1  0
M  CHG  2   8  -1   9  -1
M  END
>  <PUBCHEM_COMPOUND_CID>  (1) 
2881

>  <PUBCHEM_CONFORMER_RMSD>  (1) 
1

>  <PUBCHEM_CONFORMER_DIVERSEORDER>  (1) 
2
16
190
151
198
76
91
38
185
77
130
148
43
109
27
41
85
143
94
59
1
7
101
194
175
11
67
84
32
45
88
25
126
62
189
146
199
14
31
174
49
19
153
48
141
37
55
140
97
127
200
23
33
69
39
36
57
191
169
60
170
5
4
53
54
145
98
42
155
104
87
68
160
3
161
100
119
134
181
147
106
157
195
79
138
192
58
180
171
51
66
90
95
28
112
9
92
197
188
129
139
137
178
125
15
135
108
13
149
10
128
63
26
165
167
117
131
111
50
122
65
113
176
107
17
82
183
196
118
8
21
186
123
162
193
184
34
30
105
35
154
144
115
152
18
166
20
179
132
120
93
74
182
44
72
12
81
40
164
46
163
103
56
172
158
47
121
71
156
133
187
75
150
52
64
96
114
99
83
102
89
80
136
177
24
173
142
124
29
86
116
159
78
61
110
73
70
168
6
22

>  <PUBCHEM_MMFF94_PARTIAL_CHARGES>  (1) 
43
1 -0.36
10 -0.9
11 -0.9
12 0.28
13 0.28
14 0.28
15 0.08
16 0.08
17 0.09
18 0.09
19 0.08
2 -0.36
20 0.08
21 -0.15
22 -0.15
23 0.47
24 0.47
25 -0.15
26 -0.15
27 -0.15
28 -0.15
29 -0.14
3 -0.68
30 -0.14
31 -0.17
32 -0.17
33 1.05
34 1.05
4 -0.16
40 0.15
41 0.15
42 0.15
43 0.15
44 0.15
45 0.15
46 0.4
47 0.15
48 0.15
5 -0.16
6 -0.57
7 -0.57
8 -0.9
9 -0.9

>  <PUBCHEM_EFFECTIVE_ROTOR_COUNT>  (1) 
8

>  <PUBCHEM_PHARMACOPHORE_FEATURES>  (1) 
18
1 1 acceptor
1 10 acceptor
1 11 acceptor
1 2 acceptor
1 3 acceptor
1 3 donor
1 4 acceptor
1 5 acceptor
1 6 acceptor
1 7 acceptor
1 8 acceptor
1 9 acceptor
3 8 10 33 anion
3 9 11 34 anion
6 15 17 19 21 25 27 rings
6 16 18 20 22 26 28 rings
6 4 17 19 23 29 31 rings
6 5 18 20 24 30 32 rings

>  <PUBCHEM_HEAVY_ATOM_COUNT>  (1) 
34

>  <PUBCHEM_ATOM_DEF_STEREO_COUNT>  (1) 
0

>  <PUBCHEM_ATOM_UDEF_STEREO_COUNT>  (1) 
0

>  <PUBCHEM_BOND_DEF_STEREO_COUNT>  (1) 
0

>  <PUBCHEM_BOND_UDEF_STEREO_COUNT>  (1) 
0

>  <PUBCHEM_ISOTOPIC_ATOM_COUNT>  (1) 
0

>  <PUBCHEM_COMPONENT_COUNT>  (1) 
1

>  <PUBCHEM_CACTVS_TAUTO_COUNT>  (1) 
1

>  <PUBCHEM_CONFORMER_ID>  (1) 
00000B4100000002

>  <PUBCHEM_MMFF94_ENERGY>  (1) 
108.4855

>  <PUBCHEM_FEATURE_SELFOVERLAP>  (1) 
91.567

>  <PUBCHEM_SHAPE_FINGERPRINT>  (1) 
10032420 55 17626904820944602269
10165383 225 17331182273513485655
12104220 1 17612581638285037264
12156800 1 15657676295683600975
128993 33 17769414622932758527
13761468 95 18055935405229103032
14114206 34 16760613619550399084
14114207 22 16103310767755785997
14279260 333 16407098761795447372
14415361 192 17176876000275660781
14468879 13 18408885105575147569
150020 26 16519639196377336825
15664445 248 13971670687554316347
17974551 9 17531809030973599706
18981168 100 18123218773053403139
20600515 1 17692544724240817287
21860390 5 17765698136465826262
238 59 17915182312549706505
35225 105 18269297745005582511
469060 322 17761780963046785242
4742675 86 16700903889200829080
550186 7 18126571356590986332
57527585 21 16987733444151556425
6287921 2 17052507933502060834
9981440 41 18337378383731108609

>  <PUBCHEM_SHAPE_MULTIPOLES>  (1) 
635.14
7.09
5.81
3.28
4.19
1.67
-0.08
-8.8
-0.76
-3.04
0.99
-0.03
-0.51
3.06

>  <PUBCHEM_SHAPE_SELFOVERLAP>  (1) 
1406.216

>  <PUBCHEM_SHAPE_VOLUME>  (1) 
335.8

>  <PUBCHEM_COORDINATE_TYPE>  (1) 
2
5
10

$$$$
