28818
     RDKit          3D

 17 18  0  0  0  0  0  0  0  0999 V2000
   -0.6144   -1.4846    0.0025 O   0  0  0  0  0  0  0  0  0  0  0  0
   -2.4049   -2.9072    0.0047 O   0  0  0  0  0  0  0  0  0  0  0  0
    2.1724   -1.1811    0.0006 C   0  0  0  0  0  0  0  0  0  0  0  0
    1.2565   -0.0029    0.0023 C   0  0  0  0  0  0  0  0  0  0  0  0
   -0.1306   -0.1610    0.0021 C   0  0  0  0  0  0  0  0  0  0  0  0
    3.6670   -0.7344   -0.0007 C   0  0  0  0  0  0  0  0  0  0  0  0
    1.9457   -2.0711   -1.2602 C   0  0  0  0  0  0  0  0  0  0  0  0
    2.0265   -2.1456    1.2236 C   0  0  0  0  0  0  0  0  0  0  0  0
    1.7932    1.2803    0.0026 C   0  0  0  0  0  0  0  0  0  0  0  0
   -1.0049    0.9268    0.0025 C   0  0  0  0  0  0  0  0  0  0  0  0
    0.9441    2.3857    0.0030 C   0  0  0  0  0  0  0  0  0  0  0  0
   -0.4445    2.2112    0.0029 C   0  0  0  0  0  0  0  0  0  0  0  0
   -2.4510    0.6674    0.0025 C   0  0  0  0  0  0  0  0  0  0  0  0
    1.5185    3.7630    0.0040 C   0  0  0  0  0  0  0  0  0  0  0  0
   -2.8826   -0.6017    0.0025 C   0  0  0  0  0  0  0  0  0  0  0  0
   -1.9730   -1.7598    0.0029 C   0  0  0  0  0  0  0  0  0  0  0  0
   -3.4179    1.8151    0.0021 C   0  0  0  0  0  0  0  0  0  0  0  0
  1  5  1  0
  1 16  1  0
  2 16  2  0
  3  4  1  0
  3  6  1  0
  3  7  1  0
  3  8  1  0
  4  5  2  0
  4  9  1  0
  5 10  1  0
  9 11  2  0
 10 12  2  0
 10 13  1  0
 11 12  1  0
 11 14  1  0
 13 15  2  0
 13 17  1  0
 15 16  1  0
M  END
>  <PUBCHEM_COMPOUND_CID>  (1) 
28818

>  <PUBCHEM_CONFORMER_RMSD>  (1) 
0.6

>  <PUBCHEM_CONFORMER_DIVERSEORDER>  (1) 
1

>  <PUBCHEM_MMFF94_PARTIAL_CHARGES>  (1) 
17
1 -0.23
10 0.03
11 -0.14
12 -0.15
13 -0.17
14 0.14
15 -0.14
16 0.71
17 0.14
2 -0.57
27 0.15
28 0.15
3 0.14
32 0.15
4 -0.14
5 0.08
9 -0.15

>  <PUBCHEM_EFFECTIVE_ROTOR_COUNT>  (1) 
1

>  <PUBCHEM_PHARMACOPHORE_FEATURES>  (1) 
4
1 2 acceptor
4 3 6 7 8 hydrophobe
6 1 5 10 13 15 16 rings
6 4 5 9 10 11 12 rings

>  <PUBCHEM_HEAVY_ATOM_COUNT>  (1) 
17

>  <PUBCHEM_ATOM_DEF_STEREO_COUNT>  (1) 
0

>  <PUBCHEM_ATOM_UDEF_STEREO_COUNT>  (1) 
0

>  <PUBCHEM_BOND_DEF_STEREO_COUNT>  (1) 
0

>  <PUBCHEM_BOND_UDEF_STEREO_COUNT>  (1) 
0

>  <PUBCHEM_ISOTOPIC_ATOM_COUNT>  (1) 
0

>  <PUBCHEM_COMPONENT_COUNT>  (1) 
1

>  <PUBCHEM_CACTVS_TAUTO_COUNT>  (1) 
1

>  <PUBCHEM_CONFORMER_ID>  (1) 
0000709200000001

>  <PUBCHEM_MMFF94_ENERGY>  (1) 
66.4083

>  <PUBCHEM_FEATURE_SELFOVERLAP>  (1) 
20.324

>  <PUBCHEM_SHAPE_FINGERPRINT>  (1) 
10693767 8 17624954060258771823
10967382 1 18266458698312478945
11578080 2 17242141666117703732
11680986 33 18341043111815798897
12382932 28 18340200804520665874
12553582 1 18338232648515574986
13083527 12 17904731695067431282
13132413 78 18411699868121388116
13140716 1 18267018547305411344
13380535 76 17400357240315943728
14022347 108 18049744926444830227
14178342 30 18339911727251680344
14223421 5 18192995043957016963
14648413 74 18410856602716303585
14790565 3 17907877110256922720
15375462 175 17762344612905425178
15375462 189 18114184073196743978
15442244 35 18411418423277812385
16752209 62 17688308984564063942
16945 1 18338516447122444201
17990270 104 18341333370032245870
193761 8 18338799047428072161
19765921 60 17534943846098583654
19868273 325 18338238167479907246
20028762 73 15821868781116770230
20510252 161 17766553552296721392
20511035 2 18130494314582518653
20588541 1 18199467666988190590
20645476 183 17533805739610329455
20645477 70 18124027099358743815
20739085 24 17762369948986739025
20905425 154 18124884713605258454
21197605 99 15165185508403637282
21421861 104 18116989086668779059
21501502 16 18339082721512252541
21524375 3 17620194668978812544
21650355 55 18120069724907557658
23184049 29 18338232764622318127
2334 1 17978792637914191412
23366157 5 18041838557795169052
23402539 116 18053928581094499630
23419403 2 16686460601089244625
23552423 10 18263644129118602159
23557571 272 17985834722965616534
23558518 356 18190463946857542937
23559900 14 18269827760938430569
2748010 2 18194400228133176596
34934 24 18337666413096619672
352729 6 17255958975214637140
43471831 8 17832701649039306528
589210 1 18338797943689925445
5939293 188 18411978022893154536
7364860 26 18269275827613092112
74978 22 18410290315794585893
7832392 63 18411416193968135787
81228 2 17909274585271766920
90316 7 18119227494710910784

>  <PUBCHEM_SHAPE_MULTIPOLES>  (1) 
338.11
4.86
3.8
0.79
0.69
1.98
0.01
-1.44
-0.03
-0.13
-0.02
-0.43
-0.33
-0.01

>  <PUBCHEM_SHAPE_SELFOVERLAP>  (1) 
721.603

>  <PUBCHEM_SHAPE_VOLUME>  (1) 
190.6

>  <PUBCHEM_COORDINATE_TYPE>  (1) 
2
5
10

$$$$
