28815
     RDKit          3D

 13 13  0  0  0  0  0  0  0  0999 V2000
   -2.3013    1.6286   -0.0007 O   0  0  0  0  0  0  0  0  0  0  0  0
    2.3015    1.6282    0.0001 O   0  0  0  0  0  0  0  0  0  0  0  0
   -0.6931   -0.0899    0.0001 N   0  0  0  0  0  0  0  0  0  0  0  0
    0.6931   -0.0899    0.0000 N   0  0  0  0  0  0  0  0  0  0  0  0
    0.0000    2.0326    0.0004 N   0  0  0  0  0  0  0  0  0  0  0  0
   -1.5312   -1.2592    0.0001 C   0  0  0  0  0  0  0  0  0  0  0  0
    1.5311   -1.2592   -0.0002 C   0  0  0  0  0  0  0  0  0  0  0  0
   -1.1428    1.2356    0.0002 C   0  0  0  0  0  0  0  0  0  0  0  0
    1.1429    1.2356    0.0002 C   0  0  0  0  0  0  0  0  0  0  0  0
   -2.3886   -1.2623   -1.2585 C   0  0  0  0  0  0  0  0  0  0  0  0
   -2.3910   -1.2689    1.2574 C   0  0  0  0  0  0  0  0  0  0  0  0
    2.3885   -1.2624    1.2584 C   0  0  0  0  0  0  0  0  0  0  0  0
    2.3909   -1.2687   -1.2575 C   0  0  0  0  0  0  0  0  0  0  0  0
  1  8  2  0
  2  9  2  0
  3  4  1  0
  3  6  1  0
  3  8  1  0
  4  7  1  0
  4  9  1  0
  5  8  1  0
  5  9  1  0
  6 10  1  0
  6 11  1  0
  7 12  1  0
  7 13  1  0
M  END
>  <PUBCHEM_COMPOUND_CID>  (1) 
28815

>  <PUBCHEM_CONFORMER_RMSD>  (1) 
0.6

>  <PUBCHEM_CONFORMER_DIVERSEORDER>  (1) 
1

>  <PUBCHEM_MMFF94_PARTIAL_CHARGES>  (1) 
10
1 -0.57
2 -0.57
28 0.37
3 -0.36
4 -0.36
5 -0.49
6 0.3
7 0.3
8 0.69
9 0.69

>  <PUBCHEM_EFFECTIVE_ROTOR_COUNT>  (1) 
2

>  <PUBCHEM_PHARMACOPHORE_FEATURES>  (1) 
6
1 1 acceptor
1 2 acceptor
1 5 donor
3 6 10 11 hydrophobe
3 7 12 13 hydrophobe
5 3 4 5 8 9 rings

>  <PUBCHEM_HEAVY_ATOM_COUNT>  (1) 
13

>  <PUBCHEM_ATOM_DEF_STEREO_COUNT>  (1) 
0

>  <PUBCHEM_ATOM_UDEF_STEREO_COUNT>  (1) 
0

>  <PUBCHEM_BOND_DEF_STEREO_COUNT>  (1) 
0

>  <PUBCHEM_BOND_UDEF_STEREO_COUNT>  (1) 
0

>  <PUBCHEM_ISOTOPIC_ATOM_COUNT>  (1) 
0

>  <PUBCHEM_COMPONENT_COUNT>  (1) 
1

>  <PUBCHEM_CACTVS_TAUTO_COUNT>  (1) 
2

>  <PUBCHEM_CONFORMER_ID>  (1) 
0000708F00000001

>  <PUBCHEM_MMFF94_ENERGY>  (1) 
32.4919

>  <PUBCHEM_FEATURE_SELFOVERLAP>  (1) 
30.446

>  <PUBCHEM_SHAPE_FINGERPRINT>  (1) 
12423570 1 15749524227401442288
12524768 44 18341051809113835364
13380535 21 18338818756811596836
161256 15 18267041589793754884
16945 1 18410856551055441539
17990270 104 18342174458004728558
20082192 1 17988929963312914850
20645476 183 17318195838498121758
20871998 184 18198904703954954991
21040471 1 17690279313796232514
21501502 16 18410847767847262765
232386 152 18116710716937663554
2334 1 18410293644046282048
23388829 49 18053355941942654672
23419403 2 17188058909271167953
23552423 10 18260835924792159444
23559900 14 17838055897933459614
2748010 2 18411138034616636829
5084963 1 17703790318631494367
53812654 25 18048306756767071010
81228 2 18194679259267993816

>  <PUBCHEM_SHAPE_MULTIPOLES>  (1) 
240.85
3.87
2.24
1.12
0
0.82
0
-1.31
0
0
0
0
-0.66
0

>  <PUBCHEM_SHAPE_SELFOVERLAP>  (1) 
480.533

>  <PUBCHEM_SHAPE_VOLUME>  (1) 
144.8

>  <PUBCHEM_COORDINATE_TYPE>  (1) 
2
5
10

$$$$
