28824
     RDKit          3D

 16 18  0  0  1  0  0  0  0  0999 V2000
   -0.0181    1.1194   -2.1303 O   0  0  0  0  0  0  0  0  0  0  0  0
   -2.8451   -1.1844    0.1579 N   0  0  0  0  0  0  0  0  0  0  0  0
    0.0179    1.1694   -0.7020 C   0  0  0  0  0  0  0  0  0  0  0  0
    0.4778   -1.9508   -0.1843 C   0  0  0  0  0  0  0  0  0  0  0  0
   -0.7678   -1.6615   -1.0151 C   0  0  0  0  0  0  0  0  0  0  0  0
    1.2892    0.5350   -0.1619 C   0  0  0  0  0  0  0  0  0  0  0  0
    1.4942   -0.8473    0.0334 C   0  0  0  0  0  0  0  0  0  0  0  0
   -1.2793    0.6397   -0.1469 C   0  0  0  0  0  0  0  0  0  0  0  0
   -1.6752   -0.6875   -0.3191 C   0  0  0  0  0  0  0  0  0  0  0  0
    2.3567    1.4209    0.1137 C   0  0  0  0  0  0  0  0  0  0  0  0
    2.7455   -1.2800    0.5304 C   0  0  0  0  0  0  0  0  0  0  0  0
   -2.1509    1.4824    0.5533 C   0  0  0  0  0  0  0  0  0  0  0  0
    3.5847    0.9682    0.5927 C   0  0  0  0  0  0  0  0  0  0  0  0
    3.7788   -0.3867    0.8048 C   0  0  0  0  0  0  0  0  0  0  0  0
   -3.3549    0.9966    1.0488 C   0  0  0  0  0  0  0  0  0  0  0  0
   -3.6535   -0.3332    0.8246 C   0  0  0  0  0  0  0  0  0  0  0  0
  1  3  1  0
  2  9  2  0
  2 16  1  0
  3  6  1  0
  3  8  1  0
  4  5  1  0
  4  7  1  0
  5  9  1  0
  6  7  2  0
  6 10  1  0
  7 11  1  0
  8  9  1  0
  8 12  2  0
 10 13  2  0
 11 14  2  0
 12 15  1  0
 13 14  1  0
 15 16  2  0
M  END
>  <PUBCHEM_COMPOUND_CID>  (1) 
28824

>  <PUBCHEM_CONFORMER_RMSD>  (1) 
0.4

>  <PUBCHEM_CONFORMER_DIVERSEORDER>  (1) 
4
3
1
2

>  <PUBCHEM_MMFF94_PARTIAL_CHARGES>  (1) 
24
1 -0.68
10 -0.15
11 -0.15
12 -0.15
13 -0.15
14 -0.15
15 -0.15
16 0.16
2 -0.62
22 0.15
23 0.15
24 0.15
25 0.15
26 0.15
27 0.4
28 0.15
29 0.15
3 0.57
4 0.14
5 0.14
6 -0.14
7 -0.14
8 -0.14
9 0.17

>  <PUBCHEM_EFFECTIVE_ROTOR_COUNT>  (1) 
0.6

>  <PUBCHEM_PHARMACOPHORE_FEATURES>  (1) 
6
1 1 acceptor
1 1 donor
1 2 acceptor
6 2 8 9 12 15 16 rings
6 6 7 10 11 13 14 rings
7 3 4 5 6 7 8 9 rings

>  <PUBCHEM_HEAVY_ATOM_COUNT>  (1) 
16

>  <PUBCHEM_ATOM_DEF_STEREO_COUNT>  (1) 
0

>  <PUBCHEM_ATOM_UDEF_STEREO_COUNT>  (1) 
1

>  <PUBCHEM_BOND_DEF_STEREO_COUNT>  (1) 
0

>  <PUBCHEM_BOND_UDEF_STEREO_COUNT>  (1) 
0

>  <PUBCHEM_ISOTOPIC_ATOM_COUNT>  (1) 
0

>  <PUBCHEM_COMPONENT_COUNT>  (1) 
1

>  <PUBCHEM_CACTVS_TAUTO_COUNT>  (1) 
1

>  <PUBCHEM_CONFORMER_ID>  (1) 
0000709800000004

>  <PUBCHEM_MMFF94_ENERGY>  (1) 
49.8562

>  <PUBCHEM_FEATURE_SELFOVERLAP>  (1) 
30.464

>  <PUBCHEM_SHAPE_FINGERPRINT>  (1) 
11086676 242 18260829267888054962
11132069 177 18410003330306327794
11471102 22 18260556614473574554
12202030 40 15286185169832995202
12251169 10 18410575067514871442
12382932 28 18342176622457268745
12491281 212 18342177820990443226
12696612 119 18408326574994789582
13172582 1 18334295374601414070
13296908 3 17240474801910112660
13581323 91 18342175591622802560
14144814 61 18413105065392972024
15209294 21 18129932481842769256
15309172 13 18412256225310475010
15375462 189 18188202114153170498
15375462 478 18410295852102661763
15501101 241 18260550021909966332
15536298 74 18201443545160077502
15775835 57 18201725075770643393
16945 1 18338799983588316655
17804303 29 18268159664397025198
17844478 74 17822284661361175708
200 152 18272072929918482679
20361792 2 16732986431207470501
20671657 53 12540700305685596066
21501502 16 18270389620449985610
21731228 192 18343306954828688451
22445834 79 18409163320386402266
23382010 3 11815600974358642605
23388829 49 18267581489027106879
23402539 116 17489015068111201031
23463225 33 18408041809972994288
25 1 11959739269295292916
2748010 2 17834383532752636982
7364860 26 17916033351719347319
84936 31 16485568694055254862

>  <PUBCHEM_SHAPE_MULTIPOLES>  (1) 
318.42
6.08
1.89
1.14
0.47
0.37
0.43
-0.73
-2.89
0.03
0.14
-0.19
-0.21
-0.36

>  <PUBCHEM_SHAPE_SELFOVERLAP>  (1) 
699.193

>  <PUBCHEM_SHAPE_VOLUME>  (1) 
169.3

>  <PUBCHEM_COORDINATE_TYPE>  (1) 
2
5
10

$$$$
