28829
     RDKit          3D

 22 25  0  0  0  0  0  0  0  0999 V2000
   -0.5444   -0.2905   -0.5401 N   0  0  0  0  0  0  0  0  0  0  0  0
    3.1330   -0.4676    0.1266 N   0  0  0  0  0  0  0  0  0  0  0  0
   -1.2627    0.8759   -0.5050 C   0  0  0  0  0  0  0  0  0  0  0  0
   -2.5769    0.5609   -0.2114 C   0  0  0  0  0  0  0  0  0  0  0  0
    0.8734   -0.4046   -0.8203 C   0  0  0  0  0  0  0  0  0  0  0  0
    1.7141   -0.3227    0.4505 C   0  0  0  0  0  0  0  0  0  0  0  0
   -0.6320    2.2007   -0.7553 C   0  0  0  0  0  0  0  0  0  0  0  0
   -3.6912    1.5454   -0.0830 C   0  0  0  0  0  0  0  0  0  0  0  0
   -1.3605   -1.3641   -0.2743 C   0  0  0  0  0  0  0  0  0  0  0  0
    3.5722    0.6213   -0.7575 C   0  0  0  0  0  0  0  0  0  0  0  0
    3.9388   -0.5122    1.3549 C   0  0  0  0  0  0  0  0  0  0  0  0
   -2.6459   -0.8621   -0.0639 C   0  0  0  0  0  0  0  0  0  0  0  0
   -0.9192    3.1996    0.3662 C   0  0  0  0  0  0  0  0  0  0  0  0
   -3.3930    2.6707    0.9098 C   0  0  0  0  0  0  0  0  0  0  0  0
   -2.3680    3.6974    0.4152 C   0  0  0  0  0  0  0  0  0  0  0  0
    5.0424    0.4576   -1.1457 C   0  0  0  0  0  0  0  0  0  0  0  0
    5.4212   -0.7129    1.0356 C   0  0  0  0  0  0  0  0  0  0  0  0
    5.9346    0.3640    0.0868 C   0  0  0  0  0  0  0  0  0  0  0  0
   -1.0578   -2.7290   -0.2060 C   0  0  0  0  0  0  0  0  0  0  0  0
   -3.6818   -1.7746    0.2294 C   0  0  0  0  0  0  0  0  0  0  0  0
   -2.1012   -3.6106    0.0864 C   0  0  0  0  0  0  0  0  0  0  0  0
   -3.3949   -3.1426    0.3011 C   0  0  0  0  0  0  0  0  0  0  0  0
  1  3  1  0
  1  5  1  0
  1  9  1  0
  2  6  1  0
  2 10  1  0
  2 11  1  0
  3  4  2  0
  3  7  1  0
  4  8  1  0
  4 12  1  0
  5  6  1  0
  7 13  1  0
  8 14  1  0
  9 12  2  0
  9 19  1  0
 10 16  1  0
 11 17  1  0
 12 20  1  0
 13 15  1  0
 14 15  1  0
 16 18  1  0
 17 18  1  0
 19 21  2  0
 20 22  2  0
 21 22  1  0
M  END
>  <PUBCHEM_COMPOUND_CID>  (1) 
28829

>  <PUBCHEM_CONFORMER_RMSD>  (1) 
0.8

>  <PUBCHEM_CONFORMER_DIVERSEORDER>  (1) 
1
11
6
9
10
4
5
8
7
3
2

>  <PUBCHEM_MMFF94_PARTIAL_CHARGES>  (1) 
19
1 0.05
10 0.27
11 0.27
19 -0.15
2 -0.81
20 -0.15
21 -0.15
22 -0.15
3 -0.33
4 -0.18
47 0.15
48 0.15
49 0.15
5 0.26
50 0.15
6 0.27
7 0.18
8 0.18
9 -0.15

>  <PUBCHEM_EFFECTIVE_ROTOR_COUNT>  (1) 
5.2

>  <PUBCHEM_PHARMACOPHORE_FEATURES>  (1) 
6
1 1 cation
1 2 cation
5 1 3 4 9 12 rings
6 2 10 11 16 17 18 rings
6 9 12 19 20 21 22 rings
7 3 4 7 8 13 14 15 rings

>  <PUBCHEM_HEAVY_ATOM_COUNT>  (1) 
22

>  <PUBCHEM_ATOM_DEF_STEREO_COUNT>  (1) 
0

>  <PUBCHEM_ATOM_UDEF_STEREO_COUNT>  (1) 
0

>  <PUBCHEM_BOND_DEF_STEREO_COUNT>  (1) 
0

>  <PUBCHEM_BOND_UDEF_STEREO_COUNT>  (1) 
0

>  <PUBCHEM_ISOTOPIC_ATOM_COUNT>  (1) 
0

>  <PUBCHEM_COMPONENT_COUNT>  (1) 
1

>  <PUBCHEM_CACTVS_TAUTO_COUNT>  (1) 
1

>  <PUBCHEM_CONFORMER_ID>  (1) 
0000709D00000001

>  <PUBCHEM_MMFF94_ENERGY>  (1) 
26.6339

>  <PUBCHEM_FEATURE_SELFOVERLAP>  (1) 
30.572

>  <PUBCHEM_SHAPE_FINGERPRINT>  (1) 
10319926 262 18270100359219944018
10366900 7 18131056126464500036
10369192 42 16911421977882908048
10411042 1 18123190379483967543
10493431 412 18269000787025126161
10616163 171 18409166627949563614
1100329 8 18410296947583300273
11049842 53 18120964740394996598
11056379 131 18411145744489310054
11265709 11 18265898145484019983
11315181 36 18187079590248812646
12107183 9 17974842875058216538
12173636 292 18267861688018806932
12236239 1 17676486176649328382
12390115 104 18129393600501270937
12553582 1 18193833962423213879
12788726 201 18262810686478355666
13140716 1 18339641251944592697
13583140 156 17846487141798915418
138480 1 16465021910024297613
14420673 8 18049156667104624570
14565420 104 17552656755285119041
14790565 3 18123758556143770649
14844126 61 18408601495915223763
15042514 8 18408888451396609163
15230672 131 18049449141719557214
16992727 255 18191282954740924101
17780758 139 18263061289762730650
17818456 19 18265045826588322394
17844677 252 18411986897112999344
18785283 64 17472987203138924843
19377110 9 17968086569589759016
20510252 161 18342462504413147435
21033648 29 17418078920151686394
21650355 55 18410853304434504279
22224240 67 18199756843522499145
2297311 6 18340498862693323038
23366157 5 17468762243962921469
23402539 116 18342729754516638103
23557571 272 18200609054684220708
23559900 14 18193828464880191168
283562 15 18268987601712819573
3091708 16 9129909700688467267
3178227 256 18335434474198220121
335352 9 18337107982119259399
4214541 1 18408319995495438118
484989 97 18191014803027363695
5104073 3 18409719661276484826
5486654 2 18339924814713376109
58807428 26 18122350077684873513
7097593 13 17971459716260084434
7364860 26 17475237272307662343
7808743 9 18411141290719195096
9981440 41 18120659024622769465

>  <PUBCHEM_SHAPE_MULTIPOLES>  (1) 
442.79
10.34
4.21
0.99
18.88
0.43
0.07
-0.53
1.48
-7.19
0.66
0.83
0.14
-0.82

>  <PUBCHEM_SHAPE_SELFOVERLAP>  (1) 
943.661

>  <PUBCHEM_SHAPE_VOLUME>  (1) 
244

>  <PUBCHEM_COORDINATE_TYPE>  (1) 
2
5
10

$$$$
