2882
     RDKit          3D

 34 37  0  0  0  0  0  0  0  0999 V2000
   -2.0176   -2.3878    0.7642 O   0  0  0  0  0  0  0  0  0  0  0  0
    1.0567   -2.9748   -0.6253 O   0  0  0  0  0  0  0  0  0  0  0  0
   -2.0137   -4.9343   -0.3633 O   0  0  0  0  0  0  0  0  0  0  0  0
   -2.4532    2.4412    0.7960 O   0  0  0  0  0  0  0  0  0  0  0  0
    3.2369    1.3506   -0.8435 O   0  0  0  0  0  0  0  0  0  0  0  0
   -2.7254   -1.0003   -1.3759 O   0  0  0  0  0  0  0  0  0  0  0  0
    2.2658   -1.8747    1.4564 O   0  0  0  0  0  0  0  0  0  0  0  0
   -2.9462    4.7023   -0.2480 O   0  0  0  0  0  0  0  0  0  0  0  0
    4.5465    3.3050    0.1107 O   0  0  0  0  0  0  0  0  0  0  0  0
   -3.4332    3.8643   -2.3194 O   0  0  0  0  0  0  0  0  0  0  0  0
    4.7305    2.4163    2.2099 O   0  0  0  0  0  0  0  0  0  0  0  0
   -0.7956   -4.3435    0.0956 C   0  0  0  0  0  0  0  0  0  0  0  0
   -1.1339   -3.4001    1.2425 C   0  0  0  0  0  0  0  0  0  0  0  0
   -0.1450   -3.5992   -1.0649 C   0  0  0  0  0  0  0  0  0  0  0  0
   -1.9615   -1.1748    1.3810 C   0  0  0  0  0  0  0  0  0  0  0  0
    1.4409   -1.8416   -1.2913 C   0  0  0  0  0  0  0  0  0  0  0  0
   -2.2512    0.0202    0.7188 C   0  0  0  0  0  0  0  0  0  0  0  0
    2.1603   -0.8219   -0.6730 C   0  0  0  0  0  0  0  0  0  0  0  0
   -2.1789    1.2378    1.3977 C   0  0  0  0  0  0  0  0  0  0  0  0
    2.5278    0.3134   -1.3974 C   0  0  0  0  0  0  0  0  0  0  0  0
   -1.5986   -1.1436    2.7282 C   0  0  0  0  0  0  0  0  0  0  0  0
    1.0873   -1.7303   -2.6330 C   0  0  0  0  0  0  0  0  0  0  0  0
   -2.6371    0.0178   -0.7034 C   0  0  0  0  0  0  0  0  0  0  0  0
    2.5453   -0.9188    0.7461 C   0  0  0  0  0  0  0  0  0  0  0  0
   -1.8156    1.2655    2.7441 C   0  0  0  0  0  0  0  0  0  0  0  0
    2.1746    0.4278   -2.7420 C   0  0  0  0  0  0  0  0  0  0  0  0
   -1.5257    0.0732    3.4081 C   0  0  0  0  0  0  0  0  0  0  0  0
    1.4540   -0.5955   -3.3585 C   0  0  0  0  0  0  0  0  0  0  0  0
   -2.9223    1.3366   -1.3038 C   0  0  0  0  0  0  0  0  0  0  0  0
    3.3067    0.2218    1.2942 C   0  0  0  0  0  0  0  0  0  0  0  0
   -2.8132    2.4233   -0.5334 C   0  0  0  0  0  0  0  0  0  0  0  0
    3.5902    1.2459    0.4836 C   0  0  0  0  0  0  0  0  0  0  0  0
   -3.1026    3.7165   -1.1564 C   0  0  0  0  0  0  0  0  0  0  0  0
    4.3468    2.3618    1.0552 C   0  0  0  0  0  0  0  0  0  0  0  0
  1 13  1  0
  1 15  1  0
  2 14  1  0
  2 16  1  0
  3 12  1  0
  4 19  1  0
  4 31  1  0
  5 20  1  0
  5 32  1  0
  6 23  2  0
  7 24  2  0
  8 33  1  0
  9 34  1  0
 10 33  2  0
 11 34  2  0
 12 13  1  0
 12 14  1  0
 15 17  1  0
 15 21  2  0
 16 18  1  0
 16 22  2  0
 17 19  2  0
 17 23  1  0
 18 20  2  0
 18 24  1  0
 19 25  1  0
 20 26  1  0
 21 27  1  0
 22 28  1  0
 23 29  1  0
 24 30  1  0
 25 27  2  0
 26 28  2  0
 29 31  2  0
 30 32  2  0
 31 33  1  0
 32 34  1  0
M  END
>  <PUBCHEM_COMPOUND_CID>  (1) 
2882

>  <PUBCHEM_CONFORMER_RMSD>  (1) 
1

>  <PUBCHEM_CONFORMER_DIVERSEORDER>  (1) 
2
56
92
48
7
44
76
35
23
16
65
70
5
74
36
64
79
78
27
83
43
72
81
51
95
97
69
77
31
46
14
21
15
57
18
66
82
86
38
52
68
93
58
63
59
32
29
12
20
28
60
61
17
41
3
73
89
45
13
4
75
94
88
96
39
47
87
11
67
42
19
85
34
30
53
8
40
50
80
90
55
9
91
37
54
71
6
33
1
62
84
25
26
10
24
22
49

>  <PUBCHEM_MMFF94_PARTIAL_CHARGES>  (1) 
45
1 -0.36
10 -0.57
11 -0.57
12 0.28
13 0.28
14 0.28
15 0.08
16 0.08
17 0.09
18 0.09
19 0.08
2 -0.36
20 0.08
21 -0.15
22 -0.15
23 0.47
24 0.47
25 -0.15
26 -0.15
27 -0.15
28 -0.15
29 -0.14
3 -0.68
30 -0.14
31 0.09
32 0.09
33 0.71
34 0.71
4 -0.16
40 0.15
41 0.15
42 0.15
43 0.15
44 0.15
45 0.15
46 0.4
47 0.15
48 0.15
49 0.5
5 -0.16
50 0.5
6 -0.57
7 -0.57
8 -0.65
9 -0.65

>  <PUBCHEM_EFFECTIVE_ROTOR_COUNT>  (1) 
8

>  <PUBCHEM_PHARMACOPHORE_FEATURES>  (1) 
18
1 1 acceptor
1 10 acceptor
1 11 acceptor
1 2 acceptor
1 3 acceptor
1 3 donor
1 4 acceptor
1 5 acceptor
1 6 acceptor
1 7 acceptor
1 8 acceptor
1 9 acceptor
3 8 10 33 anion
3 9 11 34 anion
6 15 17 19 21 25 27 rings
6 16 18 20 22 26 28 rings
6 4 17 19 23 29 31 rings
6 5 18 20 24 30 32 rings

>  <PUBCHEM_HEAVY_ATOM_COUNT>  (1) 
34

>  <PUBCHEM_ATOM_DEF_STEREO_COUNT>  (1) 
0

>  <PUBCHEM_ATOM_UDEF_STEREO_COUNT>  (1) 
0

>  <PUBCHEM_BOND_DEF_STEREO_COUNT>  (1) 
0

>  <PUBCHEM_BOND_UDEF_STEREO_COUNT>  (1) 
0

>  <PUBCHEM_ISOTOPIC_ATOM_COUNT>  (1) 
0

>  <PUBCHEM_COMPONENT_COUNT>  (1) 
1

>  <PUBCHEM_CACTVS_TAUTO_COUNT>  (1) 
1

>  <PUBCHEM_CONFORMER_ID>  (1) 
00000B4200000002

>  <PUBCHEM_MMFF94_ENERGY>  (1) 
110.3807

>  <PUBCHEM_FEATURE_SELFOVERLAP>  (1) 
91.582

>  <PUBCHEM_SHAPE_FINGERPRINT>  (1) 
10032420 55 17626623345967885133
10165383 225 17331182269218511863
12104220 1 17612581638285043776
12156800 1 15512998157664879847
128993 33 17769694998392560159
13761468 95 18055935405223808792
14114206 34 16760613619550373108
14114207 22 16103591143231385901
14279260 333 16334759692775560020
14415361 192 17176594525304224909
14468879 13 18408884001768552489
150020 26 16447581598044441593
15664445 248 13827835879243746387
17974551 9 17531809030968331458
18981168 100 18195275267579696803
20600515 1 17692543624723914759
21860390 5 17765416657178343534
238 59 17915181213038078731
35225 105 18269016265733885039
469060 322 17761499488064793346
4742675 86 16772680008262052856
550186 7 18126571356596267580
57527585 21 16987733444162086441
6287921 2 17052506833990433114
9981440 41 18337378383789072401

>  <PUBCHEM_SHAPE_MULTIPOLES>  (1) 
635.14
7.08
5.81
3.26
4.16
1.72
-0.08
-8.71
-0.76
-3.02
0.99
-0.03
-0.53
3.05

>  <PUBCHEM_SHAPE_SELFOVERLAP>  (1) 
1408.008

>  <PUBCHEM_SHAPE_VOLUME>  (1) 
335.5

>  <PUBCHEM_COORDINATE_TYPE>  (1) 
2
5
10

$$$$
