28822
     RDKit          3D

 21 23  0  0  1  0  0  0  0  0999 V2000
   -0.5908   -1.0789    0.8197 O   0  0  0  0  0  0  0  0  0  0  0  0
   -3.0602   -2.0268   -0.2809 N   0  0  0  0  0  0  0  0  0  0  0  0
    3.1764   -1.1064   -1.2858 N   0  0  0  0  0  0  0  0  0  0  0  0
    0.3735   -0.0554    1.0774 C   0  0  0  0  0  0  0  0  0  0  0  0
   -0.0839    1.2848    0.5355 C   0  0  0  0  0  0  0  0  0  0  0  0
    1.7165   -0.4942    0.5475 C   0  0  0  0  0  0  0  0  0  0  0  0
   -0.2411    1.5243   -0.8446 C   0  0  0  0  0  0  0  0  0  0  0  0
   -1.8364   -0.7748    1.4253 C   0  0  0  0  0  0  0  0  0  0  0  0
    1.9808   -0.6638   -0.8161 C   0  0  0  0  0  0  0  0  0  0  0  0
   -2.8252   -1.8883    1.1312 C   0  0  0  0  0  0  0  0  0  0  0  0
   -0.3820    2.3143    1.4468 C   0  0  0  0  0  0  0  0  0  0  0  0
    0.0242    0.5110   -1.8786 C   0  0  0  0  0  0  0  0  0  0  0  0
    2.7581   -0.7733    1.4434 C   0  0  0  0  0  0  0  0  0  0  0  0
    0.9807   -0.4295   -1.8651 C   0  0  0  0  0  0  0  0  0  0  0  0
   -0.7163    2.7759   -1.2731 C   0  0  0  0  0  0  0  0  0  0  0  0
   -0.8367    3.5557    1.0041 C   0  0  0  0  0  0  0  0  0  0  0  0
   -1.0066    3.7855   -0.3557 C   0  0  0  0  0  0  0  0  0  0  0  0
    3.9929   -1.2089    0.9793 C   0  0  0  0  0  0  0  0  0  0  0  0
    4.1488   -1.3612   -0.3836 C   0  0  0  0  0  0  0  0  0  0  0  0
   -3.5643   -0.7743   -0.8651 C   0  0  0  0  0  0  0  0  0  0  0  0
   -4.0086   -3.1158   -0.5615 C   0  0  0  0  0  0  0  0  0  0  0  0
  1  4  1  0
  1  8  1  0
  2 10  1  0
  2 20  1  0
  2 21  1  0
  3  9  2  0
  3 19  1  0
  4  5  1  0
  4  6  1  0
  5  7  2  0
  5 11  1  0
  6  9  1  0
  6 13  2  0
  7 12  1  0
  7 15  1  0
  8 10  1  0
  9 14  1  0
 11 16  2  0
 12 14  2  0
 13 18  1  0
 15 17  2  0
 16 17  1  0
 18 19  2  0
M  END
>  <PUBCHEM_COMPOUND_CID>  (1) 
28822

>  <PUBCHEM_CONFORMER_RMSD>  (1) 
0.6

>  <PUBCHEM_CONFORMER_DIVERSEORDER>  (1) 
8
21
11
17
16
6
12
20
18
9
15
5
3
22
2
1
10
19
7
4
13
14

>  <PUBCHEM_MMFF94_PARTIAL_CHARGES>  (1) 
30
1 -0.56
10 0.27
11 -0.15
12 -0.18
13 -0.15
14 -0.18
15 -0.15
16 -0.15
17 -0.15
18 -0.15
19 0.16
2 -0.81
20 0.27
21 0.27
27 0.15
28 0.15
29 0.15
3 -0.62
30 0.15
31 0.15
32 0.15
33 0.15
34 0.15
35 0.15
4 0.57
5 -0.14
6 -0.14
7 0.03
8 0.28
9 0.34

>  <PUBCHEM_EFFECTIVE_ROTOR_COUNT>  (1) 
4.2

>  <PUBCHEM_PHARMACOPHORE_FEATURES>  (1) 
6
1 1 acceptor
1 2 cation
1 3 acceptor
6 3 6 9 13 18 19 rings
6 5 7 11 15 16 17 rings
7 4 5 6 7 9 12 14 rings

>  <PUBCHEM_HEAVY_ATOM_COUNT>  (1) 
21

>  <PUBCHEM_ATOM_DEF_STEREO_COUNT>  (1) 
0

>  <PUBCHEM_ATOM_UDEF_STEREO_COUNT>  (1) 
1

>  <PUBCHEM_BOND_DEF_STEREO_COUNT>  (1) 
0

>  <PUBCHEM_BOND_UDEF_STEREO_COUNT>  (1) 
0

>  <PUBCHEM_ISOTOPIC_ATOM_COUNT>  (1) 
0

>  <PUBCHEM_COMPONENT_COUNT>  (1) 
1

>  <PUBCHEM_CACTVS_TAUTO_COUNT>  (1) 
1

>  <PUBCHEM_CONFORMER_ID>  (1) 
0000709600000008

>  <PUBCHEM_MMFF94_ENERGY>  (1) 
69.2409

>  <PUBCHEM_FEATURE_SELFOVERLAP>  (1) 
30.464

>  <PUBCHEM_SHAPE_FINGERPRINT>  (1) 
10764073 3 16814271230063723865
11578080 2 17967809474646805564
12788726 201 18262523584851354833
13004483 165 18410007732447794386
13134695 92 18265328602544471687
133893 2 17906751532687944241
13681431 1 18193846061472115617
14181834 199 17982170324955234099
14251757 17 15864354717455682695
14617773 55 17822585906051218302
14817 1 9131842972462979173
16945 1 18190178992551108112
17357779 13 18272073998874728767
17980427 23 17488749016129909347
1813 80 18341905137717276963
20600515 1 18200606902589575010
21304303 282 17614527403464934580
21452121 199 18337392771982209261
22112679 90 18047509743828023344
23419403 2 17902475454320819820
23557571 272 18339914940287669840
5845 1 8066026574294275497
59755656 520 17834392315807795820
6438718 38 17901699005742935048
6442390 28 17623305874537209009
7364860 26 17907579486307641395
81228 2 18264498303492705641
9981440 41 17125880286113203394

>  <PUBCHEM_SHAPE_MULTIPOLES>  (1) 
416.34
5.86
3.98
1.81
1.96
3.57
-0.25
-7.24
-0.14
-4.18
0.16
0.24
0.16
-0.11

>  <PUBCHEM_SHAPE_SELFOVERLAP>  (1) 
894.103

>  <PUBCHEM_SHAPE_VOLUME>  (1) 
228

>  <PUBCHEM_COORDINATE_TYPE>  (1) 
2
5
10

$$$$
