28833
     RDKit          3D

 22 22  0  0  1  0  0  0  0  0999 V2000
   -1.3580    0.0192   -0.6739 Si  0  0  0  0  0  4  0  0  0  0  0  0
    1.0558    1.9830   -0.1078 Si  0  0  0  0  0  4  0  0  0  0  0  0
   -4.2513    0.6877    0.4270 Si  0  0  0  0  0  4  0  0  0  0  0  0
    3.8912    0.6656    0.3899 Si  0  0  0  0  0  4  0  0  0  0  0  0
   -0.4489    1.2575   -0.0256 O   0  0  0  0  0  0  0  0  0  0  0  0
   -2.8135   -0.1120    0.1281 O   0  0  0  0  0  0  0  0  0  0  0  0
    2.2322    0.8489    0.2574 O   0  0  0  0  0  0  0  0  0  0  0  0
   -0.4202   -1.5777   -0.2982 C   0  0  0  0  0  0  0  0  0  0  0  0
   -1.5525    0.1887   -2.5215 C   0  0  0  0  0  0  0  0  0  0  0  0
    1.1622    3.4230    1.0982 C   0  0  0  0  0  0  0  0  0  0  0  0
    1.3251    2.6805   -1.8354 C   0  0  0  0  0  0  0  0  0  0  0  0
   -5.1847    1.0367   -1.1658 C   0  0  0  0  0  0  0  0  0  0  0  0
   -5.3602   -0.3348    1.5518 C   0  0  0  0  0  0  0  0  0  0  0  0
   -3.9071    2.3285    1.2820 C   0  0  0  0  0  0  0  0  0  0  0  0
    4.3052   -1.1012    0.8879 C   0  0  0  0  0  0  0  0  0  0  0  0
    4.5864    1.8215    1.7018 C   0  0  0  0  0  0  0  0  0  0  0  0
    4.7514    1.0372   -1.2404 C   0  0  0  0  0  0  0  0  0  0  0  0
    0.4994   -2.0479   -1.2165 C   0  0  0  0  0  0  0  0  0  0  0  0
   -0.6734   -2.2424    0.8868 C   0  0  0  0  0  0  0  0  0  0  0  0
    1.1913   -3.2270   -0.9397 C   0  0  0  0  0  0  0  0  0  0  0  0
    0.0186   -3.4215    1.1636 C   0  0  0  0  0  0  0  0  0  0  0  0
    0.9510   -3.9137    0.2502 C   0  0  0  0  0  0  0  0  0  0  0  0
  1  5  1  0
  1  6  1  0
  1  8  1  0
  1  9  1  0
  2  5  1  0
  2  7  1  0
  2 10  1  0
  2 11  1  0
  3  6  1  0
  3 12  1  0
  3 13  1  0
  3 14  1  0
  4  7  1  0
  4 15  1  0
  4 16  1  0
  4 17  1  0
  8 18  2  0
  8 19  1  0
 18 20  1  0
 19 21  2  0
 20 22  2  0
 21 22  1  0
M  END
>  <PUBCHEM_COMPOUND_CID>  (1) 
28833

>  <PUBCHEM_CONFORMER_RMSD>  (1) 
0.8

>  <PUBCHEM_CONFORMER_DIVERSEORDER>  (1) 
1
179
152
61
167
201
49
42
156
20
118
208
97
161
60
3
205
105
163
32
13
77
106
234
134
8
225
56
130
150
9
196
58
136
158
52
197
188
85
213
67
98
24
5
4
30
173
63
57
101
211
80
127
169
108
21
206
121
135
120
209
151
124
111
160
187
122
11
191
198
189
195
199
229
185
220
166
138
223
226
177
171
131
181
203
214
236
172
192
140
129
217
202
194
133
18
143
168
235
126
142
216
228
79
31
193
66
17
176
174
207
184
84
46
70
210
99
204
59
86
74
153
2
87
157
95
81
162
83
221
159
139
141
147
68
232
35
227
164
102
155
72
19
26
115
6
51
90
44
27
109
54
7
22
36
47
78
93
128
94
37
107
231
29
16
14
91
25
237
23
10
114
64
53
38
230
75
180
110
215
116
182
100
212
39
154
76
82
48
112
71
104
43
92
88
62
125
65
73
219
218
224
137
222
233
41
12
69
113
123
55
149
33
28
15
96
40
117
175
146
132
144
190
183
186
178
119
103
170
50
145
89
148
200
34
165
45

>  <PUBCHEM_MMFF94_PARTIAL_CHARGES>  (1) 
27
1 0.9
10 -0.08
11 -0.08
12 -0.08
13 -0.08
14 -0.08
15 -0.08
16 -0.08
17 -0.08
18 -0.15
19 -0.15
2 0.76
20 -0.15
21 -0.15
22 -0.15
3 0.54
4 0.54
5 -0.59
50 0.15
51 0.15
52 0.15
53 0.15
54 0.15
6 -0.59
7 -0.59
8 -0.22
9 -0.08

>  <PUBCHEM_EFFECTIVE_ROTOR_COUNT>  (1) 
7

>  <PUBCHEM_PHARMACOPHORE_FEATURES>  (1) 
1
6 8 18 19 20 21 22 rings

>  <PUBCHEM_HEAVY_ATOM_COUNT>  (1) 
22

>  <PUBCHEM_ATOM_DEF_STEREO_COUNT>  (1) 
0

>  <PUBCHEM_ATOM_UDEF_STEREO_COUNT>  (1) 
1

>  <PUBCHEM_BOND_DEF_STEREO_COUNT>  (1) 
0

>  <PUBCHEM_BOND_UDEF_STEREO_COUNT>  (1) 
0

>  <PUBCHEM_ISOTOPIC_ATOM_COUNT>  (1) 
0

>  <PUBCHEM_COMPONENT_COUNT>  (1) 
1

>  <PUBCHEM_CACTVS_TAUTO_COUNT>  (1) 
1

>  <PUBCHEM_CONFORMER_ID>  (1) 
000070A100000001

>  <PUBCHEM_MMFF94_ENERGY>  (1) 
13.156

>  <PUBCHEM_FEATURE_SELFOVERLAP>  (1) 
5.074

>  <PUBCHEM_SHAPE_FINGERPRINT>  (1) 
10493431 412 18340200899162920728
10674148 151 17916881127910529564
11036077 3 18411705387196405454
12422481 6 18123171417107715746
12553582 1 18336818784580379572
12592029 89 18412270523277572907
12633257 1 17968372459091080080
12788726 201 17693660724458493791
13140716 1 18268433615028759841
13692114 37 18198347462789160171
14022347 108 18341625832268776108
14466204 15 18341890762398765545
14790565 3 18410866468531171084
15420108 30 17844805885250790485
20028762 73 18127976510818704903
20197701 30 18341603858751352993
20600515 1 18269262617000941968
20691752 17 18046082461944963918
20739085 24 18261962838559489444
20905425 154 17911242711085310604
21524375 3 18342180015987795781
23419403 2 17681545936007976015
23558518 356 17908132523212832087
23559900 14 17751650836266268879
3298306 158 18409161091388014013
350125 39 18191873529396490747
392239 28 18191876612798297299
465052 167 17676498280035694441
474 4 18411133611027350471
59755656 215 18411421683606668901
6138700 20 18340771430008192334
81228 2 17396967433103661919

>  <PUBCHEM_SHAPE_MULTIPOLES>  (1) 
507.99
9.59
4.39
1.83
4.08
3.38
-0.54
-5.13
2.97
-2.1
0.71
0.27
-0.46
0.14

>  <PUBCHEM_SHAPE_SELFOVERLAP>  (1) 
931.678

>  <PUBCHEM_SHAPE_VOLUME>  (1) 
322.8

>  <PUBCHEM_COORDINATE_TYPE>  (1) 
2
5
10

$$$$
