28837
     RDKit          3D

 19 20  0  0  1  0  0  0  0  0999 V2000
   -0.2415   -2.5017   -1.7628 Cl  0  0  0  0  0  0  0  0  0  0  0  0
   -1.4386   -3.2549    0.7542 Cl  0  0  0  0  0  0  0  0  0  0  0  0
    1.4377   -3.2804    0.4908 Cl  0  0  0  0  0  0  0  0  0  0  0  0
    5.0274    2.2344   -0.3635 Cl  0  0  0  0  0  0  0  0  0  0  0  0
   -0.0249   -0.8729    0.5556 C   0  0  0  0  0  0  0  0  0  0  0  0
   -1.2530   -0.0726    0.2813 C   0  0  0  0  0  0  0  0  0  0  0  0
    1.2791   -0.0699    0.3179 C   0  0  0  0  0  0  0  0  0  0  0  0
   -0.0419   -2.3636    0.0138 C   0  0  0  0  0  0  0  0  0  0  0  0
   -2.0826    0.3145    1.3338 C   0  0  0  0  0  0  0  0  0  0  0  0
   -1.5726    0.2881   -1.0277 C   0  0  0  0  0  0  0  0  0  0  0  0
    1.6107    0.8947    1.2275 C   0  0  0  0  0  0  0  0  0  0  0  0
    2.0235   -0.3727   -0.7875 C   0  0  0  0  0  0  0  0  0  0  0  0
   -3.5510    1.4236   -0.2319 C   0  0  0  0  0  0  0  0  0  0  0  0
   -3.2317    1.0626    1.0770 C   0  0  0  0  0  0  0  0  0  0  0  0
   -2.7215    1.0363   -1.2843 C   0  0  0  0  0  0  0  0  0  0  0  0
    2.7846    1.6171    1.0137 C   0  0  0  0  0  0  0  0  0  0  0  0
    3.1976    0.3495   -1.0011 C   0  0  0  0  0  0  0  0  0  0  0  0
    3.5781    1.3446   -0.1006 C   0  0  0  0  0  0  0  0  0  0  0  0
   -4.7794    2.2235   -0.5062 C   0  0  0  0  0  0  0  0  0  0  0  0
  1  8  1  0
  2  8  1  0
  3  8  1  0
  4 18  1  0
  5  6  1  0
  5  7  1  0
  5  8  1  0
  6  9  2  0
  6 10  1  0
  7 11  2  0
  7 12  1  0
  9 14  1  0
 10 15  2  0
 11 16  1  0
 12 17  2  0
 13 14  2  0
 13 15  1  0
 13 19  1  0
 16 18  2  0
 17 18  1  0
M  END
>  <PUBCHEM_COMPOUND_CID>  (1) 
28837

>  <PUBCHEM_CONFORMER_RMSD>  (1) 
0.6

>  <PUBCHEM_CONFORMER_DIVERSEORDER>  (1) 
1
4
3
2

>  <PUBCHEM_MMFF94_PARTIAL_CHARGES>  (1) 
27
1 -0.29
10 -0.15
11 -0.15
12 -0.15
13 -0.14
14 -0.15
15 -0.15
16 -0.15
17 -0.15
18 0.18
19 0.14
2 -0.29
21 0.15
22 0.15
23 0.15
24 0.15
25 0.15
26 0.15
27 0.15
28 0.15
3 -0.29
4 -0.18
5 0.29
6 -0.14
7 -0.14
8 0.87
9 -0.15

>  <PUBCHEM_EFFECTIVE_ROTOR_COUNT>  (1) 
3

>  <PUBCHEM_PHARMACOPHORE_FEATURES>  (1) 
2
6 6 9 10 13 14 15 rings
6 7 11 12 16 17 18 rings

>  <PUBCHEM_HEAVY_ATOM_COUNT>  (1) 
19

>  <PUBCHEM_ATOM_DEF_STEREO_COUNT>  (1) 
0

>  <PUBCHEM_ATOM_UDEF_STEREO_COUNT>  (1) 
1

>  <PUBCHEM_BOND_DEF_STEREO_COUNT>  (1) 
0

>  <PUBCHEM_BOND_UDEF_STEREO_COUNT>  (1) 
0

>  <PUBCHEM_ISOTOPIC_ATOM_COUNT>  (1) 
0

>  <PUBCHEM_COMPONENT_COUNT>  (1) 
1

>  <PUBCHEM_CACTVS_TAUTO_COUNT>  (1) 
1

>  <PUBCHEM_CONFORMER_ID>  (1) 
000070A500000001

>  <PUBCHEM_MMFF94_ENERGY>  (1) 
61.7603

>  <PUBCHEM_FEATURE_SELFOVERLAP>  (1) 
10.149

>  <PUBCHEM_SHAPE_FINGERPRINT>  (1) 
10165383 225 18191896502664945116
10498660 4 18410290307131584405
12173636 292 18192711361303767348
12363563 72 10087640411758554820
12500047 106 18340487889204732248
12532896 13 18410009974621026966
12633257 1 15357701906818185692
12730499 353 18337399232230259641
12788726 201 18049990392368739195
13134695 92 17759229709359705550
13294875 104 18200577134645662266
13583140 156 16660914594952890072
13681431 1 17692814783141252759
13955234 65 18118407233361738131
14123255 52 18408886234877038324
14142880 1 18190452942813571429
15309172 13 18335424564638055569
16945 1 18192152598996629234
17134986 127 18410572872950210796
17357779 13 17768238373477953951
1741750 31 18410854403940850984
1813 80 17338719249570553542
18186145 218 18201166481083105304
18219364 16 18339374040369695185
18222031 100 11458431227677574328
18785283 64 18189054192177109354
19765921 60 18272077284651252291
204376 136 18408604772721796113
20510252 161 18051976119121584618
20600515 1 16081383916639158789
20645477 56 18267878361609435576
21524375 3 18341609304437769614
21756936 100 16517113911027815196
2255824 54 18052533275470266731
22907989 373 17981328103116627908
23419403 2 17553255069392405207
23557571 272 18053115192247239204
23559900 14 17169847565579445567
238 59 18271808948011323863
25 1 18202291277209642264
2748010 2 18129392647071038210
283562 15 18048310343081224138
3060560 45 18200306624161340844
3729539 64 18048341963279271910
3759504 43 18336548317071513882
474 4 18341047424084315809
495365 180 18117832197449466633
559249 180 18340206388895937774
5845 1 17334764774486139631
633830 44 17915760698863899441
6442390 28 18336557083342800035
7364860 26 18122619457638104515
7808743 9 18189336930228204516
81228 2 17907013237476867787
8272917 22 18125723379532989325
84936 182 18197775505592480505

>  <PUBCHEM_SHAPE_MULTIPOLES>  (1) 
398.49
7.49
3.55
1.4
1.53
3.44
0.18
-8.97
0.96
-0.17
-0.05
-0.31
0.18
0.39

>  <PUBCHEM_SHAPE_SELFOVERLAP>  (1) 
810.028

>  <PUBCHEM_SHAPE_VOLUME>  (1) 
224.2

>  <PUBCHEM_COORDINATE_TYPE>  (1) 
2
5
10

$$$$
