28835
     RDKit          3D

 14 13  0  0  0  0  0  0  0  0999 V2000
    2.3774   -0.6543    0.4328 O   0  0  0  0  0  0  0  0  0  0  0  0
   -2.2800   -0.6637    0.4227 O   0  0  0  0  0  0  0  0  0  0  0  0
    1.4214    0.2603   -1.4550 O   0  0  0  0  0  0  0  0  0  0  0  0
   -1.1727   -0.6243   -1.5974 O   0  0  0  0  0  0  0  0  0  0  0  0
    0.0462   -0.2676    0.4875 C   0  0  0  0  0  0  0  0  0  0  0  0
   -0.1491    1.0362    1.2758 C   0  0  0  0  0  0  0  0  0  0  0  0
    1.3367   -0.1861   -0.3182 C   0  0  0  0  0  0  0  0  0  0  0  0
   -1.1788   -0.5327   -0.3771 C   0  0  0  0  0  0  0  0  0  0  0  0
    3.6629   -0.6038   -0.1939 C   0  0  0  0  0  0  0  0  0  0  0  0
   -3.5103   -0.9296   -0.2586 C   0  0  0  0  0  0  0  0  0  0  0  0
   -0.2667    2.2052    0.3894 C   0  0  0  0  0  0  0  0  0  0  0  0
    4.6994   -1.1543    0.7622 C   0  0  0  0  0  0  0  0  0  0  0  0
   -4.6233   -1.0459    0.7609 C   0  0  0  0  0  0  0  0  0  0  0  0
   -0.3630    3.1606   -0.3313 C   0  0  0  0  0  0  0  0  0  0  0  0
  1  7  1  0
  1  9  1  0
  2  8  1  0
  2 10  1  0
  3  7  2  0
  4  8  2  0
  5  6  1  0
  5  7  1  0
  5  8  1  0
  6 11  1  0
  9 12  1  0
 10 13  1  0
 11 14  3  0
M  END
>  <PUBCHEM_COMPOUND_CID>  (1) 
28835

>  <PUBCHEM_CONFORMER_RMSD>  (1) 
0.8

>  <PUBCHEM_CONFORMER_DIVERSEORDER>  (1) 
1
90
2
12
15
36
71
64
94
57
30
76
27
66
91
74
73
92
77
21
72
23
58
68
19
53
95
85
81
79
67
89
39
69
48
93
5
38
78
55
75
84
24
11
37
13
59
43
25
6
54
45
86
40
50
52
16
80
63
7
51
22
70
56
17
29
10
33
42
18
26
82
83
61
44
41
62
46
88
65
3
20
8
35
49
4
31
34
87
28
60
32
9
14
47

>  <PUBCHEM_MMFF94_PARTIAL_CHARGES>  (1) 
13
1 -0.43
10 0.28
11 -0.2
14 -0.18
2 -0.43
28 0.18
3 -0.57
4 -0.57
5 0.12
6 0.2
7 0.66
8 0.66
9 0.28

>  <PUBCHEM_EFFECTIVE_ROTOR_COUNT>  (1) 
7

>  <PUBCHEM_PHARMACOPHORE_FEATURES>  (1) 
4
1 14 hydrophobe
1 3 acceptor
1 4 acceptor
1 5 anion

>  <PUBCHEM_HEAVY_ATOM_COUNT>  (1) 
14

>  <PUBCHEM_ATOM_DEF_STEREO_COUNT>  (1) 
0

>  <PUBCHEM_ATOM_UDEF_STEREO_COUNT>  (1) 
0

>  <PUBCHEM_BOND_DEF_STEREO_COUNT>  (1) 
0

>  <PUBCHEM_BOND_UDEF_STEREO_COUNT>  (1) 
0

>  <PUBCHEM_ISOTOPIC_ATOM_COUNT>  (1) 
0

>  <PUBCHEM_COMPONENT_COUNT>  (1) 
1

>  <PUBCHEM_CACTVS_TAUTO_COUNT>  (1) 
1

>  <PUBCHEM_CONFORMER_ID>  (1) 
000070A300000001

>  <PUBCHEM_MMFF94_ENERGY>  (1) 
12.7437

>  <PUBCHEM_FEATURE_SELFOVERLAP>  (1) 
20.302

>  <PUBCHEM_SHAPE_FINGERPRINT>  (1) 
10130415 120 18409454712664158403
10465860 250 18408882940784666083
10922049 32 9007060183752890025
10989021 7 18413389860780725368
12119455 92 11455895736673321978
12138202 97 17770768023436920500
12251169 10 16702016500320978954
12423570 1 12201429178011766512
124424 183 18409728465796085863
13296909 8 18266734689291328796
13380536 53 17489595553651194110
14181834 199 17773310351818059053
18186145 218 12757151328776668559
187816 3 18113902662776534890
18785283 64 17610908167790251265
200 152 17967532359304070890
20097449 115 18411981390332189569
20339313 130 18341057423031652137
204376 136 9727635020494184489
20671657 1 17981609574315296425
20711985 327 18131353046138202505
20871998 184 18058729091953467324
21041028 32 18342462569075605585
21296965 67 18410008840601740344
21339142 126 18201708518935643166
23175994 123 18335138696041507479
23402539 116 18272080587323178703
23419403 2 17987492914542979785
23557571 272 18058745606255701316
68521 5 18337391543495130933
81228 2 18197803023347452841

>  <PUBCHEM_SHAPE_MULTIPOLES>  (1) 
264.64
7.03
2.21
1.15
1.28
2.88
-0.19
-5.92
1.7
-0.53
0.04
-0.03
-0.01
-0.17

>  <PUBCHEM_SHAPE_SELFOVERLAP>  (1) 
507.114

>  <PUBCHEM_SHAPE_VOLUME>  (1) 
161.2

>  <PUBCHEM_COORDINATE_TYPE>  (1) 
2
5
10

$$$$
