28844
     RDKit          3D

 20 21  0  0  1  0  0  0  0  0999 V2000
   -2.4618   -0.1422   -0.7411 O   0  0  0  0  0  0  0  0  0  0  0  0
    2.4477    0.1590    0.6838 O   0  0  0  0  0  0  0  0  0  0  0  0
   -2.3275    1.9859    0.2441 O   0  0  0  0  0  0  0  0  0  0  0  0
    2.3337   -1.9926   -0.2515 O   0  0  0  0  0  0  0  0  0  0  0  0
   -6.0826   -0.1652    0.0669 N   0  0  0  0  0  0  0  0  0  0  0  0
    6.0228    0.2835   -0.2948 N   0  0  0  0  0  0  0  0  0  0  0  0
   -1.6040    0.9753   -0.4711 C   0  0  0  0  0  0  0  0  0  0  0  0
    1.6040   -0.9768    0.4511 C   0  0  0  0  0  0  0  0  0  0  0  0
   -0.4149    0.5266    0.3562 C   0  0  0  0  0  0  0  0  0  0  0  0
    0.3988   -0.5490   -0.3638 C   0  0  0  0  0  0  0  0  0  0  0  0
   -3.6429    0.1163    0.0233 C   0  0  0  0  0  0  0  0  0  0  0  0
    3.7693   -0.3370    0.4596 C   0  0  0  0  0  0  0  0  0  0  0  0
   -3.6972    1.6241    0.0695 C   0  0  0  0  0  0  0  0  0  0  0  0
    3.5594   -1.3630   -0.6277 C   0  0  0  0  0  0  0  0  0  0  0  0
   -4.8501   -0.5235   -0.6281 C   0  0  0  0  0  0  0  0  0  0  0  0
    4.7032    0.7889    0.0712 C   0  0  0  0  0  0  0  0  0  0  0  0
   -6.0344   -0.6095    1.4605 C   0  0  0  0  0  0  0  0  0  0  0  0
   -7.2425   -0.7443   -0.6119 C   0  0  0  0  0  0  0  0  0  0  0  0
    6.6269   -0.4361    0.8273 C   0  0  0  0  0  0  0  0  0  0  0  0
    6.8923    1.3798   -0.7234 C   0  0  0  0  0  0  0  0  0  0  0  0
  1  7  1  0
  1 11  1  0
  2  8  1  0
  2 12  1  0
  3  7  1  0
  3 13  1  0
  4  8  1  0
  4 14  1  0
  5 15  1  0
  5 17  1  0
  5 18  1  0
  6 16  1  0
  6 19  1  0
  6 20  1  0
  7  9  1  0
  8 10  1  0
  9 10  1  0
 11 13  1  0
 11 15  1  0
 12 14  1  0
 12 16  1  0
M  END
>  <PUBCHEM_COMPOUND_CID>  (1) 
28844

>  <PUBCHEM_CONFORMER_RMSD>  (1) 
1

>  <PUBCHEM_CONFORMER_DIVERSEORDER>  (1) 
38
493
577
504
590
484
83
395
581
129
40
532
53
111
288
605
15
542
142
559
377
324
8
66
6
440
553
510
621
403
292
606
312
580
259
515
1
479
16
612
37
373
583
117
453
550
57
518
445
56
438
470
329
62
567
191
522
607
35
168
617
118
214
219
86
410
52
385
92
432
193
588
154
106
571
11
591
310
520
313
63
551
12
128
240
232
165
538
271
253
466
81
519
280
95
222
586
236
364
127
414
521
475
3
303
618
474
172
336
220
23
576
159
370
100
274
76
299
91
243
246
206
120
406
491
4
391
177
141
71
560
143
444
349
21
526
73
249
245
505
439
103
60
556
337
90
416
558
325
201
498
94
448
223
501
239
189
419
281
413
276
433
233
300
530
107
145
42
115
24
502
122
347
70
31
512
121
488
315
546
51
595
134
554
437
307
383
584
180
254
45
396
376
160
7
113
188
322
33
123
555
199
534
374
5
85
234
147
30
447
552
360
351
74
144
46
341
431
211
262
499
61
387
594
409
216
428
176
340
330
528
247
435
268
110
77
161
84
82
458
402
368
39
346
525
601
19
372
421
221
282
452
572
153
450
296
598
487
408
456
155
423
2
36
69
79
506
481
284
494
362
47
167
335
503
169
278
624
343
379
25
342
9
238
215
65
548
32
10
109
187
397
462
269
294
104
287
58
170
207
615
290
251
441
131
181
527
140
265
96
166
22
540
98
517
87
75
371
164
194
126
356
14
27
162
17
105

>  <PUBCHEM_MMFF94_PARTIAL_CHARGES>  (1) 
18
1 -0.56
11 0.28
12 0.28
13 0.28
14 0.28
15 0.27
16 0.27
17 0.27
18 0.27
19 0.27
2 -0.56
20 0.27
3 -0.56
4 -0.56
5 -0.81
6 -0.81
7 0.56
8 0.56

>  <PUBCHEM_EFFECTIVE_ROTOR_COUNT>  (1) 
9

>  <PUBCHEM_PHARMACOPHORE_FEATURES>  (1) 
8
1 1 acceptor
1 2 acceptor
1 3 acceptor
1 4 acceptor
1 5 cation
1 6 cation
5 1 3 7 11 13 rings
5 2 4 8 12 14 rings

>  <PUBCHEM_HEAVY_ATOM_COUNT>  (1) 
20

>  <PUBCHEM_ATOM_DEF_STEREO_COUNT>  (1) 
0

>  <PUBCHEM_ATOM_UDEF_STEREO_COUNT>  (1) 
4

>  <PUBCHEM_BOND_DEF_STEREO_COUNT>  (1) 
0

>  <PUBCHEM_BOND_UDEF_STEREO_COUNT>  (1) 
0

>  <PUBCHEM_ISOTOPIC_ATOM_COUNT>  (1) 
0

>  <PUBCHEM_COMPONENT_COUNT>  (1) 
1

>  <PUBCHEM_CACTVS_TAUTO_COUNT>  (1) 
1

>  <PUBCHEM_CONFORMER_ID>  (1) 
000070AC00000026

>  <PUBCHEM_MMFF94_ENERGY>  (1) 
48.4284

>  <PUBCHEM_FEATURE_SELFOVERLAP>  (1) 
40.678

>  <PUBCHEM_SHAPE_FINGERPRINT>  (1) 
10066227 112 11599996652884460290
10299344 5 17704075096617169791
10595046 47 18410292467594456208
10968037 39 18409165524453620367
11036077 3 13686300184165110461
11315181 36 17530969094579709833
11724838 91 18259986007126142836
12236239 1 18259702272416535020
12730499 353 18272936016555706190
12916748 109 18342741793520568724
13073987 5 18270679753869801162
13533116 47 15068888738570657648
13914758 101 12901536932235245751
14123256 10 18409446998649602692
1420 363 18334298660230465419
14251718 22 18334857207905620821
14251732 16 18260268563944105480
14251752 14 12319463173161748378
14251758 9 10807934834416802239
14251764 18 17632858629412346871
14251764 46 18113897165323617930
14617045 38 18060420222399466367
15183329 4 8646773308737589398
15461852 350 14996293534543203282
15531645 54 9799691497640226755
15537594 2 17632570543958767623
15716309 27 18408885126986284243
17834072 8 9295288343769905883
18335252 98 18409454699832393819
19377110 9 18411980221979623378
19489759 90 14056716833899643893
21095086 128 17203611488376761598
21267235 1 18343867718559099948
21344244 181 16845305934233047054
21521721 280 17988643047366722464
22224240 67 18334008423942509610
22896161 15 18409449206552930151
2297311 6 17418096516105664201
23035841 295 17989487424377175287
23218964 4 10447929468505900337
23402539 116 12035450545511138371
23559900 14 17968658341190033273
28498 318 10735889356671695656
29717793 49 12973886983745277090
3009799 131 14418129621590488653
3014965 18 11527678448799670820
328311 84 12463572898065662165
34797466 226 17775011210908094820
3545911 37 18343581841604738918
4072396 5 11602816904915765520
4325135 7 18410855468749751732
5104073 3 18269272357173808363
5207 217 18113621209205763866
54446538 1 18410572890478642340
5486654 2 18413388760794233439
59682541 35 18337954596690992875
6328613 192 10231746821343452506
9862886 166 17386012810136434267

>  <PUBCHEM_SHAPE_MULTIPOLES>  (1) 
378.15
20.03
1.5
0.93
0.13
0.22
0.13
-0.23
0.08
0.42
-0.1
-0.4
-0.11
-0.35

>  <PUBCHEM_SHAPE_SELFOVERLAP>  (1) 
750.539

>  <PUBCHEM_SHAPE_VOLUME>  (1) 
227.6

>  <PUBCHEM_COORDINATE_TYPE>  (1) 
2
5
10

$$$$
