28849
     RDKit          3D

 20 20  0  0  0  0  0  0  0  0999 V2000
   -5.2903   -0.1251   -1.1044 S   0  0  0  0  0  0  0  0  0  0  0  0
    2.0229    1.0238   -0.7631 O   0  0  0  0  0  0  0  0  0  0  0  0
    0.3844   -0.0929    1.1853 O   0  0  0  0  0  0  0  0  0  0  0  0
   -0.9176   -0.9947   -0.4938 O   0  0  0  0  0  0  0  0  0  0  0  0
   -4.0977    1.2350    1.1744 O   0  0  0  0  0  0  0  0  0  0  0  0
   -1.8828    0.4921    1.0694 N   0  0  0  0  0  0  0  0  0  0  0  0
    3.0652    1.9814   -0.5878 C   0  0  0  0  0  0  0  0  0  0  0  0
    2.2560   -0.2364   -0.3012 C   0  0  0  0  0  0  0  0  0  0  0  0
    2.5588    3.1183    0.2869 C   0  0  0  0  0  0  0  0  0  0  0  0
    3.5247    2.4765   -1.9507 C   0  0  0  0  0  0  0  0  0  0  0  0
    1.4619   -0.8158    0.6624 C   0  0  0  0  0  0  0  0  0  0  0  0
    3.3278   -0.9673   -0.8139 C   0  0  0  0  0  0  0  0  0  0  0  0
    1.6831   -2.0881    1.1409 C   0  0  0  0  0  0  0  0  0  0  0  0
    3.5772   -2.2587   -0.3492 C   0  0  0  0  0  0  0  0  0  0  0  0
    2.7549   -2.8190    0.6282 C   0  0  0  0  0  0  0  0  0  0  0  0
   -0.8236   -0.2672    0.4921 C   0  0  0  0  0  0  0  0  0  0  0  0
   -3.2332    0.5512    0.6196 C   0  0  0  0  0  0  0  0  0  0  0  0
   -3.5554   -0.2870   -0.6056 C   0  0  0  0  0  0  0  0  0  0  0  0
   -1.5567    1.3049    2.2450 C   0  0  0  0  0  0  0  0  0  0  0  0
   -5.2598   -1.2309   -2.5343 C   0  0  0  0  0  0  0  0  0  0  0  0
  1 18  1  0
  1 20  1  0
  2  7  1  0
  2  8  1  0
  3 11  1  0
  3 16  1  0
  4 16  2  0
  5 17  2  0
  6 16  1  0
  6 17  1  0
  6 19  1  0
  7  9  1  0
  7 10  1  0
  8 11  2  0
  8 12  1  0
 11 13  1  0
 12 14  2  0
 13 15  2  0
 14 15  1  0
 17 18  1  0
M  END
>  <PUBCHEM_COMPOUND_CID>  (1) 
28849

>  <PUBCHEM_CONFORMER_RMSD>  (1) 
0.8

>  <PUBCHEM_CONFORMER_DIVERSEORDER>  (1) 
1
415
273
338
215
186
177
140
425
187
409
349
388
404
157
230
333
220
414
359
182
173
239
109
128
123
237
362
330
262
257
421
275
321
104
65
294
231
226
118
221
332
271
86
390
357
203
348
205
408
54
351
378
426
392
178
69
268
398
73
399
383
282
429
326
195
379
102
96
133
420
111
373
394
180
224
101
358
68
170
393
146
418
312
322
213
206
134
328
419
156
75
308
381
384
400
179
397
243
297
302
264
413
320
59
225
159
191
99
255
375
346
344
403
92
153
327
53
314
28
103
174
377
169
396
76
292
82
316
371
131
417
202
267
335
254
368
176
350
304
369
117
204
288
387
14
151
199
249
161
278
48
352
122
389
105
108
219
188
245
84
340
113
125
183
315
410
209
142
256
77
286
162
145
386
115
228
298
361
141
334
269
171
211
175
50
323
165
172
201
287
144
301
401
270
155
347
119
248
149
261
55
337
167
121
114
411
184
318
391
313
67
265
354
222
136
311
296
353
382
329
79
412
325
212
356
279
12
424
124
83
181
137
95
45
112
277
194
253
233
366
293
250
376
260
88
61
324
303
139
306
85
127
198
370
197
343
26
38
34
407
241
280
244
291
78
331
252
299
290
49
18
289
41
152
185
210
300
132
427
283
6
31
238
30
32
422
126
56
24
274
200
163
150
64
89
216
98
317
336
106
43
57
46
70
87
160
363
91
259
8
276
319
116
207
25
214
405
196
272
94
166
193
21
355
342
37
258
190
63
36
208
120
10
143
35
229
218
395
3
374
129
130
385
33
281
72
60
107
263
367
74
62
164
2
305
148
365
360
27
80
285
251
430
234
266
154
13
23
416
284
341
100
372
307
40
158
380
227
147
242
135
44
246
17
364
217
309
93
47
189
90
9
4
295
138
29
235
22
428
339
5
223
97
423
20
310
7
39
16
406
52
232
51
11
236
58
42
66
168
110
19
402
15
345
71
192
240
247
81

>  <PUBCHEM_MMFF94_PARTIAL_CHARGES>  (1) 
22
1 -0.46
11 0.08
12 -0.15
13 -0.15
14 -0.15
15 -0.15
16 0.78
17 0.57
18 0.29
19 0.3
2 -0.36
20 0.23
28 0.15
29 0.15
3 -0.23
30 0.15
31 0.15
4 -0.57
5 -0.57
6 -0.42
7 0.28
8 0.08

>  <PUBCHEM_EFFECTIVE_ROTOR_COUNT>  (1) 
8

>  <PUBCHEM_PHARMACOPHORE_FEATURES>  (1) 
6
1 2 acceptor
1 20 hydrophobe
1 4 acceptor
1 5 acceptor
3 7 9 10 hydrophobe
6 8 11 12 13 14 15 rings

>  <PUBCHEM_HEAVY_ATOM_COUNT>  (1) 
20

>  <PUBCHEM_ATOM_DEF_STEREO_COUNT>  (1) 
0

>  <PUBCHEM_ATOM_UDEF_STEREO_COUNT>  (1) 
0

>  <PUBCHEM_BOND_DEF_STEREO_COUNT>  (1) 
0

>  <PUBCHEM_BOND_UDEF_STEREO_COUNT>  (1) 
0

>  <PUBCHEM_ISOTOPIC_ATOM_COUNT>  (1) 
0

>  <PUBCHEM_COMPONENT_COUNT>  (1) 
1

>  <PUBCHEM_CACTVS_TAUTO_COUNT>  (1) 
1

>  <PUBCHEM_CONFORMER_ID>  (1) 
000070B100000001

>  <PUBCHEM_MMFF94_ENERGY>  (1) 
64.839

>  <PUBCHEM_FEATURE_SELFOVERLAP>  (1) 
30.447

>  <PUBCHEM_SHAPE_FINGERPRINT>  (1) 
11543360 7 18187917405250805799
11725454 13 16661751340855679445
12616971 3 18271251534581827713
13009979 54 17844538707840445810
13134695 92 17969795081420069262
13675066 3 12031792470283388035
15342816 4 17346307237390895097
15842332 3 18130240250303271961
1813 80 17980778038624646774
18186145 218 17168432575687078873
18915474 69 18131345315482159799
20600515 1 16199869440967772753
20645477 70 18260272940494921451
21033648 29 16515688827809249885
21304303 282 17407090619892170372
21639500 275 18261121759229065594
2255824 54 18336275556847606762
23557571 272 15410339814801029240
23559900 14 18409442587755548667
23598288 3 17915764006405540273
23598291 2 18271536303134010893
3004659 81 18201145582168064135
312423 11 18272657831249293611
474 4 18261961850864483688
495365 180 16588291762128756651
633830 44 18187089412707260537
7364860 26 18409457964276005512
7471813 234 18340485543799212888
7615 1 18201164243415739529
84936 182 18340497763150267592
960060 61 18272075137584374911
9981440 41 17980481484191586976

>  <PUBCHEM_SHAPE_MULTIPOLES>  (1) 
386.98
9.92
3.01
1.9
13.52
0.63
0.26
-0.37
5.92
-5.11
0.14
1.74
0.45
-2.57

>  <PUBCHEM_SHAPE_SELFOVERLAP>  (1) 
769.775

>  <PUBCHEM_SHAPE_VOLUME>  (1) 
232.5

>  <PUBCHEM_COORDINATE_TYPE>  (1) 
2
5
10

$$$$
