28843
     RDKit          3D

 13 13  0  0  1  0  0  0  0  0999 V2000
    3.9977   -0.1048    0.2929 Cl  0  0  0  0  0  0  0  0  0  0  0  0
    2.1336    0.5981   -1.8081 Cl  0  0  0  0  0  0  0  0  0  0  0  0
    2.0283   -2.0453   -0.6207 Cl  0  0  0  0  0  0  0  0  0  0  0  0
    1.6227    1.6099    1.0973 O   0  0  0  0  0  0  0  0  0  0  0  0
    1.2965    0.2383    0.8001 C   0  0  0  0  0  0  0  0  0  0  0  0
   -0.1539    0.1316    0.4707 C   0  0  0  0  0  0  0  0  0  0  0  0
   -0.7831    1.1496   -0.2458 C   0  0  0  0  0  0  0  0  0  0  0  0
   -0.8813   -0.9864    0.8787 C   0  0  0  0  0  0  0  0  0  0  0  0
    2.3022   -0.3109   -0.2599 C   0  0  0  0  0  0  0  0  0  0  0  0
   -2.8672   -0.0684   -0.1462 C   0  0  0  0  0  0  0  0  0  0  0  0
   -2.1398    1.0497   -0.5541 C   0  0  0  0  0  0  0  0  0  0  0  0
   -2.2380   -1.0865    0.5703 C   0  0  0  0  0  0  0  0  0  0  0  0
   -4.3177   -0.1750   -0.4752 C   0  0  0  0  0  0  0  0  0  0  0  0
  1  9  1  0
  2  9  1  0
  3  9  1  0
  4  5  1  0
  5  6  1  0
  5  9  1  0
  6  7  2  0
  6  8  1  0
  7 11  1  0
  8 12  2  0
 10 11  2  0
 10 12  1  0
 10 13  1  0
M  END
>  <PUBCHEM_COMPOUND_CID>  (1) 
28843

>  <PUBCHEM_CONFORMER_RMSD>  (1) 
0.6

>  <PUBCHEM_CONFORMER_DIVERSEORDER>  (1) 
1
2

>  <PUBCHEM_MMFF94_PARTIAL_CHARGES>  (1) 
18
1 -0.29
10 -0.14
11 -0.15
12 -0.15
13 0.14
15 0.15
16 0.15
17 0.15
18 0.15
2 -0.29
22 0.4
3 -0.29
4 -0.68
5 0.42
6 -0.14
7 -0.15
8 -0.15
9 0.87

>  <PUBCHEM_EFFECTIVE_ROTOR_COUNT>  (1) 
2

>  <PUBCHEM_PHARMACOPHORE_FEATURES>  (1) 
3
1 4 acceptor
1 4 donor
6 6 7 8 10 11 12 rings

>  <PUBCHEM_HEAVY_ATOM_COUNT>  (1) 
13

>  <PUBCHEM_ATOM_DEF_STEREO_COUNT>  (1) 
0

>  <PUBCHEM_ATOM_UDEF_STEREO_COUNT>  (1) 
1

>  <PUBCHEM_BOND_DEF_STEREO_COUNT>  (1) 
0

>  <PUBCHEM_BOND_UDEF_STEREO_COUNT>  (1) 
0

>  <PUBCHEM_ISOTOPIC_ATOM_COUNT>  (1) 
0

>  <PUBCHEM_COMPONENT_COUNT>  (1) 
1

>  <PUBCHEM_CACTVS_TAUTO_COUNT>  (1) 
1

>  <PUBCHEM_CONFORMER_ID>  (1) 
000070AB00000001

>  <PUBCHEM_MMFF94_ENERGY>  (1) 
30.1163

>  <PUBCHEM_FEATURE_SELFOVERLAP>  (1) 
15.223

>  <PUBCHEM_SHAPE_FINGERPRINT>  (1) 
12251169 10 10375865255992071110
12326174 3 17418378004146280360
12932764 1 18131355215254916543
13538477 17 16298382500308830961
14115302 16 18260272957716878230
14252887 29 16702028581858072454
14350558 41 18411142394340842582
14993402 34 16950279594179225751
15207287 21 18413103965976737882
15219456 202 18340763866021982672
15775835 57 18131349717433384694
16945 1 18342471355955700651
18186145 218 15792007926321635903
200 152 17632571656455257259
20201158 50 18413671300949103266
20279233 1 18342459252738048803
20361792 2 17131278952213036716
20645476 183 16805317816863480323
20645477 70 17632856443089097895
20711985 344 17127643889636452968
21119208 17 17240482502717824694
21501502 16 18198347251511881489
22445834 79 13614250243262680684
22802520 49 18335428966974006051
23402539 116 18113888360350569454
23552423 10 17967818206320131547
23557571 272 18335137544964184468
23559900 14 18334292076984305296
2748010 2 17976261558078502075
3248919 1 18260559904307688154
369184 2 11527946712472419755
5084963 1 18114461167333101513
7364860 26 18262240052828578364

>  <PUBCHEM_SHAPE_MULTIPOLES>  (1) 
267.27
6.29
1.51
1.2
1.75
0.31
-0.23
0.51
-0.98
-0.36
-0.12
-0.7
-0.2
0.39

>  <PUBCHEM_SHAPE_SELFOVERLAP>  (1) 
519.507

>  <PUBCHEM_SHAPE_VOLUME>  (1) 
161.3

>  <PUBCHEM_COORDINATE_TYPE>  (1) 
2
5
10

$$$$
