28845
     RDKit          3D

 13 13  0  0  1  0  0  0  0  0999 V2000
    2.5071    0.3281    0.2263 N   0  0  0  0  0  0  0  0  0  0  0  0
    0.1810   -0.1944   -0.3055 C   0  0  0  0  0  0  0  0  0  0  0  0
    0.3314   -1.7209   -0.1442 C   0  0  0  0  0  0  0  0  0  0  0  0
   -0.6486   -2.0661    0.9826 C   0  0  0  0  0  0  0  0  0  0  0  0
   -1.2583    0.0510    0.0881 C   0  0  0  0  0  0  0  0  0  0  0  0
   -1.8533   -1.1614    0.7467 C   0  0  0  0  0  0  0  0  0  0  0  0
    1.1466    0.5684    0.6030 C   0  0  0  0  0  0  0  0  0  0  0  0
   -0.0111   -2.4690   -1.4359 C   0  0  0  0  0  0  0  0  0  0  0  0
   -1.9318    1.1854   -0.1372 C   0  0  0  0  0  0  0  0  0  0  0  0
   -1.2931    2.3718   -0.7996 C   0  0  0  0  0  0  0  0  0  0  0  0
   -3.3710    1.3482    0.2580 C   0  0  0  0  0  0  0  0  0  0  0  0
    3.4466    1.0583    1.0952 C   0  0  0  0  0  0  0  0  0  0  0  0
    2.7545    0.7006   -1.1775 C   0  0  0  0  0  0  0  0  0  0  0  0
  1  7  1  0
  1 12  1  0
  1 13  1  0
  2  3  1  0
  2  5  1  0
  2  7  1  0
  3  4  1  0
  3  8  1  0
  4  6  1  0
  5  6  1  0
  5  9  2  3
  9 10  1  0
  9 11  1  0
M  END
>  <PUBCHEM_COMPOUND_CID>  (1) 
28845

>  <PUBCHEM_CONFORMER_RMSD>  (1) 
0.6

>  <PUBCHEM_CONFORMER_DIVERSEORDER>  (1) 
1
2

>  <PUBCHEM_MMFF94_PARTIAL_CHARGES>  (1) 
10
1 -0.81
10 0.14
11 0.14
12 0.27
13 0.27
2 0.14
5 -0.28
6 0.14
7 0.27
9 -0.28

>  <PUBCHEM_EFFECTIVE_ROTOR_COUNT>  (1) 
2.8

>  <PUBCHEM_PHARMACOPHORE_FEATURES>  (1) 
3
1 1 cation
3 9 10 11 hydrophobe
5 2 3 4 5 6 rings

>  <PUBCHEM_HEAVY_ATOM_COUNT>  (1) 
13

>  <PUBCHEM_ATOM_DEF_STEREO_COUNT>  (1) 
0

>  <PUBCHEM_ATOM_UDEF_STEREO_COUNT>  (1) 
2

>  <PUBCHEM_BOND_DEF_STEREO_COUNT>  (1) 
0

>  <PUBCHEM_BOND_UDEF_STEREO_COUNT>  (1) 
0

>  <PUBCHEM_ISOTOPIC_ATOM_COUNT>  (1) 
0

>  <PUBCHEM_COMPONENT_COUNT>  (1) 
1

>  <PUBCHEM_CACTVS_TAUTO_COUNT>  (1) 
1

>  <PUBCHEM_CONFORMER_ID>  (1) 
000070AD00000001

>  <PUBCHEM_MMFF94_ENERGY>  (1) 
28.6363

>  <PUBCHEM_FEATURE_SELFOVERLAP>  (1) 
15.223

>  <PUBCHEM_SHAPE_FINGERPRINT>  (1) 
1 1 18198618835342660750
11132069 177 18409167718797059553
12423570 1 17910976942640730755
13024252 1 17532915306779396130
13380535 76 18409728422387444611
13538477 17 17749390424863416960
14251711 518 17686911926382002852
14648413 74 17620188733365716365
14817 1 13882031807798600830
15076042 46 18114463460993304834
15775835 57 18341043051760038360
16945 1 18190187964743207243
17846911 113 18408597050602992433
19837323 101 18342171202139845850
20511035 2 18337103458948899634
20645464 45 17917432094219334304
20645476 183 17894922849099269286
20645477 70 17980752750289516965
20871998 184 18268434718313173727
21028194 46 18338514136371997264
21296965 12 18337099090676652109
21501502 16 18337954493701850811
21524375 3 18338789031363676617
220403 375 18264192634901841201
23211744 41 18264485083789011989
23388829 49 16613631454630842400
23402539 116 18266727155739564535
23419403 2 17259969070104038923
23598294 1 17969514873052302032
25 1 18200038308959254096
2748010 2 18191326917562109923
5706482 22 18337374002848447538
7364860 26 17911233914876126735
81228 2 18051403260525636938

>  <PUBCHEM_SHAPE_MULTIPOLES>  (1) 
262.55
4.36
2.62
1.19
1.89
0.88
0.17
-3.1
-0.8
-1.01
0.56
0.47
0.28
0.56

>  <PUBCHEM_SHAPE_SELFOVERLAP>  (1) 
515.409

>  <PUBCHEM_SHAPE_VOLUME>  (1) 
160.7

>  <PUBCHEM_COORDINATE_TYPE>  (1) 
2
5
10

$$$$
