28848
     RDKit          3D

 20 20  0  0  0  0  0  0  0  0999 V2000
    1.6913    1.3748    0.8622 O   0  0  0  0  0  0  0  0  0  0  0  0
    1.0546   -1.3289    0.9716 O   0  0  0  0  0  0  0  0  0  0  0  0
   -4.9097    0.8072   -0.4315 O   0  0  0  0  0  0  0  0  0  0  0  0
   -3.1187    0.0459    1.4113 O   0  0  0  0  0  0  0  0  0  0  0  0
   -0.0734   -1.0990   -1.0495 O   0  0  0  0  0  0  0  0  0  0  0  0
   -1.1611   -1.8244    0.8688 N   0  0  0  0  0  0  0  0  0  0  0  0
    1.1309    2.3732    0.0119 C   0  0  0  0  0  0  0  0  0  0  0  0
    2.5016    0.4483    0.2786 C   0  0  0  0  0  0  0  0  0  0  0  0
    1.6097    3.7439    0.4658 C   0  0  0  0  0  0  0  0  0  0  0  0
   -0.3860    2.2638    0.0436 C   0  0  0  0  0  0  0  0  0  0  0  0
    2.2125   -0.8974    0.3172 C   0  0  0  0  0  0  0  0  0  0  0  0
    3.6592    0.8662   -0.3783 C   0  0  0  0  0  0  0  0  0  0  0  0
    3.0210   -1.8473   -0.2674 C   0  0  0  0  0  0  0  0  0  0  0  0
   -2.4710   -1.9967    0.3132 C   0  0  0  0  0  0  0  0  0  0  0  0
    4.4973   -0.0725   -0.9798 C   0  0  0  0  0  0  0  0  0  0  0  0
    4.1783   -1.4291   -0.9243 C   0  0  0  0  0  0  0  0  0  0  0  0
   -3.2516   -0.7059    0.4461 C   0  0  0  0  0  0  0  0  0  0  0  0
   -0.0635   -1.3896    0.1430 C   0  0  0  0  0  0  0  0  0  0  0  0
   -4.2586   -0.4262   -0.6514 C   0  0  0  0  0  0  0  0  0  0  0  0
   -5.8627    1.0938   -1.4509 C   0  0  0  0  0  0  0  0  0  0  0  0
  1  7  1  0
  1  8  1  0
  2 11  1  0
  2 18  1  0
  3 19  1  0
  3 20  1  0
  4 17  2  0
  5 18  2  0
  6 14  1  0
  6 18  1  0
  7  9  1  0
  7 10  1  0
  8 11  2  0
  8 12  1  0
 11 13  1  0
 12 15  2  0
 13 16  2  0
 14 17  1  0
 15 16  1  0
 17 19  1  0
M  END
>  <PUBCHEM_COMPOUND_CID>  (1) 
28848

>  <PUBCHEM_CONFORMER_RMSD>  (1) 
0.8

>  <PUBCHEM_CONFORMER_DIVERSEORDER>  (1) 
1
366
253
247
411
157
312
191
406
113
374
298
33
257
402
418
408
330
281
394
379
398
54
283
335
342
107
317
124
324
156
31
138
127
86
218
161
278
207
259
167
61
378
141
338
331
52
266
311
388
180
376
372
234
351
134
190
26
415
205
272
264
274
417
197
183
391
144
389
285
166
182
347
260
130
387
314
310
198
348
214
233
110
375
129
304
395
356
175
98
115
293
409
333
399
174
265
149
404
165
268
299
328
357
137
97
337
204
295
352
146
414
71
382
136
199
195
243
169
120
196
291
339
412
269
242
271
334
128
194
179
238
133
219
206
80
397
255
118
370
215
100
177
159
171
325
208
305
367
336
318
162
300
416
152
104
250
276
105
229
319
275
84
68
346
132
116
355
381
11
222
237
117
270
112
245
225
181
315
163
85
88
213
361
226
76
246
99
77
306
341
81
284
240
173
150
232
282
90
323
358
313
145
322
405
220
261
279
139
380
93
251
211
56
369
42
326
258
170
344
48
210
57
178
362
262
230
92
125
60
106
35
21
38
73
350
327
154
91
302
186
17
185
46
78
343
147
160
202
184
365
153
235
192
212
410
209
20
386
30
359
79
354
44
345
201
349
288
70
364
392
294
72
353
332
34
140
74
321
277
82
119
87
189
396
371
217
143
403
49
377
252
307
75
47
126
64
142
329
69
401
236
101
263
360
390
43
254
111
103
58
407
384
109
292
296
45
267
239
51
89
121
102
273
244
316
187
373
94
168
193
176
289
385
303
29
65
10
62
290
224
308
400
66
37
393
227
67
248
123
95
9
301
122
18
249
114
286
297
340
256
151
13
12
216
221
309
413
40
172
8
63
83
96
28
6
4
131
32
231
287
188
203
3
158
368
36
228
15
24
280
7
2
200
5
363
53
55
27
164
148
135
16
41
59
14
50
223
155
241
320
19
39
22
383
108
23
25

>  <PUBCHEM_MMFF94_PARTIAL_CHARGES>  (1) 
23
1 -0.36
11 0.08
12 -0.15
13 -0.15
14 0.36
15 -0.15
16 -0.15
17 0.45
18 0.78
19 0.34
2 -0.23
20 0.28
28 0.15
29 0.15
3 -0.56
32 0.15
33 0.15
34 0.37
4 -0.57
5 -0.57
6 -0.73
7 0.28
8 0.08

>  <PUBCHEM_EFFECTIVE_ROTOR_COUNT>  (1) 
9

>  <PUBCHEM_PHARMACOPHORE_FEATURES>  (1) 
7
1 1 acceptor
1 3 acceptor
1 4 acceptor
1 5 acceptor
1 6 donor
3 7 9 10 hydrophobe
6 8 11 12 13 15 16 rings

>  <PUBCHEM_HEAVY_ATOM_COUNT>  (1) 
20

>  <PUBCHEM_ATOM_DEF_STEREO_COUNT>  (1) 
0

>  <PUBCHEM_ATOM_UDEF_STEREO_COUNT>  (1) 
0

>  <PUBCHEM_BOND_DEF_STEREO_COUNT>  (1) 
0

>  <PUBCHEM_BOND_UDEF_STEREO_COUNT>  (1) 
0

>  <PUBCHEM_ISOTOPIC_ATOM_COUNT>  (1) 
0

>  <PUBCHEM_COMPONENT_COUNT>  (1) 
1

>  <PUBCHEM_CACTVS_TAUTO_COUNT>  (1) 
6

>  <PUBCHEM_CONFORMER_ID>  (1) 
000070B000000001

>  <PUBCHEM_MMFF94_ENERGY>  (1) 
54.6341

>  <PUBCHEM_FEATURE_SELFOVERLAP>  (1) 
35.53

>  <PUBCHEM_SHAPE_FINGERPRINT>  (1) 
104564 63 18269564844599828016
10498660 4 18334576845488976659
116883 192 18198354965890609510
12011746 2 18409730634221749301
12788726 201 18263652766888925338
13402501 40 18261387820038052285
13583140 156 18334584572499808403
15003188 100 18336253627139998845
15081414 286 18340783627514852888
15210252 30 17822014215866289236
15238133 3 17968082101979557360
15806764 133 18264790885524226195
15848700 24 18273497849474342934
1601671 61 18411142471866460140
17041 50 18411422838335543602
17357779 13 18411982433782363212
18335252 114 18268420245296928973
20621476 13 18195522812420654001
21033648 29 18113615716396389977
212847 35 18040710329731085523
221357 26 18411131408109976677
22224240 67 10665526139779357719
22289505 5 18409727339918503774
23559900 14 18343016722286638531
3014063 31 18410572851396629813
3060560 45 18060420218363124502
3524813 1 18113889434556753733
4028521 119 18335421257755895731
7832392 63 18270116949781964790

>  <PUBCHEM_SHAPE_MULTIPOLES>  (1) 
377.26
9.99
3.11
1.1
11.37
2.74
0.09
-0.01
4.44
-1.43
-0.47
0.55
-0.05
1.21

>  <PUBCHEM_SHAPE_SELFOVERLAP>  (1) 
763.206

>  <PUBCHEM_SHAPE_VOLUME>  (1) 
219.1

>  <PUBCHEM_COORDINATE_TYPE>  (1) 
2
5
10

$$$$
