28857
     RDKit          3D

 19 21  0  0  1  0  0  0  0  0999 V2000
   -1.0346   -1.0522   -0.0595 Si  0  0  0  0  0  4  0  0  0  0  0  0
    1.0338    1.0503   -0.0595 Si  0  0  0  0  0  4  0  0  0  0  0  0
   -0.0003   -0.0009    0.8227 O   0  0  0  0  0  0  0  0  0  0  0  0
   -0.3077   -0.7154   -1.8643 C   0  0  0  0  0  0  0  0  0  0  0  0
    0.3085    0.7117   -1.8648 C   0  0  0  0  0  0  0  0  0  0  0  0
   -2.7817   -0.3906    0.0778 C   0  0  0  0  0  0  0  0  0  0  0  0
    2.7816    0.3905    0.0778 C   0  0  0  0  0  0  0  0  0  0  0  0
   -0.8783   -2.8323    0.4098 C   0  0  0  0  0  0  0  0  0  0  0  0
    0.8765    2.8307    0.4077 C   0  0  0  0  0  0  0  0  0  0  0  0
   -3.8256   -0.8592   -0.7630 C   0  0  0  0  0  0  0  0  0  0  0  0
    3.8249    0.8600   -0.7632 C   0  0  0  0  0  0  0  0  0  0  0  0
   -3.1303    0.6045    1.0289 C   0  0  0  0  0  0  0  0  0  0  0  0
    3.1311   -0.6041    1.0290 C   0  0  0  0  0  0  0  0  0  0  0  0
   -5.1268   -0.3672   -0.6599 C   0  0  0  0  0  0  0  0  0  0  0  0
    5.1266    0.3695   -0.6600 C   0  0  0  0  0  0  0  0  0  0  0  0
   -4.4314    1.0963    1.1322 C   0  0  0  0  0  0  0  0  0  0  0  0
    4.4329   -1.0945    1.1324 C   0  0  0  0  0  0  0  0  0  0  0  0
   -5.4298    0.6105    0.2878 C   0  0  0  0  0  0  0  0  0  0  0  0
    5.4306   -0.6077    0.2879 C   0  0  0  0  0  0  0  0  0  0  0  0
  1  3  1  0
  1  4  1  0
  1  6  1  0
  1  8  1  0
  2  3  1  0
  2  5  1  0
  2  7  1  0
  2  9  1  0
  4  5  1  0
  6 10  2  0
  6 12  1  0
  7 11  2  0
  7 13  1  0
 10 14  1  0
 11 15  1  0
 12 16  2  0
 13 17  2  0
 14 18  2  0
 15 19  2  0
 16 18  1  0
 17 19  1  0
M  END
>  <PUBCHEM_COMPOUND_CID>  (1) 
28857

>  <PUBCHEM_CONFORMER_RMSD>  (1) 
0.6

>  <PUBCHEM_CONFORMER_DIVERSEORDER>  (1) 
6
1
10
2
21
17
19
7
13
20
3
11
9
5
18
23
22
12
16
8
4
14
15

>  <PUBCHEM_MMFF94_PARTIAL_CHARGES>  (1) 
29
1 0.68
10 -0.15
11 -0.15
12 -0.15
13 -0.15
14 -0.15
15 -0.15
16 -0.15
17 -0.15
18 -0.15
19 -0.15
2 0.68
3 -0.59
30 0.15
31 0.15
32 0.15
33 0.15
34 0.15
35 0.15
36 0.15
37 0.15
38 0.15
39 0.15
4 -0.08
5 -0.08
6 -0.22
7 -0.22
8 -0.08
9 -0.08

>  <PUBCHEM_EFFECTIVE_ROTOR_COUNT>  (1) 
3

>  <PUBCHEM_PHARMACOPHORE_FEATURES>  (1) 
3
5 1 2 3 4 5 rings
6 6 10 12 14 16 18 rings
6 7 11 13 15 17 19 rings

>  <PUBCHEM_HEAVY_ATOM_COUNT>  (1) 
19

>  <PUBCHEM_ATOM_DEF_STEREO_COUNT>  (1) 
0

>  <PUBCHEM_ATOM_UDEF_STEREO_COUNT>  (1) 
2

>  <PUBCHEM_BOND_DEF_STEREO_COUNT>  (1) 
0

>  <PUBCHEM_BOND_UDEF_STEREO_COUNT>  (1) 
0

>  <PUBCHEM_ISOTOPIC_ATOM_COUNT>  (1) 
0

>  <PUBCHEM_COMPONENT_COUNT>  (1) 
1

>  <PUBCHEM_CACTVS_TAUTO_COUNT>  (1) 
1

>  <PUBCHEM_CONFORMER_ID>  (1) 
000070B900000006

>  <PUBCHEM_MMFF94_ENERGY>  (1) 
47.5582

>  <PUBCHEM_FEATURE_SELFOVERLAP>  (1) 
15.223

>  <PUBCHEM_SHAPE_FINGERPRINT>  (1) 
10 15 15625926644303717650
10366900 7 14201671009920224273
10369192 42 13626098752953709566
11646440 116 17274833458616222441
12011746 2 18410575084663079198
12166972 35 18188769569822937669
12236239 1 18410573993741385784
12403260 363 18201717414240219997
12596602 18 18411138086182482008
12633257 1 18410575097547980837
12670546 56 18411415133174906856
12760667 363 18041833996640082586
12788726 201 18341622477661999712
13533116 47 17560804269627581550
13583140 156 18052544562264343793
13675066 3 16487254404214842388
14251764 18 18410855485897965654
14251764 3 15769772442242847650
14251764 30 15719392832337778875
14251764 38 15698001842209331931
14466204 15 18340768126883170073
14573314 32 16845579690425141988
15048467 5 17895197735675581284
15099037 51 18410292523096650099
15788980 27 16774078488089013869
1601671 61 18202003200831313272
17349148 13 17775010119463817453
17980427 23 17775569762414351049
1813 80 17822862982997301142
19141452 34 18040996280111321258
192875 21 17988643038566213185
19489759 90 17489588956876910843
20197701 30 15697997426988225988
20567600 75 16588019087571878463
21033648 29 17531512266098255965
21285901 2 17774174404875406396
212916 134 17418085507946229030
21521721 280 7925330962017607701
23175994 123 16588027909455602413
23184049 59 17967817149721162311
23402539 116 18059853961358419509
23419403 2 17610054564704776055
23557571 272 16630538331994569025
23558518 356 17902231448580861555
23559900 14 18201434848130865336
3004659 81 18259703381372841058
345986 75 18116697535556276400
34934 24 18269274728697673768
351380 180 16200430273291111793
465052 167 18412548738168500758
5104073 3 18338799034321339272
5385378 56 17345770572854006047
59755656 215 17560522811645578109
59755656 520 18334287704840233415
6328613 192 18340212989617782180
8509985 295 18411140242367171741
9981440 41 17260171723835893081

>  <PUBCHEM_SHAPE_MULTIPOLES>  (1) 
421.57
11.46
2
1.39
0.01
0
0.41
-0.01
-1.41
0
-0.37
0
0
-1.14

>  <PUBCHEM_SHAPE_SELFOVERLAP>  (1) 
852.101

>  <PUBCHEM_SHAPE_VOLUME>  (1) 
246.5

>  <PUBCHEM_COORDINATE_TYPE>  (1) 
2
5
10

$$$$
