28855
     RDKit          3D

 22 24  0  0  0  0  0  0  0  0999 V2000
   -1.4983    1.9638    0.4029 O   0  0  0  0  0  0  0  0  0  0  0  0
    2.6154   -0.1707    0.2414 O   0  0  0  0  0  0  0  0  0  0  0  0
    0.7016   -1.7113   -1.1457 O   0  0  0  0  0  0  0  0  0  0  0  0
    6.0588   -0.7420    0.0713 O   0  0  0  0  0  0  0  0  0  0  0  0
    4.3829   -2.0532    0.6277 O   0  0  0  0  0  0  0  0  0  0  0  0
   -0.1365    2.2400    0.3928 N   0  0  0  0  0  0  0  0  0  0  0  0
    4.8194   -0.9272    0.2488 N   0  0  0  0  0  0  0  0  0  0  0  0
   -0.4833    0.0462   -0.1109 C   0  0  0  0  0  0  0  0  0  0  0  0
   -1.6852    0.6565    0.1017 C   0  0  0  0  0  0  0  0  0  0  0  0
    0.4493    1.0797    0.0835 C   0  0  0  0  0  0  0  0  0  0  0  0
   -3.0625    0.2274    0.0759 C   0  0  0  0  0  0  0  0  0  0  0  0
    1.9149    0.9627   -0.0266 C   0  0  0  0  0  0  0  0  0  0  0  0
   -0.2766   -1.3299   -0.4513 C   0  0  0  0  0  0  0  0  0  0  0  0
    2.7630    1.9750   -0.4117 C   0  0  0  0  0  0  0  0  0  0  0  0
   -3.6629   -0.2600    1.2367 C   0  0  0  0  0  0  0  0  0  0  0  0
   -3.7936    0.3002   -1.1096 C   0  0  0  0  0  0  0  0  0  0  0  0
    4.0680    1.4285   -0.3779 C   0  0  0  0  0  0  0  0  0  0  0  0
    3.9247    0.1213    0.0251 C   0  0  0  0  0  0  0  0  0  0  0  0
   -1.2534   -2.4166    0.0221 C   0  0  0  0  0  0  0  0  0  0  0  0
   -4.9945   -0.6745    1.2119 C   0  0  0  0  0  0  0  0  0  0  0  0
   -5.1253   -0.1143   -1.1344 C   0  0  0  0  0  0  0  0  0  0  0  0
   -5.7258   -0.6017    0.0263 C   0  0  0  0  0  0  0  0  0  0  0  0
  1  6  1  0
  1  9  1  0
  2 12  1  0
  2 18  1  0
  3 13  2  0
  4  7  1  0
  5  7  2  0
  6 10  2  0
  7 18  1  0
  8  9  2  0
  8 10  1  0
  8 13  1  0
  9 11  1  0
 10 12  1  0
 11 15  2  0
 11 16  1  0
 12 14  2  0
 13 19  1  0
 14 17  1  0
 15 20  1  0
 16 21  2  0
 17 18  2  0
 20 22  2  0
 21 22  1  0
M  CHG  2   4  -1   7   1
M  END
>  <PUBCHEM_COMPOUND_CID>  (1) 
28855

>  <PUBCHEM_CONFORMER_RMSD>  (1) 
0.6

>  <PUBCHEM_CONFORMER_DIVERSEORDER>  (1) 
1
12
17
19
23
6
2
9
11
20
10
21
15
24
16
5
18
22
13
14
7
8
4
3

>  <PUBCHEM_MMFF94_PARTIAL_CHARGES>  (1) 
29
1 -0.02
10 0.29
11 0.05
12 0.14
13 0.6
14 -0.15
15 -0.15
16 -0.15
17 -0.15
18 0.22
19 0.06
2 -0.28
20 -0.15
21 -0.15
22 -0.15
23 0.15
24 0.15
25 0.15
26 0.15
3 -0.57
30 0.15
31 0.15
32 0.15
4 -0.52
5 -0.52
6 -0.41
7 0.96
8 -0.09
9 0.09

>  <PUBCHEM_EFFECTIVE_ROTOR_COUNT>  (1) 
4

>  <PUBCHEM_PHARMACOPHORE_FEATURES>  (1) 
9
1 2 acceptor
1 3 acceptor
1 4 acceptor
1 4 anion
1 5 acceptor
1 6 acceptor
5 1 6 8 9 10 rings
5 2 12 14 17 18 rings
6 11 15 16 20 21 22 rings

>  <PUBCHEM_HEAVY_ATOM_COUNT>  (1) 
22

>  <PUBCHEM_ATOM_DEF_STEREO_COUNT>  (1) 
0

>  <PUBCHEM_ATOM_UDEF_STEREO_COUNT>  (1) 
0

>  <PUBCHEM_BOND_DEF_STEREO_COUNT>  (1) 
0

>  <PUBCHEM_BOND_UDEF_STEREO_COUNT>  (1) 
0

>  <PUBCHEM_ISOTOPIC_ATOM_COUNT>  (1) 
0

>  <PUBCHEM_COMPONENT_COUNT>  (1) 
1

>  <PUBCHEM_CACTVS_TAUTO_COUNT>  (1) 
2

>  <PUBCHEM_CONFORMER_ID>  (1) 
000070B700000001

>  <PUBCHEM_MMFF94_ENERGY>  (1) 
45.4428

>  <PUBCHEM_FEATURE_SELFOVERLAP>  (1) 
45.768

>  <PUBCHEM_SHAPE_FINGERPRINT>  (1) 
11796584 16 17458061573405084083
12236239 1 17561367309896076429
12715332 25 18272930561445950687
12788726 201 17917164852474898104
13140716 1 18199750417359256690
13533116 47 18272368672776491944
13551218 46 18272371927934902174
13583140 156 17604151527287555433
13690532 89 18410572885703399756
13760787 5 18412826914853116013
13862211 1 18343017804898114727
14573314 32 16877939425816561035
15196674 1 18339360884942707383
15209289 33 17846502556235691081
15788980 27 18260264161845226733
17349148 13 18201723959211034485
17844677 252 18186525405838872269
17862501 102 17989205949611363801
19489759 90 16805319990222043439
200 152 18413385428052559905
20028762 73 17917989512018314263
20567600 75 17675923192436401855
20645477 70 18260829297942282882
21033648 29 18114444743594907549
21267235 1 18411144611018636390
21682296 61 18197784310423480982
23402539 116 18201718444779267301
23559900 14 17749389294975983344
3004659 81 18113335310898145368
335352 9 18411699898022375887
34797466 226 16371016242803323925
34934 24 18268707401972130704
3545911 37 18336265747395555660
465052 167 18408892853389869578
474229 33 18342176678534677007
5104073 3 18199470033330814939

>  <PUBCHEM_SHAPE_MULTIPOLES>  (1) 
413.44
12.18
2.06
0.96
1.74
0.26
0.03
2.9
-0.54
1.6
-0.03
-1.05
0.1
-0.17

>  <PUBCHEM_SHAPE_SELFOVERLAP>  (1) 
912.394

>  <PUBCHEM_SHAPE_VOLUME>  (1) 
222.6

>  <PUBCHEM_COORDINATE_TYPE>  (1) 
2
5
10

$$$$
