28868
     RDKit          3D

 35 38  0  0  1  0  0  0  0  0999 V2000
    0.6273   -4.2913    1.0759 Cl  0  0  0  0  0  0  0  0  0  0  0  0
   -0.0593    1.6060    0.2893 O   0  0  0  0  0  0  0  0  0  0  0  0
   -5.3804    0.8462   -2.1189 O   0  0  0  0  0  0  0  0  0  0  0  0
   -3.6737   -1.3777    1.7645 O   0  0  0  0  0  0  0  0  0  0  0  0
   -5.7814   -0.8225    0.0556 O   0  0  0  0  0  0  0  0  0  0  0  0
   -0.3129    1.6940   -1.9970 O   0  0  0  0  0  0  0  0  0  0  0  0
    2.2294    1.5012   -0.6576 N   0  0  0  0  0  0  0  0  0  0  0  0
    2.1338    1.3147    2.3381 N   0  0  0  0  0  0  0  0  0  0  0  0
    2.1934    3.6141    1.9351 N   0  0  0  0  0  0  0  0  0  0  0  0
    1.2373    2.1727    0.1824 C   0  0  0  0  0  0  0  0  0  0  0  0
    1.9942   -0.5421    0.6849 C   0  0  0  0  0  0  0  0  0  0  0  0
    2.5657    0.2783   -0.4195 C   0  0  0  0  0  0  0  0  0  0  0  0
    1.7961    0.0017    1.9656 C   0  0  0  0  0  0  0  0  0  0  0  0
    1.8790    2.3299    1.5597 C   0  0  0  0  0  0  0  0  0  0  0  0
    3.5976   -0.3299   -1.3073 C   0  0  0  0  0  0  0  0  0  0  0  0
    1.6198   -1.8670    0.4103 C   0  0  0  0  0  0  0  0  0  0  0  0
    1.2606   -0.8259    2.9646 C   0  0  0  0  0  0  0  0  0  0  0  0
    1.0784   -2.6658    1.4154 C   0  0  0  0  0  0  0  0  0  0  0  0
   -2.0655    0.8246   -0.6342 C   0  0  0  0  0  0  0  0  0  0  0  0
    3.6987    0.0861   -2.6298 C   0  0  0  0  0  0  0  0  0  0  0  0
    4.4490   -1.3070   -0.8042 C   0  0  0  0  0  0  0  0  0  0  0  0
    0.9034   -2.1475    2.6938 C   0  0  0  0  0  0  0  0  0  0  0  0
   -0.7279    1.4194   -0.8817 C   0  0  0  0  0  0  0  0  0  0  0  0
   -2.2365   -0.0023    0.4570 C   0  0  0  0  0  0  0  0  0  0  0  0
   -3.0969    1.1189   -1.5024 C   0  0  0  0  0  0  0  0  0  0  0  0
   -4.3542    0.5619   -1.2690 C   0  0  0  0  0  0  0  0  0  0  0  0
   -3.4938   -0.5595    0.6903 C   0  0  0  0  0  0  0  0  0  0  0  0
   -4.5527   -0.2773   -0.1728 C   0  0  0  0  0  0  0  0  0  0  0  0
    4.6642   -0.4826   -3.4606 C   0  0  0  0  0  0  0  0  0  0  0  0
    5.4145   -1.8758   -1.6349 C   0  0  0  0  0  0  0  0  0  0  0  0
    2.8167    3.9091    3.1858 C   0  0  0  0  0  0  0  0  0  0  0  0
    5.5221   -1.4636   -2.9630 C   0  0  0  0  0  0  0  0  0  0  0  0
   -6.1803    1.9861   -1.8105 C   0  0  0  0  0  0  0  0  0  0  0  0
   -3.4462   -2.7712    1.5631 C   0  0  0  0  0  0  0  0  0  0  0  0
   -6.3197   -1.6560   -0.9683 C   0  0  0  0  0  0  0  0  0  0  0  0
  1 18  1  0
  2 10  1  0
  2 23  1  0
  3 26  1  0
  3 33  1  0
  4 27  1  0
  4 34  1  0
  5 28  1  0
  5 35  1  0
  6 23  2  0
  7 10  1  0
  7 12  2  0
  8 13  1  0
  8 14  2  0
  9 14  1  0
  9 31  1  0
 10 14  1  0
 11 12  1  0
 11 13  2  0
 11 16  1  0
 12 15  1  0
 13 17  1  0
 15 20  2  0
 15 21  1  0
 16 18  2  0
 17 22  2  0
 18 22  1  0
 19 23  1  0
 19 24  2  0
 19 25  1  0
 20 29  1  0
 21 30  2  0
 24 27  1  0
 25 26  2  0
 26 28  1  0
 27 28  2  0
 29 32  2  0
 30 32  1  0
M  END
>  <PUBCHEM_COMPOUND_CID>  (1) 
28868

>  <PUBCHEM_CONFORMER_RMSD>  (1) 
1

>  <PUBCHEM_CONFORMER_DIVERSEORDER>  (1) 
1
18
25
52
30
48
31
27
49
11
38
9
37
14
50
36
19
35
51
32
42
20
55
17
45
5
24
12
47
56
53
33
16
13
54
15
7
8
23
2
28
26
43
3
44
10
46
6
41
21
29
4
34
39
22
40

>  <PUBCHEM_MMFF94_PARTIAL_CHARGES>  (1) 
46
1 -0.18
10 0.59
11 0.09
12 0.28
13 0.18
14 0.44
15 0.09
16 -0.15
17 -0.15
18 0.18
19 0.09
2 -0.43
20 -0.15
21 -0.15
22 -0.15
23 0.63
24 -0.15
25 -0.15
26 0.08
27 0.08
28 0.08
29 -0.15
3 -0.36
30 -0.15
31 0.37
32 -0.15
33 0.28
34 0.28
35 0.28
37 0.15
38 0.15
39 0.4
4 -0.36
40 0.15
41 0.15
42 0.15
43 0.15
44 0.15
45 0.15
46 0.15
5 -0.36
50 0.15
6 -0.57
7 -0.7
8 -0.63
9 -0.82

>  <PUBCHEM_EFFECTIVE_ROTOR_COUNT>  (1) 
8.2

>  <PUBCHEM_PHARMACOPHORE_FEATURES>  (1) 
11
1 3 acceptor
1 4 acceptor
1 5 acceptor
1 6 acceptor
1 7 acceptor
1 9 donor
3 8 9 14 cation
6 11 13 16 17 18 22 rings
6 15 20 21 29 30 32 rings
6 19 24 25 26 27 28 rings
7 7 8 10 11 12 13 14 rings

>  <PUBCHEM_HEAVY_ATOM_COUNT>  (1) 
35

>  <PUBCHEM_ATOM_DEF_STEREO_COUNT>  (1) 
0

>  <PUBCHEM_ATOM_UDEF_STEREO_COUNT>  (1) 
1

>  <PUBCHEM_BOND_DEF_STEREO_COUNT>  (1) 
0

>  <PUBCHEM_BOND_UDEF_STEREO_COUNT>  (1) 
0

>  <PUBCHEM_ISOTOPIC_ATOM_COUNT>  (1) 
0

>  <PUBCHEM_COMPONENT_COUNT>  (1) 
1

>  <PUBCHEM_CACTVS_TAUTO_COUNT>  (1) 
3

>  <PUBCHEM_CONFORMER_ID>  (1) 
000070C400000001

>  <PUBCHEM_MMFF94_ENERGY>  (1) 
149.2007

>  <PUBCHEM_FEATURE_SELFOVERLAP>  (1) 
55.848

>  <PUBCHEM_SHAPE_FINGERPRINT>  (1) 
11093857 51 17822282487791914278
11578080 2 17764060208149605192
12597179 24 18055064630784880256
12633257 1 12247673881488679111
12788726 201 17552365371396596352
13149001 5 18269290104622318026
13150687 139 16950861270960522974
13726171 33 16588606256840847797
14114206 34 18268161859109911777
14932702 115 17970657231579907998
15001296 14 17532660250663429951
15815584 197 17975934844423161960
16114785 44 16332420331284970320
17492 54 17241346740806918502
17909252 39 18197500615407737394
17974551 9 13397757520830478230
17980427 23 15792830356830377128
1813 80 17131845218303470164
18681886 176 17676209100024941548
20775438 99 17984408913228776758
22393880 68 17967536795852164047
23559900 14 17896303728477617499
24941158 1 17701265960509294152
2838139 119 14707219846147981686
376196 1 17696444636339615144
4280585 95 16885531330638249538
5104073 3 13182447928928706775
513532 50 18269820029939074129
58260988 114 14402124989156938942
58260988 587 17772751808654285408
6669772 16 18339355375185403946
6823239 73 18260548965184513665
70251023 43 17775563126642048441

>  <PUBCHEM_SHAPE_MULTIPOLES>  (1) 
677.86
12.37
3.86
3.55
13.83
0.51
0.32
2.16
-11.76
-1.21
3.34
-4.66
-1.1
3.95

>  <PUBCHEM_SHAPE_SELFOVERLAP>  (1) 
1468.84

>  <PUBCHEM_SHAPE_VOLUME>  (1) 
371

>  <PUBCHEM_COORDINATE_TYPE>  (1) 
2
5
10

$$$$
