28862
     RDKit          3D

  7  6  0  0  1  0  0  0  0  0999 V2000
   -1.4912    1.8803   -0.1309 S   0  0  0  0  0  0  0  0  0  0  0  0
   -0.9290   -0.1260    0.1139 P   0  0  0  0  0  0  0  0  0  0  0  0
    0.6460   -0.2668    0.4763 O   0  0  0  0  0  0  0  0  0  0  0  0
   -1.7961   -0.7918    1.1497 O   0  0  0  0  0  0  0  0  0  0  0  0
    1.6451    0.2736   -0.3691 C   0  0  0  0  0  0  0  0  0  0  0  0
   -1.0806   -0.9546   -1.4689 C   0  0  0  0  0  0  0  0  0  0  0  0
    3.0056   -0.0148    0.2289 C   0  0  0  0  0  0  0  0  0  0  0  0
  1  2  1  0
  2  3  1  0
  2  4  2  0
  2  6  1  0
  3  5  1  0
  5  7  1  0
M  END
>  <PUBCHEM_COMPOUND_CID>  (1) 
28862

>  <PUBCHEM_CONFORMER_RMSD>  (1) 
0.4

>  <PUBCHEM_CONFORMER_DIVERSEORDER>  (1) 
1
5
4
2
6
3

>  <PUBCHEM_MMFF94_PARTIAL_CHARGES>  (1) 
6
1 -0.43
16 0.18
2 1.22
3 -0.55
4 -0.7
5 0.28

>  <PUBCHEM_EFFECTIVE_ROTOR_COUNT>  (1) 
2

>  <PUBCHEM_PHARMACOPHORE_FEATURES>  (1) 
0

>  <PUBCHEM_HEAVY_ATOM_COUNT>  (1) 
7

>  <PUBCHEM_ATOM_DEF_STEREO_COUNT>  (1) 
0

>  <PUBCHEM_ATOM_UDEF_STEREO_COUNT>  (1) 
0

>  <PUBCHEM_BOND_DEF_STEREO_COUNT>  (1) 
0

>  <PUBCHEM_BOND_UDEF_STEREO_COUNT>  (1) 
0

>  <PUBCHEM_ISOTOPIC_ATOM_COUNT>  (1) 
0

>  <PUBCHEM_COMPONENT_COUNT>  (1) 
1

>  <PUBCHEM_CACTVS_TAUTO_COUNT>  (1) 
2

>  <PUBCHEM_CONFORMER_ID>  (1) 
000070BE00000001

>  <PUBCHEM_MMFF94_ENERGY>  (1) 
0.4715

>  <PUBCHEM_FEATURE_SELFOVERLAP>  (1) 
0

>  <PUBCHEM_SHAPE_FINGERPRINT>  (1) 
12932764 1 18131350826130623442
16714656 1 18202562890920251397
23235687 12 17631738291255946444
23552449 1 18131056160819210504
24536 1 18040425599226803440
5943 1 11536600002279983951

>  <PUBCHEM_SHAPE_MULTIPOLES>  (1) 
140.02
3.44
1.44
1.12
3.25
0.54
-0.03
0.51
0.26
-1.15
-0.35
-0.54
-0.39
0.07

>  <PUBCHEM_SHAPE_SELFOVERLAP>  (1) 
222.073

>  <PUBCHEM_SHAPE_VOLUME>  (1) 
101.2

>  <PUBCHEM_COORDINATE_TYPE>  (1) 
2
5
10

$$$$
