28879
     RDKit          3D

 25 27  0  0  0  0  0  0  0  0999 V2000
    5.0415   -0.6029    0.4093 O   0  0  0  0  0  0  0  0  0  0  0  0
    4.7084    1.2881   -0.9812 O   0  0  0  0  0  0  0  0  0  0  0  0
   -3.5654   -1.5267   -0.8093 N   0  0  0  0  0  0  0  0  0  0  0  0
    2.3911    0.4417    0.4331 N   0  0  0  0  0  0  0  0  0  0  0  0
   -2.3992    0.1074    0.1611 C   0  0  0  0  0  0  0  0  0  0  0  0
   -2.2973   -1.1499   -0.4349 C   0  0  0  0  0  0  0  0  0  0  0  0
   -3.7803    0.4819    0.1348 C   0  0  0  0  0  0  0  0  0  0  0  0
   -1.2239    0.7247    0.6385 C   0  0  0  0  0  0  0  0  0  0  0  0
   -4.4819   -0.5574   -0.4764 C   0  0  0  0  0  0  0  0  0  0  0  0
   -1.0788   -1.8233   -0.5782 C   0  0  0  0  0  0  0  0  0  0  0  0
    0.0020    0.0638    0.5024 C   0  0  0  0  0  0  0  0  0  0  0  0
    0.0712   -1.1915   -0.0973 C   0  0  0  0  0  0  0  0  0  0  0  0
   -4.4989    1.6128    0.5763 C   0  0  0  0  0  0  0  0  0  0  0  0
   -1.2479    2.0742    1.2905 C   0  0  0  0  0  0  0  0  0  0  0  0
   -5.8678   -0.5245   -0.6691 C   0  0  0  0  0  0  0  0  0  0  0  0
   -0.9689   -3.1686   -1.2150 C   0  0  0  0  0  0  0  0  0  0  0  0
    1.2382    0.6689    0.9832 C   0  0  0  0  0  0  0  0  0  0  0  0
   -5.8852    1.6601    0.3906 C   0  0  0  0  0  0  0  0  0  0  0  0
   -6.5575    0.6061   -0.2231 C   0  0  0  0  0  0  0  0  0  0  0  0
    3.4952    1.1495    1.0752 C   0  0  0  0  0  0  0  0  0  0  0  0
    4.8066    0.8074    0.3669 C   0  0  0  0  0  0  0  0  0  0  0  0
    5.1347   -1.1140    1.7320 C   0  0  0  0  0  0  0  0  0  0  0  0
    5.8829    1.0211   -1.7367 C   0  0  0  0  0  0  0  0  0  0  0  0
    5.3826   -2.6061    1.6677 C   0  0  0  0  0  0  0  0  0  0  0  0
    5.6987    1.5573   -3.1404 C   0  0  0  0  0  0  0  0  0  0  0  0
  1 21  1  0
  1 22  1  0
  2 21  1  0
  2 23  1  0
  3  6  1  0
  3  9  1  0
  4 17  2  0
  4 20  1  0
  5  6  2  0
  5  7  1  0
  5  8  1  0
  6 10  1  0
  7  9  2  0
  7 13  1  0
  8 11  2  0
  8 14  1  0
  9 15  1  0
 10 12  2  0
 10 16  1  0
 11 12  1  0
 11 17  1  0
 13 18  2  0
 15 19  2  0
 18 19  1  0
 20 21  1  0
 22 24  1  0
 23 25  1  0
M  END
>  <PUBCHEM_COMPOUND_CID>  (1) 
28879

>  <PUBCHEM_CONFORMER_RMSD>  (1) 
0.8

>  <PUBCHEM_CONFORMER_DIVERSEORDER>  (1) 
1
18
9
29
26
21
27
14
12
32
7
2
15
25
10
28
22
23
8
11
4
20
34
31
19
24
30
33
3
17
16
13
6
5

>  <PUBCHEM_MMFF94_PARTIAL_CHARGES>  (1) 
28
1 -0.56
10 -0.14
11 0.09
12 -0.15
13 -0.15
14 0.14
15 -0.15
16 0.14
17 0.3
18 -0.15
19 -0.15
2 -0.56
20 0.25
21 0.56
22 0.28
23 0.28
26 0.27
27 0.15
28 0.15
3 0.03
32 0.15
36 0.06
37 0.15
38 0.15
4 -0.7
6 -0.15
8 -0.14
9 -0.15

>  <PUBCHEM_EFFECTIVE_ROTOR_COUNT>  (1) 
7

>  <PUBCHEM_PHARMACOPHORE_FEATURES>  (1) 
8
1 1 acceptor
1 2 acceptor
1 3 cation
1 3 donor
1 4 acceptor
5 3 5 6 7 9 rings
6 5 6 8 10 11 12 rings
6 7 9 13 15 18 19 rings

>  <PUBCHEM_HEAVY_ATOM_COUNT>  (1) 
25

>  <PUBCHEM_ATOM_DEF_STEREO_COUNT>  (1) 
0

>  <PUBCHEM_ATOM_UDEF_STEREO_COUNT>  (1) 
0

>  <PUBCHEM_BOND_DEF_STEREO_COUNT>  (1) 
0

>  <PUBCHEM_BOND_UDEF_STEREO_COUNT>  (1) 
0

>  <PUBCHEM_ISOTOPIC_ATOM_COUNT>  (1) 
0

>  <PUBCHEM_COMPONENT_COUNT>  (1) 
1

>  <PUBCHEM_CACTVS_TAUTO_COUNT>  (1) 
2

>  <PUBCHEM_CONFORMER_ID>  (1) 
000070CF00000001

>  <PUBCHEM_MMFF94_ENERGY>  (1) 
62.4089

>  <PUBCHEM_FEATURE_SELFOVERLAP>  (1) 
40.817

>  <PUBCHEM_SHAPE_FINGERPRINT>  (1) 
10554248 39 18335688412884432926
10906281 52 18341344292798692115
11578080 2 17680975315955081717
11796584 16 17917990633341855014
12236239 1 18260543424892784969
12390115 104 17917159304073172073
12788726 201 18131637755230796368
12954195 1 17059511642262041409
13533116 47 18260824870105372762
13782708 43 16701450316489461703
13862211 1 18130212827095368171
14790565 3 18272932687660295745
14840074 17 17895198826301960277
15131766 46 17314513832166331748
15183329 4 18273496766731394129
15575132 122 18114181917461323957
21267235 1 18130505349429421519
21307412 95 17345495797851730526
21781051 124 18341904025363205219
22122407 14 17023198127497961077
2215653 11 17132124545601256588
22849339 104 18129112297402620766
23081809 10 18335417971942163169
23402539 116 17846486054887086525
23522609 53 18263664908187185449
23559900 14 17560806580277554864
23569943 247 15840451197302849935
3004659 81 18411981330814492634
3298306 158 17704075092480640542
335352 9 18201430385211321541
34797466 226 16732702757202164432
350125 39 18271516490507734777
394071 54 16225771852317868460
4058900 60 18336831871377015411
4073 2 18263074582607260858
5104073 3 18201711898964227139
59755656 215 17846222137267132021
6138700 20 18130505249574593995
8988823 20 13326852236843276394

>  <PUBCHEM_SHAPE_MULTIPOLES>  (1) 
492.79
16.89
2.47
1.77
5.87
1.51
1.06
-4.09
3.24
0.84
0.19
4.35
-0.39
-3.92

>  <PUBCHEM_SHAPE_SELFOVERLAP>  (1) 
1049.893

>  <PUBCHEM_SHAPE_VOLUME>  (1) 
278.2

>  <PUBCHEM_COORDINATE_TYPE>  (1) 
2
5
10

$$$$
