28874
     RDKit          3D

 22 24  0  0  0  0  0  0  0  0999 V2000
   -1.6234    0.3479   -0.1127 O   0  0  0  0  0  0  0  0  0  0  0  0
   -5.2047    1.1690    0.0429 N   0  0  0  0  0  0  0  0  0  0  0  0
   -0.4822    1.1572   -0.1210 N   0  0  0  0  0  0  0  0  0  0  0  0
    1.9054    0.9944   -0.2004 C   0  0  0  0  0  0  0  0  0  0  0  0
    0.4282   -1.0831   -0.2844 C   0  0  0  0  0  0  0  0  0  0  0  0
    0.5586    0.3869   -0.1788 C   0  0  0  0  0  0  0  0  0  0  0  0
    2.9286    0.5793    0.6624 C   0  0  0  0  0  0  0  0  0  0  0  0
    1.1198   -1.9582    0.5636 C   0  0  0  0  0  0  0  0  0  0  0  0
    2.7629   -0.4364    1.7082 C   0  0  0  0  0  0  0  0  0  0  0  0
    1.9844   -1.5256    1.6669 C   0  0  0  0  0  0  0  0  0  0  0  0
   -4.0127    0.3381   -0.0391 C   0  0  0  0  0  0  0  0  0  0  0  0
    2.1214    2.0335   -1.1186 C   0  0  0  0  0  0  0  0  0  0  0  0
   -0.4308   -1.5802   -1.2768 C   0  0  0  0  0  0  0  0  0  0  0  0
    4.1693    1.2355    0.5866 C   0  0  0  0  0  0  0  0  0  0  0  0
    0.9145   -3.3397    0.4048 C   0  0  0  0  0  0  0  0  0  0  0  0
   -2.7588    1.1979   -0.0493 C   0  0  0  0  0  0  0  0  0  0  0  0
    3.3632    2.6608   -1.1870 C   0  0  0  0  0  0  0  0  0  0  0  0
   -0.6085   -2.9535   -1.4272 C   0  0  0  0  0  0  0  0  0  0  0  0
    4.3874    2.2618   -0.3350 C   0  0  0  0  0  0  0  0  0  0  0  0
    0.0633   -3.8335   -0.5858 C   0  0  0  0  0  0  0  0  0  0  0  0
   -5.1717    2.0053    1.2454 C   0  0  0  0  0  0  0  0  0  0  0  0
   -6.4143    0.3425    0.0354 C   0  0  0  0  0  0  0  0  0  0  0  0
  1  3  1  0
  1 16  1  0
  2 11  1  0
  2 21  1  0
  2 22  1  0
  3  6  2  3
  4  6  1  0
  4  7  2  0
  4 12  1  0
  5  6  1  0
  5  8  2  0
  5 13  1  0
  7  9  1  0
  7 14  1  0
  8 10  1  0
  8 15  1  0
  9 10  2  0
 11 16  1  0
 12 17  2  0
 13 18  2  0
 14 19  2  0
 15 20  2  0
 17 19  1  0
 18 20  1  0
M  END
>  <PUBCHEM_COMPOUND_CID>  (1) 
28874

>  <PUBCHEM_CONFORMER_RMSD>  (1) 
0.6

>  <PUBCHEM_CONFORMER_DIVERSEORDER>  (1) 
1
19
9
35
34
24
16
26
3
12
27
17
21
14
15
7
33
8
18
32
29
22
5
6
2
23
13
11
20
4
10
25
31
30
28

>  <PUBCHEM_MMFF94_PARTIAL_CHARGES>  (1) 
32
1 -0.22
10 -0.18
11 0.27
12 -0.15
13 -0.15
14 -0.15
15 -0.15
16 0.28
17 -0.15
18 -0.15
19 -0.15
2 -0.81
20 -0.15
21 0.27
22 0.27
23 0.15
24 0.15
27 0.15
28 0.15
3 -0.51
31 0.15
32 0.15
33 0.15
34 0.15
35 0.15
36 0.15
4 0.09
5 0.09
6 0.28
7 0.03
8 0.03
9 -0.18

>  <PUBCHEM_EFFECTIVE_ROTOR_COUNT>  (1) 
4

>  <PUBCHEM_PHARMACOPHORE_FEATURES>  (1) 
5
1 2 cation
1 3 acceptor
6 4 7 12 14 17 19 rings
6 5 8 13 15 18 20 rings
7 4 5 6 7 8 9 10 rings

>  <PUBCHEM_HEAVY_ATOM_COUNT>  (1) 
22

>  <PUBCHEM_ATOM_DEF_STEREO_COUNT>  (1) 
0

>  <PUBCHEM_ATOM_UDEF_STEREO_COUNT>  (1) 
0

>  <PUBCHEM_BOND_DEF_STEREO_COUNT>  (1) 
0

>  <PUBCHEM_BOND_UDEF_STEREO_COUNT>  (1) 
0

>  <PUBCHEM_ISOTOPIC_ATOM_COUNT>  (1) 
0

>  <PUBCHEM_COMPONENT_COUNT>  (1) 
1

>  <PUBCHEM_CACTVS_TAUTO_COUNT>  (1) 
1

>  <PUBCHEM_CONFORMER_ID>  (1) 
000070CA00000001

>  <PUBCHEM_MMFF94_ENERGY>  (1) 
84.3526

>  <PUBCHEM_FEATURE_SELFOVERLAP>  (1) 
25.388

>  <PUBCHEM_SHAPE_FINGERPRINT>  (1) 
10090160 65 18409161108958312085
1100329 8 18194959867020773280
12633257 1 17530954791726548769
12644460 14 18260833648427792233
12788726 201 17835519697299286935
13540713 5 17826785139159680260
13583140 156 17097467857299513103
13836976 161 18408602560808312053
14790565 3 18339364166403775261
14955137 171 18336541600228330266
16752209 62 18055060219056914422
17138139 8 17770469209993994567
19377110 9 18343310254360383369
20157964 124 18335697188494394821
20645477 70 18261671472552320173
20739085 24 18264487282743806248
21054139 6 18271796986991518311
21197605 99 18116161137528846995
21421861 104 18123200008810844297
221357 26 10807938142095378481
22620623 9 17557150802556316206
23419403 2 17470508019536257626
23558518 356 17542223905665087244
23559900 14 18052258389194473157
3060560 45 18336271158779600564
394222 165 18334016098737896720
427121 178 17774426231312921402
4340502 62 17676207996228785321
474 4 18409168801097000737
57527585 21 16835414976136789820
59755656 520 18339641243375783612
6438754 60 10735887144541998845
8272917 22 18261957353733044449
9841814 1 17826239493027822499
9999458 23 18335144150750427958

>  <PUBCHEM_SHAPE_MULTIPOLES>  (1) 
436.92
9.72
3.98
1.33
17.39
3.64
0.18
-10.18
2.01
-1.6
-1.02
-0.66
0.29
-1.96

>  <PUBCHEM_SHAPE_SELFOVERLAP>  (1) 
941.834

>  <PUBCHEM_SHAPE_VOLUME>  (1) 
239.9

>  <PUBCHEM_COORDINATE_TYPE>  (1) 
2
5
10

$$$$
