28878
     RDKit          3D

 15 15  0  0  0  0  0  0  0  0999 V2000
    2.6955    0.1508   -0.0274 O   0  0  0  0  0  0  0  0  0  0  0  0
   -1.9959    0.1350   -0.9094 O   0  0  0  0  0  0  0  0  0  0  0  0
    4.0410   -1.7546   -0.4599 O   0  0  0  0  0  0  0  0  0  0  0  0
   -2.3665   -0.5656    1.2765 O   0  0  0  0  0  0  0  0  0  0  0  0
   -3.8203   -1.1702   -0.4274 N   0  0  0  0  0  0  0  0  0  0  0  0
    1.4959    0.7933   -0.0378 C   0  0  0  0  0  0  0  0  0  0  0  0
   -0.8787    0.7849   -0.4832 C   0  0  0  0  0  0  0  0  0  0  0  0
    0.3508    0.1260   -0.4724 C   0  0  0  0  0  0  0  0  0  0  0  0
    1.4117    2.1194    0.3862 C   0  0  0  0  0  0  0  0  0  0  0  0
   -0.9628    2.1112   -0.0591 C   0  0  0  0  0  0  0  0  0  0  0  0
    0.1823    2.7784    0.3756 C   0  0  0  0  0  0  0  0  0  0  0  0
    2.7172   -1.2092   -0.4742 C   0  0  0  0  0  0  0  0  0  0  0  0
   -2.7084   -0.5444    0.0978 C   0  0  0  0  0  0  0  0  0  0  0  0
   -4.7474   -1.9466    0.3626 C   0  0  0  0  0  0  0  0  0  0  0  0
    4.5856   -1.8085    0.8521 C   0  0  0  0  0  0  0  0  0  0  0  0
  1  6  1  0
  1 12  1  0
  2  7  1  0
  2 13  1  0
  3 12  1  0
  3 15  1  0
  4 13  2  0
  5 13  1  0
  5 14  1  0
  6  8  2  0
  6  9  1  0
  7  8  1  0
  7 10  2  0
  9 11  2  0
 10 11  1  0
M  END
>  <PUBCHEM_COMPOUND_CID>  (1) 
28878

>  <PUBCHEM_CONFORMER_RMSD>  (1) 
0.8

>  <PUBCHEM_CONFORMER_DIVERSEORDER>  (1) 
1
42
46
73
49
50
23
69
29
47
86
72
3
90
53
16
91
44
84
41
4
48
15
51
22
17
5
31
79
81
28
62
18
36
45
63
60
10
78
32
55
59
43
7
67
39
76
30
19
74
20
33
21
77
12
66
26
58
37
89
40
85
71
34
11
65
38
52
56
82
2
68
83
54
87
27
70
57
24
13
64
35
75
80
61
88
14
6
9
25
8

>  <PUBCHEM_MMFF94_PARTIAL_CHARGES>  (1) 
20
1 -0.36
10 -0.15
11 -0.15
12 0.56
13 0.78
14 0.3
15 0.28
16 0.15
17 0.15
18 0.15
19 0.15
2 -0.23
22 0.37
3 -0.56
4 -0.57
5 -0.73
6 0.08
7 0.08
8 -0.15
9 -0.15

>  <PUBCHEM_EFFECTIVE_ROTOR_COUNT>  (1) 
6

>  <PUBCHEM_PHARMACOPHORE_FEATURES>  (1) 
5
1 1 acceptor
1 3 acceptor
1 4 acceptor
1 5 donor
6 6 7 8 9 10 11 rings

>  <PUBCHEM_HEAVY_ATOM_COUNT>  (1) 
15

>  <PUBCHEM_ATOM_DEF_STEREO_COUNT>  (1) 
0

>  <PUBCHEM_ATOM_UDEF_STEREO_COUNT>  (1) 
0

>  <PUBCHEM_BOND_DEF_STEREO_COUNT>  (1) 
0

>  <PUBCHEM_BOND_UDEF_STEREO_COUNT>  (1) 
0

>  <PUBCHEM_ISOTOPIC_ATOM_COUNT>  (1) 
0

>  <PUBCHEM_COMPONENT_COUNT>  (1) 
1

>  <PUBCHEM_CACTVS_TAUTO_COUNT>  (1) 
2

>  <PUBCHEM_CONFORMER_ID>  (1) 
000070CE00000001

>  <PUBCHEM_MMFF94_ENERGY>  (1) 
46.739

>  <PUBCHEM_FEATURE_SELFOVERLAP>  (1) 
25.408

>  <PUBCHEM_SHAPE_FINGERPRINT>  (1) 
11769659 78 18334014960798156156
12032990 46 18410292510185361631
12363563 72 18409733945530972238
12507560 14 18201442514594727919
12553582 1 18272931635272301078
12824470 246 17896029950024168738
13140716 1 18271243816046250544
13533116 47 18196660820652492691
14252887 29 18337668745010901057
17841504 4 18341333378717229897
18186145 218 12036028836961030246
20281475 54 18408611374213137173
20374829 77 18259980461996712103
20645477 70 18192702557027278271
20671657 53 18410015467999963669
20832881 197 18334577941159298715
20871998 184 17916015755686429956
20871998 22 18411415145943777216
21296965 67 18412261722810474660
21452121 199 18335415777446327760
23403322 49 18260827064185262211
23526113 38 17895195579353962001
23559900 14 17909539572628670206
2748010 2 18270664399335896364
3086196 2 18268143163507025416
3421961 26 18340205305514386819
4416823 128 18410573985156765007
54173680 148 18268431235153173677
5493415 88 18411412891265138964
76465 3 18409443691572666715

>  <PUBCHEM_SHAPE_MULTIPOLES>  (1) 
280.23
7.87
2.8
0.87
0.71
1.16
-0.09
-9.29
-1.05
-0.73
-0.45
0.04
-0.14
0.19

>  <PUBCHEM_SHAPE_SELFOVERLAP>  (1) 
568.465

>  <PUBCHEM_SHAPE_VOLUME>  (1) 
161.3

>  <PUBCHEM_COORDINATE_TYPE>  (1) 
2
5
10

$$$$
