28888
     RDKit          3D

 26 27  0  0  0  0  0  0  0  0999 V2000
   -0.6037   -2.4312    0.6501 O   0  0  0  0  0  0  0  0  0  0  0  0
    1.3881    3.4377    0.1273 N   0  0  0  0  0  0  0  0  0  0  0  0
   -1.1230   -0.1193    0.4978 N   0  0  0  0  0  0  0  0  0  0  0  0
   -0.2000    1.7712   -0.7892 C   0  0  0  0  0  0  0  0  0  0  0  0
    0.2603    3.2316   -0.7733 C   0  0  0  0  0  0  0  0  0  0  0  0
   -0.6699    1.2430    0.5648 C   0  0  0  0  0  0  0  0  0  0  0  0
   -2.5137   -0.3549    0.1025 C   0  0  0  0  0  0  0  0  0  0  0  0
    2.6309    2.9663   -0.4863 C   0  0  0  0  0  0  0  0  0  0  0  0
    1.5061    4.8509    0.4910 C   0  0  0  0  0  0  0  0  0  0  0  0
   -0.2628   -1.2462    0.6975 C   0  0  0  0  0  0  0  0  0  0  0  0
   -3.5552    0.0938    0.9148 C   0  0  0  0  0  0  0  0  0  0  0  0
   -2.7965   -1.0274   -1.0864 C   0  0  0  0  0  0  0  0  0  0  0  0
    1.2011   -0.8947    0.9421 C   0  0  0  0  0  0  0  0  0  0  0  0
    3.8045    3.1142    0.4672 C   0  0  0  0  0  0  0  0  0  0  0  0
    1.7879    5.7103   -0.7298 C   0  0  0  0  0  0  0  0  0  0  0  0
   -4.8795   -0.1299    0.5377 C   0  0  0  0  0  0  0  0  0  0  0  0
   -4.1207   -1.2509   -1.4634 C   0  0  0  0  0  0  0  0  0  0  0  0
   -3.2845    0.8170    2.1942 C   0  0  0  0  0  0  0  0  0  0  0  0
   -1.7026   -1.5196   -1.9780 C   0  0  0  0  0  0  0  0  0  0  0  0
    2.1618   -1.9420    0.4325 C   0  0  0  0  0  0  0  0  0  0  0  0
   -5.1622   -0.8022   -0.6513 C   0  0  0  0  0  0  0  0  0  0  0  0
    2.5611   -2.9868    1.2662 C   0  0  0  0  0  0  0  0  0  0  0  0
    2.6499   -1.8653   -0.8720 C   0  0  0  0  0  0  0  0  0  0  0  0
    3.4486   -3.9545    0.7955 C   0  0  0  0  0  0  0  0  0  0  0  0
    3.5373   -2.8332   -1.3426 C   0  0  0  0  0  0  0  0  0  0  0  0
    3.9365   -3.8777   -0.5088 C   0  0  0  0  0  0  0  0  0  0  0  0
  1 10  2  0
  2  5  1  0
  2  8  1  0
  2  9  1  0
  3  6  1  0
  3  7  1  0
  3 10  1  0
  4  5  1  0
  4  6  1  0
  7 11  2  0
  7 12  1  0
  8 14  1  0
  9 15  1  0
 10 13  1  0
 11 16  1  0
 11 18  1  0
 12 17  2  0
 12 19  1  0
 13 20  1  0
 16 21  2  0
 17 21  1  0
 20 22  2  0
 20 23  1  0
 22 24  1  0
 23 25  2  0
 24 26  2  0
 25 26  1  0
M  END
>  <PUBCHEM_COMPOUND_CID>  (1) 
28888

>  <PUBCHEM_CONFORMER_RMSD>  (1) 
1

>  <PUBCHEM_CONFORMER_DIVERSEORDER>  (1) 
32
122
115
120
51
108
20
61
59
76
118
112
77
36
99
60
16
107
43
71
30
48
25
69
29
103
90
131
33
105
42
4
109
55
100
50
79
106
101
78
66
15
18
37
104
5
40
96
92
75
65
44
111
12
52
126
114
7
125
22
116
8
88
129
102
132
70
113
80
24
41
35
9
27
39
63
54
31
117
123
97
10
133
98
89
85
119
128
95
62
94
11
130
56
17
21
83
34
64
93
3
110
46
72
45
57
6
47
26
84
19
38
124
73
82
2
1
121
13
91
28
86
53
68
127
58
134
81
67
49
74
23
14
87

>  <PUBCHEM_MMFF94_PARTIAL_CHARGES>  (1) 
31
1 -0.57
10 0.57
11 -0.14
12 -0.14
13 0.2
16 -0.15
17 -0.15
18 0.14
19 0.14
2 -0.81
20 -0.14
21 -0.15
22 -0.15
23 -0.15
24 -0.15
25 -0.15
26 -0.15
3 -0.48
45 0.15
46 0.15
5 0.27
53 0.15
54 0.15
55 0.15
56 0.15
57 0.15
58 0.15
6 0.3
7 0.12
8 0.27
9 0.27

>  <PUBCHEM_EFFECTIVE_ROTOR_COUNT>  (1) 
10

>  <PUBCHEM_PHARMACOPHORE_FEATURES>  (1) 
4
1 1 acceptor
1 2 cation
6 20 22 23 24 25 26 rings
6 7 11 12 16 17 21 rings

>  <PUBCHEM_HEAVY_ATOM_COUNT>  (1) 
26

>  <PUBCHEM_ATOM_DEF_STEREO_COUNT>  (1) 
0

>  <PUBCHEM_ATOM_UDEF_STEREO_COUNT>  (1) 
0

>  <PUBCHEM_BOND_DEF_STEREO_COUNT>  (1) 
0

>  <PUBCHEM_BOND_UDEF_STEREO_COUNT>  (1) 
0

>  <PUBCHEM_ISOTOPIC_ATOM_COUNT>  (1) 
0

>  <PUBCHEM_COMPONENT_COUNT>  (1) 
1

>  <PUBCHEM_CACTVS_TAUTO_COUNT>  (1) 
1

>  <PUBCHEM_CONFORMER_ID>  (1) 
000070D800000020

>  <PUBCHEM_MMFF94_ENERGY>  (1) 
85.9624

>  <PUBCHEM_FEATURE_SELFOVERLAP>  (1) 
20.297

>  <PUBCHEM_SHAPE_FINGERPRINT>  (1) 
10006869 2 17036136897187092521
12160290 23 17250038130789401744
12553582 1 18264491676422140403
12788726 201 17467627101270529729
13009979 54 17988648458925626339
13140716 1 18048320238627481672
138480 1 18409730634337826048
14955137 171 18122369912044202795
15463212 79 17622715836451697117
15664445 248 18342743966194395959
1813 80 18269836428288201775
20101258 96 18121224177519438258
21033650 10 17472164794750209678
22907989 373 17832704573906540014
23598288 3 17397273732917802498
244849 19 17895207631754751497
4017518 198 17983576588397468700
4409770 3 17474105397610752552
474 4 18194396921119134953
532947 4 18337394940951145768
6700243 42 17484261664586119846
90316 7 18124596371213464867
9981440 41 17762612189552569953

>  <PUBCHEM_SHAPE_MULTIPOLES>  (1) 
519.24
8.44
7.21
1.54
5.9
10.94
0.01
-6.97
0.34
-11.8
0.81
0.84
-0.61
-0.95

>  <PUBCHEM_SHAPE_SELFOVERLAP>  (1) 
1068.797

>  <PUBCHEM_SHAPE_VOLUME>  (1) 
298.7

>  <PUBCHEM_COORDINATE_TYPE>  (1) 
2
5
10

$$$$
