28886
     RDKit          3D

 26 28  0  0  0  0  0  0  0  0999 V2000
   -0.4752    1.6241    0.4916 O   0  0  0  0  0  0  0  0  0  0  0  0
    3.6480    0.5797   -0.2583 N   0  0  0  0  0  0  0  0  0  0  0  0
    0.1671   -0.6462    0.2271 N   0  0  0  0  0  0  0  0  0  0  0  0
    4.2907    1.4049   -1.2907 C   0  0  0  0  0  0  0  0  0  0  0  0
    3.8728    1.1366    1.0830 C   0  0  0  0  0  0  0  0  0  0  0  0
    5.7980    1.5099   -1.0538 C   0  0  0  0  0  0  0  0  0  0  0  0
    5.3667    1.2326    1.3976 C   0  0  0  0  0  0  0  0  0  0  0  0
    6.1045    2.0457    0.3402 C   0  0  0  0  0  0  0  0  0  0  0  0
    2.2157    0.4503   -0.5252 C   0  0  0  0  0  0  0  0  0  0  0  0
    1.5746   -0.4973    0.4779 C   0  0  0  0  0  0  0  0  0  0  0  0
   -0.3500   -2.0032    0.0369 C   0  0  0  0  0  0  0  0  0  0  0  0
   -0.7576    0.4464    0.2551 C   0  0  0  0  0  0  0  0  0  0  0  0
   -0.6852   -2.7138    1.1510 C   0  0  0  0  0  0  0  0  0  0  0  0
   -0.4616   -2.4638   -1.2415 C   0  0  0  0  0  0  0  0  0  0  0  0
   -2.1960    0.0729   -0.0880 C   0  0  0  0  0  0  0  0  0  0  0  0
   -1.1780   -4.0061    0.9700 C   0  0  0  0  0  0  0  0  0  0  0  0
   -0.9547   -3.7560   -1.4227 C   0  0  0  0  0  0  0  0  0  0  0  0
   -0.5520   -2.1838    2.5421 C   0  0  0  0  0  0  0  0  0  0  0  0
   -0.0864   -1.6623   -2.4459 C   0  0  0  0  0  0  0  0  0  0  0  0
   -3.1409    1.2504   -0.0706 C   0  0  0  0  0  0  0  0  0  0  0  0
   -1.3129   -4.5271   -0.3170 C   0  0  0  0  0  0  0  0  0  0  0  0
   -3.7935    1.5802    1.1066 C   0  0  0  0  0  0  0  0  0  0  0  0
   -3.3388    1.9796   -1.2323 C   0  0  0  0  0  0  0  0  0  0  0  0
   -4.6669    2.6678    1.1225 C   0  0  0  0  0  0  0  0  0  0  0  0
   -4.2120    3.0672   -1.2165 C   0  0  0  0  0  0  0  0  0  0  0  0
   -4.8762    3.4112   -0.0390 C   0  0  0  0  0  0  0  0  0  0  0  0
  1 12  2  0
  2  4  1  0
  2  5  1  0
  2  9  1  0
  3 10  1  0
  3 11  1  0
  3 12  1  0
  4  6  1  0
  5  7  1  0
  6  8  1  0
  7  8  1  0
  9 10  1  0
 11 13  2  0
 11 14  1  0
 12 15  1  0
 13 16  1  0
 13 18  1  0
 14 17  2  0
 14 19  1  0
 15 20  1  0
 16 21  2  0
 17 21  1  0
 20 22  2  0
 20 23  1  0
 22 24  1  0
 23 25  2  0
 24 26  2  0
 25 26  1  0
M  END
>  <PUBCHEM_COMPOUND_CID>  (1) 
28886

>  <PUBCHEM_CONFORMER_RMSD>  (1) 
1

>  <PUBCHEM_CONFORMER_DIVERSEORDER>  (1) 
1
47
17
20
13
46
30
37
11
41
44
10
42
8
16
4
23
39
7
45
3
27
5
35
48
34
29
28
32
36
22
9
6
40
25
2
31
43
18
14
15
38
19
21
26
24
12
33

>  <PUBCHEM_MMFF94_PARTIAL_CHARGES>  (1) 
31
1 -0.57
10 0.3
11 0.12
12 0.57
13 -0.14
14 -0.14
15 0.2
16 -0.15
17 -0.15
18 0.14
19 0.14
2 -0.81
20 -0.14
21 -0.15
22 -0.15
23 -0.15
24 -0.15
25 -0.15
26 -0.15
3 -0.48
4 0.27
43 0.15
44 0.15
5 0.27
51 0.15
52 0.15
53 0.15
54 0.15
55 0.15
56 0.15
9 0.27

>  <PUBCHEM_EFFECTIVE_ROTOR_COUNT>  (1) 
8.2

>  <PUBCHEM_PHARMACOPHORE_FEATURES>  (1) 
5
1 1 acceptor
1 2 cation
6 11 13 14 16 17 21 rings
6 2 4 5 6 7 8 rings
6 20 22 23 24 25 26 rings

>  <PUBCHEM_HEAVY_ATOM_COUNT>  (1) 
26

>  <PUBCHEM_ATOM_DEF_STEREO_COUNT>  (1) 
0

>  <PUBCHEM_ATOM_UDEF_STEREO_COUNT>  (1) 
0

>  <PUBCHEM_BOND_DEF_STEREO_COUNT>  (1) 
0

>  <PUBCHEM_BOND_UDEF_STEREO_COUNT>  (1) 
0

>  <PUBCHEM_ISOTOPIC_ATOM_COUNT>  (1) 
0

>  <PUBCHEM_COMPONENT_COUNT>  (1) 
1

>  <PUBCHEM_CACTVS_TAUTO_COUNT>  (1) 
1

>  <PUBCHEM_CONFORMER_ID>  (1) 
000070D600000001

>  <PUBCHEM_MMFF94_ENERGY>  (1) 
83.2569

>  <PUBCHEM_FEATURE_SELFOVERLAP>  (1) 
25.373

>  <PUBCHEM_SHAPE_FINGERPRINT>  (1) 
10369192 42 18337124383982437693
105312 117 18341898502113968348
10721379 63 17623015590534964493
11101153 10 17543350909911619244
11991303 11 18335989726504714662
12107183 9 18189320313552786818
12293681 160 17845935130420653880
12788726 201 18193260008932444067
13757389 114 18335715965358489236
13955234 65 17906460926858681963
14028597 1 17605259877858515219
14713325 29 18269837686597718143
15163728 17 18340496551668569285
15439362 3 18269276751500189212
17539 30 18125715940074840919
17980427 23 17022912246174240197
1813 80 17479465981185761814
19301679 30 18118412971486538354
19784866 34 18341046299082712489
20101258 96 17904488750426689352
21033648 29 18412541007454923072
21120745 212 17758412037822831365
21304303 282 18266713914028382719
21401589 2 18412833486073919017
21756936 100 18334293197485739104
23559900 14 17617654359495826163
23598288 3 18119262885267751260
23929065 36 18054202591686978056
3411729 13 18192151482600609521
3759504 43 18411418423040507052
376196 1 18201154347684326404
38695281 34 18338515235962863237
394222 165 18117830006673190187
4015057 19 16702016526317792528
4058900 60 18195820573834061096
5219985 13 18335981973894229044
59755656 520 18411979140011945620
6669772 16 18268997496811145926
6786 2 18339649944964025519
7399639 24 18189345559260275941
77188 2 17328869206207685231
9841814 1 17324362909667478787
9981440 41 18335140839372957881

>  <PUBCHEM_SHAPE_MULTIPOLES>  (1) 
519.24
10.91
5.61
1.82
14.06
5.56
0.02
-17.84
-0.45
-6.4
0.36
0.01
0.86
0.16

>  <PUBCHEM_SHAPE_SELFOVERLAP>  (1) 
1093.164

>  <PUBCHEM_SHAPE_VOLUME>  (1) 
291.1

>  <PUBCHEM_COORDINATE_TYPE>  (1) 
2
5
10

$$$$
