28883
     RDKit          3D

 25 26  0  0  0  0  0  0  0  0999 V2000
    0.7776    2.1253   -0.0823 O   0  0  0  0  0  0  0  0  0  0  0  0
    1.2512   -0.1998    0.0942 N   0  0  0  0  0  0  0  0  0  0  0  0
    5.2377    1.5083    0.3578 N   0  0  0  0  0  0  0  0  0  0  0  0
    2.6774   -0.1079    0.2470 C   0  0  0  0  0  0  0  0  0  0  0  0
    3.3518    0.5678   -0.9453 C   0  0  0  0  0  0  0  0  0  0  0  0
    4.8698    0.7190   -0.8114 C   0  0  0  0  0  0  0  0  0  0  0  0
    0.6270   -1.5294    0.0961 C   0  0  0  0  0  0  0  0  0  0  0  0
    0.2270   -2.0334    1.2958 C   0  0  0  0  0  0  0  0  0  0  0  0
    0.4927   -2.1616   -1.1020 C   0  0  0  0  0  0  0  0  0  0  0  0
    0.4161    0.9486   -0.0594 C   0  0  0  0  0  0  0  0  0  0  0  0
   -0.3663   -3.2958    1.2975 C   0  0  0  0  0  0  0  0  0  0  0  0
   -0.1007   -3.4240   -1.1004 C   0  0  0  0  0  0  0  0  0  0  0  0
    0.3889   -1.3136    2.5955 C   0  0  0  0  0  0  0  0  0  0  0  0
    0.9427   -1.5807   -2.4034 C   0  0  0  0  0  0  0  0  0  0  0  0
    6.6934    1.5724    0.4997 C   0  0  0  0  0  0  0  0  0  0  0  0
    4.6770    2.8576    0.2663 C   0  0  0  0  0  0  0  0  0  0  0  0
   -0.5302   -3.9910    0.0994 C   0  0  0  0  0  0  0  0  0  0  0  0
   -1.0388    0.6383   -0.2023 C   0  0  0  0  0  0  0  0  0  0  0  0
   -1.9523    1.5416    0.1821 C   0  0  0  0  0  0  0  0  0  0  0  0
   -3.4094    1.3617    0.0598 C   0  0  0  0  0  0  0  0  0  0  0  0
   -3.9261    0.0837   -0.0807 C   0  0  0  0  0  0  0  0  0  0  0  0
   -4.2356    2.4737    0.0880 C   0  0  0  0  0  0  0  0  0  0  0  0
   -5.3058   -0.0869   -0.1960 C   0  0  0  0  0  0  0  0  0  0  0  0
   -5.6152    2.3032   -0.0271 C   0  0  0  0  0  0  0  0  0  0  0  0
   -6.1502    1.0228   -0.1691 C   0  0  0  0  0  0  0  0  0  0  0  0
  1 10  2  0
  2  4  1  0
  2  7  1  0
  2 10  1  0
  3  6  1  0
  3 15  1  0
  3 16  1  0
  4  5  1  0
  5  6  1  0
  7  8  2  0
  7  9  1  0
  8 11  1  0
  8 13  1  0
  9 12  2  0
  9 14  1  0
 10 18  1  0
 11 17  2  0
 12 17  1  0
 18 19  2  0
 19 20  1  0
 20 21  2  0
 20 22  1  0
 21 23  1  0
 22 24  2  0
 23 25  2  0
 24 25  1  0
M  END
>  <PUBCHEM_COMPOUND_CID>  (1) 
28883

>  <PUBCHEM_CONFORMER_RMSD>  (1) 
0.8

>  <PUBCHEM_CONFORMER_DIVERSEORDER>  (1) 
1
82
10
85
44
89
36
20
75
68
29
4
88
39
60
46
17
90
41
15
54
12
48
50
73
43
66
76
47
74
21
81
87
84
26
59
61
79
31
38
69
32
6
49
33
13
55
65
30
11
14
28
77
51
9
67
8
70
53
23
3
86
63
5
27
22
64
7
71
57
56
52
25
34
62
72
42
78
58
24
45
40
2
83
35
80
18
37
19
16

>  <PUBCHEM_MMFF94_PARTIAL_CHARGES>  (1) 
34
1 -0.57
10 0.62
11 -0.15
12 -0.15
13 0.14
14 0.14
15 0.27
16 0.27
17 -0.15
18 -0.14
19 -0.18
2 -0.48
20 0.03
21 -0.15
22 -0.15
23 -0.15
24 -0.15
25 -0.15
3 -0.81
32 0.15
33 0.15
4 0.3
46 0.15
47 0.15
48 0.15
49 0.15
50 0.15
51 0.15
52 0.15
53 0.15
6 0.27
7 0.12
8 -0.14
9 -0.14

>  <PUBCHEM_EFFECTIVE_ROTOR_COUNT>  (1) 
8

>  <PUBCHEM_PHARMACOPHORE_FEATURES>  (1) 
4
1 1 acceptor
1 3 cation
6 20 21 22 23 24 25 rings
6 7 8 9 11 12 17 rings

>  <PUBCHEM_HEAVY_ATOM_COUNT>  (1) 
25

>  <PUBCHEM_ATOM_DEF_STEREO_COUNT>  (1) 
0

>  <PUBCHEM_ATOM_UDEF_STEREO_COUNT>  (1) 
0

>  <PUBCHEM_BOND_DEF_STEREO_COUNT>  (1) 
0

>  <PUBCHEM_BOND_UDEF_STEREO_COUNT>  (1) 
1

>  <PUBCHEM_ISOTOPIC_ATOM_COUNT>  (1) 
0

>  <PUBCHEM_COMPONENT_COUNT>  (1) 
1

>  <PUBCHEM_CACTVS_TAUTO_COUNT>  (1) 
1

>  <PUBCHEM_CONFORMER_ID>  (1) 
000070D300000001

>  <PUBCHEM_MMFF94_ENERGY>  (1) 
99.1658

>  <PUBCHEM_FEATURE_SELFOVERLAP>  (1) 
20.297

>  <PUBCHEM_SHAPE_FINGERPRINT>  (1) 
10675989 125 17612303057937150205
10764073 3 13046204057736910823
11421498 54 17346043255910992249
11488393 25 17843981251003016335
12166972 35 8069732006369573173
12293681 4 17829050153844502395
12597179 24 18342748424623448630
12788726 201 17611201733273570750
13150687 139 18342742896979154254
13590594 115 17689438608699039771
13631057 29 18272083951163136631
14790565 3 18410857667847678589
14955137 171 17904191543386284954
15131766 46 15070333651837234500
15664445 248 17767694862424889823
15927050 60 18411134749516151982
173720 79 18186797002601207256
17980427 23 16660939871214897671
20197701 30 18409449189183247900
20554085 129 18200858613437545936
20567600 347 18261119521625229959
20600515 1 16683145251250684592
21049683 118 18265872796312584056
21421861 104 17901391087180168545
21521721 280 18201726175472526241
21756936 100 18339915017465296718
22182313 1 18122658082274157838
22224240 67 18409728474122445317
23558518 356 17756425229059915588
23559900 14 17765991706513534599
239999 70 18056481651711117783
2838139 119 18412259575369096244
3411729 13 18336263419048248273
38695281 34 18411699872432121221
4340502 62 17458344134955714400
5486654 2 18410296925623310148
59755656 520 18334287695664119110
6669772 16 18411700955122978910
9981440 41 18260274053271344363

>  <PUBCHEM_SHAPE_MULTIPOLES>  (1) 
498.66
12.2
4.25
1.45
0.44
3.53
0.17
-15.28
-0.18
-0.28
0.24
-0.74
1.29
0.43

>  <PUBCHEM_SHAPE_SELFOVERLAP>  (1) 
1039.206

>  <PUBCHEM_SHAPE_VOLUME>  (1) 
283.9

>  <PUBCHEM_COORDINATE_TYPE>  (1) 
2
5
10

$$$$
