28884
     RDKit          3D

 22 23  0  0  0  0  0  0  0  0999 V2000
   -1.6157   -3.3032   -1.0456 O   0  0  0  0  0  0  0  0  0  0  0  0
   -2.9354    2.0081   -1.9086 O   0  0  0  0  0  0  0  0  0  0  0  0
   -2.2214   -0.0434   -0.1198 N   0  0  0  0  0  0  0  0  0  0  0  0
    3.6997    0.0215    0.0780 C   0  0  0  0  0  0  0  0  0  0  0  0
    4.9815    0.6307    0.6495 C   0  0  0  0  0  0  0  0  0  0  0  0
    3.1756   -1.1059    0.9699 C   0  0  0  0  0  0  0  0  0  0  0  0
    5.5251    1.7351   -0.2582 C   0  0  0  0  0  0  0  0  0  0  0  0
    1.8932   -1.6894    0.4342 C   0  0  0  0  0  0  0  0  0  0  0  0
    6.8237    2.3211    0.2953 C   0  0  0  0  0  0  0  0  0  0  0  0
    0.6795   -1.1504    0.8343 C   0  0  0  0  0  0  0  0  0  0  0  0
   -0.5071   -1.6907    0.3384 C   0  0  0  0  0  0  0  0  0  0  0  0
    1.9477   -2.7561   -0.4504 C   0  0  0  0  0  0  0  0  0  0  0  0
   -1.8117   -1.1074    0.7701 C   0  0  0  0  0  0  0  0  0  0  0  0
   -0.4662   -2.7636   -0.5519 C   0  0  0  0  0  0  0  0  0  0  0  0
    7.3851    3.3957   -0.6220 C   0  0  0  0  0  0  0  0  0  0  0  0
    0.7611   -3.2964   -0.9463 C   0  0  0  0  0  0  0  0  0  0  0  0
   -3.3713    0.7061    0.0598 C   0  0  0  0  0  0  0  0  0  0  0  0
   -3.7296    1.7335   -0.8356 C   0  0  0  0  0  0  0  0  0  0  0  0
   -4.2209    0.4558    1.1551 C   0  0  0  0  0  0  0  0  0  0  0  0
   -4.8916    2.4805   -0.6428 C   0  0  0  0  0  0  0  0  0  0  0  0
   -5.3830    1.2030    1.3478 C   0  0  0  0  0  0  0  0  0  0  0  0
   -5.7184    2.2153    0.4489 C   0  0  0  0  0  0  0  0  0  0  0  0
  1 14  1  0
  2 18  1  0
  3 13  1  0
  3 17  1  0
  4  5  1  0
  4  6  1  0
  5  7  1  0
  6  8  1  0
  7  9  1  0
  8 10  2  0
  8 12  1  0
  9 15  1  0
 10 11  1  0
 11 13  1  0
 11 14  2  0
 12 16  2  0
 14 16  1  0
 17 18  2  0
 17 19  1  0
 18 20  1  0
 19 21  2  0
 20 22  2  0
 21 22  1  0
M  END
>  <PUBCHEM_COMPOUND_CID>  (1) 
28884

>  <PUBCHEM_CONFORMER_RMSD>  (1) 
1

>  <PUBCHEM_CONFORMER_DIVERSEORDER>  (1) 
1
237
219
195
239
2
54
86
248
82
49
24
166
243
246
12
37
124
95
206
226
123
160
242
73
249
135
43
119
56
79
9
238
251
220
102
213
126
185
15
136
191
116
174
158
202
145
177
150
190
180
122
139
92
80
70
143
250
178
224
165
167
118
68
17
42
32
217
99
184
141
31
222
137
30
241
21
204
192
25
38
62
48
104
181
57
4
159
164
225
64
176
76
60
183
96
229
6
81
208
77
200
187
84
247
83
75
91
132
154
45
128
230
58
69
147
129
155
28
240
93
196
89
235
170
100
109
233
51
236
215
207
53
106
193
88
20
146
216
90
98
189
148
19
205
168
87
211
138
156
18
5
214
162
16
182
209
130
105
78
3
39
212
36
173
221
47
59
103
144
85
125
198
35
34
23
46
110
244
231
33
117
127
26
94
153
72
108
194
157
14
40
112
172
197
203
218
151
41
169
27
11
186
140
120
55
163
232
134
50
152
210
115
201
10
133
149
61
22
97
66
52
7
228
161
67
107
74
71
13
175
101
65
179
121
8
63
171
188
245
44
199
131
114
223
142
234
111
227
29
113

>  <PUBCHEM_MMFF94_PARTIAL_CHARGES>  (1) 
27
1 -0.53
10 -0.15
11 -0.14
12 -0.15
13 0.51
14 0.08
16 -0.15
17 0.1
18 0.08
19 -0.15
2 -0.53
20 -0.15
21 -0.15
22 -0.15
3 -0.87
33 0.15
34 0.15
40 0.15
41 0.4
42 0.45
43 0.15
44 0.15
45 0.15
46 0.15
47 0.45
6 0.14
8 -0.14

>  <PUBCHEM_EFFECTIVE_ROTOR_COUNT>  (1) 
8

>  <PUBCHEM_PHARMACOPHORE_FEATURES>  (1) 
8
1 1 donor
1 15 hydrophobe
1 2 donor
1 3 cation
1 3 donor
5 4 5 6 7 9 hydrophobe
6 17 18 19 20 21 22 rings
6 8 10 11 12 14 16 rings

>  <PUBCHEM_HEAVY_ATOM_COUNT>  (1) 
22

>  <PUBCHEM_ATOM_DEF_STEREO_COUNT>  (1) 
0

>  <PUBCHEM_ATOM_UDEF_STEREO_COUNT>  (1) 
0

>  <PUBCHEM_BOND_DEF_STEREO_COUNT>  (1) 
0

>  <PUBCHEM_BOND_UDEF_STEREO_COUNT>  (1) 
0

>  <PUBCHEM_ISOTOPIC_ATOM_COUNT>  (1) 
0

>  <PUBCHEM_COMPONENT_COUNT>  (1) 
1

>  <PUBCHEM_CACTVS_TAUTO_COUNT>  (1) 
8

>  <PUBCHEM_CONFORMER_ID>  (1) 
000070D400000001

>  <PUBCHEM_MMFF94_ENERGY>  (1) 
53.6064

>  <PUBCHEM_FEATURE_SELFOVERLAP>  (1) 
40.6

>  <PUBCHEM_SHAPE_FINGERPRINT>  (1) 
10369192 42 18271252702327849845
105312 117 18272652393899941590
11796584 16 12247383549999344991
12390115 104 18272097140206375714
12633257 1 15430322477190742018
12895836 83 18341331184299938024
12895837 130 18191594266644857972
13540713 5 18339341042637769106
13828863 39 18410854352264217061
13911852 28 8502364529666722417
13911987 19 18202003218216943865
14114211 80 18201728344272520961
14251764 75 18410575106739724488
14294032 229 18200315549436204267
14774955 27 18339640044916104395
14848178 5 10087637096407298998
15163728 17 18342740728237246206
15338160 23 18189057662510795042
15342168 16 18342172216111031671
15519825 34 15792304824378753833
15803439 3 16630246987204125332
16120349 189 18335415790135895356
16126227 98 18340772649367551736
16992828 155 18189043339169832268
1768 23 17531820194290330532
21033650 10 14907905925164319107
21302155 148 18261115201057104428
21365058 113 17338169502394131862
21401589 2 18260266364857514338
22849339 104 14979085065615396757
23559900 14 17977668602614447435
270888 7 18410011052963734496
2748736 6 18411972581766066592
2838139 119 18335413539783879094
3004659 81 12031784751979172352
345986 75 12829783868500925727
5219985 13 18409731790000526846
57724786 102 18335413540021470314
6034566 193 18413666915966634487
6327066 14 18410571799245550540
636775 72 17906450280158105344
7808743 9 18410852205038856322
7970288 3 8862944966034854064

>  <PUBCHEM_SHAPE_MULTIPOLES>  (1) 
436.03
16.31
4.51
1.2
17.22
1.2
0.13
-25.23
-1.13
2.78
1.74
-0.97
-0.12
-0.32

>  <PUBCHEM_SHAPE_SELFOVERLAP>  (1) 
902.418

>  <PUBCHEM_SHAPE_VOLUME>  (1) 
249.5

>  <PUBCHEM_COORDINATE_TYPE>  (1) 
2
5
10

$$$$
