28887
     RDKit          3D

 25 27  0  0  0  0  0  0  0  0999 V2000
    0.3896    1.6486   -0.5053 O   0  0  0  0  0  0  0  0  0  0  0  0
   -3.8120    1.0036    0.2228 N   0  0  0  0  0  0  0  0  0  0  0  0
   -0.4677   -0.5491   -0.2369 N   0  0  0  0  0  0  0  0  0  0  0  0
   -4.0194    1.6093   -1.0921 C   0  0  0  0  0  0  0  0  0  0  0  0
   -4.4000    1.9475    1.1727 C   0  0  0  0  0  0  0  0  0  0  0  0
   -5.4435    2.1373   -1.0028 C   0  0  0  0  0  0  0  0  0  0  0  0
   -5.6924    2.3629    0.4854 C   0  0  0  0  0  0  0  0  0  0  0  0
   -2.4072    0.7407    0.4981 C   0  0  0  0  0  0  0  0  0  0  0  0
   -1.8531   -0.2678   -0.4976 C   0  0  0  0  0  0  0  0  0  0  0  0
   -0.0836   -1.9485   -0.0387 C   0  0  0  0  0  0  0  0  0  0  0  0
    0.5570    0.4503   -0.2628 C   0  0  0  0  0  0  0  0  0  0  0  0
   -0.0242   -2.4123    1.2420 C   0  0  0  0  0  0  0  0  0  0  0  0
    0.1892   -2.6922   -1.1481 C   0  0  0  0  0  0  0  0  0  0  0  0
    1.9511   -0.0572    0.0910 C   0  0  0  0  0  0  0  0  0  0  0  0
    0.3422   -3.7449    1.4309 C   0  0  0  0  0  0  0  0  0  0  0  0
    0.5556   -4.0248   -0.9594 C   0  0  0  0  0  0  0  0  0  0  0  0
   -0.3288   -1.5738    2.4410 C   0  0  0  0  0  0  0  0  0  0  0  0
    0.1158   -2.1576   -2.5419 C   0  0  0  0  0  0  0  0  0  0  0  0
    3.0040    1.0248    0.0758 C   0  0  0  0  0  0  0  0  0  0  0  0
    0.6321   -4.5511    0.3302 C   0  0  0  0  0  0  0  0  0  0  0  0
    3.6925    1.2862   -1.0982 C   0  0  0  0  0  0  0  0  0  0  0  0
    3.2633    1.7366    1.2361 C   0  0  0  0  0  0  0  0  0  0  0  0
    4.6656    2.2855   -1.1123 C   0  0  0  0  0  0  0  0  0  0  0  0
    4.2364    2.7359    1.2222 C   0  0  0  0  0  0  0  0  0  0  0  0
    4.9375    3.0103    0.0479 C   0  0  0  0  0  0  0  0  0  0  0  0
  1 11  2  0
  2  4  1  0
  2  5  1  0
  2  8  1  0
  3  9  1  0
  3 10  1  0
  3 11  1  0
  4  6  1  0
  5  7  1  0
  6  7  1  0
  8  9  1  0
 10 12  2  0
 10 13  1  0
 11 14  1  0
 12 15  1  0
 12 17  1  0
 13 16  2  0
 13 18  1  0
 14 19  1  0
 15 20  2  0
 16 20  1  0
 19 21  2  0
 19 22  1  0
 21 23  1  0
 22 24  2  0
 23 25  2  0
 24 25  1  0
M  END
>  <PUBCHEM_COMPOUND_CID>  (1) 
28887

>  <PUBCHEM_CONFORMER_RMSD>  (1) 
0.8

>  <PUBCHEM_CONFORMER_DIVERSEORDER>  (1) 
1
88
73
108
19
34
76
22
8
78
68
33
101
53
26
70
11
80
42
72
103
31
24
25
64
56
71
10
54
112
4
60
114
9
115
100
106
17
48
116
40
62
97
63
35
98
36
93
90
3
32
37
7
75
6
102
47
29
113
51
41
86
77
81
27
82
67
92
18
99
45
39
12
91
28
66
83
5
52
107
87
55
65
89
49
59
111
58
20
23
105
117
61
104
69
46
85
84
57
2
109
79
30
38
50
21
96
110
16
15
13
94
43
74
44
14
95

>  <PUBCHEM_MMFF94_PARTIAL_CHARGES>  (1) 
31
1 -0.57
10 0.12
11 0.57
12 -0.14
13 -0.14
14 0.2
15 -0.15
16 -0.15
17 0.14
18 0.14
19 -0.14
2 -0.81
20 -0.15
21 -0.15
22 -0.15
23 -0.15
24 -0.15
25 -0.15
3 -0.48
4 0.27
40 0.15
41 0.15
48 0.15
49 0.15
5 0.27
50 0.15
51 0.15
52 0.15
53 0.15
8 0.27
9 0.3

>  <PUBCHEM_EFFECTIVE_ROTOR_COUNT>  (1) 
8

>  <PUBCHEM_PHARMACOPHORE_FEATURES>  (1) 
5
1 1 acceptor
1 2 cation
5 2 4 5 6 7 rings
6 10 12 13 15 16 20 rings
6 19 21 22 23 24 25 rings

>  <PUBCHEM_HEAVY_ATOM_COUNT>  (1) 
25

>  <PUBCHEM_ATOM_DEF_STEREO_COUNT>  (1) 
0

>  <PUBCHEM_ATOM_UDEF_STEREO_COUNT>  (1) 
0

>  <PUBCHEM_BOND_DEF_STEREO_COUNT>  (1) 
0

>  <PUBCHEM_BOND_UDEF_STEREO_COUNT>  (1) 
0

>  <PUBCHEM_ISOTOPIC_ATOM_COUNT>  (1) 
0

>  <PUBCHEM_COMPONENT_COUNT>  (1) 
1

>  <PUBCHEM_CACTVS_TAUTO_COUNT>  (1) 
1

>  <PUBCHEM_CONFORMER_ID>  (1) 
000070D700000001

>  <PUBCHEM_MMFF94_ENERGY>  (1) 
86.4678

>  <PUBCHEM_FEATURE_SELFOVERLAP>  (1) 
25.373

>  <PUBCHEM_SHAPE_FINGERPRINT>  (1) 
10764073 3 14926439232842339625
10937287 8 18411974788756153561
12549972 3 17318191432626976881
12788726 201 17906717443174403962
13135754 10 17315655146805770850
13140716 1 18409163290422098346
133893 2 18051991220300404977
13590594 115 17331416276190137985
13955234 65 18193842544300089019
15664445 248 17551525344534204527
17980427 26 18339350877748205198
1813 80 17408240270757715223
20101258 96 17401774515146918312
20600515 1 16827552913693539720
21033648 29 18270399515554340360
21049683 118 18196628860982899888
21304303 282 17909794916180287774
23419403 2 17693711065490913199
23559900 14 16880494566934125717
23598288 3 17827936335906737060
283562 15 18195519518760863279
3178227 256 18264777558287945826
3411729 13 18337110038960057969
376196 1 18411982459583594509
394222 165 18271239413799399531
4058900 60 18337968795721634552
474 4 18410855417442427961
5219985 13 18335700567658146181
5385378 56 18338804394989806321
59755656 520 18410567422979948132
633830 44 18272368654942885213
6786 2 18409455799085682242
77188 2 17472696927521510415
9841814 1 17831299402737094987

>  <PUBCHEM_SHAPE_MULTIPOLES>  (1) 
498.66
9.71
5.67
1.78
6.39
6.3
0.03
-18.1
-0.37
-2
0.35
-0.09
0.95
0.27

>  <PUBCHEM_SHAPE_SELFOVERLAP>  (1) 
1055.819

>  <PUBCHEM_SHAPE_VOLUME>  (1) 
279.7

>  <PUBCHEM_COORDINATE_TYPE>  (1) 
2
5
10

$$$$
