28885
     RDKit          3D

 26 28  0  0  0  0  0  0  0  0999 V2000
   -5.9906   -2.0701    0.3282 O   0  0  0  0  0  0  0  0  0  0  0  0
    0.4623   -1.6205    0.4896 O   0  0  0  0  0  0  0  0  0  0  0  0
   -3.6541   -0.5559   -0.2631 N   0  0  0  0  0  0  0  0  0  0  0  0
   -0.1689    0.6530    0.2261 N   0  0  0  0  0  0  0  0  0  0  0  0
   -2.2223   -0.4332   -0.5285 C   0  0  0  0  0  0  0  0  0  0  0  0
   -4.3029   -1.3961   -1.2790 C   0  0  0  0  0  0  0  0  0  0  0  0
   -3.8907   -1.1123    1.0764 C   0  0  0  0  0  0  0  0  0  0  0  0
   -1.5774    0.5106    0.4759 C   0  0  0  0  0  0  0  0  0  0  0  0
   -5.7932   -1.5188   -0.9744 C   0  0  0  0  0  0  0  0  0  0  0  0
   -5.3906   -1.2428    1.3257 C   0  0  0  0  0  0  0  0  0  0  0  0
    0.3546    2.0078    0.0374 C   0  0  0  0  0  0  0  0  0  0  0  0
    0.7504   -0.4440    0.2542 C   0  0  0  0  0  0  0  0  0  0  0  0
    0.6923    2.7159    1.1523 C   0  0  0  0  0  0  0  0  0  0  0  0
    0.4694    2.4687   -1.2405 C   0  0  0  0  0  0  0  0  0  0  0  0
    2.1909   -0.0770   -0.0875 C   0  0  0  0  0  0  0  0  0  0  0  0
    1.1915    4.0059    0.9725 C   0  0  0  0  0  0  0  0  0  0  0  0
    0.9688    3.7586   -1.4205 C   0  0  0  0  0  0  0  0  0  0  0  0
    0.5556    2.1855    2.5429 C   0  0  0  0  0  0  0  0  0  0  0  0
    0.0914    1.6699   -2.4458 C   0  0  0  0  0  0  0  0  0  0  0  0
    3.1303   -1.2590   -0.0703 C   0  0  0  0  0  0  0  0  0  0  0  0
    1.3297    4.5273   -0.3139 C   0  0  0  0  0  0  0  0  0  0  0  0
    3.7804   -1.5928    1.1072 C   0  0  0  0  0  0  0  0  0  0  0  0
    3.3256   -1.9882   -1.2323 C   0  0  0  0  0  0  0  0  0  0  0  0
    4.6486   -2.6845    1.1229 C   0  0  0  0  0  0  0  0  0  0  0  0
    4.1937   -3.0800   -1.2166 C   0  0  0  0  0  0  0  0  0  0  0  0
    4.8552   -3.4280   -0.0389 C   0  0  0  0  0  0  0  0  0  0  0  0
  1  9  1  0
  1 10  1  0
  2 12  2  0
  3  5  1  0
  3  6  1  0
  3  7  1  0
  4  8  1  0
  4 11  1  0
  4 12  1  0
  5  8  1  0
  6  9  1  0
  7 10  1  0
 11 13  2  0
 11 14  1  0
 12 15  1  0
 13 16  1  0
 13 18  1  0
 14 17  2  0
 14 19  1  0
 15 20  1  0
 16 21  2  0
 17 21  1  0
 20 22  2  0
 20 23  1  0
 22 24  1  0
 23 25  2  0
 24 26  2  0
 25 26  1  0
M  END
>  <PUBCHEM_COMPOUND_CID>  (1) 
28885

>  <PUBCHEM_CONFORMER_RMSD>  (1) 
1

>  <PUBCHEM_CONFORMER_DIVERSEORDER>  (1) 
1
51
30
14
4
42
33
24
49
31
36
34
32
41
25
13
2
39
12
19
48
44
21
15
9
45
7
6
23
20
22
8
29
37
18
38
47
52
53
26
46
43
50
11
3
28
35
5
27
16
40
17
10

>  <PUBCHEM_MMFF94_PARTIAL_CHARGES>  (1) 
34
1 -0.56
10 0.28
11 0.12
12 0.57
13 -0.14
14 -0.14
15 0.2
16 -0.15
17 -0.15
18 0.14
19 0.14
2 -0.57
20 -0.14
21 -0.15
22 -0.15
23 -0.15
24 -0.15
25 -0.15
26 -0.15
3 -0.81
4 -0.48
41 0.15
42 0.15
49 0.15
5 0.27
50 0.15
51 0.15
52 0.15
53 0.15
54 0.15
6 0.27
7 0.27
8 0.3
9 0.28

>  <PUBCHEM_EFFECTIVE_ROTOR_COUNT>  (1) 
8.2

>  <PUBCHEM_PHARMACOPHORE_FEATURES>  (1) 
6
1 1 acceptor
1 2 acceptor
1 3 cation
6 1 3 6 7 9 10 rings
6 11 13 14 16 17 21 rings
6 20 22 23 24 25 26 rings

>  <PUBCHEM_HEAVY_ATOM_COUNT>  (1) 
26

>  <PUBCHEM_ATOM_DEF_STEREO_COUNT>  (1) 
0

>  <PUBCHEM_ATOM_UDEF_STEREO_COUNT>  (1) 
0

>  <PUBCHEM_BOND_DEF_STEREO_COUNT>  (1) 
0

>  <PUBCHEM_BOND_UDEF_STEREO_COUNT>  (1) 
0

>  <PUBCHEM_ISOTOPIC_ATOM_COUNT>  (1) 
0

>  <PUBCHEM_COMPONENT_COUNT>  (1) 
1

>  <PUBCHEM_CACTVS_TAUTO_COUNT>  (1) 
1

>  <PUBCHEM_CONFORMER_ID>  (1) 
000070D500000001

>  <PUBCHEM_MMFF94_ENERGY>  (1) 
91.7471

>  <PUBCHEM_FEATURE_SELFOVERLAP>  (1) 
30.446

>  <PUBCHEM_SHAPE_FINGERPRINT>  (1) 
10721379 63 18265634232111741957
11045515 52 18335141929898790732
11488393 25 18261945357995271508
11763715 3 18120399587281048860
12107183 9 18200046049481767673
12342043 65 17677351518787916139
12788726 201 17684637745451338851
13533116 47 18268715090438383451
13955234 65 18194125350595459017
15042514 8 18051419474132557489
15131766 46 15766631155499097674
15878777 1 7978836951638017576
17539 30 18120088373349751020
17980427 26 17484504982371940156
1813 80 18341900666508466631
18681886 176 15265393619637428953
21049683 271 18262244425400347172
21120745 212 18124336934025329564
23419403 2 18055040290572334040
23559900 14 17894908586014305647
283562 15 18117839893946933210
314194 84 18411984688835768499
3380486 145 17627468801895921788
44802255 64 16017239752752465508
469060 322 18118977892770821922
5219985 13 10015569606385692882
5219985 9 18410578340391084410
6442390 28 17185890921649497313
6823239 73 16950562250857524823
7399639 24 18057869278889171994
77188 2 18411700963422697868

>  <PUBCHEM_SHAPE_MULTIPOLES>  (1) 
513.37
10.55
5.63
1.82
11.98
5.87
0.02
-18
-0.42
-5.32
0.37
0.01
0.88
0.17

>  <PUBCHEM_SHAPE_SELFOVERLAP>  (1) 
1083.616

>  <PUBCHEM_SHAPE_VOLUME>  (1) 
286.7

>  <PUBCHEM_COORDINATE_TYPE>  (1) 
2
5
10

$$$$
