28892
     RDKit          3D

 22 22  0  0  1  0  0  0  0  0999 V2000
   -2.2626    1.0192   -0.2207 O   0  0  0  0  0  0  0  0  0  0  0  0
    0.4967    1.0953    0.2688 O   0  0  0  0  0  0  0  0  0  0  0  0
    2.3950    1.9032   -0.7553 O   0  0  0  0  0  0  0  0  0  0  0  0
   -5.5653   -0.5821    0.0227 N   0  0  0  0  0  0  0  0  0  0  0  0
    2.4300   -0.2578    0.3902 C   0  0  0  0  0  0  0  0  0  0  0  0
   -4.1950   -0.3751   -0.4215 C   0  0  0  0  0  0  0  0  0  0  0  0
    2.2670   -0.3649    1.9199 C   0  0  0  0  0  0  0  0  0  0  0  0
   -6.4004    0.5725   -0.3172 C   0  0  0  0  0  0  0  0  0  0  0  0
   -6.1232   -1.8008   -0.5688 C   0  0  0  0  0  0  0  0  0  0  0  0
   -3.6023    0.8659    0.2267 C   0  0  0  0  0  0  0  0  0  0  0  0
    3.8667   -0.4055   -0.0866 C   0  0  0  0  0  0  0  0  0  0  0  0
    1.8100    1.0435   -0.1094 C   0  0  0  0  0  0  0  0  0  0  0  0
   -1.6498    2.1678    0.3525 C   0  0  0  0  0  0  0  0  0  0  0  0
    2.7430   -1.7006    2.4779 C   0  0  0  0  0  0  0  0  0  0  0  0
   -7.8172    0.3971    0.2026 C   0  0  0  0  0  0  0  0  0  0  0  0
   -5.2736   -3.0139   -0.2302 C   0  0  0  0  0  0  0  0  0  0  0  0
   -0.2195    2.2643   -0.1421 C   0  0  0  0  0  0  0  0  0  0  0  0
    4.1097   -1.0371   -1.2897 C   0  0  0  0  0  0  0  0  0  0  0  0
    4.8858    0.0960    0.6978 C   0  0  0  0  0  0  0  0  0  0  0  0
    5.4274   -1.1731   -1.7268 C   0  0  0  0  0  0  0  0  0  0  0  0
    6.2034   -0.0397    0.2607 C   0  0  0  0  0  0  0  0  0  0  0  0
    6.4741   -0.6743   -0.9516 C   0  0  0  0  0  0  0  0  0  0  0  0
  1 10  1  0
  1 13  1  0
  2 12  1  0
  2 17  1  0
  3 12  2  0
  4  6  1  0
  4  8  1  0
  4  9  1  0
  5  7  1  0
  5 11  1  0
  5 12  1  0
  6 10  1  0
  7 14  1  0
  8 15  1  0
  9 16  1  0
 11 18  2  0
 11 19  1  0
 13 17  1  0
 18 20  1  0
 19 21  2  0
 20 22  2  0
 21 22  1  0
M  END
>  <PUBCHEM_COMPOUND_CID>  (1) 
28892

>  <PUBCHEM_CONFORMER_RMSD>  (1) 
1.2

>  <PUBCHEM_CONFORMER_DIVERSEORDER>  (1) 
1
74
156
46
61
35
107
49
140
24
72
102
80
145
99
7
68
10
165
90
111
134
54
104
4
43
95
58
132
143
126
3
30
114
163
9
47
29
144
20
98
69
152
73
124
60
41
146
44
119
96
67
108
82
127
89
75
100
157
57
106
153
11
53
150
137
154
22
122
93
130
13
113
131
105
37
59
33
23
5
168
121
94
117
166
56
42
71
78
164
120
31
14
28
26
92
55
45
81
116
87
83
125
79
19
85
15
21
97
115
76
129
155
8
84
158
12
39
138
48
16
27
18
142
6
86
110
52
101
50
141
139
133
167
159
118
40
34
91
112
38
149
135
66
36
32
2
70
88
64
17
65
147
62
136
161
162
148
160
123
103
77
128
151
109
63
25
51

>  <PUBCHEM_MMFF94_PARTIAL_CHARGES>  (1) 
23
1 -0.56
10 0.28
11 -0.14
12 0.66
13 0.28
17 0.28
18 -0.15
19 -0.15
2 -0.43
20 -0.15
21 -0.15
22 -0.15
3 -0.57
4 -0.81
47 0.15
48 0.15
49 0.15
5 0.2
50 0.15
51 0.15
6 0.27
8 0.27
9 0.27

>  <PUBCHEM_EFFECTIVE_ROTOR_COUNT>  (1) 
12

>  <PUBCHEM_PHARMACOPHORE_FEATURES>  (1) 
5
1 1 acceptor
1 14 hydrophobe
1 3 acceptor
1 4 cation
6 11 18 19 20 21 22 rings

>  <PUBCHEM_HEAVY_ATOM_COUNT>  (1) 
22

>  <PUBCHEM_ATOM_DEF_STEREO_COUNT>  (1) 
0

>  <PUBCHEM_ATOM_UDEF_STEREO_COUNT>  (1) 
1

>  <PUBCHEM_BOND_DEF_STEREO_COUNT>  (1) 
0

>  <PUBCHEM_BOND_UDEF_STEREO_COUNT>  (1) 
0

>  <PUBCHEM_ISOTOPIC_ATOM_COUNT>  (1) 
0

>  <PUBCHEM_COMPONENT_COUNT>  (1) 
1

>  <PUBCHEM_CACTVS_TAUTO_COUNT>  (1) 
1

>  <PUBCHEM_CONFORMER_ID>  (1) 
000070DC00000001

>  <PUBCHEM_MMFF94_ENERGY>  (1) 
42.1985

>  <PUBCHEM_FEATURE_SELFOVERLAP>  (1) 
25.371

>  <PUBCHEM_SHAPE_FINGERPRINT>  (1) 
11069576 57 17023729114267426778
11315621 136 18189619517621998111
11545043 162 17418092075093578257
11796584 16 18410851062756929413
12403259 118 11167930394848951237
12592606 108 18342174488976835079
12760667 363 18202282499061653173
13103583 49 14405179586233469756
13402501 40 17988928863896519103
13668630 136 18412265043331819647
13673619 4 17274824619315323576
13685833 64 18131917043889707221
13968360 50 16443344244162163898
14123256 34 18411706517089445319
14251740 57 18200307861502078177
14251764 18 13038894543216313545
14576447 43 18114178614594023320
14767858 380 17603872195615537300
14931854 50 17894905226917636427
14950920 106 15051445081037772567
15183329 4 18114172035226222237
15537594 2 18186516597198285499
17138139 8 18040710424035925843
20281389 69 8574714593897846205
20621476 21 18131639971238833023
21054139 6 18113336397487954682
21623969 137 16988849358501899182
23016692 55 18409731751034662821
23559900 14 18272082855662230945
239999 70 18411415137860173536
2838139 119 11314311680462821315
3004659 81 18334011709697985965
33382 64 17561087952185385558
3472631 163 11891345256649051964
351380 3 18409162217006951479
559249 180 18343018918233556863
59682541 35 17988633117676647112
59755656 215 18343302527007530791
7970288 3 18339923714579451102

>  <PUBCHEM_SHAPE_MULTIPOLES>  (1) 
430.16
20.67
2.28
1.44
22.54
0.37
0.7
8.46
-4.36
2.73
-0.12
-2.57
0.76
-0.2

>  <PUBCHEM_SHAPE_SELFOVERLAP>  (1) 
850.573

>  <PUBCHEM_SHAPE_VOLUME>  (1) 
257.4

>  <PUBCHEM_COORDINATE_TYPE>  (1) 
2
5
10

$$$$
