28896
     RDKit          3D

 30 33  0  0  1  0  0  0  0  0999 V2000
    4.5078    1.2916    1.9545 Cl  0  0  0  0  0  0  0  0  0  0  0  0
    1.6005    0.7239   -2.6592 Cl  0  0  0  0  0  0  0  0  0  0  0  0
   -2.7820    0.7400    2.0562 S   0  0  0  0  0  0  0  0  0  0  0  0
    4.6781   -2.2665   -0.9721 S   0  0  0  0  0  0  0  0  0  0  0  0
   -2.5696   -2.9329   -0.3526 O   0  0  0  0  0  0  0  0  0  0  0  0
   -4.0580   -0.1736   -2.3334 O   0  0  0  0  0  0  0  0  0  0  0  0
   -6.1251    0.1023   -1.4130 O   0  0  0  0  0  0  0  0  0  0  0  0
    1.4332   -1.0869    2.1667 O   0  0  0  0  0  0  0  0  0  0  0  0
   -2.7926   -0.5902   -0.1700 N   0  0  0  0  0  0  0  0  0  0  0  0
    0.2339   -1.3025    0.2098 N   0  0  0  0  0  0  0  0  0  0  0  0
    4.4990   -0.6165   -1.0614 N   0  0  0  0  0  0  0  0  0  0  0  0
   -1.8002    0.1194    0.6431 C   0  0  0  0  0  0  0  0  0  0  0  0
   -4.2910    0.9090    0.9792 C   0  0  0  0  0  0  0  0  0  0  0  0
   -4.2029   -0.2998    0.0212 C   0  0  0  0  0  0  0  0  0  0  0  0
   -1.0894   -1.2270    0.8360 C   0  0  0  0  0  0  0  0  0  0  0  0
   -2.2191   -1.8210   -0.0278 C   0  0  0  0  0  0  0  0  0  0  0  0
   -5.5409    0.8414    1.8587 C   0  0  0  0  0  0  0  0  0  0  0  0
   -4.2166    2.2717    0.2752 C   0  0  0  0  0  0  0  0  0  0  0  0
   -4.9254   -0.0984   -1.2946 C   0  0  0  0  0  0  0  0  0  0  0  0
    1.4237   -1.2244    0.9438 C   0  0  0  0  0  0  0  0  0  0  0  0
    2.6702   -1.3466    0.1763 C   0  0  0  0  0  0  0  0  0  0  0  0
    3.3893   -0.2862   -0.4050 C   0  0  0  0  0  0  0  0  0  0  0  0
    3.2637   -2.5519   -0.0490 C   0  0  0  0  0  0  0  0  0  0  0  0
    3.0240    1.1119   -0.3461 C   0  0  0  0  0  0  0  0  0  0  0  0
    2.8917   -3.9235    0.3505 C   0  0  0  0  0  0  0  0  0  0  0  0
    3.4874    1.9086    0.6994 C   0  0  0  0  0  0  0  0  0  0  0  0
    2.2075    1.6589   -1.3345 C   0  0  0  0  0  0  0  0  0  0  0  0
    3.1332    3.2566    0.7567 C   0  0  0  0  0  0  0  0  0  0  0  0
    1.8534    3.0069   -1.2770 C   0  0  0  0  0  0  0  0  0  0  0  0
    2.3163    3.8057   -0.2315 C   0  0  0  0  0  0  0  0  0  0  0  0
  1 26  1  0
  2 27  1  0
  3 12  1  0
  3 13  1  0
  4 11  1  0
  4 23  1  0
  5 16  2  0
  6 19  1  0
  7 19  2  0
  8 20  2  0
  9 12  1  0
  9 14  1  0
  9 16  1  0
 10 15  1  0
 10 20  1  0
 11 22  2  0
 12 15  1  0
 13 14  1  0
 13 17  1  0
 13 18  1  0
 14 19  1  0
 15 16  1  0
 20 21  1  0
 21 22  1  0
 21 23  2  0
 22 24  1  0
 23 25  1  0
 24 26  2  0
 24 27  1  0
 26 28  1  0
 27 29  2  0
 28 30  2  0
 29 30  1  0
M  END
>  <PUBCHEM_COMPOUND_CID>  (1) 
28896

>  <PUBCHEM_CONFORMER_RMSD>  (1) 
0.8

>  <PUBCHEM_CONFORMER_DIVERSEORDER>  (1) 
8
68
70
94
83
7
76
86
32
33
3
90
21
95
75
58
25
74
62
92
29
40
91
36
38
97
57
78
96
88
10
35
63
11
65
82
17
28
15
93
73
26
44
16
27
45
77
50
49
56
13
60
89
12
67
1
81
51
59
64
66
47
43
24
61
85
69
42
18
14
9
87
22
4
31
37
2
30
6
46
41
71
48
5
19
23
84
34
39
54
79
52
80
20
72
53
55

>  <PUBCHEM_MMFF94_PARTIAL_CHARGES>  (1) 
33
1 -0.18
10 -0.65
11 -0.51
12 0.44
13 0.23
14 0.36
15 0.28
16 0.58
19 0.66
2 -0.18
20 0.72
21 -0.09
22 0.23
23 -0.14
24 0.05
25 0.18
26 0.18
27 0.18
28 -0.15
29 -0.15
3 -0.45
30 -0.15
4 0.18
40 0.37
41 0.5
45 0.15
46 0.15
47 0.15
5 -0.57
6 -0.65
7 -0.57
8 -0.57
9 -0.59

>  <PUBCHEM_EFFECTIVE_ROTOR_COUNT>  (1) 
5.8

>  <PUBCHEM_PHARMACOPHORE_FEATURES>  (1) 
12
1 10 donor
1 11 acceptor
1 5 acceptor
1 6 acceptor
1 7 acceptor
1 8 acceptor
3 13 17 18 hydrophobe
3 6 7 19 anion
4 9 12 15 16 rings
5 4 11 21 22 23 rings
6 24 26 27 28 29 30 rings
7 3 9 12 13 14 15 16 rings

>  <PUBCHEM_HEAVY_ATOM_COUNT>  (1) 
30

>  <PUBCHEM_ATOM_DEF_STEREO_COUNT>  (1) 
0

>  <PUBCHEM_ATOM_UDEF_STEREO_COUNT>  (1) 
3

>  <PUBCHEM_BOND_DEF_STEREO_COUNT>  (1) 
0

>  <PUBCHEM_BOND_UDEF_STEREO_COUNT>  (1) 
0

>  <PUBCHEM_ISOTOPIC_ATOM_COUNT>  (1) 
0

>  <PUBCHEM_COMPONENT_COUNT>  (1) 
1

>  <PUBCHEM_CACTVS_TAUTO_COUNT>  (1) 
2

>  <PUBCHEM_CONFORMER_ID>  (1) 
000070E000000008

>  <PUBCHEM_MMFF94_ENERGY>  (1) 
80.1486

>  <PUBCHEM_FEATURE_SELFOVERLAP>  (1) 
64.695

>  <PUBCHEM_SHAPE_FINGERPRINT>  (1) 
11582403 64 16914531345173584040
11595378 159 12829206668341413791
12156800 1 14297859847118541334
12166972 35 18272089349251381561
12616971 3 18202009789848995009
12633257 1 18114730651104266592
12788726 201 17829056407970805298
13134695 92 18336555915253892974
13533116 47 18412826910731988485
13726171 33 16199596933903692953
14068700 675 17560241298241300850
14347329 18 16371283295116331373
15210252 30 17750254581390506084
15420108 30 18199452416340492698
17349148 13 17989211404298977071
18335252 114 18120651332647630213
20511986 3 17775275080101793281
20715895 44 18263063518534362645
21033648 144 18411134757751684631
21033648 29 17603301540564744269
21033650 10 16772138880510058979
21133410 127 17968943140050400461
21133410 62 16812920678226004909
21315763 76 18336814381806189465
21860390 5 18341334470055570436
22122407 14 18194425311618282265
22149856 69 18194142900475844723
22749437 52 18265054823912064376
23559900 14 18412824707250618386
3388396 114 18272368732548520077
340366 18 18271257027365588062
469060 322 17615711938797831819
474 4 18263363740858327528
5081480 168 18337965480153919244
508706 21 17458903717966512365
513532 50 17988932171617065660
5895379 119 17201663068152902736
6328613 192 17970911300977704556
6823239 73 16298680441931886493
9981440 41 17906172107340241512

>  <PUBCHEM_SHAPE_MULTIPOLES>  (1) 
590.4
12.06
3.97
2.02
13.15
0.46
0.34
0.61
0.52
-5.3
-0.03
0.61
0.58
-0.41

>  <PUBCHEM_SHAPE_SELFOVERLAP>  (1) 
1238.666

>  <PUBCHEM_SHAPE_VOLUME>  (1) 
339.9

>  <PUBCHEM_COORDINATE_TYPE>  (1) 
2
5
10

$$$$
