28904
     RDKit          3D

 10 10  0  0  0  0  0  0  0  0999 V2000
    1.7882    0.6055    0.0012 S   0  0  0  0  0  0  0  0  0  0  0  0
    0.6423   -2.0510   -0.2758 S   0  0  0  0  0  0  0  0  0  0  0  0
   -2.0499   -0.9431    0.3538 S   0  0  0  0  0  0  0  0  0  0  0  0
    2.4411    1.1668    1.1685 O   0  0  0  0  0  0  0  0  0  0  0  0
    2.0281    1.1571   -1.3194 O   0  0  0  0  0  0  0  0  0  0  0  0
    0.1763    0.4995    0.2637 N   0  0  0  0  0  0  0  0  0  0  0  0
    2.1827   -1.1348   -0.0593 C   0  0  0  0  0  0  0  0  0  0  0  0
   -0.3474   -0.6740    0.1312 C   0  0  0  0  0  0  0  0  0  0  0  0
   -2.6732    0.6702   -0.1666 C   0  0  0  0  0  0  0  0  0  0  0  0
   -4.1881    0.7037   -0.0972 C   0  0  0  0  0  0  0  0  0  0  0  0
  1  4  2  0
  1  5  2  0
  1  6  1  0
  1  7  1  0
  2  7  1  0
  2  8  1  0
  3  8  1  0
  3  9  1  0
  6  8  2  0
  9 10  1  0
M  END
>  <PUBCHEM_COMPOUND_CID>  (1) 
28904

>  <PUBCHEM_CONFORMER_RMSD>  (1) 
0.6

>  <PUBCHEM_CONFORMER_DIVERSEORDER>  (1) 
1
6
9
8
7
4
5
10
3
2

>  <PUBCHEM_MMFF94_PARTIAL_CHARGES>  (1) 
9
1 1.38
2 -0.37
3 -0.37
4 -0.65
5 -0.65
6 -0.64
7 0.34
8 0.73
9 0.23

>  <PUBCHEM_EFFECTIVE_ROTOR_COUNT>  (1) 
2.4

>  <PUBCHEM_PHARMACOPHORE_FEATURES>  (1) 
6
1 10 hydrophobe
1 4 acceptor
1 5 acceptor
1 6 acceptor
1 6 donor
5 1 2 6 7 8 rings

>  <PUBCHEM_HEAVY_ATOM_COUNT>  (1) 
10

>  <PUBCHEM_ATOM_DEF_STEREO_COUNT>  (1) 
0

>  <PUBCHEM_ATOM_UDEF_STEREO_COUNT>  (1) 
0

>  <PUBCHEM_BOND_DEF_STEREO_COUNT>  (1) 
0

>  <PUBCHEM_BOND_UDEF_STEREO_COUNT>  (1) 
0

>  <PUBCHEM_ISOTOPIC_ATOM_COUNT>  (1) 
0

>  <PUBCHEM_COMPONENT_COUNT>  (1) 
1

>  <PUBCHEM_CACTVS_TAUTO_COUNT>  (1) 
1

>  <PUBCHEM_CONFORMER_ID>  (1) 
000070E800000001

>  <PUBCHEM_MMFF94_ENERGY>  (1) 
6.1588

>  <PUBCHEM_FEATURE_SELFOVERLAP>  (1) 
30.497

>  <PUBCHEM_SHAPE_FINGERPRINT>  (1) 
1 1 18341609283005391207
11031198 65 18413395328157613311
12932764 1 18059021695317185155
14325111 11 18411417323950768411
14390081 3 18343017809330115097
14897335 6 18341040883197121103
15775835 57 18201997754891740957
170605 34 18187083949355736083
18186145 218 17774733038259645929
20201158 50 18338518513154811315
21028194 46 18409729556316703089
21040471 1 18267588094665799770
230 275 18260827077285954737
23402655 69 18270955740258219677
23552423 10 18333454239701016603
2748010 2 18340217382873174455
3248919 1 17968653929846871243
5084963 1 18335427880252529386

>  <PUBCHEM_SHAPE_MULTIPOLES>  (1) 
200.62
5.33
1.75
0.88
5.62
0.62
-0.04
-1.95
-0.11
-0.83
-0.09
-0.45
-0.24
0.23

>  <PUBCHEM_SHAPE_SELFOVERLAP>  (1) 
357.19

>  <PUBCHEM_SHAPE_VOLUME>  (1) 
131.7

>  <PUBCHEM_COORDINATE_TYPE>  (1) 
2
5
10

$$$$
