28909
     RDKit          3D

 17 18  0  0  0  0  0  0  0  0999 V2000
    0.4710    1.6821   -0.3916 S   0  0  0  0  0  0  0  0  0  0  0  0
    3.9941   -0.2556    0.1806 N   0  0  0  0  0  0  0  0  0  0  0  0
   -2.2154    1.5687   -0.3925 N   0  0  0  0  0  0  0  0  0  0  0  0
   -1.2552   -0.3616    0.1482 N   0  0  0  0  0  0  0  0  0  0  0  0
    3.0700    0.8316   -0.1278 C   0  0  0  0  0  0  0  0  0  0  0  0
    5.3791    0.2109    0.1067 C   0  0  0  0  0  0  0  0  0  0  0  0
    3.7867   -1.3807   -0.7317 C   0  0  0  0  0  0  0  0  0  0  0  0
    1.6332    0.3386   -0.0096 C   0  0  0  0  0  0  0  0  0  0  0  0
    5.6156    1.3801    1.0476 C   0  0  0  0  0  0  0  0  0  0  0  0
    4.6975   -2.5456   -0.3830 C   0  0  0  0  0  0  0  0  0  0  0  0
   -1.0454    0.8902   -0.1925 C   0  0  0  0  0  0  0  0  0  0  0  0
   -3.2491    0.6966   -0.1655 C   0  0  0  0  0  0  0  0  0  0  0  0
   -2.6238   -0.5012    0.1703 C   0  0  0  0  0  0  0  0  0  0  0  0
   -4.6350    0.8479   -0.2232 C   0  0  0  0  0  0  0  0  0  0  0  0
   -3.4126   -1.6250    0.4692 C   0  0  0  0  0  0  0  0  0  0  0  0
   -5.4045   -0.2808    0.0774 C   0  0  0  0  0  0  0  0  0  0  0  0
   -4.8062   -1.4962    0.4175 C   0  0  0  0  0  0  0  0  0  0  0  0
  1  8  1  0
  1 11  1  0
  2  5  1  0
  2  6  1  0
  2  7  1  0
  3 11  1  0
  3 12  1  0
  4 11  2  0
  4 13  1  0
  5  8  1  0
  6  9  1  0
  7 10  1  0
 12 13  2  0
 12 14  1  0
 13 15  1  0
 14 16  2  0
 15 17  2  0
 16 17  1  0
M  END
>  <PUBCHEM_COMPOUND_CID>  (1) 
28909

>  <PUBCHEM_CONFORMER_RMSD>  (1) 
0.8

>  <PUBCHEM_CONFORMER_DIVERSEORDER>  (1) 
1
14
36
9
26
33
7
22
8
38
37
30
35
24
10
25
23
18
27
28
16
17
2
11
12
3
34
29
21
31
4
15
32
20
13
6
5
19

>  <PUBCHEM_MMFF94_PARTIAL_CHARGES>  (1) 
20
1 -0.29
11 0.24
12 -0.15
13 0.23
14 -0.15
15 -0.15
16 -0.15
17 -0.15
2 -0.81
3 0.03
32 0.27
33 0.15
34 0.15
35 0.15
36 0.15
4 -0.57
5 0.27
6 0.27
7 0.27
8 0.23

>  <PUBCHEM_EFFECTIVE_ROTOR_COUNT>  (1) 
6

>  <PUBCHEM_PHARMACOPHORE_FEATURES>  (1) 
5
1 2 cation
1 3 donor
3 3 4 11 cation
5 3 4 11 12 13 rings
6 12 13 14 15 16 17 rings

>  <PUBCHEM_HEAVY_ATOM_COUNT>  (1) 
17

>  <PUBCHEM_ATOM_DEF_STEREO_COUNT>  (1) 
0

>  <PUBCHEM_ATOM_UDEF_STEREO_COUNT>  (1) 
0

>  <PUBCHEM_BOND_DEF_STEREO_COUNT>  (1) 
0

>  <PUBCHEM_BOND_UDEF_STEREO_COUNT>  (1) 
0

>  <PUBCHEM_ISOTOPIC_ATOM_COUNT>  (1) 
0

>  <PUBCHEM_COMPONENT_COUNT>  (1) 
1

>  <PUBCHEM_CACTVS_TAUTO_COUNT>  (1) 
1

>  <PUBCHEM_CONFORMER_ID>  (1) 
000070ED00000001

>  <PUBCHEM_MMFF94_ENERGY>  (1) 
23.7629

>  <PUBCHEM_FEATURE_SELFOVERLAP>  (1) 
25.479

>  <PUBCHEM_SHAPE_FINGERPRINT>  (1) 
10835480 77 18411691080550267852
12107183 9 17696202404515498056
12516196 113 18272650168537377857
12596602 18 16845294981380535058
13073987 5 18272935994305280216
13167823 11 18408885131012297551
13288520 33 18334295392382702389
13533116 47 17988924440391141250
13551218 46 18413111641209948503
13911882 115 18412833503791896938
14251752 14 16081632418808734709
14251764 18 18272939349581891577
14252887 29 18411421709318138552
14341114 176 18342463629478372504
14386348 63 18410576188749261830
15196674 1 18410013208652221046
15352361 1 18409169896123666214
17834072 33 18187931728434144124
17834072 8 17968087638925676813
17844677 252 18271533022148534792
17859628 70 17916591925998140110
1813 80 17385445414506726796
19141452 34 18341614849836719311
193927 3 17895207635485300355
200 152 18060418019434320261
20374829 77 18040994068213414489
20403669 9 18339931415476782006
20645477 70 18200595796479263614
21267235 1 18187653544056236955
21279426 13 18264487287276020797
2215653 11 18411413991040264357
22224240 67 18200583818131739336
22485316 2 18413107264516421748
23402539 116 17968088741993936293
23403322 49 18409170991456455663
23557571 272 17967809427697376028
23559900 14 18409722997939137097
239999 70 18342744005724378862
3004659 81 17967256407908387204
33824 294 18413106152737317318
4214541 1 18408323263575478565
4325135 7 17968097564642869524
5104073 3 18271525282754208792
542803 24 14476964501677859408
559249 180 18040709256305376425
67856867 119 17897168129174458868
9709674 26 18261681462055653994

>  <PUBCHEM_SHAPE_MULTIPOLES>  (1) 
338.76
14.59
2.05
0.77
6.17
0.85
-0.04
3.33
-1.81
1.37
0.14
0.41
-0.03
1.46

>  <PUBCHEM_SHAPE_SELFOVERLAP>  (1) 
687.273

>  <PUBCHEM_SHAPE_VOLUME>  (1) 
200.6

>  <PUBCHEM_COORDINATE_TYPE>  (1) 
2
5
10

$$$$
