28905
     RDKit          3D

 11 11  0  0  0  0  0  0  0  0999 V2000
    1.0709   -0.9474   -0.3612 N   0  0  0  0  0  0  0  0  0  0  0  0
    0.2913    1.6015    0.5114 N   0  0  0  0  0  0  0  0  0  0  0  0
   -0.2247   -0.6167   -0.1911 C   0  0  0  0  0  0  0  0  0  0  0  0
   -0.6076    0.6353    0.2375 C   0  0  0  0  0  0  0  0  0  0  0  0
   -1.2292   -1.6766   -0.4908 C   0  0  0  0  0  0  0  0  0  0  0  0
   -2.0440    0.9884    0.4200 C   0  0  0  0  0  0  0  0  0  0  0  0
    1.9697    0.0189   -0.0875 C   0  0  0  0  0  0  0  0  0  0  0  0
   -1.5571   -2.5292    0.7325 C   0  0  0  0  0  0  0  0  0  0  0  0
   -2.6669    1.5659   -0.8488 C   0  0  0  0  0  0  0  0  0  0  0  0
    1.5867    1.2709    0.3411 C   0  0  0  0  0  0  0  0  0  0  0  0
    3.4110   -0.3111   -0.2631 C   0  0  0  0  0  0  0  0  0  0  0  0
  1  3  2  0
  1  7  1  0
  2  4  2  0
  2 10  1  0
  3  4  1  0
  3  5  1  0
  4  6  1  0
  5  8  1  0
  6  9  1  0
  7 10  2  0
  7 11  1  0
M  END
>  <PUBCHEM_COMPOUND_CID>  (1) 
28905

>  <PUBCHEM_CONFORMER_RMSD>  (1) 
0.4

>  <PUBCHEM_CONFORMER_DIVERSEORDER>  (1) 
1
2
7
8
5
4
9
6
3

>  <PUBCHEM_MMFF94_PARTIAL_CHARGES>  (1) 
10
1 -0.62
10 0.16
11 0.14
2 -0.62
22 0.15
3 0.17
4 0.17
5 0.14
6 0.14
7 0.17

>  <PUBCHEM_EFFECTIVE_ROTOR_COUNT>  (1) 
2

>  <PUBCHEM_PHARMACOPHORE_FEATURES>  (1) 
5
1 1 acceptor
1 2 acceptor
1 8 hydrophobe
1 9 hydrophobe
6 1 2 3 4 7 10 rings

>  <PUBCHEM_HEAVY_ATOM_COUNT>  (1) 
11

>  <PUBCHEM_ATOM_DEF_STEREO_COUNT>  (1) 
0

>  <PUBCHEM_ATOM_UDEF_STEREO_COUNT>  (1) 
0

>  <PUBCHEM_BOND_DEF_STEREO_COUNT>  (1) 
0

>  <PUBCHEM_BOND_UDEF_STEREO_COUNT>  (1) 
0

>  <PUBCHEM_ISOTOPIC_ATOM_COUNT>  (1) 
0

>  <PUBCHEM_COMPONENT_COUNT>  (1) 
1

>  <PUBCHEM_CACTVS_TAUTO_COUNT>  (1) 
3

>  <PUBCHEM_CONFORMER_ID>  (1) 
000070E900000001

>  <PUBCHEM_MMFF94_ENERGY>  (1) 
21.2757

>  <PUBCHEM_FEATURE_SELFOVERLAP>  (1) 
25.375

>  <PUBCHEM_SHAPE_FINGERPRINT>  (1) 
1 1 17974843978458168045
11206711 2 18340207521664751326
12138202 97 18335704914132790367
12423570 1 10159149431087980334
12716758 59 18410287012711599298
13380535 76 18269833134085033702
14911166 2 18270400490785592676
161256 15 17910118249844766832
16945 1 18341618062160935768
193761 8 18196370548706890792
20645476 183 17969243165026674102
20711985 344 18189603011888586755
21040471 1 18412261696893062304
21501502 16 18267870664537313580
23235685 24 18271241604011089512
23402655 69 17910377408873872437
23552423 10 18263082287483034068
23559900 14 18271529707277411430
25 1 18123464986739016973
2748010 2 18200311155726429676
3071541 236 18336253574798537746
528862 383 17753322071985487098
81228 2 18191859248630036907

>  <PUBCHEM_SHAPE_MULTIPOLES>  (1) 
216.41
3.89
2.29
0.82
2.08
1.02
0.02
-0.56
0.55
-1.71
-0.26
-0.25
0
0.54

>  <PUBCHEM_SHAPE_SELFOVERLAP>  (1) 
434.77

>  <PUBCHEM_SHAPE_VOLUME>  (1) 
127.9

>  <PUBCHEM_COORDINATE_TYPE>  (1) 
2
5
10

$$$$
