28912
     RDKit          3D

 18 20  0  0  0  0  0  0  0  0999 V2000
   -1.9318   -0.9000   -2.1039 O   0  0  0  0  0  0  0  0  0  0  0  0
    1.5602   -1.5632    0.6857 O   0  0  0  0  0  0  0  0  0  0  0  0
   -0.4839   -2.5781    0.5766 O   0  0  0  0  0  0  0  0  0  0  0  0
   -2.5941    0.1724   -0.1637 N   0  0  0  0  0  0  0  0  0  0  0  0
   -3.7516    1.0318    1.7073 C   0  0  0  0  0  0  0  0  0  0  0  0
   -4.5714    1.2938    0.4512 C   0  0  0  0  0  0  0  0  0  0  0  0
   -2.3592    0.7554    1.1564 C   0  0  0  0  0  0  0  0  0  0  0  0
   -3.9959    0.2943   -0.5395 C   0  0  0  0  0  0  0  0  0  0  0  0
   -1.6707   -0.4257   -0.9988 C   0  0  0  0  0  0  0  0  0  0  0  0
   -0.2784   -0.4832   -0.5113 C   0  0  0  0  0  0  0  0  0  0  0  0
    0.5029    0.5557   -0.8292 C   0  0  0  0  0  0  0  0  0  0  0  0
    1.8907    0.5896   -0.3943 C   0  0  0  0  0  0  0  0  0  0  0  0
    0.2287   -1.6240    0.2841 C   0  0  0  0  0  0  0  0  0  0  0  0
    2.3875   -0.4726    0.3540 C   0  0  0  0  0  0  0  0  0  0  0  0
    2.7420    1.6535   -0.7028 C   0  0  0  0  0  0  0  0  0  0  0  0
    3.7071   -0.5015    0.8009 C   0  0  0  0  0  0  0  0  0  0  0  0
    4.0683    1.6386   -0.2614 C   0  0  0  0  0  0  0  0  0  0  0  0
    4.5494    0.5632    0.4886 C   0  0  0  0  0  0  0  0  0  0  0  0
  1  9  2  0
  2 13  1  0
  2 14  1  0
  3 13  2  0
  4  7  1  0
  4  8  1  0
  4  9  1  0
  5  6  1  0
  5  7  1  0
  6  8  1  0
  9 10  1  0
 10 11  2  0
 10 13  1  0
 11 12  1  0
 12 14  2  0
 12 15  1  0
 14 16  1  0
 15 17  2  0
 16 18  2  0
 17 18  1  0
M  END
>  <PUBCHEM_COMPOUND_CID>  (1) 
28912

>  <PUBCHEM_CONFORMER_RMSD>  (1) 
0.6

>  <PUBCHEM_CONFORMER_DIVERSEORDER>  (1) 
1
4
5
2
3
6

>  <PUBCHEM_MMFF94_PARTIAL_CHARGES>  (1) 
21
1 -0.57
10 0.03
11 -0.18
12 0.03
13 0.71
14 0.08
15 -0.15
16 -0.15
17 -0.15
18 -0.15
2 -0.23
27 0.15
28 0.15
29 0.15
3 -0.57
30 0.15
31 0.15
4 -0.66
7 0.3
8 0.3
9 0.62

>  <PUBCHEM_EFFECTIVE_ROTOR_COUNT>  (1) 
3

>  <PUBCHEM_PHARMACOPHORE_FEATURES>  (1) 
6
1 1 acceptor
1 10 anion
1 3 acceptor
5 4 5 6 7 8 rings
6 12 14 15 16 17 18 rings
6 2 10 11 12 13 14 rings

>  <PUBCHEM_HEAVY_ATOM_COUNT>  (1) 
18

>  <PUBCHEM_ATOM_DEF_STEREO_COUNT>  (1) 
0

>  <PUBCHEM_ATOM_UDEF_STEREO_COUNT>  (1) 
0

>  <PUBCHEM_BOND_DEF_STEREO_COUNT>  (1) 
0

>  <PUBCHEM_BOND_UDEF_STEREO_COUNT>  (1) 
0

>  <PUBCHEM_ISOTOPIC_ATOM_COUNT>  (1) 
0

>  <PUBCHEM_COMPONENT_COUNT>  (1) 
1

>  <PUBCHEM_CACTVS_TAUTO_COUNT>  (1) 
1

>  <PUBCHEM_CONFORMER_ID>  (1) 
000070F000000001

>  <PUBCHEM_MMFF94_ENERGY>  (1) 
54.8637

>  <PUBCHEM_FEATURE_SELFOVERLAP>  (1) 
30.473

>  <PUBCHEM_SHAPE_FINGERPRINT>  (1) 
10465860 228 18270124508866169050
10498660 4 16558192579958382809
10646746 165 17203604904545356832
11046707 91 11241962689904982296
11471102 22 17822011960712513267
11640471 11 18201722816908028409
12119455 92 17894907434313918411
12236239 1 18272644637125487101
12251169 10 17530972396913486921
12390115 104 17755877655675165268
12491281 212 18060419144336015166
12633257 1 16588319279989866681
12788726 201 17911790585530216526
12916748 109 17060624395352722009
13140716 1 18042117816821475690
14123260 362 18060143158264263905
14289901 80 14201394959081039844
14341114 328 18270976695424535281
14739800 52 17273953840666084066
14787075 74 18269275828172274627
15209294 21 18343295972771223376
15309172 13 18113899364062140699
15342168 16 18260835928976461165
15534591 1 18201439211511669727
15653759 3 16008744701844406420
15775835 57 18273216378592386505
16945 1 18114449111882193182
1813 80 17767128596915614622
18186145 218 18408036317121175742
18219364 16 17821997727270061382
19049666 15 16372675250977620343
193927 3 11242260619065369761
20157964 124 18191863428166570125
204376 136 18334580152529385643
21041028 32 17975969869938697282
21524375 3 18343584040380100663
22079108 93 18410861005426819963
221357 26 11887671728909582699
22854114 59 18040718060693089921
23184049 59 18113054930779412084
23402539 116 16845282826470106381
23526113 38 13614235984018899695
23557571 272 16127795504484252339
23559900 14 15984829229409446404
2748010 2 17683217206941675966
2871803 45 11240006654814630600
298252 57 17561366175423557743
3268164 11 16486962986943268485
3472631 163 17704070711408562137
4028521 119 16056602019496651281
4340502 62 18261683606103983163
474 4 18411418410086864360
5104073 3 17969773280635684432
5281201 14 13973966506097720273
602551 16 14490477495198783640
633830 44 18342464707393773445
76465 3 9367077631644243636
77492 1 18200864115517219007
8272917 22 18264774251294820867
9981440 41 17193453324219114216

>  <PUBCHEM_SHAPE_MULTIPOLES>  (1) 
347.84
8.71
1.8
1.32
0.82
0.62
-0.13
-4.65
1.88
-0.4
0.22
0.96
0.02
-1.21

>  <PUBCHEM_SHAPE_SELFOVERLAP>  (1) 
758.29

>  <PUBCHEM_SHAPE_VOLUME>  (1) 
189.6

>  <PUBCHEM_COORDINATE_TYPE>  (1) 
2
5
10

$$$$
