28918
     RDKit          3D

 20 22  0  0  0  0  0  0  0  0999 V2000
   -1.9828    1.2600   -2.0160 O   0  0  0  0  0  0  0  0  0  0  0  0
    1.5080    1.8670    0.7543 O   0  0  0  0  0  0  0  0  0  0  0  0
   -0.5326    2.8918    0.6701 O   0  0  0  0  0  0  0  0  0  0  0  0
   -2.6903    0.1600   -0.0916 N   0  0  0  0  0  0  0  0  0  0  0  0
    4.8428   -2.4166   -0.5675 N   0  0  0  0  0  0  0  0  0  0  0  0
   -4.4484   -1.9159    0.9161 C   0  0  0  0  0  0  0  0  0  0  0  0
   -4.6336   -1.3183   -0.4759 C   0  0  0  0  0  0  0  0  0  0  0  0
   -2.9868   -1.8324    1.3475 C   0  0  0  0  0  0  0  0  0  0  0  0
   -4.0860    0.1038   -0.5367 C   0  0  0  0  0  0  0  0  0  0  0  0
   -2.4480   -0.4057    1.2447 C   0  0  0  0  0  0  0  0  0  0  0  0
   -1.7410    0.7599   -0.9159 C   0  0  0  0  0  0  0  0  0  0  0  0
   -0.3445    0.8062   -0.4384 C   0  0  0  0  0  0  0  0  0  0  0  0
    0.4293   -0.2337   -0.7707 C   0  0  0  0  0  0  0  0  0  0  0  0
    1.8200   -0.2780   -0.3463 C   0  0  0  0  0  0  0  0  0  0  0  0
    0.1740    1.9378    0.3628 C   0  0  0  0  0  0  0  0  0  0  0  0
    2.3275    0.7751    0.4077 C   0  0  0  0  0  0  0  0  0  0  0  0
    2.6640   -1.3431   -0.6705 C   0  0  0  0  0  0  0  0  0  0  0  0
    3.6501    0.7935    0.8459 C   0  0  0  0  0  0  0  0  0  0  0  0
    3.9934   -1.3387   -0.2381 C   0  0  0  0  0  0  0  0  0  0  0  0
    4.4850   -0.2727    0.5185 C   0  0  0  0  0  0  0  0  0  0  0  0
  1 11  2  0
  2 15  1  0
  2 16  1  0
  3 15  2  0
  4  9  1  0
  4 10  1  0
  4 11  1  0
  5 19  1  0
  6  7  1  0
  6  8  1  0
  7  9  1  0
  8 10  1  0
 11 12  1  0
 12 13  2  0
 12 15  1  0
 13 14  1  0
 14 16  2  0
 14 17  1  0
 16 18  1  0
 17 19  2  0
 18 20  2  0
 19 20  1  0
M  END
>  <PUBCHEM_COMPOUND_CID>  (1) 
28918

>  <PUBCHEM_CONFORMER_RMSD>  (1) 
0.6

>  <PUBCHEM_CONFORMER_DIVERSEORDER>  (1) 
2
8
10
6
7
1
9
4
3
5

>  <PUBCHEM_MMFF94_PARTIAL_CHARGES>  (1) 
23
1 -0.57
10 0.3
11 0.62
12 0.03
13 -0.18
14 0.03
15 0.71
16 0.08
17 -0.15
18 -0.15
19 0.1
2 -0.23
20 -0.15
3 -0.57
31 0.15
32 0.15
33 0.15
34 0.15
35 0.4
36 0.4
4 -0.66
5 -0.9
9 0.3

>  <PUBCHEM_EFFECTIVE_ROTOR_COUNT>  (1) 
3.2

>  <PUBCHEM_PHARMACOPHORE_FEATURES>  (1) 
8
1 1 acceptor
1 12 anion
1 3 acceptor
1 5 cation
1 5 donor
6 14 16 17 18 19 20 rings
6 2 12 13 14 15 16 rings
6 4 6 7 8 9 10 rings

>  <PUBCHEM_HEAVY_ATOM_COUNT>  (1) 
20

>  <PUBCHEM_ATOM_DEF_STEREO_COUNT>  (1) 
0

>  <PUBCHEM_ATOM_UDEF_STEREO_COUNT>  (1) 
0

>  <PUBCHEM_BOND_DEF_STEREO_COUNT>  (1) 
0

>  <PUBCHEM_BOND_UDEF_STEREO_COUNT>  (1) 
0

>  <PUBCHEM_ISOTOPIC_ATOM_COUNT>  (1) 
0

>  <PUBCHEM_COMPONENT_COUNT>  (1) 
1

>  <PUBCHEM_CACTVS_TAUTO_COUNT>  (1) 
1

>  <PUBCHEM_CONFORMER_ID>  (1) 
000070F600000002

>  <PUBCHEM_MMFF94_ENERGY>  (1) 
64.3364

>  <PUBCHEM_FEATURE_SELFOVERLAP>  (1) 
40.623

>  <PUBCHEM_SHAPE_FINGERPRINT>  (1) 
11471102 22 18201439219996102673
11543360 7 17167872941543342606
11552529 35 17344904337558115119
11578080 2 14709144042577183596
11595378 159 15338850758579835067
11796584 16 17894623768893707979
12032990 46 18412544288877612244
12236239 1 16558747948940669317
12363563 72 18410022043310154795
12596602 18 16343418522115417299
12633257 1 18200609110640575795
12670546 56 13110963080851900452
12714826 92 17894633634559959617
12892183 10 17632580469538310064
13103583 49 17916886654710805851
13140716 1 17843683258230548336
13402501 40 18408044017607978635
13544592 145 18260261967486229543
13544653 18 18410295821605094743
13965767 371 14833636113836638483
14251764 30 17630910239079186646
14252887 29 18343863342345920346
14341114 328 15267345149422781027
14386348 63 18408319999262897738
14787075 74 18262236754583182640
14790565 3 17475231779018890016
15422964 175 18412827988457601472
16752209 62 16226869134899698309
16945 1 18130773582526502196
17357779 13 18260540165028568015
17870717 6 17821450140773802063
19141452 34 18337394945932331155
193927 3 18040727999390026363
19862831 5 14273450401155567037
200 152 17988637519612021159
20028762 73 17703223039747289191
20261772 1 17917989507717642966
20281475 54 18334587866491050797
20374829 77 17895188935366647875
20403669 9 18334294283796220363
20645477 70 18337945800429119613
20693207 138 18260545619404841108
221490 88 18270680862430234248
231179 274 9439406830633846164
23175994 123 18411980256640262381
23557571 272 17894899741996499436
23559900 14 18186799188407336212
26918003 58 18409441462668860176
2871803 45 18040994046517285498
3286 77 18340771554408899161
5104073 3 18058442102892876962
59755656 520 17974000649146331685
602551 16 17749102301092741914
9709674 26 18189898806613407451

>  <PUBCHEM_SHAPE_MULTIPOLES>  (1) 
384.02
9.67
2.36
1.24
0.14
0.31
-0.1
-6.89
0.55
0.32
0.33
-0.69
0.06
1.65

>  <PUBCHEM_SHAPE_SELFOVERLAP>  (1) 
829.234

>  <PUBCHEM_SHAPE_VOLUME>  (1) 
208.2

>  <PUBCHEM_COORDINATE_TYPE>  (1) 
2
5
10

$$$$
