28913
     RDKit          3D

 19 21  0  0  0  0  0  0  0  0999 V2000
   -1.6464   -1.4874    1.8798 O   0  0  0  0  0  0  0  0  0  0  0  0
    1.9404   -1.4823   -0.8346 O   0  0  0  0  0  0  0  0  0  0  0  0
    0.0110   -2.7040   -0.9058 O   0  0  0  0  0  0  0  0  0  0  0  0
   -2.4218   -0.2805    0.0480 N   0  0  0  0  0  0  0  0  0  0  0  0
   -4.3569    1.7030   -0.8101 C   0  0  0  0  0  0  0  0  0  0  0  0
   -4.5091    0.9588    0.5136 C   0  0  0  0  0  0  0  0  0  0  0  0
   -2.8862    1.8034   -1.2052 C   0  0  0  0  0  0  0  0  0  0  0  0
   -3.8247   -0.4029    0.4559 C   0  0  0  0  0  0  0  0  0  0  0  0
   -2.2109    0.4322   -1.2217 C   0  0  0  0  0  0  0  0  0  0  0  0
   -1.4340   -0.8626    0.8392 C   0  0  0  0  0  0  0  0  0  0  0  0
   -0.0308   -0.7273    0.3999 C   0  0  0  0  0  0  0  0  0  0  0  0
    0.6292    0.3459    0.8510 C   0  0  0  0  0  0  0  0  0  0  0  0
    2.0165    0.5662    0.4724 C   0  0  0  0  0  0  0  0  0  0  0  0
    0.6129   -1.7200   -0.4897 C   0  0  0  0  0  0  0  0  0  0  0  0
    2.6404   -0.3546   -0.3631 C   0  0  0  0  0  0  0  0  0  0  0  0
    2.7440    1.6717    0.9197 C   0  0  0  0  0  0  0  0  0  0  0  0
    3.9664   -0.2018   -0.7632 C   0  0  0  0  0  0  0  0  0  0  0  0
    4.0752    1.8385    0.5269 C   0  0  0  0  0  0  0  0  0  0  0  0
    4.6846    0.9037   -0.3129 C   0  0  0  0  0  0  0  0  0  0  0  0
  1 10  2  0
  2 14  1  0
  2 15  1  0
  3 14  2  0
  4  8  1  0
  4  9  1  0
  4 10  1  0
  5  6  1  0
  5  7  1  0
  6  8  1  0
  7  9  1  0
 10 11  1  0
 11 12  2  0
 11 14  1  0
 12 13  1  0
 13 15  2  0
 13 16  1  0
 15 17  1  0
 16 18  2  0
 17 19  2  0
 18 19  1  0
M  END
>  <PUBCHEM_COMPOUND_CID>  (1) 
28913

>  <PUBCHEM_CONFORMER_RMSD>  (1) 
0.6

>  <PUBCHEM_CONFORMER_DIVERSEORDER>  (1) 
2
11
9
7
3
8
10
4
6
1
5

>  <PUBCHEM_MMFF94_PARTIAL_CHARGES>  (1) 
21
1 -0.57
10 0.62
11 0.03
12 -0.18
13 0.03
14 0.71
15 0.08
16 -0.15
17 -0.15
18 -0.15
19 -0.15
2 -0.23
3 -0.57
30 0.15
31 0.15
32 0.15
33 0.15
34 0.15
4 -0.66
8 0.3
9 0.3

>  <PUBCHEM_EFFECTIVE_ROTOR_COUNT>  (1) 
3.2

>  <PUBCHEM_PHARMACOPHORE_FEATURES>  (1) 
6
1 1 acceptor
1 11 anion
1 3 acceptor
6 13 15 16 17 18 19 rings
6 2 11 12 13 14 15 rings
6 4 5 6 7 8 9 rings

>  <PUBCHEM_HEAVY_ATOM_COUNT>  (1) 
19

>  <PUBCHEM_ATOM_DEF_STEREO_COUNT>  (1) 
0

>  <PUBCHEM_ATOM_UDEF_STEREO_COUNT>  (1) 
0

>  <PUBCHEM_BOND_DEF_STEREO_COUNT>  (1) 
0

>  <PUBCHEM_BOND_UDEF_STEREO_COUNT>  (1) 
0

>  <PUBCHEM_ISOTOPIC_ATOM_COUNT>  (1) 
0

>  <PUBCHEM_COMPONENT_COUNT>  (1) 
1

>  <PUBCHEM_CACTVS_TAUTO_COUNT>  (1) 
1

>  <PUBCHEM_CONFORMER_ID>  (1) 
000070F100000002

>  <PUBCHEM_MMFF94_ENERGY>  (1) 
51.414

>  <PUBCHEM_FEATURE_SELFOVERLAP>  (1) 
30.473

>  <PUBCHEM_SHAPE_FINGERPRINT>  (1) 
10498660 4 18041551439321232621
10646746 165 18113899347008872044
11046707 91 11455891373192322877
11132069 177 18040716961540268973
11595378 159 16443059469954451381
12403259 415 18200315540898582192
12596602 18 15285649818949345636
12633257 1 17022900189715762796
12670546 56 17530952601467281210
12730499 353 18411986819587440107
12892183 10 13840260373142955452
13464514 151 18266180517570533145
13583140 156 17241864632010705672
13965767 371 15939491803350921677
15219456 202 18409168779448045383
1813 80 13118277019758400922
18186145 218 18059853982558780428
18219364 16 18200605811904985594
19862831 5 16630805512824181337
200 152 16774082860292017696
20645477 56 18187367640118937441
20645477 70 17988935444223954358
21033648 29 18341326794827888064
23114952 82 18197780994565647791
231179 274 18410856564340932384
23402539 116 17894908585729527335
23402655 69 17775287170656030632
23493267 7 18113899381579503592
23557571 272 18041859388375849467
23559900 14 17895764997723666838
25 1 18272369754443670594
2748010 2 17628925822512112898
3524813 1 18409725188050685052
4028521 119 18409726236291665665
427121 178 17459193984476994281
5104073 3 18114465540111021609
633830 44 17775293745950222045
81228 2 17548963907368811898

>  <PUBCHEM_SHAPE_MULTIPOLES>  (1) 
368.42
9.08
2.14
1.25
0.5
0.41
0.1
-5.54
-0.72
0.05
-0.29
0.44
0.1
1.46

>  <PUBCHEM_SHAPE_SELFOVERLAP>  (1) 
795.145

>  <PUBCHEM_SHAPE_VOLUME>  (1) 
199.6

>  <PUBCHEM_COORDINATE_TYPE>  (1) 
2
5
10

$$$$
