28916
     RDKit          3D

 20 22  0  0  0  0  0  0  0  0999 V2000
    5.8305    0.1494    0.0228 O   0  0  0  0  0  0  0  0  0  0  0  0
   -2.3380   -1.6616    0.2527 O   0  0  0  0  0  0  0  0  0  0  0  0
    1.0574    0.4790    1.2756 O   0  0  0  0  0  0  0  0  0  0  0  0
   -0.2377   -2.5101   -0.0276 O   0  0  0  0  0  0  0  0  0  0  0  0
    3.0339    0.4934    0.0574 N   0  0  0  0  0  0  0  0  0  0  0  0
    3.8523    0.9039    1.1984 C   0  0  0  0  0  0  0  0  0  0  0  0
    3.7622    0.4298   -1.2141 C   0  0  0  0  0  0  0  0  0  0  0  0
    5.1254    0.0725    1.2645 C   0  0  0  0  0  0  0  0  0  0  0  0
    5.0431   -0.3781   -1.0482 C   0  0  0  0  0  0  0  0  0  0  0  0
    1.6612    0.3136    0.2127 C   0  0  0  0  0  0  0  0  0  0  0  0
    0.8961   -0.1148   -1.0139 C   0  0  0  0  0  0  0  0  0  0  0  0
   -0.5447   -0.2306   -0.6185 C   0  0  0  0  0  0  0  0  0  0  0  0
   -1.3970    0.7993   -0.7068 C   0  0  0  0  0  0  0  0  0  0  0  0
   -2.7887    0.6559   -0.3149 C   0  0  0  0  0  0  0  0  0  0  0  0
   -0.9999   -1.5530   -0.1163 C   0  0  0  0  0  0  0  0  0  0  0  0
   -3.2282   -0.5753    0.1576 C   0  0  0  0  0  0  0  0  0  0  0  0
   -3.6997    1.7116   -0.3957 C   0  0  0  0  0  0  0  0  0  0  0  0
   -4.5488   -0.7816    0.5512 C   0  0  0  0  0  0  0  0  0  0  0  0
   -5.0281    1.5205   -0.0046 C   0  0  0  0  0  0  0  0  0  0  0  0
   -5.4514    0.2762    0.4678 C   0  0  0  0  0  0  0  0  0  0  0  0
  1  8  1  0
  1  9  1  0
  2 15  1  0
  2 16  1  0
  3 10  2  0
  4 15  2  0
  5  6  1  0
  5  7  1  0
  5 10  1  0
  6  8  1  0
  7  9  1  0
 10 11  1  0
 11 12  1  0
 12 13  2  0
 12 15  1  0
 13 14  1  0
 14 16  2  0
 14 17  1  0
 16 18  1  0
 17 19  2  0
 18 20  2  0
 19 20  1  0
M  END
>  <PUBCHEM_COMPOUND_CID>  (1) 
28916

>  <PUBCHEM_CONFORMER_RMSD>  (1) 
0.6

>  <PUBCHEM_CONFORMER_DIVERSEORDER>  (1) 
2
9
47
35
43
37
34
17
19
30
25
48
32
22
5
13
14
39
29
7
21
44
27
28
50
31
16
4
49
51
24
23
42
11
38
20
1
41
45
36
40
3
26
8
46
33
6
10
12
18
15

>  <PUBCHEM_MMFF94_PARTIAL_CHARGES>  (1) 
25
1 -0.56
10 0.57
11 0.2
12 -0.12
13 -0.18
14 0.03
15 0.71
16 0.08
17 -0.15
18 -0.15
19 -0.15
2 -0.23
20 -0.15
3 -0.57
31 0.15
32 0.15
33 0.15
34 0.15
35 0.15
4 -0.57
5 -0.66
6 0.3
7 0.3
8 0.28
9 0.28

>  <PUBCHEM_EFFECTIVE_ROTOR_COUNT>  (1) 
4.2

>  <PUBCHEM_PHARMACOPHORE_FEATURES>  (1) 
6
1 1 acceptor
1 3 acceptor
1 4 acceptor
6 1 5 6 7 8 9 rings
6 14 16 17 18 19 20 rings
6 2 12 13 14 15 16 rings

>  <PUBCHEM_HEAVY_ATOM_COUNT>  (1) 
20

>  <PUBCHEM_ATOM_DEF_STEREO_COUNT>  (1) 
0

>  <PUBCHEM_ATOM_UDEF_STEREO_COUNT>  (1) 
0

>  <PUBCHEM_BOND_DEF_STEREO_COUNT>  (1) 
0

>  <PUBCHEM_BOND_UDEF_STEREO_COUNT>  (1) 
0

>  <PUBCHEM_ISOTOPIC_ATOM_COUNT>  (1) 
0

>  <PUBCHEM_COMPONENT_COUNT>  (1) 
1

>  <PUBCHEM_CACTVS_TAUTO_COUNT>  (1) 
1

>  <PUBCHEM_CONFORMER_ID>  (1) 
000070F400000002

>  <PUBCHEM_MMFF94_ENERGY>  (1) 
53.9641

>  <PUBCHEM_FEATURE_SELFOVERLAP>  (1) 
30.475

>  <PUBCHEM_SHAPE_FINGERPRINT>  (1) 
11089746 13 14261349172386463834
12107183 9 16811491359451689440
12119455 92 17346599681508319311
12236239 1 17312825986974732972
12390115 104 18270128890350489777
12403259 415 18202003247933515881
12592029 89 18114182999718852402
12596602 18 16733272330238184673
12916748 109 18343023276538951616
13288520 33 9439400229580413453
13533116 47 17774726347175898230
13544592 145 18201445766085431278
13675066 3 18131631222785758116
13740256 8 9439106668481472397
14341114 328 17095242514405120241
14573314 32 18271812293632455740
15042514 8 18191593162717184011
15788980 27 17917990585817529636
17834072 33 16732704969073457020
1813 80 15936692567116412302
19489759 90 18411135836120895305
19784866 170 18260833657582060173
200 152 13973966497560272829
20645477 56 18343016713754868940
20645477 70 16630252433296392108
21033648 29 18059561486590987529
21279426 13 18057330478855932524
2215653 11 17846504708056569742
22224240 67 18410857664406461299
2297311 6 18409176497314625892
23175994 123 17560807649049126544
23402539 116 18343858931282807549
23559900 14 18271535230178040998
2838139 119 16343430492901383105
2916195 48 17988915691136655608
3004659 81 18335426717276715478
3009799 131 9583239397377682739
351380 180 17775846821768548760
3545911 37 18342178847250191543
495365 180 17418086616591116782
5104073 3 18191314784643171547
5385378 56 18269283365565695931
542803 24 17385726897973151092
59755656 215 18341055112329009526
633830 44 18130497595874268508
7226269 152 18059852861799326064

>  <PUBCHEM_SHAPE_MULTIPOLES>  (1) 
383.13
13
1.55
1.11
5.88
0.6
-0.07
-3.03
-1.76
-1.56
0.01
1.24
-0.13
0.6

>  <PUBCHEM_SHAPE_SELFOVERLAP>  (1) 
825.262

>  <PUBCHEM_SHAPE_VOLUME>  (1) 
208.5

>  <PUBCHEM_COORDINATE_TYPE>  (1) 
2
5
10

$$$$
