28917
     RDKit          3D

 19 21  0  0  0  0  0  0  0  0999 V2000
    1.1210   -1.8738    0.5886 O   0  0  0  0  0  0  0  0  0  0  0  0
   -2.2407   -0.6597   -2.1760 O   0  0  0  0  0  0  0  0  0  0  0  0
   -1.0073   -2.6773    0.3738 O   0  0  0  0  0  0  0  0  0  0  0  0
   -2.8348    0.3114   -0.1618 N   0  0  0  0  0  0  0  0  0  0  0  0
    4.8966    2.1516   -0.2818 N   0  0  0  0  0  0  0  0  0  0  0  0
   -3.9405    1.1238    1.7607 C   0  0  0  0  0  0  0  0  0  0  0  0
   -4.7089    1.5628    0.5218 C   0  0  0  0  0  0  0  0  0  0  0  0
   -2.5705    0.7614    1.2039 C   0  0  0  0  0  0  0  0  0  0  0  0
   -4.2118    0.5959   -0.5412 C   0  0  0  0  0  0  0  0  0  0  0  0
   -1.9565   -0.3027   -1.0331 C   0  0  0  0  0  0  0  0  0  0  0  0
   -0.5849   -0.5314   -0.5372 C   0  0  0  0  0  0  0  0  0  0  0  0
    0.2965    0.4505   -0.7606 C   0  0  0  0  0  0  0  0  0  0  0  0
    1.6727    0.3172   -0.3087 C   0  0  0  0  0  0  0  0  0  0  0  0
   -0.2025   -1.7752    0.1684 C   0  0  0  0  0  0  0  0  0  0  0  0
    2.0534   -0.8439    0.3562 C   0  0  0  0  0  0  0  0  0  0  0  0
    2.6260    1.3164   -0.5200 C   0  0  0  0  0  0  0  0  0  0  0  0
    3.3556   -1.0341    0.8140 C   0  0  0  0  0  0  0  0  0  0  0  0
    3.9365    1.1400   -0.0663 C   0  0  0  0  0  0  0  0  0  0  0  0
    4.3001   -0.0330    0.5991 C   0  0  0  0  0  0  0  0  0  0  0  0
  1 14  1  0
  1 15  1  0
  2 10  2  0
  3 14  2  0
  4  8  1  0
  4  9  1  0
  4 10  1  0
  5 18  1  0
  6  7  1  0
  6  8  1  0
  7  9  1  0
 10 11  1  0
 11 12  2  0
 11 14  1  0
 12 13  1  0
 13 15  2  0
 13 16  1  0
 15 17  1  0
 16 18  2  0
 17 19  2  0
 18 19  1  0
M  END
>  <PUBCHEM_COMPOUND_CID>  (1) 
28917

>  <PUBCHEM_CONFORMER_RMSD>  (1) 
0.6

>  <PUBCHEM_CONFORMER_DIVERSEORDER>  (1) 
1
4
5
6
2
3

>  <PUBCHEM_MMFF94_PARTIAL_CHARGES>  (1) 
23
1 -0.23
10 0.62
11 0.03
12 -0.18
13 0.03
14 0.71
15 0.08
16 -0.15
17 -0.15
18 0.1
19 -0.15
2 -0.57
28 0.15
29 0.15
3 -0.57
30 0.15
31 0.15
32 0.4
33 0.4
4 -0.66
5 -0.9
8 0.3
9 0.3

>  <PUBCHEM_EFFECTIVE_ROTOR_COUNT>  (1) 
3

>  <PUBCHEM_PHARMACOPHORE_FEATURES>  (1) 
8
1 11 anion
1 2 acceptor
1 3 acceptor
1 5 cation
1 5 donor
5 4 6 7 8 9 rings
6 1 11 12 13 14 15 rings
6 13 15 16 17 18 19 rings

>  <PUBCHEM_HEAVY_ATOM_COUNT>  (1) 
19

>  <PUBCHEM_ATOM_DEF_STEREO_COUNT>  (1) 
0

>  <PUBCHEM_ATOM_UDEF_STEREO_COUNT>  (1) 
0

>  <PUBCHEM_BOND_DEF_STEREO_COUNT>  (1) 
0

>  <PUBCHEM_BOND_UDEF_STEREO_COUNT>  (1) 
0

>  <PUBCHEM_ISOTOPIC_ATOM_COUNT>  (1) 
0

>  <PUBCHEM_COMPONENT_COUNT>  (1) 
1

>  <PUBCHEM_CACTVS_TAUTO_COUNT>  (1) 
1

>  <PUBCHEM_CONFORMER_ID>  (1) 
000070F500000001

>  <PUBCHEM_MMFF94_ENERGY>  (1) 
67.7851

>  <PUBCHEM_FEATURE_SELFOVERLAP>  (1) 
40.622

>  <PUBCHEM_SHAPE_FINGERPRINT>  (1) 
10493431 412 18261677072862678496
10498660 4 16343142386400163241
11640471 11 18130790006148678251
12236239 1 18201430355742519781
12390115 104 18045795743462538188
12491281 212 17988922288227384526
12633257 1 18261942004036867298
12644460 14 17967525749676216426
12788726 201 17984688180771697327
12892183 10 17603593993351503337
12916748 109 16845573102293430689
13140716 1 18187358861775743802
13583140 156 15719933813871305196
13994607 96 18129678498724925417
14123260 362 18060142054452374585
14251764 38 17629466769095565304
14289901 80 14634869704475388684
14341114 328 18272943700288719801
14445660 50 18262235629280704004
14739800 52 17417225703302245770
14787075 74 18342175609530925635
15209294 21 18413387644028818389
15309172 13 18187082836711487803
15342168 16 18407763637831500181
15475509 8 17912384043448042310
15534591 1 18202282519850538015
15653759 3 16225765185937715597
15775835 57 18202002097209334681
16945 1 18187914050644126654
1813 80 17623856725631424606
18186145 218 18335977614981815342
18219364 16 17895182299088183870
20112054 13 18259988166998982773
20157964 124 18192989310909413237
204376 136 18408325479836326827
20739085 24 18042415646759791156
21033648 29 17677031504315232188
21503847 285 18340212877831912296
21524375 3 18272931600870136703
21756936 100 18271250520574134128
22079108 93 18411422843025909587
22854114 59 18113621166366945025
23184049 59 18113618971517350612
23402539 116 16702006557556039325
23526113 38 12966833646427812367
23557571 272 15768626824399845523
23559900 14 15770060514985702708
298252 57 17346315977649583103
3472631 163 17775846817700915449
4340502 62 18334868178138260035
465052 167 8285614530494185401
474 4 18412825759285120387
5104073 3 18042675282360389744
5281201 14 13614518558475511777
602551 16 14706933942669819096
633830 44 18343023246400119967
76465 3 8862950459286878256
77492 1 18129931300489392183
9981440 41 17266632398536886312

>  <PUBCHEM_SHAPE_MULTIPOLES>  (1) 
363.44
9.37
1.99
1.29
0.12
0.6
-0.12
-6.03
1.77
-0.71
0.27
1.2
-0.01
-1.3

>  <PUBCHEM_SHAPE_SELFOVERLAP>  (1) 
792.43

>  <PUBCHEM_SHAPE_VOLUME>  (1) 
198.2

>  <PUBCHEM_COORDINATE_TYPE>  (1) 
2
5
10

$$$$
