28922
     RDKit          3D

 18 19  0  0  0  0  0  0  0  0999 V2000
    1.3557    1.6735   -0.5802 O   0  0  0  0  0  0  0  0  0  0  0  0
   -2.2008    0.5470    1.9404 O   0  0  0  0  0  0  0  0  0  0  0  0
   -0.7798    2.4853   -0.5484 O   0  0  0  0  0  0  0  0  0  0  0  0
   -2.6749   -0.4932   -0.0882 N   0  0  0  0  0  0  0  0  0  0  0  0
   -4.0868   -0.7437    0.1916 C   0  0  0  0  0  0  0  0  0  0  0  0
   -2.1992   -0.9513   -1.3871 C   0  0  0  0  0  0  0  0  0  0  0  0
   -1.8353    0.1444    0.8301 C   0  0  0  0  0  0  0  0  0  0  0  0
   -0.4369    0.3586    0.4383 C   0  0  0  0  0  0  0  0  0  0  0  0
    1.8287   -0.4988    0.4037 C   0  0  0  0  0  0  0  0  0  0  0  0
    0.4211   -0.6198    0.7503 C   0  0  0  0  0  0  0  0  0  0  0  0
    2.2636    0.6471   -0.2544 C   0  0  0  0  0  0  0  0  0  0  0  0
   -4.9521    0.4172   -0.2685 C   0  0  0  0  0  0  0  0  0  0  0  0
   -1.6852   -2.3790   -1.3111 C   0  0  0  0  0  0  0  0  0  0  0  0
    0.0033    1.5862   -0.2617 C   0  0  0  0  0  0  0  0  0  0  0  0
    2.7593   -1.4949    0.7093 C   0  0  0  0  0  0  0  0  0  0  0  0
    3.5981    0.8250   -0.6139 C   0  0  0  0  0  0  0  0  0  0  0  0
    4.1015   -1.3307    0.3549 C   0  0  0  0  0  0  0  0  0  0  0  0
    4.5197   -0.1730   -0.3051 C   0  0  0  0  0  0  0  0  0  0  0  0
  1 11  1  0
  1 14  1  0
  2  7  2  0
  3 14  2  0
  4  5  1  0
  4  6  1  0
  4  7  1  0
  5 12  1  0
  6 13  1  0
  7  8  1  0
  8 10  2  0
  8 14  1  0
  9 10  1  0
  9 11  2  0
  9 15  1  0
 11 16  1  0
 15 17  2  0
 16 18  2  0
 17 18  1  0
M  END
>  <PUBCHEM_COMPOUND_CID>  (1) 
28922

>  <PUBCHEM_CONFORMER_RMSD>  (1) 
0.6

>  <PUBCHEM_CONFORMER_DIVERSEORDER>  (1) 
1
6
8
2
7
5
3
4

>  <PUBCHEM_MMFF94_PARTIAL_CHARGES>  (1) 
21
1 -0.23
10 -0.18
11 0.08
14 0.71
15 -0.15
16 -0.15
17 -0.15
18 -0.15
2 -0.57
23 0.15
3 -0.57
30 0.15
31 0.15
32 0.15
33 0.15
4 -0.66
5 0.3
6 0.3
7 0.62
8 0.03
9 0.03

>  <PUBCHEM_EFFECTIVE_ROTOR_COUNT>  (1) 
4

>  <PUBCHEM_PHARMACOPHORE_FEATURES>  (1) 
5
1 2 acceptor
1 3 acceptor
1 8 anion
6 1 8 9 10 11 14 rings
6 9 11 15 16 17 18 rings

>  <PUBCHEM_HEAVY_ATOM_COUNT>  (1) 
18

>  <PUBCHEM_ATOM_DEF_STEREO_COUNT>  (1) 
0

>  <PUBCHEM_ATOM_UDEF_STEREO_COUNT>  (1) 
0

>  <PUBCHEM_BOND_DEF_STEREO_COUNT>  (1) 
0

>  <PUBCHEM_BOND_UDEF_STEREO_COUNT>  (1) 
0

>  <PUBCHEM_ISOTOPIC_ATOM_COUNT>  (1) 
0

>  <PUBCHEM_COMPONENT_COUNT>  (1) 
1

>  <PUBCHEM_CACTVS_TAUTO_COUNT>  (1) 
1

>  <PUBCHEM_CONFORMER_ID>  (1) 
000070FA00000001

>  <PUBCHEM_MMFF94_ENERGY>  (1) 
52.1132

>  <PUBCHEM_FEATURE_SELFOVERLAP>  (1) 
25.399

>  <PUBCHEM_SHAPE_FINGERPRINT>  (1) 
11471102 20 18113340821061585288
11578080 2 18129356307189951057
12236239 1 18343867718574872411
12553582 1 18411408523399482622
12670545 2 18412263921918185151
12670545 47 14692288499284920630
13581323 91 17418096507219953635
14115302 16 17988641947459533175
14576447 43 18266173009968031023
14993402 34 18342740723730801111
16752209 62 17774717572335685627
16945 1 18187091680439456048
18186145 218 16950555593041011435
200 152 18334010575588976664
20600515 1 16486704670350603417
20645476 183 18341330097763298559
20645477 70 18113617850752841826
21267235 1 18335147462064678834
221490 88 17898863614595333387
232386 152 17632294639528083799
23402539 116 18260543429435730346
23402655 69 18334858320565797268
23557571 272 18059856117663993888
23559900 14 17132115792499942728
23598291 2 18197212762008089959
26918003 58 17603305955664420162
2748010 2 18043814182837765972
2871803 45 18113338574946670378
34934 24 18337388339718293584
465052 167 18267031729462122411
57426455 19 8502368949610024269
77492 1 18272378589175483458
90525 40 18341612551464713535
9981440 41 17259614275593230993

>  <PUBCHEM_SHAPE_MULTIPOLES>  (1) 
347.84
8.26
1.92
1.17
0.59
0.08
-0.12
-1.61
0.38
0.05
0.61
0.57
-0.18
-0.98

>  <PUBCHEM_SHAPE_SELFOVERLAP>  (1) 
736.221

>  <PUBCHEM_SHAPE_VOLUME>  (1) 
194.4

>  <PUBCHEM_COORDINATE_TYPE>  (1) 
2
5
10

$$$$
