28935
     RDKit          3D

 16 16  0  0  0  0  0  0  0  0999 V2000
   -5.0929    0.2094   -0.2210 I   0  0  0  0  0  0  0  0  0  0  0  0
   -0.6007   -3.2002    0.2559 Cl  0  0  0  0  0  0  0  0  0  0  0  0
   -2.6277    2.6963   -0.0707 Cl  0  0  0  0  0  0  0  0  0  0  0  0
    2.1658    0.7035   -2.1364 S   0  0  0  0  0  0  0  0  0  0  0  0
    2.2421    0.2553   -0.2398 P   0  0  0  0  0  0  0  0  0  0  0  0
    1.0676   -0.7019    0.3371 O   0  0  0  0  0  0  0  0  0  0  0  0
    3.5700   -0.5520    0.2473 O   0  0  0  0  0  0  0  0  0  0  0  0
    2.2253    1.4897    0.8201 O   0  0  0  0  0  0  0  0  0  0  0  0
   -0.2807   -0.4997    0.2149 C   0  0  0  0  0  0  0  0  0  0  0  0
   -1.1660   -1.5726    0.1653 C   0  0  0  0  0  0  0  0  0  0  0  0
   -0.7535    0.8076    0.1405 C   0  0  0  0  0  0  0  0  0  0  0  0
   -2.1226    1.0436    0.0155 C   0  0  0  0  0  0  0  0  0  0  0  0
   -2.5351   -1.3367    0.0404 C   0  0  0  0  0  0  0  0  0  0  0  0
   -3.0133   -0.0286   -0.0344 C   0  0  0  0  0  0  0  0  0  0  0  0
    3.7897   -1.8811   -0.1949 C   0  0  0  0  0  0  0  0  0  0  0  0
    3.1319    2.5675    0.6603 C   0  0  0  0  0  0  0  0  0  0  0  0
  1 14  1  0
  2 10  1  0
  3 12  1  0
  4  5  2  0
  5  6  1  0
  5  7  1  0
  5  8  1  0
  6  9  1  0
  7 15  1  0
  8 16  1  0
  9 10  2  0
  9 11  1  0
 10 13  1  0
 11 12  2  0
 12 14  1  0
 13 14  2  0
M  END
>  <PUBCHEM_COMPOUND_CID>  (1) 
28935

>  <PUBCHEM_CONFORMER_RMSD>  (1) 
0.6

>  <PUBCHEM_CONFORMER_DIVERSEORDER>  (1) 
1
22
28
9
17
29
27
23
4
16
10
20
13
19
14
15
24
3
18
26
8
25
2
11
21
6
12
5
7

>  <PUBCHEM_MMFF94_PARTIAL_CHARGES>  (1) 
18
1 -0.08
10 0.18
11 -0.15
12 0.18
13 -0.15
14 0.08
15 0.28
16 0.28
17 0.15
18 0.15
2 -0.18
3 -0.18
4 -0.68
5 1.49
6 -0.35
7 -0.55
8 -0.55
9 0.08

>  <PUBCHEM_EFFECTIVE_ROTOR_COUNT>  (1) 
4

>  <PUBCHEM_PHARMACOPHORE_FEATURES>  (1) 
2
1 1 hydrophobe
6 9 10 11 12 13 14 rings

>  <PUBCHEM_HEAVY_ATOM_COUNT>  (1) 
16

>  <PUBCHEM_ATOM_DEF_STEREO_COUNT>  (1) 
0

>  <PUBCHEM_ATOM_UDEF_STEREO_COUNT>  (1) 
0

>  <PUBCHEM_BOND_DEF_STEREO_COUNT>  (1) 
0

>  <PUBCHEM_BOND_UDEF_STEREO_COUNT>  (1) 
0

>  <PUBCHEM_ISOTOPIC_ATOM_COUNT>  (1) 
0

>  <PUBCHEM_COMPONENT_COUNT>  (1) 
1

>  <PUBCHEM_CACTVS_TAUTO_COUNT>  (1) 
1

>  <PUBCHEM_CONFORMER_ID>  (1) 
0000710700000001

>  <PUBCHEM_MMFF94_ENERGY>  (1) 
33.2586

>  <PUBCHEM_FEATURE_SELFOVERLAP>  (1) 
10.148

>  <PUBCHEM_SHAPE_FINGERPRINT>  (1) 
10608611 8 18412822516711626960
12173636 292 18409164433194336821
12403259 226 18338511937391089093
12403260 363 18341041930894763353
12500047 106 18337109081039731310
12553582 1 17326067637479374250
13140716 1 18410017658591917387
14115302 16 18334303075620382662
14178342 30 17973437995196999978
15196674 1 18411416250367122035
16945 1 18119819250746118351
17802600 8 18410570652410037617
17804303 29 18337394833798561510
18186145 218 18201446865185563217
19591789 44 18411699868516793187
20510252 161 18341612655018754057
20645476 183 17896898727186968479
20645477 56 18335979869444117025
20645477 70 18060422434201836526
21524375 3 18262521386250345827
23402539 116 18342166757407948447
23419403 2 16460755323618846269
23557571 272 17982460587255658284
23559900 14 18342172306426488800
2748010 2 18123188167786059603
3286 77 18411416172509390132
350125 39 18336550421558301889
4990 188 17775006778364207927
5104073 3 18410292549235836907
58051976 100 18343302582441276439
58051976 378 18268987592932487511
633830 44 18131074818695058789
69090 78 18342733031397167567
7364860 26 18341894117252688450
74978 22 18412267242075526250
81228 2 18046911751526701419
9709674 26 18341613767310119606
9981440 41 17538294225680568264

>  <PUBCHEM_SHAPE_MULTIPOLES>  (1) 
335.04
7.94
2.99
1.05
2.6
0.47
-0.61
-1.4
-0.49
-0.64
0.52
-0.86
-0.37
0.35

>  <PUBCHEM_SHAPE_SELFOVERLAP>  (1) 
616.194

>  <PUBCHEM_SHAPE_VOLUME>  (1) 
218.3

>  <PUBCHEM_COORDINATE_TYPE>  (1) 
2
5
10

$$$$
