28932
     RDKit          3D

 26 29  0  0  1  0  0  0  0  0999 V2000
   -0.5033    1.1694    0.1347 O   0  0  0  0  0  0  0  0  0  0  0  0
   -0.5713    1.5113   -2.1537 O   0  0  0  0  0  0  0  0  0  0  0  0
   -2.4000    0.2523   -2.6430 O   0  0  0  0  0  0  0  0  0  0  0  0
    3.7429    1.1159    0.0348 N   0  0  0  0  0  0  0  0  0  0  0  0
    3.7689   -0.3385   -0.1749 C   0  0  0  0  0  0  0  0  0  0  0  0
    4.5453    1.4984    1.2052 C   0  0  0  0  0  0  0  0  0  0  0  0
    2.3661    1.5871    0.1825 C   0  0  0  0  0  0  0  0  0  0  0  0
    5.1989   -0.8410   -0.3805 C   0  0  0  0  0  0  0  0  0  0  0  0
    6.0005    1.0558    1.0449 C   0  0  0  0  0  0  0  0  0  0  0  0
    6.0991   -0.4430    0.7836 C   0  0  0  0  0  0  0  0  0  0  0  0
    1.5671    1.2941   -1.0849 C   0  0  0  0  0  0  0  0  0  0  0  0
    0.1380    1.7934   -0.9653 C   0  0  0  0  0  0  0  0  0  0  0  0
   -1.4822    0.2457   -0.3731 C   0  0  0  0  0  0  0  0  0  0  0  0
   -1.5671    0.6433   -1.8369 C   0  0  0  0  0  0  0  0  0  0  0  0
   -0.9223   -1.1542   -0.1180 C   0  0  0  0  0  0  0  0  0  0  0  0
   -2.8365    0.4717    0.3039 C   0  0  0  0  0  0  0  0  0  0  0  0
   -0.6650   -1.5805    1.1876 C   0  0  0  0  0  0  0  0  0  0  0  0
   -3.9274   -0.3377   -0.0223 C   0  0  0  0  0  0  0  0  0  0  0  0
   -0.6656   -2.0141   -1.1893 C   0  0  0  0  0  0  0  0  0  0  0  0
   -2.9867    1.4877    1.2506 C   0  0  0  0  0  0  0  0  0  0  0  0
   -0.1544   -2.8575    1.4204 C   0  0  0  0  0  0  0  0  0  0  0  0
   -5.1614   -0.1320    0.5945 C   0  0  0  0  0  0  0  0  0  0  0  0
   -0.1552   -3.2911   -0.9563 C   0  0  0  0  0  0  0  0  0  0  0  0
   -4.2208    1.6932    1.8675 C   0  0  0  0  0  0  0  0  0  0  0  0
    0.1004   -3.7128    0.3486 C   0  0  0  0  0  0  0  0  0  0  0  0
   -5.3081    0.8833    1.5394 C   0  0  0  0  0  0  0  0  0  0  0  0
  1 12  1  0
  1 13  1  0
  2 12  1  0
  2 14  1  0
  3 14  2  0
  4  5  1  0
  4  6  1  0
  4  7  1  0
  5  8  1  0
  6  9  1  0
  7 11  1  0
  8 10  1  0
  9 10  1  0
 11 12  1  0
 13 14  1  0
 13 15  1  0
 13 16  1  0
 15 17  2  0
 15 19  1  0
 16 18  2  0
 16 20  1  0
 17 21  1  0
 18 22  1  0
 19 23  2  0
 20 24  2  0
 21 25  2  0
 22 26  2  0
 23 25  1  0
 24 26  1  0
M  END
>  <PUBCHEM_COMPOUND_CID>  (1) 
28932

>  <PUBCHEM_CONFORMER_RMSD>  (1) 
0.8

>  <PUBCHEM_CONFORMER_DIVERSEORDER>  (1) 
1
32
26
21
59
13
48
63
37
7
51
54
33
11
28
46
17
27
14
34
45
56
61
49
23
62
43
52
57
15
40
5
12
20
55
39
29
18
47
30
35
50
38
2
58
31
19
4
3
25
44
60
24
16
8
42
10
22
53
41
6
9
36

>  <PUBCHEM_MMFF94_PARTIAL_CHARGES>  (1) 
32
1 -0.56
12 0.56
13 0.63
14 0.66
15 -0.14
16 -0.14
17 -0.15
18 -0.15
19 -0.15
2 -0.43
20 -0.15
21 -0.15
22 -0.15
23 -0.15
24 -0.15
25 -0.15
26 -0.15
3 -0.57
4 -0.81
42 0.15
43 0.15
44 0.15
45 0.15
46 0.15
47 0.15
48 0.15
49 0.15
5 0.27
50 0.15
51 0.15
6 0.27
7 0.27

>  <PUBCHEM_EFFECTIVE_ROTOR_COUNT>  (1) 
7

>  <PUBCHEM_PHARMACOPHORE_FEATURES>  (1) 
7
1 1 acceptor
1 3 acceptor
1 4 cation
5 1 2 12 13 14 rings
6 15 17 19 21 23 25 rings
6 16 18 20 22 24 26 rings
6 4 5 6 8 9 10 rings

>  <PUBCHEM_HEAVY_ATOM_COUNT>  (1) 
26

>  <PUBCHEM_ATOM_DEF_STEREO_COUNT>  (1) 
0

>  <PUBCHEM_ATOM_UDEF_STEREO_COUNT>  (1) 
1

>  <PUBCHEM_BOND_DEF_STEREO_COUNT>  (1) 
0

>  <PUBCHEM_BOND_UDEF_STEREO_COUNT>  (1) 
0

>  <PUBCHEM_ISOTOPIC_ATOM_COUNT>  (1) 
0

>  <PUBCHEM_COMPONENT_COUNT>  (1) 
1

>  <PUBCHEM_CACTVS_TAUTO_COUNT>  (1) 
1

>  <PUBCHEM_CONFORMER_ID>  (1) 
0000710400000001

>  <PUBCHEM_MMFF94_ENERGY>  (1) 
51.6896

>  <PUBCHEM_FEATURE_SELFOVERLAP>  (1) 
35.523

>  <PUBCHEM_SHAPE_FINGERPRINT>  (1) 
10692045 39 17774172201662515518
11036077 3 18412550881483768946
11115154 58 17409341302999834391
11370993 144 18272930557804994096
11552529 35 17910947265086219140
11578080 2 17535192151206806781
12035758 1 18187094961346123139
12422481 6 18114189609525567731
12467345 10 17489032539442230647
12633257 1 18337665408512434112
12788726 201 17691140643844703615
13402501 40 18337959996135348782
13551218 46 18260544490245290458
13692114 37 18339941402056876355
14466204 15 18341901736135275833
14617045 38 18335145272301316210
14840074 17 18040436603144077328
14910302 57 12540954297599415296
15238133 3 17988654003728853512
15420108 30 18342174406860961183
15537594 2 17894906335525003650
15840311 113 17701836401270963769
16110190 28 18187650262622198796
16994733 274 15769511841435229787
19141452 34 18337670923033904514
20197701 30 18413672409256231771
20715895 44 14620804760106678313
21033648 29 18263058008049630500
21304304 249 17386582374461057811
21403212 168 18339641144681121809
22182313 1 17896314714465702606
22956985 138 17534064068797760322
23419403 2 17680711411293745031
23559900 14 17773344342242241276
23728640 28 18268148841169350554
3411729 13 18198352745292199913
3493558 16 15118472125652132690
3633792 109 18338779213601656149
38695281 34 18201159854296922271
4340502 62 18272384057270283435
465052 167 16951146061261517577
469060 322 16878775131931959818
5104073 3 18266443495209888008
58807428 26 18410017615104011555
59755656 520 18343017800729812754

>  <PUBCHEM_SHAPE_MULTIPOLES>  (1) 
512.48
11.44
3.12
1.85
11.61
3.46
0.67
-5.26
-6.08
0.05
-0.38
-1.3
-0.41
-0.37

>  <PUBCHEM_SHAPE_SELFOVERLAP>  (1) 
1104.07

>  <PUBCHEM_SHAPE_VOLUME>  (1) 
280.6

>  <PUBCHEM_COORDINATE_TYPE>  (1) 
2
5
10

$$$$
