2893
     RDKit          3D

 20 21  0  0  1  0  0  0  0  0999 V2000
   -0.0135    1.2951    1.0104 O   0  0  0  0  0  0  0  0  0  0  0  0
    0.5172    2.6889   -0.7488 O   0  0  0  0  0  0  0  0  0  0  0  0
    3.1519    2.2751   -0.3763 O   0  0  0  0  0  0  0  0  0  0  0  0
   -2.4632   -0.4527   -1.3111 C   0  0  0  0  0  0  0  0  0  0  0  0
   -3.3049   -1.0882   -0.1791 C   0  0  0  0  0  0  0  0  0  0  0  0
   -3.4787   -0.1755    1.0464 C   0  0  0  0  0  0  0  0  0  0  0  0
   -1.1252    0.0653   -0.7420 C   0  0  0  0  0  0  0  0  0  0  0  0
   -1.2952    0.9770    0.4745 C   0  0  0  0  0  0  0  0  0  0  0  0
   -2.1191    0.3010    1.5672 C   0  0  0  0  0  0  0  0  0  0  0  0
   -2.1707   -1.5251   -2.3778 C   0  0  0  0  0  0  0  0  0  0  0  0
   -3.2415    0.6900   -1.9914 C   0  0  0  0  0  0  0  0  0  0  0  0
   -4.2499   -0.9010    2.1491 C   0  0  0  0  0  0  0  0  0  0  0  0
    0.8454    1.9350    0.1587 C   0  0  0  0  0  0  0  0  0  0  0  0
    2.2773    1.5524    0.4782 C   0  0  0  0  0  0  0  0  0  0  0  0
    2.5388    0.0768    0.3017 C   0  0  0  0  0  0  0  0  0  0  0  0
    2.3486   -0.7805    1.3742 C   0  0  0  0  0  0  0  0  0  0  0  0
    2.9651   -0.3955   -0.9298 C   0  0  0  0  0  0  0  0  0  0  0  0
    2.5906   -2.1445    1.2110 C   0  0  0  0  0  0  0  0  0  0  0  0
    3.2072   -1.7596   -1.0929 C   0  0  0  0  0  0  0  0  0  0  0  0
    3.0198   -2.6340   -0.0225 C   0  0  0  0  0  0  0  0  0  0  0  0
  1  8  1  0
  1 13  1  0
  2 13  2  0
  3 14  1  0
  4  5  1  0
  4  7  1  0
  4 10  1  0
  4 11  1  0
  5  6  1  0
  6  9  1  0
  6 12  1  0
  7  8  1  0
  8  9  1  0
 13 14  1  0
 14 15  1  0
 15 16  2  0
 15 17  1  0
 16 18  1  0
 17 19  2  0
 18 20  2  0
 19 20  1  0
M  END
>  <PUBCHEM_COMPOUND_CID>  (1) 
2893

>  <PUBCHEM_CONFORMER_RMSD>  (1) 
0.8

>  <PUBCHEM_CONFORMER_DIVERSEORDER>  (1) 
2
78
153
117
11
3
74
111
146
23
226
24
54
86
184
47
151
130
175
164
225
197
89
16
223
103
142
185
87
224
129
212
5
70
206
33
159
60
168
83
216
177
19
217
106
34
90
84
182
128
113
94
80
91
150
36
132
97
109
108
57
8
35
99
93
17
222
9
207
196
48
135
66
176
143
187
215
124
14
186
158
189
126
107
202
214
157
192
203
137
20
144
71
31
123
199
69
183
139
62
41
195
115
198
105
18
53
45
131
68
15
174
81
173
25
179
209
79
180
213
219
64
188
148
194
200
40
32
102
55
147
77
92
104
42
166
145
98
149
10
95
152
156
96
220
120
29
112
181
13
110
154
72
161
7
38
56
27
127
76
221
138
46
193
155
163
228
28
6
190
12
22
171
227
73
65
178
4
208
37
170
39
82
121
119
211
118
136
43
51
191
26
58
134
167
101
21
204
169
165
50
63
218
205
116
85
52
59
140
67
162
1
210
141
100
88
125
160
49
30
61
122
172
44
133
114
201
75

>  <PUBCHEM_MMFF94_PARTIAL_CHARGES>  (1) 
18
1 -0.43
13 0.66
14 0.48
15 -0.14
16 -0.15
17 -0.15
18 -0.15
19 -0.15
2 -0.57
20 -0.15
3 -0.68
39 0.4
40 0.15
41 0.15
42 0.15
43 0.15
44 0.15
8 0.28

>  <PUBCHEM_EFFECTIVE_ROTOR_COUNT>  (1) 
5.2

>  <PUBCHEM_PHARMACOPHORE_FEATURES>  (1) 
6
1 2 acceptor
1 3 acceptor
1 3 donor
3 4 10 11 hydrophobe
6 15 16 17 18 19 20 rings
6 4 5 6 7 8 9 rings

>  <PUBCHEM_HEAVY_ATOM_COUNT>  (1) 
20

>  <PUBCHEM_ATOM_DEF_STEREO_COUNT>  (1) 
0

>  <PUBCHEM_ATOM_UDEF_STEREO_COUNT>  (1) 
3

>  <PUBCHEM_BOND_DEF_STEREO_COUNT>  (1) 
0

>  <PUBCHEM_BOND_UDEF_STEREO_COUNT>  (1) 
0

>  <PUBCHEM_ISOTOPIC_ATOM_COUNT>  (1) 
0

>  <PUBCHEM_COMPONENT_COUNT>  (1) 
1

>  <PUBCHEM_CACTVS_TAUTO_COUNT>  (1) 
1

>  <PUBCHEM_CONFORMER_ID>  (1) 
00000B4D00000002

>  <PUBCHEM_MMFF94_ENERGY>  (1) 
47.4968

>  <PUBCHEM_FEATURE_SELFOVERLAP>  (1) 
30.453

>  <PUBCHEM_SHAPE_FINGERPRINT>  (1) 
12363563 72 18263913350675274666
12553582 1 18270402685587850734
12596599 1 17988633095200172783
12633257 1 15913044244924164146
12707595 3 18334292037586047842
12824470 246 17629463449243463983
13296908 3 18334008384976398505
13533116 47 18272373131116497891
13583140 156 18127702732591693881
14178342 30 17771614926104038656
14787075 74 16046713312274149920
15375462 189 18130795580789628640
15635459 17 18186799214055970067
15664445 248 15720253840627296463
18522851 12 17988648531301435142
20291156 8 18342463590829052146
20361792 2 18338794520490064848
20442098 301 17917992758880973338
20645477 70 18338223938353385109
212916 134 15482126968398016859
21713013 43 17458640959834687555
21731516 1 18268709420474494810
2255824 54 18125439967104522384
22802520 49 17749657528747998405
23557571 272 16370721560512293772
23559900 14 16081356428231311866
23598291 2 18202008732754348357
238 59 17828454166906954127
3323516 105 18040726882513757387
5161694 15 17750218241033592399
6049 1 17749389269480317077
7097593 13 17704075118065606817
81228 2 17903901280558132056

>  <PUBCHEM_SHAPE_MULTIPOLES>  (1) 
393.98
7.39
2.56
2.03
1.77
0.45
0.2
-3.11
-0.86
-2.58
0.31
2.17
-0.7
-0.21

>  <PUBCHEM_SHAPE_SELFOVERLAP>  (1) 
816.521

>  <PUBCHEM_SHAPE_VOLUME>  (1) 
223.8

>  <PUBCHEM_COORDINATE_TYPE>  (1) 
2
5
10

$$$$
