28934
     RDKit          3D

 16 16  0  0  1  0  0  0  0  0999 V2000
   -1.4982    1.1913    1.1161 O   0  0  0  0  0  0  0  0  0  0  0  0
   -2.6795    1.4987   -0.8312 O   0  0  0  0  0  0  0  0  0  0  0  0
    2.7519    1.7870   -1.0272 O   0  0  0  0  0  0  0  0  0  0  0  0
    4.1700    0.1087    0.6747 O   0  0  0  0  0  0  0  0  0  0  0  0
   -3.4663   -1.1157   -0.7286 N   0  0  0  0  0  0  0  0  0  0  0  0
   -2.1987   -0.7686   -0.0601 C   0  0  0  0  0  0  0  0  0  0  0  0
   -1.0494   -1.2741   -0.9650 C   0  0  0  0  0  0  0  0  0  0  0  0
    0.3488   -0.9008   -0.5272 C   0  0  0  0  0  0  0  0  0  0  0  0
   -2.2145   -1.4371    1.3219 C   0  0  0  0  0  0  0  0  0  0  0  0
   -2.1846    0.7631    0.0162 C   0  0  0  0  0  0  0  0  0  0  0  0
    0.9075    0.2813   -0.9832 C   0  0  0  0  0  0  0  0  0  0  0  0
    1.0419   -1.7486    0.3203 C   0  0  0  0  0  0  0  0  0  0  0  0
    2.1973    0.6259   -0.5797 C   0  0  0  0  0  0  0  0  0  0  0  0
    2.3319   -1.4040    0.7237 C   0  0  0  0  0  0  0  0  0  0  0  0
    2.9096   -0.2168    0.2737 C   0  0  0  0  0  0  0  0  0  0  0  0
   -1.3678    2.6097    1.2556 C   0  0  0  0  0  0  0  0  0  0  0  0
  1 10  1  0
  1 16  1  0
  2 10  2  0
  3 13  1  0
  4 15  1  0
  5  6  1  0
  6  7  1  0
  6  9  1  0
  6 10  1  0
  7  8  1  0
  8 11  2  0
  8 12  1  0
 11 13  1  0
 12 14  2  0
 13 15  2  0
 14 15  1  0
M  END
>  <PUBCHEM_COMPOUND_CID>  (1) 
28934

>  <PUBCHEM_CONFORMER_RMSD>  (1) 
0.6

>  <PUBCHEM_CONFORMER_DIVERSEORDER>  (1) 
1
23
12
22
5
7
15
21
11
24
14
2
9
20
25
8
18
16
10
26
19
13
3
17
4
6

>  <PUBCHEM_MMFF94_PARTIAL_CHARGES>  (1) 
22
1 -0.43
10 0.66
11 -0.15
12 -0.15
13 0.08
14 -0.15
15 0.08
16 0.28
2 -0.57
22 0.36
23 0.36
24 0.15
25 0.15
26 0.15
3 -0.53
30 0.45
31 0.45
4 -0.53
5 -0.99
6 0.33
7 0.14
8 -0.14

>  <PUBCHEM_EFFECTIVE_ROTOR_COUNT>  (1) 
4

>  <PUBCHEM_PHARMACOPHORE_FEATURES>  (1) 
6
1 2 acceptor
1 3 donor
1 4 donor
1 5 cation
1 5 donor
6 8 11 12 13 14 15 rings

>  <PUBCHEM_HEAVY_ATOM_COUNT>  (1) 
16

>  <PUBCHEM_ATOM_DEF_STEREO_COUNT>  (1) 
1

>  <PUBCHEM_ATOM_UDEF_STEREO_COUNT>  (1) 
0

>  <PUBCHEM_BOND_DEF_STEREO_COUNT>  (1) 
0

>  <PUBCHEM_BOND_UDEF_STEREO_COUNT>  (1) 
0

>  <PUBCHEM_ISOTOPIC_ATOM_COUNT>  (1) 
0

>  <PUBCHEM_COMPONENT_COUNT>  (1) 
1

>  <PUBCHEM_CACTVS_TAUTO_COUNT>  (1) 
18

>  <PUBCHEM_CONFORMER_ID>  (1) 
0000710600000001

>  <PUBCHEM_MMFF94_ENERGY>  (1) 
36.547

>  <PUBCHEM_FEATURE_SELFOVERLAP>  (1) 
30.45

>  <PUBCHEM_SHAPE_FINGERPRINT>  (1) 
11471102 22 17240483594051013430
12162725 195 18333730225656496118
12251169 10 18040715848690012934
12491281 212 18268998587595246994
13693222 7 18340498750464893344
13764800 53 18058746705756760193
14787075 74 17326915356569449887
15375462 478 18411694413354673222
15775835 57 18131351886323017954
16945 1 18201449128628066494
18981168 100 17343810121624170241
192875 21 18261380187300677908
19868273 325 18131068277027044799
200 152 18337378439903488455
20510252 161 18201999923707917643
20525323 117 18342747307936894875
21524375 3 17765726719658161265
22802520 49 16700637609459858460
23402539 116 17703777159073011983
23557571 272 17704069616143947975
63268167 104 18188206494618839766

>  <PUBCHEM_SHAPE_MULTIPOLES>  (1) 
300.81
5.51
2.22
1.23
2.2
1
0.12
0.32
0.28
-0.86
0.5
-0.27
0.15
-0.7

>  <PUBCHEM_SHAPE_SELFOVERLAP>  (1) 
622.806

>  <PUBCHEM_SHAPE_VOLUME>  (1) 
172.6

>  <PUBCHEM_COORDINATE_TYPE>  (1) 
2
5
10

$$$$
