28941
     RDKit          3D

 17 17  0  0  1  0  0  0  0  0999 V2000
    2.2065    1.4699    1.4359 O   0  0  0  0  0  0  0  0  0  0  0  0
   -1.1286   -0.2403    1.1011 O   0  0  0  0  0  0  0  0  0  0  0  0
   -2.4713   -0.4945   -0.7801 O   0  0  0  0  0  0  0  0  0  0  0  0
   -3.1946    0.7525    1.0377 N   0  0  0  0  0  0  0  0  0  0  0  0
    0.8411    1.0513   -0.5163 C   0  0  0  0  0  0  0  0  0  0  0  0
    0.8027   -0.4535   -0.3021 C   0  0  0  0  0  0  0  0  0  0  0  0
    2.1309    1.6858    0.0302 C   0  0  0  0  0  0  0  0  0  0  0  0
   -0.1806   -1.0078    0.4940 C   0  0  0  0  0  0  0  0  0  0  0  0
    1.7664   -1.2274   -0.9196 C   0  0  0  0  0  0  0  0  0  0  0  0
    0.6655    1.3945   -1.9794 C   0  0  0  0  0  0  0  0  0  0  0  0
   -0.2013   -2.3901    0.6799 C   0  0  0  0  0  0  0  0  0  0  0  0
    1.7457   -2.6097   -0.7334 C   0  0  0  0  0  0  0  0  0  0  0  0
    0.7620   -3.1910    0.0663 C   0  0  0  0  0  0  0  0  0  0  0  0
   -0.3499    2.1213   -2.4609 C   0  0  0  0  0  0  0  0  0  0  0  0
    3.3888    2.0336    1.9846 C   0  0  0  0  0  0  0  0  0  0  0  0
   -2.2970   -0.0326    0.3437 C   0  0  0  0  0  0  0  0  0  0  0  0
   -4.4862    1.1380    0.5184 C   0  0  0  0  0  0  0  0  0  0  0  0
  1  7  1  0
  1 15  1  0
  2  8  1  0
  2 16  1  0
  3 16  2  0
  4 16  1  0
  4 17  1  0
  5  6  1  0
  5  7  1  0
  5 10  1  0
  6  8  2  0
  6  9  1  0
  8 11  1  0
  9 12  2  0
 10 14  2  0
 11 13  2  0
 12 13  1  0
M  END
>  <PUBCHEM_COMPOUND_CID>  (1) 
28941

>  <PUBCHEM_CONFORMER_RMSD>  (1) 
0.8

>  <PUBCHEM_CONFORMER_DIVERSEORDER>  (1) 
1
102
80
92
82
89
31
35
32
94
41
9
72
75
116
86
64
85
50
98
73
12
91
115
79
93
65
83
5
34
63
117
100
18
51
96
48
54
15
56
71
25
76
88
27
11
97
60
104
28
113
24
108
21
33
14
84
67
106
37
118
38
109
111
3
22
45
57
99
52
4
19
6
39
107
29
30
47
103
62
78
53
74
68
114
43
36
59
13
101
40
46
70
81
95
112
16
20
119
10
26
61
58
49
120
66
105
23
42
8
77
87
55
7
90
2
110
17
44
69

>  <PUBCHEM_MMFF94_PARTIAL_CHARGES>  (1) 
25
1 -0.56
10 -0.29
11 -0.15
12 -0.15
13 -0.15
14 -0.3
15 0.28
16 0.78
17 0.3
2 -0.23
21 0.15
22 0.15
23 0.15
24 0.15
25 0.15
26 0.15
27 0.15
3 -0.57
31 0.37
4 -0.73
5 0.28
6 -0.14
7 0.28
8 0.08
9 -0.15

>  <PUBCHEM_EFFECTIVE_ROTOR_COUNT>  (1) 
7

>  <PUBCHEM_PHARMACOPHORE_FEATURES>  (1) 
5
1 1 acceptor
1 14 hydrophobe
1 3 acceptor
1 4 donor
6 6 8 9 11 12 13 rings

>  <PUBCHEM_HEAVY_ATOM_COUNT>  (1) 
17

>  <PUBCHEM_ATOM_DEF_STEREO_COUNT>  (1) 
0

>  <PUBCHEM_ATOM_UDEF_STEREO_COUNT>  (1) 
1

>  <PUBCHEM_BOND_DEF_STEREO_COUNT>  (1) 
0

>  <PUBCHEM_BOND_UDEF_STEREO_COUNT>  (1) 
0

>  <PUBCHEM_ISOTOPIC_ATOM_COUNT>  (1) 
0

>  <PUBCHEM_COMPONENT_COUNT>  (1) 
1

>  <PUBCHEM_CACTVS_TAUTO_COUNT>  (1) 
2

>  <PUBCHEM_CONFORMER_ID>  (1) 
0000710D00000001

>  <PUBCHEM_MMFF94_ENERGY>  (1) 
44.4762

>  <PUBCHEM_FEATURE_SELFOVERLAP>  (1) 
25.372

>  <PUBCHEM_SHAPE_FINGERPRINT>  (1) 
11725454 13 16844718884664167840
13571099 52 17917432102361252744
13898156 1 16963798381974853500
14178342 30 18335142042021549771
14251745 187 17752489754626080957
14648413 74 17462324414308584647
14817 1 16373789056504607356
15210252 30 16083075974823877061
15490181 8 17972897009585089015
15852999 172 18268146646277362946
16945 1 18270686354860306806
17876694 64 17541924825395331855
17980427 26 18060127731063711012
18410436 195 17981333282852487266
20511035 2 18194143994864095294
21339142 36 17764019169521060838
22112679 90 17391905238968309876
22149856 69 18193866876218288515
23419403 2 18049142385857342876
2748010 2 18191044441388754659
298252 57 17175225521526833028
305870 269 18341891917649177881
3060560 45 18192160308784867487
68419 9 15910751853432235884
6992083 37 17826778537108936272
7364860 26 18201160936253913691
84936 182 18131075908936354929

>  <PUBCHEM_SHAPE_MULTIPOLES>  (1) 
327.26
4.78
3.33
1.87
5.58
1.86
-0.43
-2.81
2.64
-2.36
-0.33
-0.85
-1.65
1.25

>  <PUBCHEM_SHAPE_SELFOVERLAP>  (1) 
664.659

>  <PUBCHEM_SHAPE_VOLUME>  (1) 
189.1

>  <PUBCHEM_COORDINATE_TYPE>  (1) 
2
5
10

$$$$
