28946
     RDKit          3D

 22 23  0  0  0  0  0  0  0  0999 V2000
   -1.4279   -1.1312    0.7392 O   0  0  0  0  0  0  0  0  0  0  0  0
   -0.1989   -1.4103   -1.1932 O   0  0  0  0  0  0  0  0  0  0  0  0
    2.8142    2.0704   -0.1925 O   0  0  0  0  0  0  0  0  0  0  0  0
   -4.7068    0.4705    0.2200 N   0  0  0  0  0  0  0  0  0  0  0  0
    2.4635   -0.5702    0.3996 N   0  0  0  0  0  0  0  0  0  0  0  0
   -5.7348    0.9432    1.1579 C   0  0  0  0  0  0  0  0  0  0  0  0
   -5.2746   -0.4597   -0.7660 C   0  0  0  0  0  0  0  0  0  0  0  0
   -6.8718    1.6514    0.4196 C   0  0  0  0  0  0  0  0  0  0  0  0
   -6.3965    0.2025   -1.5671 C   0  0  0  0  0  0  0  0  0  0  0  0
   -7.4827    0.7532   -0.6498 C   0  0  0  0  0  0  0  0  0  0  0  0
   -3.6050   -0.1620    0.9447 C   0  0  0  0  0  0  0  0  0  0  0  0
   -2.4812   -0.5372   -0.0082 C   0  0  0  0  0  0  0  0  0  0  0  0
   -0.3323   -1.5277    0.0172 C   0  0  0  0  0  0  0  0  0  0  0  0
    0.6828   -2.1486    0.9532 C   0  0  0  0  0  0  0  0  0  0  0  0
    2.1201   -1.9715    0.4764 C   0  0  0  0  0  0  0  0  0  0  0  0
    3.7074   -0.1116    0.0484 C   0  0  0  0  0  0  0  0  0  0  0  0
    3.8129    1.3816    0.0189 C   0  0  0  0  0  0  0  0  0  0  0  0
    4.7139   -0.9481   -0.2550 C   0  0  0  0  0  0  0  0  0  0  0  0
    5.0821    2.0631    0.3718 C   0  0  0  0  0  0  0  0  0  0  0  0
    6.0396   -0.6584   -0.7343 C   0  0  0  0  0  0  0  0  0  0  0  0
    6.3300    1.6403    0.1521 C   0  0  0  0  0  0  0  0  0  0  0  0
    6.7460    0.4604   -0.5528 C   0  0  0  0  0  0  0  0  0  0  0  0
  1 12  1  0
  1 13  1  0
  2 13  2  0
  3 17  2  0
  4  6  1  0
  4  7  1  0
  4 11  1  0
  5 15  1  0
  5 16  1  0
  6  8  1  0
  7  9  1  0
  8 10  1  0
  9 10  1  0
 11 12  1  0
 13 14  1  0
 14 15  1  0
 16 17  1  0
 16 18  2  0
 17 19  1  0
 18 20  1  0
 19 21  2  0
 20 22  2  0
 21 22  1  0
M  END
>  <PUBCHEM_COMPOUND_CID>  (1) 
28946

>  <PUBCHEM_CONFORMER_RMSD>  (1) 
1

>  <PUBCHEM_CONFORMER_DIVERSEORDER>  (1) 
2
175
72
1
45
103
120
142
44
101
152
18
10
134
94
23
29
165
116
41
177
84
129
169
126
80
163
159
58
11
97
17
52
37
166
83
144
43
47
133
119
36
67
107
19
49
164
68
160
161
121
106
150
143
118
109
81
113
167
16
35
145
42
74
61
149
176
88
162
12
147
155
78
104
168
13
91
123
24
93
136
170
85
25
22
148
131
111
15
26
32
173
128
115
154
137
14
135
96
146
114
30
64
57
75
112
56
125
117
8
105
108
90
71
54
156
9
98
77
62
122
157
60
76
46
171
158
33
174
73
138
40
65
48
59
86
127
51
63
70
110
66
153
124
79
55
141
151
82
87
89
31
34
3
50
172
53
95
28
132
100
139
39
4
140
21
69
27
7
99
38
102
92
6
130
20
5

>  <PUBCHEM_MMFF94_PARTIAL_CHARGES>  (1) 
25
1 -0.43
11 0.27
12 0.28
13 0.66
14 0.06
15 0.37
16 0.11
17 0.54
18 -0.15
19 -0.14
2 -0.57
20 -0.15
21 -0.15
22 -0.15
3 -0.57
4 -0.81
41 0.4
42 0.15
43 0.15
44 0.15
45 0.15
46 0.15
5 -0.87
6 0.27
7 0.27

>  <PUBCHEM_EFFECTIVE_ROTOR_COUNT>  (1) 
9.2

>  <PUBCHEM_PHARMACOPHORE_FEATURES>  (1) 
7
1 2 acceptor
1 3 acceptor
1 4 cation
1 5 cation
1 5 donor
6 4 6 7 8 9 10 rings
7 16 17 18 19 20 21 22 rings

>  <PUBCHEM_HEAVY_ATOM_COUNT>  (1) 
22

>  <PUBCHEM_ATOM_DEF_STEREO_COUNT>  (1) 
0

>  <PUBCHEM_ATOM_UDEF_STEREO_COUNT>  (1) 
0

>  <PUBCHEM_BOND_DEF_STEREO_COUNT>  (1) 
0

>  <PUBCHEM_BOND_UDEF_STEREO_COUNT>  (1) 
0

>  <PUBCHEM_ISOTOPIC_ATOM_COUNT>  (1) 
0

>  <PUBCHEM_COMPONENT_COUNT>  (1) 
1

>  <PUBCHEM_CACTVS_TAUTO_COUNT>  (1) 
1

>  <PUBCHEM_CONFORMER_ID>  (1) 
0000711200000002

>  <PUBCHEM_MMFF94_ENERGY>  (1) 
43.6655

>  <PUBCHEM_FEATURE_SELFOVERLAP>  (1) 
35.521

>  <PUBCHEM_SHAPE_FINGERPRINT>  (1) 
10 15 15936415545624901703
10411042 1 17832704570525319250
10670039 82 16988566758454773097
12838862 33 18337376224011703856
13533116 47 17459180802974820338
13668630 136 11815891263225462333
13673619 4 11672065246370530475
13885169 127 10303821973772019843
14123256 34 10735881689680162849
14528608 73 18272927224609639995
14681490 219 18343019960829850793
14931854 50 18131079246616820312
15183329 4 17846782896771401288
15961568 22 18411140199839843045
1768 124 11025798699637226952
18335252 114 18341890775377988892
20157964 124 18272655627789009718
20281389 69 18040995120459166579
20567600 247 9151166537656167277
20567600 254 18040149626045495211
21033648 29 18041838536451798928
21150785 3 17917989486717378031
21298829 104 18411703166967988553
21585482 111 18189335659139730077
221357 26 18343584019343386880
22224240 67 17168145645938794251
23845131 108 18040154036977695042
2838139 119 18342177760824146577
335352 9 18411986854501131638
3472631 163 18343303695059072798
351380 3 8646773282973177512
4325135 7 18060699473347547445
465052 167 8286200556704845506
5385378 56 18040431062853037666
543368 44 18411980253020190473
5718773 13 11383294976256575260
58902169 19 17988918981160550644
59682541 52 16988847172685304766
999808 66 11383829398931494013

>  <PUBCHEM_SHAPE_MULTIPOLES>  (1) 
425.18
22.67
2.14
1.06
16.42
0.1
0.12
12.37
4.06
-2.08
-0.37
1.3
-0.11
-0.16

>  <PUBCHEM_SHAPE_SELFOVERLAP>  (1) 
861.744

>  <PUBCHEM_SHAPE_VOLUME>  (1) 
243.5

>  <PUBCHEM_COORDINATE_TYPE>  (1) 
2
5
10

$$$$
