2894
     RDKit          3D

 32 36  0  0  1  0  0  0  0  0999 V2000
   -4.4422    1.1576    2.1125 O   0  0  0  0  0  0  0  0  0  0  0  0
   -5.8523   -0.7709   -0.4184 O   0  0  0  0  0  0  0  0  0  0  0  0
    6.0973    1.8240    0.9911 O   0  0  0  0  0  0  0  0  0  0  0  0
    7.0537   -0.6969    0.3190 O   0  0  0  0  0  0  0  0  0  0  0  0
   -0.5851   -0.2825   -0.3704 N   0  0  0  0  0  0  0  0  0  0  0  0
   -3.3394    0.3034    0.2606 N   0  0  0  0  0  0  0  0  0  0  0  0
    1.6410    0.4124    0.0819 N   0  0  0  0  0  0  0  0  0  0  0  0
    1.1852   -1.8353   -0.6576 N   0  0  0  0  0  0  0  0  0  0  0  0
    2.9342   -3.3826   -0.9459 N   0  0  0  0  0  0  0  0  0  0  0  0
   -1.0795    1.0816   -0.6245 C   0  0  0  0  0  0  0  0  0  0  0  0
   -2.3349    1.3865    0.2413 C   0  0  0  0  0  0  0  0  0  0  0  0
   -1.2799    1.3000   -2.1377 C   0  0  0  0  0  0  0  0  0  0  0  0
   -2.9467    2.7424   -0.1677 C   0  0  0  0  0  0  0  0  0  0  0  0
   -1.9267    2.6414   -2.4559 C   0  0  0  0  0  0  0  0  0  0  0  0
   -3.2114    2.8408   -1.6659 C   0  0  0  0  0  0  0  0  0  0  0  0
   -1.5629   -1.3507   -0.1310 C   0  0  0  0  0  0  0  0  0  0  0  0
   -2.9922   -0.9269   -0.4509 C   0  0  0  0  0  0  0  0  0  0  0  0
    0.7823   -0.5780   -0.3147 C   0  0  0  0  0  0  0  0  0  0  0  0
   -4.4389    0.3907    1.1470 C   0  0  0  0  0  0  0  0  0  0  0  0
   -5.5997   -0.4570    0.8734 C   0  0  0  0  0  0  0  0  0  0  0  0
    2.9558    0.1359    0.1371 C   0  0  0  0  0  0  0  0  0  0  0  0
    2.5077   -2.0783   -0.5911 C   0  0  0  0  0  0  0  0  0  0  0  0
    3.4526   -1.1338   -0.1999 C   0  0  0  0  0  0  0  0  0  0  0  0
   -6.5218   -1.0196    1.7125 C   0  0  0  0  0  0  0  0  0  0  0  0
    3.8713    1.1078    0.5335 C   0  0  0  0  0  0  0  0  0  0  0  0
   -7.4133   -1.7362    0.8791 C   0  0  0  0  0  0  0  0  0  0  0  0
    4.8293   -1.4116   -0.1383 C   0  0  0  0  0  0  0  0  0  0  0  0
   -6.9632   -1.5538   -0.4077 C   0  0  0  0  0  0  0  0  0  0  0  0
    5.2418    0.8394    0.5974 C   0  0  0  0  0  0  0  0  0  0  0  0
    5.7216   -0.4215    0.2612 C   0  0  0  0  0  0  0  0  0  0  0  0
    6.3866    1.9379    2.3695 C   0  0  0  0  0  0  0  0  0  0  0  0
    7.8296   -0.4663   -0.8397 C   0  0  0  0  0  0  0  0  0  0  0  0
  1 19  2  0
  2 20  1  0
  2 28  1  0
  3 29  1  0
  3 31  1  0
  4 30  1  0
  4 32  1  0
  5 10  1  0
  5 16  1  0
  5 18  1  0
  6 11  1  0
  6 17  1  0
  6 19  1  0
  7 18  2  0
  7 21  1  0
  8 18  1  0
  8 22  2  0
  9 22  1  0
 10 11  1  0
 10 12  1  0
 11 13  1  0
 12 14  1  0
 13 15  1  0
 14 15  1  0
 16 17  1  0
 19 20  1  0
 20 24  2  0
 21 23  2  0
 21 25  1  0
 22 23  1  0
 23 27  1  0
 24 26  1  0
 25 29  2  0
 26 28  2  0
 27 30  2  0
 29 30  1  0
M  END
>  <PUBCHEM_COMPOUND_CID>  (1) 
2894

>  <PUBCHEM_CONFORMER_RMSD>  (1) 
0.8

>  <PUBCHEM_CONFORMER_DIVERSEORDER>  (1) 
1
6
233
353
55
249
355
54
7
244
143
252
239
154
354
52
274
92
163
61
72
100
13
111
125
204
4
291
32
57
34
284
149
48
209
267
146
152
88
310
210
135
320
349
270
107
75
140
40
131
5
300
308
18
103
102
221
207
254
158
251
219
271
123
160
99
68
181
191
121
237
332
62
261
190
28
236
334
38
142
165
35
81
269
49
342
266
64
295
27
60
234
9
288
338
306
268
264
58
89
326
153
96
335
117
327
257
119
319
188
184
215
241
86
277
283
347
176
73
263
222
39
302
336
175
312
226
46
93
159
128
218
83
3
137
169
174
66
91
216
289
17
80
250
324
157
44
21
78
299
276
33
339
243
69
74
29
104
208
105
90
63
224
205
211
106
129
343
192
14
317
147
193
87
97
325
290
15
77
47
259
212
301
228
305
94
321
297
151
136
59
23
178
116
340
24
197
185
67
242
196
318
272
186
314
95
53
65
285
76
115
120
273
194
2
127
180
84
41
230
56
195
258
286
179
43
253
296
316
281
139
177
287
227
256
8
311
16
229
126
333
331
101
71
156
145
199
170
109
344
166
341
168
36
70
162
26
25
217
255
293
303
265
282
144
130
122
113
350
134
202
148
322
187
167
304
189
352
22
323
279
238
19
172
198
138
98
313
232
201
280
247
223
345
348
82
37
30
240
246
307
11
42
235
50
31
346
213
315
51
12
132
275
294
245
278
260
329
118
133
20
108
110
183
330
220
214
337
114
150
155
164
298
225
124
182
309
45
248
173
262
328
351
200
203
171
10
231
85
206
79
292
161
141
112

>  <PUBCHEM_MMFF94_PARTIAL_CHARGES>  (1) 
34
1 -0.57
10 0.37
11 0.3
16 0.37
17 0.3
18 0.72
19 0.71
2 -0.28
20 0.05
21 0.31
22 0.41
24 -0.15
25 -0.15
26 -0.15
27 -0.15
28 -0.01
29 0.08
3 -0.36
30 0.08
31 0.28
32 0.28
4 -0.36
47 0.15
48 0.15
49 0.15
5 -0.84
50 0.15
51 0.15
52 0.4
53 0.4
6 -0.66
7 -0.62
8 -0.62
9 -0.9

>  <PUBCHEM_EFFECTIVE_ROTOR_COUNT>  (1) 
6.6

>  <PUBCHEM_PHARMACOPHORE_FEATURES>  (1) 
11
1 1 acceptor
1 2 acceptor
1 3 acceptor
1 4 acceptor
1 9 donor
4 5 7 8 18 cation
5 2 20 24 26 28 rings
6 10 11 12 13 14 15 rings
6 21 23 25 27 29 30 rings
6 5 6 10 11 16 17 rings
6 7 8 18 21 22 23 rings

>  <PUBCHEM_HEAVY_ATOM_COUNT>  (1) 
32

>  <PUBCHEM_ATOM_DEF_STEREO_COUNT>  (1) 
0

>  <PUBCHEM_ATOM_UDEF_STEREO_COUNT>  (1) 
2

>  <PUBCHEM_BOND_DEF_STEREO_COUNT>  (1) 
0

>  <PUBCHEM_BOND_UDEF_STEREO_COUNT>  (1) 
0

>  <PUBCHEM_ISOTOPIC_ATOM_COUNT>  (1) 
0

>  <PUBCHEM_COMPONENT_COUNT>  (1) 
1

>  <PUBCHEM_CACTVS_TAUTO_COUNT>  (1) 
3

>  <PUBCHEM_CONFORMER_ID>  (1) 
00000B4E00000001

>  <PUBCHEM_MMFF94_ENERGY>  (1) 
121.3924

>  <PUBCHEM_FEATURE_SELFOVERLAP>  (1) 
55.942

>  <PUBCHEM_SHAPE_FINGERPRINT>  (1) 
10 15 18334850667361694888
10369192 42 17489590060588508966
10930396 42 17824244093887275401
11135609 201 17845639474052190784
11315181 36 13334744522058316935
11497681 19 18202560696540773007
12403259 415 18412255130769080284
12596602 18 17704079473357559035
12616971 3 16917340425546754540
12664476 115 18413387653610464968
13383668 1 18113327600884275619
13540713 4 18263919930332778102
13782708 43 18189620445235181362
13914758 101 14056989508451461263
14068700 675 16298105406314826575
14068700 686 18188489064955103655
14849402 71 17559954496719407400
14856354 85 16415193512375176535
15188451 53 16153416256079287128
17686467 74 17531535372853522844
1813 80 17968107421413102111
18393751 57 18264199387091642730
19315958 150 17775016640105550103
21033648 29 18262786399008041340
21267235 1 18413394228793756526
21304303 282 15720499947134199069
2132832 1 16732995214705872053
21756936 100 16630522904218730101
21792934 111 18333731330328494829
22224240 67 18342454889083171618
24771750 20 18270696320466426782
249057 3 11312054361495166474
25019877 29 18060424637889799439
2747138 104 18261118503680798131
3383291 50 17749965465793992739
350125 39 18410575089216626292
4325135 7 18060421317995850155
5104073 3 18265049137364438666
5969126 39 18113894962506737405
59755656 520 16630521834429333671
613672 6 17749403576517624947

>  <PUBCHEM_SHAPE_MULTIPOLES>  (1) 
610.16
20.38
2.84
1.69
6.85
0.82
0.21
-5.79
7.99
-1.14
-1.16
-0.4
1.09
3.23

>  <PUBCHEM_SHAPE_SELFOVERLAP>  (1) 
1330.476

>  <PUBCHEM_SHAPE_VOLUME>  (1) 
328.5

>  <PUBCHEM_COORDINATE_TYPE>  (1) 
2
5
10

$$$$
