2895
     RDKit          3D

 21 23  0  0  0  0  0  0  0  0999 V2000
   -2.9706   -2.1775    0.5901 N   0  0  0  0  0  0  0  0  0  0  0  0
    0.1776   -0.1813   -0.6414 C   0  0  0  0  0  0  0  0  0  0  0  0
    1.5583   -0.6630   -0.4118 C   0  0  0  0  0  0  0  0  0  0  0  0
   -0.2189    1.2320   -0.4487 C   0  0  0  0  0  0  0  0  0  0  0  0
   -2.2013   -0.7192   -1.2235 C   0  0  0  0  0  0  0  0  0  0  0  0
   -0.7721   -1.0785   -0.9669 C   0  0  0  0  0  0  0  0  0  0  0  0
   -3.1334   -1.8627   -0.8248 C   0  0  0  0  0  0  0  0  0  0  0  0
    2.2286   -0.4014    0.7986 C   0  0  0  0  0  0  0  0  0  0  0  0
    0.0618    1.9091    0.7536 C   0  0  0  0  0  0  0  0  0  0  0  0
    1.6150    0.2973    1.9413 C   0  0  0  0  0  0  0  0  0  0  0  0
    0.6971    1.2760    1.9223 C   0  0  0  0  0  0  0  0  0  0  0  0
    2.2251   -1.3659   -1.4329 C   0  0  0  0  0  0  0  0  0  0  0  0
   -0.8575    1.9209   -1.4971 C   0  0  0  0  0  0  0  0  0  0  0  0
    3.5374   -0.8873    0.9695 C   0  0  0  0  0  0  0  0  0  0  0  0
   -0.3417    3.2496    0.8885 C   0  0  0  0  0  0  0  0  0  0  0  0
    3.5281   -1.8266   -1.2504 C   0  0  0  0  0  0  0  0  0  0  0  0
   -1.2361    3.2543   -1.3498 C   0  0  0  0  0  0  0  0  0  0  0  0
    4.1829   -1.5905   -0.0480 C   0  0  0  0  0  0  0  0  0  0  0  0
   -0.9816    3.9177   -0.1557 C   0  0  0  0  0  0  0  0  0  0  0  0
   -3.8326   -3.2976    0.9709 C   0  0  0  0  0  0  0  0  0  0  0  0
   -3.2660   -1.0055    1.4159 C   0  0  0  0  0  0  0  0  0  0  0  0
  1  7  1  0
  1 20  1  0
  1 21  1  0
  2  3  1  0
  2  4  1  0
  2  6  2  3
  3  8  2  0
  3 12  1  0
  4  9  2  0
  4 13  1  0
  5  6  1  0
  5  7  1  0
  8 10  1  0
  8 14  1  0
  9 11  1  0
  9 15  1  0
 10 11  2  0
 12 16  2  0
 13 17  2  0
 14 18  2  0
 15 19  2  0
 16 18  1  0
 17 19  1  0
M  END
>  <PUBCHEM_COMPOUND_CID>  (1) 
2895

>  <PUBCHEM_CONFORMER_RMSD>  (1) 
0.6

>  <PUBCHEM_CONFORMER_DIVERSEORDER>  (1) 
5
10
3
4
6
9
8
12
1
2
11
7

>  <PUBCHEM_MMFF94_PARTIAL_CHARGES>  (1) 
32
1 -0.81
10 -0.18
11 -0.18
12 -0.15
13 -0.15
14 -0.15
15 -0.15
16 -0.15
17 -0.15
18 -0.15
19 -0.15
2 -0.06
20 0.27
21 0.27
24 0.15
27 0.15
28 0.15
29 0.15
3 0.03
30 0.15
31 0.15
32 0.15
33 0.15
34 0.15
35 0.15
36 0.15
4 0.03
5 0.14
6 -0.29
7 0.27
8 0.03
9 0.03

>  <PUBCHEM_EFFECTIVE_ROTOR_COUNT>  (1) 
3

>  <PUBCHEM_PHARMACOPHORE_FEATURES>  (1) 
4
1 1 cation
6 3 8 12 14 16 18 rings
6 4 9 13 15 17 19 rings
7 2 3 4 8 9 10 11 rings

>  <PUBCHEM_HEAVY_ATOM_COUNT>  (1) 
21

>  <PUBCHEM_ATOM_DEF_STEREO_COUNT>  (1) 
0

>  <PUBCHEM_ATOM_UDEF_STEREO_COUNT>  (1) 
0

>  <PUBCHEM_BOND_DEF_STEREO_COUNT>  (1) 
0

>  <PUBCHEM_BOND_UDEF_STEREO_COUNT>  (1) 
0

>  <PUBCHEM_ISOTOPIC_ATOM_COUNT>  (1) 
0

>  <PUBCHEM_COMPONENT_COUNT>  (1) 
1

>  <PUBCHEM_CACTVS_TAUTO_COUNT>  (1) 
1

>  <PUBCHEM_CONFORMER_ID>  (1) 
00000B4F00000005

>  <PUBCHEM_MMFF94_ENERGY>  (1) 
79.9558

>  <PUBCHEM_FEATURE_SELFOVERLAP>  (1) 
20.311

>  <PUBCHEM_SHAPE_FINGERPRINT>  (1) 
10764073 3 13753346066595804854
11244481 83 17681556157945860995
121448 382 17836633133116006468
12714826 92 18270967830227303878
12716301 132 18052513505297550976
12788726 201 18115600248436540419
13140716 1 18410857659404702989
13681431 1 18191585461381230405
14955137 171 17836375113308873728
16945 1 18195240018893699740
17357779 13 18129074802279552045
17980427 26 13645930553398403484
1813 80 18339935907880581159
20600515 1 17825354540549064445
20645476 183 17833263121750681980
20739085 24 18127124410428067488
21330990 113 17913509955638166057
21452121 99 18049705339921160704
22182313 1 17703208643633057738
23419403 2 17917695899199715417
23557571 272 18339910520945839076
23559900 14 17270020707591785310
2748010 2 17627185157876512736
3380486 145 17844782941050023126
35225 105 18046624508482590257
3759504 43 17835525916638524852
4409770 3 18195807371199194383
4921388 177 18122345684012353494
576247 118 18409727399937236831
59554788 281 17404839476929010642
6992083 37 17774719865627143543
81228 2 18266451023443493077
9981440 41 17268871764673430458

>  <PUBCHEM_SHAPE_MULTIPOLES>  (1) 
427.19
5.85
4.31
1.83
2.31
3.02
0.32
-7.14
0.54
-4.46
-0.02
0.05
0.16
1.64

>  <PUBCHEM_SHAPE_SELFOVERLAP>  (1) 
922.623

>  <PUBCHEM_SHAPE_VOLUME>  (1) 
232.7

>  <PUBCHEM_COORDINATE_TYPE>  (1) 
2
5
10

$$$$
