28955
     RDKit          3D

 17 18  0  0  0  0  0  0  0  0999 V2000
    2.9254   -2.3591   -0.0997 O   0  0  0  0  0  0  0  0  0  0  0  0
   -2.9696   -0.2769   -0.2950 N   0  0  0  0  0  0  0  0  0  0  0  0
    0.7032   -0.7753   -0.0599 N   0  0  0  0  0  0  0  0  0  0  0  0
   -3.1038    0.8355    0.6559 C   0  0  0  0  0  0  0  0  0  0  0  0
   -4.1090   -1.2000   -0.1970 C   0  0  0  0  0  0  0  0  0  0  0  0
   -4.3907    1.6233    0.4059 C   0  0  0  0  0  0  0  0  0  0  0  0
   -5.4287   -0.4790   -0.4747 C   0  0  0  0  0  0  0  0  0  0  0  0
   -5.6145    0.7155    0.4542 C   0  0  0  0  0  0  0  0  0  0  0  0
   -1.7123   -0.9907   -0.0734 C   0  0  0  0  0  0  0  0  0  0  0  0
   -0.5280   -0.0578   -0.2902 C   0  0  0  0  0  0  0  0  0  0  0  0
    1.9456   -0.2014   -0.1493 C   0  0  0  0  0  0  0  0  0  0  0  0
    3.0699   -1.1547    0.1134 C   0  0  0  0  0  0  0  0  0  0  0  0
    2.1091    1.0945   -0.4636 C   0  0  0  0  0  0  0  0  0  0  0  0
    4.3249   -0.6941    0.7558 C   0  0  0  0  0  0  0  0  0  0  0  0
    3.3179    1.8399   -0.6974 C   0  0  0  0  0  0  0  0  0  0  0  0
    4.9224    0.4940    0.6322 C   0  0  0  0  0  0  0  0  0  0  0  0
    4.5382    1.5861   -0.2173 C   0  0  0  0  0  0  0  0  0  0  0  0
  1 12  2  0
  2  4  1  0
  2  5  1  0
  2  9  1  0
  3 10  1  0
  3 11  1  0
  4  6  1  0
  5  7  1  0
  6  8  1  0
  7  8  1  0
  9 10  1  0
 11 12  1  0
 11 13  2  0
 12 14  1  0
 13 15  1  0
 14 16  2  0
 15 17  2  0
 16 17  1  0
M  END
>  <PUBCHEM_COMPOUND_CID>  (1) 
28955

>  <PUBCHEM_CONFORMER_RMSD>  (1) 
0.6

>  <PUBCHEM_CONFORMER_DIVERSEORDER>  (1) 
1
57
60
13
82
11
73
14
26
49
47
62
120
74
99
83
38
16
90
95
97
2
75
81
116
25
17
68
87
48
40
3
19
42
23
101
63
45
34
51
12
72
107
96
7
35
24
110
118
30
53
109
117
114
41
10
66
93
86
32
39
91
9
36
31
76
119
33
102
61
64
113
77
69
56
65
105
44
70
18
94
8
88
15
43
115
6
84
59
79
111
29
37
4
100
112
46
50
108
80
89
106
58
67
52
55
104
103
22
71
21
85
92
54
78
98
5
20
27
28

>  <PUBCHEM_MMFF94_PARTIAL_CHARGES>  (1) 
20
1 -0.57
10 0.37
11 0.11
12 0.54
13 -0.15
14 -0.14
15 -0.15
16 -0.15
17 -0.15
2 -0.81
3 -0.87
32 0.4
33 0.15
34 0.15
35 0.15
36 0.15
37 0.15
4 0.27
5 0.27
9 0.27

>  <PUBCHEM_EFFECTIVE_ROTOR_COUNT>  (1) 
5.2

>  <PUBCHEM_PHARMACOPHORE_FEATURES>  (1) 
6
1 1 acceptor
1 2 cation
1 3 cation
1 3 donor
6 2 4 5 6 7 8 rings
7 11 12 13 14 15 16 17 rings

>  <PUBCHEM_HEAVY_ATOM_COUNT>  (1) 
17

>  <PUBCHEM_ATOM_DEF_STEREO_COUNT>  (1) 
0

>  <PUBCHEM_ATOM_UDEF_STEREO_COUNT>  (1) 
0

>  <PUBCHEM_BOND_DEF_STEREO_COUNT>  (1) 
0

>  <PUBCHEM_BOND_UDEF_STEREO_COUNT>  (1) 
0

>  <PUBCHEM_ISOTOPIC_ATOM_COUNT>  (1) 
0

>  <PUBCHEM_COMPONENT_COUNT>  (1) 
1

>  <PUBCHEM_CACTVS_TAUTO_COUNT>  (1) 
1

>  <PUBCHEM_CONFORMER_ID>  (1) 
0000711B00000001

>  <PUBCHEM_MMFF94_ENERGY>  (1) 
38.6382

>  <PUBCHEM_FEATURE_SELFOVERLAP>  (1) 
30.446

>  <PUBCHEM_SHAPE_FINGERPRINT>  (1) 
10354089 29 18335141998918863352
10595046 47 18412824716014210375
10688039 33 17385719179891138364
10912923 1 18342174466784651691
10937287 8 16886127733960006260
11089746 13 17775558763013220112
12107183 9 17763746490446949107
12236239 1 18272650155673302030
13167372 99 18339362959770913001
13167823 11 18412261727353725655
13675066 3 17749396944723862701
14251764 18 18333726945124427872
14251764 75 16519935317699228484
14528608 73 18341333387412464804
15188451 53 16153999070657184747
15196674 1 18411420588078680933
17834072 33 18411980286546472551
17844677 252 18339931407092036235
20157964 124 18409728431251627415
20645477 70 18410575054873134358
21065198 48 18412545392610321699
212847 35 18343301465849785248
23402539 116 18201431493898316783
23402655 69 18341332275010569430
23557571 272 14189581814531107499
23559900 14 18059296435595635606
245318 6 17245000576618105740
300161 21 18341607118684271471
3421961 26 18266456495654457634
34797466 226 16916792945390404189
351380 180 18334012787539624457
3545911 37 18411421717248651037
4214541 1 18410855452023562885
474 4 18114746035413110304
5104073 3 18334858341787439843
542803 24 18201719561248899847
67856867 119 18339357581997091561
77779 3 18411139125933981735
8272917 22 18411984637575547662
90127 26 18339093609075045499
9971528 1 18335423426719486262

>  <PUBCHEM_SHAPE_MULTIPOLES>  (1) 
334.02
13.87
1.84
0.79
8.6
0.04
0.04
-2.64
1.38
-1.13
-0.11
-0.11
-0.1
-1.02

>  <PUBCHEM_SHAPE_SELFOVERLAP>  (1) 
680.386

>  <PUBCHEM_SHAPE_VOLUME>  (1) 
190.8

>  <PUBCHEM_COORDINATE_TYPE>  (1) 
2
5
10

$$$$
