28965
     RDKit          3D

  9  8  0  0  1  0  0  0  0  0999 V2000
    2.4626   -0.3122   -1.1688 O   0  0  0  0  0  0  0  0  0  0  0  0
   -1.7191    0.5208   -0.3855 C   0  0  0  0  0  0  0  0  0  0  0  0
   -0.2476    0.2383   -0.7522 C   0  0  0  0  0  0  0  0  0  0  0  0
   -2.3495   -0.5125    0.5669 C   0  0  0  0  0  0  0  0  0  0  0  0
    0.7321    0.2631    0.4220 C   0  0  0  0  0  0  0  0  0  0  0  0
   -1.8881    1.9290    0.1942 C   0  0  0  0  0  0  0  0  0  0  0  0
   -2.3225   -1.9358    0.0285 C   0  0  0  0  0  0  0  0  0  0  0  0
    2.1514   -0.0768   -0.0024 C   0  0  0  0  0  0  0  0  0  0  0  0
    3.1807   -0.1139    1.0974 C   0  0  0  0  0  0  0  0  0  0  0  0
  1  8  2  0
  2  3  1  0
  2  4  1  0
  2  6  1  0
  3  5  1  0
  4  7  1  0
  5  8  1  0
  8  9  1  0
M  END
>  <PUBCHEM_COMPOUND_CID>  (1) 
28965

>  <PUBCHEM_CONFORMER_RMSD>  (1) 
0.6

>  <PUBCHEM_CONFORMER_DIVERSEORDER>  (1) 
1
66
40
60
76
50
73
44
55
33
48
61
65
35
75
67
64
51
54
77
63
11
59
8
62
53
17
38
46
56
74
71
16
47
30
70
72
42
21
36
68
41
37
57
24
45
3
32
52
39
58
23
9
26
31
28
69
34
5
25
43
29
13
15
49
20
22
10
4
27
19
7
2
18
6
12
14

>  <PUBCHEM_MMFF94_PARTIAL_CHARGES>  (1) 
4
1 -0.57
5 0.06
8 0.45
9 0.06

>  <PUBCHEM_EFFECTIVE_ROTOR_COUNT>  (1) 
4

>  <PUBCHEM_PHARMACOPHORE_FEATURES>  (1) 
4
1 1 acceptor
1 6 hydrophobe
1 7 hydrophobe
4 2 3 4 5 hydrophobe

>  <PUBCHEM_HEAVY_ATOM_COUNT>  (1) 
9

>  <PUBCHEM_ATOM_DEF_STEREO_COUNT>  (1) 
0

>  <PUBCHEM_ATOM_UDEF_STEREO_COUNT>  (1) 
1

>  <PUBCHEM_BOND_DEF_STEREO_COUNT>  (1) 
0

>  <PUBCHEM_BOND_UDEF_STEREO_COUNT>  (1) 
0

>  <PUBCHEM_ISOTOPIC_ATOM_COUNT>  (1) 
0

>  <PUBCHEM_COMPONENT_COUNT>  (1) 
1

>  <PUBCHEM_CACTVS_TAUTO_COUNT>  (1) 
3

>  <PUBCHEM_CONFORMER_ID>  (1) 
0000712500000001

>  <PUBCHEM_MMFF94_ENERGY>  (1) 
6.5363

>  <PUBCHEM_FEATURE_SELFOVERLAP>  (1) 
20.456

>  <PUBCHEM_SHAPE_FINGERPRINT>  (1) 
10857977 72 18272086140557324875
12716758 59 18269559329708540179
12897270 3 13118274888879355490
12932741 1 17917714561017128548
12932764 1 17458348507279959220
20645464 45 18059850632325982130
20653085 51 16270802200409223001
20715346 28 17703790306015234428
20871998 184 18343587369280662951
23552423 10 17824270516694560093
29004967 10 17775849016802551674
3248919 1 18411132511531352348
369184 2 15626221303853625645

>  <PUBCHEM_SHAPE_MULTIPOLES>  (1) 
179.35
4.86
1.55
1
2.82
0.01
-0.06
-0.97
0.84
-1.84
0.11
0.55
-0.03
0.05

>  <PUBCHEM_SHAPE_SELFOVERLAP>  (1) 
322.444

>  <PUBCHEM_SHAPE_VOLUME>  (1) 
116.4

>  <PUBCHEM_COORDINATE_TYPE>  (1) 
2
5
10

$$$$
