28962
     RDKit          3D

 21 20  0  0  0  0  0  0  0  0999 V2000
   -2.7069   -1.2863    1.1354 O   0  0  0  0  0  0  0  0  0  0  0  0
   -4.6707   -0.1861    1.6440 O   0  0  0  0  0  0  0  0  0  0  0  0
   -1.2709    1.8670   -0.8848 C   0  0  0  0  0  0  0  0  0  0  0  0
   -0.1146    2.7197   -0.3574 C   0  0  0  0  0  0  0  0  0  0  0  0
   -2.6141    2.1785   -0.2224 C   0  0  0  0  0  0  0  0  0  0  0  0
    1.1759    2.4255   -1.1265 C   0  0  0  0  0  0  0  0  0  0  0  0
   -3.8322    1.4253   -0.7702 C   0  0  0  0  0  0  0  0  0  0  0  0
    2.3709    3.2714   -0.6685 C   0  0  0  0  0  0  0  0  0  0  0  0
   -3.7636   -0.0908   -0.5943 C   0  0  0  0  0  0  0  0  0  0  0  0
    2.8203    3.0425    0.7763 C   0  0  0  0  0  0  0  0  0  0  0  0
   -3.7931   -0.5101    0.8553 C   0  0  0  0  0  0  0  0  0  0  0  0
    3.2715    1.6642    1.0087 C   0  0  0  0  0  0  0  0  0  0  0  0
    1.0334   -3.1574   -1.7262 C   0  0  0  0  0  0  0  0  0  0  0  0
    0.3143   -1.8080   -1.8041 C   0  0  0  0  0  0  0  0  0  0  0  0
    1.3979   -3.5543   -0.2944 C   0  0  0  0  0  0  0  0  0  0  0  0
    3.6197    0.5306    1.1997 C   0  0  0  0  0  0  0  0  0  0  0  0
   -0.0991   -1.4768   -3.2292 C   0  0  0  0  0  0  0  0  0  0  0  0
    4.0242   -0.8613    1.4302 C   0  0  0  0  0  0  0  0  0  0  0  0
   -2.6075   -1.7529    2.4846 C   0  0  0  0  0  0  0  0  0  0  0  0
    2.3415   -2.6111    0.3211 C   0  0  0  0  0  0  0  0  0  0  0  0
    3.1032   -1.8296    0.8226 C   0  0  0  0  0  0  0  0  0  0  0  0
  1 11  1  0
  1 19  1  0
  2 11  2  0
  3  4  1  0
  3  5  1  0
  4  6  1  0
  5  7  1  0
  6  8  1  0
  7  9  1  0
  8 10  1  0
  9 11  1  0
 10 12  1  0
 12 16  3  0
 13 14  1  0
 13 15  1  0
 14 17  1  0
 15 20  1  0
 16 18  1  0
 18 21  1  0
 20 21  3  0
M  END
>  <PUBCHEM_COMPOUND_CID>  (1) 
28962

>  <PUBCHEM_CONFORMER_RMSD>  (1) 
1.4

>  <PUBCHEM_CONFORMER_DIVERSEORDER>  (1) 
1
15
54
56
113
17
36
50
52
82
89
40
106
25
112
68
98
46
63
6
26
61
11
18
103
70
29
62
23
37
33
45
110
7
38
73
41
49
35
109
16
28
44
5
8
4
91
104
10
60
22
75
92
69
31
12
99
86
2
48
13
77
59
53
74
47
14
76
58
102
30
94
96
34
67
32
24
108
111
88
9
100
79
95
20
85
81
107
39
43
90
93
80
51
97
71
83
27
72
42
57
66
19
105
84
64
78
3
101
21
65
87
55

>  <PUBCHEM_MMFF94_PARTIAL_CHARGES>  (1) 
12
1 -0.43
10 0.2
11 0.66
12 -0.2
15 0.2
16 -0.2
18 0.4
19 0.28
2 -0.57
20 -0.2
21 -0.2
9 0.06

>  <PUBCHEM_EFFECTIVE_ROTOR_COUNT>  (1) 
11

>  <PUBCHEM_PHARMACOPHORE_FEATURES>  (1) 
3
1 17 hydrophobe
1 2 acceptor
4 13 14 15 20 hydrophobe

>  <PUBCHEM_HEAVY_ATOM_COUNT>  (1) 
21

>  <PUBCHEM_ATOM_DEF_STEREO_COUNT>  (1) 
0

>  <PUBCHEM_ATOM_UDEF_STEREO_COUNT>  (1) 
0

>  <PUBCHEM_BOND_DEF_STEREO_COUNT>  (1) 
0

>  <PUBCHEM_BOND_UDEF_STEREO_COUNT>  (1) 
0

>  <PUBCHEM_ISOTOPIC_ATOM_COUNT>  (1) 
0

>  <PUBCHEM_COMPONENT_COUNT>  (1) 
1

>  <PUBCHEM_CACTVS_TAUTO_COUNT>  (1) 
1

>  <PUBCHEM_CONFORMER_ID>  (1) 
0000712200000001

>  <PUBCHEM_MMFF94_ENERGY>  (1) 
3.0741

>  <PUBCHEM_FEATURE_SELFOVERLAP>  (1) 
15.224

>  <PUBCHEM_SHAPE_FINGERPRINT>  (1) 
117890 22 18261109655858725361
12712778 12 16388169350015461258
13402501 40 18262794056290762570
13615921 28 16817102133033967450
13642711 20 17248320792664258813
15003188 3 17550395033600762613
20397935 3 17897187739667610150
20600515 1 17684376057336674788
20765182 20 18271248205365040130
21315764 371 17129548406599162470
21860390 5 18340206284941484162
3493558 16 13102787928616881825
6438718 38 17266110156341193364

>  <PUBCHEM_SHAPE_MULTIPOLES>  (1) 
420.43
8.07
5.01
2.36
4.66
0.19
0.74
0.86
-4.96
-3.95
1.43
0.84
-1.83
1.29

>  <PUBCHEM_SHAPE_SELFOVERLAP>  (1) 
784.796

>  <PUBCHEM_SHAPE_VOLUME>  (1) 
258.6

>  <PUBCHEM_COORDINATE_TYPE>  (1) 
2
5
10

$$$$
