28977
     RDKit          3D

 28 30  0  0  0  0  0  0  0  0999 V2000
    1.9548   -0.6244    0.1018 O   0  0  0  0  0  0  0  0  0  0  0  0
    0.5130    4.1416   -0.2418 O   0  0  0  0  0  0  0  0  0  0  0  0
    0.9500   -2.6813    0.2271 O   0  0  0  0  0  0  0  0  0  0  0  0
   -2.5929   -0.3684    0.0226 N   0  0  0  0  0  0  0  0  0  0  0  0
    5.6394   -0.7853    0.1805 N   0  0  0  0  0  0  0  0  0  0  0  0
   -1.9934    0.8686   -0.0525 C   0  0  0  0  0  0  0  0  0  0  0  0
   -0.6131    0.6589   -0.0197 C   0  0  0  0  0  0  0  0  0  0  0  0
   -1.6419   -1.3501    0.1019 C   0  0  0  0  0  0  0  0  0  0  0  0
   -0.4063   -0.7455    0.0780 C   0  0  0  0  0  0  0  0  0  0  0  0
   -3.9745   -0.5920    0.0187 C   0  0  0  0  0  0  0  0  0  0  0  0
    4.3149   -0.1869    0.1044 C   0  0  0  0  0  0  0  0  0  0  0  0
    0.2441    1.7755   -0.0835 C   0  0  0  0  0  0  0  0  0  0  0  0
   -2.5616    2.1440   -0.1461 C   0  0  0  0  0  0  0  0  0  0  0  0
   -1.9906   -2.7866    0.1943 C   0  0  0  0  0  0  0  0  0  0  0  0
    0.8463   -1.4459    0.1422 C   0  0  0  0  0  0  0  0  0  0  0  0
    3.2377   -1.2581    0.1621 C   0  0  0  0  0  0  0  0  0  0  0  0
    6.6768    0.2488    0.1672 C   0  0  0  0  0  0  0  0  0  0  0  0
    5.8480   -1.7245   -0.9242 C   0  0  0  0  0  0  0  0  0  0  0  0
   -0.3101    3.0573   -0.1774 C   0  0  0  0  0  0  0  0  0  0  0  0
   -1.6916    3.2364   -0.2080 C   0  0  0  0  0  0  0  0  0  0  0  0
   -4.6298   -0.7818   -1.1886 C   0  0  0  0  0  0  0  0  0  0  0  0
   -4.6627   -0.6232    1.2220 C   0  0  0  0  0  0  0  0  0  0  0  0
    6.4821    1.2367    1.3050 C   0  0  0  0  0  0  0  0  0  0  0  0
    7.2011   -2.4071   -0.8163 C   0  0  0  0  0  0  0  0  0  0  0  0
   -6.0062   -1.0078   -1.1924 C   0  0  0  0  0  0  0  0  0  0  0  0
   -6.0392   -0.8493    1.2181 C   0  0  0  0  0  0  0  0  0  0  0  0
   -6.7109   -1.0417    0.0107 C   0  0  0  0  0  0  0  0  0  0  0  0
    1.9165    3.8922   -0.2060 C   0  0  0  0  0  0  0  0  0  0  0  0
  1 15  1  0
  1 16  1  0
  2 19  1  0
  2 28  1  0
  3 15  2  0
  4  6  1  0
  4  8  1  0
  4 10  1  0
  5 11  1  0
  5 17  1  0
  5 18  1  0
  6  7  2  0
  6 13  1  0
  7  9  1  0
  7 12  1  0
  8  9  2  0
  8 14  1  0
  9 15  1  0
 10 21  2  0
 10 22  1  0
 11 16  1  0
 12 19  2  0
 13 20  2  0
 17 23  1  0
 18 24  1  0
 19 20  1  0
 21 25  1  0
 22 26  2  0
 25 27  2  0
 26 27  1  0
M  END
>  <PUBCHEM_COMPOUND_CID>  (1) 
28977

>  <PUBCHEM_CONFORMER_RMSD>  (1) 
1

>  <PUBCHEM_CONFORMER_DIVERSEORDER>  (1) 
1
20
19
31
42
17
48
37
39
33
14
24
2
46
25
30
44
9
10
32
13
26
27
16
11
5
35
29
38
15
41
45
36
3
34
47
49
12
21
4
18
43
6
8
40
7
28
22
23

>  <PUBCHEM_MMFF94_PARTIAL_CHARGES>  (1) 
33
1 -0.43
10 -0.02
11 0.27
12 -0.15
13 -0.15
14 0.18
15 0.81
16 0.28
17 0.27
18 0.27
19 0.08
2 -0.36
20 -0.15
21 -0.15
22 -0.15
25 -0.15
26 -0.15
27 -0.15
28 0.28
3 -0.57
31 0.15
32 0.15
4 0.33
42 0.15
43 0.15
44 0.15
5 -0.81
51 0.15
52 0.15
53 0.15
6 -0.15
8 -0.33
9 -0.09

>  <PUBCHEM_EFFECTIVE_ROTOR_COUNT>  (1) 
9

>  <PUBCHEM_PHARMACOPHORE_FEATURES>  (1) 
7
1 2 acceptor
1 3 acceptor
1 4 cation
1 5 cation
5 4 6 7 8 9 rings
6 10 21 22 25 26 27 rings
6 6 7 12 13 19 20 rings

>  <PUBCHEM_HEAVY_ATOM_COUNT>  (1) 
28

>  <PUBCHEM_ATOM_DEF_STEREO_COUNT>  (1) 
0

>  <PUBCHEM_ATOM_UDEF_STEREO_COUNT>  (1) 
0

>  <PUBCHEM_BOND_DEF_STEREO_COUNT>  (1) 
0

>  <PUBCHEM_BOND_UDEF_STEREO_COUNT>  (1) 
0

>  <PUBCHEM_ISOTOPIC_ATOM_COUNT>  (1) 
0

>  <PUBCHEM_COMPONENT_COUNT>  (1) 
1

>  <PUBCHEM_CACTVS_TAUTO_COUNT>  (1) 
1

>  <PUBCHEM_CONFORMER_ID>  (1) 
0000713100000001

>  <PUBCHEM_MMFF94_ENERGY>  (1) 
91.821

>  <PUBCHEM_FEATURE_SELFOVERLAP>  (1) 
35.614

>  <PUBCHEM_SHAPE_FINGERPRINT>  (1) 
10411042 1 18410295813453237421
10670039 82 18261959523445909566
10693767 8 18056463170641059727
1100329 8 18264490753135689643
12516196 113 18409728469426590339
12553582 1 18337379500876396443
12645989 146 18343304747822361462
12788726 201 18187641349721106426
13140716 1 18192156112522431723
13782708 43 17917146101043225022
14347332 77 18195807371732470374
14840074 17 18131063852936781271
14955137 171 18336837480034721619
15131766 46 15408896354387940306
15198563 99 18263926548830707940
15849732 13 18130785685696818087
16087824 20 18193556672095434557
16994733 274 14562524072661181687
17492 89 18120088378093617962
1813 80 18200607925424423847
18336668 15 18041000639286888508
19611394 137 18115604753879087267
20642791 268 18058470745876994241
20721686 56 18263645219882416960
21049683 271 18114468954509846773
21236236 1 18340488859519103681
21267235 1 18409174298317756747
21344244 246 17978499056184062759
21641784 216 18041294161694097252
21792961 116 18041276565830477511
221357 26 18342458124079463298
22311459 1 18409448102678159571
2297311 6 18338243669755181974
23559900 14 18340198717045182331
23576562 1 18190167066334471343
24771293 8 18200871889550793984
24771750 20 17828217814745963940
25019877 29 17632859724365452726
2747138 104 18335149703752712818
283562 15 18337108948133050675
3178227 256 18334869350453660267
335352 9 18409447025163263743
3383291 50 18260831522551434706
350125 39 18410293626982951177
5104073 3 18265049129223098602
57527295 17 17896575364438659591
5969126 39 18340764849732971757
59755656 215 18335423426841623974

>  <PUBCHEM_SHAPE_MULTIPOLES>  (1) 
548.66
16.96
4
0.95
16.07
4.6
0.05
-10.9
0.09
1.95
-0.53
-0.38
-0.19
1.18

>  <PUBCHEM_SHAPE_SELFOVERLAP>  (1) 
1170.988

>  <PUBCHEM_SHAPE_VOLUME>  (1) 
309.1

>  <PUBCHEM_COORDINATE_TYPE>  (1) 
2
5
10

$$$$
