28975
     RDKit          3D

 24 25  0  0  0  0  0  0  0  0999 V2000
    3.3717    1.5539    0.3903 O   0  0  0  0  0  0  0  0  0  0  0  0
    2.9771   -3.5804    0.3541 O   0  0  0  0  0  0  0  0  0  0  0  0
    2.3866    2.9938   -1.0972 O   0  0  0  0  0  0  0  0  0  0  0  0
   -0.8279    0.2320   -0.6686 N   0  0  0  0  0  0  0  0  0  0  0  0
   -4.4583    0.3119    0.2088 N   0  0  0  0  0  0  0  0  0  0  0  0
   -2.2626    0.1826   -0.8627 C   0  0  0  0  0  0  0  0  0  0  0  0
   -0.0304   -0.8616   -0.4169 C   0  0  0  0  0  0  0  0  0  0  0  0
   -3.0214    0.3415    0.4516 C   0  0  0  0  0  0  0  0  0  0  0  0
   -0.0689    1.3707   -0.7087 C   0  0  0  0  0  0  0  0  0  0  0  0
    1.2800   -0.3948   -0.2933 C   0  0  0  0  0  0  0  0  0  0  0  0
    1.2403    1.0153   -0.4800 C   0  0  0  0  0  0  0  0  0  0  0  0
   -4.8434   -0.9330   -0.4588 C   0  0  0  0  0  0  0  0  0  0  0  0
   -5.1969    0.4637    1.4639 C   0  0  0  0  0  0  0  0  0  0  0  0
   -0.3653   -2.2144   -0.2904 C   0  0  0  0  0  0  0  0  0  0  0  0
   -0.6672    2.6995   -0.9630 C   0  0  0  0  0  0  0  0  0  0  0  0
    2.3081   -1.3218   -0.0303 C   0  0  0  0  0  0  0  0  0  0  0  0
    1.9879   -2.6781    0.0988 C   0  0  0  0  0  0  0  0  0  0  0  0
    2.3412    1.9374   -0.4441 C   0  0  0  0  0  0  0  0  0  0  0  0
    0.6711   -3.1154   -0.0297 C   0  0  0  0  0  0  0  0  0  0  0  0
   -6.3288   -0.9483   -0.7776 C   0  0  0  0  0  0  0  0  0  0  0  0
   -4.8128    1.7502    2.1748 C   0  0  0  0  0  0  0  0  0  0  0  0
    4.5025    2.4287    0.4733 C   0  0  0  0  0  0  0  0  0  0  0  0
    4.3032   -3.0703    0.4744 C   0  0  0  0  0  0  0  0  0  0  0  0
    5.5145    1.8369    1.4311 C   0  0  0  0  0  0  0  0  0  0  0  0
  1 18  1  0
  1 22  1  0
  2 17  1  0
  2 23  1  0
  3 18  2  0
  4  6  1  0
  4  7  1  0
  4  9  1  0
  5  8  1  0
  5 12  1  0
  5 13  1  0
  6  8  1  0
  7 10  2  0
  7 14  1  0
  9 11  2  0
  9 15  1  0
 10 11  1  0
 10 16  1  0
 11 18  1  0
 12 20  1  0
 13 21  1  0
 14 19  2  0
 16 17  2  0
 17 19  1  0
 22 24  1  0
M  END
>  <PUBCHEM_COMPOUND_CID>  (1) 
28975

>  <PUBCHEM_CONFORMER_RMSD>  (1) 
1

>  <PUBCHEM_CONFORMER_DIVERSEORDER>  (1) 
3
22
12
19
14
20
21
6
17
23
18
2
9
15
4
16
1
5
7
8
11
13
10

>  <PUBCHEM_MMFF94_PARTIAL_CHARGES>  (1) 
23
1 -0.43
11 -0.09
12 0.27
13 0.27
14 -0.15
15 0.18
16 -0.15
17 0.08
18 0.81
19 -0.15
2 -0.36
22 0.28
23 0.28
3 -0.57
33 0.15
37 0.15
38 0.15
4 0.05
5 -0.81
6 0.26
7 -0.15
8 0.27
9 -0.33

>  <PUBCHEM_EFFECTIVE_ROTOR_COUNT>  (1) 
9

>  <PUBCHEM_PHARMACOPHORE_FEATURES>  (1) 
6
1 2 acceptor
1 3 acceptor
1 4 cation
1 5 cation
5 4 7 9 10 11 rings
6 7 10 14 16 17 19 rings

>  <PUBCHEM_HEAVY_ATOM_COUNT>  (1) 
24

>  <PUBCHEM_ATOM_DEF_STEREO_COUNT>  (1) 
0

>  <PUBCHEM_ATOM_UDEF_STEREO_COUNT>  (1) 
0

>  <PUBCHEM_BOND_DEF_STEREO_COUNT>  (1) 
0

>  <PUBCHEM_BOND_UDEF_STEREO_COUNT>  (1) 
0

>  <PUBCHEM_ISOTOPIC_ATOM_COUNT>  (1) 
0

>  <PUBCHEM_COMPONENT_COUNT>  (1) 
1

>  <PUBCHEM_CACTVS_TAUTO_COUNT>  (1) 
1

>  <PUBCHEM_CONFORMER_ID>  (1) 
0000712F00000003

>  <PUBCHEM_MMFF94_ENERGY>  (1) 
51.2604

>  <PUBCHEM_FEATURE_SELFOVERLAP>  (1) 
30.538

>  <PUBCHEM_SHAPE_FINGERPRINT>  (1) 
10382601 240 18410016524187333208
10411042 1 18120650236993464054
10493431 412 18268144430353774000
10838868 217 17475241193518950041
1100329 8 18051408766753195397
12107183 9 17981052912537011889
12236239 1 17988643021591624237
12422481 6 18261658312656624136
12553582 1 18120949308540558583
12644460 14 18334861597515178306
13140716 1 18336825407229883458
13533116 47 18413669128639929571
13540713 4 18044079181803309356
13583140 156 16444725303032092148
14022349 108 18410571764991066682
14178342 30 18265902543276972779
14739800 52 17632287990866157793
14790565 3 18119258495622083020
15420108 30 18273212023274197223
15475509 84 17912092646353709945
15527383 91 18191320273315917609
15927050 60 18340206422860700262
1813 80 18126013654265109631
18785283 64 18334856113279771570
19377110 9 18202009854526926691
19591789 44 18337107848668856710
20511986 3 18201712939116581481
20642791 268 17915181204717546435
20645477 70 18187075153505502079
20739085 24 18263096451990160613
20771845 171 17676493886342264222
21033648 29 17385722466294869711
21054139 6 18126275583462581351
21065198 48 18273217483005350641
22182313 1 18042389266970328788
22224240 67 18269264836681076921
23419403 2 17896301533469735670
23559900 14 18191574264522912909
23569917 315 18339926046973929502
25147074 1 18059558231237820879
3421961 26 18335705979326916571
350125 39 18338238150838264124
3633792 109 18338221693050905551
42630746 31 18412260666153529190
4340502 62 18270400615107295109
465052 167 17386000719524232496
474 4 18337956808831420837
5104073 3 18340498789995098211
58807428 26 18337100285263057864
59755656 215 18335699464146229188
67856867 119 18342457011392692531

>  <PUBCHEM_SHAPE_MULTIPOLES>  (1) 
466.34
11.64
4.11
1.25
11.25
1.94
0.51
-2.28
4.7
-6.13
0.16
1.07
-0.82
-1.16

>  <PUBCHEM_SHAPE_SELFOVERLAP>  (1) 
966.4

>  <PUBCHEM_SHAPE_VOLUME>  (1) 
271.1

>  <PUBCHEM_COORDINATE_TYPE>  (1) 
2
5
10

$$$$
