28983
     RDKit          3D

 22 23  0  0  0  0  0  0  0  0999 V2000
    2.1723   -1.6268    0.7204 O   0  0  0  0  0  0  0  0  0  0  0  0
   -0.7274    2.3501    0.1669 O   0  0  0  0  0  0  0  0  0  0  0  0
   -2.9410    2.8463   -0.2234 O   0  0  0  0  0  0  0  0  0  0  0  0
   -3.2253   -1.4006   -0.2146 N   0  0  0  0  0  0  0  0  0  0  0  0
    5.1252    0.0825   -0.6665 N   0  0  0  0  0  0  0  0  0  0  0  0
   -1.8944   -1.6647    0.0183 C   0  0  0  0  0  0  0  0  0  0  0  0
   -1.2419   -0.4337    0.1143 C   0  0  0  0  0  0  0  0  0  0  0  0
   -3.4360   -0.0490   -0.2694 C   0  0  0  0  0  0  0  0  0  0  0  0
   -2.2270    0.5765   -0.0695 C   0  0  0  0  0  0  0  0  0  0  0  0
    0.1466   -0.4189    0.3537 C   0  0  0  0  0  0  0  0  0  0  0  0
   -1.2250   -2.8865    0.1501 C   0  0  0  0  0  0  0  0  0  0  0  0
    0.8293   -1.6334    0.4878 C   0  0  0  0  0  0  0  0  0  0  0  0
   -4.2525   -2.4089   -0.3778 C   0  0  0  0  0  0  0  0  0  0  0  0
   -4.7790    0.5229   -0.5090 C   0  0  0  0  0  0  0  0  0  0  0  0
    0.1520   -2.8470    0.3871 C   0  0  0  0  0  0  0  0  0  0  0  0
   -2.0382    2.0004   -0.0561 C   0  0  0  0  0  0  0  0  0  0  0  0
    2.9159   -0.5322    0.1895 C   0  0  0  0  0  0  0  0  0  0  0  0
    4.3321   -1.0006   -0.1047 C   0  0  0  0  0  0  0  0  0  0  0  0
    6.5049   -0.3632   -1.0025 C   0  0  0  0  0  0  0  0  0  0  0  0
    5.1485    1.2317    0.2424 C   0  0  0  0  0  0  0  0  0  0  0  0
   -0.4112    3.7460    0.2039 C   0  0  0  0  0  0  0  0  0  0  0  0
    1.0720    3.9091    0.4592 C   0  0  0  0  0  0  0  0  0  0  0  0
  1 12  1  0
  1 17  1  0
  2 16  1  0
  2 21  1  0
  3 16  2  0
  4  6  1  0
  4  8  1  0
  4 13  1  0
  5 18  1  0
  5 19  1  0
  5 20  1  0
  6  7  2  0
  6 11  1  0
  7  9  1  0
  7 10  1  0
  8  9  2  0
  8 14  1  0
  9 16  1  0
 10 12  2  0
 11 15  2  0
 12 15  1  0
 17 18  1  0
 21 22  1  0
M  END
>  <PUBCHEM_COMPOUND_CID>  (1) 
28983

>  <PUBCHEM_CONFORMER_RMSD>  (1) 
0.8

>  <PUBCHEM_CONFORMER_DIVERSEORDER>  (1) 
1
56
94
3
78
80
32
6
79
70
26
44
25
38
14
71
39
62
63
47
55
7
21
67
28
87
22
34
24
91
10
45
90
11
15
37
74
35
53
36
58
27
59
41
18
72
86
29
33
16
76
77
82
8
54
23
5
19
2
12
57
30
49
17
96
84
73
92
89
52
48
46
43
31
69
50
20
9
93
61
64
4
40
85
68
95
66
88
60
65
42
81
83
75
97
51
13

>  <PUBCHEM_MMFF94_PARTIAL_CHARGES>  (1) 
23
1 -0.36
10 -0.15
11 -0.15
12 0.08
13 0.26
14 0.18
15 -0.15
16 0.81
17 0.28
18 0.27
19 0.27
2 -0.43
20 0.27
21 0.28
23 0.15
24 0.15
3 -0.57
31 0.15
4 0.05
5 -0.81
6 -0.15
8 -0.33
9 -0.09

>  <PUBCHEM_EFFECTIVE_ROTOR_COUNT>  (1) 
7

>  <PUBCHEM_PHARMACOPHORE_FEATURES>  (1) 
6
1 1 acceptor
1 3 acceptor
1 4 cation
1 5 cation
5 4 6 7 8 9 rings
6 6 7 10 11 12 15 rings

>  <PUBCHEM_HEAVY_ATOM_COUNT>  (1) 
22

>  <PUBCHEM_ATOM_DEF_STEREO_COUNT>  (1) 
0

>  <PUBCHEM_ATOM_UDEF_STEREO_COUNT>  (1) 
0

>  <PUBCHEM_BOND_DEF_STEREO_COUNT>  (1) 
0

>  <PUBCHEM_BOND_UDEF_STEREO_COUNT>  (1) 
0

>  <PUBCHEM_ISOTOPIC_ATOM_COUNT>  (1) 
0

>  <PUBCHEM_COMPONENT_COUNT>  (1) 
1

>  <PUBCHEM_CACTVS_TAUTO_COUNT>  (1) 
1

>  <PUBCHEM_CONFORMER_ID>  (1) 
0000713700000001

>  <PUBCHEM_MMFF94_ENERGY>  (1) 
53.8718

>  <PUBCHEM_FEATURE_SELFOVERLAP>  (1) 
30.538

>  <PUBCHEM_SHAPE_FINGERPRINT>  (1) 
10411042 1 17904766931243664099
10498660 4 18337950069985606736
10670039 82 18335707096909678004
10693767 8 17554030431886818983
10730089 173 18409451371591045758
10871710 139 18339080372170715253
10906281 52 18268712706678422773
10967382 1 18266731399351472987
1100329 8 18411141363833697049
11680986 33 17830734623206824235
12390115 104 18199198290913435945
12788726 201 18337953381415831456
13140716 1 18338240479084760313
13402501 40 18342452695077608848
14739800 52 18264751295222106368
14790565 3 17837213671288254297
15006816 218 17762613288811275489
15183329 4 18337681807130489958
17818456 19 18120077396188906754
19591789 44 18120936372167147355
20101258 96 18119259607796975611
20510252 161 18412546474731317850
20642791 178 18114476633906441501
20642791 35 18411691106509592617
21049683 271 18259986007479967317
21141583 151 18342459223274800984
21344244 246 17548965011623800391
22122407 14 15357989949221489870
221357 26 18272370850346029372
2297311 6 18340496633378546894
23352939 185 18200318839122021593
23402539 116 18341609334639937958
23557571 272 18343591728846197454
23558518 356 17543625336529823571
23559900 14 18269549601919409864
2748010 2 18193538177479928195
474 4 17458354026582076654
532947 4 18123741225881594305
9981440 41 18260830362947214066

>  <PUBCHEM_SHAPE_MULTIPOLES>  (1) 
425.18
10.49
4.37
0.75
15.85
3.96
-0.04
-1.59
-3.44
-1.94
0.64
0.37
-0.07
0.17

>  <PUBCHEM_SHAPE_SELFOVERLAP>  (1) 
887.306

>  <PUBCHEM_SHAPE_VOLUME>  (1) 
246.3

>  <PUBCHEM_COORDINATE_TYPE>  (1) 
2
5
10

$$$$
