2898
     RDKit          3D

 27 29  0  0  0  0  0  0  0  0999 V2000
    4.9348    2.0741   -0.2137 O   0  0  0  0  0  0  0  0  0  0  0  0
   -4.9295    2.0794   -0.2147 O   0  0  0  0  0  0  0  0  0  0  0  0
    6.0109    0.0238    0.1301 O   0  0  0  0  0  0  0  0  0  0  0  0
   -6.0078    0.0297    0.1260 O   0  0  0  0  0  0  0  0  0  0  0  0
   -0.0144   -4.7002   -0.2660 C   0  0  0  0  0  0  0  0  0  0  0  0
   -1.2780   -3.8483   -0.3963 C   0  0  0  0  0  0  0  0  0  0  0  0
    1.2514   -3.8554   -0.4200 C   0  0  0  0  0  0  0  0  0  0  0  0
   -1.2721   -2.6693    0.5778 C   0  0  0  0  0  0  0  0  0  0  0  0
    1.2701   -2.6760    0.5535 C   0  0  0  0  0  0  0  0  0  0  0  0
   -0.0002   -1.8734    0.4446 C   0  0  0  0  0  0  0  0  0  0  0  0
    0.0012   -0.5508    0.2245 C   0  0  0  0  0  0  0  0  0  0  0  0
    1.3109    0.1455    0.1079 C   0  0  0  0  0  0  0  0  0  0  0  0
   -1.3075    0.1470    0.1083 C   0  0  0  0  0  0  0  0  0  0  0  0
    1.8955    0.6551    1.2475 C   0  0  0  0  0  0  0  0  0  0  0  0
   -1.8919    0.2594   -1.1353 C   0  0  0  0  0  0  0  0  0  0  0  0
    1.8957    0.2576   -1.1354 C   0  0  0  0  0  0  0  0  0  0  0  0
   -1.8921    0.6575    1.2477 C   0  0  0  0  0  0  0  0  0  0  0  0
    3.1233    1.3083    1.1387 C   0  0  0  0  0  0  0  0  0  0  0  0
   -3.1190    0.9139   -1.2446 C   0  0  0  0  0  0  0  0  0  0  0  0
    3.1233    0.9109   -1.2446 C   0  0  0  0  0  0  0  0  0  0  0  0
   -3.1190    1.3122    1.1383 C   0  0  0  0  0  0  0  0  0  0  0  0
    3.7370    1.4364   -0.1074 C   0  0  0  0  0  0  0  0  0  0  0  0
   -3.7323    1.4405   -0.1078 C   0  0  0  0  0  0  0  0  0  0  0  0
    6.0488    1.2301   -0.0730 C   0  0  0  0  0  0  0  0  0  0  0  0
   -6.0443    1.2366   -0.0739 C   0  0  0  0  0  0  0  0  0  0  0  0
    7.3145    2.0238   -0.2052 C   0  0  0  0  0  0  0  0  0  0  0  0
   -7.3092    2.0316   -0.2069 C   0  0  0  0  0  0  0  0  0  0  0  0
  1 22  1  0
  1 24  1  0
  2 23  1  0
  2 25  1  0
  3 24  2  0
  4 25  2  0
  5  6  1  0
  5  7  1  0
  6  8  1  0
  7  9  1  0
  8 10  1  0
  9 10  1  0
 10 11  2  3
 11 12  1  0
 11 13  1  0
 12 14  2  0
 12 16  1  0
 13 15  2  0
 13 17  1  0
 14 18  1  0
 15 19  1  0
 16 20  2  0
 17 21  2  0
 18 22  2  0
 19 23  2  0
 20 22  1  0
 21 23  1  0
 24 26  1  0
 25 27  1  0
M  END
>  <PUBCHEM_COMPOUND_CID>  (1) 
2898

>  <PUBCHEM_CONFORMER_RMSD>  (1) 
0.8

>  <PUBCHEM_CONFORMER_DIVERSEORDER>  (1) 
1
13
8
10
15
5
4
7
9
14
6
12
11
2
3

>  <PUBCHEM_MMFF94_PARTIAL_CHARGES>  (1) 
32
1 -0.23
10 -0.28
11 -0.06
12 0.03
13 0.03
14 -0.15
15 -0.15
16 -0.15
17 -0.15
18 -0.15
19 -0.15
2 -0.23
20 -0.15
21 -0.15
22 0.08
23 0.08
24 0.66
25 0.66
26 0.06
27 0.06
3 -0.57
38 0.15
39 0.15
4 -0.57
40 0.15
41 0.15
42 0.15
43 0.15
44 0.15
45 0.15
8 0.14
9 0.14

>  <PUBCHEM_EFFECTIVE_ROTOR_COUNT>  (1) 
7

>  <PUBCHEM_PHARMACOPHORE_FEATURES>  (1) 
5
1 3 acceptor
1 4 acceptor
6 12 14 16 18 20 22 rings
6 13 15 17 19 21 23 rings
6 5 6 7 8 9 10 rings

>  <PUBCHEM_HEAVY_ATOM_COUNT>  (1) 
27

>  <PUBCHEM_ATOM_DEF_STEREO_COUNT>  (1) 
0

>  <PUBCHEM_ATOM_UDEF_STEREO_COUNT>  (1) 
0

>  <PUBCHEM_BOND_DEF_STEREO_COUNT>  (1) 
0

>  <PUBCHEM_BOND_UDEF_STEREO_COUNT>  (1) 
0

>  <PUBCHEM_ISOTOPIC_ATOM_COUNT>  (1) 
0

>  <PUBCHEM_COMPONENT_COUNT>  (1) 
1

>  <PUBCHEM_CACTVS_TAUTO_COUNT>  (1) 
1

>  <PUBCHEM_CONFORMER_ID>  (1) 
00000B5200000001

>  <PUBCHEM_MMFF94_ENERGY>  (1) 
84.8165

>  <PUBCHEM_FEATURE_SELFOVERLAP>  (1) 
25.373

>  <PUBCHEM_SHAPE_FINGERPRINT>  (1) 
10165383 225 18409449184799012501
10190206 1 18268414914525272135
10369192 42 18333729117776909277
11796584 16 18341334483668095294
11823591 26 18335692849564517293
12107183 9 18334849499478321210
12293681 160 17917711296678655409
12516196 113 9439401324227654156
12597179 24 18272658960926263950
12643181 29 18411705384062221814
12730499 353 18338525149211248931
12788726 201 17685789307593051006
13150687 139 18341618091972675302
13631057 29 18271239539197385223
13911987 19 18410852170764221793
14955137 171 18052251795734865570
15183329 4 16200434658500856061
15230672 131 18408045109790292134
15439362 3 18339080363781065390
15664445 248 17481717355412907814
15927050 60 18413385449354025063
17913733 40 18339659862264486875
17980427 23 17313392278977005479
1813 80 17409933522627310863
20505436 4 18040147448908195570
20554085 129 18130492081637115544
20567600 254 18411698785710560097
21033648 29 18340196509812437208
21049683 118 18195501870170006656
21756936 100 18340480166141351805
22149856 69 18191890980729680817
23559900 14 17605574149721961531
23598288 3 17825962695217924610
25019877 29 18412548729768360775
3004659 81 12751517375187393412
3411729 13 18188206498745119347
350125 39 18410012164875285834
38695281 34 18410573951240495490
4058900 60 18339647728934623529
4258327 124 18043545016953074180
4340502 62 18410859841110972007
4409770 3 18195244644521281879
5171179 24 17484232321289697571
5265222 85 18120671381797035134
5385378 56 18335701585865282968
54076057 127 18271818861349770059
59755656 520 18410287038423478495
6025842 7 18267863892017440159
6327066 14 18335138717263519836
6442390 28 18411418440695240271
6669772 16 18343308037345278158
7399639 24 17968936371565718557
77188 2 17401767419565903526
8863177 126 11886801014553970333
9658208 31 18200019776433594882

>  <PUBCHEM_SHAPE_MULTIPOLES>  (1) 
532.17
14.43
4.37
1.1
0.09
7.92
-0.01
-18.03
1.3
-0.04
0.34
0
-0.23
0.01

>  <PUBCHEM_SHAPE_SELFOVERLAP>  (1) 
1141.629

>  <PUBCHEM_SHAPE_VOLUME>  (1) 
291.6

>  <PUBCHEM_COORDINATE_TYPE>  (1) 
2
5
10

$$$$
