28989
     RDKit          3D

 13 14  0  0  0  0  0  0  0  0999 V2000
   -1.3436    1.9991    0.2996 N   0  0  0  0  0  0  0  0  0  0  0  0
    4.8782   -0.8393    0.8735 N   0  0  0  0  0  0  0  0  0  0  0  0
    0.3572    0.7671   -0.4189 C   0  0  0  0  0  0  0  0  0  0  0  0
    1.7012    0.3675   -0.8834 C   0  0  0  0  0  0  0  0  0  0  0  0
   -0.7674   -0.0868   -0.2427 C   0  0  0  0  0  0  0  0  0  0  0  0
    2.6429   -0.0361    0.2678 C   0  0  0  0  0  0  0  0  0  0  0  0
   -1.8211    0.7110    0.2086 C   0  0  0  0  0  0  0  0  0  0  0  0
   -0.0284    2.0430   -0.0776 C   0  0  0  0  0  0  0  0  0  0  0  0
    4.0104   -0.4862   -0.2437 C   0  0  0  0  0  0  0  0  0  0  0  0
   -0.9907   -1.4662   -0.4243 C   0  0  0  0  0  0  0  0  0  0  0  0
   -3.0919    0.1963    0.4885 C   0  0  0  0  0  0  0  0  0  0  0  0
   -2.2569   -1.9949   -0.1484 C   0  0  0  0  0  0  0  0  0  0  0  0
   -3.2899   -1.1746    0.3009 C   0  0  0  0  0  0  0  0  0  0  0  0
  1  7  1  0
  1  8  1  0
  2  9  1  0
  3  4  1  0
  3  5  1  0
  3  8  2  0
  4  6  1  0
  5  7  2  0
  5 10  1  0
  6  9  1  0
  7 11  1  0
 10 12  2  0
 11 13  2  0
 12 13  1  0
M  END
>  <PUBCHEM_COMPOUND_CID>  (1) 
28989

>  <PUBCHEM_CONFORMER_RMSD>  (1) 
0.6

>  <PUBCHEM_CONFORMER_DIVERSEORDER>  (1) 
1
14
2
13
10
11
9
12
6
5
3
4
7
8

>  <PUBCHEM_MMFF94_PARTIAL_CHARGES>  (1) 
19
1 0.03
10 -0.15
11 -0.15
12 -0.15
13 -0.15
18 0.15
19 0.27
2 -0.99
22 0.15
23 0.15
24 0.15
25 0.15
26 0.36
27 0.36
3 -0.18
4 0.18
7 -0.15
8 -0.3
9 0.27

>  <PUBCHEM_EFFECTIVE_ROTOR_COUNT>  (1) 
3

>  <PUBCHEM_PHARMACOPHORE_FEATURES>  (1) 
6
1 1 cation
1 1 donor
1 2 cation
1 2 donor
5 1 3 5 7 8 rings
6 5 7 10 11 12 13 rings

>  <PUBCHEM_HEAVY_ATOM_COUNT>  (1) 
13

>  <PUBCHEM_ATOM_DEF_STEREO_COUNT>  (1) 
0

>  <PUBCHEM_ATOM_UDEF_STEREO_COUNT>  (1) 
0

>  <PUBCHEM_BOND_DEF_STEREO_COUNT>  (1) 
0

>  <PUBCHEM_BOND_UDEF_STEREO_COUNT>  (1) 
0

>  <PUBCHEM_ISOTOPIC_ATOM_COUNT>  (1) 
0

>  <PUBCHEM_COMPONENT_COUNT>  (1) 
1

>  <PUBCHEM_CACTVS_TAUTO_COUNT>  (1) 
1

>  <PUBCHEM_CONFORMER_ID>  (1) 
0000713D00000001

>  <PUBCHEM_MMFF94_ENERGY>  (1) 
12.1843

>  <PUBCHEM_FEATURE_SELFOVERLAP>  (1) 
30.538

>  <PUBCHEM_SHAPE_FINGERPRINT>  (1) 
10130415 120 18337680822717185463
11132069 177 18272377446719587255
11578080 2 17823114852849648828
11769659 78 18262800786340893839
12251169 10 18202282515724161240
13024252 1 15357702955074704573
13690532 89 18410574032966050567
14123260 362 11671491357456925650
15375462 189 18191601945275743224
16945 1 18270981097497150293
17804303 29 18343589542354474076
17977361 122 18260822696462102282
18186145 218 12973603352494264166
200 152 16153423931333310488
20361792 2 17313101964746667764
20510252 161 18058453105871367968
20871998 184 18201720634922256446
21501502 16 18126012804293756877
21650355 55 18412822478046371768
22959321 94 18408319986784255746
2297311 6 18201170884110100460
232386 152 18338242664442541694
23402539 116 18201431463902318893
23463225 33 18409737286936167150
23552423 10 17688600772168813061
23559900 14 18129116541283255820
2748010 2 18125728035251138637
3086196 2 18413384332888387192
43471831 8 18263364698515436082
7364860 26 17982738772245689752
90316 7 18336830801339769416

>  <PUBCHEM_SHAPE_MULTIPOLES>  (1) 
257.57
6.66
1.94
0.79
8.04
0.34
-0.01
-3.28
1.71
-1.1
0
0.28
-0.04
-0.42

>  <PUBCHEM_SHAPE_SELFOVERLAP>  (1) 
547.039

>  <PUBCHEM_SHAPE_VOLUME>  (1) 
145.2

>  <PUBCHEM_COORDINATE_TYPE>  (1) 
2
5
10

$$$$
