28991
     RDKit          3D

 14 15  0  0  0  0  0  0  0  0999 V2000
    1.9497   -1.9391   -0.3581 N   0  0  0  0  0  0  0  0  0  0  0  0
   -5.8575    0.7750   -0.2254 N   0  0  0  0  0  0  0  0  0  0  0  0
   -1.1907   -0.5923    0.9288 C   0  0  0  0  0  0  0  0  0  0  0  0
   -2.1877   -0.2403   -0.1917 C   0  0  0  0  0  0  0  0  0  0  0  0
    0.1705   -0.8686    0.4262 C   0  0  0  0  0  0  0  0  0  0  0  0
    1.2175    0.0787    0.2495 C   0  0  0  0  0  0  0  0  0  0  0  0
   -3.5795    0.0830    0.3560 C   0  0  0  0  0  0  0  0  0  0  0  0
    2.3222   -0.6188   -0.2438 C   0  0  0  0  0  0  0  0  0  0  0  0
    0.6510   -2.0999    0.0443 C   0  0  0  0  0  0  0  0  0  0  0  0
   -4.5410    0.4629   -0.7688 C   0  0  0  0  0  0  0  0  0  0  0  0
    1.3316    1.4669    0.4623 C   0  0  0  0  0  0  0  0  0  0  0  0
    3.5402    0.0052   -0.5363 C   0  0  0  0  0  0  0  0  0  0  0  0
    2.5439    2.1044    0.1743 C   0  0  0  0  0  0  0  0  0  0  0  0
    3.6299    1.3828   -0.3173 C   0  0  0  0  0  0  0  0  0  0  0  0
  1  8  1  0
  1  9  1  0
  2 10  1  0
  3  4  1  0
  3  5  1  0
  4  7  1  0
  5  6  1  0
  5  9  2  0
  6  8  2  0
  6 11  1  0
  7 10  1  0
  8 12  1  0
 11 13  2  0
 12 14  2  0
 13 14  1  0
M  END
>  <PUBCHEM_COMPOUND_CID>  (1) 
28991

>  <PUBCHEM_CONFORMER_RMSD>  (1) 
0.6

>  <PUBCHEM_CONFORMER_DIVERSEORDER>  (1) 
1
25
20
10
6
18
26
23
28
29
21
14
3
12
4
5
8
15
24
16
7
22
11
9
27
19
17
2
13

>  <PUBCHEM_MMFF94_PARTIAL_CHARGES>  (1) 
19
1 0.03
10 0.27
11 -0.15
12 -0.15
13 -0.15
14 -0.15
2 -0.99
21 0.15
22 0.27
25 0.15
26 0.15
27 0.15
28 0.15
29 0.36
3 0.18
30 0.36
5 -0.18
8 -0.15
9 -0.3

>  <PUBCHEM_EFFECTIVE_ROTOR_COUNT>  (1) 
4

>  <PUBCHEM_PHARMACOPHORE_FEATURES>  (1) 
6
1 1 cation
1 1 donor
1 2 cation
1 2 donor
5 1 5 6 8 9 rings
6 6 8 11 12 13 14 rings

>  <PUBCHEM_HEAVY_ATOM_COUNT>  (1) 
14

>  <PUBCHEM_ATOM_DEF_STEREO_COUNT>  (1) 
0

>  <PUBCHEM_ATOM_UDEF_STEREO_COUNT>  (1) 
0

>  <PUBCHEM_BOND_DEF_STEREO_COUNT>  (1) 
0

>  <PUBCHEM_BOND_UDEF_STEREO_COUNT>  (1) 
0

>  <PUBCHEM_ISOTOPIC_ATOM_COUNT>  (1) 
0

>  <PUBCHEM_COMPONENT_COUNT>  (1) 
1

>  <PUBCHEM_CACTVS_TAUTO_COUNT>  (1) 
1

>  <PUBCHEM_CONFORMER_ID>  (1) 
0000713F00000001

>  <PUBCHEM_MMFF94_ENERGY>  (1) 
11.9687

>  <PUBCHEM_FEATURE_SELFOVERLAP>  (1) 
30.538

>  <PUBCHEM_SHAPE_FINGERPRINT>  (1) 
10608611 8 18335142037452113427
10693767 8 17916309342487571686
11471102 20 18411983550616076896
12654215 9 18409733975954205640
12730499 353 18334866013179597011
14251717 144 18342176648179528079
14415576 193 18409168818086985405
14911166 2 18341625827883637942
15061688 2 17772738614693924984
16945 1 18199207203461042458
17834072 33 18343297090058585583
18186145 218 18271821154007594882
20606313 2 18411419509788448184
20645477 70 18342177722338518919
212847 35 18113335301770244476
221357 26 18340764837196625725
22289505 5 18337946780130511053
22892500 29 18411417327924144940
231179 274 18040711476365839329
23402539 116 18341324595730369972
23402655 69 18343865528357816237
23557571 272 17749685077137428179
23590187 302 17846776312966455177
23598291 2 17629777685914158099
25 1 18410293635640918274
2748010 2 17910411794286208242
276578 36 16370719335792763184
3060560 45 18272653432970953550
4047638 21 18259424125981346018
4072396 5 18337942433981920442
42 15 9295291655759377263
43658 37 18198899391138471185
474 4 18334577979524080917
8272917 22 18200599086265865839

>  <PUBCHEM_SHAPE_MULTIPOLES>  (1) 
278.15
8.73
1.93
0.8
14.15
0.2
0.03
-4.18
-2.1
-1.69
0.02
0.16
0
0.39

>  <PUBCHEM_SHAPE_SELFOVERLAP>  (1) 
585

>  <PUBCHEM_SHAPE_VOLUME>  (1) 
158.1

>  <PUBCHEM_COORDINATE_TYPE>  (1) 
2
5
10

$$$$
