2899
     RDKit          3D

  8  8  0  0  0  0  0  0  0  0999 V2000
   -2.6791   -0.1157   -0.2372 N   0  0  0  0  0  0  0  0  0  0  0  0
   -1.3119   -0.0725    0.2967 C   0  0  0  0  0  0  0  0  0  0  0  0
   -0.7260    1.3088   -0.0177 C   0  0  0  0  0  0  0  0  0  0  0  0
   -0.5203   -1.2536   -0.2829 C   0  0  0  0  0  0  0  0  0  0  0  0
    0.7285    1.5133    0.4070 C   0  0  0  0  0  0  0  0  0  0  0  0
    0.8099   -1.4825    0.4318 C   0  0  0  0  0  0  0  0  0  0  0  0
    1.7128    0.7754   -0.4940 C   0  0  0  0  0  0  0  0  0  0  0  0
    1.9861   -0.6731   -0.1038 C   0  0  0  0  0  0  0  0  0  0  0  0
  1  2  1  0
  2  3  1  0
  2  4  1  0
  3  5  1  0
  4  6  1  0
  5  7  1  0
  6  8  1  0
  7  8  1  0
M  END
>  <PUBCHEM_COMPOUND_CID>  (1) 
2899

>  <PUBCHEM_CONFORMER_RMSD>  (1) 
0.4

>  <PUBCHEM_CONFORMER_DIVERSEORDER>  (1) 
3
1
7
5
2
4
6

>  <PUBCHEM_MMFF94_PARTIAL_CHARGES>  (1) 
4
1 -0.99
2 0.27
22 0.36
23 0.36

>  <PUBCHEM_EFFECTIVE_ROTOR_COUNT>  (1) 
1.4

>  <PUBCHEM_PHARMACOPHORE_FEATURES>  (1) 
3
1 1 cation
1 1 donor
7 2 3 4 5 6 7 8 rings

>  <PUBCHEM_HEAVY_ATOM_COUNT>  (1) 
8

>  <PUBCHEM_ATOM_DEF_STEREO_COUNT>  (1) 
0

>  <PUBCHEM_ATOM_UDEF_STEREO_COUNT>  (1) 
0

>  <PUBCHEM_BOND_DEF_STEREO_COUNT>  (1) 
0

>  <PUBCHEM_BOND_UDEF_STEREO_COUNT>  (1) 
0

>  <PUBCHEM_ISOTOPIC_ATOM_COUNT>  (1) 
0

>  <PUBCHEM_COMPONENT_COUNT>  (1) 
1

>  <PUBCHEM_CACTVS_TAUTO_COUNT>  (1) 
1

>  <PUBCHEM_CONFORMER_ID>  (1) 
00000B5300000003

>  <PUBCHEM_MMFF94_ENERGY>  (1) 
5.6792

>  <PUBCHEM_FEATURE_SELFOVERLAP>  (1) 
15.223

>  <PUBCHEM_SHAPE_FINGERPRINT>  (1) 
18185500 45 18338516318225783698
20096714 4 18338519741304273006
21040471 1 18121217842337220176
23552423 10 18117848702523546982
241688 4 17832991546567918266
29004967 10 18259993681652588481
5084963 1 18271808969211840770
66348 1 18410859896839954097

>  <PUBCHEM_SHAPE_MULTIPOLES>  (1) 
159.66
2.67
1.75
0.71
0.88
0.08
-0.01
-0.14
0.3
-0.35
-0.13
-0.07
0.01
-0.11

>  <PUBCHEM_SHAPE_SELFOVERLAP>  (1) 
300.525

>  <PUBCHEM_SHAPE_VOLUME>  (1) 
96.8

>  <PUBCHEM_COORDINATE_TYPE>  (1) 
2
5
10

$$$$
