28994
     RDKit          3D

 14 13  0  0  1  0  0  0  0  0999 V2000
   -6.3400   -1.3608    0.2266 S   0  0  0  0  0  0  0  0  0  0  0  0
    6.3486   -1.3546   -0.2342 S   0  0  0  0  0  0  0  0  0  0  0  0
    0.2196    1.9357   -1.3939 O   0  0  0  0  0  0  0  0  0  0  0  0
   -0.2627    1.8660    1.4265 O   0  0  0  0  0  0  0  0  0  0  0  0
   -2.4333   -0.3578   -0.2168 N   0  0  0  0  0  0  0  0  0  0  0  0
    2.4408   -0.3513    0.1996 N   0  0  0  0  0  0  0  0  0  0  0  0
   -0.2581    0.7657   -0.7255 C   0  0  0  0  0  0  0  0  0  0  0  0
    0.2648    0.7362    0.7259 C   0  0  0  0  0  0  0  0  0  0  0  0
   -1.7893    0.7889   -0.8432 C   0  0  0  0  0  0  0  0  0  0  0  0
    1.7935    0.7710    0.8648 C   0  0  0  0  0  0  0  0  0  0  0  0
   -3.8826   -0.2682   -0.3321 C   0  0  0  0  0  0  0  0  0  0  0  0
    3.8889   -0.2740    0.3376 C   0  0  0  0  0  0  0  0  0  0  0  0
   -4.5315   -1.4588    0.3628 C   0  0  0  0  0  0  0  0  0  0  0  0
    4.5415   -1.4378   -0.3981 C   0  0  0  0  0  0  0  0  0  0  0  0
  1 13  1  0
  2 14  1  0
  3  7  1  0
  4  8  1  0
  5  9  1  0
  5 11  1  0
  6 10  1  0
  6 12  1  0
  7  8  1  0
  7  9  1  0
  8 10  1  0
 11 13  1  0
 12 14  1  0
M  END
>  <PUBCHEM_COMPOUND_CID>  (1) 
28994

>  <PUBCHEM_CONFORMER_RMSD>  (1) 
1

>  <PUBCHEM_CONFORMER_DIVERSEORDER>  (1) 
1
407
458
536
412
159
274
293
234
192
438
153
38
19
289
54
59
20
540
151
3
324
27
89
48
603
448
393
597
282
52
189
280
205
547
460
462
329
156
32
147
8
430
576
476
50
252
558
553
301
499
195
102
585
139
292
498
154
471
176
278
125
113
225
383
6
257
177
245
605
187
4
233
551
183
43
7
442
459
387
12
223
457
124
69
422
349
207
29
164
88
51
425
477
96
184
23
47
317
36
179
228
2
590
44
220
15
500
373
94
92
41
415
22
11
340
372
5

>  <PUBCHEM_MMFF94_PARTIAL_CHARGES>  (1) 
20
1 -0.41
10 0.27
11 0.27
12 0.27
13 0.23
14 0.23
2 -0.41
21 0.36
22 0.36
27 0.4
28 0.4
3 -0.68
33 0.18
34 0.18
4 -0.68
5 -0.9
6 -0.9
7 0.28
8 0.28
9 0.27

>  <PUBCHEM_EFFECTIVE_ROTOR_COUNT>  (1) 
9

>  <PUBCHEM_PHARMACOPHORE_FEATURES>  (1) 
8
1 3 acceptor
1 3 donor
1 4 acceptor
1 4 donor
1 5 cation
1 5 donor
1 6 cation
1 6 donor

>  <PUBCHEM_HEAVY_ATOM_COUNT>  (1) 
14

>  <PUBCHEM_ATOM_DEF_STEREO_COUNT>  (1) 
0

>  <PUBCHEM_ATOM_UDEF_STEREO_COUNT>  (1) 
2

>  <PUBCHEM_BOND_DEF_STEREO_COUNT>  (1) 
0

>  <PUBCHEM_BOND_UDEF_STEREO_COUNT>  (1) 
0

>  <PUBCHEM_ISOTOPIC_ATOM_COUNT>  (1) 
0

>  <PUBCHEM_COMPONENT_COUNT>  (1) 
1

>  <PUBCHEM_CACTVS_TAUTO_COUNT>  (1) 
1

>  <PUBCHEM_CONFORMER_ID>  (1) 
0000714200000001

>  <PUBCHEM_MMFF94_ENERGY>  (1) 
9.9066

>  <PUBCHEM_FEATURE_SELFOVERLAP>  (1) 
40.602

>  <PUBCHEM_SHAPE_FINGERPRINT>  (1) 
122479 349 9799394647070960594
12596602 18 15697990877185009734
12714333 28 12251899304563569375
14123255 352 9367343743058810318
14178000 29 18260548952262565429
14251764 18 15769769186699945431
14251764 30 18410853265400477679
14350574 20 18413670197875588242
14455015 7 18343301461538999950
15061688 2 9223231857722939337
15501527 24 15719391728557660790
187816 3 15936412221483653596
193927 3 18410586084079936523
19784866 240 18408611378966871507
20300324 65 17531529763947656316
20388580 30 17967818279229015941
20605781 2 9223234048446521067
20621476 21 17677907893056840475
20645477 70 17460027599528388367
20724930 31 18413105065651525634
20871999 31 17385715868665771381
212916 134 11023818449383434718
21637258 2 18410848867358929511
22765269 38 8286200530698151510
23016692 55 18113338613533038191
23402539 116 17023469638439720228
23402655 69 12901540243750099723
23590187 135 18410852145057325298
2838139 119 8430314610725381098
2916195 48 9943805590942852303
328317 168 12468360145849335202
33382 64 18411420579436226482
351380 3 18410571790429074255
42 15 18201440320240804043
465052 167 18059860596624027662
5207 217 12035736422502169371
77188 2 18343864441489303184

>  <PUBCHEM_SHAPE_MULTIPOLES>  (1) 
274.11
14.31
1.83
1.06
0.13
0.23
0.01
-13.26
-0.06
-0.03
-0.02
0.01
0.51
0.74

>  <PUBCHEM_SHAPE_SELFOVERLAP>  (1) 
480.939

>  <PUBCHEM_SHAPE_VOLUME>  (1) 
182.4

>  <PUBCHEM_COORDINATE_TYPE>  (1) 
2
5
10

$$$$
