29007
     RDKit          3D

 17 17  0  0  0  0  0  0  0  0999 V2000
    1.7961    0.8148    0.1589 O   0  0  0  0  0  0  0  0  0  0  0  0
   -2.8425   -0.0639    0.8656 O   0  0  0  0  0  0  0  0  0  0  0  0
    3.4591   -0.7634    0.7683 O   0  0  0  0  0  0  0  0  0  0  0  0
   -2.9676   -0.9277   -1.2895 O   0  0  0  0  0  0  0  0  0  0  0  0
   -4.3570   -1.7206    0.3907 N   0  0  0  0  0  0  0  0  0  0  0  0
    0.4967    1.2131    0.0880 C   0  0  0  0  0  0  0  0  0  0  0  0
   -1.8510    0.7685    0.4456 C   0  0  0  0  0  0  0  0  0  0  0  0
   -0.5194    0.3597    0.5186 C   0  0  0  0  0  0  0  0  0  0  0  0
    0.1808    2.4751   -0.4156 C   0  0  0  0  0  0  0  0  0  0  0  0
   -2.1667    2.0305   -0.0579 C   0  0  0  0  0  0  0  0  0  0  0  0
   -1.1508    2.8838   -0.4884 C   0  0  0  0  0  0  0  0  0  0  0  0
    2.0560   -0.4911    0.6850 C   0  0  0  0  0  0  0  0  0  0  0  0
   -3.3614   -0.9178   -0.1269 C   0  0  0  0  0  0  0  0  0  0  0  0
    4.0910   -0.7209   -0.5045 C   0  0  0  0  0  0  0  0  0  0  0  0
   -5.0784   -2.7004   -0.3878 C   0  0  0  0  0  0  0  0  0  0  0  0
    5.5209   -1.0039   -0.3765 C   0  0  0  0  0  0  0  0  0  0  0  0
    6.6942   -1.2359   -0.2736 C   0  0  0  0  0  0  0  0  0  0  0  0
  1  6  1  0
  1 12  1  0
  2  7  1  0
  2 13  1  0
  3 12  1  0
  3 14  1  0
  4 13  2  0
  5 13  1  0
  5 15  1  0
  6  8  2  0
  6  9  1  0
  7  8  1  0
  7 10  2  0
  9 11  2  0
 10 11  1  0
 14 16  1  0
 16 17  3  0
M  END
>  <PUBCHEM_COMPOUND_CID>  (1) 
29007

>  <PUBCHEM_CONFORMER_RMSD>  (1) 
0.8

>  <PUBCHEM_CONFORMER_DIVERSEORDER>  (1) 
1
288
15
59
368
348
70
394
163
345
138
390
287
274
324
84
117
19
367
115
64
267
395
343
201
124
132
44
297
246
363
391
316
169
240
346
139
127
311
172
14
341
51
50
276
197
183
130
173
136
48
101
300
165
244
170
389
78
307
355
259
191
273
219
384
268
131
168
134
386
387
93
41
344
310
352
280
271
156
225
103
150
291
293
317
45
171
143
304
374
96
144
66
220
371
241
262
99
121
305
91
350
263
118
71
229
186
380
47
208
89
202
194
162
313
312
164
309
222
252
221
166
128
158
230
375
60
159
236
28
198
327
83
379
396
179
153
224
264
329
49
87
282
141
95
125
119
195
369
181
360
33
365
285
187
347
233
69
299
145
372
29
331
22
203
330
190
339
336
76
157
97
12
146
68
151
16
354
160
214
234
55
98
228
108
362
46
217
289
88
189
338
133
31
255
129
63
80
3
182
9
261
211
254
74
364
176
281
306
258
188
333
296
167
11
381
126
147
109
207
334
21
148
223
178
226
322
82
337
272
104
373
8
295
342
112
72
81
2
392
326
53
105
210
353
320
58
227
266
192
155
238
239
40
308
351
177
7
303
385
256
398
283
213
36
378
107
42
292
17
137
62
357
290
152
275
235
269
122
102
251
10
43
77
154
185
94
340
27
302
377
366
242
32
86
253
388
30
111
90
54
34
314
382
260
358
216
265
399
370
301
149
361
92
243
356
56
20
140
321
110
174
250
57
232
257
231
218
106
113
37
75
135
206
237
212
200
397
199
277
325
85
359
270
184
349
25
209
123
73
13
249
315
65
247
142
67
161
52
39
393
116
5
35
294
332
319
376
248
298
114
286
318
279
38
4
180
205
100
196
335
193
175
204
328
6
245
278
24
120
23
79
383
18
26
284
215
323
61

>  <PUBCHEM_MMFF94_PARTIAL_CHARGES>  (1) 
23
1 -0.36
10 -0.15
11 -0.15
12 0.56
13 0.78
14 0.48
15 0.3
16 -0.2
17 -0.18
18 0.15
19 0.15
2 -0.23
20 0.15
21 0.15
24 0.37
3 -0.56
30 0.18
4 -0.57
5 -0.73
6 0.08
7 0.08
8 -0.15
9 -0.15

>  <PUBCHEM_EFFECTIVE_ROTOR_COUNT>  (1) 
7

>  <PUBCHEM_PHARMACOPHORE_FEATURES>  (1) 
6
1 1 acceptor
1 17 hydrophobe
1 3 acceptor
1 4 acceptor
1 5 donor
6 6 7 8 9 10 11 rings

>  <PUBCHEM_HEAVY_ATOM_COUNT>  (1) 
17

>  <PUBCHEM_ATOM_DEF_STEREO_COUNT>  (1) 
0

>  <PUBCHEM_ATOM_UDEF_STEREO_COUNT>  (1) 
0

>  <PUBCHEM_BOND_DEF_STEREO_COUNT>  (1) 
0

>  <PUBCHEM_BOND_UDEF_STEREO_COUNT>  (1) 
0

>  <PUBCHEM_ISOTOPIC_ATOM_COUNT>  (1) 
0

>  <PUBCHEM_COMPONENT_COUNT>  (1) 
1

>  <PUBCHEM_CACTVS_TAUTO_COUNT>  (1) 
2

>  <PUBCHEM_CONFORMER_ID>  (1) 
0000714F00000001

>  <PUBCHEM_MMFF94_ENERGY>  (1) 
46.9867

>  <PUBCHEM_FEATURE_SELFOVERLAP>  (1) 
30.483

>  <PUBCHEM_SHAPE_FINGERPRINT>  (1) 
10042902 136 17916019238499173518
10291535 26 12685099150723799150
11046707 91 18341895169161051288
11265709 11 18408606980820205113
12403259 118 12607404438096231699
12553582 1 18261106379046345347
12633257 1 15554165986169762567
12916754 54 18413109467924750816
13288520 33 18412266120682841010
13583140 156 15554166969579928770
14178000 29 18338236075936367989
14251740 57 18127122207104966019
14508225 48 18260543437656959077
14576447 43 18259982674210824906
17539 30 18334849473055097709
193927 3 18271254905556616151
19427546 20 18188492376195593012
19784866 240 18339645641770388739
19784866 34 8790620199266001087
200 152 17676492713953179296
20300324 65 18261398789421280256
20621476 21 17917445189781050326
20645477 70 17900811958401473451
20871999 31 18114176402395682965
21054139 6 18186520978418686458
21426921 1 18337391522273638428
21728266 224 18115298978636090338
23402539 116 18114466656918315486
23557571 272 18271527473077058100
23559900 14 18339349804170287664
23622692 118 18410294730736539069
603831 33 17822850871353037050
6327066 14 8034839541469743695
7495541 125 18060696179255311522
76465 3 18411703217984681076
77188 2 18339923843834898481
7970288 3 18339642346972089711

>  <PUBCHEM_SHAPE_MULTIPOLES>  (1) 
321.39
12.15
2.89
0.86
16.9
0.96
-0.04
-12.84
-1.71
-3.69
-0.61
-0.16
-0.09
-0.15

>  <PUBCHEM_SHAPE_SELFOVERLAP>  (1) 
651.288

>  <PUBCHEM_SHAPE_VOLUME>  (1) 
183.8

>  <PUBCHEM_COORDINATE_TYPE>  (1) 
2
5
10

$$$$
