29018
     RDKit          3D

 12 11  0  0  0  0  0  0  0  0999 V2000
    4.1125    0.5583    1.4398 Cl  0  0  0  0  0  0  0  0  0  0  0  0
    0.7188   -0.4524    0.2139 S   0  0  0  0  0  0  0  0  0  0  0  0
   -0.5545    1.5282   -0.9150 O   0  0  0  0  0  0  0  0  0  0  0  0
   -1.9522   -0.0886    0.0021 N   0  0  0  0  0  0  0  0  0  0  0  0
   -2.0912   -1.3510    0.7304 C   0  0  0  0  0  0  0  0  0  0  0  0
   -3.2092    0.5440   -0.3798 C   0  0  0  0  0  0  0  0  0  0  0  0
   -2.1281   -2.5350   -0.2135 C   0  0  0  0  0  0  0  0  0  0  0  0
   -3.7032    1.4903    0.6948 C   0  0  0  0  0  0  0  0  0  0  0  0
   -0.7019    0.4712   -0.3055 C   0  0  0  0  0  0  0  0  0  0  0  0
    2.0535    0.6126   -0.3749 C   0  0  0  0  0  0  0  0  0  0  0  0
    3.3919    0.0288   -0.0451 C   0  0  0  0  0  0  0  0  0  0  0  0
    4.0637   -0.8064   -0.8473 C   0  0  0  0  0  0  0  0  0  0  0  0
  1 11  1  0
  2  9  1  0
  2 10  1  0
  3  9  2  0
  4  5  1  0
  4  6  1  0
  4  9  1  0
  5  7  1  0
  6  8  1  0
 10 11  1  0
 11 12  2  0
M  END
>  <PUBCHEM_COMPOUND_CID>  (1) 
29018

>  <PUBCHEM_CONFORMER_RMSD>  (1) 
0.6

>  <PUBCHEM_CONFORMER_DIVERSEORDER>  (1) 
1
69
169
79
110
168
161
106
163
75
8
80
178
34
98
17
125
54
88
174
50
119
37
160
15
48
77
131
49
74
3
32
141
151
23
103
113
2
100
162
71
122
146
30
130
4
96
70
31
78
16
6
149
95
127
93
120
112
175
67
36
35
148
94
72
62
123
99
137
18
128
44
82
108
60
104
39
58
92
181
89
157
46
150
176
38
105
139
42
140
11
179
118
154
107
24
26
138
121
66
111
68
63
90
52
5
152
135
114
132
13
51
83
59
76
116
53
84
145
86
56
20
97
167
55
25
45
28
64
91
61
47
143
14
142
27
159
57
21
43
65
166
136
41
117
9
22
29
87
156
7
109
134
165
153
126
183
12
81
10
147
155
85
19
180
124
115
129
40
33
133
102
101
177
158
170
144
173
73
172
164
171
182

>  <PUBCHEM_MMFF94_PARTIAL_CHARGES>  (1) 
11
1 -0.14
10 0.37
12 -0.3
2 -0.37
25 0.15
26 0.15
3 -0.57
4 -0.66
5 0.3
6 0.3
9 0.77

>  <PUBCHEM_EFFECTIVE_ROTOR_COUNT>  (1) 
6

>  <PUBCHEM_PHARMACOPHORE_FEATURES>  (1) 
0

>  <PUBCHEM_HEAVY_ATOM_COUNT>  (1) 
12

>  <PUBCHEM_ATOM_DEF_STEREO_COUNT>  (1) 
0

>  <PUBCHEM_ATOM_UDEF_STEREO_COUNT>  (1) 
0

>  <PUBCHEM_BOND_DEF_STEREO_COUNT>  (1) 
0

>  <PUBCHEM_BOND_UDEF_STEREO_COUNT>  (1) 
0

>  <PUBCHEM_ISOTOPIC_ATOM_COUNT>  (1) 
0

>  <PUBCHEM_COMPONENT_COUNT>  (1) 
1

>  <PUBCHEM_CACTVS_TAUTO_COUNT>  (1) 
1

>  <PUBCHEM_CONFORMER_ID>  (1) 
0000715A00000001

>  <PUBCHEM_MMFF94_ENERGY>  (1) 
13.1353

>  <PUBCHEM_FEATURE_SELFOVERLAP>  (1) 
0

>  <PUBCHEM_SHAPE_FINGERPRINT>  (1) 
11132069 177 18335134297863108056
12346177 29 18410003368892669687
124424 183 17346320366916021528
12500047 106 18342738503011370846
12932764 1 17312816095918283780
13296908 3 18343586274074389350
14445660 50 18409171030026895224
14577589 140 18335709342565864679
18175812 5 18272373083391361516
19026448 4 17917994996796324346
19107657 47 16128658522607227666
20279233 1 18202281416217944662
20281407 28 18410578400852630574
20281475 54 18333732429364979190
20524608 308 18342459257444641599
20645464 45 18343029869635192559
20645477 56 18413108368270444849
22169311 14 18130788945407819960
22169311 21 18202281424797472630
22485316 2 18410573990047902598
22959321 60 17917422190072372120
23048698 100 15626220213237829116
23380061 50 18131628997813305536
23402539 116 18272645758512995069
23532345 11 18339640152147913906
23557571 272 18270975638430193398
23559900 14 18341897377444122038
23598291 2 17677348215129208213
3086196 2 18268423719097263459
3248919 1 18412823620570781164
366044 4 18409450246388618451
6333449 129 18409729569201715415

>  <PUBCHEM_SHAPE_MULTIPOLES>  (1) 
241.82
8.08
1.83
1.04
4.98
0.96
-0.19
-1.01
-1.21
-1.99
-0.01
0.68
-0.15
0.48

>  <PUBCHEM_SHAPE_SELFOVERLAP>  (1) 
429.667

>  <PUBCHEM_SHAPE_VOLUME>  (1) 
159.2

>  <PUBCHEM_COORDINATE_TYPE>  (1) 
2
5
10

$$$$
