29027
     RDKit          3D

 15 15  0  0  0  0  0  0  0  0999 V2000
    0.7652   -0.2292    1.4368 S   0  0  0  0  0  0  0  0  0  0  0  0
    0.2424   -0.9926   -1.0367 O   0  0  0  0  0  0  0  0  0  0  0  0
   -1.4402   -1.2515    0.5521 N   0  0  0  0  0  0  0  0  0  0  0  0
   -4.0448    0.0864    0.1517 C   0  0  0  0  0  0  0  0  0  0  0  0
   -3.3321   -0.7415   -0.9175 C   0  0  0  0  0  0  0  0  0  0  0  0
   -4.9533    1.1429   -0.4767 C   0  0  0  0  0  0  0  0  0  0  0  0
   -2.4558   -1.8198   -0.2915 C   0  0  0  0  0  0  0  0  0  0  0  0
   -5.6384    1.9904    0.5836 C   0  0  0  0  0  0  0  0  0  0  0  0
   -0.1843   -0.8890    0.1062 C   0  0  0  0  0  0  0  0  0  0  0  0
    2.3036    0.1521    0.6204 C   0  0  0  0  0  0  0  0  0  0  0  0
    2.4946    1.4082    0.0451 C   0  0  0  0  0  0  0  0  0  0  0  0
    3.3155   -0.8056    0.5576 C   0  0  0  0  0  0  0  0  0  0  0  0
    3.6982    1.7068   -0.5935 C   0  0  0  0  0  0  0  0  0  0  0  0
    4.5191   -0.5069   -0.0810 C   0  0  0  0  0  0  0  0  0  0  0  0
    4.7104    0.7493   -0.6566 C   0  0  0  0  0  0  0  0  0  0  0  0
  1  9  1  0
  1 10  1  0
  2  9  2  0
  3  7  1  0
  3  9  1  0
  4  5  1  0
  4  6  1  0
  5  7  1  0
  6  8  1  0
 10 11  2  0
 10 12  1  0
 11 13  1  0
 12 14  2  0
 13 15  2  0
 14 15  1  0
M  END
>  <PUBCHEM_COMPOUND_CID>  (1) 
29027

>  <PUBCHEM_CONFORMER_RMSD>  (1) 
0.8

>  <PUBCHEM_CONFORMER_DIVERSEORDER>  (1) 
1
113
10
52
121
20
56
67
72
104
18
83
62
4
47
80
97
92
118
37
49
103
17
59
29
32
86
107
77
44
82
69
7
65
111
26
48
91
95
89
42
115
40
51
100
19
117
13
8
43
74
63
93
2
102
112
68
50
71
96
60
84
35
120
55
90
101
11
79
5
99
88
110
12
78
54
57
24
98
106
122
39
14
9
73
85
3
66
75
15
6
28
30
34
70
119
25
108
87
109
94
38
114
36
22
58
45
105
21
16
53
46
116
27
61
33
23
31
81
64
41
76

>  <PUBCHEM_MMFF94_PARTIAL_CHARGES>  (1) 
17
1 -0.24
10 0.1
11 -0.15
12 -0.15
13 -0.15
14 -0.15
15 -0.15
2 -0.57
27 0.37
28 0.15
29 0.15
3 -0.73
30 0.15
31 0.15
32 0.15
7 0.3
9 0.77

>  <PUBCHEM_EFFECTIVE_ROTOR_COUNT>  (1) 
7

>  <PUBCHEM_PHARMACOPHORE_FEATURES>  (1) 
3
1 3 donor
1 8 hydrophobe
6 10 11 12 13 14 15 rings

>  <PUBCHEM_HEAVY_ATOM_COUNT>  (1) 
15

>  <PUBCHEM_ATOM_DEF_STEREO_COUNT>  (1) 
0

>  <PUBCHEM_ATOM_UDEF_STEREO_COUNT>  (1) 
0

>  <PUBCHEM_BOND_DEF_STEREO_COUNT>  (1) 
0

>  <PUBCHEM_BOND_UDEF_STEREO_COUNT>  (1) 
0

>  <PUBCHEM_ISOTOPIC_ATOM_COUNT>  (1) 
0

>  <PUBCHEM_COMPONENT_COUNT>  (1) 
1

>  <PUBCHEM_CACTVS_TAUTO_COUNT>  (1) 
2

>  <PUBCHEM_CONFORMER_ID>  (1) 
0000716300000001

>  <PUBCHEM_MMFF94_ENERGY>  (1) 
14.3055

>  <PUBCHEM_FEATURE_SELFOVERLAP>  (1) 
15.223

>  <PUBCHEM_SHAPE_FINGERPRINT>  (1) 
100836 57 18411703162735636105
10354089 29 17749111088643334641
10447042 23 9799404499652370809
11159736 12 10519991456601515661
11458722 120 18337104579808471202
13177829 73 18342173319701479097
13237642 15 11819273373270702814
13911882 115 12613037141164617944
14123255 352 18335417950847258405
14123260 362 18342744018218767113
1420 369 9871749117923004481
14251752 14 18272934891142003174
14251764 75 15071473853684395310
14252887 29 14273732915340478674
14787075 74 8862936186862497670
15239154 128 18260265286741653284
15848700 24 15051739698571776010
15880784 105 8070035483883557436
16752209 62 16988572281519198674
17834072 32 18411419518726821713
17834072 8 17632860819312632004
18186145 218 17603855750112154810
200 152 12535349004236760947
20621476 66 18342744000707010753
20621476 91 11098147728833778109
20645477 70 18409449202654212314
20711983 171 18411414046431889678
212847 35 18411696573691457696
21503847 285 17967532380594316956
23402539 116 18202275897021406597
23402655 69 18335984263691312116
23559900 14 18130509622031201902
251288 83 9943532925001841216
3009799 131 15913322472757496914
32948 21 18202844352980333682
5104073 3 17822567321822817704
543358 83 18408322168696239898
57100710 210 10159708984022756347
59682541 52 16342578332671912229
633830 44 18259980500461578642
76465 3 10735884958187107318
77779 3 18262236728428672650
8272917 22 18337391548175505890
9882013 296 11674874485440881505

>  <PUBCHEM_SHAPE_MULTIPOLES>  (1) 
301.69
12.27
1.86
1.05
8.47
0.41
-0.14
6.52
1.24
1.23
0.11
-0.03
-0.05
-0.99

>  <PUBCHEM_SHAPE_SELFOVERLAP>  (1) 
585.171

>  <PUBCHEM_SHAPE_VOLUME>  (1) 
182.4

>  <PUBCHEM_COORDINATE_TYPE>  (1) 
2
5
10

$$$$
