29029
     RDKit          3D

 27 28  0  0  1  0  0  0  0  0999 V2000
   -2.1527   -2.7249    2.3838 Cl  0  0  0  0  0  0  0  0  0  0  0  0
   -1.8730    2.6586    1.5618 S   0  0  0  0  0  0  0  0  0  0  0  0
   -1.3847    0.7421   -0.3159 O   0  0  0  0  0  0  0  0  0  0  0  0
   -3.4272   -0.7861   -1.6918 O   0  0  0  0  0  0  0  0  0  0  0  0
   -5.5234    0.7873   -0.7758 O   0  0  0  0  0  0  0  0  0  0  0  0
   -4.0913    3.2511   -0.4658 O   0  0  0  0  0  0  0  0  0  0  0  0
    1.1344   -1.5746   -1.6268 O   0  0  0  0  0  0  0  0  0  0  0  0
    3.5331   -1.7738   -0.4983 N   0  0  0  0  0  0  0  0  0  0  0  0
    0.0978   -1.4134    0.4512 N   0  0  0  0  0  0  0  0  0  0  0  0
    4.0378    0.4850   -0.5293 C   0  0  0  0  0  0  0  0  0  0  0  0
    2.4696   -1.1563    0.3026 C   0  0  0  0  0  0  0  0  0  0  0  0
    2.7964    0.3380    0.3487 C   0  0  0  0  0  0  0  0  0  0  0  0
    4.6929   -0.8839   -0.4098 C   0  0  0  0  0  0  0  0  0  0  0  0
   -2.0927   -0.3611    0.2708 C   0  0  0  0  0  0  0  0  0  0  0  0
   -1.2640   -1.6147    0.0084 C   0  0  0  0  0  0  0  0  0  0  0  0
   -3.5112   -0.4714   -0.2997 C   0  0  0  0  0  0  0  0  0  0  0  0
    4.9467    1.6267   -0.1075 C   0  0  0  0  0  0  0  0  0  0  0  0
   -4.2608    0.8502   -0.1170 C   0  0  0  0  0  0  0  0  0  0  0  0
    1.1807   -1.4112   -0.4104 C   0  0  0  0  0  0  0  0  0  0  0  0
   -3.4463    2.0041   -0.7018 C   0  0  0  0  0  0  0  0  0  0  0  0
   -2.0125    2.0207   -0.1516 C   0  0  0  0  0  0  0  0  0  0  0  0
   -1.8923   -2.8854    0.6175 C   0  0  0  0  0  0  0  0  0  0  0  0
    3.8488   -3.1328   -0.0795 C   0  0  0  0  0  0  0  0  0  0  0  0
    4.2111    2.9656   -0.1260 C   0  0  0  0  0  0  0  0  0  0  0  0
   -1.0602   -4.1370    0.3521 C   0  0  0  0  0  0  0  0  0  0  0  0
    5.1285    4.1119    0.2685 C   0  0  0  0  0  0  0  0  0  0  0  0
   -0.0856    2.4854    1.7416 C   0  0  0  0  0  0  0  0  0  0  0  0
  1 22  1  0
  2 21  1  0
  2 27  1  0
  3 14  1  0
  3 21  1  0
  4 16  1  0
  5 18  1  0
  6 20  1  0
  7 19  2  0
  8 11  1  0
  8 13  1  0
  8 23  1  0
  9 15  1  0
  9 19  1  0
 10 12  1  0
 10 13  1  0
 10 17  1  0
 11 12  1  0
 11 19  1  0
 14 15  1  0
 14 16  1  0
 15 22  1  0
 16 18  1  0
 17 24  1  0
 18 20  1  0
 20 21  1  0
 22 25  1  0
 24 26  1  0
M  END
>  <PUBCHEM_COMPOUND_CID>  (1) 
29029

>  <PUBCHEM_CONFORMER_RMSD>  (1) 
1

>  <PUBCHEM_CONFORMER_DIVERSEORDER>  (1) 
1
153
209
155
272
160
64
307
218
11
84
157
193
174
93
219
131
150
246
213
252
186
269
210
300
306
33
242
27
83
208
151
175
121
177
190
49
201
256
243
311
185
191
231
253
42
91
250
46
247
154
244
303
308
222
22
288
104
234
117
30
239
229
291
183
223
225
75
14
132
21
312
238
221
211
284
135
111
71
278
90
145
7
45
99
171
189
133
101
226
194
266
217
277
261
52
309
127
125
116
138
254
192
282
179
51
264
136
67
295
18
166
89
86
146
314
39
302
54
227
188
80
173
88
48
65
200
310
260
245
70
230
134
59
81
299
297
82
220
108
258
144
286
143
271
305
140
20
273
115
205
98
180
172
237
34
25
26
207
187
203
283
292
162
228
106
68
280
170
197
102
240
92
79
159
176
35
199
276
290
107
5
56
47
156
85
279
122
287
139
24
78
263
109
195
13
275
265
113
105
142
32
181
72
149
120
6
15
28
167
110
112
96
95
123
76
53
215
204
40
206
289
41
141
38
251
198
249
31
274
124
23
214
29
44
19
233
3
281
69
129
178
294
255
147
36
224
100
77
66
9
236
267
182
10
63
119
262
169
62
259
202
55
73
232
130
97
216
37
293
248
270
241
304
114
165
61
43
152
313
184
8
16
158
50
298
4
161
94
12
74
196
148
212
296
118
87
163
2
17
103
137
126
168
128
60
301
235
57
268
164
285
257
58

>  <PUBCHEM_MMFF94_PARTIAL_CHARGES>  (1) 
25
1 -0.29
11 0.33
13 0.27
14 0.28
15 0.3
16 0.28
18 0.28
19 0.57
2 -0.46
20 0.28
21 0.51
22 0.29
23 0.27
27 0.23
3 -0.56
4 -0.68
41 0.37
5 -0.68
52 0.4
53 0.4
57 0.4
6 -0.68
7 -0.57
8 -0.81
9 -0.73

>  <PUBCHEM_EFFECTIVE_ROTOR_COUNT>  (1) 
10.2

>  <PUBCHEM_PHARMACOPHORE_FEATURES>  (1) 
14
1 26 hydrophobe
1 27 hydrophobe
1 3 acceptor
1 4 acceptor
1 4 donor
1 5 acceptor
1 5 donor
1 6 acceptor
1 6 donor
1 7 acceptor
1 8 cation
1 9 donor
5 8 10 11 12 13 rings
6 3 14 16 18 20 21 rings

>  <PUBCHEM_HEAVY_ATOM_COUNT>  (1) 
27

>  <PUBCHEM_ATOM_DEF_STEREO_COUNT>  (1) 
7

>  <PUBCHEM_ATOM_UDEF_STEREO_COUNT>  (1) 
2

>  <PUBCHEM_BOND_DEF_STEREO_COUNT>  (1) 
0

>  <PUBCHEM_BOND_UDEF_STEREO_COUNT>  (1) 
0

>  <PUBCHEM_ISOTOPIC_ATOM_COUNT>  (1) 
0

>  <PUBCHEM_COMPONENT_COUNT>  (1) 
1

>  <PUBCHEM_CACTVS_TAUTO_COUNT>  (1) 
2

>  <PUBCHEM_CONFORMER_ID>  (1) 
0000716500000001

>  <PUBCHEM_MMFF94_ENERGY>  (1) 
60.5203

>  <PUBCHEM_FEATURE_SELFOVERLAP>  (1) 
71.062

>  <PUBCHEM_SHAPE_FINGERPRINT>  (1) 
10498660 4 18269280221828768664
10675989 125 18050280376040173353
11112241 14 16412366800687217136
11405975 8 18187081767745049634
12403260 363 18198055885326273470
12788726 201 17703800184234872257
13583140 156 17822867372496049858
13590594 115 16392689437995445811
14251764 38 18342179916950704004
14363568 33 17185887631551938497
14466204 15 17832417606057398314
14787075 74 18341608201353692293
14790565 3 18268998583759839289
14955137 171 16035513073328715659
15420108 30 16111210050495197834
20510252 161 18410299099082334467
21033648 29 17313373496489064301
21049683 118 17603576388317396489
21521721 280 18410578379905302145
21623110 236 18342183249840272041
22956985 138 15518712543075753626
23227448 37 18337390551420768524
23557571 272 18265348355009869358
23558518 356 17769390326550457873
23559900 14 18411135801962104234
3380486 145 17976554024104110811
469060 322 17757857875499078984
474 4 18121783816100631259
50150288 127 16628033652791099632
5104073 3 18041555957779393346
633830 44 18265886969699547951
9709674 26 18411986845178090806
9981440 41 18410287008427844546

>  <PUBCHEM_SHAPE_MULTIPOLES>  (1) 
522.06
10.74
5.2
1.35
7.07
0.12
0.54
7.08
-2.35
1.44
1.34
-1.15
-0.16
1.44

>  <PUBCHEM_SHAPE_SELFOVERLAP>  (1) 
1027.012

>  <PUBCHEM_SHAPE_VOLUME>  (1) 
316.8

>  <PUBCHEM_COORDINATE_TYPE>  (1) 
2
5
10

$$$$
