29023
     RDKit          3D

  8  7  0  0  1  0  0  0  0  0999 V2000
    2.0898    0.0338    1.3719 N   0  0  0  0  0  0  0  0  0  0  0  0
   -2.9071   -1.2787    0.3003 N   0  0  0  0  0  0  0  0  0  0  0  0
    0.5507    0.0838   -0.5627 C   0  0  0  0  0  0  0  0  0  0  0  0
    2.0091    0.1771   -0.0823 C   0  0  0  0  0  0  0  0  0  0  0  0
   -0.3644    1.1290    0.0930 C   0  0  0  0  0  0  0  0  0  0  0  0
    2.8654   -0.8975   -0.7515 C   0  0  0  0  0  0  0  0  0  0  0  0
   -1.8179    1.0180   -0.3725 C   0  0  0  0  0  0  0  0  0  0  0  0
   -2.4256   -0.2655    0.0037 C   0  0  0  0  0  0  0  0  0  0  0  0
  1  4  1  0
  2  8  3  0
  3  4  1  0
  3  5  1  0
  4  6  1  0
  5  7  1  0
  7  8  1  0
M  END
>  <PUBCHEM_COMPOUND_CID>  (1) 
29023

>  <PUBCHEM_CONFORMER_RMSD>  (1) 
0.6

>  <PUBCHEM_CONFORMER_DIVERSEORDER>  (1) 
1
15
19
18
14
4
23
2
17
6
22
10
3
12
8
11
21
20
7
13
16
9
5

>  <PUBCHEM_MMFF94_PARTIAL_CHARGES>  (1) 
7
1 -0.99
19 0.36
2 -0.56
20 0.36
4 0.27
7 0.2
8 0.36

>  <PUBCHEM_EFFECTIVE_ROTOR_COUNT>  (1) 
3

>  <PUBCHEM_PHARMACOPHORE_FEATURES>  (1) 
3
1 1 cation
1 1 donor
1 2 acceptor

>  <PUBCHEM_HEAVY_ATOM_COUNT>  (1) 
8

>  <PUBCHEM_ATOM_DEF_STEREO_COUNT>  (1) 
0

>  <PUBCHEM_ATOM_UDEF_STEREO_COUNT>  (1) 
1

>  <PUBCHEM_BOND_DEF_STEREO_COUNT>  (1) 
0

>  <PUBCHEM_BOND_UDEF_STEREO_COUNT>  (1) 
0

>  <PUBCHEM_ISOTOPIC_ATOM_COUNT>  (1) 
0

>  <PUBCHEM_COMPONENT_COUNT>  (1) 
1

>  <PUBCHEM_CACTVS_TAUTO_COUNT>  (1) 
1

>  <PUBCHEM_CONFORMER_ID>  (1) 
0000715F00000001

>  <PUBCHEM_MMFF94_ENERGY>  (1) 
-2.2685

>  <PUBCHEM_FEATURE_SELFOVERLAP>  (1) 
15.223

>  <PUBCHEM_SHAPE_FINGERPRINT>  (1) 
10857977 72 18343012315750536265
12897270 3 15864077597538516503
12932741 1 18200583709781825012
12932764 1 17458345199796607540
14128692 85 18114754822810742181
14390081 3 9007060149598724103
18342897 55 15502674714401128046
20653085 51 12685359726516189103
21028194 46 10087651402822133645
21293036 1 12829494778762969685
23552423 10 18113342993940419333
29004967 10 17988922275326638904
3248919 1 18341604893543403412

>  <PUBCHEM_SHAPE_MULTIPOLES>  (1) 
154.67
4.8
1.18
0.93
0.15
0.07
0.2
1.83
0.05
0.58
-0.03
-0.53
0
0.48

>  <PUBCHEM_SHAPE_SELFOVERLAP>  (1) 
276.351

>  <PUBCHEM_SHAPE_VOLUME>  (1) 
97.8

>  <PUBCHEM_COORDINATE_TYPE>  (1) 
2
5
10

$$$$
