29020
     RDKit          3D

  8  7  0  0  0  0  0  0  0  0999 V2000
   -0.0395    0.3468   -0.1278 Si  0  0  0  0  0  4  0  0  0  0  0  0
    0.0821   -1.3401   -0.9417 C   0  0  0  0  0  0  0  0  0  0  0  0
    1.4428    0.5938    0.9970 C   0  0  0  0  0  0  0  0  0  0  0  0
   -0.0275    1.6721   -1.4569 C   0  0  0  0  0  0  0  0  0  0  0  0
   -1.5889    0.4557    0.8447 C   0  0  0  0  0  0  0  0  0  0  0  0
    0.1488   -2.5271    0.0104 C   0  0  0  0  0  0  0  0  0  0  0  0
    2.8051    0.4740    0.3266 C   0  0  0  0  0  0  0  0  0  0  0  0
   -2.8229    0.3247    0.3477 C   0  0  0  0  0  0  0  0  0  0  0  0
  1  2  1  0
  1  3  1  0
  1  4  1  0
  1  5  1  0
  2  6  1  0
  3  7  1  0
  5  8  2  0
M  END
>  <PUBCHEM_COMPOUND_CID>  (1) 
29020

>  <PUBCHEM_CONFORMER_RMSD>  (1) 
0.6

>  <PUBCHEM_CONFORMER_DIVERSEORDER>  (1) 
1
5
6
4
2
3

>  <PUBCHEM_MMFF94_PARTIAL_CHARGES>  (1) 
9
1 0.47
16 0.15
2 -0.08
23 0.15
24 0.15
3 -0.08
4 -0.08
5 -0.38
8 -0.3

>  <PUBCHEM_EFFECTIVE_ROTOR_COUNT>  (1) 
3

>  <PUBCHEM_PHARMACOPHORE_FEATURES>  (1) 
0

>  <PUBCHEM_HEAVY_ATOM_COUNT>  (1) 
8

>  <PUBCHEM_ATOM_DEF_STEREO_COUNT>  (1) 
0

>  <PUBCHEM_ATOM_UDEF_STEREO_COUNT>  (1) 
0

>  <PUBCHEM_BOND_DEF_STEREO_COUNT>  (1) 
0

>  <PUBCHEM_BOND_UDEF_STEREO_COUNT>  (1) 
0

>  <PUBCHEM_ISOTOPIC_ATOM_COUNT>  (1) 
0

>  <PUBCHEM_COMPONENT_COUNT>  (1) 
1

>  <PUBCHEM_CACTVS_TAUTO_COUNT>  (1) 
1

>  <PUBCHEM_CONFORMER_ID>  (1) 
0000715C00000001

>  <PUBCHEM_MMFF94_ENERGY>  (1) 
-1.2495

>  <PUBCHEM_FEATURE_SELFOVERLAP>  (1) 
0

>  <PUBCHEM_SHAPE_FINGERPRINT>  (1) 
10219947 1 18334298669057776809
12423570 1 14460040414802002204
137420 1 11029754502013317943
14993402 34 18262236741155130924
20653085 51 15051456080116442200
20711978 78 17698996289146727349
21040471 1 18200039558799745577
21061003 4 17479736018311200354
23552449 11 17984144751697011891
3250762 1 17686332071147277444
5084963 1 17131833183182647137
528862 383 18269548334787844218
5943 1 13931355920784549101
68250623 7 16959236095782449111

>  <PUBCHEM_SHAPE_MULTIPOLES>  (1) 
182.85
2.99
2.05
1.24
0.14
1.57
-0.25
-0.91
1.1
-0.18
-0.57
-0.03
-0.38
0.06

>  <PUBCHEM_SHAPE_SELFOVERLAP>  (1) 
310.795

>  <PUBCHEM_SHAPE_VOLUME>  (1) 
122.7

>  <PUBCHEM_COORDINATE_TYPE>  (1) 
2
5
10

$$$$
