2903
     RDKit          3D

  9  9  0  0  0  0  0  0  0  0999 V2000
    2.7822    0.0023    0.6106 N   0  0  0  0  0  0  0  0  0  0  0  0
    1.3327   -0.0072    0.3464 C   0  0  0  0  0  0  0  0  0  0  0  0
    0.9859   -1.3047   -0.3963 C   0  0  0  0  0  0  0  0  0  0  0  0
    0.9977    1.2900   -0.4002 C   0  0  0  0  0  0  0  0  0  0  0  0
   -0.4896   -1.5784   -0.6963 C   0  0  0  0  0  0  0  0  0  0  0  0
   -0.4754    1.5783   -0.6991 C   0  0  0  0  0  0  0  0  0  0  0  0
   -1.4533   -1.2976    0.4565 C   0  0  0  0  0  0  0  0  0  0  0  0
   -1.4417    1.3084    0.4542 C   0  0  0  0  0  0  0  0  0  0  0  0
   -2.2387    0.0087    0.3241 C   0  0  0  0  0  0  0  0  0  0  0  0
  1  2  1  0
  2  3  1  0
  2  4  1  0
  3  5  1  0
  4  6  1  0
  5  7  1  0
  6  8  1  0
  7  9  1  0
  8  9  1  0
M  END
>  <PUBCHEM_COMPOUND_CID>  (1) 
2903

>  <PUBCHEM_CONFORMER_RMSD>  (1) 
0.4

>  <PUBCHEM_CONFORMER_DIVERSEORDER>  (1) 
7
15
10
4
12
11
1
14
9
13
8
3
2
5
6

>  <PUBCHEM_MMFF94_PARTIAL_CHARGES>  (1) 
4
1 -0.99
2 0.27
25 0.36
26 0.36

>  <PUBCHEM_EFFECTIVE_ROTOR_COUNT>  (1) 
1.6

>  <PUBCHEM_PHARMACOPHORE_FEATURES>  (1) 
2
1 1 cation
1 1 donor

>  <PUBCHEM_HEAVY_ATOM_COUNT>  (1) 
9

>  <PUBCHEM_ATOM_DEF_STEREO_COUNT>  (1) 
0

>  <PUBCHEM_ATOM_UDEF_STEREO_COUNT>  (1) 
0

>  <PUBCHEM_BOND_DEF_STEREO_COUNT>  (1) 
0

>  <PUBCHEM_BOND_UDEF_STEREO_COUNT>  (1) 
0

>  <PUBCHEM_ISOTOPIC_ATOM_COUNT>  (1) 
0

>  <PUBCHEM_COMPONENT_COUNT>  (1) 
1

>  <PUBCHEM_CACTVS_TAUTO_COUNT>  (1) 
1

>  <PUBCHEM_CONFORMER_ID>  (1) 
00000B5700000007

>  <PUBCHEM_MMFF94_ENERGY>  (1) 
11.5258

>  <PUBCHEM_FEATURE_SELFOVERLAP>  (1) 
10.148

>  <PUBCHEM_SHAPE_FINGERPRINT>  (1) 
16945 1 18410582781376342177
18185500 45 17619350252369323463
21040471 1 18340213972642351940
21922407 69 14999423727988087901
23235685 24 18341046311661334401
23552423 10 17613161079957657685
241688 4 17905060148548925513
2748010 2 18050012095038296509
29004967 10 13984665841078756586
5084963 1 18342463590718269355
528862 383 17539978685682685923
54338 74 18119225475659731747
66348 1 17761779459681052343

>  <PUBCHEM_SHAPE_MULTIPOLES>  (1) 
180.23
2.8
1.95
0.86
0.73
0
0.05
0
-0.8
-0.37
0.37
0.03
0
0

>  <PUBCHEM_SHAPE_SELFOVERLAP>  (1) 
337.685

>  <PUBCHEM_SHAPE_VOLUME>  (1) 
110.1

>  <PUBCHEM_COORDINATE_TYPE>  (1) 
2
5
10

$$$$
