29032
     RDKit          3D

 24 25  0  0  1  0  0  0  0  0999 V2000
    0.4387   -2.3607   -1.2129 O   0  0  0  0  0  0  0  0  0  0  0  0
   -4.4870   -1.2318   -1.2533 O   0  0  0  0  0  0  0  0  0  0  0  0
   -2.2707    2.3696    0.9956 O   0  0  0  0  0  0  0  0  0  0  0  0
   -4.5787    1.2722   -0.0723 O   0  0  0  0  0  0  0  0  0  0  0  0
    1.1732   -1.2711    0.6975 N   0  0  0  0  0  0  0  0  0  0  0  0
    2.4733   -1.8995    0.7595 C   0  0  0  0  0  0  0  0  0  0  0  0
    3.5127   -0.9661    1.3995 C   0  0  0  0  0  0  0  0  0  0  0  0
    4.0042    0.1052    0.4552 C   0  0  0  0  0  0  0  0  0  0  0  0
    2.3748   -3.2095    1.5347 C   0  0  0  0  0  0  0  0  0  0  0  0
    0.2549   -1.5611   -0.2990 C   0  0  0  0  0  0  0  0  0  0  0  0
   -1.0259   -0.8108   -0.2376 C   0  0  0  0  0  0  0  0  0  0  0  0
    5.1114   -0.1461   -0.3391 C   0  0  0  0  0  0  0  0  0  0  0  0
    3.3391    1.3194    0.4010 C   0  0  0  0  0  0  0  0  0  0  0  0
   -1.0410    0.4343    0.3558 C   0  0  0  0  0  0  0  0  0  0  0  0
   -2.1589   -1.3829   -0.7778 C   0  0  0  0  0  0  0  0  0  0  0  0
   -3.3612   -0.6779   -0.7222 C   0  0  0  0  0  0  0  0  0  0  0  0
   -2.2434    1.1391    0.4116 C   0  0  0  0  0  0  0  0  0  0  0  0
   -3.4035    0.5830   -0.1274 C   0  0  0  0  0  0  0  0  0  0  0  0
    5.5656    0.8435   -1.2110 C   0  0  0  0  0  0  0  0  0  0  0  0
    3.7931    2.3090   -0.4710 C   0  0  0  0  0  0  0  0  0  0  0  0
    4.9065    2.0710   -1.2769 C   0  0  0  0  0  0  0  0  0  0  0  0
   -5.2868   -2.0326   -0.3853 C   0  0  0  0  0  0  0  0  0  0  0  0
   -2.0208    3.4927    0.1527 C   0  0  0  0  0  0  0  0  0  0  0  0
   -5.0698    1.6111    1.2226 C   0  0  0  0  0  0  0  0  0  0  0  0
  1 10  2  0
  2 16  1  0
  2 22  1  0
  3 17  1  0
  3 23  1  0
  4 18  1  0
  4 24  1  0
  5  6  1  0
  5 10  1  0
  6  7  1  0
  6  9  1  0
  7  8  1  0
  8 12  2  0
  8 13  1  0
 10 11  1  0
 11 14  2  0
 11 15  1  0
 12 19  1  0
 13 20  2  0
 14 17  1  0
 15 16  2  0
 16 18  1  0
 17 18  2  0
 19 21  2  0
 20 21  1  0
M  END
>  <PUBCHEM_COMPOUND_CID>  (1) 
29032

>  <PUBCHEM_CONFORMER_RMSD>  (1) 
0.8

>  <PUBCHEM_CONFORMER_DIVERSEORDER>  (1) 
4
57
38
19
11
17
29
39
7
66
27
52
40
59
26
6
48
67
21
62
10
60
18
36
49
23
70
58
69
14
71
8
16
43
46
30
33
54
9
44
28
56
55
63
45
2
50
12
51
53
5
3
41
34
15
22
68
24
13
35
64
61
20
32
47
1
42
37
65
25
31

>  <PUBCHEM_MMFF94_PARTIAL_CHARGES>  (1) 
31
1 -0.57
10 0.54
11 0.09
12 -0.15
13 -0.15
14 -0.15
15 -0.15
16 0.08
17 0.08
18 0.08
19 -0.15
2 -0.36
20 -0.15
21 -0.15
22 0.28
23 0.28
24 0.28
28 0.37
3 -0.36
32 0.15
33 0.15
34 0.15
35 0.15
36 0.15
37 0.15
38 0.15
4 -0.36
5 -0.73
6 0.3
7 0.14
8 -0.14

>  <PUBCHEM_EFFECTIVE_ROTOR_COUNT>  (1) 
8

>  <PUBCHEM_PHARMACOPHORE_FEATURES>  (1) 
7
1 1 acceptor
1 2 acceptor
1 3 acceptor
1 4 acceptor
1 5 donor
6 11 14 15 16 17 18 rings
6 8 12 13 19 20 21 rings

>  <PUBCHEM_HEAVY_ATOM_COUNT>  (1) 
24

>  <PUBCHEM_ATOM_DEF_STEREO_COUNT>  (1) 
0

>  <PUBCHEM_ATOM_UDEF_STEREO_COUNT>  (1) 
1

>  <PUBCHEM_BOND_DEF_STEREO_COUNT>  (1) 
0

>  <PUBCHEM_BOND_UDEF_STEREO_COUNT>  (1) 
0

>  <PUBCHEM_ISOTOPIC_ATOM_COUNT>  (1) 
0

>  <PUBCHEM_COMPONENT_COUNT>  (1) 
1

>  <PUBCHEM_CACTVS_TAUTO_COUNT>  (1) 
2

>  <PUBCHEM_CONFORMER_ID>  (1) 
0000716800000004

>  <PUBCHEM_MMFF94_ENERGY>  (1) 
94.0586

>  <PUBCHEM_FEATURE_SELFOVERLAP>  (1) 
35.531

>  <PUBCHEM_SHAPE_FINGERPRINT>  (1) 
10498660 4 18341890801137385976
10670039 82 18413390938859526420
10906281 52 18201722804877662455
11578080 2 17532641348464764389
12107183 9 17688303487037587168
12390115 104 17704082768072299891
12788726 201 18272085002781622163
14251764 38 17900253109414476165
14341114 328 18409165485329604915
14528608 73 18334572486097151934
14787075 74 18188762989469245091
14840074 17 18336275582549137645
14931854 50 18339084899462170588
15183329 4 18341344319006157638
15575132 122 18334859402808554605
15927050 60 17117195647307333453
16991971 28 17771901903921202679
17492 89 18339916000997918635
20715895 44 17905313036672499533
21049683 271 18117837931610440111
21857420 4 15258845010054541380
221357 26 18201161048434792180
23366157 5 18123753054090178583
23557571 272 17775013413740605247
23559900 14 17772751576277821031
245318 6 17532672319600861284
2637199 183 18409174316278087878
312423 11 18339636742134272290
34797466 226 15913028963809800475
38570 142 18188229645204657126
474 4 18114178649101428706
5104073 3 18270951354796411427
5312544 6 18334852827265949250
6034566 193 17026017413024189252
633830 44 18335984246564593542

>  <PUBCHEM_SHAPE_MULTIPOLES>  (1) 
465.45
12.68
3.46
1.27
1.24
0.51
0.06
3.68
-2.11
-0.09
0.59
0.39
-0.3
-3.03

>  <PUBCHEM_SHAPE_SELFOVERLAP>  (1) 
977.171

>  <PUBCHEM_SHAPE_VOLUME>  (1) 
263.9

>  <PUBCHEM_COORDINATE_TYPE>  (1) 
2
5
10

$$$$
