29030
     RDKit          3D

 11 11  0  0  0  0  0  0  0  0999 V2000
   -3.9536   -0.0714    1.4120 O   0  0  0  0  0  0  0  0  0  0  0  0
   -0.4399    0.0371   -1.1458 C   0  0  0  0  0  0  0  0  0  0  0  0
   -1.5947   -0.0007   -0.1395 C   0  0  0  0  0  0  0  0  0  0  0  0
    0.9253    0.0165   -0.5059 C   0  0  0  0  0  0  0  0  0  0  0  0
   -2.9690    0.0395   -0.8052 C   0  0  0  0  0  0  0  0  0  0  0  0
    1.5399    1.2143   -0.1739 C   0  0  0  0  0  0  0  0  0  0  0  0
    1.5440   -1.2000   -0.2599 C   0  0  0  0  0  0  0  0  0  0  0  0
    2.8029    1.1954    0.4181 C   0  0  0  0  0  0  0  0  0  0  0  0
    2.8069   -1.2189    0.3320 C   0  0  0  0  0  0  0  0  0  0  0  0
   -4.0983    0.0093    0.1970 C   0  0  0  0  0  0  0  0  0  0  0  0
    3.4364   -0.0212    0.6710 C   0  0  0  0  0  0  0  0  0  0  0  0
  1 10  2  0
  2  3  1  0
  2  4  1  0
  3  5  1  0
  4  6  2  0
  4  7  1  0
  5 10  1  0
  6  8  1  0
  7  9  2  0
  8 11  2  0
  9 11  1  0
M  END
>  <PUBCHEM_COMPOUND_CID>  (1) 
29030

>  <PUBCHEM_CONFORMER_RMSD>  (1) 
0.6

>  <PUBCHEM_CONFORMER_DIVERSEORDER>  (1) 
1
15
6
8
16
13
11
17
7
14
9
3
12
10
2
4
5

>  <PUBCHEM_MMFF94_PARTIAL_CHARGES>  (1) 
16
1 -0.57
10 0.45
11 -0.15
18 0.15
19 0.15
2 0.14
20 0.15
21 0.15
22 0.06
23 0.15
4 -0.14
5 0.06
6 -0.15
7 -0.15
8 -0.15
9 -0.15

>  <PUBCHEM_EFFECTIVE_ROTOR_COUNT>  (1) 
4

>  <PUBCHEM_PHARMACOPHORE_FEATURES>  (1) 
2
1 1 acceptor
6 4 6 7 8 9 11 rings

>  <PUBCHEM_HEAVY_ATOM_COUNT>  (1) 
11

>  <PUBCHEM_ATOM_DEF_STEREO_COUNT>  (1) 
0

>  <PUBCHEM_ATOM_UDEF_STEREO_COUNT>  (1) 
0

>  <PUBCHEM_BOND_DEF_STEREO_COUNT>  (1) 
0

>  <PUBCHEM_BOND_UDEF_STEREO_COUNT>  (1) 
0

>  <PUBCHEM_ISOTOPIC_ATOM_COUNT>  (1) 
0

>  <PUBCHEM_COMPONENT_COUNT>  (1) 
1

>  <PUBCHEM_CACTVS_TAUTO_COUNT>  (1) 
2

>  <PUBCHEM_CONFORMER_ID>  (1) 
0000716600000001

>  <PUBCHEM_MMFF94_ENERGY>  (1) 
18.67

>  <PUBCHEM_FEATURE_SELFOVERLAP>  (1) 
10.148

>  <PUBCHEM_SHAPE_FINGERPRINT>  (1) 
10219947 1 18410567388287439044
10465860 228 16988294070622518383
12251169 10 18412260649052794119
12932764 1 18411416211285155429
13296908 3 17530679905466955493
14252887 29 18335979783966816354
15477762 27 10737282433403275304
15501101 241 18334007298497483028
15775835 57 17418091044021572673
177051 138 16443348697700104249
17844478 74 18113610162428793444
20233049 118 15698280005982709898
20279233 1 17749384867386752079
20281407 28 16805321059246913463
20645477 70 18264753398996990959
20767249 442 15410897332053077233
20871998 22 17984982592722269894
21119208 17 7853575720776572099
22485316 2 15285352920923896871
23048698 100 18202563977757908835
276578 36 16845855680723484294
3248919 1 17346876754344005271
57812782 119 17821725035738802109

>  <PUBCHEM_SHAPE_MULTIPOLES>  (1) 
220.51
7.38
1.15
1.03
6.57
0
-0.08
-0.03
-2.56
-1.16
-0.02
0.64
0
0.03

>  <PUBCHEM_SHAPE_SELFOVERLAP>  (1) 
442.817

>  <PUBCHEM_SHAPE_VOLUME>  (1) 
129.1

>  <PUBCHEM_COORDINATE_TYPE>  (1) 
2
5
10

$$$$
