29037
     RDKit          3D

 13 13  0  0  0  0  0  0  0  0999 V2000
    2.5766    2.4380   -0.0091 Cl  0  0  0  0  0  0  0  0  0  0  0  0
   -2.6346    0.2316   -1.2061 O   0  0  0  0  0  0  0  0  0  0  0  0
   -2.8022    0.2439    1.0607 O   0  0  0  0  0  0  0  0  0  0  0  0
   -0.0715   -1.2202    0.0183 C   0  0  0  0  0  0  0  0  0  0  0  0
   -0.6532    0.0475    0.0277 C   0  0  0  0  0  0  0  0  0  0  0  0
    1.3172   -1.3503    0.0007 C   0  0  0  0  0  0  0  0  0  0  0  0
    0.1539    1.1852    0.0193 C   0  0  0  0  0  0  0  0  0  0  0  0
    2.1242   -0.2126   -0.0075 C   0  0  0  0  0  0  0  0  0  0  0  0
    1.5426    1.0551    0.0018 C   0  0  0  0  0  0  0  0  0  0  0  0
   -0.9315   -2.4451    0.0281 C   0  0  0  0  0  0  0  0  0  0  0  0
    1.9657   -2.6961   -0.0087 C   0  0  0  0  0  0  0  0  0  0  0  0
   -0.4803    2.5421    0.0297 C   0  0  0  0  0  0  0  0  0  0  0  0
   -2.1070    0.1809    0.0454 C   0  0  0  0  0  0  0  0  0  0  0  0
  1  9  1  0
  2 13  1  0
  3 13  2  0
  4  5  2  0
  4  6  1  0
  4 10  1  0
  5  7  1  0
  5 13  1  0
  6  8  2  0
  6 11  1  0
  7  9  2  0
  7 12  1  0
  8  9  1  0
M  END
>  <PUBCHEM_COMPOUND_CID>  (1) 
29037

>  <PUBCHEM_CONFORMER_RMSD>  (1) 
0.4

>  <PUBCHEM_CONFORMER_DIVERSEORDER>  (1) 
1
2
3

>  <PUBCHEM_MMFF94_PARTIAL_CHARGES>  (1) 
15
1 -0.18
10 0.14
11 0.14
12 0.14
13 0.63
14 0.15
2 -0.65
24 0.5
3 -0.57
4 -0.14
5 0.09
6 -0.14
7 -0.14
8 -0.15
9 0.18

>  <PUBCHEM_EFFECTIVE_ROTOR_COUNT>  (1) 
1

>  <PUBCHEM_PHARMACOPHORE_FEATURES>  (1) 
4
1 2 acceptor
1 3 acceptor
3 2 3 13 anion
6 4 5 6 7 8 9 rings

>  <PUBCHEM_HEAVY_ATOM_COUNT>  (1) 
13

>  <PUBCHEM_ATOM_DEF_STEREO_COUNT>  (1) 
0

>  <PUBCHEM_ATOM_UDEF_STEREO_COUNT>  (1) 
0

>  <PUBCHEM_BOND_DEF_STEREO_COUNT>  (1) 
0

>  <PUBCHEM_BOND_UDEF_STEREO_COUNT>  (1) 
0

>  <PUBCHEM_ISOTOPIC_ATOM_COUNT>  (1) 
0

>  <PUBCHEM_COMPONENT_COUNT>  (1) 
1

>  <PUBCHEM_CACTVS_TAUTO_COUNT>  (1) 
1

>  <PUBCHEM_CONFORMER_ID>  (1) 
0000716D00000001

>  <PUBCHEM_MMFF94_ENERGY>  (1) 
43.8441

>  <PUBCHEM_FEATURE_SELFOVERLAP>  (1) 
20.355

>  <PUBCHEM_SHAPE_FINGERPRINT>  (1) 
10967382 1 18410857676558211320
11206711 2 17976825285299769382
12423570 1 11349164468065062223
12524768 44 18408323293513207330
13140716 1 18338517564130231866
13380535 21 18193854840490614286
13380535 76 18265324199976230690
14614273 12 18045771553478369711
14817 1 15379724824200844738
16945 1 18410573959682366694
193761 8 18338799047470471570
2334 1 18050286165728817450
23552423 10 18338517434801346604
23559900 14 17118037328224050542
241688 4 17762335817028492682
2748010 2 18194688291948142566
5084963 1 17915164728980288859
528886 8 18267582592643960160
63268167 104 18341887489764794181
81228 2 17185030566843744610

>  <PUBCHEM_SHAPE_MULTIPOLES>  (1) 
257.67
3.5
3.16
0.75
0.18
1.32
-0.03
-1.43
0
-1.12
0.02
0.35
-0.12
0.01

>  <PUBCHEM_SHAPE_SELFOVERLAP>  (1) 
532.935

>  <PUBCHEM_SHAPE_VOLUME>  (1) 
151.1

>  <PUBCHEM_COORDINATE_TYPE>  (1) 
2
5
10

$$$$
