2904
     RDKit          3D

 23 25  0  0  1  0  0  0  0  0999 V2000
   -4.1323    2.6740   -0.1407 Cl  0  0  0  0  0  0  0  0  0  0  0  0
    0.3592   -1.6790    0.1517 S   0  0  0  0  0  0  0  0  0  0  0  0
   -4.8909   -0.4611    0.0758 S   0  0  0  0  0  0  0  0  0  0  0  0
    0.5720   -2.1624   -1.1980 O   0  0  0  0  0  0  0  0  0  0  0  0
   -0.0011   -2.5732    1.2340 O   0  0  0  0  0  0  0  0  0  0  0  0
   -4.9102   -1.7569    0.7361 O   0  0  0  0  0  0  0  0  0  0  0  0
   -5.7258    0.6213    0.5724 O   0  0  0  0  0  0  0  0  0  0  0  0
    1.7030   -0.7468    0.6476 N   0  0  0  0  0  0  0  0  0  0  0  0
    0.7828    1.3849   -0.0727 N   0  0  0  0  0  0  0  0  0  0  0  0
   -5.2045   -0.6814   -1.5883 N   0  0  0  0  0  0  0  0  0  0  0  0
    4.3816    0.3030    0.3607 C   0  0  0  0  0  0  0  0  0  0  0  0
    4.7214   -0.1670   -1.0503 C   0  0  0  0  0  0  0  0  0  0  0  0
    5.6639    1.0115    0.7852 C   0  0  0  0  0  0  0  0  0  0  0  0
    3.1564    1.1988    0.4146 C   0  0  0  0  0  0  0  0  0  0  0  0
    6.1712   -0.6308   -0.9478 C   0  0  0  0  0  0  0  0  0  0  0  0
    6.7745    0.1190    0.2411 C   0  0  0  0  0  0  0  0  0  0  0  0
    1.9241    0.4908   -0.1345 C   0  0  0  0  0  0  0  0  0  0  0  0
   -0.5252    0.9225   -0.0622 C   0  0  0  0  0  0  0  0  0  0  0  0
   -0.8838   -0.4305    0.0418 C   0  0  0  0  0  0  0  0  0  0  0  0
   -2.2175   -0.8473    0.0854 C   0  0  0  0  0  0  0  0  0  0  0  0
   -1.5739    1.8558   -0.1077 C   0  0  0  0  0  0  0  0  0  0  0  0
   -3.2328    0.1018    0.0253 C   0  0  0  0  0  0  0  0  0  0  0  0
   -2.9122    1.4529   -0.0696 C   0  0  0  0  0  0  0  0  0  0  0  0
  1 23  1  0
  2  4  2  0
  2  5  2  0
  2  8  1  0
  2 19  1  0
  3  6  2  0
  3  7  2  0
  3 10  1  0
  3 22  1  0
  8 17  1  0
  9 17  1  0
  9 18  1  0
 11 12  1  0
 11 13  1  0
 11 14  1  0
 12 15  1  0
 13 16  1  0
 14 17  1  0
 15 16  1  0
 18 19  2  0
 18 21  1  0
 19 20  1  0
 20 22  2  0
 21 23  2  0
 22 23  1  0
M  END
>  <PUBCHEM_COMPOUND_CID>  (1) 
2904

>  <PUBCHEM_CONFORMER_RMSD>  (1) 
0.8

>  <PUBCHEM_CONFORMER_DIVERSEORDER>  (1) 
7
13
5
10
8
9
12
3
14
6
2
4
1
11

>  <PUBCHEM_MMFF94_PARTIAL_CHARGES>  (1) 
23
1 -0.18
10 -0.98
17 0.72
18 0.1
19 -0.01
2 1.45
20 -0.15
21 -0.15
22 -0.01
23 0.18
3 1.45
36 0.42
37 0.4
38 0.15
39 0.15
4 -0.65
40 0.42
41 0.42
5 -0.65
6 -0.65
7 -0.65
8 -0.91
9 -0.87

>  <PUBCHEM_EFFECTIVE_ROTOR_COUNT>  (1) 
4.6

>  <PUBCHEM_PHARMACOPHORE_FEATURES>  (1) 
11
1 10 donor
1 4 acceptor
1 5 acceptor
1 6 acceptor
1 7 acceptor
1 8 donor
1 9 cation
1 9 donor
5 11 12 13 15 16 rings
6 18 19 20 21 22 23 rings
6 2 8 9 17 18 19 rings

>  <PUBCHEM_HEAVY_ATOM_COUNT>  (1) 
23

>  <PUBCHEM_ATOM_DEF_STEREO_COUNT>  (1) 
0

>  <PUBCHEM_ATOM_UDEF_STEREO_COUNT>  (1) 
1

>  <PUBCHEM_BOND_DEF_STEREO_COUNT>  (1) 
0

>  <PUBCHEM_BOND_UDEF_STEREO_COUNT>  (1) 
0

>  <PUBCHEM_ISOTOPIC_ATOM_COUNT>  (1) 
0

>  <PUBCHEM_COMPONENT_COUNT>  (1) 
1

>  <PUBCHEM_CACTVS_TAUTO_COUNT>  (1) 
1

>  <PUBCHEM_CONFORMER_ID>  (1) 
00000B5800000007

>  <PUBCHEM_MMFF94_ENERGY>  (1) 
34.9055

>  <PUBCHEM_FEATURE_SELFOVERLAP>  (1) 
55.901

>  <PUBCHEM_SHAPE_FINGERPRINT>  (1) 
10 15 18340758352323373952
10411042 1 17904484352766079755
10670039 82 18260830354794778092
11315181 36 17967816067416030804
11488393 25 17630340639999744606
11578080 2 16952799567793640191
11963148 33 18187925135602271395
12011746 2 18333446555903920495
12236239 1 17603303756920920916
12390115 104 18270127799006719193
12403259 415 18272926129145508184
12616971 3 13614234906340921416
12916748 109 18410294722663289712
13140716 1 18049727609706489715
13288520 33 18410857668100444373
13402501 40 18343022186070705124
13533116 47 12823028487073046180
13862211 1 18409726296051669827
14251764 18 18408600358571244562
15042514 8 18193560188718432483
15099037 51 18410857685454036100
15196674 1 18337389331797645322
17844677 252 18343025497438340640
17980427 23 15140965002393402751
18927931 339 18409452505504512519
19141452 34 17988923426905382286
19489759 90 18113336409882401833
200 152 16415481537018848376
21033648 29 18060123354486853080
21236236 1 18412262822443753073
21267235 1 18336552715730117147
21279426 13 18268713805889266462
21709351 56 18335697239316798813
2297311 6 18341339928837898340
23402539 116 18412259570936816647
23536379 177 16702305646040331608
23559900 14 18338794649445176648
2916195 48 18272363192293162648
3004659 81 18334581188708552990
335352 9 18409449219121321236
34934 24 18338793413127149661
350125 39 18408605885155690728
3545911 37 18411139100296306609
38695281 34 17918276424212404023
4340502 62 16225766307282961114
474229 33 18410011056678355474
5104073 3 18264773164351552241
5486654 2 18259987089168218763
59755656 215 18411700963116483206
59755656 520 18113614607931454274
6138700 20 18339083692586467598
7495541 125 15554158285061038835
9996256 80 18272368685054972654

>  <PUBCHEM_SHAPE_MULTIPOLES>  (1) 
444.48
14.94
2.2
0.97
11.39
0.07
0.16
-1.44
0.82
-2.06
-0.16
0.14
0.33
0.61

>  <PUBCHEM_SHAPE_SELFOVERLAP>  (1) 
910.951

>  <PUBCHEM_SHAPE_VOLUME>  (1) 
257.2

>  <PUBCHEM_COORDINATE_TYPE>  (1) 
2
5
10

$$$$
