29041
     RDKit          3D

 33 38  0  0  0  0  0  0  0  0999 V2000
    2.6799   -1.5626    0.9365 S   0  0  0  0  0  0  0  0  0  0  0  0
   -2.3635   -1.4915   -0.1015 S   0  0  0  0  0  0  0  0  0  0  0  0
    3.6306    0.6051    0.1166 N   0  0  0  0  0  0  0  0  0  0  0  0
   -3.6567    0.8155    0.3254 N   0  0  0  0  0  0  0  0  0  0  0  0
    4.7113   -0.2539    0.1255 C   0  0  0  0  0  0  0  0  0  0  0  0
   -4.6830   -0.1227    0.0298 C   0  0  0  0  0  0  0  0  0  0  0  0
    6.0483    0.0439   -0.2480 C   0  0  0  0  0  0  0  0  0  0  0  0
   -6.1013    0.0531   -0.0515 C   0  0  0  0  0  0  0  0  0  0  0  0
    4.3655   -1.5280    0.5609 C   0  0  0  0  0  0  0  0  0  0  0  0
   -4.1472   -1.4201   -0.2146 C   0  0  0  0  0  0  0  0  0  0  0  0
    2.5153    0.0677    0.5110 C   0  0  0  0  0  0  0  0  0  0  0  0
   -2.3775    0.2399    0.2764 C   0  0  0  0  0  0  0  0  0  0  0  0
    3.6294    1.9969   -0.2782 C   0  0  0  0  0  0  0  0  0  0  0  0
   -3.9216    2.2024    0.6601 C   0  0  0  0  0  0  0  0  0  0  0  0
    7.0136   -0.9908   -0.1641 C   0  0  0  0  0  0  0  0  0  0  0  0
   -6.8933   -1.0981   -0.3573 C   0  0  0  0  0  0  0  0  0  0  0  0
    5.3147   -2.5541    0.6453 C   0  0  0  0  0  0  0  0  0  0  0  0
   -4.9284   -2.5219   -0.5127 C   0  0  0  0  0  0  0  0  0  0  0  0
    6.6340   -2.2657    0.2786 C   0  0  0  0  0  0  0  0  0  0  0  0
   -6.3012   -2.3519   -0.5783 C   0  0  0  0  0  0  0  0  0  0  0  0
    1.2494    0.7344    0.5963 C   0  0  0  0  0  0  0  0  0  0  0  0
   -1.1875    0.8323    0.4742 C   0  0  0  0  0  0  0  0  0  0  0  0
    6.4287    1.3269   -0.6926 C   0  0  0  0  0  0  0  0  0  0  0  0
   -6.8278    1.2608    0.1337 C   0  0  0  0  0  0  0  0  0  0  0  0
    0.0690    0.1263    0.3957 C   0  0  0  0  0  0  0  0  0  0  0  0
    3.9215    2.8644    0.9299 C   0  0  0  0  0  0  0  0  0  0  0  0
   -4.1475    3.0395   -0.5819 C   0  0  0  0  0  0  0  0  0  0  0  0
    8.3392   -0.7089   -0.5298 C   0  0  0  0  0  0  0  0  0  0  0  0
   -8.2927   -1.0099   -0.4501 C   0  0  0  0  0  0  0  0  0  0  0  0
    7.7525    1.5798   -1.0496 C   0  0  0  0  0  0  0  0  0  0  0  0
   -8.2222    1.3308    0.0365 C   0  0  0  0  0  0  0  0  0  0  0  0
    8.7041    0.5658   -0.9686 C   0  0  0  0  0  0  0  0  0  0  0  0
   -8.9556    0.1948   -0.2537 C   0  0  0  0  0  0  0  0  0  0  0  0
  1  9  1  0
  1 11  1  0
  2 10  1  0
  2 12  1  0
  3  5  1  0
  3 11  2  0
  3 13  1  0
  4  6  1  0
  4 12  1  0
  4 14  1  0
  5  7  1  0
  5  9  2  0
  6  8  1  0
  6 10  2  0
  7 15  2  0
  7 23  1  0
  8 16  2  0
  8 24  1  0
  9 17  1  0
 10 18  1  0
 11 21  1  0
 12 22  2  0
 13 26  1  0
 14 27  1  0
 15 19  1  0
 15 28  1  0
 16 20  1  0
 16 29  1  0
 17 19  2  0
 18 20  2  0
 21 25  2  0
 22 25  1  0
 23 30  2  0
 24 31  2  0
 28 32  2  0
 29 33  2  0
 30 32  1  0
 31 33  1  0
M  CHG  1   3   1
M  END
>  <PUBCHEM_COMPOUND_CID>  (1) 
29041

>  <PUBCHEM_CONFORMER_RMSD>  (1) 
0.8

>  <PUBCHEM_CONFORMER_DIVERSEORDER>  (1) 
1
8
5
2
6
3
7
4

>  <PUBCHEM_MMFF94_PARTIAL_CHARGES>  (1) 
42
1 -0.08
10 0.1
11 0.33
12 0.2
13 0.51
14 0.37
17 -0.15
18 -0.15
19 -0.15
2 -0.2
20 -0.15
21 -0.11
22 -0.15
23 -0.15
24 -0.15
25 -0.15
28 -0.15
29 -0.15
3 -0.18
30 -0.15
31 -0.15
32 -0.15
33 -0.15
38 0.15
39 0.15
4 -0.57
40 0.15
41 0.15
42 0.15
43 0.15
44 0.15
45 0.15
46 0.15
5 0.33
53 0.15
54 0.15
55 0.15
56 0.15
57 0.15
58 0.15
6 0.1
9 0.04

>  <PUBCHEM_EFFECTIVE_ROTOR_COUNT>  (1) 
4.4

>  <PUBCHEM_PHARMACOPHORE_FEATURES>  (1) 
7
1 4 cation
5 1 3 5 9 11 rings
5 2 4 6 10 12 rings
6 5 7 9 15 17 19 rings
6 6 8 10 16 18 20 rings
6 7 15 23 28 30 32 rings
6 8 16 24 29 31 33 rings

>  <PUBCHEM_HEAVY_ATOM_COUNT>  (1) 
33

>  <PUBCHEM_ATOM_DEF_STEREO_COUNT>  (1) 
0

>  <PUBCHEM_ATOM_UDEF_STEREO_COUNT>  (1) 
0

>  <PUBCHEM_BOND_DEF_STEREO_COUNT>  (1) 
0

>  <PUBCHEM_BOND_UDEF_STEREO_COUNT>  (1) 
2

>  <PUBCHEM_ISOTOPIC_ATOM_COUNT>  (1) 
0

>  <PUBCHEM_COMPONENT_COUNT>  (1) 
1

>  <PUBCHEM_CACTVS_TAUTO_COUNT>  (1) 
1

>  <PUBCHEM_CONFORMER_ID>  (1) 
0000717100000001

>  <PUBCHEM_MMFF94_ENERGY>  (1) 
133.6792

>  <PUBCHEM_FEATURE_SELFOVERLAP>  (1) 
35.705

>  <PUBCHEM_SHAPE_FINGERPRINT>  (1) 
10299344 5 18410855456033914451
10580692 12 18411418414540425001
10595046 47 18335984186366083194
11135609 127 18042412486429110116
11315181 36 18412830188287797017
11524674 6 16559027208358126639
11534866 41 14189582923413775532
117089 54 18046348810818206643
11719270 70 17775286053775000590
12082328 90 18342457010928754861
12089408 11 18410011022671980083
12104220 1 17775290427138378497
12144603 126 18409735036869228153
14118638 360 17894908490628265361
14251764 18 18342458136220527699
15064981 194 17823997816141291403
15064986 266 18334580179190882667
15183329 4 18411700980333178314
15247644 1 15841838837565617102
15276724 80 18261386729005368405
15361156 5 18335139830103057091
15419008 47 15841548544166479275
15439362 3 17901109934669721596
15510794 2 17632298948303564958
1577012 14 18408318895467163963
15840311 113 18335988636590765716
1754911 235 18334860524079218742
18681886 176 18272646870756570066
21150785 3 18260267451610918212
21360443 120 18187364307789565635
21781055 127 17274836714248976883
232437 2 18342738538515892863
23516275 137 18268168477649935594
23522609 53 18196682694114251480
23559900 14 18199456827187438561
249057 3 18413388756435761088
3004659 81 18409725175107254634
335352 9 18341888594531387861
4017518 198 17203327823948438799
4073 2 17968382333158201306
4098825 35 18335700529060838697
4197921 191 18408885101010667896
4325135 7 18408604764184427318
439807 62 18412825784970463352
44802255 64 17095790072383383879
504579 68 18411139151382058461
9663363 56 16415476043692399666
99344 41 18341612590378349815

>  <PUBCHEM_SHAPE_MULTIPOLES>  (1) 
676.86
31.28
2.85
0.88
3.5
0.35
0
-2.03
7.53
0.1
-0.08
-0.71
0.08
-1.69

>  <PUBCHEM_SHAPE_SELFOVERLAP>  (1) 
1491.342

>  <PUBCHEM_SHAPE_VOLUME>  (1) 
366.3

>  <PUBCHEM_COORDINATE_TYPE>  (1) 
2
5
10

$$$$
