29047
     RDKit          3D

 16 17  0  0  0  0  0  0  0  0999 V2000
    0.1732   -2.5751    0.1076 O   0  0  0  0  0  0  0  0  0  0  0  0
    2.3749   -2.0313    0.0848 O   0  0  0  0  0  0  0  0  0  0  0  0
    3.1667    2.1641   -0.0863 O   0  0  0  0  0  0  0  0  0  0  0  0
    3.4218   -0.0143    0.0044 O   0  0  0  0  0  0  0  0  0  0  0  0
   -3.0817    0.3658   -0.0174 N   0  0  0  0  0  0  0  0  0  0  0  0
    1.2031   -1.5924    0.0679 N   0  0  0  0  0  0  0  0  0  0  0  0
   -1.0455   -1.9172    0.0800 N   0  0  0  0  0  0  0  0  0  0  0  0
    2.6813    1.0032   -0.0386 N   0  0  0  0  0  0  0  0  0  0  0  0
   -1.6863    0.4856   -0.0198 C   0  0  0  0  0  0  0  0  0  0  0  0
   -0.7940   -0.6013    0.0258 C   0  0  0  0  0  0  0  0  0  0  0  0
    0.6350   -0.3905    0.0178 C   0  0  0  0  0  0  0  0  0  0  0  0
    1.2799    0.8393   -0.0327 C   0  0  0  0  0  0  0  0  0  0  0  0
   -1.0498    1.7431   -0.0713 C   0  0  0  0  0  0  0  0  0  0  0  0
    0.3672    1.9102   -0.0774 C   0  0  0  0  0  0  0  0  0  0  0  0
   -3.9164    1.4058    0.5630 C   0  0  0  0  0  0  0  0  0  0  0  0
   -3.7295   -0.7950   -0.6076 C   0  0  0  0  0  0  0  0  0  0  0  0
  1  6  1  0
  1  7  1  0
  2  6  1  0
  3  8  1  0
  4  8  2  0
  5  9  1  0
  5 15  1  0
  5 16  1  0
  6 11  2  0
  7 10  2  0
  8 12  1  0
  9 10  1  0
  9 13  2  0
 10 11  1  0
 11 12  1  0
 12 14  2  0
 13 14  1  0
M  CHG  4   2  -1   3  -1   6   1   8   1
M  END
>  <PUBCHEM_COMPOUND_CID>  (1) 
29047

>  <PUBCHEM_CONFORMER_RMSD>  (1) 
0.6

>  <PUBCHEM_CONFORMER_DIVERSEORDER>  (1) 
1
2

>  <PUBCHEM_MMFF94_PARTIAL_CHARGES>  (1) 
18
1 -0.12
10 0.29
11 -0.08
12 0.13
13 -0.15
14 -0.15
15 0.37
16 0.37
17 0.15
18 0.15
2 -0.63
3 -0.52
4 -0.52
5 -0.84
6 0.95
7 -0.41
8 0.91
9 0.1

>  <PUBCHEM_EFFECTIVE_ROTOR_COUNT>  (1) 
2

>  <PUBCHEM_PHARMACOPHORE_FEATURES>  (1) 
8
1 2 anion
1 3 acceptor
1 3 anion
1 4 acceptor
1 5 cation
1 7 acceptor
5 1 6 7 10 11 rings
6 9 10 11 12 13 14 rings

>  <PUBCHEM_HEAVY_ATOM_COUNT>  (1) 
16

>  <PUBCHEM_ATOM_DEF_STEREO_COUNT>  (1) 
0

>  <PUBCHEM_ATOM_UDEF_STEREO_COUNT>  (1) 
0

>  <PUBCHEM_BOND_DEF_STEREO_COUNT>  (1) 
0

>  <PUBCHEM_BOND_UDEF_STEREO_COUNT>  (1) 
0

>  <PUBCHEM_ISOTOPIC_ATOM_COUNT>  (1) 
0

>  <PUBCHEM_COMPONENT_COUNT>  (1) 
1

>  <PUBCHEM_CACTVS_TAUTO_COUNT>  (1) 
1

>  <PUBCHEM_CONFORMER_ID>  (1) 
0000717700000001

>  <PUBCHEM_MMFF94_ENERGY>  (1) 
69.995

>  <PUBCHEM_FEATURE_SELFOVERLAP>  (1) 
40.802

>  <PUBCHEM_SHAPE_FINGERPRINT>  (1) 
10967382 1 18410292548840060628
10980938 120 18409446981464419713
11132069 177 18341041943642508809
11471102 20 18337387115795169085
11680986 33 18335711545631126954
11806522 49 18340481287813566335
13140716 1 18408886217681436251
13380535 76 18337387244306668698
13897977 150 18409729581701449909
14251717 144 18410567379871616655
14325111 11 18411138052034071053
14576447 43 18056460963249343959
15196674 1 18410855468718102893
15219456 202 18116430345767554493
15536298 74 18272088253797363478
15775835 57 18343305851296191857
16945 1 18408889567718782556
18186145 218 18412827954071587045
193761 8 17833550093969208605
20510252 161 17910681191118739097
20588541 1 18408886273494573845
20645476 183 17751377285377112212
20645477 70 18339918196199986479
21267235 1 18411707590430505167
21501502 16 18412540994621982251
2334 1 18410572864418272437
23402539 116 18271799138158515356
23463225 33 18335980891688453512
23559900 14 18270970171776134748
2748010 2 18337401529294087647
528886 8 18338512040359248744
53812653 166 18342174504959413457
63268167 104 18412825759670294353
7364860 26 18198063586186473262

>  <PUBCHEM_SHAPE_MULTIPOLES>  (1) 
285.87
5.59
2.53
0.62
1.97
0.64
-0.01
-1.45
-0.01
-0.92
0.07
0.23
-0.03
-0.41

>  <PUBCHEM_SHAPE_SELFOVERLAP>  (1) 
614.034

>  <PUBCHEM_SHAPE_VOLUME>  (1) 
159.7

>  <PUBCHEM_COORDINATE_TYPE>  (1) 
2
5
10

$$$$
