29046
     RDKit          3D

 24 27  0  0  1  0  0  0  0  0999 V2000
    0.5784   -0.3642    0.5509 O   0  0  0  0  0  0  0  0  0  0  0  0
    3.0806    0.4542   -0.7119 N   0  0  0  0  0  0  0  0  0  0  0  0
   -2.9017   -2.4725   -1.2499 N   0  0  0  0  0  0  0  0  0  0  0  0
    2.8951    0.2546    0.7440 C   0  0  0  0  0  0  0  0  0  0  0  0
    3.2455   -1.1955    1.1343 C   0  0  0  0  0  0  0  0  0  0  0  0
    4.6554   -1.5763    0.7013 C   0  0  0  0  0  0  0  0  0  0  0  0
    4.4616    0.1417   -1.1203 C   0  0  0  0  0  0  0  0  0  0  0  0
    4.8412   -1.2981   -0.7821 C   0  0  0  0  0  0  0  0  0  0  0  0
    1.4573    0.5385    1.2020 C   0  0  0  0  0  0  0  0  0  0  0  0
   -0.7764   -0.1502    0.9548 C   0  0  0  0  0  0  0  0  0  0  0  0
    2.7503    1.8171   -1.1388 C   0  0  0  0  0  0  0  0  0  0  0  0
   -1.2420    1.2524    0.6267 C   0  0  0  0  0  0  0  0  0  0  0  0
   -1.6221   -1.2877    0.4266 C   0  0  0  0  0  0  0  0  0  0  0  0
   -1.3389    1.7013   -0.7014 C   0  0  0  0  0  0  0  0  0  0  0  0
   -1.0535    0.7641   -1.8437 C   0  0  0  0  0  0  0  0  0  0  0  0
   -2.1108   -0.3307   -1.9340 C   0  0  0  0  0  0  0  0  0  0  0  0
   -2.1755   -1.3852   -0.8572 C   0  0  0  0  0  0  0  0  0  0  0  0
   -1.5542    2.1407    1.6700 C   0  0  0  0  0  0  0  0  0  0  0  0
   -1.8237   -2.3828    1.2901 C   0  0  0  0  0  0  0  0  0  0  0  0
   -1.7402    3.0211   -0.9614 C   0  0  0  0  0  0  0  0  0  0  0  0
   -1.9539    3.4495    1.4003 C   0  0  0  0  0  0  0  0  0  0  0  0
   -2.0451    3.8902    0.0846 C   0  0  0  0  0  0  0  0  0  0  0  0
   -2.5554   -3.4937    0.8947 C   0  0  0  0  0  0  0  0  0  0  0  0
   -3.0721   -3.4884   -0.3797 C   0  0  0  0  0  0  0  0  0  0  0  0
  1  9  1  0
  1 10  1  0
  2  4  1  0
  2  7  1  0
  2 11  1  0
  3 17  2  0
  3 24  1  0
  4  5  1  0
  4  9  1  0
  5  6  1  0
  6  8  1  0
  7  8  1  0
 10 12  1  0
 10 13  1  0
 12 14  2  0
 12 18  1  0
 13 17  1  0
 13 19  2  0
 14 15  1  0
 14 20  1  0
 15 16  1  0
 16 17  1  0
 18 21  2  0
 19 23  1  0
 20 22  2  0
 21 22  1  0
 23 24  2  0
M  END
>  <PUBCHEM_COMPOUND_CID>  (1) 
29046

>  <PUBCHEM_CONFORMER_RMSD>  (1) 
0.8

>  <PUBCHEM_CONFORMER_DIVERSEORDER>  (1) 
2
35
52
51
37
14
31
21
34
30
32
42
1
39
50
15
44
5
19
47
38
23
17
13
48
33
28
43
4
41
11
49
10
45
12
36
8
27
40
46
18
24
29
16
20
7
3
26
22
25
6
9

>  <PUBCHEM_MMFF94_PARTIAL_CHARGES>  (1) 
28
1 -0.56
10 0.57
11 0.27
12 -0.14
13 -0.14
14 -0.14
15 0.14
16 0.14
17 0.17
18 -0.15
19 -0.15
2 -0.81
20 -0.15
21 -0.15
22 -0.15
23 -0.15
24 0.16
3 -0.62
4 0.27
44 0.15
45 0.15
46 0.15
47 0.15
48 0.15
49 0.15
50 0.15
7 0.27
9 0.28

>  <PUBCHEM_EFFECTIVE_ROTOR_COUNT>  (1) 
4.8

>  <PUBCHEM_PHARMACOPHORE_FEATURES>  (1) 
7
1 1 acceptor
1 2 cation
1 3 acceptor
6 12 14 18 20 21 22 rings
6 2 4 5 6 7 8 rings
6 3 13 17 19 23 24 rings
7 10 12 13 14 15 16 17 rings

>  <PUBCHEM_HEAVY_ATOM_COUNT>  (1) 
24

>  <PUBCHEM_ATOM_DEF_STEREO_COUNT>  (1) 
0

>  <PUBCHEM_ATOM_UDEF_STEREO_COUNT>  (1) 
2

>  <PUBCHEM_BOND_DEF_STEREO_COUNT>  (1) 
0

>  <PUBCHEM_BOND_UDEF_STEREO_COUNT>  (1) 
0

>  <PUBCHEM_ISOTOPIC_ATOM_COUNT>  (1) 
0

>  <PUBCHEM_COMPONENT_COUNT>  (1) 
1

>  <PUBCHEM_CACTVS_TAUTO_COUNT>  (1) 
1

>  <PUBCHEM_CONFORMER_ID>  (1) 
0000717600000002

>  <PUBCHEM_MMFF94_ENERGY>  (1) 
63.1362

>  <PUBCHEM_FEATURE_SELFOVERLAP>  (1) 
35.539

>  <PUBCHEM_SHAPE_FINGERPRINT>  (1) 
10391435 84 17770231458354920614
10764073 3 15190841048968452375
107951 10 18055077549217974231
11578080 2 17560510819537992192
12553582 1 18264775547990420610
12714826 92 17989495125596324554
12788726 201 18411135827303977475
13004483 165 18341055228182330355
13681431 1 17834955652350445809
13911987 19 17323534354578734732
14955137 171 18119549849524494251
15664445 248 17906742753511495004
1813 80 17841732990426505303
18785283 64 17254283323809453627
20600515 1 17829565704533082897
20645476 183 18195249914472131720
21120745 212 18194706931758541340
21524375 3 17981322292268826585
22907989 373 18409448098345866694
23419403 2 16891399853254088701
23557571 272 18266439070644460416
23598288 3 18271538549570848364
3027735 51 18201149949886365303
35225 105 18269294386208905033
3729539 64 17042915398967407950
463206 1 17830739012500298958
469060 322 13913189970074709978
4921388 177 18341615863337919598
633830 44 12036816112597944007
6786 2 17695100732603781937
70251023 43 18267314303512253802
81228 2 18340195371487406481
84936 31 17117467222337018841

>  <PUBCHEM_SHAPE_MULTIPOLES>  (1) 
478.08
7.37
4.64
1.76
12.72
0.29
-0.25
-3.45
-1.15
-6.6
0.73
-0.47
0.28
-0.95

>  <PUBCHEM_SHAPE_SELFOVERLAP>  (1) 
1025.349

>  <PUBCHEM_SHAPE_VOLUME>  (1) 
261.4

>  <PUBCHEM_COORDINATE_TYPE>  (1) 
2
5
10

$$$$
