29049
     RDKit          3D

 14 15  0  0  0  0  0  0  0  0999 V2000
    2.2466   -1.5318    0.0006 O   0  0  0  0  0  0  0  0  0  0  0  0
    3.7284    0.1917    0.0000 O   0  0  0  0  0  0  0  0  0  0  0  0
   -3.2700   -0.6851    0.0000 O   0  0  0  0  0  0  0  0  0  0  0  0
   -1.7706   -2.2885   -0.0005 O   0  0  0  0  0  0  0  0  0  0  0  0
    2.5207   -0.1344    0.0001 N   0  0  0  0  0  0  0  0  0  0  0  0
    0.8711   -1.6966    0.0003 N   0  0  0  0  0  0  0  0  0  0  0  0
   -2.0718   -1.0675   -0.0001 N   0  0  0  0  0  0  0  0  0  0  0  0
    0.3172   -0.4757   -0.0001 C   0  0  0  0  0  0  0  0  0  0  0  0
   -1.0391   -0.1016   -0.0004 C   0  0  0  0  0  0  0  0  0  0  0  0
    1.3629    0.5208   -0.0001 C   0  0  0  0  0  0  0  0  0  0  0  0
   -1.2450    1.2937   -0.0004 C   0  0  0  0  0  0  0  0  0  0  0  0
    1.1800    1.8982   -0.0003 C   0  0  0  0  0  0  0  0  0  0  0  0
   -0.1838    2.2475   -0.0004 C   0  0  0  0  0  0  0  0  0  0  0  0
   -2.6465    1.8293    0.0013 C   0  0  0  0  0  0  0  0  0  0  0  0
  1  5  1  0
  1  6  1  0
  2  5  1  0
  3  7  1  0
  4  7  2  0
  5 10  2  0
  6  8  2  0
  7  9  1  0
  8  9  1  0
  8 10  1  0
  9 11  2  0
 10 12  1  0
 11 13  1  0
 11 14  1  0
 12 13  2  0
M  CHG  4   2  -1   3  -1   5   1   7   1
M  END
>  <PUBCHEM_COMPOUND_CID>  (1) 
29049

>  <PUBCHEM_CONFORMER_RMSD>  (1) 
0.4

>  <PUBCHEM_CONFORMER_DIVERSEORDER>  (1) 
1

>  <PUBCHEM_MMFF94_PARTIAL_CHARGES>  (1) 
16
1 -0.12
10 -0.08
11 -0.14
12 -0.15
13 -0.15
14 0.14
15 0.15
16 0.15
2 -0.63
3 -0.52
4 -0.52
5 0.95
6 -0.41
7 0.91
8 0.29
9 0.13

>  <PUBCHEM_EFFECTIVE_ROTOR_COUNT>  (1) 
1

>  <PUBCHEM_PHARMACOPHORE_FEATURES>  (1) 
7
1 2 anion
1 3 acceptor
1 3 anion
1 4 acceptor
1 6 acceptor
5 1 5 6 8 10 rings
6 8 9 10 11 12 13 rings

>  <PUBCHEM_HEAVY_ATOM_COUNT>  (1) 
14

>  <PUBCHEM_ATOM_DEF_STEREO_COUNT>  (1) 
0

>  <PUBCHEM_ATOM_UDEF_STEREO_COUNT>  (1) 
0

>  <PUBCHEM_BOND_DEF_STEREO_COUNT>  (1) 
0

>  <PUBCHEM_BOND_UDEF_STEREO_COUNT>  (1) 
0

>  <PUBCHEM_ISOTOPIC_ATOM_COUNT>  (1) 
0

>  <PUBCHEM_COMPONENT_COUNT>  (1) 
1

>  <PUBCHEM_CACTVS_TAUTO_COUNT>  (1) 
1

>  <PUBCHEM_CONFORMER_ID>  (1) 
0000717900000001

>  <PUBCHEM_MMFF94_ENERGY>  (1) 
47.6446

>  <PUBCHEM_FEATURE_SELFOVERLAP>  (1) 
35.734

>  <PUBCHEM_SHAPE_FINGERPRINT>  (1) 
10967382 1 18410856594089218213
11132069 177 18410569553241320872
11206711 2 18409168830781983517
12382932 28 18340204077138058896
12423570 1 12252485305501174952
12524768 44 18126008152464146375
13140716 1 18122345949910130843
13380535 21 18268722614387148804
13380535 76 18268706108674953503
16945 1 18410574023869499301
193761 8 18338797947800607713
20201158 50 18409163346293446839
20588541 1 18268993089857961204
20871998 184 18273214170873441661
21501502 16 18338232657105412154
22802520 49 17842291271729357534
2334 1 18266741474754457772
23463225 33 18335701611672055208
23552423 10 18262238931651846077
23559900 14 18270965636279451606
241688 4 18409166636069753249
2748010 2 18267307521415768199
5084963 1 18129947900237206928
528886 8 18339355262730303248
53812653 166 18342452612803180808
6333449 129 18339920424581306337
8809292 202 18115871969606117939

>  <PUBCHEM_SHAPE_MULTIPOLES>  (1) 
249.69
4.29
2.44
0.57
0.95
0.03
0
-0.49
0
-0.85
0
-0.02
0.06
0

>  <PUBCHEM_SHAPE_SELFOVERLAP>  (1) 
543.199

>  <PUBCHEM_SHAPE_VOLUME>  (1) 
138

>  <PUBCHEM_COORDINATE_TYPE>  (1) 
2
5
10

$$$$
