29059
     RDKit          3D

 18 18  0  0  0  0  0  0  0  0999 V2000
    1.3984   -1.6765    0.1780 Si  0  0  0  0  0  4  0  0  0  0  0  0
   -1.7570   -1.7314   -0.0325 Si  0  0  0  0  0  4  0  0  0  0  0  0
    2.7557    1.1869    0.0412 Si  0  0  0  0  0  4  0  0  0  0  0  0
   -0.2061   -2.0114    0.5314 O   0  0  0  0  0  0  0  0  0  0  0  0
    1.6131   -0.0186    0.2223 O   0  0  0  0  0  0  0  0  0  0  0  0
   -1.9717    0.1542   -0.0237 C   0  0  0  0  0  0  0  0  0  0  0  0
    1.8438   -2.3595   -1.5167 C   0  0  0  0  0  0  0  0  0  0  0  0
    2.5076   -2.5185    1.4423 C   0  0  0  0  0  0  0  0  0  0  0  0
   -2.0003   -2.4377   -1.7506 C   0  0  0  0  0  0  0  0  0  0  0  0
   -3.0359   -2.4907    1.1141 C   0  0  0  0  0  0  0  0  0  0  0  0
    1.9908    2.8848    0.2997 C   0  0  0  0  0  0  0  0  0  0  0  0
    3.4808    1.1277   -1.6946 C   0  0  0  0  0  0  0  0  0  0  0  0
    4.1629    0.9732    1.2699 C   0  0  0  0  0  0  0  0  0  0  0  0
   -1.6489    0.8637   -1.1603 C   0  0  0  0  0  0  0  0  0  0  0  0
   -2.4440    0.7629    1.1190 C   0  0  0  0  0  0  0  0  0  0  0  0
   -1.8060    2.2496   -1.1538 C   0  0  0  0  0  0  0  0  0  0  0  0
   -2.6011    2.1489    1.1253 C   0  0  0  0  0  0  0  0  0  0  0  0
   -2.2820    2.8922   -0.0112 C   0  0  0  0  0  0  0  0  0  0  0  0
  1  4  1  0
  1  5  1  0
  1  7  1  0
  1  8  1  0
  2  4  1  0
  2  6  1  0
  2  9  1  0
  2 10  1  0
  3  5  1  0
  3 11  1  0
  3 12  1  0
  3 13  1  0
  6 14  2  0
  6 15  1  0
 14 16  1  0
 15 17  2  0
 16 18  2  0
 17 18  1  0
M  END
>  <PUBCHEM_COMPOUND_CID>  (1) 
29059

>  <PUBCHEM_CONFORMER_RMSD>  (1) 
0.6

>  <PUBCHEM_CONFORMER_DIVERSEORDER>  (1) 
2
3
18
1
24
22
14
12
5
17
4
7
20
8
6
19
13
11
21
23
25
16
9
15
10

>  <PUBCHEM_MMFF94_PARTIAL_CHARGES>  (1) 
23
1 0.76
10 -0.08
11 -0.08
12 -0.08
13 -0.08
14 -0.15
15 -0.15
16 -0.15
17 -0.15
18 -0.15
2 0.68
3 0.54
4 -0.59
40 0.15
41 0.15
42 0.15
43 0.15
44 0.15
5 -0.59
6 -0.22
7 -0.08
8 -0.08
9 -0.08

>  <PUBCHEM_EFFECTIVE_ROTOR_COUNT>  (1) 
5

>  <PUBCHEM_PHARMACOPHORE_FEATURES>  (1) 
1
6 6 14 15 16 17 18 rings

>  <PUBCHEM_HEAVY_ATOM_COUNT>  (1) 
18

>  <PUBCHEM_ATOM_DEF_STEREO_COUNT>  (1) 
0

>  <PUBCHEM_ATOM_UDEF_STEREO_COUNT>  (1) 
0

>  <PUBCHEM_BOND_DEF_STEREO_COUNT>  (1) 
0

>  <PUBCHEM_BOND_UDEF_STEREO_COUNT>  (1) 
0

>  <PUBCHEM_ISOTOPIC_ATOM_COUNT>  (1) 
0

>  <PUBCHEM_COMPONENT_COUNT>  (1) 
1

>  <PUBCHEM_CACTVS_TAUTO_COUNT>  (1) 
1

>  <PUBCHEM_CONFORMER_ID>  (1) 
0000718300000002

>  <PUBCHEM_MMFF94_ENERGY>  (1) 
14.713

>  <PUBCHEM_FEATURE_SELFOVERLAP>  (1) 
5.074

>  <PUBCHEM_SHAPE_FINGERPRINT>  (1) 
10498660 4 18190745421401795588
12596599 1 17486222406590900711
12633257 1 17758419382580950289
128993 33 18337123262752834356
13132413 78 18044086857426818362
13140716 1 18121780788075062137
14142880 1 18411980303905917361
14178342 30 18411697695021112272
14223421 5 18410579499995097251
14251751 93 18340216258171530806
14251757 17 17770537225000615916
14251764 3 16986285418014242576
14386348 128 18338250257860558556
14713325 29 17393931578989961006
16945 1 18127982007775216414
17492 54 17401190669855400807
18219364 16 17901947431231256045
18981168 100 17917434198431815618
20233049 118 17685227070894286078
20510252 161 18121500412710127960
20600515 1 17615967050811715076
20671657 1 18339362946690312410
20905425 154 18410579495974560086
21524375 3 18050564050223904791
23402539 116 17981598574698440102
23419403 2 16391639666404757050
23558518 356 18336820893108297295
238 59 17685191903818124525
2748010 2 18193279589555918797
3060560 45 17478876200397257511
350125 39 18336553732846322474
469060 322 18117009985652405449
5939293 188 17907296546620605608
70251023 43 18342734164973972983
7097593 13 18042393643579082538
7832392 63 18338514123798383866
81228 2 17690844883959324856

>  <PUBCHEM_SHAPE_MULTIPOLES>  (1) 
413.33
6.18
4.19
1.63
3.36
0.53
-0.35
1.31
0.87
-1.38
0.07
0.21
-0.45
-0.32

>  <PUBCHEM_SHAPE_SELFOVERLAP>  (1) 
764.725

>  <PUBCHEM_SHAPE_VOLUME>  (1) 
261.3

>  <PUBCHEM_COORDINATE_TYPE>  (1) 
2
5
10

$$$$
