29058
     RDKit          3D

 36 41  0  0  1  0  0  0  0  0999 V2000
    3.4071   -2.7001   -1.5978 O   0  0  0  0  0  0  0  0  0  0  0  0
   -3.7388    0.1087    0.9689 O   0  0  0  0  0  0  0  0  0  0  0  0
    6.6151    2.7701    0.9141 O   0  0  0  0  0  0  0  0  0  0  0  0
   -5.3334    1.6991    0.3295 O   0  0  0  0  0  0  0  0  0  0  0  0
    8.3841    2.5648   -0.5436 O   0  0  0  0  0  0  0  0  0  0  0  0
   -6.9211   -0.6327   -1.7736 O   0  0  0  0  0  0  0  0  0  0  0  0
   -8.7205    1.3497   -1.0803 O   0  0  0  0  0  0  0  0  0  0  0  0
    2.8237   -1.5454   -0.9734 C   0  0  0  0  0  0  0  0  0  0  0  0
    1.5396   -2.0251   -0.2233 C   0  0  0  0  0  0  0  0  0  0  0  0
    0.9784   -0.9407    0.7381 C   0  0  0  0  0  0  0  0  0  0  0  0
    3.8923   -0.8705   -0.0285 C   0  0  0  0  0  0  0  0  0  0  0  0
   -0.3656   -1.3685    1.4457 C   0  0  0  0  0  0  0  0  0  0  0  0
   -1.4058   -1.8317    0.3777 C   0  0  0  0  0  0  0  0  0  0  0  0
    2.0515   -0.4333    1.7295 C   0  0  0  0  0  0  0  0  0  0  0  0
    3.4678   -0.9258    1.4507 C   0  0  0  0  0  0  0  0  0  0  0  0
    3.9680    0.5999   -0.5504 C   0  0  0  0  0  0  0  0  0  0  0  0
    0.4658   -2.5457   -1.2044 C   0  0  0  0  0  0  0  0  0  0  0  0
    2.5527   -0.5083   -2.0929 C   0  0  0  0  0  0  0  0  0  0  0  0
   -0.8394   -2.9383   -0.5230 C   0  0  0  0  0  0  0  0  0  0  0  0
    3.7314    0.4530   -2.0496 C   0  0  0  0  0  0  0  0  0  0  0  0
   -0.9827   -0.2001    2.2694 C   0  0  0  0  0  0  0  0  0  0  0  0
   -1.9537   -0.6642   -0.4752 C   0  0  0  0  0  0  0  0  0  0  0  0
    5.2752   -1.5684   -0.1245 C   0  0  0  0  0  0  0  0  0  0  0  0
   -0.1248   -2.5345    2.4442 C   0  0  0  0  0  0  0  0  0  0  0  0
   -1.5150    0.9546    1.4213 C   0  0  0  0  0  0  0  0  0  0  0  0
   -2.5062    0.4882    0.3606 C   0  0  0  0  0  0  0  0  0  0  0  0
    5.2053    1.3706   -0.2239 C   0  0  0  0  0  0  0  0  0  0  0  0
    5.2925    2.2261    0.9770 C   0  0  0  0  0  0  0  0  0  0  0  0
    6.3389    1.4009   -0.9195 C   0  0  0  0  0  0  0  0  0  0  0  0
   -4.8454    0.3753    0.1121 C   0  0  0  0  0  0  0  0  0  0  0  0
    7.2466    2.2946   -0.1985 C   0  0  0  0  0  0  0  0  0  0  0  0
   -5.9368   -0.6512    0.4242 C   0  0  0  0  0  0  0  0  0  0  0  0
   -7.1942   -0.3766   -0.3952 C   0  0  0  0  0  0  0  0  0  0  0  0
   -6.4419    2.0305   -0.5160 C   0  0  0  0  0  0  0  0  0  0  0  0
   -7.6165    1.0852   -0.2241 C   0  0  0  0  0  0  0  0  0  0  0  0
   -6.7943    3.4898   -0.2454 C   0  0  0  0  0  0  0  0  0  0  0  0
  1  8  1  0
  2 26  1  0
  2 30  1  0
  3 28  1  0
  3 31  1  0
  4 30  1  0
  4 34  1  0
  5 31  2  0
  6 33  1  0
  7 35  1  0
  8  9  1  0
  8 11  1  0
  8 18  1  0
  9 10  1  0
  9 17  1  0
 10 12  1  0
 10 14  1  0
 11 15  1  0
 11 16  1  0
 11 23  1  0
 12 13  1  0
 12 21  1  0
 12 24  1  0
 13 19  1  0
 13 22  1  0
 14 15  1  0
 16 20  1  0
 16 27  1  0
 17 19  1  0
 18 20  1  0
 21 25  1  0
 22 26  1  0
 25 26  1  0
 27 28  1  0
 27 29  2  0
 29 31  1  0
 30 32  1  0
 32 33  1  0
 33 35  1  0
 34 35  1  0
 34 36  1  0
M  END
>  <PUBCHEM_COMPOUND_CID>  (1) 
29058

>  <PUBCHEM_CONFORMER_RMSD>  (1) 
1

>  <PUBCHEM_CONFORMER_DIVERSEORDER>  (1) 
1
61
87
84
26
42
83
88
36
128
15
118
48
125
12
127
52
101
55
135
77
34
102
129
66
69
25
65
99
21
131
13
123
114
94
92
136
73
90
22
74
126
18
45
81
49
109
67
93
104
133
105
27
37
64
5
116
9
54
103
30
4
108
33
85
20
78
39
16
11
71
79
41
100
124
112
17
120
106
75
89
29
132
51
50
107
110
7
76
72
24
117
91
80
113
19
40
44
3
62
43
23
63
58
68
35
95
119
8
111
31
14
134
60
86
6
10
115
28
121
70
32
130
82
122
47
57
59
97
2
56
96
46
98
38
53

>  <PUBCHEM_MMFF94_PARTIAL_CHARGES>  (1) 
22
1 -0.68
16 0.14
2 -0.56
26 0.28
27 -0.28
28 0.42
29 -0.14
3 -0.43
30 0.56
31 0.71
33 0.28
34 0.28
35 0.28
4 -0.56
5 -0.57
6 -0.68
66 0.4
69 0.15
7 -0.68
79 0.4
8 0.28
80 0.4

>  <PUBCHEM_EFFECTIVE_ROTOR_COUNT>  (1) 
6.8

>  <PUBCHEM_PHARMACOPHORE_FEATURES>  (1) 
15
1 1 acceptor
1 1 donor
1 2 acceptor
1 4 acceptor
1 5 acceptor
1 6 acceptor
1 6 donor
1 7 acceptor
1 7 donor
5 3 27 28 29 31 rings
5 8 11 16 18 20 rings
6 12 13 21 22 25 26 rings
6 4 30 32 33 34 35 rings
6 8 9 10 11 14 15 rings
6 9 10 12 13 17 19 rings

>  <PUBCHEM_HEAVY_ATOM_COUNT>  (1) 
36

>  <PUBCHEM_ATOM_DEF_STEREO_COUNT>  (1) 
8

>  <PUBCHEM_ATOM_UDEF_STEREO_COUNT>  (1) 
4

>  <PUBCHEM_BOND_DEF_STEREO_COUNT>  (1) 
0

>  <PUBCHEM_BOND_UDEF_STEREO_COUNT>  (1) 
0

>  <PUBCHEM_ISOTOPIC_ATOM_COUNT>  (1) 
0

>  <PUBCHEM_COMPONENT_COUNT>  (1) 
1

>  <PUBCHEM_CACTVS_TAUTO_COUNT>  (1) 
1

>  <PUBCHEM_CONFORMER_ID>  (1) 
0000718200000001

>  <PUBCHEM_MMFF94_ENERGY>  (1) 
121.6125

>  <PUBCHEM_FEATURE_SELFOVERLAP>  (1) 
76.443

>  <PUBCHEM_SHAPE_FINGERPRINT>  (1) 
10673678 19 18343586234960949430
10692045 39 11963388536030812321
11135609 187 18343582945274385657
11297010 23 17917439727014614588
11409948 41 16557924325597657796
11961588 58 18343587364853917786
12107183 9 12324243879757819753
12422481 6 13190342374881341051
12633257 1 16226613021778944222
13150687 139 17775017808193646022
13673619 4 10375879562981964186
13690498 29 14333136243450931537
13726171 33 18340776945146640409
13782708 43 10807637988374767793
13811026 1 18260551134021614050
14767858 380 17346601867599278107
14931854 50 17632868520558564264
15064986 96 14057535969994207560
15082195 135 17917992776345634082
15183329 4 16343704331431047523
15238133 3 17676780867825588324
15352257 5 10519981573982319077
15361156 5 18202558481175651127
16994733 274 18334572430621604449
17492 54 17489593367877116602
19304144 158 18411418397871966861
20511986 3 17894905193116716455
20715895 44 18411421687373913958
20721686 146 18115595980368502076
21033648 29 17531253859290203946
21298829 104 18259989270684921341
21344244 181 12031789175969931620
21424621 283 18260547827234503843
21585481 151 9007059071483727397
23522609 53 16915964902140331771
23569943 247 10879728562976588797
24771293 8 18260268555560568781
25269216 80 17845361306517017311
27425 322 18260545671366727626
2838139 119 18334577898019656299
3103668 31 17128727200400391006
3472631 163 18409731794015782760
34797466 226 18201160962672336543
3504750 166 8069733080623593873
3918712 181 18337384951575322261
4073 2 18335140882808063731
4112364 45 18187916262641883914
4149490 64 17531814546344968099
439807 62 9655582915646097816
5104073 3 14274321252813944665
5265222 85 18342738504161312479
54039377 194 8646499518423105688
5937810 71 18131078091650789985
6058803 2 16483344360589283770

>  <PUBCHEM_SHAPE_MULTIPOLES>  (1) 
699.78
22.24
3.31
1.83
21.64
0.77
-0.27
23.12
6.36
-1.72
0.11
-0.74
-0.73
0.87

>  <PUBCHEM_SHAPE_SELFOVERLAP>  (1) 
1500.554

>  <PUBCHEM_SHAPE_VOLUME>  (1) 
384

>  <PUBCHEM_COORDINATE_TYPE>  (1) 
2
5
10

$$$$
