29052
     RDKit          3D

 12 13  0  0  0  0  0  0  0  0999 V2000
   -2.0454   -1.3413   -0.0027 O   0  0  0  0  0  0  0  0  0  0  0  0
    3.0362    0.8073    0.0011 O   0  0  0  0  0  0  0  0  0  0  0  0
   -0.6257    0.6394   -0.0011 C   0  0  0  0  0  0  0  0  0  0  0  0
   -0.8150   -0.7455   -0.0011 C   0  0  0  0  0  0  0  0  0  0  0  0
    0.6748    1.1578   -0.0008 C   0  0  0  0  0  0  0  0  0  0  0  0
   -1.7776    1.5265   -0.0023 C   0  0  0  0  0  0  0  0  0  0  0  0
   -3.2109   -0.5046    0.0056 C   0  0  0  0  0  0  0  0  0  0  0  0
    0.2877   -1.6040   -0.0011 C   0  0  0  0  0  0  0  0  0  0  0  0
    1.7742    0.2978    0.0000 C   0  0  0  0  0  0  0  0  0  0  0  0
   -2.9929    0.9760    0.0008 C   0  0  0  0  0  0  0  0  0  0  0  0
    1.5807   -1.0820   -0.0002 C   0  0  0  0  0  0  0  0  0  0  0  0
    4.1140   -0.1277    0.0019 C   0  0  0  0  0  0  0  0  0  0  0  0
  1  4  1  0
  1  7  1  0
  2  9  1  0
  2 12  1  0
  3  4  2  0
  3  5  1  0
  3  6  1  0
  4  8  1  0
  5  9  2  0
  6 10  2  0
  7 10  1  0
  8 11  2  0
  9 11  1  0
M  END
>  <PUBCHEM_COMPOUND_CID>  (1) 
29052

>  <PUBCHEM_CONFORMER_RMSD>  (1) 
0.4

>  <PUBCHEM_CONFORMER_DIVERSEORDER>  (1) 
1
2

>  <PUBCHEM_MMFF94_PARTIAL_CHARGES>  (1) 
17
1 -0.36
10 -0.29
11 -0.15
12 0.28
13 0.15
14 0.15
17 0.15
18 0.15
19 0.15
2 -0.36
3 0.03
4 0.08
5 -0.15
6 -0.18
7 0.42
8 -0.15
9 0.08

>  <PUBCHEM_EFFECTIVE_ROTOR_COUNT>  (1) 
1.4

>  <PUBCHEM_PHARMACOPHORE_FEATURES>  (1) 
4
1 1 acceptor
1 2 acceptor
6 1 3 4 6 7 10 rings
6 3 4 5 8 9 11 rings

>  <PUBCHEM_HEAVY_ATOM_COUNT>  (1) 
12

>  <PUBCHEM_ATOM_DEF_STEREO_COUNT>  (1) 
0

>  <PUBCHEM_ATOM_UDEF_STEREO_COUNT>  (1) 
0

>  <PUBCHEM_BOND_DEF_STEREO_COUNT>  (1) 
0

>  <PUBCHEM_BOND_UDEF_STEREO_COUNT>  (1) 
0

>  <PUBCHEM_ISOTOPIC_ATOM_COUNT>  (1) 
0

>  <PUBCHEM_COMPONENT_COUNT>  (1) 
1

>  <PUBCHEM_CACTVS_TAUTO_COUNT>  (1) 
1

>  <PUBCHEM_CONFORMER_ID>  (1) 
0000717C00000001

>  <PUBCHEM_MMFF94_ENERGY>  (1) 
42.9355

>  <PUBCHEM_FEATURE_SELFOVERLAP>  (1) 
20.327

>  <PUBCHEM_SHAPE_FINGERPRINT>  (1) 
10608611 8 18412541007370032968
11132069 177 18411694392053754064
12032990 46 18411707590498836558
13380535 21 18339935804848598343
13380535 76 18410572859896783127
14325111 11 18410855456097133472
14897335 6 18338793416667645583
14993402 34 18113621205042789020
15219456 202 18201727197674651510
15536298 74 18270679758418261622
15775835 57 18410015398990473081
16945 1 18410575106327851943
193761 8 17762336912060575456
20201158 50 18412262826553772743
20645476 183 17751096880005858046
20871998 184 18201162173362971447
21501502 16 18338513015401311803
23235685 24 18410849945421977644
23402539 116 18343010108031695510
23402655 69 18269259181111241613
23463225 33 18334573508526130522
23552423 10 18261676969656940815
23559900 14 18272370867963715956
2748010 2 18266744588631744583
5084963 1 18201441427561612289
528886 8 18411131428977898145
53812653 166 18343297063597854256
54173680 148 18120376711610665778
6333449 129 18413105061134927829
7364860 26 18125721188757212294

>  <PUBCHEM_SHAPE_MULTIPOLES>  (1) 
235.22
5.52
1.6
0.6
2.66
0.16
0
-0.57
-0.01
-0.47
0
-0.01
0
0

>  <PUBCHEM_SHAPE_SELFOVERLAP>  (1) 
505.252

>  <PUBCHEM_SHAPE_VOLUME>  (1) 
130.5

>  <PUBCHEM_COORDINATE_TYPE>  (1) 
2
5
10

$$$$
