29057
     RDKit          3D

 15 16  0  0  0  0  0  0  0  0999 V2000
   -0.4624    0.8612   -0.0001 O   0  0  0  0  0  0  0  0  0  0  0  0
    1.2632   -2.8339   -0.0004 O   0  0  0  0  0  0  0  0  0  0  0  0
   -2.9692    1.1674    0.0000 O   0  0  0  0  0  0  0  0  0  0  0  0
   -3.4373   -1.0999   -0.0004 O   0  0  0  0  0  0  0  0  0  0  0  0
    1.5596   -0.4873    0.0006 C   0  0  0  0  0  0  0  0  0  0  0  0
    0.9056    0.7455    0.0004 C   0  0  0  0  0  0  0  0  0  0  0  0
    0.7549   -1.7211    0.0005 C   0  0  0  0  0  0  0  0  0  0  0  0
   -1.2062   -0.3000   -0.0001 C   0  0  0  0  0  0  0  0  0  0  0  0
    2.9551   -0.5458    0.0003 C   0  0  0  0  0  0  0  0  0  0  0  0
    1.6459    1.9278   -0.0001 C   0  0  0  0  0  0  0  0  0  0  0  0
   -0.7114   -1.5439    0.0001 C   0  0  0  0  0  0  0  0  0  0  0  0
    3.6927    0.6388   -0.0003 C   0  0  0  0  0  0  0  0  0  0  0  0
    3.0400    1.8726   -0.0004 C   0  0  0  0  0  0  0  0  0  0  0  0
   -2.6631   -0.1551   -0.0004 C   0  0  0  0  0  0  0  0  0  0  0  0
   -4.3674    1.4738    0.0004 C   0  0  0  0  0  0  0  0  0  0  0  0
  1  6  1  0
  1  8  1  0
  2  7  2  0
  3 14  1  0
  3 15  1  0
  4 14  2  0
  5  6  2  0
  5  7  1  0
  5  9  1  0
  6 10  1  0
  7 11  1  0
  8 11  2  0
  8 14  1  0
  9 12  2  0
 10 13  2  0
 12 13  1  0
M  END
>  <PUBCHEM_COMPOUND_CID>  (1) 
29057

>  <PUBCHEM_CONFORMER_RMSD>  (1) 
0.6

>  <PUBCHEM_CONFORMER_DIVERSEORDER>  (1) 
1
3
2

>  <PUBCHEM_MMFF94_PARTIAL_CHARGES>  (1) 
20
1 -0.16
10 -0.15
11 -0.14
12 -0.15
13 -0.15
14 0.71
15 0.28
16 0.15
17 0.15
18 0.15
19 0.15
2 -0.57
20 0.15
3 -0.43
4 -0.57
5 0.09
6 0.08
7 0.47
8 0.09
9 -0.15

>  <PUBCHEM_EFFECTIVE_ROTOR_COUNT>  (1) 
2

>  <PUBCHEM_PHARMACOPHORE_FEATURES>  (1) 
5
1 1 acceptor
1 2 acceptor
1 4 acceptor
6 1 5 6 7 8 11 rings
6 5 6 9 10 12 13 rings

>  <PUBCHEM_HEAVY_ATOM_COUNT>  (1) 
15

>  <PUBCHEM_ATOM_DEF_STEREO_COUNT>  (1) 
0

>  <PUBCHEM_ATOM_UDEF_STEREO_COUNT>  (1) 
0

>  <PUBCHEM_BOND_DEF_STEREO_COUNT>  (1) 
0

>  <PUBCHEM_BOND_UDEF_STEREO_COUNT>  (1) 
0

>  <PUBCHEM_ISOTOPIC_ATOM_COUNT>  (1) 
0

>  <PUBCHEM_COMPONENT_COUNT>  (1) 
1

>  <PUBCHEM_CACTVS_TAUTO_COUNT>  (1) 
1

>  <PUBCHEM_CONFORMER_ID>  (1) 
0000718100000001

>  <PUBCHEM_MMFF94_ENERGY>  (1) 
39.5473

>  <PUBCHEM_FEATURE_SELFOVERLAP>  (1) 
25.4

>  <PUBCHEM_SHAPE_FINGERPRINT>  (1) 
10411042 1 17546165199536917647
10465860 228 18340775818995082025
10608611 8 18409447007440224621
10967382 1 18338797805992405188
10980938 120 18410011009428239066
11471102 20 18410852118685946605
11543360 7 15554158276476690728
12654215 9 18338232661516456532
13140716 1 18409442618057241688
13380535 76 18408321120212588163
13897977 150 18409444765514548117
13922767 16 18413102862254311568
14144814 61 18410011069600193712
14251717 144 18411412912571073095
14325111 11 18410575127644627745
14415576 193 18408325488194289317
14897335 6 18411978036294806797
15196674 1 18410574006853264356
15219456 202 18335425647206970187
15442244 35 17980482261100443521
15536298 74 18271807891296420718
15775835 57 18411140250877848693
16945 1 18410855421658215366
18186145 218 18202014247455595624
193761 8 17762055441721749444
20510252 161 17982738763655248913
20645476 183 17825122638538292166
20645477 70 18272088241202768303
21501502 16 18409441475712192987
21524375 3 18335978774227527922
231179 274 17894902993365460661
2334 1 18194683897990863848
23402539 116 18272925047019133468
23402655 69 18343580750451223197
23463225 33 18335134285173313610
23559900 14 18127420154278477212
25 1 18408884018657758076
2748010 2 18265903638509502998
3071541 12 18339646637754220174
3071541 37 18335145245845586982
3091708 16 9190719273183492778
335352 9 18338516314036376798
5104073 3 18410011052414881713
528886 8 18411132576082306336
53812653 166 18412260623251406736
633830 44 18343585152703037620
7364860 26 18269274569219355486
81228 2 17402037298183259882
8272917 22 18270403763740270855

>  <PUBCHEM_SHAPE_MULTIPOLES>  (1) 
285.22
6.52
2.35
0.59
4.45
0.71
0
-3.16
0
-0.58
0
-0.04
-0.01
0

>  <PUBCHEM_SHAPE_SELFOVERLAP>  (1) 
621.185

>  <PUBCHEM_SHAPE_VOLUME>  (1) 
154.8

>  <PUBCHEM_COORDINATE_TYPE>  (1) 
2
5
10

$$$$
