29066
     RDKit          3D

 21 22  0  0  0  0  0  0  0  0999 V2000
   -1.7672   -0.7841   -0.1452 O   0  0  0  0  0  0  0  0  0  0  0  0
    4.1136    1.1921    0.5420 O   0  0  0  0  0  0  0  0  0  0  0  0
    1.8541    2.5656   -0.2799 O   0  0  0  0  0  0  0  0  0  0  0  0
    3.9971   -1.5520    0.8974 O   0  0  0  0  0  0  0  0  0  0  0  0
   -0.7423   -2.7434   -0.7850 O   0  0  0  0  0  0  0  0  0  0  0  0
   -3.9202    0.5918    0.9029 N   0  0  0  0  0  0  0  0  0  0  0  0
   -5.9730    0.8700    0.1024 N   0  0  0  0  0  0  0  0  0  0  0  0
    0.5664   -0.8531   -0.1535 C   0  0  0  0  0  0  0  0  0  0  0  0
    2.9490    0.5206    0.3144 C   0  0  0  0  0  0  0  0  0  0  0  0
    1.8128    1.2157   -0.1000 C   0  0  0  0  0  0  0  0  0  0  0  0
    2.8939   -0.8616    0.4948 C   0  0  0  0  0  0  0  0  0  0  0  0
    0.6215    0.5289   -0.3339 C   0  0  0  0  0  0  0  0  0  0  0  0
    1.7025   -1.5484    0.2608 C   0  0  0  0  0  0  0  0  0  0  0  0
   -3.0532   -1.3793   -0.3485 C   0  0  0  0  0  0  0  0  0  0  0  0
   -0.6758   -1.5694   -0.3978 C   0  0  0  0  0  0  0  0  0  0  0  0
   -4.1163   -0.3718   -0.0226 C   0  0  0  0  0  0  0  0  0  0  0  0
   -5.3692   -0.2001   -0.5090 C   0  0  0  0  0  0  0  0  0  0  0  0
   -5.0739    1.3241    0.9471 C   0  0  0  0  0  0  0  0  0  0  0  0
    4.6735    1.9071   -0.5570 C   0  0  0  0  0  0  0  0  0  0  0  0
    0.6495    3.1998   -0.7048 C   0  0  0  0  0  0  0  0  0  0  0  0
    4.8572   -2.0522   -0.1245 C   0  0  0  0  0  0  0  0  0  0  0  0
  1 14  1  0
  1 15  1  0
  2  9  1  0
  2 19  1  0
  3 10  1  0
  3 20  1  0
  4 11  1  0
  4 21  1  0
  5 15  2  0
  6 16  1  0
  6 18  1  0
  7 17  1  0
  7 18  2  0
  8 12  2  0
  8 13  1  0
  8 15  1  0
  9 10  2  0
  9 11  1  0
 10 12  1  0
 11 13  2  0
 14 16  1  0
 16 17  2  0
M  END
>  <PUBCHEM_COMPOUND_CID>  (1) 
29066

>  <PUBCHEM_CONFORMER_RMSD>  (1) 
0.8

>  <PUBCHEM_CONFORMER_DIVERSEORDER>  (1) 
5
64
62
33
47
37
16
12
57
2
56
22
28
65
52
40
29
36
39
70
35
68
3
4
50
41
49
45
67
26
38
44
25
19
13
15
6
51
48
14
9
34
55
72
32
58
23
42
46
63
27
61
8
21
24
54
1
31
69
30
53
43
66
60
17
18
59
11
71
20
10
7

>  <PUBCHEM_MMFF94_PARTIAL_CHARGES>  (1) 
26
1 -0.43
10 0.08
11 0.08
12 -0.15
13 -0.15
14 0.46
15 0.63
16 -0.33
17 0.08
18 0.04
19 0.28
2 -0.36
20 0.28
21 0.28
22 0.15
23 0.15
26 0.27
27 0.15
28 0.15
3 -0.36
4 -0.36
5 -0.57
6 0.03
7 -0.57
8 0.09
9 0.08

>  <PUBCHEM_EFFECTIVE_ROTOR_COUNT>  (1) 
7

>  <PUBCHEM_PHARMACOPHORE_FEATURES>  (1) 
8
1 2 acceptor
1 3 acceptor
1 4 acceptor
1 5 acceptor
1 6 donor
3 6 7 18 cation
5 6 7 16 17 18 rings
6 8 9 10 11 12 13 rings

>  <PUBCHEM_HEAVY_ATOM_COUNT>  (1) 
21

>  <PUBCHEM_ATOM_DEF_STEREO_COUNT>  (1) 
0

>  <PUBCHEM_ATOM_UDEF_STEREO_COUNT>  (1) 
0

>  <PUBCHEM_BOND_DEF_STEREO_COUNT>  (1) 
0

>  <PUBCHEM_BOND_UDEF_STEREO_COUNT>  (1) 
0

>  <PUBCHEM_ISOTOPIC_ATOM_COUNT>  (1) 
0

>  <PUBCHEM_COMPONENT_COUNT>  (1) 
1

>  <PUBCHEM_CACTVS_TAUTO_COUNT>  (1) 
2

>  <PUBCHEM_CONFORMER_ID>  (1) 
0000718A00000005

>  <PUBCHEM_MMFF94_ENERGY>  (1) 
78.3179

>  <PUBCHEM_FEATURE_SELFOVERLAP>  (1) 
40.606

>  <PUBCHEM_SHAPE_FINGERPRINT>  (1) 
10366900 7 17168142317660594323
10688039 33 17749387023255120053
10906281 52 18115590504094996008
11045977 3 17894355488552363915
11089746 13 17846210116123396088
12107183 9 18267583507625105259
12166972 35 18272931626924738529
12236239 1 18202279204541850375
12507557 5 18408322199008677499
12633257 1 17749937972821379273
13402501 40 17969771992035031205
13583140 156 17967818309958464171
13785724 45 17908143179228199146
14178342 30 17908682266664427962
14341114 176 18334582347690073731
14739800 52 17630872984427197320
14790565 3 17974014152354893420
15081414 286 18335420188251309380
15196674 1 18411981377631760955
15475509 8 18057062224147495646
1601671 61 18336546118317693044
17492 89 18266458896267038355
20715895 44 18053384302340457817
20739085 24 18335706018266420028
21033648 29 17022891342763303543
212847 35 18273211997551522018
21304253 13 18343294852248950576
21304253 335 18339643455347348156
21421861 104 18042107831180839906
21478907 32 17976537213696897050
21503847 285 18334857207916242026
21709351 56 18411691064045002271
23184049 59 18409165515278253263
23559900 14 17775017790444317718
335352 9 18412262813959411382
34934 24 18339358686404514708
350125 39 18411135802093537824
351380 180 18334574642682411321
474 4 18410856564684038099
5104073 3 18336260231966549371
543358 83 18409730703220670732
6328613 192 18412550933477089556
633830 44 18409162225149298862
7832392 63 18267861868808203910
9971528 1 18411696582460558264
9981440 41 17473815607583067561

>  <PUBCHEM_SHAPE_MULTIPOLES>  (1) 
392.86
12.03
2.91
0.83
11.86
1.07
-0.05
1.56
-1.54
-2.5
0.59
0.16
0.05
-1.12

>  <PUBCHEM_SHAPE_SELFOVERLAP>  (1) 
833.918

>  <PUBCHEM_SHAPE_VOLUME>  (1) 
222.1

>  <PUBCHEM_COORDINATE_TYPE>  (1) 
2
5
10

$$$$
