29060
     RDKit          3D

  9  8  0  0  0  0  0  0  0  0999 V2000
   -4.7180   -0.2742   -0.1799 O   0  0  0  0  0  0  0  0  0  0  0  0
    2.4575   -0.3986   -0.0822 C   0  0  0  0  0  0  0  0  0  0  0  0
    1.1186    0.2730    0.2289 C   0  0  0  0  0  0  0  0  0  0  0  0
    3.6151    0.5941    0.0214 C   0  0  0  0  0  0  0  0  0  0  0  0
   -0.0350   -0.7295    0.1578 C   0  0  0  0  0  0  0  0  0  0  0  0
    4.9510   -0.0773   -0.2546 C   0  0  0  0  0  0  0  0  0  0  0  0
   -1.3445   -0.0776    0.4951 C   0  0  0  0  0  0  0  0  0  0  0  0
   -2.3732    0.0157   -0.3601 C   0  0  0  0  0  0  0  0  0  0  0  0
   -3.6716    0.6746   -0.0264 C   0  0  0  0  0  0  0  0  0  0  0  0
  1  9  1  0
  2  3  1  0
  2  4  1  0
  3  5  1  0
  4  6  1  0
  5  7  1  0
  7  8  2  0
  8  9  1  0
M  END
>  <PUBCHEM_COMPOUND_CID>  (1) 
29060

>  <PUBCHEM_CONFORMER_RMSD>  (1) 
0.6

>  <PUBCHEM_CONFORMER_DIVERSEORDER>  (1) 
2
55
35
7
27
44
64
36
25
4
1
61
34
63
24
62
54
56
5
50
41
11
6
8
22
58
52
16
33
12
45
57
23
37
32
26
13
9
43
40
18
39
10
38
19
15
49
42
14
59
60
48
51
31
17
28
53
20
29
3
30
47
21
46

>  <PUBCHEM_MMFF94_PARTIAL_CHARGES>  (1) 
8
1 -0.68
21 0.15
22 0.15
25 0.4
5 0.14
7 -0.29
8 -0.29
9 0.42

>  <PUBCHEM_EFFECTIVE_ROTOR_COUNT>  (1) 
5

>  <PUBCHEM_PHARMACOPHORE_FEATURES>  (1) 
4
1 1 acceptor
1 1 donor
1 6 hydrophobe
5 2 3 4 5 7 hydrophobe

>  <PUBCHEM_HEAVY_ATOM_COUNT>  (1) 
9

>  <PUBCHEM_ATOM_DEF_STEREO_COUNT>  (1) 
0

>  <PUBCHEM_ATOM_UDEF_STEREO_COUNT>  (1) 
0

>  <PUBCHEM_BOND_DEF_STEREO_COUNT>  (1) 
0

>  <PUBCHEM_BOND_UDEF_STEREO_COUNT>  (1) 
1

>  <PUBCHEM_ISOTOPIC_ATOM_COUNT>  (1) 
0

>  <PUBCHEM_COMPONENT_COUNT>  (1) 
1

>  <PUBCHEM_CACTVS_TAUTO_COUNT>  (1) 
1

>  <PUBCHEM_CONFORMER_ID>  (1) 
0000718400000002

>  <PUBCHEM_MMFF94_ENERGY>  (1) 
-2.1296

>  <PUBCHEM_FEATURE_SELFOVERLAP>  (1) 
20.297

>  <PUBCHEM_SHAPE_FINGERPRINT>  (1) 
11062470 55 18272652346354464808
114248 4 17918274263843281716
14123238 8 17749108898067380974
14252887 29 10737280217448239312
17834076 25 18259705601691260236
18342897 14 13045944607657870638
20645477 70 18200316516062309086
20719005 15 18411138039169930372
20767249 13 11600004340590641165
20767249 213 17022905678836688012
20828058 44 10881407534058097441
21119208 17 17203609285158687036
21293036 1 18202563981662518482
22485316 2 10015865370686441676
23402539 116 18272082790746753741
23402655 69 18342170021430209837
366044 4 18333731325289722714
42788 4 18409449185099166660
449060 50 15213021548548765978

>  <PUBCHEM_SHAPE_MULTIPOLES>  (1) 
179.35
9.96
0.79
0.67
0.92
0.01
0.01
0.93
-1.24
0.01
0.01
-0.01
0
0.03

>  <PUBCHEM_SHAPE_SELFOVERLAP>  (1) 
317.571

>  <PUBCHEM_SHAPE_VOLUME>  (1) 
117.3

>  <PUBCHEM_COORDINATE_TYPE>  (1) 
2
5
10

$$$$
