29069
     RDKit          3D

 19 21  0  0  0  0  0  0  0  0999 V2000
    6.2409   -1.0595   -0.2439 Cl  0  0  0  0  0  0  0  0  0  0  0  0
    0.8376    1.1387    0.4268 O   0  0  0  0  0  0  0  0  0  0  0  0
   -1.9998    2.2325    0.0791 N   0  0  0  0  0  0  0  0  0  0  0  0
   -4.1923    1.0853   -0.1035 C   0  0  0  0  0  0  0  0  0  0  0  0
   -3.4544   -0.2201   -0.0709 C   0  0  0  0  0  0  0  0  0  0  0  0
   -2.0557   -0.2043   -0.1428 C   0  0  0  0  0  0  0  0  0  0  0  0
   -3.3654    2.1482    0.6078 C   0  0  0  0  0  0  0  0  0  0  0  0
   -1.4055    1.1281   -0.2323 C   0  0  0  0  0  0  0  0  0  0  0  0
    0.0221    1.2094   -0.7167 C   0  0  0  0  0  0  0  0  0  0  0  0
   -4.1291   -1.4433   -0.0254 C   0  0  0  0  0  0  0  0  0  0  0  0
   -1.3329   -1.3989   -0.1429 C   0  0  0  0  0  0  0  0  0  0  0  0
   -3.4086   -2.6378   -0.0256 C   0  0  0  0  0  0  0  0  0  0  0  0
   -2.0147   -2.6149   -0.0811 C   0  0  0  0  0  0  0  0  0  0  0  0
    2.1052    0.6232    0.2695 C   0  0  0  0  0  0  0  0  0  0  0  0
    2.7580    0.7788   -0.9439 C   0  0  0  0  0  0  0  0  0  0  0  0
    2.7060   -0.0423    1.3276 C   0  0  0  0  0  0  0  0  0  0  0  0
    4.0415    0.2566   -1.1033 C   0  0  0  0  0  0  0  0  0  0  0  0
    3.9895   -0.5646    1.1684 C   0  0  0  0  0  0  0  0  0  0  0  0
    4.6574   -0.4151   -0.0471 C   0  0  0  0  0  0  0  0  0  0  0  0
  1 19  1  0
  2  9  1  0
  2 14  1  0
  3  7  1  0
  3  8  2  0
  4  5  1  0
  4  7  1  0
  5  6  2  0
  5 10  1  0
  6  8  1  0
  6 11  1  0
  8  9  1  0
 10 12  2  0
 11 13  2  0
 12 13  1  0
 14 15  2  0
 14 16  1  0
 15 17  1  0
 16 18  2  0
 17 19  2  0
 18 19  1  0
M  END
>  <PUBCHEM_COMPOUND_CID>  (1) 
29069

>  <PUBCHEM_CONFORMER_RMSD>  (1) 
0.6

>  <PUBCHEM_CONFORMER_DIVERSEORDER>  (1) 
1
46
23
42
7
27
44
34
45
18
2
12
16
9
8
33
21
47
26
25
38
4
11
28
37
29
15
19
48
43
49
10
5
32
35
30
14
24
40
41
50
17
3
39
22
36
13
20
6
31

>  <PUBCHEM_MMFF94_PARTIAL_CHARGES>  (1) 
27
1 -0.18
10 -0.15
11 -0.15
12 -0.15
13 -0.15
14 0.08
15 -0.15
16 -0.15
17 -0.15
18 -0.15
19 0.18
2 -0.36
26 0.15
27 0.15
28 0.15
29 0.15
3 -0.7
30 0.15
31 0.15
32 0.15
33 0.15
4 0.14
5 -0.14
6 0.09
7 0.25
8 0.3
9 0.34

>  <PUBCHEM_EFFECTIVE_ROTOR_COUNT>  (1) 
3.4

>  <PUBCHEM_PHARMACOPHORE_FEATURES>  (1) 
5
1 2 acceptor
1 3 acceptor
6 14 15 16 17 18 19 rings
6 3 4 5 6 7 8 rings
6 5 6 10 11 12 13 rings

>  <PUBCHEM_HEAVY_ATOM_COUNT>  (1) 
19

>  <PUBCHEM_ATOM_DEF_STEREO_COUNT>  (1) 
0

>  <PUBCHEM_ATOM_UDEF_STEREO_COUNT>  (1) 
0

>  <PUBCHEM_BOND_DEF_STEREO_COUNT>  (1) 
0

>  <PUBCHEM_BOND_UDEF_STEREO_COUNT>  (1) 
0

>  <PUBCHEM_ISOTOPIC_ATOM_COUNT>  (1) 
0

>  <PUBCHEM_COMPONENT_COUNT>  (1) 
1

>  <PUBCHEM_CACTVS_TAUTO_COUNT>  (1) 
1

>  <PUBCHEM_CONFORMER_ID>  (1) 
0000718D00000001

>  <PUBCHEM_MMFF94_ENERGY>  (1) 
60.4766

>  <PUBCHEM_FEATURE_SELFOVERLAP>  (1) 
25.398

>  <PUBCHEM_SHAPE_FINGERPRINT>  (1) 
10369192 42 17697861920472823856
10616163 171 18410013242959484678
11046707 91 18408321111643460189
11315181 36 18408604760448836880
11545043 162 18060418010786415618
11796584 16 18199753553545609134
12236239 1 17967254187394366764
12346177 29 18271796947898904021
12553582 1 18187637028994289265
12633257 1 18202012031431851833
12821665 9 18117290353271566340
13167823 11 18260550030621012340
13862211 1 18340767165469774647
14386348 63 17704075088422698750
14420673 8 18195811769699957542
14576447 43 17894627059471464298
15042514 8 18337957887348227595
15196674 1 18409729599192639966
15537594 2 17822574915282811666
16752209 62 18336812157218546691
17804303 29 18341894121189147985
18915474 69 18187366575378407366
19422 9 18187648032843030284
200 152 16805321076722506604
20281475 54 18333725810783394296
20291156 8 18190176965442536911
20681677 155 18335985281445749616
21033648 29 16845278420133964866
21267235 1 18335145327571583667
21634736 98 18115589399581285220
22646028 28 18259981600099495202
23175994 123 17060621100712055257
23402539 116 18272644671870399509
23559900 14 18342167916659267240
23598291 2 17968104148226399748
23728640 28 18411702097504872323
2838139 119 14404082180004768139
3004659 81 18113612426034787710
312423 11 18188219813280997204
335352 9 18410855460851069637
4214541 1 18411138026306387388
5104073 3 18342741853117666936
5385378 56 17981335491367946089
559249 180 18334573499614637386
573450 72 18408037403384034392
58051976 100 18334011683442801172
59755656 215 18412542094603420703
602551 16 18413103966261210866
67856867 119 18189335835438760196
7970288 3 18122624117794678623
9709674 26 18196086861790023505

>  <PUBCHEM_SHAPE_MULTIPOLES>  (1) 
382.03
11.43
2.44
0.96
12.37
0.77
-0.09
3.22
0.17
-3.57
-0.03
0.9
-0.09
-0.49

>  <PUBCHEM_SHAPE_SELFOVERLAP>  (1) 
821.421

>  <PUBCHEM_SHAPE_VOLUME>  (1) 
211.2

>  <PUBCHEM_COORDINATE_TYPE>  (1) 
2
5
10

$$$$
