29077
     RDKit          3D

 26 28  0  0  0  0  0  0  0  0999 V2000
    4.8733   -0.0479   -0.0957 S   0  0  0  0  0  0  0  0  0  0  0  0
    5.4810   -0.3042    1.2023 O   0  0  0  0  0  0  0  0  0  0  0  0
    5.4754   -0.6067   -1.2985 O   0  0  0  0  0  0  0  0  0  0  0  0
   -5.1324    1.8856   -0.4221 O   0  0  0  0  0  0  0  0  0  0  0  0
   -2.6522    2.8153    0.4093 O   0  0  0  0  0  0  0  0  0  0  0  0
   -1.1107   -3.0329    0.3261 N   0  0  0  0  0  0  0  0  0  0  0  0
    4.7976    1.7143   -0.3253 C   0  0  0  0  0  0  0  0  0  0  0  0
   -3.2297   -1.2363   -0.3154 C   0  0  0  0  0  0  0  0  0  0  0  0
   -1.9670   -0.7582    0.0599 C   0  0  0  0  0  0  0  0  0  0  0  0
   -3.3991   -2.7065   -0.5588 C   0  0  0  0  0  0  0  0  0  0  0  0
   -0.8782   -1.7680    0.1827 C   0  0  0  0  0  0  0  0  0  0  0  0
    3.2022   -0.5468   -0.0153 C   0  0  0  0  0  0  0  0  0  0  0  0
    0.5402   -1.3440    0.1139 C   0  0  0  0  0  0  0  0  0  0  0  0
   -2.5073   -3.4707    0.4112 C   0  0  0  0  0  0  0  0  0  0  0  0
   -4.2876   -0.3388   -0.4862 C   0  0  0  0  0  0  0  0  0  0  0  0
   -1.7773    0.6028    0.3150 C   0  0  0  0  0  0  0  0  0  0  0  0
    2.5457   -0.5895    1.2148 C   0  0  0  0  0  0  0  0  0  0  0  0
    2.5237   -0.9037   -1.1807 C   0  0  0  0  0  0  0  0  0  0  0  0
    1.2110   -0.9894    1.2795 C   0  0  0  0  0  0  0  0  0  0  0  0
    1.1889   -1.3035   -1.1158 C   0  0  0  0  0  0  0  0  0  0  0  0
    6.2002    2.2894   -0.4567 C   0  0  0  0  0  0  0  0  0  0  0  0
    4.0360    2.3629    0.8211 C   0  0  0  0  0  0  0  0  0  0  0  0
   -4.0933    1.0215   -0.2482 C   0  0  0  0  0  0  0  0  0  0  0  0
   -2.8435    1.4894    0.1579 C   0  0  0  0  0  0  0  0  0  0  0  0
   -5.9618    2.1377    0.7103 C   0  0  0  0  0  0  0  0  0  0  0  0
   -2.2354    3.6282   -0.6855 C   0  0  0  0  0  0  0  0  0  0  0  0
  1  2  2  0
  1  3  2  0
  1  7  1  0
  1 12  1  0
  4 23  1  0
  4 25  1  0
  5 24  1  0
  5 26  1  0
  6 11  2  0
  6 14  1  0
  7 21  1  0
  7 22  1  0
  8  9  2  0
  8 10  1  0
  8 15  1  0
  9 11  1  0
  9 16  1  0
 10 14  1  0
 11 13  1  0
 12 17  2  0
 12 18  1  0
 13 19  2  0
 13 20  1  0
 15 23  2  0
 16 24  2  0
 17 19  1  0
 18 20  2  0
 23 24  1  0
M  END
>  <PUBCHEM_COMPOUND_CID>  (1) 
29077

>  <PUBCHEM_CONFORMER_RMSD>  (1) 
0.8

>  <PUBCHEM_CONFORMER_DIVERSEORDER>  (1) 
1
10
11
9
12
3
7
5
4
8
2
6

>  <PUBCHEM_MMFF94_PARTIAL_CHARGES>  (1) 
30
1 1.2
10 0.14
11 0.28
12 -0.01
13 0.09
14 0.25
15 -0.15
16 -0.15
17 -0.15
18 -0.15
19 -0.15
2 -0.65
20 -0.15
23 0.08
24 0.08
25 0.28
26 0.28
3 -0.65
32 0.15
33 0.15
34 0.15
35 0.15
36 0.15
37 0.15
4 -0.36
5 -0.36
6 -0.7
7 0.11
8 -0.14
9 0.09

>  <PUBCHEM_EFFECTIVE_ROTOR_COUNT>  (1) 
5.4

>  <PUBCHEM_PHARMACOPHORE_FEATURES>  (1) 
9
1 2 acceptor
1 3 acceptor
1 4 acceptor
1 5 acceptor
1 6 acceptor
3 7 21 22 hydrophobe
6 12 13 17 18 19 20 rings
6 6 8 9 10 11 14 rings
6 8 9 15 16 23 24 rings

>  <PUBCHEM_HEAVY_ATOM_COUNT>  (1) 
26

>  <PUBCHEM_ATOM_DEF_STEREO_COUNT>  (1) 
0

>  <PUBCHEM_ATOM_UDEF_STEREO_COUNT>  (1) 
0

>  <PUBCHEM_BOND_DEF_STEREO_COUNT>  (1) 
0

>  <PUBCHEM_BOND_UDEF_STEREO_COUNT>  (1) 
0

>  <PUBCHEM_ISOTOPIC_ATOM_COUNT>  (1) 
0

>  <PUBCHEM_COMPONENT_COUNT>  (1) 
1

>  <PUBCHEM_CACTVS_TAUTO_COUNT>  (1) 
1

>  <PUBCHEM_CONFORMER_ID>  (1) 
0000719500000001

>  <PUBCHEM_MMFF94_ENERGY>  (1) 
90.0804

>  <PUBCHEM_FEATURE_SELFOVERLAP>  (1) 
45.721

>  <PUBCHEM_SHAPE_FINGERPRINT>  (1) 
10411042 1 17906171008045910595
10498660 4 18410853244146719581
10670039 82 18336551624877450836
12107183 9 18190730935294998474
12236239 1 17748820834627338163
12390115 104 18343028753276226067
12403259 415 17846215626592654906
12596602 18 17240482532877743152
12788726 201 18116426128110332971
13402501 40 18343018900009773808
13911987 19 16702026417653348254
13965767 371 17606962785019488221
14251764 38 18191872434137996292
14251764 75 17982177721190507945
14739800 52 18265314270766334096
14790565 3 18197503922537810985
14840074 17 17968102997212431805
15183329 4 18339932507242370502
15463212 79 18259981561519019667
15575132 122 18115024096223708677
15961568 22 18192993953421063108
17844677 252 18337677528810046514
17980427 23 18261394493762888623
20645477 56 18410017598272321423
21033648 29 17917700349455714570
21315764 268 18262234392013930212
23227448 37 18412261757249490485
23557571 272 18341618173545430790
23559900 14 18200875076648915278
2838139 119 18336256851837660988
3472631 163 18411135810198059117
34797466 226 17988373679644323782
350125 39 17905891371272316011
469060 322 18263664973260087507
5104073 3 17967527995686071938
5283173 99 18340769329452452538
5969126 39 18127967727637127439
6700243 42 17552958356003461590
7808743 9 18410290302667182057
9981440 41 18408322189876327363

>  <PUBCHEM_SHAPE_MULTIPOLES>  (1) 
510.46
13.5
3.87
1.06
10.25
1.02
0.03
8.71
-0.67
-4
-0.03
0.77
-0.12
-0.13

>  <PUBCHEM_SHAPE_SELFOVERLAP>  (1) 
1081.478

>  <PUBCHEM_SHAPE_VOLUME>  (1) 
287.9

>  <PUBCHEM_COORDINATE_TYPE>  (1) 
2
5
10

$$$$
