29079
     RDKit          3D

 17 17  0  0  0  0  0  0  0  0999 V2000
    2.0582    0.4771    0.6435 O   0  0  0  0  0  0  0  0  0  0  0  0
    0.3469   -3.1623    0.0522 O   0  0  0  0  0  0  0  0  0  0  0  0
    2.1488   -1.9606    0.4354 O   0  0  0  0  0  0  0  0  0  0  0  0
   -4.1195    1.1241   -0.2380 O   0  0  0  0  0  0  0  0  0  0  0  0
   -3.9350   -1.0609   -0.4099 O   0  0  0  0  0  0  0  0  0  0  0  0
    2.3658    0.6811   -1.6681 O   0  0  0  0  0  0  0  0  0  0  0  0
    0.9153   -2.0614    0.2389 N   0  0  0  0  0  0  0  0  0  0  0  0
   -3.4335    0.0744   -0.2295 N   0  0  0  0  0  0  0  0  0  0  0  0
   -0.0744    1.5233    0.4137 C   0  0  0  0  0  0  0  0  0  0  0  0
    0.7139    0.3727    0.4291 C   0  0  0  0  0  0  0  0  0  0  0  0
    0.1281   -0.8768    0.2265 C   0  0  0  0  0  0  0  0  0  0  0  0
   -1.4485    1.4244    0.1951 C   0  0  0  0  0  0  0  0  0  0  0  0
   -2.0343    0.1750   -0.0078 C   0  0  0  0  0  0  0  0  0  0  0  0
   -1.2460   -0.9757    0.0079 C   0  0  0  0  0  0  0  0  0  0  0  0
    0.5339    2.8701    0.6293 C   0  0  0  0  0  0  0  0  0  0  0  0
    2.8115    0.6353   -0.5292 C   0  0  0  0  0  0  0  0  0  0  0  0
    4.2687    0.7401   -0.1891 C   0  0  0  0  0  0  0  0  0  0  0  0
  1 10  1  0
  1 16  1  0
  2  7  1  0
  3  7  2  0
  4  8  1  0
  5  8  2  0
  6 16  2  0
  7 11  1  0
  8 13  1  0
  9 10  2  0
  9 12  1  0
  9 15  1  0
 10 11  1  0
 11 14  2  0
 12 13  2  0
 13 14  1  0
 16 17  1  0
M  CHG  4   2  -1   4  -1   7   1   8   1
M  END
>  <PUBCHEM_COMPOUND_CID>  (1) 
29079

>  <PUBCHEM_CONFORMER_RMSD>  (1) 
0.6

>  <PUBCHEM_CONFORMER_DIVERSEORDER>  (1) 
1
2
3
4
5

>  <PUBCHEM_MMFF94_PARTIAL_CHARGES>  (1) 
19
1 -0.23
10 0.08
11 0.13
12 -0.15
13 0.13
14 -0.15
15 0.14
16 0.66
17 0.06
18 0.15
19 0.15
2 -0.52
3 -0.52
4 -0.52
5 -0.52
6 -0.57
7 0.91
8 0.91
9 -0.14

>  <PUBCHEM_EFFECTIVE_ROTOR_COUNT>  (1) 
4

>  <PUBCHEM_PHARMACOPHORE_FEATURES>  (1) 
8
1 2 acceptor
1 2 anion
1 3 acceptor
1 4 acceptor
1 4 anion
1 5 acceptor
1 6 acceptor
6 9 10 11 12 13 14 rings

>  <PUBCHEM_HEAVY_ATOM_COUNT>  (1) 
17

>  <PUBCHEM_ATOM_DEF_STEREO_COUNT>  (1) 
0

>  <PUBCHEM_ATOM_UDEF_STEREO_COUNT>  (1) 
0

>  <PUBCHEM_BOND_DEF_STEREO_COUNT>  (1) 
0

>  <PUBCHEM_BOND_UDEF_STEREO_COUNT>  (1) 
0

>  <PUBCHEM_ISOTOPIC_ATOM_COUNT>  (1) 
0

>  <PUBCHEM_COMPONENT_COUNT>  (1) 
1

>  <PUBCHEM_CACTVS_TAUTO_COUNT>  (1) 
1

>  <PUBCHEM_CONFORMER_ID>  (1) 
0000719700000001

>  <PUBCHEM_MMFF94_ENERGY>  (1) 
59.1526

>  <PUBCHEM_FEATURE_SELFOVERLAP>  (1) 
40.759

>  <PUBCHEM_SHAPE_FINGERPRINT>  (1) 
10756046 5 17978518537585946628
10967382 1 18411416228254092635
13140716 1 18123474049077430553
13380535 76 18260831505212991106
13380536 305 18267584787351201337
14115302 16 18261681492573995484
14614273 12 18261391092175520548
14790565 3 18339657714507499753
14911166 2 18340487862812533837
15207287 21 17918000498918371782
15279308 132 18340204223240806376
15536298 74 18270117907796957646
16945 1 18411418440452536897
187816 3 18341339967608434236
193761 8 17907297645989925600
19591789 44 18121785199112015491
20233049 118 18334572477475880372
20588541 1 18334858329092434825
20645476 183 17896329184590349998
20645477 70 18265326223544267159
21501502 16 18195809557385020761
21524375 3 18114179786835154378
2334 1 18339922593803457153
23402539 116 18271801350425290996
23419403 2 15595736081090043240
23463225 33 18336821983581474186
23493267 7 17676773153294172040
23552423 10 18120093879508146451
23559900 14 17980467971960910914
25 1 18335417963383922465
2748010 2 18196081154010699513
3060560 45 18340757243366814159
528886 8 18410570712481362864
537710 114 18409168805038624537
53812653 166 18341889727158075025
589210 1 17834678197426239832
7364860 26 18196935474556303838

>  <PUBCHEM_SHAPE_MULTIPOLES>  (1) 
304.67
5.83
2.63
0.83
1.75
0.89
-0.19
-0.89
-1.47
-0.41
0.53
-0.42
-0.15
-0.25

>  <PUBCHEM_SHAPE_SELFOVERLAP>  (1) 
644.683

>  <PUBCHEM_SHAPE_VOLUME>  (1) 
169.9

>  <PUBCHEM_COORDINATE_TYPE>  (1) 
2
5
10

$$$$
