29074
     RDKit          3D

 26 29  0  0  0  0  0  0  0  0999 V2000
   -6.4417   -1.8013    0.0334 O   0  0  0  0  0  0  0  0  0  0  0  0
   -4.7777   -3.2395    0.0599 O   0  0  0  0  0  0  0  0  0  0  0  0
    5.9195   -0.8321    0.0209 N   0  0  0  0  0  0  0  0  0  0  0  0
   -5.2159   -2.0649    0.0388 N   0  0  0  0  0  0  0  0  0  0  0  0
   -2.0432   -0.1890    0.0035 C   0  0  0  0  0  0  0  0  0  0  0  0
   -0.5668   -0.1010    0.0004 C   0  0  0  0  0  0  0  0  0  0  0  0
   -2.5112    1.1478   -0.0214 C   0  0  0  0  0  0  0  0  0  0  0  0
   -0.1677    1.3229   -0.0273 C   0  0  0  0  0  0  0  0  0  0  0  0
   -1.3752    2.0636   -0.0399 C   0  0  0  0  0  0  0  0  0  0  0  0
   -2.9171   -1.2625    0.0239 C   0  0  0  0  0  0  0  0  0  0  0  0
    0.2732   -1.1421    0.0192 C   0  0  0  0  0  0  0  0  0  0  0  0
   -3.8717    1.4131   -0.0257 C   0  0  0  0  0  0  0  0  0  0  0  0
    1.0668    1.9490   -0.0411 C   0  0  0  0  0  0  0  0  0  0  0  0
   -1.3460    3.4493   -0.0662 C   0  0  0  0  0  0  0  0  0  0  0  0
   -4.2868   -0.9902    0.0194 C   0  0  0  0  0  0  0  0  0  0  0  0
    1.7436   -1.0616    0.0200 C   0  0  0  0  0  0  0  0  0  0  0  0
   -4.7592    0.3329   -0.0052 C   0  0  0  0  0  0  0  0  0  0  0  0
    1.0911    3.3451   -0.0685 C   0  0  0  0  0  0  0  0  0  0  0  0
   -0.1021    4.0873   -0.0804 C   0  0  0  0  0  0  0  0  0  0  0  0
    2.4245   -1.0675   -1.1871 C   0  0  0  0  0  0  0  0  0  0  0  0
    2.4194   -0.9814    1.2273 C   0  0  0  0  0  0  0  0  0  0  0  0
    4.5112   -0.9105    0.0204 C   0  0  0  0  0  0  0  0  0  0  0  0
    3.8174   -0.9917   -1.1869 C   0  0  0  0  0  0  0  0  0  0  0  0
    3.8121   -0.9053    1.2275 C   0  0  0  0  0  0  0  0  0  0  0  0
    6.6894   -1.4528   -1.0386 C   0  0  0  0  0  0  0  0  0  0  0  0
    6.6143   -0.1179    1.0735 C   0  0  0  0  0  0  0  0  0  0  0  0
  1  4  1  0
  2  4  2  0
  3 22  1  0
  3 25  1  0
  3 26  1  0
  4 15  1  0
  5  6  1  0
  5  7  1  0
  5 10  2  0
  6  8  1  0
  6 11  2  0
  7  9  1  0
  7 12  2  0
  8  9  2  0
  8 13  1  0
  9 14  1  0
 10 15  1  0
 11 16  1  0
 12 17  1  0
 13 18  2  0
 14 19  2  0
 15 17  2  0
 16 20  2  0
 16 21  1  0
 18 19  1  0
 20 23  1  0
 21 24  2  0
 22 23  2  0
 22 24  1  0
M  CHG  2   1  -1   4   1
M  END
>  <PUBCHEM_COMPOUND_CID>  (1) 
29074

>  <PUBCHEM_CONFORMER_RMSD>  (1) 
0.6

>  <PUBCHEM_CONFORMER_DIVERSEORDER>  (1) 
1

>  <PUBCHEM_MMFF94_PARTIAL_CHARGES>  (1) 
36
1 -0.52
10 -0.15
11 -0.18
12 -0.15
13 -0.15
14 -0.15
15 0.13
16 0.03
17 -0.15
18 -0.15
19 -0.15
2 -0.52
20 -0.15
21 -0.15
22 0.1
23 -0.15
24 -0.15
25 0.37
26 0.37
27 0.15
28 0.15
29 0.15
3 -0.84
30 0.15
31 0.15
32 0.15
33 0.15
34 0.15
35 0.15
36 0.15
37 0.15
38 0.15
4 0.91
5 0.03
6 -0.06
8 0.03

>  <PUBCHEM_EFFECTIVE_ROTOR_COUNT>  (1) 
3

>  <PUBCHEM_PHARMACOPHORE_FEATURES>  (1) 
8
1 1 acceptor
1 1 anion
1 2 acceptor
1 3 cation
5 5 6 7 8 9 rings
6 16 20 21 22 23 24 rings
6 5 7 10 12 15 17 rings
6 8 9 13 14 18 19 rings

>  <PUBCHEM_HEAVY_ATOM_COUNT>  (1) 
26

>  <PUBCHEM_ATOM_DEF_STEREO_COUNT>  (1) 
0

>  <PUBCHEM_ATOM_UDEF_STEREO_COUNT>  (1) 
0

>  <PUBCHEM_BOND_DEF_STEREO_COUNT>  (1) 
0

>  <PUBCHEM_BOND_UDEF_STEREO_COUNT>  (1) 
1

>  <PUBCHEM_ISOTOPIC_ATOM_COUNT>  (1) 
0

>  <PUBCHEM_COMPONENT_COUNT>  (1) 
1

>  <PUBCHEM_CACTVS_TAUTO_COUNT>  (1) 
1

>  <PUBCHEM_CONFORMER_ID>  (1) 
0000719200000001

>  <PUBCHEM_MMFF94_ENERGY>  (1) 
120.4517

>  <PUBCHEM_FEATURE_SELFOVERLAP>  (1) 
40.833

>  <PUBCHEM_SHAPE_FINGERPRINT>  (1) 
10050765 1 18265897046636673165
10319926 262 18051957144858294266
10411042 1 18410576223314774039
10498660 4 18122342368472154852
10670039 82 18190750735404949468
10906281 52 18125441900288296037
1100329 8 18264487467269690203
11056379 131 18266181630167431932
11115154 58 17486458588067387533
11265709 11 18409730668665909409
11578080 2 13325752652001077617
11963148 33 17401484244252005783
12107183 9 18341344323369612369
12166972 35 17748830726448055292
12236239 1 17749391421575625282
12293681 25 17245279857324710403
12516196 113 18410292518838852978
12553582 1 18337391548338360643
12623949 98 17417826006228161318
12788726 201 18116714015103217249
13140716 1 18412261736107236249
13782708 43 17774443764108330998
138480 1 14807692750300577877
14068700 675 18187366524039552580
14117953 113 18343581846459298383
14787075 74 18113338613511633946
14955137 171 18130507521559344752
15927050 60 17619913194128663668
15961568 22 18409729582783638284
16087824 20 18265614274696864765
17138139 8 17749104538792238146
17492 89 18050850215616567755
1813 80 18343029895114891519
18336668 15 18113620088172236580
19427546 20 18189337878993795644
20028762 73 18129660932562840935
20511986 3 17387120975596076204
20567600 70 18335980969050761963
20721686 56 18335703901391167560
21033648 29 17346021299959326611
21267235 1 18410016554938198843
21796203 349 17976014073747597539
2260408 40 17344940514500061659
2297311 6 18341056224720036838
23366157 5 18042687393677904141
23402539 116 18410853235746916638
23557571 272 18200315390796240292
23559900 14 18266733757425779049
23622692 118 18341889749487278335
249057 3 18410007737813133677
25147074 1 18337408109764461145
255183 451 18267867358019378455
3004659 81 18113900472110832374
335352 9 18409444766385103389
38695281 34 11746929884693116689
392239 28 18335703819454304360
4015057 19 14201697376017787838
4280585 95 18335976528096613305
46194498 28 18060425678057283412
469060 322 18338809909516461080
5104073 3 18269564995767384547
8863177 126 17751938058379006387
9709674 26 18118967138499974331

>  <PUBCHEM_SHAPE_MULTIPOLES>  (1) 
513.37
13.73
3.73
0.93
9.1
3.75
0.02
-11.67
0.19
-3.75
-0.17
1.33
-0.25
0.48

>  <PUBCHEM_SHAPE_SELFOVERLAP>  (1) 
1146.224

>  <PUBCHEM_SHAPE_VOLUME>  (1) 
275.7

>  <PUBCHEM_COORDINATE_TYPE>  (1) 
2
5
10

$$$$
