29081
     RDKit          3D

 20 22  0  0  0  0  0  0  0  0999 V2000
   -6.2248    0.4039   -0.2484 S   0  0  0  0  0  0  0  0  0  0  0  0
    5.7165   -0.1954    0.1608 N   0  0  0  0  0  0  0  0  0  0  0  0
    0.1796    0.1592   -0.5891 N   0  0  0  0  0  0  0  0  0  0  0  0
   -4.8443   -1.7370    0.1547 N   0  0  0  0  0  0  0  0  0  0  0  0
   -0.3936    0.3083    0.5153 N   0  0  0  0  0  0  0  0  0  0  0  0
    4.3216   -0.1063   -0.0279 C   0  0  0  0  0  0  0  0  0  0  0  0
    3.5396   -1.2613   -0.0073 C   0  0  0  0  0  0  0  0  0  0  0  0
    3.7239    1.1369   -0.2353 C   0  0  0  0  0  0  0  0  0  0  0  0
    1.5694    0.0695   -0.4007 C   0  0  0  0  0  0  0  0  0  0  0  0
   -3.9506   -0.6760    0.1587 C   0  0  0  0  0  0  0  0  0  0  0  0
   -4.5218    0.5834   -0.0471 C   0  0  0  0  0  0  0  0  0  0  0  0
    2.1601   -1.1731   -0.1942 C   0  0  0  0  0  0  0  0  0  0  0  0
    2.3444    1.2250   -0.4221 C   0  0  0  0  0  0  0  0  0  0  0  0
   -1.7770    0.3978    0.3271 C   0  0  0  0  0  0  0  0  0  0  0  0
   -2.5544   -0.7638    0.3484 C   0  0  0  0  0  0  0  0  0  0  0  0
    6.4392   -1.3808   -0.2551 C   0  0  0  0  0  0  0  0  0  0  0  0
    6.4474    0.9032    0.7607 C   0  0  0  0  0  0  0  0  0  0  0  0
   -3.7471    1.7543   -0.0697 C   0  0  0  0  0  0  0  0  0  0  0  0
   -2.3678    1.6394    0.1206 C   0  0  0  0  0  0  0  0  0  0  0  0
   -6.0603   -1.2870   -0.0496 C   0  0  0  0  0  0  0  0  0  0  0  0
  1 11  1  0
  1 20  1  0
  2  6  1  0
  2 16  1  0
  2 17  1  0
  3  5  2  0
  3  9  1  0
  4 10  1  0
  4 20  2  0
  5 14  1  0
  6  7  2  0
  6  8  1  0
  7 12  1  0
  8 13  2  0
  9 12  2  0
  9 13  1  0
 10 11  2  0
 10 15  1  0
 11 18  1  0
 14 15  2  0
 14 19  1  0
 18 19  2  0
M  END
>  <PUBCHEM_COMPOUND_CID>  (1) 
29081

>  <PUBCHEM_CONFORMER_RMSD>  (1) 
0.6

>  <PUBCHEM_CONFORMER_DIVERSEORDER>  (1) 
1
3
5
6
2
4

>  <PUBCHEM_MMFF94_PARTIAL_CHARGES>  (1) 
28
1 -0.08
10 0.23
11 0.04
12 -0.15
13 -0.15
14 0.18
15 -0.15
16 0.37
17 0.37
18 -0.15
19 -0.15
2 -0.84
20 0.23
21 0.15
22 0.15
23 0.15
24 0.15
25 0.15
3 -0.18
32 0.15
33 0.15
34 0.15
4 -0.57
5 -0.18
6 0.1
7 -0.15
8 -0.15
9 0.18

>  <PUBCHEM_EFFECTIVE_ROTOR_COUNT>  (1) 
3

>  <PUBCHEM_PHARMACOPHORE_FEATURES>  (1) 
5
1 2 cation
1 4 acceptor
5 1 4 10 11 20 rings
6 10 11 14 15 18 19 rings
6 6 7 8 9 12 13 rings

>  <PUBCHEM_HEAVY_ATOM_COUNT>  (1) 
20

>  <PUBCHEM_ATOM_DEF_STEREO_COUNT>  (1) 
0

>  <PUBCHEM_ATOM_UDEF_STEREO_COUNT>  (1) 
0

>  <PUBCHEM_BOND_DEF_STEREO_COUNT>  (1) 
0

>  <PUBCHEM_BOND_UDEF_STEREO_COUNT>  (1) 
0

>  <PUBCHEM_ISOTOPIC_ATOM_COUNT>  (1) 
0

>  <PUBCHEM_COMPONENT_COUNT>  (1) 
1

>  <PUBCHEM_CACTVS_TAUTO_COUNT>  (1) 
1

>  <PUBCHEM_CONFORMER_ID>  (1) 
0000719900000001

>  <PUBCHEM_MMFF94_ENERGY>  (1) 
64.3362

>  <PUBCHEM_FEATURE_SELFOVERLAP>  (1) 
25.443

>  <PUBCHEM_SHAPE_FINGERPRINT>  (1) 
10 15 18342728664111649888
10595046 47 18408042917995578241
10968037 39 18410573994395539511
11315181 36 18342179972990831985
11524674 6 16702302369318389575
11719270 70 18342454825144212174
12107183 9 17615967712178488081
12166972 35 18334861631917790228
12236239 1 18344146986223086462
12516196 113 18272369780234800928
12596602 18 18131634474155071120
12616971 3 16773789324926184164
12916748 109 16702308944970983712
13167823 11 18409448076887016383
13288520 33 18410575089775710797
13533116 47 17022891316634797474
1420 363 18131073731519570246
14251718 22 18411136935263147624
14251732 16 18412824715898230896
14251764 18 18040433313695104752
14341114 176 18341897394149185384
15183329 4 17749387048660406795
15716309 27 17847059982460418511
17834072 33 18335423482306186660
17844677 252 18412833477336531272
17857418 61 18334574637759761523
18222031 100 17458065963294137956
18681886 176 18411697708211455992
18927931 339 18334584542560916551
19489759 90 18259984868748968553
200 152 18343582941021460113
21033648 29 17274524443776622176
21054139 6 18113333145718203059
21130935 74 18343866593557711250
21150785 3 15140686903202866066
21267235 1 18409738356319726615
21315763 129 18409448081103213308
21709351 56 18259982673619812676
22224240 67 16056874741361524838
23198884 109 11602816896061995895
23402539 116 18334855026573820677
23536379 177 18408603651803773873
23559900 14 18338510945512178329
26918003 58 18335422382836633395
29717793 49 18259708895720212478
300161 21 18261387824026641723
3004659 81 18187082862328265336
34797466 226 17418100944770814844
351380 180 18408042922290409184
3545911 37 18409730642590150469
4073 2 18113344132297092498
4214541 1 18409168783954210661
4325135 7 18412825793871601823
4340502 62 15267342903940460036
474229 33 18272652354934278983
5104073 3 18341334379312436482
542803 24 13045942408449901173
559249 180 18334293150383465019
59755656 215 18334859385644353326
59755656 520 16225766333342934755
67856867 119 18262240039695763220
7495541 125 17917710244411582961
9709674 26 18336839623355582691
9971528 1 17530686541191863500

>  <PUBCHEM_SHAPE_MULTIPOLES>  (1) 
395.52
17.85
1.65
0.7
5.76
0
0.01
-3.11
0.66
-0.55
-0.01
0.18
0.05
0.38

>  <PUBCHEM_SHAPE_SELFOVERLAP>  (1) 
848.315

>  <PUBCHEM_SHAPE_VOLUME>  (1) 
222.6

>  <PUBCHEM_COORDINATE_TYPE>  (1) 
2
5
10

$$$$
