29083
     RDKit          3D

 15 16  0  0  0  0  0  0  0  0999 V2000
    0.6443   -1.6203    0.1317 O   0  0  0  0  0  0  0  0  0  0  0  0
   -1.4678   -2.3313   -0.3068 O   0  0  0  0  0  0  0  0  0  0  0  0
   -3.0548    0.0372    1.3862 O   0  0  0  0  0  0  0  0  0  0  0  0
   -1.0374   -0.0553   -0.5231 N   0  0  0  0  0  0  0  0  0  0  0  0
   -4.2861    1.4092    0.0124 N   0  0  0  0  0  0  0  0  0  0  0  0
   -0.1637    1.0802   -0.2454 C   0  0  0  0  0  0  0  0  0  0  0  0
    1.2719    0.7098   -0.1096 C   0  0  0  0  0  0  0  0  0  0  0  0
    1.6254   -0.6160    0.0962 C   0  0  0  0  0  0  0  0  0  0  0  0
   -2.3975    0.2664   -0.9331 C   0  0  0  0  0  0  0  0  0  0  0  0
   -0.6905   -1.3791   -0.2399 C   0  0  0  0  0  0  0  0  0  0  0  0
    2.2804    1.6781   -0.1268 C   0  0  0  0  0  0  0  0  0  0  0  0
    2.9524   -1.0029    0.2766 C   0  0  0  0  0  0  0  0  0  0  0  0
    3.6162    1.3070    0.0468 C   0  0  0  0  0  0  0  0  0  0  0  0
    3.9513   -0.0326    0.2485 C   0  0  0  0  0  0  0  0  0  0  0  0
   -3.2441    0.5496    0.2864 C   0  0  0  0  0  0  0  0  0  0  0  0
  1  8  1  0
  1 10  1  0
  2 10  2  0
  3 15  2  0
  4  6  1  0
  4  9  1  0
  4 10  1  0
  5 15  1  0
  6  7  1  0
  7  8  2  0
  7 11  1  0
  8 12  1  0
  9 15  1  0
 11 13  2  0
 12 14  2  0
 13 14  1  0
M  END
>  <PUBCHEM_COMPOUND_CID>  (1) 
29083

>  <PUBCHEM_CONFORMER_RMSD>  (1) 
0.6

>  <PUBCHEM_CONFORMER_DIVERSEORDER>  (1) 
1
4
3
2

>  <PUBCHEM_MMFF94_PARTIAL_CHARGES>  (1) 
21
1 -0.23
10 0.78
11 -0.15
12 -0.15
13 -0.15
14 -0.15
15 0.57
2 -0.57
20 0.15
21 0.15
22 0.15
23 0.15
24 0.37
25 0.37
3 -0.57
4 -0.66
5 -0.8
6 0.44
7 -0.14
8 0.08
9 0.36

>  <PUBCHEM_EFFECTIVE_ROTOR_COUNT>  (1) 
2.6

>  <PUBCHEM_PHARMACOPHORE_FEATURES>  (1) 
5
1 2 acceptor
1 3 acceptor
1 5 donor
6 1 4 6 7 8 10 rings
6 7 8 11 12 13 14 rings

>  <PUBCHEM_HEAVY_ATOM_COUNT>  (1) 
15

>  <PUBCHEM_ATOM_DEF_STEREO_COUNT>  (1) 
0

>  <PUBCHEM_ATOM_UDEF_STEREO_COUNT>  (1) 
0

>  <PUBCHEM_BOND_DEF_STEREO_COUNT>  (1) 
0

>  <PUBCHEM_BOND_UDEF_STEREO_COUNT>  (1) 
0

>  <PUBCHEM_ISOTOPIC_ATOM_COUNT>  (1) 
0

>  <PUBCHEM_COMPONENT_COUNT>  (1) 
1

>  <PUBCHEM_CACTVS_TAUTO_COUNT>  (1) 
2

>  <PUBCHEM_CONFORMER_ID>  (1) 
0000719B00000001

>  <PUBCHEM_MMFF94_ENERGY>  (1) 
44.38

>  <PUBCHEM_FEATURE_SELFOVERLAP>  (1) 
25.398

>  <PUBCHEM_SHAPE_FINGERPRINT>  (1) 
10465860 228 18057052302398332729
10608611 8 18339918346075721372
10980938 120 18408603647645936994
11132069 177 18411408540763805600
11471102 20 18409725128010404596
11543360 7 15410602739940646636
12251169 10 18409168830776545896
12382932 28 18412545444007511048
12491281 212 18339927116272027618
12932764 1 17676754440533099982
13140716 1 18337101363078420146
13221675 6 18408321077552740646
13380535 21 18337114565702412294
13380535 76 18342455945613373982
14144814 61 18411978083117492816
14178342 30 18194103343267112026
14289901 80 15864073152332007932
14325111 11 18410290336926712980
14897335 6 18341326768651492758
15309172 13 18410577266823067371
15653759 3 17240484688951240717
15775835 57 18411138051807061900
16945 1 18337381665476259302
17844478 74 17675923183608902284
18175812 5 17822015298102620933
18186145 218 18341609304664571244
20645477 70 18337381630731665655
21501502 16 18265047119072778350
21524375 3 18272930510064442671
2334 1 18192988455529971438
23402539 116 18131340899912959652
23463225 33 18335135406143940628
23559900 14 18272368720549022984
25 1 18409727352961608990
2748010 2 18265328589775627326
5104073 3 18263915700512827784
528886 8 18411410735360127650
53812653 166 18340481257574741336
69090 78 18411412929940846295
74978 22 18270678791607300500
7832392 63 18411978104850798716
8272917 22 18126850391862592637

>  <PUBCHEM_SHAPE_MULTIPOLES>  (1) 
281.12
6.92
1.84
0.8
1.46
0.53
0.08
-2.45
1.01
-0.02
-0.11
0.47
-0.02
-0.21

>  <PUBCHEM_SHAPE_SELFOVERLAP>  (1) 
599.512

>  <PUBCHEM_SHAPE_VOLUME>  (1) 
153.4

>  <PUBCHEM_COORDINATE_TYPE>  (1) 
2
5
10

$$$$
