29082
     RDKit          3D

 16 17  0  0  0  0  0  0  0  0999 V2000
   -1.0679   -1.6615   -0.1666 O   0  0  0  0  0  0  0  0  0  0  0  0
    1.0439   -2.4779    0.0949 O   0  0  0  0  0  0  0  0  0  0  0  0
    2.4530    0.6048   -1.2762 O   0  0  0  0  0  0  0  0  0  0  0  0
    0.6542   -0.2624    0.6320 N   0  0  0  0  0  0  0  0  0  0  0  0
    1.9919   -0.0818    0.8915 N   0  0  0  0  0  0  0  0  0  0  0  0
   -0.2006    0.8862    0.8521 C   0  0  0  0  0  0  0  0  0  0  0  0
   -1.5866    0.6671    0.3444 C   0  0  0  0  0  0  0  0  0  0  0  0
   -1.9731   -0.5828   -0.1304 C   0  0  0  0  0  0  0  0  0  0  0  0
   -2.5301    1.6996    0.3591 C   0  0  0  0  0  0  0  0  0  0  0  0
    0.2831   -1.5160    0.1924 C   0  0  0  0  0  0  0  0  0  0  0  0
   -3.2674   -0.8234   -0.5903 C   0  0  0  0  0  0  0  0  0  0  0  0
    2.8110    0.3547   -0.1280 C   0  0  0  0  0  0  0  0  0  0  0  0
   -3.8299    1.4735   -0.1005 C   0  0  0  0  0  0  0  0  0  0  0  0
    4.2457    0.4967    0.3444 C   0  0  0  0  0  0  0  0  0  0  0  0
   -4.1976    0.2134   -0.5744 C   0  0  0  0  0  0  0  0  0  0  0  0
    5.1704    1.0098   -0.7444 C   0  0  0  0  0  0  0  0  0  0  0  0
  1  8  1  0
  1 10  1  0
  2 10  2  0
  3 12  2  0
  4  5  1  0
  4  6  1  0
  4 10  1  0
  5 12  1  0
  6  7  1  0
  7  8  2  0
  7  9  1  0
  8 11  1  0
  9 13  2  0
 11 15  2  0
 12 14  1  0
 13 15  1  0
 14 16  1  0
M  END
>  <PUBCHEM_COMPOUND_CID>  (1) 
29082

>  <PUBCHEM_CONFORMER_RMSD>  (1) 
0.6

>  <PUBCHEM_CONFORMER_DIVERSEORDER>  (1) 
1
6
4
5
3
2

>  <PUBCHEM_MMFF94_PARTIAL_CHARGES>  (1) 
20
1 -0.23
10 0.78
11 -0.15
12 0.57
13 -0.15
14 0.06
15 -0.15
19 0.15
2 -0.57
20 0.37
21 0.15
24 0.15
25 0.15
3 -0.57
4 -0.36
5 -0.43
6 0.44
7 -0.14
8 0.08
9 -0.15

>  <PUBCHEM_EFFECTIVE_ROTOR_COUNT>  (1) 
3.6

>  <PUBCHEM_PHARMACOPHORE_FEATURES>  (1) 
6
1 16 hydrophobe
1 2 acceptor
1 3 acceptor
1 5 donor
6 1 4 6 7 8 10 rings
6 7 8 9 11 13 15 rings

>  <PUBCHEM_HEAVY_ATOM_COUNT>  (1) 
16

>  <PUBCHEM_ATOM_DEF_STEREO_COUNT>  (1) 
0

>  <PUBCHEM_ATOM_UDEF_STEREO_COUNT>  (1) 
0

>  <PUBCHEM_BOND_DEF_STEREO_COUNT>  (1) 
0

>  <PUBCHEM_BOND_UDEF_STEREO_COUNT>  (1) 
0

>  <PUBCHEM_ISOTOPIC_ATOM_COUNT>  (1) 
0

>  <PUBCHEM_COMPONENT_COUNT>  (1) 
1

>  <PUBCHEM_CACTVS_TAUTO_COUNT>  (1) 
2

>  <PUBCHEM_CONFORMER_ID>  (1) 
0000719A00000001

>  <PUBCHEM_MMFF94_ENERGY>  (1) 
40.1459

>  <PUBCHEM_FEATURE_SELFOVERLAP>  (1) 
30.472

>  <PUBCHEM_SHAPE_FINGERPRINT>  (1) 
10498660 4 18411695457116427373
10726558 24 18411140229582392710
12119455 92 15140671501376127536
12236239 1 18040429997099429696
12251169 10 8214140772318024553
12346645 44 18409727335549663675
12507557 5 17022906791075332501
12788726 201 17536312888573970698
13380535 21 18270684165033387627
13380535 76 18407758118804039923
14897335 6 18410290281150238338
14911166 2 18201715180424585873
14993402 34 18335136518266410516
15536298 74 18271524174404998734
15775835 57 18333731312446797700
16945 1 18342726447544482395
17870717 6 17846233162785953468
1813 80 12391243746331191256
18186145 218 17846779628475466680
200 152 14476968882697326136
20300324 65 18202281433165692301
20523700 14 18411975845719028525
20645476 183 18187925131111221554
20871999 31 18201719582592146885
21501502 16 18198616632419966243
21524375 3 18260266360694551842
21637258 2 14548727422446981901
231179 274 17458337507530909167
23366157 5 18044377123837840642
23402539 116 18272082812506556660
23402655 69 18271801273015691629
23557571 272 17988650747483506582
23559900 14 18131070459635478296
2748010 2 17837473521351613859
4028521 119 18344145895074858340
474 4 17822014207027985836
4990 188 17632857520777820116
57096353 35 18271509945441721223
58051976 378 18341609287474249877
7364860 26 18127408947600785526
76465 3 9222929471167941849
81539 233 18113897118005443018
83771 10 11095884860867901522

>  <PUBCHEM_SHAPE_MULTIPOLES>  (1) 
301.7
8.61
1.79
0.89
6.22
0.73
0.07
-3.78
2.32
-0.56
-0.07
0.33
-0.13
-0.54

>  <PUBCHEM_SHAPE_SELFOVERLAP>  (1) 
636.482

>  <PUBCHEM_SHAPE_VOLUME>  (1) 
166.4

>  <PUBCHEM_COORDINATE_TYPE>  (1) 
2
5
10

$$$$
