29084
     RDKit          3D

 16 17  0  0  1  0  0  0  0  0999 V2000
    0.5990    1.7829   -0.0769 O   0  0  0  0  0  0  0  0  0  0  0  0
   -1.5586    2.4934    0.0453 O   0  0  0  0  0  0  0  0  0  0  0  0
   -2.2725   -0.4307   -1.8022 O   0  0  0  0  0  0  0  0  0  0  0  0
   -1.1179    0.2809    0.6240 N   0  0  0  0  0  0  0  0  0  0  0  0
   -3.8757   -1.6382   -0.6806 N   0  0  0  0  0  0  0  0  0  0  0  0
   -0.1209   -0.6855    1.1039 C   0  0  0  0  0  0  0  0  0  0  0  0
    1.1693   -0.5359    0.3543 C   0  0  0  0  0  0  0  0  0  0  0  0
    0.1176   -0.5263    2.6080 C   0  0  0  0  0  0  0  0  0  0  0  0
    1.4944    0.7047   -0.1836 C   0  0  0  0  0  0  0  0  0  0  0  0
   -2.5205   -0.1126    0.5855 C   0  0  0  0  0  0  0  0  0  0  0  0
   -0.7634    1.5675    0.2027 C   0  0  0  0  0  0  0  0  0  0  0  0
    2.0832   -1.5859    0.2225 C   0  0  0  0  0  0  0  0  0  0  0  0
    2.7036    0.9266   -0.8389 C   0  0  0  0  0  0  0  0  0  0  0  0
    3.2959   -1.3817   -0.4404 C   0  0  0  0  0  0  0  0  0  0  0  0
    3.6061   -0.1267   -0.9681 C   0  0  0  0  0  0  0  0  0  0  0  0
   -2.8395   -0.7323   -0.7555 C   0  0  0  0  0  0  0  0  0  0  0  0
  1  9  1  0
  1 11  1  0
  2 11  2  0
  3 16  2  0
  4  6  1  0
  4 10  1  0
  4 11  1  0
  5 16  1  0
  6  7  1  0
  6  8  1  0
  7  9  2  0
  7 12  1  0
  9 13  1  0
 10 16  1  0
 12 14  2  0
 13 15  2  0
 14 15  1  0
M  END
>  <PUBCHEM_COMPOUND_CID>  (1) 
29084

>  <PUBCHEM_CONFORMER_RMSD>  (1) 
0.6

>  <PUBCHEM_CONFORMER_DIVERSEORDER>  (1) 
3
2
1
6
4
5

>  <PUBCHEM_MMFF94_PARTIAL_CHARGES>  (1) 
21
1 -0.23
10 0.36
11 0.78
12 -0.15
13 -0.15
14 -0.15
15 -0.15
16 0.57
2 -0.57
23 0.15
24 0.15
25 0.15
26 0.15
27 0.37
28 0.37
3 -0.57
4 -0.66
5 -0.8
6 0.44
7 -0.14
9 0.08

>  <PUBCHEM_EFFECTIVE_ROTOR_COUNT>  (1) 
2.6

>  <PUBCHEM_PHARMACOPHORE_FEATURES>  (1) 
5
1 2 acceptor
1 3 acceptor
1 5 donor
6 1 4 6 7 9 11 rings
6 7 9 12 13 14 15 rings

>  <PUBCHEM_HEAVY_ATOM_COUNT>  (1) 
16

>  <PUBCHEM_ATOM_DEF_STEREO_COUNT>  (1) 
0

>  <PUBCHEM_ATOM_UDEF_STEREO_COUNT>  (1) 
1

>  <PUBCHEM_BOND_DEF_STEREO_COUNT>  (1) 
0

>  <PUBCHEM_BOND_UDEF_STEREO_COUNT>  (1) 
0

>  <PUBCHEM_ISOTOPIC_ATOM_COUNT>  (1) 
0

>  <PUBCHEM_COMPONENT_COUNT>  (1) 
1

>  <PUBCHEM_CACTVS_TAUTO_COUNT>  (1) 
2

>  <PUBCHEM_CONFORMER_ID>  (1) 
0000719C00000003

>  <PUBCHEM_MMFF94_ENERGY>  (1) 
48.0255

>  <PUBCHEM_FEATURE_SELFOVERLAP>  (1) 
25.399

>  <PUBCHEM_SHAPE_FINGERPRINT>  (1) 
10062212 137 18116995468900405794
11206711 2 18188217515478755684
11578080 2 17632001005662970057
11769659 78 17847062172883248366
12202030 40 16987978540776115119
12382932 28 9511454503176027102
14128692 85 17988925582551566674
15852999 172 17167865300680712282
16945 1 18334019418932037432
18186145 218 17240489087029393930
18522851 268 18128826252590743142
200 152 18408042909716867190
20231682 184 13045930313991125435
20361792 2 18130778001746734567
21501502 16 18262809445512024580
22112679 90 17754439180178372184
232386 152 16558750165096470871
23382010 3 17241324810361182387
23402539 116 18334858294970112198
23402655 69 18262525783964599796
23557571 272 18058995191068564992
25 1 17313385586790327186
2748010 2 17613177564327210144
298252 57 17762906459105285185
3323516 105 18117842324829681643
353137 74 17967532354634459673
59915604 170 18114185280150963224
68419 9 17754152212033610801
7832392 63 18120377549398066852

>  <PUBCHEM_SHAPE_MULTIPOLES>  (1) 
301.7
5.49
1.87
1.53
0.22
0.77
-0.64
-1.91
2.95
0.25
-0.04
0.56
-0.51
-0.58

>  <PUBCHEM_SHAPE_SELFOVERLAP>  (1) 
640.979

>  <PUBCHEM_SHAPE_VOLUME>  (1) 
165.7

>  <PUBCHEM_COORDINATE_TYPE>  (1) 
2
5
10

$$$$
