2910
     RDKit          3D

 24 27  0  0  1  0  0  0  0  0999 V2000
   -3.6722   -2.9411   -0.1328 Cl  0  0  0  0  0  0  0  0  0  0  0  0
    0.0086    2.1203    0.0671 S   0  0  0  0  0  0  0  0  0  0  0  0
   -4.9514    0.0125    0.1688 S   0  0  0  0  0  0  0  0  0  0  0  0
    0.2299    2.4317    1.4652 O   0  0  0  0  0  0  0  0  0  0  0  0
   -0.5671    3.0861   -0.8474 O   0  0  0  0  0  0  0  0  0  0  0  0
   -5.5218   -1.2185    0.7077 O   0  0  0  0  0  0  0  0  0  0  0  0
   -5.1026    1.2724    0.8888 O   0  0  0  0  0  0  0  0  0  0  0  0
    1.4510    1.5176   -0.6235 N   0  0  0  0  0  0  0  0  0  0  0  0
    0.9464   -0.8232   -0.2046 N   0  0  0  0  0  0  0  0  0  0  0  0
   -5.5765    0.2229   -1.4192 N   0  0  0  0  0  0  0  0  0  0  0  0
    3.2180   -0.1594   -0.7567 C   0  0  0  0  0  0  0  0  0  0  0  0
    3.9116   -1.4292   -0.1959 C   0  0  0  0  0  0  0  0  0  0  0  0
    5.5438    0.0954   -0.1140 C   0  0  0  0  0  0  0  0  0  0  0  0
    4.3448    0.9144   -0.6433 C   0  0  0  0  0  0  0  0  0  0  0  0
    5.3146   -1.2585   -0.7932 C   0  0  0  0  0  0  0  0  0  0  0  0
    1.9260    0.2367   -0.0530 C   0  0  0  0  0  0  0  0  0  0  0  0
    4.2590   -1.2229    1.2604 C   0  0  0  0  0  0  0  0  0  0  0  0
    5.2348   -0.3041    1.3094 C   0  0  0  0  0  0  0  0  0  0  0  0
   -0.4176   -0.5981   -0.0883 C   0  0  0  0  0  0  0  0  0  0  0  0
   -1.0008    0.6726    0.0345 C   0  0  0  0  0  0  0  0  0  0  0  0
   -1.2921   -1.6958   -0.1440 C   0  0  0  0  0  0  0  0  0  0  0  0
   -2.3850    0.8536    0.1115 C   0  0  0  0  0  0  0  0  0  0  0  0
   -3.2232   -0.2556    0.0658 C   0  0  0  0  0  0  0  0  0  0  0  0
   -2.6782   -1.5299   -0.0633 C   0  0  0  0  0  0  0  0  0  0  0  0
  1 24  1  0
  2  4  2  0
  2  5  2  0
  2  8  1  0
  2 20  1  0
  3  6  2  0
  3  7  2  0
  3 10  1  0
  3 23  1  0
  8 16  1  0
  9 16  1  0
  9 19  1  0
 11 12  1  0
 11 14  1  0
 11 16  1  0
 12 15  1  0
 12 17  1  0
 13 14  1  0
 13 15  1  0
 13 18  1  0
 17 18  2  0
 19 20  2  0
 19 21  1  0
 20 22  1  0
 21 24  2  0
 22 23  2  0
 23 24  1  0
M  END
>  <PUBCHEM_COMPOUND_CID>  (1) 
2910

>  <PUBCHEM_CONFORMER_RMSD>  (1) 
0.6

>  <PUBCHEM_CONFORMER_DIVERSEORDER>  (1) 
10
7
14
20
24
21
19
6
13
8
34
28
5
23
35
22
33
27
38
2
36
32
37
25
4
18
26
1
9
3
39
30
40
11
31
16
29
17
15
12

>  <PUBCHEM_MMFF94_PARTIAL_CHARGES>  (1) 
29
1 -0.18
10 -0.98
12 0.14
13 0.14
16 0.72
17 -0.29
18 -0.29
19 0.1
2 1.45
20 -0.01
21 -0.15
22 -0.15
23 -0.01
24 0.18
3 1.45
33 0.15
34 0.15
35 0.42
36 0.4
37 0.15
38 0.15
39 0.42
4 -0.65
40 0.42
5 -0.65
6 -0.65
7 -0.65
8 -0.91
9 -0.87

>  <PUBCHEM_EFFECTIVE_ROTOR_COUNT>  (1) 
3.2

>  <PUBCHEM_PHARMACOPHORE_FEATURES>  (1) 
11
1 10 donor
1 4 acceptor
1 5 acceptor
1 6 acceptor
1 7 acceptor
1 8 donor
1 9 cation
1 9 donor
6 19 20 21 22 23 24 rings
6 2 8 9 16 19 20 rings
7 11 12 13 14 15 17 18 rings

>  <PUBCHEM_HEAVY_ATOM_COUNT>  (1) 
24

>  <PUBCHEM_ATOM_DEF_STEREO_COUNT>  (1) 
0

>  <PUBCHEM_ATOM_UDEF_STEREO_COUNT>  (1) 
4

>  <PUBCHEM_BOND_DEF_STEREO_COUNT>  (1) 
0

>  <PUBCHEM_BOND_UDEF_STEREO_COUNT>  (1) 
0

>  <PUBCHEM_ISOTOPIC_ATOM_COUNT>  (1) 
0

>  <PUBCHEM_COMPONENT_COUNT>  (1) 
1

>  <PUBCHEM_CACTVS_TAUTO_COUNT>  (1) 
1

>  <PUBCHEM_CONFORMER_ID>  (1) 
00000B5E0000000A

>  <PUBCHEM_MMFF94_ENERGY>  (1) 
65.375

>  <PUBCHEM_FEATURE_SELFOVERLAP>  (1) 
55.9

>  <PUBCHEM_SHAPE_FINGERPRINT>  (1) 
10062212 137 18411136982603123247
10906281 52 18269575912556197095
11045515 52 17894347782885448828
11646440 116 18202292411307823307
11796584 16 18259702306808305242
12107183 9 17686052795615712066
12236239 1 17967534562611640082
12516196 113 18131631205368499208
12553582 1 18336256899293316990
12788726 201 18261109613167333680
13004483 165 18188198832676999060
13140716 1 18340768242493306920
13533116 47 17203333252449418430
13583140 156 14476954614394209886
13862211 1 18410852157604532727
14251764 18 18412833499591472571
14528608 73 10519983785737333514
14790565 3 18267029345248864569
15099037 51 18409728465532257551
15183329 4 18187644683048042965
15196674 1 18339083799264129374
15788980 27 17458063772296327295
15885798 251 18408041814442151836
15927050 60 17479454990612286780
17349148 13 18060144253865851197
17492 89 17978229684262213543
17980427 23 17131845265506036081
1813 80 17603304864642838148
18222031 100 17989203759172748740
19141452 34 18272371988032626927
19489759 90 17203329992431583795
20600515 1 18342190959353846397
21033648 29 16917056755098133307
21236236 1 18341332176564470693
21267235 1 18409459072203825742
21285901 2 18270687463035333214
21421861 104 18043247938338941874
21703447 108 17624402478535396323
22950370 63 18335142015803417882
2297311 6 18271818886882054254
23366157 5 17900542581572461565
23402539 116 18272086089355490119
23536379 177 16225762995504446591
23557571 272 18130516223564052308
23559900 14 18342459270571961236
23622692 118 17914607496319734271
23845131 108 17263296028933843505
3004659 81 18187368735878904102
3178227 256 18335718156582646163
335352 9 18410576197961598127
3411729 13 17986103248521744632
34797466 226 16702026425948071968
350125 39 18339930441289065911
3680242 22 18335143042411540802
4340502 62 14549020978686693948
5104073 3 18339082708463840635
5283173 99 18041832909596846237
5374978 207 18411134732535736024
59755656 215 18270970029398629638
7226269 152 17917436380718496169
8863177 126 17751938053709343291

>  <PUBCHEM_SHAPE_MULTIPOLES>  (1) 
465.06
13.38
2.51
1.04
0.5
0.54
0.15
-4.3
0.49
-1.54
-0.02
0.41
0.15
-0.24

>  <PUBCHEM_SHAPE_SELFOVERLAP>  (1) 
989.341

>  <PUBCHEM_SHAPE_VOLUME>  (1) 
262.3

>  <PUBCHEM_COORDINATE_TYPE>  (1) 
2
5
10

$$$$
