29108
     RDKit          3D

  7  6  0  0  1  0  0  0  0  0999 V2000
   -0.5475   -2.0455    0.3615 Cl  0  0  0  0  0  0  0  0  0  0  0  0
   -0.9678    1.1268    1.4764 Cl  0  0  0  0  0  0  0  0  0  0  0  0
   -2.2341    0.4277   -1.0544 Cl  0  0  0  0  0  0  0  0  0  0  0  0
    2.5635    0.8671   -0.4813 Cl  0  0  0  0  0  0  0  0  0  0  0  0
    0.2316   -0.5875   -0.3548 C   0  0  0  0  0  0  0  0  0  0  0  0
   -0.6687    0.6561   -0.2188 C   0  0  0  0  0  0  0  0  0  0  0  0
    1.6229   -0.4448    0.2715 C   0  0  0  0  0  0  0  0  0  0  0  0
  1  5  1  0
  2  6  1  0
  3  6  1  0
  4  7  1  0
  5  6  1  0
  5  7  1  0
M  END
>  <PUBCHEM_COMPOUND_CID>  (1) 
29108

>  <PUBCHEM_CONFORMER_RMSD>  (1) 
0.4

>  <PUBCHEM_CONFORMER_DIVERSEORDER>  (1) 
1
16
14
10
11
9
12
6
18
7
13
3
17
4
8
2
5
15

>  <PUBCHEM_MMFF94_PARTIAL_CHARGES>  (1) 
7
1 -0.29
2 -0.29
3 -0.29
4 -0.29
5 0.29
6 0.58
7 0.29

>  <PUBCHEM_EFFECTIVE_ROTOR_COUNT>  (1) 
2

>  <PUBCHEM_PHARMACOPHORE_FEATURES>  (1) 
0

>  <PUBCHEM_HEAVY_ATOM_COUNT>  (1) 
7

>  <PUBCHEM_ATOM_DEF_STEREO_COUNT>  (1) 
0

>  <PUBCHEM_ATOM_UDEF_STEREO_COUNT>  (1) 
1

>  <PUBCHEM_BOND_DEF_STEREO_COUNT>  (1) 
0

>  <PUBCHEM_BOND_UDEF_STEREO_COUNT>  (1) 
0

>  <PUBCHEM_ISOTOPIC_ATOM_COUNT>  (1) 
0

>  <PUBCHEM_COMPONENT_COUNT>  (1) 
1

>  <PUBCHEM_CACTVS_TAUTO_COUNT>  (1) 
1

>  <PUBCHEM_CONFORMER_ID>  (1) 
000071B400000001

>  <PUBCHEM_MMFF94_ENERGY>  (1) 
7.1826

>  <PUBCHEM_FEATURE_SELFOVERLAP>  (1) 
0

>  <PUBCHEM_SHAPE_FINGERPRINT>  (1) 
137420 1 8232465675150846574
18185500 45 17695615260895136195
20711978 78 17540843610502187081
21040471 1 18334564750824057014
23211744 25 18198315507730369725
23211744 41 16588856850875593021
23552333 60 17910093730213960625
24536 1 18273222984425933582
5084963 1 18198331867160592718
5943 1 10928251260723474283
68250623 7 17200539337135628207

>  <PUBCHEM_SHAPE_MULTIPOLES>  (1) 
151.54
2.96
1.72
1.21
1.36
0.94
-0.28
-1.07
0.95
-0.31
-0.4
-0.59
-0.42
-0.18

>  <PUBCHEM_SHAPE_SELFOVERLAP>  (1) 
238.598

>  <PUBCHEM_SHAPE_VOLUME>  (1) 
107.8

>  <PUBCHEM_COORDINATE_TYPE>  (1) 
2
5
10

$$$$
