29106
     RDKit          3D

 19 20  0  0  1  0  0  0  0  0999 V2000
   -3.2005   -2.9172    0.0024 O   0  0  0  0  0  0  0  0  0  0  0  0
    3.8369   -0.3064   -0.5955 N   0  0  0  0  0  0  0  0  0  0  0  0
   -2.5188    2.5190   -0.2046 N   0  0  0  0  0  0  0  0  0  0  0  0
    1.6734    0.8255   -0.1025 C   0  0  0  0  0  0  0  0  0  0  0  0
    0.6087    1.0754    1.0056 C   0  0  0  0  0  0  0  0  0  0  0  0
    2.8698    0.0224    0.4479 C   0  0  0  0  0  0  0  0  0  0  0  0
   -0.7456    1.3901    0.5081 C   0  0  0  0  0  0  0  0  0  0  0  0
    2.1280    2.1645   -0.6997 C   0  0  0  0  0  0  0  0  0  0  0  0
   -1.7815    0.4572    0.2226 C   0  0  0  0  0  0  0  0  0  0  0  0
    4.9575   -1.0542   -0.0450 C   0  0  0  0  0  0  0  0  0  0  0  0
   -2.8827    1.1914   -0.2230 C   0  0  0  0  0  0  0  0  0  0  0  0
   -1.2291    2.6491    0.2356 C   0  0  0  0  0  0  0  0  0  0  0  0
   -1.8882   -0.9457    0.3004 C   0  0  0  0  0  0  0  0  0  0  0  0
    5.6638   -0.2335    1.0305 C   0  0  0  0  0  0  0  0  0  0  0  0
    5.9191   -1.4286   -1.1683 C   0  0  0  0  0  0  0  0  0  0  0  0
   -4.0901    0.5904   -0.5960 C   0  0  0  0  0  0  0  0  0  0  0  0
   -3.0900   -1.5606   -0.0693 C   0  0  0  0  0  0  0  0  0  0  0  0
   -4.1728   -0.8023   -0.5102 C   0  0  0  0  0  0  0  0  0  0  0  0
   -2.0579   -3.6364    0.4611 C   0  0  0  0  0  0  0  0  0  0  0  0
  1 17  1  0
  1 19  1  0
  2  6  1  0
  2 10  1  0
  3 11  1  0
  3 12  1  0
  4  5  1  0
  4  6  1  0
  4  8  1  0
  5  7  1  0
  7  9  1  0
  7 12  2  0
  9 11  2  0
  9 13  1  0
 10 14  1  0
 10 15  1  0
 11 16  1  0
 13 17  2  0
 16 18  2  0
 17 18  1  0
M  END
>  <PUBCHEM_COMPOUND_CID>  (1) 
29106

>  <PUBCHEM_CONFORMER_RMSD>  (1) 
0.8

>  <PUBCHEM_CONFORMER_DIVERSEORDER>  (1) 
2
1
67
36
66
46
25
18
44
38
24
12
54
49
23
5
9
41
56
62
65
47
51
55
7
32
61
53
42
45
15
48
3
40
52
6
14
27
37
34
43
60
17
16
33
58
64
35
68
28
20
63
8
31
57
10
59
50
4
22
30
11
19
29
39
26
13
21

>  <PUBCHEM_MMFF94_PARTIAL_CHARGES>  (1) 
20
1 -0.36
10 0.27
11 -0.15
12 -0.3
13 -0.15
16 -0.15
17 0.08
18 -0.15
19 0.28
2 -0.9
28 0.36
3 0.03
30 0.15
31 0.27
32 0.15
39 0.15
40 0.15
5 0.18
6 0.27
7 -0.18

>  <PUBCHEM_EFFECTIVE_ROTOR_COUNT>  (1) 
6

>  <PUBCHEM_PHARMACOPHORE_FEATURES>  (1) 
9
1 1 acceptor
1 2 cation
1 2 donor
1 3 cation
1 3 donor
1 8 hydrophobe
3 10 14 15 hydrophobe
5 3 7 9 11 12 rings
6 9 11 13 16 17 18 rings

>  <PUBCHEM_HEAVY_ATOM_COUNT>  (1) 
19

>  <PUBCHEM_ATOM_DEF_STEREO_COUNT>  (1) 
0

>  <PUBCHEM_ATOM_UDEF_STEREO_COUNT>  (1) 
1

>  <PUBCHEM_BOND_DEF_STEREO_COUNT>  (1) 
0

>  <PUBCHEM_BOND_UDEF_STEREO_COUNT>  (1) 
0

>  <PUBCHEM_ISOTOPIC_ATOM_COUNT>  (1) 
0

>  <PUBCHEM_COMPONENT_COUNT>  (1) 
1

>  <PUBCHEM_CACTVS_TAUTO_COUNT>  (1) 
1

>  <PUBCHEM_CONFORMER_ID>  (1) 
000071B200000002

>  <PUBCHEM_MMFF94_ENERGY>  (1) 
33.8763

>  <PUBCHEM_FEATURE_SELFOVERLAP>  (1) 
45.762

>  <PUBCHEM_SHAPE_FINGERPRINT>  (1) 
10616163 171 18411138021990619870
10693767 8 17697296767122078007
10803635 8 18041267782020522359
11458722 379 18408602547992183347
12555020 224 18409720764735134271
12757275 245 18410856542576036440
12990986 174 18266174122639068754
13402501 40 18202002122678880502
13941206 138 17968097469262708267
14251740 79 18411142406935828226
14251757 5 18263378034927012302
14251764 30 17607261023813426515
14461889 52 18201709662425761274
14863182 85 16245190640682264983
14866123 147 18341337730304987179
15042514 8 18409454717454855059
15352361 1 18412825819594153494
15880784 105 16343692249239891558
167882 2 17326888479308170477
17492 89 18264773332077276742
17870717 6 18341057319773076222
20281475 54 18269280234513275641
20374829 77 18411975875556978785
20403669 9 18272375286472668734
21267235 1 18409173220845052203
21634736 98 18188207718726827712
221490 88 18265618860819025344
23379529 103 18268439090938547494
23402539 116 18340761546829696765
23403322 49 18342738507227048022
23466295 7 18189349029119325355
23557571 272 18130791118593154752
23559900 14 18340479049819600680
25122255 55 17845664651261516046
3004659 81 18333732433696830884
335352 9 18411135823473610997
4214541 1 18411699842567985504
5104073 3 18343582962607385592
53777708 50 18264783210212271044
559249 180 18188484649664919634
574716 61 17386304197639123534
57583515 52 18410291406426330191
67856867 119 18189615111339545532
7062679 117 18411422800297801980
9709674 26 18339357594902761224

>  <PUBCHEM_SHAPE_MULTIPOLES>  (1) 
375.18
11.35
3.28
0.92
17.63
1.7
0
5.79
1.95
-3.24
-0.13
0.75
0.02
0.57

>  <PUBCHEM_SHAPE_SELFOVERLAP>  (1) 
776.674

>  <PUBCHEM_SHAPE_VOLUME>  (1) 
218.1

>  <PUBCHEM_COORDINATE_TYPE>  (1) 
2
5
10

$$$$
