29101
     RDKit          3D

 20 21  0  0  0  0  0  0  0  0999 V2000
    1.6521   -2.6506    0.1568 P   0  0  0  0  0  0  0  0  0  0  0  0
    0.8488   -1.2550    0.2657 O   0  0  0  0  0  0  0  0  0  0  0  0
    1.6072   -3.0130   -1.4189 O   0  0  0  0  0  0  0  0  0  0  0  0
    3.1874   -2.1894    0.3784 O   0  0  0  0  0  0  0  0  0  0  0  0
    1.1894   -3.7340    1.0871 O   0  0  0  0  0  0  0  0  0  0  0  0
   -2.8611    1.5524    0.0981 N   0  0  0  0  0  0  0  0  0  0  0  0
    2.8873    2.6536   -0.0768 N   0  0  0  0  0  0  0  0  0  0  0  0
   -0.6769    1.4617    0.4831 C   0  0  0  0  0  0  0  0  0  0  0  0
   -1.1268    0.1505    0.1611 C   0  0  0  0  0  0  0  0  0  0  0  0
    0.7044    1.8676    0.8129 C   0  0  0  0  0  0  0  0  0  0  0  0
   -2.5004    0.2352   -0.0758 C   0  0  0  0  0  0  0  0  0  0  0  0
   -1.7660    2.3012    0.4364 C   0  0  0  0  0  0  0  0  0  0  0  0
    1.5192    2.2851   -0.4250 C   0  0  0  0  0  0  0  0  0  0  0  0
   -0.4952   -1.1040    0.0483 C   0  0  0  0  0  0  0  0  0  0  0  0
   -3.2771   -0.8764   -0.4213 C   0  0  0  0  0  0  0  0  0  0  0  0
   -4.1981    2.0851   -0.0531 C   0  0  0  0  0  0  0  0  0  0  0  0
   -1.2596   -2.2247   -0.2963 C   0  0  0  0  0  0  0  0  0  0  0  0
   -2.6290   -2.1103   -0.5270 C   0  0  0  0  0  0  0  0  0  0  0  0
    3.6481    3.0012   -1.2780 C   0  0  0  0  0  0  0  0  0  0  0  0
    3.5463    1.5638    0.6445 C   0  0  0  0  0  0  0  0  0  0  0  0
  1  2  1  0
  1  3  1  0
  1  4  1  0
  1  5  2  0
  2 14  1  0
  6 11  1  0
  6 12  1  0
  6 16  1  0
  7 13  1  0
  7 19  1  0
  7 20  1  0
  8  9  1  0
  8 10  1  0
  8 12  2  0
  9 11  2  0
  9 14  1  0
 10 13  1  0
 11 15  1  0
 14 17  2  0
 15 18  2  0
 17 18  1  0
M  END
>  <PUBCHEM_COMPOUND_CID>  (1) 
29101

>  <PUBCHEM_CONFORMER_RMSD>  (1) 
0.8

>  <PUBCHEM_CONFORMER_DIVERSEORDER>  (1) 
1
2
11
7
9
12
6
10
3
8
4
5

>  <PUBCHEM_MMFF94_PARTIAL_CHARGES>  (1) 
25
1 1.51
10 0.18
11 -0.15
12 -0.3
13 0.27
14 0.08
15 -0.15
16 0.26
17 -0.15
18 -0.15
19 0.27
2 -0.35
20 0.27
23 0.15
26 0.15
3 -0.77
30 0.15
31 0.15
38 0.5
39 0.5
4 -0.77
5 -0.7
6 0.05
7 -0.81
8 -0.18

>  <PUBCHEM_EFFECTIVE_ROTOR_COUNT>  (1) 
5

>  <PUBCHEM_PHARMACOPHORE_FEATURES>  (1) 
8
1 3 acceptor
1 4 acceptor
1 5 acceptor
1 6 cation
1 7 cation
4 1 3 4 5 anion
5 6 8 9 11 12 rings
6 9 11 14 15 17 18 rings

>  <PUBCHEM_HEAVY_ATOM_COUNT>  (1) 
20

>  <PUBCHEM_ATOM_DEF_STEREO_COUNT>  (1) 
0

>  <PUBCHEM_ATOM_UDEF_STEREO_COUNT>  (1) 
0

>  <PUBCHEM_BOND_DEF_STEREO_COUNT>  (1) 
0

>  <PUBCHEM_BOND_UDEF_STEREO_COUNT>  (1) 
0

>  <PUBCHEM_ISOTOPIC_ATOM_COUNT>  (1) 
0

>  <PUBCHEM_COMPONENT_COUNT>  (1) 
1

>  <PUBCHEM_CACTVS_TAUTO_COUNT>  (1) 
1

>  <PUBCHEM_CONFORMER_ID>  (1) 
000071AD00000001

>  <PUBCHEM_MMFF94_ENERGY>  (1) 
7.0204

>  <PUBCHEM_FEATURE_SELFOVERLAP>  (1) 
40.723

>  <PUBCHEM_SHAPE_FINGERPRINT>  (1) 
10616163 171 18339077210937401560
10693767 8 17412169242178574503
10967382 1 18052252891109092907
1100329 8 18339080363422369387
11458722 379 18195814191823557644
11578080 2 17532074021696906399
11680986 33 18337676321807886777
12173636 292 18121776398502869877
12403259 226 16973916628823639955
12592029 89 18409738386680183113
12788726 201 17907019826209920200
13140716 1 18411414016583370824
13941206 138 17970352731610414746
14790565 3 17905621248015670065
14955137 171 17333966074110170073
16752209 62 18123745615406703632
167882 2 18335983056447436021
16945 1 17908987600263192571
18785283 64 18193011326489863729
193761 8 18412539912448394843
19591789 44 17473824404050596395
20028762 73 16976190977522149775
20510252 161 17983300622756165937
20600515 1 17696747762187844450
20642791 178 18335422353025303888
20645476 183 17391908541370535108
20871999 31 18052832630185321540
20905425 154 18272091642468525070
21501502 16 18413383242172415769
2334 1 18268427017404968728
23366157 5 18187643565966181771
23419403 2 17607795102532161365
23558518 356 18408880746251719083
23559900 14 18272650096023690950
23566358 2 18341608226981032701
25147074 1 18202276980091786325
266924 87 18266730454427006701
2748010 2 17691957172851062393
283562 15 18053102010860518177
3084891 72 17979910841329037555
43471831 8 18338229491635367881
59755656 215 18121492721109821551
7364860 26 18341892939957045024
81228 2 16684557647009120163
90316 7 17326886283967446187
9709674 26 17622171582522823412

>  <PUBCHEM_SHAPE_MULTIPOLES>  (1) 
382
6.18
4.87
0.94
2.01
3.17
0.13
-4.38
1.13
1.97
0.01
0.53
0.12
-0.95

>  <PUBCHEM_SHAPE_SELFOVERLAP>  (1) 
788.113

>  <PUBCHEM_SHAPE_VOLUME>  (1) 
224.3

>  <PUBCHEM_COORDINATE_TYPE>  (1) 
2
5
10

$$$$
