29110
     RDKit          3D

 11 12  0  0  0  0  0  0  0  0999 V2000
   -0.7530    1.9612   -0.2960 S   0  0  0  0  0  0  0  0  0  0  0  0
   -3.3182   -0.8501   -0.1718 O   0  0  0  0  0  0  0  0  0  0  0  0
   -1.0482   -1.1001   -0.0895 N   0  0  0  0  0  0  0  0  0  0  0  0
    1.8095    1.2562   -0.0418 N   0  0  0  0  0  0  0  0  0  0  0  0
    0.2616   -0.5934   -0.0269 C   0  0  0  0  0  0  0  0  0  0  0  0
    0.5462    0.7672   -0.0771 C   0  0  0  0  0  0  0  0  0  0  0  0
   -2.0724    1.0575    0.5261 C   0  0  0  0  0  0  0  0  0  0  0  0
   -2.2042   -0.3568    0.0205 C   0  0  0  0  0  0  0  0  0  0  0  0
    1.3291   -1.4902    0.0355 C   0  0  0  0  0  0  0  0  0  0  0  0
    2.6323   -1.0108    0.0787 C   0  0  0  0  0  0  0  0  0  0  0  0
    2.8173    0.3593    0.0423 C   0  0  0  0  0  0  0  0  0  0  0  0
  1  6  1  0
  1  7  1  0
  2  8  2  0
  3  5  1  0
  3  8  1  0
  4  6  1  0
  4 11  2  0
  5  6  2  0
  5  9  1  0
  7  8  1  0
  9 10  2  0
 10 11  1  0
M  END
>  <PUBCHEM_COMPOUND_CID>  (1) 
29110

>  <PUBCHEM_CONFORMER_RMSD>  (1) 
0.4

>  <PUBCHEM_CONFORMER_DIVERSEORDER>  (1) 
1

>  <PUBCHEM_MMFF94_PARTIAL_CHARGES>  (1) 
15
1 -0.33
10 -0.15
11 0.16
14 0.37
15 0.15
16 0.15
17 0.15
2 -0.57
3 -0.55
4 -0.62
5 0.12
6 0.41
7 0.29
8 0.57
9 -0.15

>  <PUBCHEM_EFFECTIVE_ROTOR_COUNT>  (1) 
0.6

>  <PUBCHEM_PHARMACOPHORE_FEATURES>  (1) 
5
1 2 acceptor
1 3 donor
1 4 acceptor
6 1 3 5 6 7 8 rings
6 4 5 6 9 10 11 rings

>  <PUBCHEM_HEAVY_ATOM_COUNT>  (1) 
11

>  <PUBCHEM_ATOM_DEF_STEREO_COUNT>  (1) 
0

>  <PUBCHEM_ATOM_UDEF_STEREO_COUNT>  (1) 
0

>  <PUBCHEM_BOND_DEF_STEREO_COUNT>  (1) 
0

>  <PUBCHEM_BOND_UDEF_STEREO_COUNT>  (1) 
0

>  <PUBCHEM_ISOTOPIC_ATOM_COUNT>  (1) 
0

>  <PUBCHEM_COMPONENT_COUNT>  (1) 
1

>  <PUBCHEM_CACTVS_TAUTO_COUNT>  (1) 
2

>  <PUBCHEM_CONFORMER_ID>  (1) 
000071B600000001

>  <PUBCHEM_MMFF94_ENERGY>  (1) 
29.4279

>  <PUBCHEM_FEATURE_SELFOVERLAP>  (1) 
25.393

>  <PUBCHEM_SHAPE_FINGERPRINT>  (1) 
11206711 2 18335705983679789628
12897270 3 18410011039519377463
14325111 11 18411982446767426760
15775835 57 18340497676738991184
161256 15 18411418410408806236
16945 1 18409451392548781016
17844478 74 18041574558866026809
19973954 147 18339362950737489740
20201158 50 18334292084762148739
21040471 1 18266461103942525134
21501502 16 18337956679750202320
23552423 10 18261116235853675894
23559900 14 17405991752811273582
241688 4 18335984168669587161
2748010 2 18266739082388647596
5084963 1 18343863290489853618
528886 8 18338512053407693890
63268167 104 18410294717851370753
66348 1 18266742565580737736

>  <PUBCHEM_SHAPE_MULTIPOLES>  (1) 
214.39
4.26
1.81
0.64
0.36
0.43
-0.01
-0.84
-0.15
0.21
0.1
0.06
0.06
-0.12

>  <PUBCHEM_SHAPE_SELFOVERLAP>  (1) 
446.479

>  <PUBCHEM_SHAPE_VOLUME>  (1) 
122.6

>  <PUBCHEM_COORDINATE_TYPE>  (1) 
2
5
10

$$$$
