29115
     RDKit          3D

 21 23  0  0  0  0  0  0  0  0999 V2000
    1.2325   -0.7051    0.5627 O   0  0  0  0  0  0  0  0  0  0  0  0
    1.4290    0.0065   -1.6480 O   0  0  0  0  0  0  0  0  0  0  0  0
   -4.0669   -1.7757   -0.3480 N   0  0  0  0  0  0  0  0  0  0  0  0
   -3.9315    4.0638    0.0878 N   0  0  0  0  0  0  0  0  0  0  0  0
   -3.6476    0.2847    0.3634 C   0  0  0  0  0  0  0  0  0  0  0  0
   -2.4112   -0.4136    0.2688 C   0  0  0  0  0  0  0  0  0  0  0  0
   -2.7024   -1.7037   -0.1796 C   0  0  0  0  0  0  0  0  0  0  0  0
   -3.8364    1.6836    0.7966 C   0  0  0  0  0  0  0  0  0  0  0  0
   -4.6468   -0.5791   -0.0219 C   0  0  0  0  0  0  0  0  0  0  0  0
   -1.0682   -0.0708    0.5225 C   0  0  0  0  0  0  0  0  0  0  0  0
   -3.7713    2.6875   -0.3692 C   0  0  0  0  0  0  0  0  0  0  0  0
   -1.7139   -2.6720   -0.3878 C   0  0  0  0  0  0  0  0  0  0  0  0
   -0.0688   -1.0294    0.3189 C   0  0  0  0  0  0  0  0  0  0  0  0
   -0.3889   -2.3093   -0.1293 C   0  0  0  0  0  0  0  0  0  0  0  0
    1.9088   -0.1789   -0.5396 C   0  0  0  0  0  0  0  0  0  0  0  0
    3.3166    0.1491   -0.1980 C   0  0  0  0  0  0  0  0  0  0  0  0
    3.9358    1.1924   -0.8549 C   0  0  0  0  0  0  0  0  0  0  0  0
    3.9603   -0.5993    0.7658 C   0  0  0  0  0  0  0  0  0  0  0  0
    5.2578    1.5008   -0.5339 C   0  0  0  0  0  0  0  0  0  0  0  0
    5.2821   -0.2907    1.0868 C   0  0  0  0  0  0  0  0  0  0  0  0
    5.9309    0.7593    0.4369 C   0  0  0  0  0  0  0  0  0  0  0  0
  1 13  1  0
  1 15  1  0
  2 15  2  0
  3  7  1  0
  3  9  1  0
  4 11  1  0
  5  6  1  0
  5  8  1  0
  5  9  2  0
  6  7  2  0
  6 10  1  0
  7 12  1  0
  8 11  1  0
 10 13  2  0
 12 14  2  0
 13 14  1  0
 15 16  1  0
 16 17  2  0
 16 18  1  0
 17 19  1  0
 18 20  2  0
 19 21  2  0
 20 21  1  0
M  END
>  <PUBCHEM_COMPOUND_CID>  (1) 
29115

>  <PUBCHEM_CONFORMER_RMSD>  (1) 
0.8

>  <PUBCHEM_CONFORMER_DIVERSEORDER>  (1) 
1
86
49
69
74
84
26
65
60
83
67
5
52
81
85
39
28
32
73
40
3
58
48
47
54
50
68
75
31
51
44
24
4
41
19
63
13
72
64
77
42
30
2
20
43
33
57
66
80
35
22
53
56
29
16
21
7
62
37
79
17
27
18
6
15
10
34
23
87
55
11
45
9
46
38
25
14
59
8
71
76
61
12
82
78
70
36

>  <PUBCHEM_MMFF94_PARTIAL_CHARGES>  (1) 
32
1 -0.23
10 -0.15
11 0.27
12 -0.15
13 0.08
14 -0.15
15 0.63
16 0.09
17 -0.15
18 -0.15
19 -0.15
2 -0.57
20 -0.15
21 -0.15
24 0.15
25 0.27
26 0.15
29 0.15
3 0.03
30 0.15
31 0.36
32 0.36
33 0.15
34 0.15
35 0.15
36 0.15
37 0.15
4 -0.99
5 -0.18
7 -0.15
8 0.18
9 -0.3

>  <PUBCHEM_EFFECTIVE_ROTOR_COUNT>  (1) 
5

>  <PUBCHEM_PHARMACOPHORE_FEATURES>  (1) 
8
1 2 acceptor
1 3 cation
1 3 donor
1 4 cation
1 4 donor
5 3 5 6 7 9 rings
6 16 17 18 19 20 21 rings
6 6 7 10 12 13 14 rings

>  <PUBCHEM_HEAVY_ATOM_COUNT>  (1) 
21

>  <PUBCHEM_ATOM_DEF_STEREO_COUNT>  (1) 
0

>  <PUBCHEM_ATOM_UDEF_STEREO_COUNT>  (1) 
0

>  <PUBCHEM_BOND_DEF_STEREO_COUNT>  (1) 
0

>  <PUBCHEM_BOND_UDEF_STEREO_COUNT>  (1) 
0

>  <PUBCHEM_ISOTOPIC_ATOM_COUNT>  (1) 
0

>  <PUBCHEM_COMPONENT_COUNT>  (1) 
1

>  <PUBCHEM_CACTVS_TAUTO_COUNT>  (1) 
1

>  <PUBCHEM_CONFORMER_ID>  (1) 
000071BB00000001

>  <PUBCHEM_MMFF94_ENERGY>  (1) 
49.5546

>  <PUBCHEM_FEATURE_SELFOVERLAP>  (1) 
40.688

>  <PUBCHEM_SHAPE_FINGERPRINT>  (1) 
10087517 78 18337387240286352396
10411042 1 17907577283433549951
10595046 47 18335700602486765434
10937287 8 17267807377061764481
11552529 35 17024889275022699618
12107183 9 18046617902975993194
12236239 1 18114175384641681002
12390115 104 18129677309224751665
12422481 6 17678451961816491396
12596602 18 17313386776607181377
12670546 56 18186794807804399154
12916748 109 18410019857140373395
12969540 114 16272205297515463654
13073987 5 18334855030800443730
13167823 11 18334855065255380746
13583140 156 17632291337247300974
13911987 19 16056044704719501408
13965767 371 17680714718197419445
14142880 1 18260266318330552101
14251764 38 18409452526457999476
14251764 75 17839470990546332873
14294032 229 18271806792639432713
14466204 15 18410851049650735160
14508225 48 17912629505092613479
14739800 52 18123183769946108456
15209294 21 18333450923985939284
16988056 13 16247715514464623301
17357779 13 15913333498423816898
17818456 19 18265610984001985400
19489759 90 18202282536993522802
20511986 3 18189036742151987050
20645477 56 18202570596213172619
20645477 70 16199887093831939654
20715895 44 18050282570546486873
21033650 10 18266203706573698540
21065198 48 18261107483237944938
21315764 268 18340198687054751264
22950370 63 9367344842680909050
23175994 123 14924219452036369758
23402539 116 18272083941592351654
23557571 272 17988374740195400868
23559900 14 17988371352068007014
3268164 11 17988920098263386887
341906 21 18272086110999099216
34797466 226 17559688419891041644
350125 39 18412828001970511025
38570 142 16952849235254393980
4214541 1 18411699911155164746
469060 322 18267045971483337035
474 4 17676770993495418210
5104073 3 18114463357713630370
5283173 99 18343588412899621900
542803 24 18335139838771957010
573450 72 18337383941877868362
6327066 14 18191580857709760221
7808743 9 18339642248567033105
9862522 239 17823691967620620573
9981440 41 18335706014198676843

>  <PUBCHEM_SHAPE_MULTIPOLES>  (1) 
410.47
12.86
2.96
0.96
11.93
2.21
-0.08
6.24
1.32
-5.16
-0.27
0.65
0.05
-0.91

>  <PUBCHEM_SHAPE_SELFOVERLAP>  (1) 
899.877

>  <PUBCHEM_SHAPE_VOLUME>  (1) 
221.6

>  <PUBCHEM_COORDINATE_TYPE>  (1) 
2
5
10

$$$$
