29117
     RDKit          3D

 14 14  0  0  0  0  0  0  0  0999 V2000
   -3.3733    0.0273    0.2402 S   0  0  0  0  0  0  0  0  0  0  0  0
   -3.4816    0.1593    1.8663 O   0  0  0  0  0  0  0  0  0  0  0  0
   -3.9195    1.2539   -0.3225 O   0  0  0  0  0  0  0  0  0  0  0  0
   -3.9111   -1.2686   -0.1443 O   0  0  0  0  0  0  0  0  0  0  0  0
    2.5330   -0.0978   -0.9534 C   0  0  0  0  0  0  0  0  0  0  0  0
    3.3707    0.0021    0.3234 C   0  0  0  0  0  0  0  0  0  0  0  0
    1.0559   -0.0668   -0.6546 C   0  0  0  0  0  0  0  0  0  0  0  0
    4.8659    0.0061    0.0057 C   0  0  0  0  0  0  0  0  0  0  0  0
    0.3824   -1.2566   -0.4212 C   0  0  0  0  0  0  0  0  0  0  0  0
    0.3937    1.1513   -0.6175 C   0  0  0  0  0  0  0  0  0  0  0  0
   -1.6622   -0.0091   -0.1041 C   0  0  0  0  0  0  0  0  0  0  0  0
    5.7035    0.1461    1.2669 C   0  0  0  0  0  0  0  0  0  0  0  0
   -0.9844   -1.2276   -0.1443 C   0  0  0  0  0  0  0  0  0  0  0  0
   -0.9731    1.1803   -0.3406 C   0  0  0  0  0  0  0  0  0  0  0  0
  1  2  1  0
  1  3  2  0
  1  4  2  0
  1 11  1  0
  5  6  1  0
  5  7  1  0
  6  8  1  0
  7  9  2  0
  7 10  1  0
  8 12  1  0
  9 13  1  0
 10 14  2  0
 11 13  2  0
 11 14  1  0
M  END
>  <PUBCHEM_COMPOUND_CID>  (1) 
29117

>  <PUBCHEM_CONFORMER_RMSD>  (1) 
0.6

>  <PUBCHEM_CONFORMER_DIVERSEORDER>  (1) 
1
8
4
5
6
3
7
2

>  <PUBCHEM_MMFF94_PARTIAL_CHARGES>  (1) 
16
1 1.49
10 -0.15
11 -0.01
13 -0.15
14 -0.15
2 -0.68
21 0.15
22 0.15
26 0.15
27 0.15
28 0.5
3 -0.65
4 -0.65
5 0.14
7 -0.14
9 -0.15

>  <PUBCHEM_EFFECTIVE_ROTOR_COUNT>  (1) 
4

>  <PUBCHEM_PHARMACOPHORE_FEATURES>  (1) 
6
1 12 hydrophobe
1 2 acceptor
1 3 acceptor
1 4 acceptor
4 1 2 3 4 anion
6 7 9 10 11 13 14 rings

>  <PUBCHEM_HEAVY_ATOM_COUNT>  (1) 
14

>  <PUBCHEM_ATOM_DEF_STEREO_COUNT>  (1) 
0

>  <PUBCHEM_ATOM_UDEF_STEREO_COUNT>  (1) 
0

>  <PUBCHEM_BOND_DEF_STEREO_COUNT>  (1) 
0

>  <PUBCHEM_BOND_UDEF_STEREO_COUNT>  (1) 
0

>  <PUBCHEM_ISOTOPIC_ATOM_COUNT>  (1) 
0

>  <PUBCHEM_COMPONENT_COUNT>  (1) 
1

>  <PUBCHEM_CACTVS_TAUTO_COUNT>  (1) 
1

>  <PUBCHEM_CONFORMER_ID>  (1) 
000071BD00000001

>  <PUBCHEM_MMFF94_ENERGY>  (1) 
16.7261

>  <PUBCHEM_FEATURE_SELFOVERLAP>  (1) 
30.503

>  <PUBCHEM_SHAPE_FINGERPRINT>  (1) 
10465860 250 17603586330860763220
11132069 177 18412832369165858223
11401426 45 18410289203377002989
12119455 92 17346595266508746918
12251169 10 18410008854035190548
124424 183 17458062677316978741
13214271 11 18343298163199003533
13675066 3 18114183025525267254
14252887 29 18334299730405367770
14943859 89 15913324702288550438
15048467 5 14261356842749772019
15209294 21 17916878923532088209
16945 1 18336845133819131639
17834072 8 11458416951496393379
17846911 113 18343018883024505276
18186145 218 17774458091343100903
187816 3 9583519832613494534
19026448 4 16271662112737781615
19026448 5 15719689717752151271
200 152 14129055907378041628
20374829 77 12396291569864770648
20645477 56 18202274815201285988
20645477 70 13767922400294289760
20871999 31 9439410137885576418
21119208 17 11600004367003867314
21637258 2 15719390689170210041
22854114 59 17917990581775587876
23379529 103 11748949752294686897
23402539 116 18411409618309908916
23402655 69 12319466458521689906
23532345 42 18411144644914054110
23559900 14 18201174174039374902
26918003 58 16950280706776215552
42 15 17748825203125328222
449060 50 17060341842270531510
76465 3 17241903171031841227

>  <PUBCHEM_SHAPE_MULTIPOLES>  (1) 
274.35
9.88
1.21
1.08
9.02
0.04
-0.4
-0.39
-3.98
-0.86
0.18
0.12
-0.06
0.08

>  <PUBCHEM_SHAPE_SELFOVERLAP>  (1) 
543.131

>  <PUBCHEM_SHAPE_VOLUME>  (1) 
164.3

>  <PUBCHEM_COORDINATE_TYPE>  (1) 
2
5
10

$$$$
