29116
     RDKit          3D

 10  9  0  0  0  0  0  0  0  0999 V2000
   -2.5470    0.3134    1.3825 O   0  0  0  0  0  0  0  0  0  0  0  0
   -2.4664    0.1482   -0.0343 C   0  0  0  0  0  0  0  0  0  0  0  0
    2.4140    0.1461    0.1896 C   0  0  0  0  0  0  0  0  0  0  0  0
    1.3329   -0.8978   -0.1073 C   0  0  0  0  0  0  0  0  0  0  0  0
    3.8072   -0.2848   -0.2761 C   0  0  0  0  0  0  0  0  0  0  0  0
   -1.0713   -0.2681   -0.4465 C   0  0  0  0  0  0  0  0  0  0  0  0
   -0.0287   -0.4817    0.3719 C   0  0  0  0  0  0  0  0  0  0  0  0
   -2.8225    1.4862   -0.6869 C   0  0  0  0  0  0  0  0  0  0  0  0
   -3.4697   -0.9337   -0.4413 C   0  0  0  0  0  0  0  0  0  0  0  0
    4.8516    0.7722    0.0485 C   0  0  0  0  0  0  0  0  0  0  0  0
  1  2  1  0
  2  6  1  0
  2  8  1  0
  2  9  1  0
  3  4  1  0
  3  5  1  0
  4  7  1  0
  5 10  1  0
  6  7  2  0
M  END
>  <PUBCHEM_COMPOUND_CID>  (1) 
29116

>  <PUBCHEM_CONFORMER_RMSD>  (1) 
0.6

>  <PUBCHEM_CONFORMER_DIVERSEORDER>  (1) 
3
27
35
1
15
33
17
24
14
16
20
30
25
21
23
8
12
18
34
36
29
5
22
26
6
32
19
2
11
4
31
10
7
13
28
9

>  <PUBCHEM_MMFF94_PARTIAL_CHARGES>  (1) 
8
1 -0.68
17 0.15
18 0.15
2 0.42
28 0.4
4 0.14
6 -0.29
7 -0.29

>  <PUBCHEM_EFFECTIVE_ROTOR_COUNT>  (1) 
4

>  <PUBCHEM_PHARMACOPHORE_FEATURES>  (1) 
5
1 1 acceptor
1 1 donor
1 10 hydrophobe
3 2 8 9 hydrophobe
4 3 4 5 7 hydrophobe

>  <PUBCHEM_HEAVY_ATOM_COUNT>  (1) 
10

>  <PUBCHEM_ATOM_DEF_STEREO_COUNT>  (1) 
0

>  <PUBCHEM_ATOM_UDEF_STEREO_COUNT>  (1) 
0

>  <PUBCHEM_BOND_DEF_STEREO_COUNT>  (1) 
0

>  <PUBCHEM_BOND_UDEF_STEREO_COUNT>  (1) 
1

>  <PUBCHEM_ISOTOPIC_ATOM_COUNT>  (1) 
0

>  <PUBCHEM_COMPONENT_COUNT>  (1) 
1

>  <PUBCHEM_CACTVS_TAUTO_COUNT>  (1) 
1

>  <PUBCHEM_CONFORMER_ID>  (1) 
000071BC00000003

>  <PUBCHEM_MMFF94_ENERGY>  (1) 
6.5454

>  <PUBCHEM_FEATURE_SELFOVERLAP>  (1) 
25.372

>  <PUBCHEM_SHAPE_FINGERPRINT>  (1) 
10680689 15 18334583438253226470
11062470 55 11602816900019456798
114248 4 17418092161293240270
124424 183 11674873403214949375
12932764 1 17774988090291862590
14123238 8 18131350843120653534
14325111 11 18408321060325606590
18186145 218 18202290173745873590
190213 19 17775565329965201750
1986462 14 17989209247987985222
20279233 1 14201393863437156970
20281475 54 11240001157272140652
20645464 45 16515408439100464891
20645477 56 18335703780752125557
20645477 70 17489036976887493470
20828058 21 18261114075907236222
20828058 44 8646772196842219692
21293036 1 17846779628702221986
23402539 116 17458058296677501799
3248919 1 17488738965511148087
528716 315 17203609285121672795

>  <PUBCHEM_SHAPE_MULTIPOLES>  (1) 
199.93
8.58
1.12
0.86
7.9
0.25
0.17
1.71
-0.46
-0.58
-0.17
-0.51
0.05
0.1

>  <PUBCHEM_SHAPE_SELFOVERLAP>  (1) 
363.316

>  <PUBCHEM_SHAPE_VOLUME>  (1) 
129.3

>  <PUBCHEM_COORDINATE_TYPE>  (1) 
2
5
10

$$$$
