29127
     RDKit          3D

 39 44  0  0  1  0  0  0  0  0999 V2000
   -3.7219   -2.5991    0.8583 O   0  0  0  0  0  0  0  0  0  0  0  0
    0.4727   -3.8095   -0.2415 O   0  0  0  0  0  0  0  0  0  0  0  0
    4.3232   -0.9813   -0.6239 O   0  0  0  0  0  0  0  0  0  0  0  0
   -7.3210    2.6840   -1.1301 O   0  0  0  0  0  0  0  0  0  0  0  0
    5.0040    1.2312   -0.9011 O   0  0  0  0  0  0  0  0  0  0  0  0
   -9.2398    2.4747    0.1231 O   0  0  0  0  0  0  0  0  0  0  0  0
    6.4376   -1.3737    1.2359 O   0  0  0  0  0  0  0  0  0  0  0  0
    8.7126    0.3364    0.6706 O   0  0  0  0  0  0  0  0  0  0  0  0
    7.9317    3.0927    0.3308 O   0  0  0  0  0  0  0  0  0  0  0  0
    3.7217    3.3155    0.4201 O   0  0  0  0  0  0  0  0  0  0  0  0
   -1.7832   -1.1755    0.6490 C   0  0  0  0  0  0  0  0  0  0  0  0
   -3.3170   -1.2253    0.9100 C   0  0  0  0  0  0  0  0  0  0  0  0
   -1.4532   -1.5554   -0.8213 C   0  0  0  0  0  0  0  0  0  0  0  0
   -4.1475   -0.3585   -0.1116 C   0  0  0  0  0  0  0  0  0  0  0  0
    0.0992   -1.5650   -1.1376 C   0  0  0  0  0  0  0  0  0  0  0  0
    0.8586   -2.4364   -0.0717 C   0  0  0  0  0  0  0  0  0  0  0  0
   -2.2929   -0.7314   -1.8321 C   0  0  0  0  0  0  0  0  0  0  0  0
   -3.2377    0.2772   -1.1839 C   0  0  0  0  0  0  0  0  0  0  0  0
   -4.7678    0.7635    0.7808 C   0  0  0  0  0  0  0  0  0  0  0  0
   -1.0134   -2.0855    1.6212 C   0  0  0  0  0  0  0  0  0  0  0  0
   -3.6757   -0.6810    2.3130 C   0  0  0  0  0  0  0  0  0  0  0  0
    0.4883   -2.0341    1.3705 C   0  0  0  0  0  0  0  0  0  0  0  0
   -4.9850    0.0722    2.1239 C   0  0  0  0  0  0  0  0  0  0  0  0
    0.6945   -0.1249   -1.1362 C   0  0  0  0  0  0  0  0  0  0  0  0
    2.3902   -2.3721   -0.2507 C   0  0  0  0  0  0  0  0  0  0  0  0
   -5.2474   -1.1858   -0.8253 C   0  0  0  0  0  0  0  0  0  0  0  0
    0.2845   -2.1842   -2.5545 C   0  0  0  0  0  0  0  0  0  0  0  0
    2.2128   -0.0910   -1.3166 C   0  0  0  0  0  0  0  0  0  0  0  0
    2.9386   -0.9485   -0.2883 C   0  0  0  0  0  0  0  0  0  0  0  0
   -5.9922    1.4413    0.2596 C   0  0  0  0  0  0  0  0  0  0  0  0
   -5.9759    2.2116   -1.0005 C   0  0  0  0  0  0  0  0  0  0  0  0
   -7.2010    1.4532    0.8150 C   0  0  0  0  0  0  0  0  0  0  0  0
    5.0305    0.1063   -0.0249 C   0  0  0  0  0  0  0  0  0  0  0  0
   -8.0577    2.2466   -0.0676 C   0  0  0  0  0  0  0  0  0  0  0  0
    6.4634   -0.3594    0.2314 C   0  0  0  0  0  0  0  0  0  0  0  0
    7.3567    0.7872    0.6996 C   0  0  0  0  0  0  0  0  0  0  0  0
    5.7390    2.3678   -0.4397 C   0  0  0  0  0  0  0  0  0  0  0  0
    7.2096    1.9967   -0.2203 C   0  0  0  0  0  0  0  0  0  0  0  0
    5.0608    3.0194    0.7667 C   0  0  0  0  0  0  0  0  0  0  0  0
  1 12  1  0
  2 16  1  0
  3 29  1  0
  3 33  1  0
  4 31  1  0
  4 34  1  0
  5 33  1  0
  5 37  1  0
  6 34  2  0
  7 35  1  0
  8 36  1  0
  9 38  1  0
 10 39  1  0
 11 12  1  0
 11 13  1  0
 11 20  1  0
 12 14  1  0
 12 21  1  0
 13 15  1  0
 13 17  1  0
 14 18  1  0
 14 19  1  0
 14 26  1  0
 15 16  1  0
 15 24  1  0
 15 27  1  0
 16 22  1  0
 16 25  1  0
 17 18  1  0
 19 23  1  0
 19 30  1  0
 20 22  1  0
 21 23  1  0
 24 28  1  0
 25 29  1  0
 28 29  1  0
 30 31  1  0
 30 32  2  0
 32 34  1  0
 33 35  1  0
 35 36  1  0
 36 38  1  0
 37 38  1  0
 37 39  1  0
M  END
>  <PUBCHEM_COMPOUND_CID>  (1) 
29127

>  <PUBCHEM_CONFORMER_RMSD>  (1) 
1

>  <PUBCHEM_CONFORMER_DIVERSEORDER>  (1) 
4
172
214
178
193
92
159
179
132
112
227
120
82
233
155
189
173
128
113
60
220
45
91
226
192
184
190
144
183
228
204
93
110
211
185
13
139
88
200
202
97
141
212
218
225
181
105
186
213
206
70
145
167
56
72
235
116
146
176
152
149
114
216
35
77
194
61
143
150
84
170
79
158
234
148
196
166
223
203
78
199
94
219
64
215
195
162
98
103
229
182
122
169
153
175
237
191
87
44
24
221
83
210
86
74
217
111
188
49
222
133
25
201
205
224
163
115
96
73
180
137
232
5
156
147
53
46
50
85
130
47
157
134
100
15
68
177
164
42
171
62
126
12
118
106
31
124
34
2
29
230
66
209
52
121
59
154
108
90
81
151
80
123
117
10
138
135
208
89
37
99
39
17
236
76
197
75
11
198
18
6
174
231
19
95
36
187
136
65
7
57
165
38
101
9
8
109
48
131
207
140
1
161
16
22
127
125
160
71
27
21
168
54
55
119
30
67
32
26
104
41
102
129
63
51
23
69
107
28
14
58
33
142
3
40
20
43

>  <PUBCHEM_MMFF94_PARTIAL_CHARGES>  (1) 
31
1 -0.68
10 -0.68
12 0.28
16 0.28
19 0.14
2 -0.68
29 0.28
3 -0.56
30 -0.28
31 0.42
32 -0.14
33 0.56
34 0.71
35 0.28
36 0.28
37 0.28
38 0.28
39 0.28
4 -0.43
5 -0.56
6 -0.57
68 0.4
69 0.4
7 -0.68
72 0.15
78 0.4
8 -0.68
81 0.4
82 0.4
83 0.4
9 -0.68

>  <PUBCHEM_EFFECTIVE_ROTOR_COUNT>  (1) 
7.8

>  <PUBCHEM_PHARMACOPHORE_FEATURES>  (1) 
21
1 1 acceptor
1 1 donor
1 10 acceptor
1 10 donor
1 2 acceptor
1 2 donor
1 3 acceptor
1 5 acceptor
1 6 acceptor
1 7 acceptor
1 7 donor
1 8 acceptor
1 8 donor
1 9 acceptor
1 9 donor
5 12 14 19 21 23 rings
5 4 30 31 32 34 rings
6 11 12 13 14 17 18 rings
6 11 13 15 16 20 22 rings
6 15 16 24 25 28 29 rings
6 5 33 35 36 37 38 rings

>  <PUBCHEM_HEAVY_ATOM_COUNT>  (1) 
39

>  <PUBCHEM_ATOM_DEF_STEREO_COUNT>  (1) 
8

>  <PUBCHEM_ATOM_UDEF_STEREO_COUNT>  (1) 
5

>  <PUBCHEM_BOND_DEF_STEREO_COUNT>  (1) 
0

>  <PUBCHEM_BOND_UDEF_STEREO_COUNT>  (1) 
0

>  <PUBCHEM_ISOTOPIC_ATOM_COUNT>  (1) 
0

>  <PUBCHEM_COMPONENT_COUNT>  (1) 
1

>  <PUBCHEM_CACTVS_TAUTO_COUNT>  (1) 
1

>  <PUBCHEM_CONFORMER_ID>  (1) 
000071C700000004

>  <PUBCHEM_MMFF94_ENERGY>  (1) 
140.3044

>  <PUBCHEM_FEATURE_SELFOVERLAP>  (1) 
106.784

>  <PUBCHEM_SHAPE_FINGERPRINT>  (1) 
10 15 18041001717455164877
10006869 2 18339075995920508172
10319926 262 17095535001504151363
10554248 39 16988009284394932086
10930396 42 17022620871688523101
11456790 92 18334571352837865392
12422481 6 17822294617021515276
13248334 5 18125161533049748750
13383668 362 17386305250217502867
13673619 4 8358249337818496039
13690498 29 10519989227745760507
13782708 43 9439405700830711102
13811026 1 18409451388095571163
13911987 19 17203329992616394847
14931854 50 14189576300056778111
15131766 46 18271233997607943958
15183329 4 17132119056569716360
15320294 125 13479140098906268387
15510800 12 9799691484855967613
15840311 113 18340491062520906950
16994733 274 18343858926845428371
17134984 74 11095884848569017284
19301679 30 12829759679102305939
19302320 297 18186806889490193036
20691028 202 18339077215707492716
21033648 29 17894638049602054979
21130935 74 18113618988924950658
22122407 14 18412551993722056513
23522609 53 16915396394773607427
23576562 1 15553578817454973937
24771293 8 18259985997934919605
255183 451 10591749979335150715
2838139 119 18341611559395703486
3103668 31 15409462589595821453
312425 54 17385443241406340186
3918712 181 18272367590192364176
397638 26 18040434395246245824
4093350 32 18339360738830118422
4112364 45 18261668177917168499
4258327 124 18059853961695828663
4403749 210 18340208587276368763
504843 32 18060137686666691183
5372103 7 18342176640143968605
54039377 194 10665229241664614976
5470011 282 10879984762006692002
57527293 21 15213883617521652599
6058803 2 15479323106152167187
6086070 43 17203322377064626344
6201320 82 17987253152842945289
6691757 9 16225764151505121867
9896288 288 13479671102750491151
999808 66 9151169853349814449

>  <PUBCHEM_SHAPE_MULTIPOLES>  (1) 
743.91
24.35
3.71
1.71
7.58
1.02
0.02
27.14
3.89
0.94
-0.05
-1.45
-0.73
1.09

>  <PUBCHEM_SHAPE_SELFOVERLAP>  (1) 
1600.926

>  <PUBCHEM_SHAPE_VOLUME>  (1) 
406.1

>  <PUBCHEM_COORDINATE_TYPE>  (1) 
2
5
10

$$$$
