29128
     RDKit          3D

 13 14  0  0  0  0  0  0  0  0999 V2000
    4.4305   -0.3404    0.0000 O   0  0  0  0  0  0  0  0  0  0  0  0
    3.0567    1.4445   -0.0010 O   0  0  0  0  0  0  0  0  0  0  0  0
    0.3277    0.6939    0.0009 N   0  0  0  0  0  0  0  0  0  0  0  0
   -0.0874   -1.4896    0.0003 N   0  0  0  0  0  0  0  0  0  0  0  0
    2.2084   -0.7568    0.0002 N   0  0  0  0  0  0  0  0  0  0  0  0
   -1.0390    0.5812    0.0004 C   0  0  0  0  0  0  0  0  0  0  0  0
   -1.2730   -0.7912   -0.0001 C   0  0  0  0  0  0  0  0  0  0  0  0
    0.8507   -0.5691    0.0010 C   0  0  0  0  0  0  0  0  0  0  0  0
   -2.0595    1.5327    0.0004 C   0  0  0  0  0  0  0  0  0  0  0  0
   -2.5976   -1.2601   -0.0007 C   0  0  0  0  0  0  0  0  0  0  0  0
   -3.3717    1.0484    0.0000 C   0  0  0  0  0  0  0  0  0  0  0  0
   -3.6381   -0.3228   -0.0007 C   0  0  0  0  0  0  0  0  0  0  0  0
    3.1923    0.2291   -0.0007 C   0  0  0  0  0  0  0  0  0  0  0  0
  1 13  1  0
  2 13  2  0
  3  6  1  0
  3  8  1  0
  4  7  1  0
  4  8  2  0
  5  8  1  0
  5 13  1  0
  6  7  2  0
  6  9  1  0
  7 10  1  0
  9 11  2  0
 10 12  2  0
 11 12  1  0
M  END
>  <PUBCHEM_COMPOUND_CID>  (1) 
29128

>  <PUBCHEM_CONFORMER_RMSD>  (1) 
0.6

>  <PUBCHEM_CONFORMER_DIVERSEORDER>  (1) 
1

>  <PUBCHEM_MMFF94_PARTIAL_CHARGES>  (1) 
20
1 -0.65
10 -0.15
11 -0.15
12 -0.15
13 0.78
14 0.27
15 0.15
16 0.15
17 0.15
18 0.15
19 0.37
2 -0.57
20 0.5
3 0.03
4 -0.57
5 -0.49
6 -0.15
7 0.23
8 0.25
9 -0.15

>  <PUBCHEM_EFFECTIVE_ROTOR_COUNT>  (1) 
2

>  <PUBCHEM_PHARMACOPHORE_FEATURES>  (1) 
6
1 2 acceptor
1 3 donor
1 5 donor
3 1 2 13 anion
5 3 4 6 7 8 rings
6 6 7 9 10 11 12 rings

>  <PUBCHEM_HEAVY_ATOM_COUNT>  (1) 
13

>  <PUBCHEM_ATOM_DEF_STEREO_COUNT>  (1) 
0

>  <PUBCHEM_ATOM_UDEF_STEREO_COUNT>  (1) 
0

>  <PUBCHEM_BOND_DEF_STEREO_COUNT>  (1) 
0

>  <PUBCHEM_BOND_UDEF_STEREO_COUNT>  (1) 
0

>  <PUBCHEM_ISOTOPIC_ATOM_COUNT>  (1) 
0

>  <PUBCHEM_COMPONENT_COUNT>  (1) 
1

>  <PUBCHEM_CACTVS_TAUTO_COUNT>  (1) 
3

>  <PUBCHEM_CONFORMER_ID>  (1) 
000071C800000001

>  <PUBCHEM_MMFF94_ENERGY>  (1) 
22.4828

>  <PUBCHEM_FEATURE_SELFOVERLAP>  (1) 
30.589

>  <PUBCHEM_SHAPE_FINGERPRINT>  (1) 
10608611 8 18412259540877709880
11132069 177 18412257346091172072
12032990 46 18411425032947728691
12932764 1 17385996248304482406
13024252 1 11602538728436878239
13380535 76 18411138013247613567
14144814 61 18407758123030019584
14325111 11 18410856551060443456
15219456 202 18058739004537740951
16945 1 18410855430601512867
17802600 8 18411131442132176032
18186145 218 18271250425968711668
200 152 17632291272310556039
20871998 184 18201162160741904623
23402539 116 18343010090867657085
23402655 69 18197764532853054493
23463225 33 18335137562122616562
23559900 14 18271242717014306670
2748010 2 18121787132079134519
5104073 3 18411138060454954720
6333449 129 18412543206529964365
7364860 26 18195526987223739630

>  <PUBCHEM_SHAPE_MULTIPOLES>  (1) 
240.85
6.82
1.48
0.58
4.8
0.13
0
0.77
0
-0.53
0
-0.08
0
0

>  <PUBCHEM_SHAPE_SELFOVERLAP>  (1) 
526.121

>  <PUBCHEM_SHAPE_VOLUME>  (1) 
131.5

>  <PUBCHEM_COORDINATE_TYPE>  (1) 
2
5
10

$$$$
