29120
     RDKit          3D

 14 15  0  0  0  0  0  0  0  0999 V2000
    3.5200   -0.8785   -1.8876 Cl  0  0  0  0  0  0  0  0  0  0  0  0
   -0.4291    2.2902    0.1332 S   0  0  0  0  0  0  0  0  0  0  0  0
   -3.2599    0.2280    0.1806 N   0  0  0  0  0  0  0  0  0  0  0  0
   -1.5156   -0.9772   -0.6148 N   0  0  0  0  0  0  0  0  0  0  0  0
   -3.3284   -1.0814    0.4596 N   0  0  0  0  0  0  0  0  0  0  0  0
   -2.3160   -1.8342    0.0072 N   0  0  0  0  0  0  0  0  0  0  0  0
   -1.5309    1.4701   -1.0533 C   0  0  0  0  0  0  0  0  0  0  0  0
    0.8381    1.0578    0.3624 C   0  0  0  0  0  0  0  0  0  0  0  0
   -2.1185    0.2211   -0.4826 C   0  0  0  0  0  0  0  0  0  0  0  0
    1.5943    0.6230   -0.7261 C   0  0  0  0  0  0  0  0  0  0  0  0
    1.0735    0.5285    1.6313 C   0  0  0  0  0  0  0  0  0  0  0  0
    2.5860   -0.3413   -0.5455 C   0  0  0  0  0  0  0  0  0  0  0  0
    2.0651   -0.4357    1.8119 C   0  0  0  0  0  0  0  0  0  0  0  0
    2.8214   -0.8705    0.7235 C   0  0  0  0  0  0  0  0  0  0  0  0
  1 12  1  0
  2  7  1  0
  2  8  1  0
  3  5  1  0
  3  9  2  0
  4  6  2  0
  4  9  1  0
  5  6  1  0
  7  9  1  0
  8 10  2  0
  8 11  1  0
 10 12  1  0
 11 13  2  0
 12 14  2  0
 13 14  1  0
M  END
>  <PUBCHEM_COMPOUND_CID>  (1) 
29120

>  <PUBCHEM_CONFORMER_RMSD>  (1) 
0.6

>  <PUBCHEM_CONFORMER_DIVERSEORDER>  (1) 
1
15
21
8
13
23
16
9
14
12
5
19
10
17
7
11
6
3
24
22
4
18
2
20

>  <PUBCHEM_MMFF94_PARTIAL_CHARGES>  (1) 
19
1 -0.18
10 -0.15
11 -0.15
12 0.18
13 -0.15
14 -0.15
17 0.15
18 0.15
19 0.15
2 -0.33
20 0.15
21 0.27
3 -0.71
4 -0.23
5 0.57
6 -0.42
7 0.41
8 0.1
9 0.34

>  <PUBCHEM_EFFECTIVE_ROTOR_COUNT>  (1) 
3

>  <PUBCHEM_PHARMACOPHORE_FEATURES>  (1) 
3
3 3 4 9 cation
5 3 4 5 6 9 rings
6 8 10 11 12 13 14 rings

>  <PUBCHEM_HEAVY_ATOM_COUNT>  (1) 
14

>  <PUBCHEM_ATOM_DEF_STEREO_COUNT>  (1) 
0

>  <PUBCHEM_ATOM_UDEF_STEREO_COUNT>  (1) 
0

>  <PUBCHEM_BOND_DEF_STEREO_COUNT>  (1) 
0

>  <PUBCHEM_BOND_UDEF_STEREO_COUNT>  (1) 
0

>  <PUBCHEM_ISOTOPIC_ATOM_COUNT>  (1) 
0

>  <PUBCHEM_COMPONENT_COUNT>  (1) 
1

>  <PUBCHEM_CACTVS_TAUTO_COUNT>  (1) 
2

>  <PUBCHEM_CONFORMER_ID>  (1) 
000071C000000001

>  <PUBCHEM_MMFF94_ENERGY>  (1) 
22.5585

>  <PUBCHEM_FEATURE_SELFOVERLAP>  (1) 
15.223

>  <PUBCHEM_SHAPE_FINGERPRINT>  (1) 
11140007 195 17774459225715691811
11471102 22 16486675992795925712
12202030 40 17917986166127201782
12400797 292 17968672625834359900
13571099 52 7997697462793212469
14115302 16 17679000639340425957
15276787 5 16486988275367224755
15375462 175 18338235951260951679
16752209 62 18189601758043077053
16945 1 18266170634972273140
18522851 12 17968101936365623899
19049666 15 17558545807723014256
19422 9 17385725742574038505
19766037 51 17916881148504352596
20379382 53 16844998121968126728
20645476 183 17388249035987188485
20645477 70 17904195177054951495
20711983 138 17703515402164302873
20711985 344 18268990882276653453
21061003 4 16199873847878407260
22721475 48 18131068212428507612
228727 97 17676783001918198260
230 275 9943536244521015432
232386 152 18188470411864138274
23557571 272 18342168913582283752
23598291 2 17097494189617430460
305870 269 10159711182856419164
568465 68 17489582364118072038
576247 118 17989213624702318264
7364860 26 18054509385301277921
81228 2 17914603956570629328

>  <PUBCHEM_SHAPE_MULTIPOLES>  (1) 
273.91
5.54
1.81
1.59
0.69
0.43
-0.18
-2.72
1.04
1.05
0.11
-1.55
-0.11
0.6

>  <PUBCHEM_SHAPE_SELFOVERLAP>  (1) 
556.86

>  <PUBCHEM_SHAPE_VOLUME>  (1) 
161.6

>  <PUBCHEM_COORDINATE_TYPE>  (1) 
2
5
10

$$$$
