2913
     RDKit          3D

 22 25  0  0  0  0  0  0  0  0999 V2000
   -4.0233   -0.2293    0.2279 N   0  0  0  0  0  0  0  0  0  0  0  0
   -1.2581   -0.0937   -0.5897 C   0  0  0  0  0  0  0  0  0  0  0  0
   -2.1513    1.1116   -0.7021 C   0  0  0  0  0  0  0  0  0  0  0  0
   -1.9947   -1.4054   -0.5897 C   0  0  0  0  0  0  0  0  0  0  0  0
   -3.2816    1.0389    0.3306 C   0  0  0  0  0  0  0  0  0  0  0  0
   -3.1309   -1.3816    0.4390 C   0  0  0  0  0  0  0  0  0  0  0  0
    0.0734   -0.0057   -0.4675 C   0  0  0  0  0  0  0  0  0  0  0  0
    0.8595   -1.2558   -0.3639 C   0  0  0  0  0  0  0  0  0  0  0  0
    0.6882    1.3367   -0.3597 C   0  0  0  0  0  0  0  0  0  0  0  0
   -5.1268   -0.2549    1.1877 C   0  0  0  0  0  0  0  0  0  0  0  0
    1.7203   -1.4864    0.7263 C   0  0  0  0  0  0  0  0  0  0  0  0
    1.5115    1.6747    0.7314 C   0  0  0  0  0  0  0  0  0  0  0  0
    0.7705   -2.2164   -1.3890 C   0  0  0  0  0  0  0  0  0  0  0  0
    0.4734    2.2803   -1.3818 C   0  0  0  0  0  0  0  0  0  0  0  0
    1.8658   -0.5635    1.8654 C   0  0  0  0  0  0  0  0  0  0  0  0
    1.7773    0.7756    1.8678 C   0  0  0  0  0  0  0  0  0  0  0  0
    2.4396   -2.6936    0.7808 C   0  0  0  0  0  0  0  0  0  0  0  0
    2.0663    2.9657    0.7897 C   0  0  0  0  0  0  0  0  0  0  0  0
    1.5031   -3.4007   -1.3247 C   0  0  0  0  0  0  0  0  0  0  0  0
    1.0446    3.5502   -1.3139 C   0  0  0  0  0  0  0  0  0  0  0  0
    2.3349   -3.6409   -0.2382 C   0  0  0  0  0  0  0  0  0  0  0  0
    1.8382    3.8941   -0.2263 C   0  0  0  0  0  0  0  0  0  0  0  0
  1  5  1  0
  1  6  1  0
  1 10  1  0
  2  3  1  0
  2  4  1  0
  2  7  2  3
  3  5  1  0
  4  6  1  0
  7  8  1  0
  7  9  1  0
  8 11  1  0
  8 13  2  0
  9 12  2  0
  9 14  1  0
 11 15  1  0
 11 17  2  0
 12 16  1  0
 12 18  1  0
 13 19  1  0
 14 20  2  0
 15 16  2  0
 17 21  1  0
 18 22  2  0
 19 21  2  0
 20 22  1  0
M  END
>  <PUBCHEM_COMPOUND_CID>  (1) 
2913

>  <PUBCHEM_CONFORMER_RMSD>  (1) 
0.6

>  <PUBCHEM_CONFORMER_DIVERSEORDER>  (1) 
1
2

>  <PUBCHEM_MMFF94_PARTIAL_CHARGES>  (1) 
32
1 -0.81
10 0.27
11 0.03
12 0.03
13 -0.15
14 -0.15
15 -0.18
16 -0.18
17 -0.15
18 -0.15
19 -0.15
2 -0.28
20 -0.15
21 -0.15
22 -0.15
3 0.14
34 0.15
35 0.15
36 0.15
37 0.15
38 0.15
39 0.15
4 0.14
40 0.15
41 0.15
42 0.15
43 0.15
5 0.27
6 0.27
7 -0.06
8 0.03
9 0.03

>  <PUBCHEM_EFFECTIVE_ROTOR_COUNT>  (1) 
1

>  <PUBCHEM_PHARMACOPHORE_FEATURES>  (1) 
5
1 1 cation
6 1 2 3 4 5 6 rings
6 8 11 13 17 19 21 rings
6 9 12 14 18 20 22 rings
7 7 8 9 11 12 15 16 rings

>  <PUBCHEM_HEAVY_ATOM_COUNT>  (1) 
22

>  <PUBCHEM_ATOM_DEF_STEREO_COUNT>  (1) 
0

>  <PUBCHEM_ATOM_UDEF_STEREO_COUNT>  (1) 
0

>  <PUBCHEM_BOND_DEF_STEREO_COUNT>  (1) 
0

>  <PUBCHEM_BOND_UDEF_STEREO_COUNT>  (1) 
0

>  <PUBCHEM_ISOTOPIC_ATOM_COUNT>  (1) 
0

>  <PUBCHEM_COMPONENT_COUNT>  (1) 
1

>  <PUBCHEM_CACTVS_TAUTO_COUNT>  (1) 
1

>  <PUBCHEM_CONFORMER_ID>  (1) 
00000B6100000001

>  <PUBCHEM_MMFF94_ENERGY>  (1) 
85.3812

>  <PUBCHEM_FEATURE_SELFOVERLAP>  (1) 
25.388

>  <PUBCHEM_SHAPE_FINGERPRINT>  (1) 
10906281 52 17759200095850596908
11578080 2 16588852499857457935
12422481 6 18195781035002808208
12714826 92 17550105862074364662
12716301 132 17040329338875287466
12788726 201 17685509649540831482
13140716 1 18194687192236015665
13681431 1 18266478536803387922
14022347 108 17756981212533736625
14223421 5 18261672679390599169
14363568 33 18411978049179897264
14790565 3 18339080497094512712
14817 1 12143120255450954064
14955137 171 18411704305096651792
15906896 17 17183069579086394710
1601671 61 18412262826875474288
16945 1 18267563819162249300
17357779 13 17621012293070450813
19591789 44 18265892643625255940
20510252 161 17331675748144225982
20600515 1 17536013485907374116
20739085 24 18412539890910261794
21524375 3 17831017192951776333
21731228 192 17977102684384437137
21756936 100 16668816978464680356
23419403 2 17195976295039652928
23557571 272 17619903960149723126
23558518 356 17691401232579836326
23559900 14 18410581673929167415
2748010 2 17622122856128685240
3091708 16 9143660171287712695
3380486 145 17769058312530142142
3610482 184 16379464018595847156
4409770 3 17400073072189159615
576247 118 18124030126824766966
5845 1 10990632486564023180
6287921 2 18341610485648981451
6442390 28 17764611088938781139
6786 2 17327514491654170448
7097593 13 18341610400181866563
7364860 26 18411987978780113229
81228 2 17547006329978486348
9841814 1 18113904827740511595

>  <PUBCHEM_SHAPE_MULTIPOLES>  (1) 
447.77
5.47
4.95
1.54
9.74
1.36
-0.26
-1.7
-2.39
-5.58
1.67
-0.6
0.05
0.36

>  <PUBCHEM_SHAPE_SELFOVERLAP>  (1) 
987.814

>  <PUBCHEM_SHAPE_VOLUME>  (1) 
235.4

>  <PUBCHEM_COORDINATE_TYPE>  (1) 
2
5
10

$$$$
