29149
     RDKit          3D

 26 28  0  0  1  0  0  0  0  0999 V2000
    0.3855    1.6276    1.0018 Si  0  0  0  0  0  4  0  0  0  0  0  0
    0.4245   -1.5293    1.1316 Si  0  0  0  0  0  4  0  0  0  0  0  0
    3.1485    1.6022   -0.5333 Si  0  0  0  0  0  4  0  0  0  0  0  0
    3.1826   -1.5620   -0.4127 Si  0  0  0  0  0  4  0  0  0  0  0  0
    0.4334    0.0720    1.6132 O   0  0  0  0  0  0  0  0  0  0  0  0
    1.5180    1.8104   -0.2111 O   0  0  0  0  0  0  0  0  0  0  0  0
    1.5585   -1.7821   -0.0674 O   0  0  0  0  0  0  0  0  0  0  0  0
    3.5985    0.0376   -0.1353 O   0  0  0  0  0  0  0  0  0  0  0  0
   -1.3138    1.8121    0.1987 C   0  0  0  0  0  0  0  0  0  0  0  0
   -1.2712   -1.8213    0.3529 C   0  0  0  0  0  0  0  0  0  0  0  0
    0.6027    2.9043    2.3445 C   0  0  0  0  0  0  0  0  0  0  0  0
    0.6776   -2.6854    2.5735 C   0  0  0  0  0  0  0  0  0  0  0  0
    3.4796    1.9338   -2.3551 C   0  0  0  0  0  0  0  0  0  0  0  0
    4.1711    2.8284    0.4612 C   0  0  0  0  0  0  0  0  0  0  0  0
    3.5145   -2.0218   -2.2064 C   0  0  0  0  0  0  0  0  0  0  0  0
    4.2366   -2.6869    0.6651 C   0  0  0  0  0  0  0  0  0  0  0  0
   -2.4264    2.2996    0.9269 C   0  0  0  0  0  0  0  0  0  0  0  0
   -2.4644   -1.6575    1.0979 C   0  0  0  0  0  0  0  0  0  0  0  0
   -1.5316    1.4687   -1.1580 C   0  0  0  0  0  0  0  0  0  0  0  0
   -1.4053   -2.2141   -1.0012 C   0  0  0  0  0  0  0  0  0  0  0  0
   -3.6817    2.4353    0.3341 C   0  0  0  0  0  0  0  0  0  0  0  0
   -3.7169   -1.8738    0.5233 C   0  0  0  0  0  0  0  0  0  0  0  0
   -2.7871    1.6046   -1.7507 C   0  0  0  0  0  0  0  0  0  0  0  0
   -2.6578   -2.4303   -1.5756 C   0  0  0  0  0  0  0  0  0  0  0  0
   -3.8620    2.0879   -1.0046 C   0  0  0  0  0  0  0  0  0  0  0  0
   -3.8136   -2.2601   -0.8133 C   0  0  0  0  0  0  0  0  0  0  0  0
  1  5  1  0
  1  6  1  0
  1  9  1  0
  1 11  1  0
  2  5  1  0
  2  7  1  0
  2 10  1  0
  2 12  1  0
  3  6  1  0
  3  8  1  0
  3 13  1  0
  3 14  1  0
  4  7  1  0
  4  8  1  0
  4 15  1  0
  4 16  1  0
  9 17  2  0
  9 19  1  0
 10 18  2  0
 10 20  1  0
 17 21  1  0
 18 22  1  0
 19 23  2  0
 20 24  2  0
 21 25  2  0
 22 26  2  0
 23 25  1  0
 24 26  1  0
M  END
>  <PUBCHEM_COMPOUND_CID>  (1) 
29149

>  <PUBCHEM_CONFORMER_RMSD>  (1) 
0.8

>  <PUBCHEM_CONFORMER_DIVERSEORDER>  (1) 
3
19
30
51
62
58
28
41
24
40
14
59
31
11
1
6
49
54
12
57
61
46
17
45
35
50
37
55
36
16
13
32
60
42
4
8
64
63
21
43
20
23
2
52
25
53
47
22
10
39
34
56
38
9
7
26
48
27
33
44
5
18
29
15

>  <PUBCHEM_MMFF94_PARTIAL_CHARGES>  (1) 
36
1 0.9
10 -0.22
11 -0.08
12 -0.08
13 -0.08
14 -0.08
15 -0.08
16 -0.08
17 -0.15
18 -0.15
19 -0.15
2 0.9
20 -0.15
21 -0.15
22 -0.15
23 -0.15
24 -0.15
25 -0.15
26 -0.15
3 0.76
4 0.76
45 0.15
46 0.15
47 0.15
48 0.15
49 0.15
5 -0.59
50 0.15
51 0.15
52 0.15
53 0.15
54 0.15
6 -0.59
7 -0.59
8 -0.59
9 -0.22

>  <PUBCHEM_EFFECTIVE_ROTOR_COUNT>  (1) 
3.6

>  <PUBCHEM_PHARMACOPHORE_FEATURES>  (1) 
2
6 10 18 20 22 24 26 rings
6 9 17 19 21 23 25 rings

>  <PUBCHEM_HEAVY_ATOM_COUNT>  (1) 
26

>  <PUBCHEM_ATOM_DEF_STEREO_COUNT>  (1) 
0

>  <PUBCHEM_ATOM_UDEF_STEREO_COUNT>  (1) 
2

>  <PUBCHEM_BOND_DEF_STEREO_COUNT>  (1) 
0

>  <PUBCHEM_BOND_UDEF_STEREO_COUNT>  (1) 
0

>  <PUBCHEM_ISOTOPIC_ATOM_COUNT>  (1) 
0

>  <PUBCHEM_COMPONENT_COUNT>  (1) 
1

>  <PUBCHEM_CACTVS_TAUTO_COUNT>  (1) 
1

>  <PUBCHEM_CONFORMER_ID>  (1) 
000071DD00000003

>  <PUBCHEM_MMFF94_ENERGY>  (1) 
27.013

>  <PUBCHEM_FEATURE_SELFOVERLAP>  (1) 
10.149

>  <PUBCHEM_SHAPE_FINGERPRINT>  (1) 
10190108 129 17750824102622765539
104564 63 18263634242531330161
1100329 8 18265893553783718058
11578080 2 17560504188176909394
12107698 1 18410572894673539166
12156800 1 13589925992730088611
12422481 6 18121815822782276403
12788726 201 18119814856942353312
13140716 1 18336546023717311544
13149001 5 18268416958649739553
13583140 156 17387707002545572291
14117953 113 16895942550089690941
14251751 93 18334579018826811505
14251757 17 18341619183031147732
14790565 3 18055361241026356161
17357779 13 18122052367758047181
17492 54 17974561408528547525
20600515 1 17835768973290821122
20691752 17 17458062659994678276
20764821 26 18271517633042998487
20775438 99 17338947149778926639
20905425 154 18340480187605723134
21285901 2 18191313886182902159
22393880 68 18341061782792963596
22907989 373 17913798040611996774
23227448 37 18187933828535774351
23557571 272 18202275880063590458
23558518 356 18259989300733127386
23559900 14 18271241604712612066
23566358 2 18412263956135426972
2818148 4 18342181098245818307
3027735 51 18264214784143229856
460360 51 18334290963764960008
469060 322 16950567709681953927
508706 21 18042706029809403414
59755656 215 18196924689660899193
70251023 43 18340471370608323539

>  <PUBCHEM_SHAPE_MULTIPOLES>  (1) 
584.44
7.82
4.61
2.18
0.7
0.13
0.06
0.1
-3.1
-0.14
0.54
0.55
-0.1
-0.21

>  <PUBCHEM_SHAPE_SELFOVERLAP>  (1) 
1147.425

>  <PUBCHEM_SHAPE_VOLUME>  (1) 
348.9

>  <PUBCHEM_COORDINATE_TYPE>  (1) 
2
5
10

$$$$
