29147
     RDKit          3D

 11 11  0  0  0  0  0  0  0  0999 V2000
    3.1119    1.0977   -0.1625 O   0  0  0  0  0  0  0  0  0  0  0  0
    3.1119   -1.0975   -0.1627 O   0  0  0  0  0  0  0  0  0  0  0  0
   -3.7807    0.0002   -0.9057 N   0  0  0  0  0  0  0  0  0  0  0  0
    2.5063    0.0000   -0.1068 N   0  0  0  0  0  0  0  0  0  0  0  0
   -1.6854    0.0001    0.2820 C   0  0  0  0  0  0  0  0  0  0  0  0
   -3.1702   -0.0002    0.4209 C   0  0  0  0  0  0  0  0  0  0  0  0
   -0.9910    1.2080    0.2175 C   0  0  0  0  0  0  0  0  0  0  0  0
   -0.9910   -1.2080    0.2174 C   0  0  0  0  0  0  0  0  0  0  0  0
    1.0924   -0.0001    0.0236 C   0  0  0  0  0  0  0  0  0  0  0  0
    0.3978    1.2079    0.0882 C   0  0  0  0  0  0  0  0  0  0  0  0
    0.3979   -1.2081    0.0882 C   0  0  0  0  0  0  0  0  0  0  0  0
  1  4  1  0
  2  4  2  0
  3  6  1  0
  4  9  1  0
  5  6  1  0
  5  7  2  0
  5  8  1  0
  7 10  1  0
  8 11  2  0
  9 10  2  0
  9 11  1  0
M  CHG  2   1  -1   4   1
M  END
>  <PUBCHEM_COMPOUND_CID>  (1) 
29147

>  <PUBCHEM_CONFORMER_RMSD>  (1) 
0.4

>  <PUBCHEM_CONFORMER_DIVERSEORDER>  (1) 
1
2

>  <PUBCHEM_MMFF94_PARTIAL_CHARGES>  (1) 
17
1 -0.52
10 -0.15
11 -0.15
14 0.15
15 0.15
16 0.15
17 0.15
18 0.36
19 0.36
2 -0.52
3 -0.99
4 0.91
5 -0.14
6 0.41
7 -0.15
8 -0.15
9 0.13

>  <PUBCHEM_EFFECTIVE_ROTOR_COUNT>  (1) 
2

>  <PUBCHEM_PHARMACOPHORE_FEATURES>  (1) 
6
1 1 acceptor
1 1 anion
1 2 acceptor
1 3 cation
1 3 donor
6 5 7 8 9 10 11 rings

>  <PUBCHEM_HEAVY_ATOM_COUNT>  (1) 
11

>  <PUBCHEM_ATOM_DEF_STEREO_COUNT>  (1) 
0

>  <PUBCHEM_ATOM_UDEF_STEREO_COUNT>  (1) 
0

>  <PUBCHEM_BOND_DEF_STEREO_COUNT>  (1) 
0

>  <PUBCHEM_BOND_UDEF_STEREO_COUNT>  (1) 
0

>  <PUBCHEM_ISOTOPIC_ATOM_COUNT>  (1) 
0

>  <PUBCHEM_COMPONENT_COUNT>  (1) 
1

>  <PUBCHEM_CACTVS_TAUTO_COUNT>  (1) 
1

>  <PUBCHEM_CONFORMER_ID>  (1) 
000071DB00000001

>  <PUBCHEM_MMFF94_ENERGY>  (1) 
28.6019

>  <PUBCHEM_FEATURE_SELFOVERLAP>  (1) 
30.528

>  <PUBCHEM_SHAPE_FINGERPRINT>  (1) 
10219947 1 18411141333357098907
11062470 55 18260266356462874989
11206711 2 18335986346349868661
12032990 46 18409740551227570891
12897270 3 18408605833647049619
14325111 11 18410859853974774649
14993402 34 18060135466178108581
16945 1 18410581681764494227
193761 8 17617380576162042387
20201158 50 18411703170787649846
21293036 1 18409163342182849125
23235685 24 18409727374299288897
23402539 116 18201993300778579012
23402655 69 18266160766102869549
23552423 10 18260554471596194794
2748010 2 18122912198308530467
369184 2 18411422812597141450
5084963 1 18272652298983198280
528886 8 18411134770483631475

>  <PUBCHEM_SHAPE_MULTIPOLES>  (1) 
204.67
5.17
1.34
0.69
0.42
0
-0.03
0
-0.86
-0.43
0.05
0.35
0
0

>  <PUBCHEM_SHAPE_SELFOVERLAP>  (1) 
424.763

>  <PUBCHEM_SHAPE_VOLUME>  (1) 
118.1

>  <PUBCHEM_COORDINATE_TYPE>  (1) 
2
5
10

$$$$
