29142
     RDKit          3D

 18 19  0  0  0  0  0  0  0  0999 V2000
   -3.6855    0.4903    2.2005 Cl  0  0  0  0  0  0  0  0  0  0  0  0
   -5.0964   -0.2565   -0.6139 Cl  0  0  0  0  0  0  0  0  0  0  0  0
    2.9390    0.9489   -0.2794 N   0  0  0  0  0  0  0  0  0  0  0  0
    2.9134   -1.3743    0.3600 N   0  0  0  0  0  0  0  0  0  0  0  0
    0.8698   -2.5514    0.5335 N   0  0  0  0  0  0  0  0  0  0  0  0
    4.9343   -0.1952    0.1846 N   0  0  0  0  0  0  0  0  0  0  0  0
    0.8464   -0.2307   -0.1089 C   0  0  0  0  0  0  0  0  0  0  0  0
    1.5934    0.9015   -0.3662 C   0  0  0  0  0  0  0  0  0  0  0  0
   -0.5964   -0.2326   -0.2152 C   0  0  0  0  0  0  0  0  0  0  0  0
    0.9351    2.1818   -0.7685 C   0  0  0  0  0  0  0  0  0  0  0  0
    1.5687   -1.3504    0.2536 C   0  0  0  0  0  0  0  0  0  0  0  0
   -1.3787    0.0872    0.8945 C   0  0  0  0  0  0  0  0  0  0  0  0
   -1.2052   -0.5544   -1.4284 C   0  0  0  0  0  0  0  0  0  0  0  0
    0.5803    3.0512    0.4335 C   0  0  0  0  0  0  0  0  0  0  0  0
    3.5261   -0.2075    0.0835 C   0  0  0  0  0  0  0  0  0  0  0  0
   -2.7699    0.0851    0.7910 C   0  0  0  0  0  0  0  0  0  0  0  0
   -2.5960   -0.5565   -1.5319 C   0  0  0  0  0  0  0  0  0  0  0  0
   -3.3785   -0.2366   -0.4223 C   0  0  0  0  0  0  0  0  0  0  0  0
  1 16  1  0
  2 18  1  0
  3  8  2  0
  3 15  1  0
  4 11  1  0
  4 15  2  0
  5 11  1  0
  6 15  1  0
  7  8  1  0
  7  9  1  0
  7 11  2  0
  8 10  1  0
  9 12  2  0
  9 13  1  0
 10 14  1  0
 12 16  1  0
 13 17  2  0
 16 18  2  0
 17 18  1  0
M  END
>  <PUBCHEM_COMPOUND_CID>  (1) 
29142

>  <PUBCHEM_CONFORMER_RMSD>  (1) 
0.6

>  <PUBCHEM_CONFORMER_DIVERSEORDER>  (1) 
1
2

>  <PUBCHEM_MMFF94_PARTIAL_CHARGES>  (1) 
22
1 -0.18
10 0.14
11 0.41
12 -0.15
13 -0.15
15 0.72
16 0.18
17 -0.15
18 0.18
2 -0.18
21 0.15
22 0.15
26 0.15
27 0.4
28 0.4
29 0.4
3 -0.62
30 0.4
4 -0.62
5 -0.9
6 -0.9
8 0.17

>  <PUBCHEM_EFFECTIVE_ROTOR_COUNT>  (1) 
2

>  <PUBCHEM_PHARMACOPHORE_FEATURES>  (1) 
6
1 14 hydrophobe
1 5 donor
1 6 donor
4 3 4 6 15 cation
6 3 4 7 8 11 15 rings
6 9 12 13 16 17 18 rings

>  <PUBCHEM_HEAVY_ATOM_COUNT>  (1) 
18

>  <PUBCHEM_ATOM_DEF_STEREO_COUNT>  (1) 
0

>  <PUBCHEM_ATOM_UDEF_STEREO_COUNT>  (1) 
0

>  <PUBCHEM_BOND_DEF_STEREO_COUNT>  (1) 
0

>  <PUBCHEM_BOND_UDEF_STEREO_COUNT>  (1) 
0

>  <PUBCHEM_ISOTOPIC_ATOM_COUNT>  (1) 
0

>  <PUBCHEM_COMPONENT_COUNT>  (1) 
1

>  <PUBCHEM_CACTVS_TAUTO_COUNT>  (1) 
17

>  <PUBCHEM_CONFORMER_ID>  (1) 
000071D600000001

>  <PUBCHEM_MMFF94_ENERGY>  (1) 
69.5573

>  <PUBCHEM_FEATURE_SELFOVERLAP>  (1) 
30.446

>  <PUBCHEM_SHAPE_FINGERPRINT>  (1) 
10366900 7 17603297164024588063
104564 63 18266742385519613796
11471102 20 18333446555924987188
11578080 2 17699531850067991513
11615757 297 18411983593913948495
11796584 16 15791725274639912154
12236239 1 18060135444529334967
12633257 1 18043275559331008355
13132413 78 18343303639108829920
13134695 92 18335977640345904956
13538477 17 17845927550235502879
13581323 91 16917065559986434559
13583140 156 18336279976917314689
13965767 371 17413621374979064041
14115302 16 17703219737085196927
14251717 144 18407755945455512527
14993402 34 18272086110513763518
15219456 202 17385729135566605893
15309172 13 18333454252506751778
16945 1 18334021600479920653
17357990 137 17845114972329699241
1813 80 18340782442267065700
18175812 5 17022905687426791423
18219364 16 18113621213564164659
19049666 15 17314217870222407807
200 152 18411131442416837351
20279233 1 17240485788710957403
20645476 183 18130217251170360719
20645477 70 18114734932828263267
21639500 275 18264481952673645781
22112679 90 17917435345109131205
23175994 123 17967817128336022900
23402539 116 18343858910098023766
23419403 2 15080638067989636138
23493267 7 15864333728076945485
23526113 38 17458615667025014851
23557571 272 15267353928641622865
23559900 14 15719388400443589202
23598291 2 18130238059917325785
2748010 2 18048024178484847470
3286 77 18187931750008869319
34934 24 18267304227250062577
350125 39 17613164378750990716
474 4 18127121107519491808
568465 68 17822585957269196178
6992083 37 18131351920788264405
77492 1 18059856172897168919
81228 2 17540524726297160816
8272917 22 18337955580708326519
84936 182 17770213074644198521
9981440 41 16978407567082523560

>  <PUBCHEM_SHAPE_MULTIPOLES>  (1) 
354.25
7.77
2.05
1.36
1.45
1.15
-0.29
-1.06
-0.64
-1.45
-0.16
1.66
0.07
-0.97

>  <PUBCHEM_SHAPE_SELFOVERLAP>  (1) 
744.31

>  <PUBCHEM_SHAPE_VOLUME>  (1) 
201.6

>  <PUBCHEM_COORDINATE_TYPE>  (1) 
2
5
10

$$$$
