29158
     RDKit          3D

 18 18  0  0  0  0  0  0  0  0999 V2000
    2.7793    3.7184   -0.2797 Br  0  0  0  0  0  0  0  0  0  0  0  0
   -1.9736    0.8079    3.9245 Cl  0  0  0  0  0  0  0  0  0  0  0  0
   -4.9639   -0.1672   -2.2186 Cl  0  0  0  0  0  0  0  0  0  0  0  0
    1.4683   -2.1741   -0.5465 O   0  0  0  0  0  0  0  0  0  0  0  0
   -1.6123    0.4471   -0.0708 N   0  0  0  0  0  0  0  0  0  0  0  0
   -0.6700   -0.3125   -0.8916 C   0  0  0  0  0  0  0  0  0  0  0  0
   -1.3256    0.2519    1.3499 C   0  0  0  0  0  0  0  0  0  0  0  0
   -2.9876    0.0525   -0.3737 C   0  0  0  0  0  0  0  0  0  0  0  0
    0.7540    0.1116   -0.6487 C   0  0  0  0  0  0  0  0  0  0  0  0
    1.7504   -0.8424   -0.4884 C   0  0  0  0  0  0  0  0  0  0  0  0
   -2.3273    1.0248    2.1938 C   0  0  0  0  0  0  0  0  0  0  0  0
   -3.2854    0.2926   -1.8456 C   0  0  0  0  0  0  0  0  0  0  0  0
    1.0484    1.4676   -0.5884 C   0  0  0  0  0  0  0  0  0  0  0  0
    3.0650   -0.4330   -0.2645 C   0  0  0  0  0  0  0  0  0  0  0  0
    2.3630    1.8767   -0.3640 C   0  0  0  0  0  0  0  0  0  0  0  0
    3.3713    0.9265   -0.2024 C   0  0  0  0  0  0  0  0  0  0  0  0
    1.7646   -2.9503    0.6127 C   0  0  0  0  0  0  0  0  0  0  0  0
    0.7815   -4.0980    0.7021 C   0  0  0  0  0  0  0  0  0  0  0  0
  1 15  1  0
  2 11  1  0
  3 12  1  0
  4 10  1  0
  4 17  1  0
  5  6  1  0
  5  7  1  0
  5  8  1  0
  6  9  1  0
  7 11  1  0
  8 12  1  0
  9 10  2  0
  9 13  1  0
 10 14  1  0
 13 15  2  0
 14 16  2  0
 15 16  1  0
 17 18  1  0
M  END
>  <PUBCHEM_COMPOUND_CID>  (1) 
29158

>  <PUBCHEM_CONFORMER_RMSD>  (1) 
0.8

>  <PUBCHEM_CONFORMER_DIVERSEORDER>  (1) 
1
59
12
57
2
27
50
44
31
11
46
17
37
28
20
23
62
3
52
41
43
54
22
33
32
45
30
34
9
21
25
10
18
40
16
5
29
19
42
39
56
64
55
14
6
15
63
60
49
26
58
51
8
4
53
48
35
61
24
36
38
7
47
13

>  <PUBCHEM_MMFF94_PARTIAL_CHARGES>  (1) 
20
1 -0.11
10 0.08
11 0.29
12 0.29
13 -0.15
14 -0.15
15 0.11
16 -0.15
17 0.28
2 -0.29
29 0.15
3 -0.29
30 0.15
31 0.15
4 -0.36
5 -0.81
6 0.41
7 0.27
8 0.27
9 -0.14

>  <PUBCHEM_EFFECTIVE_ROTOR_COUNT>  (1) 
8

>  <PUBCHEM_PHARMACOPHORE_FEATURES>  (1) 
4
1 1 hydrophobe
1 4 acceptor
1 5 cation
6 9 10 13 14 15 16 rings

>  <PUBCHEM_HEAVY_ATOM_COUNT>  (1) 
18

>  <PUBCHEM_ATOM_DEF_STEREO_COUNT>  (1) 
0

>  <PUBCHEM_ATOM_UDEF_STEREO_COUNT>  (1) 
0

>  <PUBCHEM_BOND_DEF_STEREO_COUNT>  (1) 
0

>  <PUBCHEM_BOND_UDEF_STEREO_COUNT>  (1) 
0

>  <PUBCHEM_ISOTOPIC_ATOM_COUNT>  (1) 
0

>  <PUBCHEM_COMPONENT_COUNT>  (1) 
1

>  <PUBCHEM_CACTVS_TAUTO_COUNT>  (1) 
1

>  <PUBCHEM_CONFORMER_ID>  (1) 
000071E600000001

>  <PUBCHEM_MMFF94_ENERGY>  (1) 
47.6394

>  <PUBCHEM_FEATURE_SELFOVERLAP>  (1) 
20.297

>  <PUBCHEM_SHAPE_FINGERPRINT>  (1) 
11582403 64 16954462235380409941
11640471 11 17630913545528692961
11725454 13 17314482981252603197
12202030 40 16880227453410525579
12553582 1 17832716668614313222
12730499 353 18260260876474905047
12788726 201 17418380173526836171
13009979 54 17559107675281873791
13965767 371 17125665820899649944
14787075 74 17697035108474785895
14817 1 15891869093986744739
14844126 61 16316668104265514242
15852999 172 17748825228367858159
16945 1 18337121081199409916
19049666 15 17605283865187013113
19765921 60 18055335084062788101
20510252 161 16827565618892876324
20600515 1 15624500620002186871
20645477 70 18114733842069827895
21756936 100 17411660104192092288
23419403 2 16040836508507040067
23526113 38 17605268476229364863
23598291 2 17986962838263414902
23598294 1 16773802472242641659
23728640 28 15670396017335329451
238 59 18261106374556237607
257057 1 17687728451252228158
2748010 2 18115882969233231590
394222 165 18340471357263758255
495365 180 18189034529737908524
57100710 29 17272588130727557569
633830 44 18056789665159108748
7615 1 17845373254377211257
81228 2 15554449544801392545
9981440 41 18189323731493101449

>  <PUBCHEM_SHAPE_MULTIPOLES>  (1) 
369.26
6.59
3.73
2.6
5.05
3.26
3.37
-3.37
-3.72
-4.55
0.7
4.51
-1.09
-0.79

>  <PUBCHEM_SHAPE_SELFOVERLAP>  (1) 
705.985

>  <PUBCHEM_SHAPE_VOLUME>  (1) 
233.5

>  <PUBCHEM_COORDINATE_TYPE>  (1) 
2
5
10

$$$$
