29150
     RDKit          3D

  7  6  0  0  0  0  0  0  0  0999 V2000
   -2.1132   -1.4946   -0.0142 Cl  0  0  0  0  0  0  0  0  0  0  0  0
   -2.1127    1.4948    0.0137 Cl  0  0  0  0  0  0  0  0  0  0  0  0
    2.1133   -1.4945    0.0093 Cl  0  0  0  0  0  0  0  0  0  0  0  0
    2.1125    1.4948   -0.0186 Cl  0  0  0  0  0  0  0  0  0  0  0  0
   -1.2949   -0.0002   -0.0040 C   0  0  0  0  0  0  0  0  0  0  0  0
    1.2950    0.0001    0.0105 C   0  0  0  0  0  0  0  0  0  0  0  0
    0.0000   -0.0003    0.0032 C   0  0  0  0  0  0  0  0  0  0  0  0
  1  5  1  0
  2  5  1  0
  3  6  1  0
  4  6  1  0
  5  7  2  0
  6  7  2  0
M  END
>  <PUBCHEM_COMPOUND_CID>  (1) 
29150

>  <PUBCHEM_CONFORMER_RMSD>  (1) 
0.4

>  <PUBCHEM_CONFORMER_DIVERSEORDER>  (1) 
1

>  <PUBCHEM_MMFF94_PARTIAL_CHARGES>  (1) 
7
1 -0.14
2 -0.14
3 -0.14
4 -0.14
5 0.34
6 0.34
7 -0.13

>  <PUBCHEM_EFFECTIVE_ROTOR_COUNT>  (1) 
0

>  <PUBCHEM_PHARMACOPHORE_FEATURES>  (1) 
0

>  <PUBCHEM_HEAVY_ATOM_COUNT>  (1) 
7

>  <PUBCHEM_ATOM_DEF_STEREO_COUNT>  (1) 
0

>  <PUBCHEM_ATOM_UDEF_STEREO_COUNT>  (1) 
0

>  <PUBCHEM_BOND_DEF_STEREO_COUNT>  (1) 
0

>  <PUBCHEM_BOND_UDEF_STEREO_COUNT>  (1) 
0

>  <PUBCHEM_ISOTOPIC_ATOM_COUNT>  (1) 
0

>  <PUBCHEM_COMPONENT_COUNT>  (1) 
1

>  <PUBCHEM_CACTVS_TAUTO_COUNT>  (1) 
1

>  <PUBCHEM_CONFORMER_ID>  (1) 
000071DE00000001

>  <PUBCHEM_MMFF94_ENERGY>  (1) 
0.3124

>  <PUBCHEM_FEATURE_SELFOVERLAP>  (1) 
0

>  <PUBCHEM_SHAPE_FINGERPRINT>  (1) 
12897270 3 18266740375142096685
14390081 3 18341893034367509560
19973954 147 18410856563935062181
20096714 4 18409730616820476601
20711978 1 18411131450542762623
21040471 1 18267021657066974337
22082395 3 17833553392667479314
23552423 10 18334576849594104806
24536 1 18338498798927504769
29004967 10 18119250811887965299

>  <PUBCHEM_SHAPE_MULTIPOLES>  (1) 
151.54
3.74
1.96
0.64
0
0
0
0
0
0
0
0
0
-0.03

>  <PUBCHEM_SHAPE_SELFOVERLAP>  (1) 
254.636

>  <PUBCHEM_SHAPE_VOLUME>  (1) 
102.9

>  <PUBCHEM_COORDINATE_TYPE>  (1) 
2
5
10

$$$$
