29153
     RDKit          3D

 12 12  0  0  0  0  0  0  0  0999 V2000
   -1.4390    2.6488   -0.1426 Cl  0  0  0  0  0  0  0  0  0  0  0  0
    0.8647    0.5007    0.8394 S   0  0  0  0  0  0  0  0  0  0  0  0
    4.0594   -0.2467   -1.2522 O   0  0  0  0  0  0  0  0  0  0  0  0
    3.7890    0.1125    0.9756 O   0  0  0  0  0  0  0  0  0  0  0  0
   -0.7974    0.0283    0.3662 C   0  0  0  0  0  0  0  0  0  0  0  0
   -1.7585    0.9512   -0.0465 C   0  0  0  0  0  0  0  0  0  0  0  0
   -1.1134   -1.3292    0.4233 C   0  0  0  0  0  0  0  0  0  0  0  0
    1.8577   -0.4252   -0.3625 C   0  0  0  0  0  0  0  0  0  0  0  0
   -3.0354    0.5166   -0.4020 C   0  0  0  0  0  0  0  0  0  0  0  0
   -2.3904   -1.7636    0.0678 C   0  0  0  0  0  0  0  0  0  0  0  0
   -3.3514   -0.8407   -0.3448 C   0  0  0  0  0  0  0  0  0  0  0  0
    3.3146   -0.1527   -0.1216 C   0  0  0  0  0  0  0  0  0  0  0  0
  1  6  1  0
  2  5  1  0
  2  8  1  0
  3 12  1  0
  4 12  2  0
  5  6  2  0
  5  7  1  0
  6  9  1  0
  7 10  2  0
  8 12  1  0
  9 11  2  0
 10 11  1  0
M  END
>  <PUBCHEM_COMPOUND_CID>  (1) 
29153

>  <PUBCHEM_CONFORMER_RMSD>  (1) 
0.6

>  <PUBCHEM_CONFORMER_DIVERSEORDER>  (1) 
2
17
21
4
5
27
25
18
6
28
22
15
20
16
23
26
24
19
10
8
29
3
1
7
11
9
12
13
14

>  <PUBCHEM_MMFF94_PARTIAL_CHARGES>  (1) 
17
1 -0.18
10 -0.15
11 -0.15
12 0.66
13 0.15
16 0.15
17 0.15
18 0.15
19 0.5
2 -0.33
3 -0.65
4 -0.57
5 0.1
6 0.18
7 -0.15
8 0.29
9 -0.15

>  <PUBCHEM_EFFECTIVE_ROTOR_COUNT>  (1) 
3

>  <PUBCHEM_PHARMACOPHORE_FEATURES>  (1) 
4
1 3 acceptor
1 4 acceptor
3 3 4 12 anion
6 5 6 7 9 10 11 rings

>  <PUBCHEM_HEAVY_ATOM_COUNT>  (1) 
12

>  <PUBCHEM_ATOM_DEF_STEREO_COUNT>  (1) 
0

>  <PUBCHEM_ATOM_UDEF_STEREO_COUNT>  (1) 
0

>  <PUBCHEM_BOND_DEF_STEREO_COUNT>  (1) 
0

>  <PUBCHEM_BOND_UDEF_STEREO_COUNT>  (1) 
0

>  <PUBCHEM_ISOTOPIC_ATOM_COUNT>  (1) 
0

>  <PUBCHEM_COMPONENT_COUNT>  (1) 
1

>  <PUBCHEM_CACTVS_TAUTO_COUNT>  (1) 
1

>  <PUBCHEM_CONFORMER_ID>  (1) 
000071E100000002

>  <PUBCHEM_MMFF94_ENERGY>  (1) 
25.8887

>  <PUBCHEM_FEATURE_SELFOVERLAP>  (1) 
20.355

>  <PUBCHEM_SHAPE_FINGERPRINT>  (1) 
12032990 46 18338517568509893723
12716758 59 18268430139883135730
12932764 1 18411143502552986570
13024252 1 17530686511427434395
13296908 3 17561083588245197130
14911166 2 18335968849291148359
15775835 57 17313382288318708565
17134986 127 17397823484458075645
20201158 50 18131070437163778478
20279233 1 18060416924186186698
20281407 28 18272655674817203146
20645476 183 17458336460081576539
20645477 56 18338798905478094537
20645477 70 16630245801687545436
20871999 31 18334006225135363223
21061003 4 17131838684998492160
22213442 358 18195806486483183021
23402539 116 18338221713613118773
23557571 272 18271535225144764068
23559900 14 18342170038984384978
2748010 2 18194105550880392897
3248919 1 17385446505612990426
528716 315 18334019405788711495
573450 72 18188476987744015746
7364860 26 17908702074737209201
77492 1 17385715881381887648
81228 2 18410301280646074617

>  <PUBCHEM_SHAPE_MULTIPOLES>  (1) 
240.93
6.62
1.89
0.9
6.65
1.02
-0.01
-1.18
-1.3
-1.9
-0.02
0.61
0
0.26

>  <PUBCHEM_SHAPE_SELFOVERLAP>  (1) 
471.362

>  <PUBCHEM_SHAPE_VOLUME>  (1) 
145.8

>  <PUBCHEM_COORDINATE_TYPE>  (1) 
2
5
10

$$$$
