29159
     RDKit          3D

 14 16  0  0  0  0  0  0  0  0999 V2000
    0.0076   -2.7619    0.0004 O   0  0  0  0  0  0  0  0  0  0  0  0
   -2.9987    1.3926    0.0005 N   0  0  0  0  0  0  0  0  0  0  0  0
    0.7168    0.6656   -0.0007 C   0  0  0  0  0  0  0  0  0  0  0  0
   -0.7264    0.6524   -0.0007 C   0  0  0  0  0  0  0  0  0  0  0  0
    1.1851   -0.6602   -0.0006 C   0  0  0  0  0  0  0  0  0  0  0  0
   -1.1843   -0.6702   -0.0004 C   0  0  0  0  0  0  0  0  0  0  0  0
    0.0033   -1.5506   -0.0007 C   0  0  0  0  0  0  0  0  0  0  0  0
    1.6214    1.7117   -0.0001 C   0  0  0  0  0  0  0  0  0  0  0  0
    2.5251   -0.9896    0.0001 C   0  0  0  0  0  0  0  0  0  0  0  0
   -2.5196   -0.9992    0.0004 C   0  0  0  0  0  0  0  0  0  0  0  0
   -1.6675    1.6527   -0.0003 C   0  0  0  0  0  0  0  0  0  0  0  0
    2.9878    1.4046    0.0006 C   0  0  0  0  0  0  0  0  0  0  0  0
    3.4341    0.0686    0.0008 C   0  0  0  0  0  0  0  0  0  0  0  0
   -3.3847    0.0835    0.0007 C   0  0  0  0  0  0  0  0  0  0  0  0
  1  7  2  0
  2 11  2  0
  2 14  1  0
  3  4  1  0
  3  5  2  0
  3  8  1  0
  4  6  2  0
  4 11  1  0
  5  7  1  0
  5  9  1  0
  6  7  1  0
  6 10  1  0
  8 12  2  0
  9 13  2  0
 10 14  2  0
 12 13  1  0
M  END
>  <PUBCHEM_COMPOUND_CID>  (1) 
29159

>  <PUBCHEM_CONFORMER_RMSD>  (1) 
0.4

>  <PUBCHEM_CONFORMER_DIVERSEORDER>  (1) 
1

>  <PUBCHEM_MMFF94_PARTIAL_CHARGES>  (1) 
19
1 -0.57
10 -0.15
11 0.16
12 -0.15
13 -0.15
14 0.16
15 0.15
16 0.15
17 0.15
18 0.15
19 0.15
2 -0.62
20 0.15
21 0.15
5 0.09
6 0.09
7 0.4
8 -0.15
9 -0.15

>  <PUBCHEM_EFFECTIVE_ROTOR_COUNT>  (1) 
0

>  <PUBCHEM_PHARMACOPHORE_FEATURES>  (1) 
5
1 1 acceptor
1 2 acceptor
5 3 4 5 6 7 rings
6 2 4 6 10 11 14 rings
6 3 5 8 9 12 13 rings

>  <PUBCHEM_HEAVY_ATOM_COUNT>  (1) 
14

>  <PUBCHEM_ATOM_DEF_STEREO_COUNT>  (1) 
0

>  <PUBCHEM_ATOM_UDEF_STEREO_COUNT>  (1) 
0

>  <PUBCHEM_BOND_DEF_STEREO_COUNT>  (1) 
0

>  <PUBCHEM_BOND_UDEF_STEREO_COUNT>  (1) 
0

>  <PUBCHEM_ISOTOPIC_ATOM_COUNT>  (1) 
0

>  <PUBCHEM_COMPONENT_COUNT>  (1) 
1

>  <PUBCHEM_CACTVS_TAUTO_COUNT>  (1) 
1

>  <PUBCHEM_CONFORMER_ID>  (1) 
000071E700000001

>  <PUBCHEM_MMFF94_ENERGY>  (1) 
50.8498

>  <PUBCHEM_FEATURE_SELFOVERLAP>  (1) 
25.543

>  <PUBCHEM_SHAPE_FINGERPRINT>  (1) 
10411042 1 15816502086931361252
10608611 8 18410852170220681992
10967382 1 18410855451538233703
11132069 177 18412538812499008184
11471102 20 18338793416915773389
12491281 212 18410867541913617144
13140716 1 18410575041724189784
13380535 76 18410854369238389974
13897977 150 18410008806363340789
14144814 61 18410011048257187080
14325111 11 18410575093284928352
14614273 12 18260822649370137573
15196674 1 18410856568235083364
15309172 13 18410864264916652915
15442244 35 18194964045922848520
15536298 74 18343582932679373868
15775835 57 18410580586542799204
16945 1 18194402422961425160
18186145 218 18343308041455206244
193761 8 17474107596897654628
20510252 161 18272092742027918065
20645476 183 17823716315737291926
20871998 184 18055924435249087431
21267235 1 18410583889372688806
21501502 16 18411135852778421100
2334 1 18410575119038862404
23402539 116 18270107032501693774
23402655 69 18269541764163114861
23463225 33 18263077739038918586
23559900 14 18343310245902122550
25 1 18264487295607615685
2748010 2 18409732867351476957
335352 9 18050567343930746484
5084963 1 18202845456655124970
5104073 3 18410855468723469577
528886 8 18410849949695709680
53812653 166 18341609304733123472
54173680 148 18120657100071309866
69090 78 18343015639991958887
7364860 26 18125440813028190463
81228 2 17833820951871055891

>  <PUBCHEM_SHAPE_MULTIPOLES>  (1) 
277.26
5.13
2.14
0.6
0.01
0.6
0
-1.27
0
0.02
0
-0.02
-0.01
0

>  <PUBCHEM_SHAPE_SELFOVERLAP>  (1) 
634.162

>  <PUBCHEM_SHAPE_VOLUME>  (1) 
144.6

>  <PUBCHEM_COORDINATE_TYPE>  (1) 
2
5
10

$$$$
