29156
     RDKit          3D

 17 17  0  0  0  0  0  0  0  0999 V2000
    2.9653   -2.4177    2.3201 Br  0  0  0  0  0  0  0  0  0  0  0  0
   -2.2332   -3.2939   -2.2983 Cl  0  0  0  0  0  0  0  0  0  0  0  0
   -4.7731    1.8046    1.5486 Cl  0  0  0  0  0  0  0  0  0  0  0  0
    1.4812    1.9306   -1.6043 O   0  0  0  0  0  0  0  0  0  0  0  0
   -1.5525   -0.1770    0.1608 N   0  0  0  0  0  0  0  0  0  0  0  0
   -0.5652    0.9322    0.1204 C   0  0  0  0  0  0  0  0  0  0  0  0
   -1.3920   -1.0768   -0.9812 C   0  0  0  0  0  0  0  0  0  0  0  0
   -2.9232    0.3300    0.2217 C   0  0  0  0  0  0  0  0  0  0  0  0
    0.8515    0.4234    0.1498 C   0  0  0  0  0  0  0  0  0  0  0  0
    1.8023    0.9499   -0.7146 C   0  0  0  0  0  0  0  0  0  0  0  0
   -2.4339   -2.1831   -0.9223 C   0  0  0  0  0  0  0  0  0  0  0  0
   -3.1018    1.1993    1.4566 C   0  0  0  0  0  0  0  0  0  0  0  0
    1.1859   -0.5761    1.0543 C   0  0  0  0  0  0  0  0  0  0  0  0
    3.1107    0.4686   -0.6741 C   0  0  0  0  0  0  0  0  0  0  0  0
    2.4946   -1.0575    1.0947 C   0  0  0  0  0  0  0  0  0  0  0  0
    3.4569   -0.5353    0.2304 C   0  0  0  0  0  0  0  0  0  0  0  0
    1.6264    3.2789   -1.1627 C   0  0  0  0  0  0  0  0  0  0  0  0
  1 15  1  0
  2 11  1  0
  3 12  1  0
  4 10  1  0
  4 17  1  0
  5  6  1  0
  5  7  1  0
  5  8  1  0
  6  9  1  0
  7 11  1  0
  8 12  1  0
  9 10  2  0
  9 13  1  0
 10 14  1  0
 13 15  2  0
 14 16  2  0
 15 16  1  0
M  END
>  <PUBCHEM_COMPOUND_CID>  (1) 
29156

>  <PUBCHEM_CONFORMER_RMSD>  (1) 
0.8

>  <PUBCHEM_CONFORMER_DIVERSEORDER>  (1) 
1
29
2
30
7
32
13
22
10
12
18
4
14
9
31
6
3
27
17
28
8
25
26
19
33
11
16
5
21
15
20
23
24

>  <PUBCHEM_MMFF94_PARTIAL_CHARGES>  (1) 
20
1 -0.11
10 0.08
11 0.29
12 0.29
13 -0.15
14 -0.15
15 0.11
16 -0.15
17 0.28
2 -0.29
28 0.15
29 0.15
3 -0.29
30 0.15
4 -0.36
5 -0.81
6 0.41
7 0.27
8 0.27
9 -0.14

>  <PUBCHEM_EFFECTIVE_ROTOR_COUNT>  (1) 
7

>  <PUBCHEM_PHARMACOPHORE_FEATURES>  (1) 
4
1 1 hydrophobe
1 4 acceptor
1 5 cation
6 9 10 13 14 15 16 rings

>  <PUBCHEM_HEAVY_ATOM_COUNT>  (1) 
17

>  <PUBCHEM_ATOM_DEF_STEREO_COUNT>  (1) 
0

>  <PUBCHEM_ATOM_UDEF_STEREO_COUNT>  (1) 
0

>  <PUBCHEM_BOND_DEF_STEREO_COUNT>  (1) 
0

>  <PUBCHEM_BOND_UDEF_STEREO_COUNT>  (1) 
0

>  <PUBCHEM_ISOTOPIC_ATOM_COUNT>  (1) 
0

>  <PUBCHEM_COMPONENT_COUNT>  (1) 
1

>  <PUBCHEM_CACTVS_TAUTO_COUNT>  (1) 
1

>  <PUBCHEM_CONFORMER_ID>  (1) 
000071E400000001

>  <PUBCHEM_MMFF94_ENERGY>  (1) 
50.9722

>  <PUBCHEM_FEATURE_SELFOVERLAP>  (1) 
20.297

>  <PUBCHEM_SHAPE_FINGERPRINT>  (1) 
11578080 2 17977904077958550832
11725454 13 15480958139712620065
12293681 160 17186151510131669197
12500047 106 17775567515750341871
12553582 1 17969212344542032594
12788726 201 18057045929136747071
13294875 104 15476226799291548074
13538477 17 18343303703706879881
13583140 156 17967825972259169833
14115302 16 17917162631791637056
14178342 30 18130771370070010930
15375462 189 18187367593074822512
15842332 3 18338513152903510359
15852999 172 17274833398006586487
16945 1 18129084637833650808
20600515 1 17632859702816853696
20645476 183 18341908393597379741
20645477 70 17313373500847665955
21041028 32 17679019296942071648
212916 134 17559947719761582531
22112679 90 18337094705815918050
2255824 54 18041846232890872244
23419403 2 16974699833347294448
23557571 272 17274546541198788648
23558518 356 17974582590938012114
23559900 14 17418377957233936466
23598288 3 17753039510402746380
23598291 2 18337397148421937588
266924 1 18195527227799398117
266924 78 17677331756988869295
3286 77 16878518825552768457
474 4 17971199367811160812
603831 33 17981324804718706223
6049 1 15285353977248819087
633830 44 18043550488962487732
6992083 37 18266445538606686491
7615 1 18339071717721722309
77492 1 18409727369809162322
7832392 63 18410583906726748364
81228 2 17417527055456491279
88987 49 17846784052365595085

>  <PUBCHEM_SHAPE_MULTIPOLES>  (1) 
348.68
6.96
3.42
2.14
4.1
0.83
0.22
-0.38
3.64
0.86
-2.01
0.18
1.01
-4.61

>  <PUBCHEM_SHAPE_SELFOVERLAP>  (1) 
666.896

>  <PUBCHEM_SHAPE_VOLUME>  (1) 
220.8

>  <PUBCHEM_COORDINATE_TYPE>  (1) 
2
5
10

$$$$
