2915
     RDKit          3D

  8  7  0  0  0  0  0  0  0  0999 V2000
   -0.8599   -1.2799    0.5595 S   0  0  0  0  0  0  0  0  0  0  0  0
    0.8624   -1.2723   -0.5619 S   0  0  0  0  0  0  0  0  0  0  0  0
   -3.9935    1.1554   -0.2996 N   0  0  0  0  0  0  0  0  0  0  0  0
    3.9928    1.1539    0.3031 N   0  0  0  0  0  0  0  0  0  0  0  0
   -1.8526   -0.0192   -0.2913 C   0  0  0  0  0  0  0  0  0  0  0  0
    1.8528   -0.0223    0.2921 C   0  0  0  0  0  0  0  0  0  0  0  0
   -3.2047    0.1407    0.3927 C   0  0  0  0  0  0  0  0  0  0  0  0
    3.2027    0.1437   -0.3945 C   0  0  0  0  0  0  0  0  0  0  0  0
  1  2  1  0
  1  5  1  0
  2  6  1  0
  3  7  1  0
  4  8  1  0
  5  7  1  0
  6  8  1  0
M  END
>  <PUBCHEM_COMPOUND_CID>  (1) 
2915

>  <PUBCHEM_CONFORMER_RMSD>  (1) 
0.6

>  <PUBCHEM_CONFORMER_DIVERSEORDER>  (1) 
1
96
48
89
63
44
78
65
43
61
56
70
86
29
23
31
19
52
30
97
21
47
57
2
87
69
53
68
75
24
39
14
92
37
79
34
95
88
45
82
91
71
33
28
94
67
46
16
77
83
81
49
66
9
32
59
90
58
62
50
10
72
80
64
3
76
73
7
60
74
6
8
51
42
20
12
22
35
4
27
5
41
11
36
25
54
18
26
55
38
17
40
93
85
84
13
15

>  <PUBCHEM_MMFF94_PARTIAL_CHARGES>  (1) 
12
1 -0.23
17 0.36
18 0.36
19 0.36
2 -0.23
20 0.36
3 -0.99
4 -0.99
5 0.23
6 0.23
7 0.27
8 0.27

>  <PUBCHEM_EFFECTIVE_ROTOR_COUNT>  (1) 
5

>  <PUBCHEM_PHARMACOPHORE_FEATURES>  (1) 
5
1 3 cation
1 3 donor
1 4 cation
1 4 donor
4 1 2 5 6 hydrophobe

>  <PUBCHEM_HEAVY_ATOM_COUNT>  (1) 
8

>  <PUBCHEM_ATOM_DEF_STEREO_COUNT>  (1) 
0

>  <PUBCHEM_ATOM_UDEF_STEREO_COUNT>  (1) 
0

>  <PUBCHEM_BOND_DEF_STEREO_COUNT>  (1) 
0

>  <PUBCHEM_BOND_UDEF_STEREO_COUNT>  (1) 
0

>  <PUBCHEM_ISOTOPIC_ATOM_COUNT>  (1) 
0

>  <PUBCHEM_COMPONENT_COUNT>  (1) 
1

>  <PUBCHEM_CACTVS_TAUTO_COUNT>  (1) 
1

>  <PUBCHEM_CONFORMER_ID>  (1) 
00000B6300000001

>  <PUBCHEM_MMFF94_ENERGY>  (1) 
-8.0289

>  <PUBCHEM_FEATURE_SELFOVERLAP>  (1) 
25.371

>  <PUBCHEM_SHAPE_FINGERPRINT>  (1) 
10149128 111 18410862061493077637
122479 349 18334579078745259570
14251710 61 8430331151008123056
14325111 11 18410294713540773907
14390081 3 18336267834564681315
170605 34 18410857629150339579
177051 138 9223231849338577272
18342897 55 17989483026288343006
20211469 26 11025793215079514355
20281407 28 9727638301701667958
20605781 2 18410011014324852885
21119208 17 15698001829324571680
21293036 1 16487255486472858027
23235685 24 18410853261104925735

>  <PUBCHEM_SHAPE_MULTIPOLES>  (1) 
162.37
7.38
1.35
0.79
0.01
0.19
0
-4.43
0.01
0
0
0
0.11
0.46

>  <PUBCHEM_SHAPE_SELFOVERLAP>  (1) 
259.125

>  <PUBCHEM_SHAPE_VOLUME>  (1) 
115.7

>  <PUBCHEM_COORDINATE_TYPE>  (1) 
2
5
10

$$$$
