29169
     RDKit          3D

 20 22  0  0  0  0  0  0  0  0999 V2000
   -0.1179    3.0428   -0.3942 O   0  0  0  0  0  0  0  0  0  0  0  0
   -0.0477    0.0851   -0.2993 N   0  0  0  0  0  0  0  0  0  0  0  0
    4.2173    0.1858   -0.1655 N   0  0  0  0  0  0  0  0  0  0  0  0
   -2.2504    0.1330   -0.0017 C   0  0  0  0  0  0  0  0  0  0  0  0
   -1.1280    0.9171   -0.1880 C   0  0  0  0  0  0  0  0  0  0  0  0
   -3.6104    0.7194    0.1631 C   0  0  0  0  0  0  0  0  0  0  0  0
   -1.8351   -1.2284   -0.0109 C   0  0  0  0  0  0  0  0  0  0  0  0
   -0.4498   -1.2290   -0.1983 C   0  0  0  0  0  0  0  0  0  0  0  0
   -3.5057    2.1710    0.6591 C   0  0  0  0  0  0  0  0  0  0  0  0
    1.3254    0.5066   -0.4894 C   0  0  0  0  0  0  0  0  0  0  0  0
   -2.5137    3.0000   -0.1710 C   0  0  0  0  0  0  0  0  0  0  0  0
   -1.1279    2.3602   -0.2429 C   0  0  0  0  0  0  0  0  0  0  0  0
    2.0487    0.7276    0.8388 C   0  0  0  0  0  0  0  0  0  0  0  0
   -2.5001   -2.4642    0.1223 C   0  0  0  0  0  0  0  0  0  0  0  0
    0.3030   -2.4074   -0.2583 C   0  0  0  0  0  0  0  0  0  0  0  0
    3.4885    1.1823    0.6100 C   0  0  0  0  0  0  0  0  0  0  0  0
   -1.7593   -3.6500    0.0638 C   0  0  0  0  0  0  0  0  0  0  0  0
   -0.3792   -3.6197   -0.1235 C   0  0  0  0  0  0  0  0  0  0  0  0
    4.2718   -1.0883    0.5535 C   0  0  0  0  0  0  0  0  0  0  0  0
    5.5704    0.6561   -0.4676 C   0  0  0  0  0  0  0  0  0  0  0  0
  1 12  2  0
  2  5  1  0
  2  8  1  0
  2 10  1  0
  3 16  1  0
  3 19  1  0
  3 20  1  0
  4  5  2  0
  4  6  1  0
  4  7  1  0
  5 12  1  0
  6  9  1  0
  7  8  2  0
  7 14  1  0
  8 15  1  0
  9 11  1  0
 10 13  1  0
 11 12  1  0
 13 16  1  0
 14 17  2  0
 15 18  2  0
 17 18  1  0
M  END
>  <PUBCHEM_COMPOUND_CID>  (1) 
29169

>  <PUBCHEM_CONFORMER_RMSD>  (1) 
0.6

>  <PUBCHEM_CONFORMER_DIVERSEORDER>  (1) 
4
7
6
12
5
10
11
8
1
17
9
16
15
14
13
3
2

>  <PUBCHEM_MMFF94_PARTIAL_CHARGES>  (1) 
21
1 -0.57
10 0.26
11 0.06
12 0.59
14 -0.15
15 -0.15
16 0.27
17 -0.15
18 -0.15
19 0.27
2 0.05
20 0.27
3 -0.81
31 0.15
34 0.15
35 0.15
36 0.15
4 -0.18
5 -0.24
6 0.18
8 -0.15

>  <PUBCHEM_EFFECTIVE_ROTOR_COUNT>  (1) 
4.6

>  <PUBCHEM_PHARMACOPHORE_FEATURES>  (1) 
6
1 1 acceptor
1 2 cation
1 3 cation
5 2 4 5 7 8 rings
6 4 5 6 9 11 12 rings
6 7 8 14 15 17 18 rings

>  <PUBCHEM_HEAVY_ATOM_COUNT>  (1) 
20

>  <PUBCHEM_ATOM_DEF_STEREO_COUNT>  (1) 
0

>  <PUBCHEM_ATOM_UDEF_STEREO_COUNT>  (1) 
0

>  <PUBCHEM_BOND_DEF_STEREO_COUNT>  (1) 
0

>  <PUBCHEM_BOND_UDEF_STEREO_COUNT>  (1) 
0

>  <PUBCHEM_ISOTOPIC_ATOM_COUNT>  (1) 
0

>  <PUBCHEM_COMPONENT_COUNT>  (1) 
1

>  <PUBCHEM_CACTVS_TAUTO_COUNT>  (1) 
2

>  <PUBCHEM_CONFORMER_ID>  (1) 
000071F100000004

>  <PUBCHEM_MMFF94_ENERGY>  (1) 
35.6346

>  <PUBCHEM_FEATURE_SELFOVERLAP>  (1) 
30.622

>  <PUBCHEM_SHAPE_FINGERPRINT>  (1) 
10319926 262 18198318802851397576
10411042 1 17906454681333486519
10616163 171 18338518646689226662
10967382 1 17978231561104152655
1100329 8 18267025140839177049
12173636 292 18410846647240509436
12553582 1 17761496185213745710
12592029 89 18194404381477211634
12788726 201 18189610717165768658
13140716 1 18123198054816586489
138480 1 16969703287322792219
14178342 30 18265312076000739032
14790565 3 18267593407351084080
15006816 218 18051691036467219030
15042514 8 18337114582861435795
15230672 131 18264778650080720158
16110190 28 17902205851583834306
16945 1 18338527429860040469
17804303 29 18341897454168022760
18785283 64 17616820924743848961
19591789 44 18267022752051415859
20510252 161 18270961361636959841
20600515 1 18341905107652883012
21524375 3 18201149941242961917
23184049 29 17978230791872483621
2334 1 18338240345708717285
23366157 5 17611472925850538019
23402539 116 18271236222997232303
23419403 2 13684298089354898255
23557571 272 18200041767130659548
23559900 14 18272100349295662230
23598294 1 18336254725955209858
266924 87 18049147883590218133
2748010 2 18192727643994239285
3091708 16 9270371211388061123
335352 9 18266178521186571119
43471831 8 18264767653950786667
5104073 3 18339918307985239728
532947 4 17764021368217184366
54173680 148 18266458891738988073
58807428 26 18266743484909389843
7364860 26 17691405213861265759
81228 2 18123725793942364817
9709674 26 18343867723487245782

>  <PUBCHEM_SHAPE_MULTIPOLES>  (1) 
395.76
7.53
4.37
0.75
12.08
2.43
-0.05
-2.94
-0.56
-4
0.16
0.19
-0.1
-0.14

>  <PUBCHEM_SHAPE_SELFOVERLAP>  (1) 
846.94

>  <PUBCHEM_SHAPE_VOLUME>  (1) 
222.1

>  <PUBCHEM_COORDINATE_TYPE>  (1) 
2
5
10

$$$$
