29165
     RDKit          3D

 22 24  0  0  0  0  0  0  0  0999 V2000
    1.4883   -2.5876   -0.4161 O   0  0  0  0  0  0  0  0  0  0  0  0
   -0.0795   -0.0775   -0.4720 N   0  0  0  0  0  0  0  0  0  0  0  0
    3.4658    1.0027   -0.0027 N   0  0  0  0  0  0  0  0  0  0  0  0
   -1.8556   -1.2807    0.1119 C   0  0  0  0  0  0  0  0  0  0  0  0
   -0.5068   -1.3443   -0.1812 C   0  0  0  0  0  0  0  0  0  0  0  0
   -2.6459   -2.4889    0.4808 C   0  0  0  0  0  0  0  0  0  0  0  0
   -2.2642    0.0768   -0.0173 C   0  0  0  0  0  0  0  0  0  0  0  0
   -1.1309    0.8087   -0.3833 C   0  0  0  0  0  0  0  0  0  0  0  0
   -1.7160   -3.5838    1.0290 C   0  0  0  0  0  0  0  0  0  0  0  0
    1.2743    0.2947   -0.8286 C   0  0  0  0  0  0  0  0  0  0  0  0
   -0.5036   -3.8281    0.1176 C   0  0  0  0  0  0  0  0  0  0  0  0
    0.2862   -2.5512   -0.1662 C   0  0  0  0  0  0  0  0  0  0  0  0
    2.1067    0.6600    0.3970 C   0  0  0  0  0  0  0  0  0  0  0  0
   -3.4878    0.7586    0.1411 C   0  0  0  0  0  0  0  0  0  0  0  0
   -1.1626    2.1915   -0.5979 C   0  0  0  0  0  0  0  0  0  0  0  0
   -3.5334    2.1412   -0.0708 C   0  0  0  0  0  0  0  0  0  0  0  0
   -2.3873    2.8447   -0.4345 C   0  0  0  0  0  0  0  0  0  0  0  0
    4.1051   -0.1276   -0.6792 C   0  0  0  0  0  0  0  0  0  0  0  0
    4.2576    1.4121    1.1589 C   0  0  0  0  0  0  0  0  0  0  0  0
   -4.8266    2.8680    0.0952 C   0  0  0  0  0  0  0  0  0  0  0  0
    5.4959    0.2293   -1.1620 C   0  0  0  0  0  0  0  0  0  0  0  0
    3.6204    2.5815    1.8805 C   0  0  0  0  0  0  0  0  0  0  0  0
  1 12  2  0
  2  5  1  0
  2  8  1  0
  2 10  1  0
  3 13  1  0
  3 18  1  0
  3 19  1  0
  4  5  2  0
  4  6  1  0
  4  7  1  0
  5 12  1  0
  6  9  1  0
  7  8  2  0
  7 14  1  0
  8 15  1  0
  9 11  1  0
 10 13  1  0
 11 12  1  0
 14 16  2  0
 15 17  2  0
 16 17  1  0
 16 20  1  0
 18 21  1  0
 19 22  1  0
M  END
>  <PUBCHEM_COMPOUND_CID>  (1) 
29165

>  <PUBCHEM_CONFORMER_RMSD>  (1) 
0.8

>  <PUBCHEM_CONFORMER_DIVERSEORDER>  (1) 
3
6
8
7
9
1
5
4
2

>  <PUBCHEM_MMFF94_PARTIAL_CHARGES>  (1) 
21
1 -0.57
10 0.26
11 0.06
12 0.59
13 0.27
14 -0.15
15 -0.15
16 -0.14
17 -0.15
18 0.27
19 0.27
2 0.05
20 0.14
3 -0.81
33 0.15
34 0.15
35 0.15
4 -0.18
5 -0.24
6 0.18
8 -0.15

>  <PUBCHEM_EFFECTIVE_ROTOR_COUNT>  (1) 
5.6

>  <PUBCHEM_PHARMACOPHORE_FEATURES>  (1) 
6
1 1 acceptor
1 2 cation
1 3 cation
5 2 4 5 7 8 rings
6 4 5 6 9 11 12 rings
6 7 8 14 15 16 17 rings

>  <PUBCHEM_HEAVY_ATOM_COUNT>  (1) 
22

>  <PUBCHEM_ATOM_DEF_STEREO_COUNT>  (1) 
0

>  <PUBCHEM_ATOM_UDEF_STEREO_COUNT>  (1) 
0

>  <PUBCHEM_BOND_DEF_STEREO_COUNT>  (1) 
0

>  <PUBCHEM_BOND_UDEF_STEREO_COUNT>  (1) 
0

>  <PUBCHEM_ISOTOPIC_ATOM_COUNT>  (1) 
0

>  <PUBCHEM_COMPONENT_COUNT>  (1) 
1

>  <PUBCHEM_CACTVS_TAUTO_COUNT>  (1) 
2

>  <PUBCHEM_CONFORMER_ID>  (1) 
000071ED00000003

>  <PUBCHEM_MMFF94_ENERGY>  (1) 
36.2739

>  <PUBCHEM_FEATURE_SELFOVERLAP>  (1) 
30.621

>  <PUBCHEM_SHAPE_FINGERPRINT>  (1) 
10165383 225 18265625294448413476
10319926 262 18268409396241207728
10411042 1 17760659456628189982
10967382 1 17758965822832955375
1100329 8 16684574612430944272
12173636 292 18410565210644204396
12403259 415 18272092712105681832
12553582 1 17472987675664734398
12788726 201 17755024425565580578
13140716 1 17831588939509838475
138480 1 17183625390815167855
14178342 30 18189882284005692400
14420673 8 18264194830712227410
14787075 74 18059564824403074681
14790565 3 18120949308144952124
15042514 8 18191033498102215443
15230672 131 18335425605107312086
15295992 7 18131064944296330456
15806764 133 17844830237884404188
16945 1 18263661708868391103
19591789 44 18192154793439905567
20510252 161 18270682102858138097
21033648 29 18412541007460119920
21049683 118 18265025025692631761
21524375 3 18270679745090040509
21650355 55 17976530942543140763
22182313 1 18265354875139463767
23557571 272 18269286797117692164
23558518 356 18116434941366444416
23559900 14 18413393133925411884
2748010 2 18190762863939302087
3091708 16 9268964897451139643
3187 122 17617350206422484184
3298306 158 18271814467419229550
350125 39 17903643981804442653
5104073 3 17974863770369783665
5265222 85 18194985135172511470
57124632 79 17973999553491437429
58807428 26 18262795164497780913
59124914 9 18127697023784150368
633830 44 18059279990218671820
7097593 13 18042382726083095080
7364860 26 17906170651177470447
7808743 9 18334583481709743756
81228 2 18120362413669116982
84936 182 17981324495455063625
90316 7 17977386362610824947
9709674 26 18199463449662745252
9777508 108 18411138060597424251
9981440 41 18409157793180178763

>  <PUBCHEM_SHAPE_MULTIPOLES>  (1) 
436.92
8.63
4.63
1.07
8.39
3.17
-0.3
-7.4
-0.18
-3.99
-1.04
1.23
-0.38
1.78

>  <PUBCHEM_SHAPE_SELFOVERLAP>  (1) 
928.379

>  <PUBCHEM_SHAPE_VOLUME>  (1) 
247.6

>  <PUBCHEM_COORDINATE_TYPE>  (1) 
2
5
10

$$$$
