29163
     RDKit          3D

 21 23  0  0  0  0  0  0  0  0999 V2000
   -2.8973   -1.8123   -0.3605 O   0  0  0  0  0  0  0  0  0  0  0  0
    4.6039    1.5530    0.0888 O   0  0  0  0  0  0  0  0  0  0  0  0
   -0.6857    0.1544   -0.3047 N   0  0  0  0  0  0  0  0  0  0  0  0
   -3.7069    2.1319    0.6534 N   0  0  0  0  0  0  0  0  0  0  0  0
    0.7077   -1.5566   -0.0335 C   0  0  0  0  0  0  0  0  0  0  0  0
   -0.6194   -1.2077   -0.1954 C   0  0  0  0  0  0  0  0  0  0  0  0
    1.1432   -2.9732    0.1225 C   0  0  0  0  0  0  0  0  0  0  0  0
    1.4771   -0.3592   -0.0560 C   0  0  0  0  0  0  0  0  0  0  0  0
    0.5781    0.6976   -0.2264 C   0  0  0  0  0  0  0  0  0  0  0  0
   -0.0223   -3.8326    0.6394 C   0  0  0  0  0  0  0  0  0  0  0  0
   -1.3111   -3.6118   -0.1672 C   0  0  0  0  0  0  0  0  0  0  0  0
   -1.8983    0.9290   -0.4726 C   0  0  0  0  0  0  0  0  0  0  0  0
   -1.7209   -2.1411   -0.2308 C   0  0  0  0  0  0  0  0  0  0  0  0
   -2.5058    1.3344    0.8672 C   0  0  0  0  0  0  0  0  0  0  0  0
    2.8519   -0.0672    0.0523 C   0  0  0  0  0  0  0  0  0  0  0  0
    0.9888    2.0340   -0.2931 C   0  0  0  0  0  0  0  0  0  0  0  0
    3.2759    1.2649   -0.0131 C   0  0  0  0  0  0  0  0  0  0  0  0
    2.3568    2.2979   -0.1831 C   0  0  0  0  0  0  0  0  0  0  0  0
   -4.7205    1.3560   -0.0639 C   0  0  0  0  0  0  0  0  0  0  0  0
   -3.3892    3.3560   -0.0846 C   0  0  0  0  0  0  0  0  0  0  0  0
    5.4941    0.4525    0.2615 C   0  0  0  0  0  0  0  0  0  0  0  0
  1 13  2  0
  2 17  1  0
  2 21  1  0
  3  6  1  0
  3  9  1  0
  3 12  1  0
  4 14  1  0
  4 19  1  0
  4 20  1  0
  5  6  2  0
  5  7  1  0
  5  8  1  0
  6 13  1  0
  7 10  1  0
  8  9  2  0
  8 15  1  0
  9 16  1  0
 10 11  1  0
 11 13  1  0
 12 14  1  0
 15 17  2  0
 16 18  2  0
 17 18  1  0
M  END
>  <PUBCHEM_COMPOUND_CID>  (1) 
29163

>  <PUBCHEM_CONFORMER_RMSD>  (1) 
0.8

>  <PUBCHEM_CONFORMER_DIVERSEORDER>  (1) 
1
3
2
5
4

>  <PUBCHEM_MMFF94_PARTIAL_CHARGES>  (1) 
22
1 -0.57
11 0.06
12 0.26
13 0.59
14 0.27
15 -0.15
16 -0.15
17 0.08
18 -0.15
19 0.27
2 -0.36
20 0.27
21 0.28
3 0.05
32 0.15
33 0.15
34 0.15
4 -0.81
5 -0.18
6 -0.24
7 0.18
9 -0.15

>  <PUBCHEM_EFFECTIVE_ROTOR_COUNT>  (1) 
4.6

>  <PUBCHEM_PHARMACOPHORE_FEATURES>  (1) 
7
1 1 acceptor
1 2 acceptor
1 3 cation
1 4 cation
5 3 5 6 8 9 rings
6 5 6 7 10 11 13 rings
6 8 9 15 16 17 18 rings

>  <PUBCHEM_HEAVY_ATOM_COUNT>  (1) 
21

>  <PUBCHEM_ATOM_DEF_STEREO_COUNT>  (1) 
0

>  <PUBCHEM_ATOM_UDEF_STEREO_COUNT>  (1) 
0

>  <PUBCHEM_BOND_DEF_STEREO_COUNT>  (1) 
0

>  <PUBCHEM_BOND_UDEF_STEREO_COUNT>  (1) 
0

>  <PUBCHEM_ISOTOPIC_ATOM_COUNT>  (1) 
0

>  <PUBCHEM_COMPONENT_COUNT>  (1) 
1

>  <PUBCHEM_CACTVS_TAUTO_COUNT>  (1) 
2

>  <PUBCHEM_CONFORMER_ID>  (1) 
000071EB00000001

>  <PUBCHEM_MMFF94_ENERGY>  (1) 
52.8527

>  <PUBCHEM_FEATURE_SELFOVERLAP>  (1) 
35.695

>  <PUBCHEM_SHAPE_FINGERPRINT>  (1) 
10319926 262 18126827508852405528
10411042 1 17546446038911255038
10493431 412 18411138017589936736
10967382 1 18194402178000537855
1100329 8 18193837042368413418
11578080 2 13526804052445515241
12107183 9 18335972079333408592
12390115 104 18270136689462278224
12788726 201 18049736409556291974
13052359 8 18410576231451086608
13140716 1 18264205816410271618
13583140 156 17167856461422050945
138480 1 17473826121667684427
14178342 30 18193540384993138840
14790565 3 18194128417476765468
14866123 147 18410008858093281362
14955137 171 17832428596583757938
15042514 8 18048601713673134291
15442244 35 18192992836697293596
15475509 84 16965513603315111395
15927050 60 18411982425630869686
16752209 62 18267859665226340850
16945 1 18048869698188787934
19591789 44 18122348965314522614
20510252 161 18126005103032130529
20739085 24 18044947761924971116
20775438 99 15825184865157388327
21029758 11 17547283866818859463
21041028 32 17758407652798670795
21236236 1 18340767147593183428
212916 134 18270944792138792624
21524375 3 18272934912290201317
2255824 54 18052538768617198983
2334 1 18409726266303663310
23402539 116 18055349395131682471
23558518 356 18045504376796005216
23559900 14 18271814502247848958
2748010 2 18337684009282758607
283562 15 18266451203721693699
3091708 16 9194657736681690707
335352 9 18264765648322801398
350125 39 18337957912384957633
352729 6 18266464389217966887
5104073 3 18337099186089489128
532947 4 18196660583769589926
58807428 26 18336254657599794914
5939293 188 17546445579517909767
6443956 14 17256531816672569309
7364860 26 18050289167747368611
81228 2 17975413830081123024
84936 182 18057035801060609601
9709674 26 18198348553636351022
9981440 41 18337674118437202817

>  <PUBCHEM_SHAPE_MULTIPOLES>  (1) 
410.47
7.65
4.62
0.71
3
3.6
-0.05
-7.34
-0.72
-2.42
-0.27
-0.17
-0.01
-0.45

>  <PUBCHEM_SHAPE_SELFOVERLAP>  (1) 
882.022

>  <PUBCHEM_SHAPE_VOLUME>  (1) 
229.8

>  <PUBCHEM_COORDINATE_TYPE>  (1) 
2
5
10

$$$$
