29161
     RDKit          3D

 10  9  0  0  0  0  0  0  0  0999 V2000
    0.6251   -0.2707   -0.0271 O   0  0  0  0  0  0  0  0  0  0  0  0
   -1.7649   -0.4171   -0.0390 C   0  0  0  0  0  0  0  0  0  0  0  0
   -3.0785    0.3613   -0.0174 C   0  0  0  0  0  0  0  0  0  0  0  0
   -0.5600    0.5129   -0.0206 C   0  0  0  0  0  0  0  0  0  0  0  0
   -4.2824   -0.5801    0.0068 C   0  0  0  0  0  0  0  0  0  0  0  0
    3.0184   -0.3544   -0.0187 C   0  0  0  0  0  0  0  0  0  0  0  0
    1.7897    0.5439   -0.0107 C   0  0  0  0  0  0  0  0  0  0  0  0
    4.3103    0.4573    0.0143 C   0  0  0  0  0  0  0  0  0  0  0  0
   -5.5915    0.1911    0.0626 C   0  0  0  0  0  0  0  0  0  0  0  0
    5.5339   -0.4442    0.0498 C   0  0  0  0  0  0  0  0  0  0  0  0
  1  4  1  0
  1  7  1  0
  2  3  1  0
  2  4  1  0
  3  5  1  0
  5  9  1  0
  6  7  1  0
  6  8  1  0
  8 10  1  0
M  END
>  <PUBCHEM_COMPOUND_CID>  (1) 
29161

>  <PUBCHEM_CONFORMER_RMSD>  (1) 
0.6

>  <PUBCHEM_CONFORMER_DIVERSEORDER>  (1) 
1
394
400
61
178
297
68
313
289
218
8
293
402
107
196
227
305
159
385
14
235
84
398
363
261
380
278
370
92
367
128
417
165
29
217
199
324
362
294
49
274
82
70
334
111
94
414
343
6
121
316
258
373
31
353
390
85
7
415
171
5
378
62
346
257
377
411
263
365
266
33
418
355
15
412
347
105
376
36
329
77
303
364
156
157
37
249
155
230
301
9
264
419
153
149
204
241
251
323
2
265
318
275
83
152
11
226
271
392
222
24
96
349
202
3
4
409
190
146
220
255
387
351
319
283
420
108
13
237
223
389
73
119
91
401
211
256
395
386
59
166
280
282
201
154
279
147
21
416
76
114
184
259
407
75
345
366
247
102
113
399
307
86
240
244
298
143
383
141
169
101
344
67
140
250
236
71
148
404
179
180
371
120
292
58
388
374
331
359
207
287
197
123
129
63
291
269
137
273
112
375
35
200
238
339
243
260
206
277
254
142
304
125
172
239
203
342
270
296
403
17
405
192
145
51
341
215
358
229
177
20
276
336
130
44
26
300
219
284
302
410
295
56
391
189
290
397
64
158
89
16
286
34
139
267
133
413
350
118
188
368
41
332
74
144
406
248
66
288
213
310
126
369
100
382
210
281
115
214
317
117
379
90
42
191
348
268
393
163
186
384
95
116
98
182
28
160
194
18
88
99
312
185
356
127
252
232
27
314
25
262
10
72
311
309
150
396
161
333
208
225
162
320
132
338
151
253
246
103
233
87
354
299
69
47
272
124
198
315
167
326
65
285
381
135
245
175
19
38
357
181
138
205
170
408
193
340
360
79
234
45
327
43
104
335
187
39
209
81
325
136
60
322
164
352
174
306
212
57
40
168
109
48
308
134
321
52
176
131
183
46
337
173
110
328
216
195
54
372
30
53
93
224
50
80
330
12
78
242
22
361
23
228
122
97
231
221
106
55
32

>  <PUBCHEM_MMFF94_PARTIAL_CHARGES>  (1) 
3
1 -0.56
4 0.28
7 0.28

>  <PUBCHEM_EFFECTIVE_ROTOR_COUNT>  (1) 
7

>  <PUBCHEM_PHARMACOPHORE_FEATURES>  (1) 
3
1 1 acceptor
1 10 hydrophobe
1 9 hydrophobe

>  <PUBCHEM_HEAVY_ATOM_COUNT>  (1) 
10

>  <PUBCHEM_ATOM_DEF_STEREO_COUNT>  (1) 
0

>  <PUBCHEM_ATOM_UDEF_STEREO_COUNT>  (1) 
0

>  <PUBCHEM_BOND_DEF_STEREO_COUNT>  (1) 
0

>  <PUBCHEM_BOND_UDEF_STEREO_COUNT>  (1) 
0

>  <PUBCHEM_ISOTOPIC_ATOM_COUNT>  (1) 
0

>  <PUBCHEM_COMPONENT_COUNT>  (1) 
1

>  <PUBCHEM_CACTVS_TAUTO_COUNT>  (1) 
1

>  <PUBCHEM_CONFORMER_ID>  (1) 
000071E900000001

>  <PUBCHEM_MMFF94_ENERGY>  (1) 
0.4153

>  <PUBCHEM_FEATURE_SELFOVERLAP>  (1) 
15.223

>  <PUBCHEM_SHAPE_FINGERPRINT>  (1) 
11062470 55 18410856572524697956
114248 4 11386365945721694757
12815109 37 18411699889358555304
14123238 8 18410575088958052732
14251718 22 8214139655568589785
17834072 33 18341332292000566988
17834076 25 18410575084668366667
187816 3 15430036552153366901
20645477 70 18270684156449182710
20719005 15 18410011039767297228
20767249 13 18411136939399859246
20767249 213 11671777178544764218
22485316 2 18411134744756213879
23402539 116 17989200452332832453
366044 4 18410292518823223643
42788 4 18410575089184944993
8209 1 18408041810299957500

>  <PUBCHEM_SHAPE_MULTIPOLES>  (1) 
199.93
13.4
0.79
0.61
0.15
0.01
0
-1.03
0.34
0.04
0
-0.01
0
-0.01

>  <PUBCHEM_SHAPE_SELFOVERLAP>  (1) 
349.318

>  <PUBCHEM_SHAPE_VOLUME>  (1) 
132.9

>  <PUBCHEM_COORDINATE_TYPE>  (1) 
2
5
10

$$$$
