29184
     RDKit          3D

 21 22  0  0  1  0  0  0  0  0999 V2000
    0.6506    0.4896    0.8048 O   0  0  0  0  0  0  0  0  0  0  0  0
    3.2978    0.2956   -0.1314 N   0  0  0  0  0  0  0  0  0  0  0  0
    4.9276    1.1413   -1.5434 N   0  0  0  0  0  0  0  0  0  0  0  0
    5.4933    0.8794    0.6489 N   0  0  0  0  0  0  0  0  0  0  0  0
   -0.7305    0.0881    0.7980 C   0  0  0  0  0  0  0  0  0  0  0  0
   -0.9169   -1.1989    0.0002 C   0  0  0  0  0  0  0  0  0  0  0  0
   -1.6087    1.2058    0.3464 C   0  0  0  0  0  0  0  0  0  0  0  0
   -1.2808   -2.3603    0.6478 C   0  0  0  0  0  0  0  0  0  0  0  0
   -0.7098   -1.1484   -1.3628 C   0  0  0  0  0  0  0  0  0  0  0  0
    1.4826   -0.5717    1.2334 C   0  0  0  0  0  0  0  0  0  0  0  0
   -2.9160    1.3020    0.8235 C   0  0  0  0  0  0  0  0  0  0  0  0
   -1.1228    2.1551   -0.5527 C   0  0  0  0  0  0  0  0  0  0  0  0
   -1.4455   -3.5253   -0.1013 C   0  0  0  0  0  0  0  0  0  0  0  0
   -1.5028   -2.4102    2.1240 C   0  0  0  0  0  0  0  0  0  0  0  0
   -0.8748   -2.3134   -2.1119 C   0  0  0  0  0  0  0  0  0  0  0  0
   -1.2425   -3.5018   -1.4812 C   0  0  0  0  0  0  0  0  0  0  0  0
    2.9287   -0.1111    1.2273 C   0  0  0  0  0  0  0  0  0  0  0  0
   -3.7374    2.3474    0.4014 C   0  0  0  0  0  0  0  0  0  0  0  0
   -1.9442    3.2006   -0.9747 C   0  0  0  0  0  0  0  0  0  0  0  0
   -3.2516    3.2967   -0.4976 C   0  0  0  0  0  0  0  0  0  0  0  0
    4.5037    0.7396   -0.2985 C   0  0  0  0  0  0  0  0  0  0  0  0
  1  5  1  0
  1 10  1  0
  2 17  1  0
  2 21  2  3
  3 21  1  0
  4 21  1  0
  5  6  1  0
  5  7  1  0
  6  8  2  0
  6  9  1  0
  7 11  2  0
  7 12  1  0
  8 13  1  0
  8 14  1  0
  9 15  2  0
 10 17  1  0
 11 18  1  0
 12 19  2  0
 13 16  2  0
 15 16  1  0
 18 20  2  0
 19 20  1  0
M  END
>  <PUBCHEM_COMPOUND_CID>  (1) 
29184

>  <PUBCHEM_CONFORMER_RMSD>  (1) 
0.8

>  <PUBCHEM_CONFORMER_DIVERSEORDER>  (1) 
1
54
35
20
73
62
12
74
63
44
43
23
64
49
26
39
18
27
14
25
56
46
21
7
48
66
45
5
32
58
11
68
29
13
31
70
52
17
67
59
22
41
60
72
33
10
55
19
65
38
28
57
40
3
51
16
69
8
2
9
34
47
15
6
61
42
36
50
37
24
4
71
30
53

>  <PUBCHEM_MMFF94_PARTIAL_CHARGES>  (1) 
34
1 -0.56
10 0.28
11 -0.15
12 -0.15
13 -0.15
14 0.14
15 -0.15
16 -0.15
17 0.25
18 -0.15
19 -0.15
2 -0.7
20 -0.15
21 0.55
23 0.15
26 0.15
27 0.15
28 0.15
3 -0.85
32 0.15
33 0.15
36 0.15
37 0.15
38 0.15
39 0.4
4 -0.85
40 0.4
41 0.4
42 0.4
5 0.57
6 -0.14
7 -0.14
8 -0.14
9 -0.15

>  <PUBCHEM_EFFECTIVE_ROTOR_COUNT>  (1) 
6

>  <PUBCHEM_PHARMACOPHORE_FEATURES>  (1) 
6
1 1 acceptor
1 3 donor
1 4 donor
4 2 3 4 21 cation
6 6 8 9 13 15 16 rings
6 7 11 12 18 19 20 rings

>  <PUBCHEM_HEAVY_ATOM_COUNT>  (1) 
21

>  <PUBCHEM_ATOM_DEF_STEREO_COUNT>  (1) 
0

>  <PUBCHEM_ATOM_UDEF_STEREO_COUNT>  (1) 
1

>  <PUBCHEM_BOND_DEF_STEREO_COUNT>  (1) 
0

>  <PUBCHEM_BOND_UDEF_STEREO_COUNT>  (1) 
0

>  <PUBCHEM_ISOTOPIC_ATOM_COUNT>  (1) 
0

>  <PUBCHEM_COMPONENT_COUNT>  (1) 
1

>  <PUBCHEM_CACTVS_TAUTO_COUNT>  (1) 
2

>  <PUBCHEM_CONFORMER_ID>  (1) 
0000720000000001

>  <PUBCHEM_MMFF94_ENERGY>  (1) 
67.7002

>  <PUBCHEM_FEATURE_SELFOVERLAP>  (1) 
30.502

>  <PUBCHEM_SHAPE_FINGERPRINT>  (1) 
107951 10 18189914044957309714
10871710 139 18191317180633795340
10906281 52 18116164277340064753
12173636 292 18259983790743968930
12714826 92 18058456568020975890
12788726 201 18264754601482319027
13149001 5 17773857822588247800
13257819 37 18411989035437053045
133893 2 17407124261869879233
13681431 1 17258755540026473699
15163728 17 18050024202425328420
15842332 3 17968638489845611738
15906896 17 18408316696623172243
17539 30 18199173173839193887
17980427 23 16878522150274550549
1813 80 17766572621846215350
18785283 64 17832710071427761731
20101258 96 18120946267529353872
20602899 9 16988842774137932679
20645476 183 18336262353817224648
21041028 32 17900836155672121963
21421566 26 18055083313412069644
21524375 3 18194950864525864001
21860390 5 16748719050963353132
22620623 9 18129945697214422182
22907989 373 18342735273101019220
23227448 37 18336269037061163484
23419403 2 17410542785471352499
23557571 272 17988068024192095552
23559900 14 17326891777826878605
23598288 3 18262528094915292266
3057174 1 18055342553121699095
3729539 64 17696494896410721558
458136 41 17984144760339804601
469060 322 13624101987975618240
6138700 20 17404863649132494478
6786 2 18198353861699022527
81228 2 18051945264276743433
81539 233 18051121493907855401
9999458 23 17609780798993673947

>  <PUBCHEM_SHAPE_MULTIPOLES>  (1) 
411.36
7.17
4.66
1.71
13.3
2.22
0.18
-8.04
0.21
-5.05
1.54
0.04
1.18
-0.16

>  <PUBCHEM_SHAPE_SELFOVERLAP>  (1) 
866.889

>  <PUBCHEM_SHAPE_VOLUME>  (1) 
229.4

>  <PUBCHEM_COORDINATE_TYPE>  (1) 
2
5
10

$$$$
