29192
     RDKit          3D

 19 19  0  0  0  0  0  0  0  0999 V2000
   -1.6494    0.4146   -0.6331 O   0  0  0  0  0  0  0  0  0  0  0  0
   -2.5038   -0.0221    1.4849 O   0  0  0  0  0  0  0  0  0  0  0  0
    0.8151    1.6888   -0.2293 N   0  0  0  0  0  0  0  0  0  0  0  0
   -3.9130    0.4925   -0.2847 N   0  0  0  0  0  0  0  0  0  0  0  0
    0.6878    0.1640   -0.1883 C   0  0  0  0  0  0  0  0  0  0  0  0
    1.8179   -0.5467    0.0521 C   0  0  0  0  0  0  0  0  0  0  0  0
    3.1609    0.0684    0.2748 C   0  0  0  0  0  0  0  0  0  0  0  0
    1.7923    2.0698   -1.3378 C   0  0  0  0  0  0  0  0  0  0  0  0
    1.3158    2.1764    1.1274 C   0  0  0  0  0  0  0  0  0  0  0  0
   -0.5203    2.3722   -0.5166 C   0  0  0  0  0  0  0  0  0  0  0  0
   -0.5486   -0.3555   -0.3956 C   0  0  0  0  0  0  0  0  0  0  0  0
    1.6985   -1.9360    0.0894 C   0  0  0  0  0  0  0  0  0  0  0  0
   -0.6678   -1.7448   -0.3584 C   0  0  0  0  0  0  0  0  0  0  0  0
    4.1811   -0.3453   -0.8015 C   0  0  0  0  0  0  0  0  0  0  0  0
    3.7220   -0.2389    1.6750 C   0  0  0  0  0  0  0  0  0  0  0  0
    0.4558   -2.5350   -0.1157 C   0  0  0  0  0  0  0  0  0  0  0  0
   -1.9894   -2.4054   -0.5749 C   0  0  0  0  0  0  0  0  0  0  0  0
   -2.6866    0.2682    0.3063 C   0  0  0  0  0  0  0  0  0  0  0  0
   -5.1682    0.4148    0.4259 C   0  0  0  0  0  0  0  0  0  0  0  0
  1 11  1  0
  1 18  1  0
  2 18  2  0
  3  5  1  0
  3  8  1  0
  3  9  1  0
  3 10  1  0
  4 18  1  0
  4 19  1  0
  5  6  2  0
  5 11  1  0
  6  7  1  0
  6 12  1  0
  7 14  1  0
  7 15  1  0
 11 13  2  0
 12 16  2  0
 13 16  1  0
 13 17  1  0
M  CHG  1   3   1
M  END
>  <PUBCHEM_COMPOUND_CID>  (1) 
29192

>  <PUBCHEM_CONFORMER_RMSD>  (1) 
0.6

>  <PUBCHEM_CONFORMER_DIVERSEORDER>  (1) 
2
3
4
1

>  <PUBCHEM_MMFF94_PARTIAL_CHARGES>  (1) 
20
1 -0.23
10 0.5
11 0.08
12 -0.15
13 -0.14
16 -0.15
17 0.14
18 0.78
19 0.3
2 -0.57
3 -0.87
30 0.15
37 0.15
4 -0.73
41 0.37
5 0.36
6 -0.14
7 0.14
8 0.5
9 0.5

>  <PUBCHEM_EFFECTIVE_ROTOR_COUNT>  (1) 
5

>  <PUBCHEM_PHARMACOPHORE_FEATURES>  (1) 
5
1 2 acceptor
1 3 cation
1 4 donor
3 7 14 15 hydrophobe
6 5 6 11 12 13 16 rings

>  <PUBCHEM_HEAVY_ATOM_COUNT>  (1) 
19

>  <PUBCHEM_ATOM_DEF_STEREO_COUNT>  (1) 
0

>  <PUBCHEM_ATOM_UDEF_STEREO_COUNT>  (1) 
0

>  <PUBCHEM_BOND_DEF_STEREO_COUNT>  (1) 
0

>  <PUBCHEM_BOND_UDEF_STEREO_COUNT>  (1) 
0

>  <PUBCHEM_ISOTOPIC_ATOM_COUNT>  (1) 
0

>  <PUBCHEM_COMPONENT_COUNT>  (1) 
1

>  <PUBCHEM_CACTVS_TAUTO_COUNT>  (1) 
2

>  <PUBCHEM_CONFORMER_ID>  (1) 
0000720800000002

>  <PUBCHEM_MMFF94_ENERGY>  (1) 
115.3657

>  <PUBCHEM_FEATURE_SELFOVERLAP>  (1) 
25.371

>  <PUBCHEM_SHAPE_FINGERPRINT>  (1) 
104564 63 18195533592846257788
10967382 1 18410854326262284950
10980938 120 18338798905651998891
11086676 242 18260256435304712376
11132069 177 18341887502739477410
12011746 2 18410578344727918615
12236239 1 17632573830362830341
12251169 10 18410293618714295715
12382932 28 18412819196791525962
12553582 1 18408877425951485206
12633257 1 18055883668015379680
13140716 1 18337945821988339354
13172582 1 18409441497060292554
13836976 161 18412265034752506255
14178342 30 18268975622363462970
14790565 3 18338529572675058388
14993402 34 18341618096251538431
15309172 13 18411421687242136139
15375462 189 17967521377088409042
1601671 61 18336551495126202141
16752209 62 18338241453393938260
16945 1 18338787945132498644
19591789 44 18124319302878702262
20028762 73 18129380565803704719
20511035 2 18124877012950416718
20588541 1 18412545379667644510
20691752 17 17532356750946504404
20739085 24 18050867528054004091
21501502 16 18192991749411145958
21637258 2 15574980759274896242
22182313 1 18121207680602814934
23184049 59 18411417289385249777
2334 1 18049719916897608646
23419403 2 15302443540666380636
23493267 7 17605275069346977736
23558518 356 17975971278197756138
23559900 14 18272374205169246460
25147074 1 18192424401511427438
2748010 2 18194109948636734254
350125 39 18194689399923266691
4072396 5 18189321399419908923
465052 167 17967258598077905683
537710 114 18408890603116981524
53812653 166 18342168977542127762
7164475 11 17841706606553455431
7832392 63 18343016726645259918
9999458 23 18041285438641632327

>  <PUBCHEM_SHAPE_MULTIPOLES>  (1) 
369.31
6.75
2.66
1.14
4.62
0.2
0.27
-0.48
1.33
-0.23
-0.46
-0.61
-0.32
-0.31

>  <PUBCHEM_SHAPE_SELFOVERLAP>  (1) 
759.327

>  <PUBCHEM_SHAPE_VOLUME>  (1) 
214.3

>  <PUBCHEM_COORDINATE_TYPE>  (1) 
2
5
10

$$$$
