29193
     RDKit          3D

 18 18  0  0  0  0  0  0  0  0999 V2000
    0.9952   -0.4448    0.8109 O   0  0  0  0  0  0  0  0  0  0  0  0
    1.6326   -0.8321   -1.3914 O   0  0  0  0  0  0  0  0  0  0  0  0
   -1.3234   -1.9261    0.3684 N   0  0  0  0  0  0  0  0  0  0  0  0
    2.9476   -1.5618    0.3750 N   0  0  0  0  0  0  0  0  0  0  0  0
    1.1552    2.3507    0.3373 C   0  0  0  0  0  0  0  0  0  0  0  0
   -0.0891    1.5598    0.0998 C   0  0  0  0  0  0  0  0  0  0  0  0
   -1.2931   -0.5348    0.1181 C   0  0  0  0  0  0  0  0  0  0  0  0
   -0.1215    0.1871    0.3460 C   0  0  0  0  0  0  0  0  0  0  0  0
   -2.4322    0.1160   -0.3559 C   0  0  0  0  0  0  0  0  0  0  0  0
   -1.2281    2.2106   -0.3741 C   0  0  0  0  0  0  0  0  0  0  0  0
    0.9663    3.4317    1.4173 C   0  0  0  0  0  0  0  0  0  0  0  0
    1.7002    2.9892   -0.9534 C   0  0  0  0  0  0  0  0  0  0  0  0
   -2.3996    1.4887   -0.6020 C   0  0  0  0  0  0  0  0  0  0  0  0
   -3.7013   -0.6307   -0.6094 C   0  0  0  0  0  0  0  0  0  0  0  0
   -0.9752   -2.8641   -0.6777 C   0  0  0  0  0  0  0  0  0  0  0  0
   -1.6894   -2.4248    1.6772 C   0  0  0  0  0  0  0  0  0  0  0  0
    1.8511   -0.9424   -0.1886 C   0  0  0  0  0  0  0  0  0  0  0  0
    4.0047   -2.1720   -0.3973 C   0  0  0  0  0  0  0  0  0  0  0  0
  1  8  1  0
  1 17  1  0
  2 17  2  0
  3  7  1  0
  3 15  1  0
  3 16  1  0
  4 17  1  0
  4 18  1  0
  5  6  1  0
  5 11  1  0
  5 12  1  0
  6  8  2  0
  6 10  1  0
  7  8  1  0
  7  9  2  0
  9 13  1  0
  9 14  1  0
 10 13  2  0
M  END
>  <PUBCHEM_COMPOUND_CID>  (1) 
29193

>  <PUBCHEM_CONFORMER_RMSD>  (1) 
0.6

>  <PUBCHEM_CONFORMER_DIVERSEORDER>  (1) 
2
6
12
9
3
11
10
13
7
1
5
4
8

>  <PUBCHEM_MMFF94_PARTIAL_CHARGES>  (1) 
19
1 -0.23
10 -0.15
13 -0.15
14 0.14
15 0.37
16 0.37
17 0.78
18 0.3
2 -0.57
20 0.15
27 0.15
3 -0.84
37 0.37
4 -0.73
5 0.14
6 -0.14
7 0.1
8 0.08
9 -0.14

>  <PUBCHEM_EFFECTIVE_ROTOR_COUNT>  (1) 
5

>  <PUBCHEM_PHARMACOPHORE_FEATURES>  (1) 
5
1 2 acceptor
1 3 cation
1 4 donor
3 5 11 12 hydrophobe
6 6 7 8 9 10 13 rings

>  <PUBCHEM_HEAVY_ATOM_COUNT>  (1) 
18

>  <PUBCHEM_ATOM_DEF_STEREO_COUNT>  (1) 
0

>  <PUBCHEM_ATOM_UDEF_STEREO_COUNT>  (1) 
0

>  <PUBCHEM_BOND_DEF_STEREO_COUNT>  (1) 
0

>  <PUBCHEM_BOND_UDEF_STEREO_COUNT>  (1) 
0

>  <PUBCHEM_ISOTOPIC_ATOM_COUNT>  (1) 
0

>  <PUBCHEM_COMPONENT_COUNT>  (1) 
1

>  <PUBCHEM_CACTVS_TAUTO_COUNT>  (1) 
2

>  <PUBCHEM_CONFORMER_ID>  (1) 
0000720900000002

>  <PUBCHEM_MMFF94_ENERGY>  (1) 
70.1559

>  <PUBCHEM_FEATURE_SELFOVERLAP>  (1) 
25.371

>  <PUBCHEM_SHAPE_FINGERPRINT>  (1) 
108231 29 18339918204030389017
10967382 1 18266171906256115037
11680986 33 18263644142246292219
12423570 1 8385533143098282129
12524768 44 18265044924381257345
13140716 1 17977940512102455929
13149001 5 18335973216608152783
13380535 21 18119255210161167217
13380535 76 17903336445350911721
14178342 30 17764028365035122041
14614273 12 17253712677280432100
14790565 3 17907023876238200752
15490181 7 17551510376446057300
16945 1 18260556635922225293
193761 8 18265611168295058801
20510252 161 18051692144742712050
20645476 183 17459477649665823931
20905425 154 18267590302141820772
21029758 11 18341322297543181709
21501502 16 18194958780330068191
22182313 1 18044089297020899055
22802520 49 18263085590165204763
2334 1 17616528901153385752
23402539 116 18124303918316131286
23419403 2 18050531180538827084
23557571 272 18270404880780096382
23559900 14 17981313505446337778
2748010 2 18410567392381933025
3250762 1 18264486359278260953
353137 74 17472977303044316853
43471831 8 17689427608965112232
589210 1 18266179619906394479
7364860 26 18270391823309552000
81228 2 18052553066626423120

>  <PUBCHEM_SHAPE_MULTIPOLES>  (1) 
348.73
4.59
4.21
1.17
0.01
0.48
0.26
-2.2
-0.72
2.77
0.31
-0.02
0
0.95

>  <PUBCHEM_SHAPE_SELFOVERLAP>  (1) 
709.868

>  <PUBCHEM_SHAPE_VOLUME>  (1) 
203.9

>  <PUBCHEM_COORDINATE_TYPE>  (1) 
2
5
10

$$$$
