29207
     RDKit          3D

 20 22  0  0  0  0  0  0  0  0999 V2000
    2.2820   -1.7944   -0.5617 O   0  0  0  0  0  0  0  0  0  0  0  0
    0.9657    1.9385    0.3708 O   0  0  0  0  0  0  0  0  0  0  0  0
   -5.6621    1.1932   -0.5367 O   0  0  0  0  0  0  0  0  0  0  0  0
   -5.8577   -0.7910    0.3819 O   0  0  0  0  0  0  0  0  0  0  0  0
    0.4678   -0.3441    0.0708 N   0  0  0  0  0  0  0  0  0  0  0  0
   -5.1541    0.1483   -0.0623 N   0  0  0  0  0  0  0  0  0  0  0  0
    1.0648   -1.6744    0.1844 C   0  0  0  0  0  0  0  0  0  0  0  0
    2.7550    0.4704    0.1258 C   0  0  0  0  0  0  0  0  0  0  0  0
   -0.9661   -0.2181    0.0379 C   0  0  0  0  0  0  0  0  0  0  0  0
    1.3081    0.7729    0.1968 C   0  0  0  0  0  0  0  0  0  0  0  0
    3.1693   -0.7994   -0.2693 C   0  0  0  0  0  0  0  0  0  0  0  0
   -1.5487    0.9343   -0.4834 C   0  0  0  0  0  0  0  0  0  0  0  0
   -1.7640   -1.2497    0.5267 C   0  0  0  0  0  0  0  0  0  0  0  0
    3.7054    1.4611    0.3935 C   0  0  0  0  0  0  0  0  0  0  0  0
    4.5267   -1.0802   -0.4269 C   0  0  0  0  0  0  0  0  0  0  0  0
   -2.9378    1.0562   -0.5162 C   0  0  0  0  0  0  0  0  0  0  0  0
   -3.1532   -1.1280    0.4940 C   0  0  0  0  0  0  0  0  0  0  0  0
   -3.7402    0.0250   -0.0276 C   0  0  0  0  0  0  0  0  0  0  0  0
    5.0646    1.1733    0.2575 C   0  0  0  0  0  0  0  0  0  0  0  0
    5.4745   -0.0940   -0.1560 C   0  0  0  0  0  0  0  0  0  0  0  0
  1  7  1  0
  1 11  1  0
  2 10  2  0
  3  6  1  0
  4  6  2  0
  5  7  1  0
  5  9  1  0
  5 10  1  0
  6 18  1  0
  8 10  1  0
  8 11  2  0
  8 14  1  0
  9 12  2  0
  9 13  1  0
 11 15  1  0
 12 16  1  0
 13 17  2  0
 14 19  2  0
 15 20  2  0
 16 18  2  0
 17 18  1  0
 19 20  1  0
M  CHG  2   3  -1   6   1
M  END
>  <PUBCHEM_COMPOUND_CID>  (1) 
29207

>  <PUBCHEM_CONFORMER_RMSD>  (1) 
0.6

>  <PUBCHEM_CONFORMER_DIVERSEORDER>  (1) 
2
1

>  <PUBCHEM_MMFF94_PARTIAL_CHARGES>  (1) 
28
1 -0.36
10 0.54
11 0.08
12 -0.15
13 -0.15
14 -0.15
15 -0.15
16 -0.15
17 -0.15
18 0.13
19 -0.15
2 -0.57
20 -0.15
23 0.15
24 0.15
25 0.15
26 0.15
27 0.15
28 0.15
29 0.15
3 -0.52
30 0.15
4 -0.52
5 -0.48
6 0.91
7 0.58
8 0.09
9 0.12

>  <PUBCHEM_EFFECTIVE_ROTOR_COUNT>  (1) 
2.6

>  <PUBCHEM_PHARMACOPHORE_FEATURES>  (1) 
8
1 1 acceptor
1 2 acceptor
1 3 acceptor
1 3 anion
1 4 acceptor
6 1 5 7 8 10 11 rings
6 8 11 14 15 19 20 rings
6 9 12 13 16 17 18 rings

>  <PUBCHEM_HEAVY_ATOM_COUNT>  (1) 
20

>  <PUBCHEM_ATOM_DEF_STEREO_COUNT>  (1) 
0

>  <PUBCHEM_ATOM_UDEF_STEREO_COUNT>  (1) 
0

>  <PUBCHEM_BOND_DEF_STEREO_COUNT>  (1) 
0

>  <PUBCHEM_BOND_UDEF_STEREO_COUNT>  (1) 
0

>  <PUBCHEM_ISOTOPIC_ATOM_COUNT>  (1) 
0

>  <PUBCHEM_COMPONENT_COUNT>  (1) 
1

>  <PUBCHEM_CACTVS_TAUTO_COUNT>  (1) 
1

>  <PUBCHEM_CONFORMER_ID>  (1) 
0000721700000002

>  <PUBCHEM_MMFF94_ENERGY>  (1) 
77.1753

>  <PUBCHEM_FEATURE_SELFOVERLAP>  (1) 
40.712

>  <PUBCHEM_SHAPE_FINGERPRINT>  (1) 
10 15 18261668290129624216
11287383 113 18409167727043855907
11471102 20 18343021095027504240
11578080 2 13914047576750609940
12107183 9 17409664150904766227
12236239 1 16845575309474045555
12403259 415 18335693944834139860
12730499 353 18411425007315445378
13081056 2 18409729560485225772
13402501 40 18408603668936157129
13533116 47 13758086151660002244
14341114 176 18410298016365167913
14386348 63 18408606963160248899
15196674 1 18410855494551424562
15375358 24 18408324397288368330
16988056 13 13856528425249976245
17834072 33 18060135461877989791
19141452 34 18342458187908101311
200 152 17917710201809841955
20279233 1 18335990817252476994
20567600 347 17385440999259598514
20645477 56 18260546727770036733
20645477 70 18202285762777842982
21267235 1 18341621395145221774
21279426 13 18266177227667854093
221357 26 18343581811186962196
23402539 116 18114457941876082815
23402655 69 18343861096041140149
23557571 272 17676488298257470180
23559900 14 18411133662466666504
239999 70 18341617006105480814
2871803 45 18410857625345534458
29717793 49 17203614748341334956
3004659 81 18187085006329530706
335352 9 18412826894100777942
33824 294 18411699868432780242
34797466 226 15339121286048853064
34934 24 18410851070766953082
351380 180 18408884048796414570
3545911 37 18410294717787937127
4072396 5 18339068325299029810
4073 2 18114467858792299234
4214541 1 18410293597097125317
42630746 31 18201720648318932430
4340502 62 16877944927611808090
495365 180 17560509707985051930
5104073 3 18262520290964874065
542803 24 16702024175342783531
59755656 215 18408889508053665662
633830 44 17895471544088059082
7495541 125 14562826481229462005

>  <PUBCHEM_SHAPE_MULTIPOLES>  (1) 
378.15
12.61
1.7
0.71
6.27
0.04
-0.01
-1.3
-0.47
-0.61
0.03
0.01
0.01
0.98

>  <PUBCHEM_SHAPE_SELFOVERLAP>  (1) 
836.711

>  <PUBCHEM_SHAPE_VOLUME>  (1) 
201.6

>  <PUBCHEM_COORDINATE_TYPE>  (1) 
2
5
10

$$$$
