29208
     RDKit          3D

 19 21  0  0  1  0  0  0  0  0999 V2000
    6.0964    0.4198    0.2631 Cl  0  0  0  0  0  0  0  0  0  0  0  0
   -1.6113   -1.6107    0.7895 O   0  0  0  0  0  0  0  0  0  0  0  0
   -0.3289    1.9532   -0.7313 O   0  0  0  0  0  0  0  0  0  0  0  0
    0.1918   -0.2426   -0.0565 N   0  0  0  0  0  0  0  0  0  0  0  0
   -0.3921   -1.5909    0.0236 C   0  0  0  0  0  0  0  0  0  0  0  0
   -2.0989    0.5702   -0.1309 C   0  0  0  0  0  0  0  0  0  0  0  0
   -0.6594    0.8380   -0.3393 C   0  0  0  0  0  0  0  0  0  0  0  0
    1.6265   -0.0817    0.0214 C   0  0  0  0  0  0  0  0  0  0  0  0
   -2.4967   -0.6289    0.4527 C   0  0  0  0  0  0  0  0  0  0  0  0
   -0.6305   -2.2226   -1.3514 C   0  0  0  0  0  0  0  0  0  0  0  0
   -3.0568    1.5366   -0.4574 C   0  0  0  0  0  0  0  0  0  0  0  0
   -3.8430   -0.8596    0.7393 C   0  0  0  0  0  0  0  0  0  0  0  0
    2.1642    1.1332    0.4361 C   0  0  0  0  0  0  0  0  0  0  0  0
    2.4605   -1.1426   -0.3193 C   0  0  0  0  0  0  0  0  0  0  0  0
   -4.4057    1.2969   -0.1895 C   0  0  0  0  0  0  0  0  0  0  0  0
   -4.7979    0.1023    0.4126 C   0  0  0  0  0  0  0  0  0  0  0  0
    3.5484    1.2884    0.5109 C   0  0  0  0  0  0  0  0  0  0  0  0
    3.8447   -0.9872   -0.2444 C   0  0  0  0  0  0  0  0  0  0  0  0
    4.3887    0.2283    0.1707 C   0  0  0  0  0  0  0  0  0  0  0  0
  1 19  1  0
  2  5  1  0
  2  9  1  0
  3  7  2  0
  4  5  1  0
  4  7  1  0
  4  8  1  0
  5 10  1  0
  6  7  1  0
  6  9  2  0
  6 11  1  0
  8 13  2  0
  8 14  1  0
  9 12  1  0
 11 15  2  0
 12 16  2  0
 13 17  1  0
 14 18  2  0
 15 16  1  0
 17 19  2  0
 18 19  1  0
M  END
>  <PUBCHEM_COMPOUND_CID>  (1) 
29208

>  <PUBCHEM_CONFORMER_RMSD>  (1) 
0.6

>  <PUBCHEM_CONFORMER_DIVERSEORDER>  (1) 
1
2
3

>  <PUBCHEM_MMFF94_PARTIAL_CHARGES>  (1) 
26
1 -0.18
11 -0.15
12 -0.15
13 -0.15
14 -0.15
15 -0.15
16 -0.15
17 -0.15
18 -0.15
19 0.18
2 -0.36
24 0.15
25 0.15
26 0.15
27 0.15
28 0.15
29 0.15
3 -0.57
30 0.15
31 0.15
4 -0.48
5 0.58
6 0.09
7 0.54
8 0.12
9 0.08

>  <PUBCHEM_EFFECTIVE_ROTOR_COUNT>  (1) 
1.6

>  <PUBCHEM_PHARMACOPHORE_FEATURES>  (1) 
5
1 2 acceptor
1 3 acceptor
6 2 4 5 6 7 9 rings
6 6 9 11 12 15 16 rings
6 8 13 14 17 18 19 rings

>  <PUBCHEM_HEAVY_ATOM_COUNT>  (1) 
19

>  <PUBCHEM_ATOM_DEF_STEREO_COUNT>  (1) 
0

>  <PUBCHEM_ATOM_UDEF_STEREO_COUNT>  (1) 
1

>  <PUBCHEM_BOND_DEF_STEREO_COUNT>  (1) 
0

>  <PUBCHEM_BOND_UDEF_STEREO_COUNT>  (1) 
0

>  <PUBCHEM_ISOTOPIC_ATOM_COUNT>  (1) 
0

>  <PUBCHEM_COMPONENT_COUNT>  (1) 
1

>  <PUBCHEM_CACTVS_TAUTO_COUNT>  (1) 
1

>  <PUBCHEM_CONFORMER_ID>  (1) 
0000721800000001

>  <PUBCHEM_MMFF94_ENERGY>  (1) 
68.5379

>  <PUBCHEM_FEATURE_SELFOVERLAP>  (1) 
25.403

>  <PUBCHEM_SHAPE_FINGERPRINT>  (1) 
10 15 18337662123189689368
10608611 8 18411416232807769552
11132069 177 18333735702135359469
12011746 2 18410854356400928621
12119455 92 18131068225313578439
12236239 1 16515405170730553280
12251169 10 18341613750119083692
12403259 415 18263366902001970453
12507560 40 18408605833805480590
12596602 18 16009040517769945281
12969540 114 18337371778445622773
13140716 1 18267298927555656016
13214271 11 18408321099011856983
13533116 47 16056886776086923590
13544592 145 18271255932481009734
13583140 156 17386267853319759439
13675066 3 18335706069531636459
15042514 8 18191873533750026283
15196674 1 18408886204780339434
15219456 202 18412266107808586119
15309172 13 18202848746663559055
15375358 24 18410575071788746030
16945 1 18187937234909031019
17804303 29 18335987548872132905
1813 80 16298107554009782630
18186145 218 17917436410181470627
19141452 34 18343302603942336998
19784866 170 18334859420151362394
200 152 17561079198371960729
20510252 161 18339924818491372401
20645477 56 18342734143920115848
20645477 70 17988647329328199982
21033648 29 18201424874847902920
21267235 1 18261683643893583746
21279426 13 18193557757397028420
22854114 59 18343866614715393376
23184049 59 18342461438870952335
23227448 37 18270960266652570326
23402539 116 18341324556722165007
23559900 14 18336548214446226246
2748010 2 18191035499936361327
3004659 81 18261116215413243006
34934 24 18408599258421618538
351380 180 18411698777046421771
3545911 37 18342177774014769680
4214541 1 18408041814210101800
5104073 3 18335140834650274754
542803 24 16877665664928103228
633830 44 17131286666021668997
69090 78 18272085019724140279
9709674 26 18410580590890845358

>  <PUBCHEM_SHAPE_MULTIPOLES>  (1) 
376.16
10.49
1.91
0.86
6.71
0.37
0.07
-2.57
-1.63
-0.57
0.4
-0.27
0.18
0.7

>  <PUBCHEM_SHAPE_SELFOVERLAP>  (1) 
816.957

>  <PUBCHEM_SHAPE_VOLUME>  (1) 
205.8

>  <PUBCHEM_COORDINATE_TYPE>  (1) 
2
5
10

$$$$
