29210
     RDKit          3D

 20 20  0  0  0  0  0  0  0  0999 V2000
    0.7079    0.2759   -0.1161 O   0  0  0  0  0  0  0  0  0  0  0  0
   -2.8293   -1.7677   -0.1845 O   0  0  0  0  0  0  0  0  0  0  0  0
   -0.2866   -1.5465   -1.1107 O   0  0  0  0  0  0  0  0  0  0  0  0
    4.3697    0.0226    0.2186 N   0  0  0  0  0  0  0  0  0  0  0  0
   -5.1654    2.4189    0.1731 N   0  0  0  0  0  0  0  0  0  0  0  0
    3.0352    0.6114    0.3229 C   0  0  0  0  0  0  0  0  0  0  0  0
    5.3682    0.9112    0.8121 C   0  0  0  0  0  0  0  0  0  0  0  0
    4.6985   -0.2545   -1.1791 C   0  0  0  0  0  0  0  0  0  0  0  0
    1.9876   -0.3277   -0.2535 C   0  0  0  0  0  0  0  0  0  0  0  0
    5.0423    1.2101    2.2656 C   0  0  0  0  0  0  0  0  0  0  0  0
    6.0573   -0.9230   -1.3015 C   0  0  0  0  0  0  0  0  0  0  0  0
   -1.6199    0.2929   -0.3870 C   0  0  0  0  0  0  0  0  0  0  0  0
   -0.3470   -0.4444   -0.5881 C   0  0  0  0  0  0  0  0  0  0  0  0
   -2.7956   -0.4052   -0.1964 C   0  0  0  0  0  0  0  0  0  0  0  0
   -1.5814    1.6737   -0.3983 C   0  0  0  0  0  0  0  0  0  0  0  0
   -3.9811    0.3053   -0.0092 C   0  0  0  0  0  0  0  0  0  0  0  0
   -3.9668    1.7001   -0.0166 C   0  0  0  0  0  0  0  0  0  0  0  0
   -2.7670    2.3844   -0.2113 C   0  0  0  0  0  0  0  0  0  0  0  0
   -3.2976   -2.3935    1.0082 C   0  0  0  0  0  0  0  0  0  0  0  0
   -2.6291   -3.7440    1.1516 C   0  0  0  0  0  0  0  0  0  0  0  0
  1  9  1  0
  1 13  1  0
  2 14  1  0
  2 19  1  0
  3 13  2  0
  4  6  1  0
  4  7  1  0
  4  8  1  0
  5 17  1  0
  6  9  1  0
  7 10  1  0
  8 11  1  0
 12 13  1  0
 12 14  2  0
 12 15  1  0
 14 16  1  0
 15 18  2  0
 16 17  2  0
 17 18  1  0
 19 20  1  0
M  END
>  <PUBCHEM_COMPOUND_CID>  (1) 
29210

>  <PUBCHEM_CONFORMER_RMSD>  (1) 
0.8

>  <PUBCHEM_CONFORMER_DIVERSEORDER>  (1) 
1
202
27
235
144
220
150
81
29
206
142
67
186
41
45
189
248
140
96
149
163
3
168
31
233
154
222
82
158
19
74
148
127
101
70
210
217
162
57
218
42
102
181
176
12
147
250
141
131
130
180
97
226
236
60
32
242
164
100
120
239
94
245
129
49
145
66
169
133
232
137
153
178
114
238
155
246
177
225
113
40
161
237
17
6
172
128
224
244
160
86
183
13
4
105
208
98
247
221
111
126
231
28
151
216
2
22
68
64
25
230
234
71
138
182
211
39
8
203
215
156
249
174
171
99
170
84
30
21
195
190
228
56
185
9
108
80
104
205
243
16
152
132
115
38
209
5
188
196
112
50
136
59
194
201
53
204
139
48
191
63
187
219
14
73
117
110
93
76
51
227
122
20
118
179
89
62
167
69
43
241
55
47
26
92
72
146
193
200
35
15
197
214
192
159
166
109
184
37
107
54
229
119
85
240
199
123
124
79
77
135
198
106
44
23
58
213
134
165
212
143
75
207
36
87
223
65
91
46
18
175
24
125
52
116
83
33
88
61
121
103
78
10
95
173
157
34
7
90
11

>  <PUBCHEM_MMFF94_PARTIAL_CHARGES>  (1) 
22
1 -0.43
12 0.09
13 0.63
14 0.08
15 -0.15
16 -0.15
17 0.1
18 -0.15
19 0.28
2 -0.36
3 -0.57
35 0.15
36 0.15
37 0.15
4 -0.81
43 0.4
44 0.4
5 -0.9
6 0.27
7 0.27
8 0.27
9 0.28

>  <PUBCHEM_EFFECTIVE_ROTOR_COUNT>  (1) 
9

>  <PUBCHEM_PHARMACOPHORE_FEATURES>  (1) 
6
1 2 acceptor
1 3 acceptor
1 4 cation
1 5 cation
1 5 donor
6 12 14 15 16 17 18 rings

>  <PUBCHEM_HEAVY_ATOM_COUNT>  (1) 
20

>  <PUBCHEM_ATOM_DEF_STEREO_COUNT>  (1) 
0

>  <PUBCHEM_ATOM_UDEF_STEREO_COUNT>  (1) 
0

>  <PUBCHEM_BOND_DEF_STEREO_COUNT>  (1) 
0

>  <PUBCHEM_BOND_UDEF_STEREO_COUNT>  (1) 
0

>  <PUBCHEM_ISOTOPIC_ATOM_COUNT>  (1) 
0

>  <PUBCHEM_COMPONENT_COUNT>  (1) 
1

>  <PUBCHEM_CACTVS_TAUTO_COUNT>  (1) 
2

>  <PUBCHEM_CONFORMER_ID>  (1) 
0000721A00000001

>  <PUBCHEM_MMFF94_ENERGY>  (1) 
61.2824

>  <PUBCHEM_FEATURE_SELFOVERLAP>  (1) 
30.452

>  <PUBCHEM_SHAPE_FINGERPRINT>  (1) 
10319926 262 18410845561099216954
10912923 1 17458343078778718548
11045977 3 18272368663701702288
11370993 144 17775300368874331770
11545043 162 18342745122199604190
12390115 104 18054800490016984145
12403259 415 18059859484812761316
12523318 42 18264198270004747666
12616971 3 16443338772173153536
12788726 201 17753343259486685946
13675066 3 18201718492197669084
14844126 61 18188206641017617467
15042514 8 18262810678426302819
15099037 37 18337957895394927687
17844677 252 18338806710076885732
20645477 56 18337958883242661149
20645477 70 16917352511679307948
21033648 29 17917699228311001368
21065201 7 18409446982155457722
22224240 67 18339931412247444729
23557571 272 18340782488904998846
23559900 14 18339369565535901790
3545911 37 18340209587655050116
4073 2 18409169922621730066
5104073 3 18413384337547365066
5364581 5 18124301964206849552
59755656 215 18268718216599354486
59755656 520 18261957345470086207
90127 26 18130787880361451570

>  <PUBCHEM_SHAPE_MULTIPOLES>  (1) 
384.02
13.3
2.94
1.29
17.42
2.03
-0.49
-2.82
-1.41
-5.59
-1
2.16
0.17
2.32

>  <PUBCHEM_SHAPE_SELFOVERLAP>  (1) 
772.593

>  <PUBCHEM_SHAPE_VOLUME>  (1) 
227.2

>  <PUBCHEM_COORDINATE_TYPE>  (1) 
2
5
10

$$$$
