29218
     RDKit          3D

 20 20  0  0  0  0  0  0  0  0999 V2000
   -3.3578   -0.1197   -0.0993 O   0  0  0  0  0  0  0  0  0  0  0  0
    3.3579   -0.1193    0.0917 O   0  0  0  0  0  0  0  0  0  0  0  0
   -3.5026    2.0765    0.5751 O   0  0  0  0  0  0  0  0  0  0  0  0
    3.5100    2.1131   -0.4490 O   0  0  0  0  0  0  0  0  0  0  0  0
   -5.1848   -1.6675   -0.4381 C   0  0  0  0  0  0  0  0  0  0  0  0
    5.1970   -1.6828    0.3372 C   0  0  0  0  0  0  0  0  0  0  0  0
   -4.7722   -0.2483   -0.0381 C   0  0  0  0  0  0  0  0  0  0  0  0
    4.7826   -0.2426    0.0234 C   0  0  0  0  0  0  0  0  0  0  0  0
   -4.5843   -2.7098    0.5076 C   0  0  0  0  0  0  0  0  0  0  0  0
   -6.7066   -1.7917   -0.4673 C   0  0  0  0  0  0  0  0  0  0  0  0
    4.5988   -2.6670   -0.6702 C   0  0  0  0  0  0  0  0  0  0  0  0
    6.7190   -1.8063    0.3601 C   0  0  0  0  0  0  0  0  0  0  0  0
   -1.3720    1.1039    0.1285 C   0  0  0  0  0  0  0  0  0  0  0  0
    1.3805    1.1121   -0.0639 C   0  0  0  0  0  0  0  0  0  0  0  0
   -2.8531    1.1003    0.2338 C   0  0  0  0  0  0  0  0  0  0  0  0
    2.8311    1.1170   -0.1659 C   0  0  0  0  0  0  0  0  0  0  0  0
   -0.7297    2.2816   -0.1948 C   0  0  0  0  0  0  0  0  0  0  0  0
    0.6620    2.2857   -0.2921 C   0  0  0  0  0  0  0  0  0  0  0  0
   -0.6838   -0.0696    0.3593 C   0  0  0  0  0  0  0  0  0  0  0  0
    0.7078   -0.0656    0.2619 C   0  0  0  0  0  0  0  0  0  0  0  0
  1  7  1  0
  1 15  1  0
  2  8  1  0
  2 16  1  0
  3 15  2  0
  4 16  2  0
  5  7  1  0
  5  9  1  0
  5 10  1  0
  6  8  1  0
  6 11  1  0
  6 12  1  0
 13 15  1  0
 13 17  2  0
 13 19  1  0
 14 16  1  0
 14 18  2  0
 14 20  1  0
 17 18  1  0
 19 20  2  0
M  END
>  <PUBCHEM_COMPOUND_CID>  (1) 
29218

>  <PUBCHEM_CONFORMER_RMSD>  (1) 
0.8

>  <PUBCHEM_CONFORMER_DIVERSEORDER>  (1) 
1
37
44
72
85
49
47
54
41
69
48
15
70
23
40
25
50
4
67
60
62
6
56
74
71
51
30
31
57
42
19
39
8
17
83
43
73
28
27
26
22
79
2
76
14
46
77
68
10
58
81
59
13
52
36
82
7
9
80
38
61
20
66
18
11
12
32
5
21
84
53
63
75
16
78
24
33
34
35
64
3
55
65
45
29

>  <PUBCHEM_MMFF94_PARTIAL_CHARGES>  (1) 
18
1 -0.43
13 0.09
14 0.09
15 0.63
16 0.63
17 -0.15
18 -0.15
19 -0.15
2 -0.43
20 -0.15
3 -0.57
39 0.15
4 -0.57
40 0.15
41 0.15
42 0.15
7 0.28
8 0.28

>  <PUBCHEM_EFFECTIVE_ROTOR_COUNT>  (1) 
8

>  <PUBCHEM_PHARMACOPHORE_FEATURES>  (1) 
5
1 3 acceptor
1 4 acceptor
3 5 9 10 hydrophobe
3 6 11 12 hydrophobe
6 13 14 17 18 19 20 rings

>  <PUBCHEM_HEAVY_ATOM_COUNT>  (1) 
20

>  <PUBCHEM_ATOM_DEF_STEREO_COUNT>  (1) 
0

>  <PUBCHEM_ATOM_UDEF_STEREO_COUNT>  (1) 
0

>  <PUBCHEM_BOND_DEF_STEREO_COUNT>  (1) 
0

>  <PUBCHEM_BOND_UDEF_STEREO_COUNT>  (1) 
0

>  <PUBCHEM_ISOTOPIC_ATOM_COUNT>  (1) 
0

>  <PUBCHEM_COMPONENT_COUNT>  (1) 
1

>  <PUBCHEM_CACTVS_TAUTO_COUNT>  (1) 
1

>  <PUBCHEM_CONFORMER_ID>  (1) 
0000722200000001

>  <PUBCHEM_MMFF94_ENERGY>  (1) 
45.6763

>  <PUBCHEM_FEATURE_SELFOVERLAP>  (1) 
25.371

>  <PUBCHEM_SHAPE_FINGERPRINT>  (1) 
10 15 11455891386467589247
10622 236 17269736285982849511
11197282 1 18410859858196752854
11796584 16 18267019449680533664
12293681 160 12035448320195723508
12403259 226 18410569587221958992
12596602 18 17704070660480397610
12760667 363 18413669128370943099
12916754 54 18409166605999908461
13073987 5 18343864441562785712
13167823 11 18411698785546678986
13288520 33 18410855425884734333
13533116 47 18340768246856923920
13740256 8 18410575067889430640
13862211 1 18409729560290144354
13955234 65 17911519014974904801
14211702 104 18342464716031817254
14251732 16 18342172276762683576
14251740 57 18342455937677346058
14347332 77 18410292497680319869
15042514 8 18341050727046041637
15196674 1 18410012139020962345
15352361 1 18410293614008027623
15519825 34 14476382916478598423
17857418 61 18411138034643250802
17959699 21 8574418834218683038
18222031 100 18186515522971235960
193927 3 18341059570172636119
20028762 73 18342737420849190622
20398071 356 18410301306521698035
20645477 70 18334011713998013580
21033650 10 16516238540615637941
21267235 1 18410016532840772683
21637258 2 17988917907982942631
221490 88 17829051258235691809
22393880 68 18040701555408149629
23402539 116 18337951194998097524
23522609 53 18123224322125535921
23559900 14 18265325278646167849
23622692 118 18410572881461186433
25122255 55 18411425011631531079
3004659 81 18113612404354164362
3014063 24 18273208725208857975
312425 54 18059576836692872674
314194 84 18270681008047750183
465052 167 18343304773385975542
5104073 3 18131072640450561489
559249 180 18412261719290772533
5718773 13 18335977555216939090
59682541 52 12901819460254495554
7495541 125 17775564281703317504
76465 3 18410856559687561228
77188 2 18411417340715016996
7970288 3 18410571794798018015

>  <PUBCHEM_SHAPE_MULTIPOLES>  (1) 
388.11
15.84
3.16
0.71
0.22
0.53
0.01
15.96
0.5
-0.01
0.19
-0.03
0.11
-0.45

>  <PUBCHEM_SHAPE_SELFOVERLAP>  (1) 
786.147

>  <PUBCHEM_SHAPE_VOLUME>  (1) 
227.5

>  <PUBCHEM_COORDINATE_TYPE>  (1) 
2
5
10

$$$$
