29211
     RDKit          3D

 17 17  0  0  1  0  0  0  0  0999 V2000
    3.0007   -3.0077    1.2249 Br  0  0  0  0  0  0  0  0  0  0  0  0
    2.2044    3.6764    0.3430 Br  0  0  0  0  0  0  0  0  0  0  0  0
    0.1392   -0.2991   -2.1700 O   0  0  0  0  0  0  0  0  0  0  0  0
   -0.4934    1.1950    2.2366 O   0  0  0  0  0  0  0  0  0  0  0  0
   -3.8782   -0.9088   -0.0378 O   0  0  0  0  0  0  0  0  0  0  0  0
   -1.8346   -0.6907   -1.0683 N   0  0  0  0  0  0  0  0  0  0  0  0
   -2.1508    0.0562    1.1327 N   0  0  0  0  0  0  0  0  0  0  0  0
    0.1330   -0.0303    0.2400 C   0  0  0  0  0  0  0  0  0  0  0  0
    0.6922   -1.3620    0.7720 C   0  0  0  0  0  0  0  0  0  0  0  0
    1.2848    0.9703    0.0661 C   0  0  0  0  0  0  0  0  0  0  0  0
   -0.4987   -0.3216   -1.1176 C   0  0  0  0  0  0  0  0  0  0  0  0
   -0.8440    0.4942    1.2876 C   0  0  0  0  0  0  0  0  0  0  0  0
    1.9873   -1.7754    0.0844 C   0  0  0  0  0  0  0  0  0  0  0  0
    0.8018    2.3995   -0.1556 C   0  0  0  0  0  0  0  0  0  0  0  0
    1.7071   -2.4834   -1.2337 C   0  0  0  0  0  0  0  0  0  0  0  0
    0.4481    2.6423   -1.6161 C   0  0  0  0  0  0  0  0  0  0  0  0
   -2.6989   -0.5552    0.0115 C   0  0  0  0  0  0  0  0  0  0  0  0
  1 13  1  0
  2 14  1  0
  3 11  2  0
  4 12  2  0
  5 17  2  0
  6 11  1  0
  6 17  1  0
  7 12  1  0
  7 17  1  0
  8  9  1  0
  8 10  1  0
  8 11  1  0
  8 12  1  0
  9 13  1  0
 10 14  1  0
 13 15  1  0
 14 16  1  0
M  END
>  <PUBCHEM_COMPOUND_CID>  (1) 
29211

>  <PUBCHEM_CONFORMER_RMSD>  (1) 
0.6

>  <PUBCHEM_CONFORMER_DIVERSEORDER>  (1) 
13
31
55
53
22
27
5
37
9
50
39
40
54
26
59
10
32
52
47
46
57
6
49
42
17
51
33
56
23
28
48
8
15
11
58
2
38
44
43
29
4
19
36
20
34
3
1
35
24
7
25
16
45
14
21
30
12
41
18

>  <PUBCHEM_MMFF94_PARTIAL_CHARGES>  (1) 
15
1 -0.23
11 0.57
12 0.57
13 0.23
14 0.23
17 0.69
2 -0.23
24 0.37
25 0.37
3 -0.57
4 -0.57
5 -0.57
6 -0.49
7 -0.49
8 0.12

>  <PUBCHEM_EFFECTIVE_ROTOR_COUNT>  (1) 
4.6

>  <PUBCHEM_PHARMACOPHORE_FEATURES>  (1) 
10
1 1 hydrophobe
1 2 hydrophobe
1 3 acceptor
1 4 acceptor
1 5 acceptor
1 6 donor
1 7 donor
3 1 13 15 hydrophobe
3 2 14 16 hydrophobe
6 6 7 8 11 12 17 rings

>  <PUBCHEM_HEAVY_ATOM_COUNT>  (1) 
17

>  <PUBCHEM_ATOM_DEF_STEREO_COUNT>  (1) 
0

>  <PUBCHEM_ATOM_UDEF_STEREO_COUNT>  (1) 
2

>  <PUBCHEM_BOND_DEF_STEREO_COUNT>  (1) 
0

>  <PUBCHEM_BOND_UDEF_STEREO_COUNT>  (1) 
0

>  <PUBCHEM_ISOTOPIC_ATOM_COUNT>  (1) 
0

>  <PUBCHEM_COMPONENT_COUNT>  (1) 
1

>  <PUBCHEM_CACTVS_TAUTO_COUNT>  (1) 
5

>  <PUBCHEM_CONFORMER_ID>  (1) 
0000721B0000000D

>  <PUBCHEM_MMFF94_ENERGY>  (1) 
56.2952

>  <PUBCHEM_FEATURE_SELFOVERLAP>  (1) 
52.677

>  <PUBCHEM_SHAPE_FINGERPRINT>  (1) 
1 1 18192427695767154492
12423570 1 7866532756439958892
12592029 89 18190735530355707664
13024252 1 16520770585278457970
14617773 55 16955939717099622574
14817 1 14161041602145890286
15852999 172 17622747709156223708
15906896 17 16961271167014014715
16945 1 18341888636294234957
17980427 23 17702374062209325297
19765921 60 17841155768222899817
20600515 1 18057039112685771859
20645476 183 17546728613188181132
20671657 53 18334574590826630379
21524375 3 17910681195614322029
22112679 90 17838091154295676806
23419403 2 17751611361005060468
23526113 38 17167872953953561963
23557571 272 17835229057447896262
305870 269 18194398020583400373
394222 165 18057901314369218587
430814 3 17908695473261224853
5845 1 15177043668377652040
7364860 26 18340491165747606613
81228 2 17614855015143479242
90316 7 17907866097970383778

>  <PUBCHEM_SHAPE_MULTIPOLES>  (1) 
334.17
4.13
3.79
1.74
2.88
2.72
0.14
-5.36
-0.28
-1.79
-0.57
-0.09
0.07
0.48

>  <PUBCHEM_SHAPE_SELFOVERLAP>  (1) 
653.018

>  <PUBCHEM_SHAPE_VOLUME>  (1) 
205.6

>  <PUBCHEM_COORDINATE_TYPE>  (1) 
2
5
10

$$$$
