29212
     RDKit          3D

 23 25  0  0  1  0  0  0  0  0999 V2000
    5.1076    0.9215   -0.7756 O   0  0  0  0  0  0  0  0  0  0  0  0
   -0.9356    2.8227    0.5414 O   0  0  0  0  0  0  0  0  0  0  0  0
    3.1522    1.6647   -1.6432 O   0  0  0  0  0  0  0  0  0  0  0  0
    0.7261   -1.0537    0.4154 C   0  0  0  0  0  0  0  0  0  0  0  0
    1.5461    0.2356    0.0873 C   0  0  0  0  0  0  0  0  0  0  0  0
    3.1025    0.0815    0.2233 C   0  0  0  0  0  0  0  0  0  0  0  0
    1.2191   -2.2039   -0.5220 C   0  0  0  0  0  0  0  0  0  0  0  0
    3.5690   -1.3665   -0.0459 C   0  0  0  0  0  0  0  0  0  0  0  0
    2.6567   -2.0774   -1.0305 C   0  0  0  0  0  0  0  0  0  0  0  0
    0.9964    1.4565    0.8332 C   0  0  0  0  0  0  0  0  0  0  0  0
   -0.7770   -0.7843    0.1982 C   0  0  0  0  0  0  0  0  0  0  0  0
    0.8639   -1.4951    1.8930 C   0  0  0  0  0  0  0  0  0  0  0  0
    3.6885    0.5578    1.5631 C   0  0  0  0  0  0  0  0  0  0  0  0
   -1.3136    0.5157    0.2300 C   0  0  0  0  0  0  0  0  0  0  0  0
   -0.4567    1.6921    0.5133 C   0  0  0  0  0  0  0  0  0  0  0  0
    3.7472    0.9678   -0.8248 C   0  0  0  0  0  0  0  0  0  0  0  0
   -1.6741   -1.8549    0.0035 C   0  0  0  0  0  0  0  0  0  0  0  0
   -2.6853    0.7324    0.0252 C   0  0  0  0  0  0  0  0  0  0  0  0
   -3.5424   -0.3431   -0.1928 C   0  0  0  0  0  0  0  0  0  0  0  0
   -3.0385   -1.6375   -0.1963 C   0  0  0  0  0  0  0  0  0  0  0  0
   -4.9984   -0.1072   -0.4129 C   0  0  0  0  0  0  0  0  0  0  0  0
   -5.2755    0.7192   -1.6831 C   0  0  0  0  0  0  0  0  0  0  0  0
   -5.6781    0.5560    0.8001 C   0  0  0  0  0  0  0  0  0  0  0  0
  1 16  1  0
  2 15  2  0
  3 16  2  0
  4  5  1  0
  4  7  1  0
  4 11  1  0
  4 12  1  0
  5  6  1  0
  5 10  1  0
  6  8  1  0
  6 13  1  0
  6 16  1  0
  7  9  1  0
  8  9  1  0
 10 15  1  0
 11 14  2  0
 11 17  1  0
 14 15  1  0
 14 18  1  0
 17 20  2  0
 18 19  2  0
 19 20  1  0
 19 21  1  0
 21 22  1  0
 21 23  1  0
M  END
>  <PUBCHEM_COMPOUND_CID>  (1) 
29212

>  <PUBCHEM_CONFORMER_RMSD>  (1) 
0.6

>  <PUBCHEM_CONFORMER_DIVERSEORDER>  (1) 
1
3
2

>  <PUBCHEM_MMFF94_PARTIAL_CHARGES>  (1) 
19
1 -0.65
10 0.06
11 -0.14
14 0.09
15 0.42
16 0.66
17 -0.15
18 -0.15
19 -0.14
2 -0.57
20 -0.15
21 0.14
3 -0.57
39 0.15
4 0.14
40 0.15
41 0.15
42 0.5
6 0.06

>  <PUBCHEM_EFFECTIVE_ROTOR_COUNT>  (1) 
3

>  <PUBCHEM_PHARMACOPHORE_FEATURES>  (1) 
8
1 1 acceptor
1 2 acceptor
1 3 acceptor
3 1 3 16 anion
3 21 22 23 hydrophobe
6 11 14 17 18 19 20 rings
6 4 5 10 11 14 15 rings
6 4 5 6 7 8 9 rings

>  <PUBCHEM_HEAVY_ATOM_COUNT>  (1) 
23

>  <PUBCHEM_ATOM_DEF_STEREO_COUNT>  (1) 
3

>  <PUBCHEM_ATOM_UDEF_STEREO_COUNT>  (1) 
0

>  <PUBCHEM_BOND_DEF_STEREO_COUNT>  (1) 
0

>  <PUBCHEM_BOND_UDEF_STEREO_COUNT>  (1) 
0

>  <PUBCHEM_ISOTOPIC_ATOM_COUNT>  (1) 
0

>  <PUBCHEM_COMPONENT_COUNT>  (1) 
1

>  <PUBCHEM_CACTVS_TAUTO_COUNT>  (1) 
2

>  <PUBCHEM_CONFORMER_ID>  (1) 
0000721C00000001

>  <PUBCHEM_MMFF94_ENERGY>  (1) 
80.3046

>  <PUBCHEM_FEATURE_SELFOVERLAP>  (1) 
40.693

>  <PUBCHEM_SHAPE_FINGERPRINT>  (1) 
10498660 4 18339931518856248548
10906281 52 18339091478887506280
10967382 1 18342174474894577290
116883 192 18199473172988700998
12236239 1 17967808392815478944
12403814 3 17675918807559330725
12553582 1 18342458157801164713
12788726 201 18270115713042510649
13140716 1 18196644309964432481
13224815 77 18260837002776216331
13583140 156 12391513040659031649
14787075 74 18042696176838311595
14790565 3 18269283365914043945
15081414 286 18341900679720435401
15196674 1 18412825798198581155
15475509 8 17630352799415824321
15664445 248 17987813998077371980
1601671 61 18413670227375928417
16752209 62 18269828740560265321
16945 1 18343026618207825560
17959699 21 18113616768352160813
17980427 23 18046045306784649684
18186145 218 17748823038077137422
19784866 9 17894621552653419691
19862831 5 18409164403008330503
200 152 17418089923557451715
20645477 70 18342740676386557959
20691752 17 17751095617211366272
20715895 44 18042391448945700797
21267235 1 18341340989272820691
21285901 2 18337950091550010789
21421861 104 18189331260501803939
21637258 2 14907907042039893012
23227448 37 18040999591741856719
23402539 116 18338510941296052838
23557571 272 17917149390818731896
23558518 356 18051137990660838449
23559900 14 18412548708626053574
23566358 2 18268430139872846373
25147074 1 18127139584520962104
2748010 2 17981599682499133961
2838139 119 17241895483172445460
2871803 45 18343022164310882718
296302 2 17821728359837884351
3004659 81 18335419037104809902
3060560 45 17775279491254492734
3286 77 16271348717881125163
34797466 226 15984818289890223585
34934 24 18342449374371335683
350125 39 18269278958949926746
4072396 5 18338778062249460962
4280585 95 17264425240993649046
4340502 62 16732988600767322739
474 4 17967538999233566798
5104073 3 18412823599212483667
537710 114 18411983567727549745
59755656 215 18412826850834743238
59755656 520 17095524028237451602
633830 44 17894627088813970958
70251023 43 18054238630631704883
7164475 11 18269559329956895316
9709674 26 18200318701709922246

>  <PUBCHEM_SHAPE_MULTIPOLES>  (1) 
455.72
10.04
2.29
1.31
8.13
0.05
0.03
-1.97
-2.59
-0.85
-0.08
-0.43
-0.11
-0.14

>  <PUBCHEM_SHAPE_SELFOVERLAP>  (1) 
977.809

>  <PUBCHEM_SHAPE_VOLUME>  (1) 
250.1

>  <PUBCHEM_COORDINATE_TYPE>  (1) 
2
5
10

$$$$
