29226
     RDKit          3D

 19 21  0  0  1  0  0  0  0  0999 V2000
   -0.0464   -0.6074    0.5221 N   0  0  0  0  0  0  0  0  0  0  0  0
    3.1801   -2.0329   -0.1357 N   0  0  0  0  0  0  0  0  0  0  0  0
    0.4384    1.3651   -0.9082 C   0  0  0  0  0  0  0  0  0  0  0  0
    0.8677    0.5211    0.3017 C   0  0  0  0  0  0  0  0  0  0  0  0
    1.3780    2.5662   -1.0953 C   0  0  0  0  0  0  0  0  0  0  0  0
    1.0087    1.3602    1.5810 C   0  0  0  0  0  0  0  0  0  0  0  0
   -1.0236    1.8065   -0.7776 C   0  0  0  0  0  0  0  0  0  0  0  0
    1.5570    3.3960    0.1761 C   0  0  0  0  0  0  0  0  0  0  0  0
    1.9609    2.5351    1.3692 C   0  0  0  0  0  0  0  0  0  0  0  0
   -1.9196    0.6483   -0.4179 C   0  0  0  0  0  0  0  0  0  0  0  0
   -1.4036   -0.4986    0.2269 C   0  0  0  0  0  0  0  0  0  0  0  0
    0.4834   -1.7894    1.1923 C   0  0  0  0  0  0  0  0  0  0  0  0
    0.8624   -2.8550    0.1622 C   0  0  0  0  0  0  0  0  0  0  0  0
   -3.2932    0.7628   -0.6997 C   0  0  0  0  0  0  0  0  0  0  0  0
   -2.3244   -1.5199    0.5384 C   0  0  0  0  0  0  0  0  0  0  0  0
   -4.1725   -0.2626   -0.3728 C   0  0  0  0  0  0  0  0  0  0  0  0
   -3.6870   -1.4062    0.2442 C   0  0  0  0  0  0  0  0  0  0  0  0
    1.9395   -2.3827   -0.8167 C   0  0  0  0  0  0  0  0  0  0  0  0
    4.1942   -1.6068   -1.0901 C   0  0  0  0  0  0  0  0  0  0  0  0
  1  4  1  0
  1 11  1  0
  1 12  1  0
  2 18  1  0
  2 19  1  0
  3  4  1  0
  3  5  1  0
  3  7  1  0
  4  6  1  0
  5  8  1  0
  6  9  1  0
  7 10  1  0
  8  9  1  0
 10 11  2  0
 10 14  1  0
 11 15  1  0
 12 13  1  0
 13 18  1  0
 14 16  2  0
 15 17  2  0
 16 17  1  0
M  END
>  <PUBCHEM_COMPOUND_CID>  (1) 
29226

>  <PUBCHEM_CONFORMER_RMSD>  (1) 
0.8

>  <PUBCHEM_CONFORMER_DIVERSEORDER>  (1) 
1
21
12
14
23
9
24
15
26
3
19
18
25
11
7
22
4
8
16
2
13
6
10
17
5
20

>  <PUBCHEM_MMFF94_PARTIAL_CHARGES>  (1) 
18
1 -0.84
10 -0.14
11 0.1
12 0.37
14 -0.15
15 -0.15
16 -0.15
17 -0.15
18 0.27
19 0.27
2 -0.9
36 0.15
37 0.15
4 0.37
40 0.15
41 0.15
42 0.36
7 0.14

>  <PUBCHEM_EFFECTIVE_ROTOR_COUNT>  (1) 
5.2

>  <PUBCHEM_PHARMACOPHORE_FEATURES>  (1) 
6
1 1 cation
1 2 cation
1 2 donor
6 1 3 4 7 10 11 rings
6 10 11 14 15 16 17 rings
6 3 4 5 6 8 9 rings

>  <PUBCHEM_HEAVY_ATOM_COUNT>  (1) 
19

>  <PUBCHEM_ATOM_DEF_STEREO_COUNT>  (1) 
0

>  <PUBCHEM_ATOM_UDEF_STEREO_COUNT>  (1) 
2

>  <PUBCHEM_BOND_DEF_STEREO_COUNT>  (1) 
0

>  <PUBCHEM_BOND_UDEF_STEREO_COUNT>  (1) 
0

>  <PUBCHEM_ISOTOPIC_ATOM_COUNT>  (1) 
0

>  <PUBCHEM_COMPONENT_COUNT>  (1) 
1

>  <PUBCHEM_CACTVS_TAUTO_COUNT>  (1) 
1

>  <PUBCHEM_CONFORMER_ID>  (1) 
0000722A00000001

>  <PUBCHEM_MMFF94_ENERGY>  (1) 
45.039

>  <PUBCHEM_FEATURE_SELFOVERLAP>  (1) 
30.529

>  <PUBCHEM_SHAPE_FINGERPRINT>  (1) 
11112241 14 16700041902656339664
11524674 6 17629191896095316096
11578080 2 16300602302605799982
11680986 33 18335982056051884627
12035758 1 18337667615925002562
12054548 360 18265890259501974094
12173636 292 16753806465933040412
12553582 1 18192706744361844379
12788726 201 17547848555927385276
13027679 85 18267869371778680701
13132413 78 18053958255113497689
13140716 1 18261667186011338001
14251745 187 18333452049335884094
14790565 3 17329995690045944660
14955137 171 17910989892336328755
15309172 13 17976259363672168585
15475509 8 17698174945903932037
16945 1 18262222331951309185
17492 54 18115326543572789326
20028762 73 16757207869494464871
20510252 161 17474383574062953865
20645477 70 18263912384782250487
20871998 184 17326617397692867107
21524375 3 17902500820545064441
22182313 1 18187352269090387719
2334 1 18044934821135312361
23352939 185 18270126712073557419
23419403 2 18200293447660820260
23557571 272 17909542862062188926
23559900 14 18409724088818411485
2748010 2 18187641478976001231
3323516 105 18408891753941454534
350125 39 18264777563142432625
352729 6 17396704658562199095
458136 41 18051148165554426673
4663303 62 18342170098470413835
532947 4 18341331197348402308
6443956 14 18412826863171025080
7364860 26 18412541041787390817
81228 2 17691695488973115962
84936 31 17917417757254724054
90525 40 17396699156244908331

>  <PUBCHEM_SHAPE_MULTIPOLES>  (1) 
381.05
5.69
3.87
1.25
3.04
0.5
-0.2
-2.42
1.33
-3.83
0.06
-0.64
0.35
1.29

>  <PUBCHEM_SHAPE_SELFOVERLAP>  (1) 
793.736

>  <PUBCHEM_SHAPE_VOLUME>  (1) 
212.3

>  <PUBCHEM_COORDINATE_TYPE>  (1) 
2
5
10

$$$$
