29227
     RDKit          3D

 10  9  0  0  0  0  0  0  0  0999 V2000
    0.0042    0.9422   -1.8567 O   0  0  0  0  0  0  0  0  0  0  0  0
    0.0106    2.3298   -0.0413 N   0  0  0  0  0  0  0  0  0  0  0  0
   -0.0098   -2.3859   -0.9849 N   0  0  0  0  0  0  0  0  0  0  0  0
   -0.0006   -0.1012    0.3508 C   0  0  0  0  0  0  0  0  0  0  0  0
    1.2602   -0.0588    1.2608 C   0  0  0  0  0  0  0  0  0  0  0  0
   -1.2613   -0.0488    1.2605 C   0  0  0  0  0  0  0  0  0  0  0  0
    0.0045    1.0856   -0.6340 C   0  0  0  0  0  0  0  0  0  0  0  0
    2.5902   -0.2001    0.5227 C   0  0  0  0  0  0  0  0  0  0  0  0
   -2.5922   -0.1797    0.5222 C   0  0  0  0  0  0  0  0  0  0  0  0
   -0.0057   -1.3832   -0.4002 C   0  0  0  0  0  0  0  0  0  0  0  0
  1  7  2  0
  2  7  1  0
  3 10  3  0
  4  5  1  0
  4  6  1  0
  4  7  1  0
  4 10  1  0
  5  8  1  0
  6  9  1  0
M  END
>  <PUBCHEM_COMPOUND_CID>  (1) 
29227

>  <PUBCHEM_CONFORMER_RMSD>  (1) 
0.6

>  <PUBCHEM_CONFORMER_DIVERSEORDER>  (1) 
1
5
17
8
16
4
6
20
9
15
7
12
19
18
3
2
13
14
10
11

>  <PUBCHEM_MMFF94_PARTIAL_CHARGES>  (1) 
8
1 -0.57
10 0.36
2 -0.8
21 0.37
22 0.37
3 -0.56
4 0.26
7 0.57

>  <PUBCHEM_EFFECTIVE_ROTOR_COUNT>  (1) 
3

>  <PUBCHEM_PHARMACOPHORE_FEATURES>  (1) 
5
1 1 acceptor
1 2 donor
1 3 acceptor
1 8 hydrophobe
1 9 hydrophobe

>  <PUBCHEM_HEAVY_ATOM_COUNT>  (1) 
10

>  <PUBCHEM_ATOM_DEF_STEREO_COUNT>  (1) 
0

>  <PUBCHEM_ATOM_UDEF_STEREO_COUNT>  (1) 
0

>  <PUBCHEM_BOND_DEF_STEREO_COUNT>  (1) 
0

>  <PUBCHEM_BOND_UDEF_STEREO_COUNT>  (1) 
0

>  <PUBCHEM_ISOTOPIC_ATOM_COUNT>  (1) 
0

>  <PUBCHEM_COMPONENT_COUNT>  (1) 
1

>  <PUBCHEM_CACTVS_TAUTO_COUNT>  (1) 
2

>  <PUBCHEM_CONFORMER_ID>  (1) 
0000722B00000001

>  <PUBCHEM_MMFF94_ENERGY>  (1) 
16.0061

>  <PUBCHEM_FEATURE_SELFOVERLAP>  (1) 
25.371

>  <PUBCHEM_SHAPE_FINGERPRINT>  (1) 
10219947 1 18410578383504028155
12423570 1 12264592449004441954
13024252 1 16444168851654073658
137420 1 10035380929117149881
14993402 34 18339361975684942142
16945 1 18113338604473501385
20653091 64 17315099824561143257
23211744 25 16461356146583353253
3250762 1 17690280404512340435
5084963 1 16988843882080902088
5943 1 11558252959179641939
68250623 7 17392229568484985410

>  <PUBCHEM_SHAPE_MULTIPOLES>  (1) 
189.96
2.39
1.92
1.41
0
0.07
-0.26
0.26
1.07
0
-0.85
0
-0.06
0

>  <PUBCHEM_SHAPE_SELFOVERLAP>  (1) 
361.589

>  <PUBCHEM_SHAPE_VOLUME>  (1) 
115.4

>  <PUBCHEM_COORDINATE_TYPE>  (1) 
2
5
10

$$$$
