29229
     RDKit          3D

 20 19  0  0  0  0  0  0  0  0999 V2000
   -1.8860   -3.1574   -2.4580 Br  0  0  0  0  0  0  0  0  0  0  0  0
   -2.9422   -1.5358    2.1040 Br  0  0  0  0  0  0  0  0  0  0  0  0
    4.4796    1.2219    1.9451 Br  0  0  0  0  0  0  0  0  0  0  0  0
    3.5988   -0.9341   -2.4346 Br  0  0  0  0  0  0  0  0  0  0  0  0
   -3.1537    3.4735    1.1892 Br  0  0  0  0  0  0  0  0  0  0  0  0
   -1.0127    2.5830   -3.1957 Br  0  0  0  0  0  0  0  0  0  0  0  0
    0.0597   -0.1115    0.3323 P   0  0  0  0  0  0  0  0  0  0  0  0
   -1.0269   -1.1581   -0.2597 O   0  0  0  0  0  0  0  0  0  0  0  0
    1.4874   -0.6727   -0.1893 O   0  0  0  0  0  0  0  0  0  0  0  0
   -0.1480    1.2303   -0.5518 O   0  0  0  0  0  0  0  0  0  0  0  0
   -0.0255    0.0983    1.8176 O   0  0  0  0  0  0  0  0  0  0  0  0
   -1.0441   -2.5002    0.1959 C   0  0  0  0  0  0  0  0  0  0  0  0
    2.6481    0.1028    0.0565 C   0  0  0  0  0  0  0  0  0  0  0  0
   -1.3724    1.9342   -0.4328 C   0  0  0  0  0  0  0  0  0  0  0  0
   -2.1699   -3.2283   -0.5260 C   0  0  0  0  0  0  0  0  0  0  0  0
   -1.2952   -2.5058    1.6986 C   0  0  0  0  0  0  0  0  0  0  0  0
    2.8125    0.2779    1.5609 C   0  0  0  0  0  0  0  0  0  0  0  0
    3.8441   -0.6445   -0.5178 C   0  0  0  0  0  0  0  0  0  0  0  0
   -1.5455    2.3778    1.0144 C   0  0  0  0  0  0  0  0  0  0  0  0
   -1.3084    3.1489   -1.3490 C   0  0  0  0  0  0  0  0  0  0  0  0
  1 15  1  0
  2 16  1  0
  3 17  1  0
  4 18  1  0
  5 19  1  0
  6 20  1  0
  7  8  1  0
  7  9  1  0
  7 10  1  0
  7 11  2  0
  8 12  1  0
  9 13  1  0
 10 14  1  0
 12 15  1  0
 12 16  1  0
 13 17  1  0
 13 18  1  0
 14 19  1  0
 14 20  1  0
M  END
>  <PUBCHEM_COMPOUND_CID>  (1) 
29229

>  <PUBCHEM_CONFORMER_RMSD>  (1) 
1

>  <PUBCHEM_CONFORMER_DIVERSEORDER>  (1) 
1
28
42
65
47
64
66
32
21
45
20
58
6
69
61
67
17
62
35
59
71
25
14
51
54
39
5
19
40
34
55
52
70
38
60
33
29
15
49
68
9
63
41
48
37
56
3
57
18
4
22
24
27
50
53
44
30
23
16
10
36
31
11
2
43
13
12
26
7
46
8

>  <PUBCHEM_MMFF94_PARTIAL_CHARGES>  (1) 
20
1 -0.23
10 -0.55
11 -0.7
12 0.28
13 0.28
14 0.28
15 0.23
16 0.23
17 0.23
18 0.23
19 0.23
2 -0.23
20 0.23
3 -0.23
4 -0.23
5 -0.23
6 -0.23
7 1.51
8 -0.55
9 -0.55

>  <PUBCHEM_EFFECTIVE_ROTOR_COUNT>  (1) 
12

>  <PUBCHEM_PHARMACOPHORE_FEATURES>  (1) 
7
1 1 hydrophobe
1 11 acceptor
1 2 hydrophobe
1 3 hydrophobe
1 4 hydrophobe
1 5 hydrophobe
1 6 hydrophobe

>  <PUBCHEM_HEAVY_ATOM_COUNT>  (1) 
20

>  <PUBCHEM_ATOM_DEF_STEREO_COUNT>  (1) 
0

>  <PUBCHEM_ATOM_UDEF_STEREO_COUNT>  (1) 
0

>  <PUBCHEM_BOND_DEF_STEREO_COUNT>  (1) 
0

>  <PUBCHEM_BOND_UDEF_STEREO_COUNT>  (1) 
0

>  <PUBCHEM_ISOTOPIC_ATOM_COUNT>  (1) 
0

>  <PUBCHEM_COMPONENT_COUNT>  (1) 
1

>  <PUBCHEM_CACTVS_TAUTO_COUNT>  (1) 
1

>  <PUBCHEM_CONFORMER_ID>  (1) 
0000722D00000001

>  <PUBCHEM_MMFF94_ENERGY>  (1) 
41.5846

>  <PUBCHEM_FEATURE_SELFOVERLAP>  (1) 
35.527

>  <PUBCHEM_SHAPE_FINGERPRINT>  (1) 
10165383 225 17832453919858166772
11578080 2 18199769011080114304
12160290 23 18334853896406577868
12553582 1 18117287067094265322
13134695 92 17475213074187480043
13681431 1 17758959615956171170
14181834 199 17188956355593557830
1813 80 18120664783715015978
20600515 1 17901935663010276810
21304303 282 17246062498580368628
21524375 3 18047749299939671315
23419403 2 17404256031049144205
23557571 272 18268136729619583728
23598288 3 16878231840186140692
458136 41 17690016543481529273
59755656 520 18127397969743290368
633830 44 17700400395587367184
81228 2 18334853943725058250
9981440 41 16985141831474364144

>  <PUBCHEM_SHAPE_MULTIPOLES>  (1) 
427.62
6.32
4.89
3.18
8.34
0.18
-1.91
0.92
2.08
-6.61
-1.63
-0.1
0.36
1.26

>  <PUBCHEM_SHAPE_SELFOVERLAP>  (1) 
721.559

>  <PUBCHEM_SHAPE_VOLUME>  (1) 
298.3

>  <PUBCHEM_COORDINATE_TYPE>  (1) 
2
5
10

$$$$
