29238
     RDKit          3D

 18 18  0  0  0  0  0  0  0  0999 V2000
   -4.7019   -2.3240   -0.0059 Cl  0  0  0  0  0  0  0  0  0  0  0  0
    1.7328    3.2317   -0.0042 O   0  0  0  0  0  0  0  0  0  0  0  0
   -0.4313    2.8386    0.0000 O   0  0  0  0  0  0  0  0  0  0  0  0
    4.1769   -2.4546   -0.0014 O   0  0  0  0  0  0  0  0  0  0  0  0
    4.8787   -0.3700   -0.0040 O   0  0  0  0  0  0  0  0  0  0  0  0
   -1.3817    0.5464    0.0038 N   0  0  0  0  0  0  0  0  0  0  0  0
    0.7580    2.4450   -0.0007 N   0  0  0  0  0  0  0  0  0  0  0  0
    3.9565   -1.2200   -0.0014 N   0  0  0  0  0  0  0  0  0  0  0  0
   -2.3763   -0.3551    0.0011 N   0  0  0  0  0  0  0  0  0  0  0  0
   -0.0337    0.1220    0.0039 C   0  0  0  0  0  0  0  0  0  0  0  0
    1.0123    1.0449    0.0018 C   0  0  0  0  0  0  0  0  0  0  0  0
    2.6107   -0.7667    0.0007 C   0  0  0  0  0  0  0  0  0  0  0  0
    2.3344    0.6005    0.0002 C   0  0  0  0  0  0  0  0  0  0  0  0
    0.2426   -1.2452    0.0044 C   0  0  0  0  0  0  0  0  0  0  0  0
    1.5648   -1.6897    0.0027 C   0  0  0  0  0  0  0  0  0  0  0  0
   -3.5544    0.1784    0.0014 C   0  0  0  0  0  0  0  0  0  0  0  0
   -4.8074   -0.6099   -0.0014 C   0  0  0  0  0  0  0  0  0  0  0  0
   -5.9810    0.0278   -0.0013 C   0  0  0  0  0  0  0  0  0  0  0  0
  1 17  1  0
  2  7  1  0
  3  7  2  0
  4  8  1  0
  5  8  2  0
  6  9  1  0
  6 10  1  0
  7 11  1  0
  8 12  1  0
  9 16  2  0
 10 11  2  0
 10 14  1  0
 11 13  1  0
 12 13  2  0
 12 15  1  0
 14 15  2  0
 16 17  1  0
 17 18  2  0
M  CHG  4   2  -1   4  -1   7   1   8   1
M  END
>  <PUBCHEM_COMPOUND_CID>  (1) 
29238

>  <PUBCHEM_CONFORMER_RMSD>  (1) 
0.6

>  <PUBCHEM_CONFORMER_DIVERSEORDER>  (1) 
1
14
13
11
9
12
10
5
6
2
7
8
4
3

>  <PUBCHEM_MMFF94_PARTIAL_CHARGES>  (1) 
25
1 -0.14
10 0.1
11 0.13
12 0.13
13 -0.15
14 -0.15
15 -0.15
16 0.38
17 0.15
18 -0.3
19 0.15
2 -0.52
20 0.15
21 0.15
22 0.4
23 0.06
24 0.15
25 0.15
3 -0.52
4 -0.52
5 -0.52
6 -0.46
7 0.91
8 0.91
9 -0.49

>  <PUBCHEM_EFFECTIVE_ROTOR_COUNT>  (1) 
5

>  <PUBCHEM_PHARMACOPHORE_FEATURES>  (1) 
9
1 2 acceptor
1 2 anion
1 3 acceptor
1 4 acceptor
1 4 anion
1 5 acceptor
1 6 donor
1 9 acceptor
6 10 11 12 13 14 15 rings

>  <PUBCHEM_HEAVY_ATOM_COUNT>  (1) 
18

>  <PUBCHEM_ATOM_DEF_STEREO_COUNT>  (1) 
0

>  <PUBCHEM_ATOM_UDEF_STEREO_COUNT>  (1) 
0

>  <PUBCHEM_BOND_DEF_STEREO_COUNT>  (1) 
0

>  <PUBCHEM_BOND_UDEF_STEREO_COUNT>  (1) 
1

>  <PUBCHEM_ISOTOPIC_ATOM_COUNT>  (1) 
0

>  <PUBCHEM_COMPONENT_COUNT>  (1) 
1

>  <PUBCHEM_CACTVS_TAUTO_COUNT>  (1) 
1

>  <PUBCHEM_CONFORMER_ID>  (1) 
0000723600000001

>  <PUBCHEM_MMFF94_ENERGY>  (1) 
61.7472

>  <PUBCHEM_FEATURE_SELFOVERLAP>  (1) 
45.833

>  <PUBCHEM_SHAPE_FINGERPRINT>  (1) 
11405975 8 18340210782399607627
11471102 20 18409729590607954109
11680986 33 18191592066829766242
11806522 49 18409449184809152710
12032990 46 18410856516932995606
12841375 25 18410009914422763581
13740256 8 18409168826650727967
13862211 1 18410007711089119242
14252887 29 18060425677055424414
14787075 74 18187368748621562770
15042514 8 18051128090935411042
15352361 1 18410856542840027339
167882 2 18118128193457956332
17492 89 18266458905226043243
18186145 218 17676758873340399435
18222031 100 18341889675623819931
18785283 64 18117273877181127428
200 152 18273494568409719603
20645477 70 18335697308357482675
21029758 11 18409449171945233081
21065198 57 18337391647386579915
21267235 1 18411708655445192535
21296965 67 18411417267921170608
21478907 32 18121780521766172426
21709351 56 18412255160675505367
221490 88 18263649639825867963
22182313 1 18264744645822252660
23402539 116 18341608183578100871
23557571 272 18129104411641535628
23559900 14 18411410748614262363
23622692 118 17986660671015604287
335352 9 18410856543288160831
3421961 26 18411980290635893505
4214541 1 18410855461162078151
465052 167 18342181063511923399
7364860 26 18340486793286646721
7471813 234 17917421043390385649
8863177 126 17896899831684809915
9709674 26 18118405275120804275
9971528 1 18341324561254729945

>  <PUBCHEM_SHAPE_MULTIPOLES>  (1) 
328.9
10.62
2.84
0.58
11.1
1.63
0
-5.84
0.02
-1.8
0
0.08
-0.03
0

>  <PUBCHEM_SHAPE_SELFOVERLAP>  (1) 
678.239

>  <PUBCHEM_SHAPE_VOLUME>  (1) 
189.2

>  <PUBCHEM_COORDINATE_TYPE>  (1) 
2
5
10

$$$$
