29234
     RDKit          3D

 22 23  0  0  1  0  0  0  0  0999 V2000
   -2.7347    3.0078    0.0045 Cl  0  0  0  0  0  0  0  0  0  0  0  0
   -4.6725    0.4204   -0.0979 S   0  0  0  0  0  0  0  0  0  0  0  0
    3.8958   -0.3107   -0.7353 O   0  0  0  0  0  0  0  0  0  0  0  0
   -1.2934   -3.3937    0.7463 O   0  0  0  0  0  0  0  0  0  0  0  0
   -5.2561   -0.7974    0.4420 O   0  0  0  0  0  0  0  0  0  0  0  0
   -5.0599    1.7145    0.4407 O   0  0  0  0  0  0  0  0  0  0  0  0
    0.6593   -2.8414   -0.2775 O   0  0  0  0  0  0  0  0  0  0  0  0
    1.2413   -0.1763    0.2495 N   0  0  0  0  0  0  0  0  0  0  0  0
   -4.8925    0.4384   -1.7911 N   0  0  0  0  0  0  0  0  0  0  0  0
    3.5999    0.4889    0.4149 C   0  0  0  0  0  0  0  0  0  0  0  0
    4.5593    1.6790    0.4912 C   0  0  0  0  0  0  0  0  0  0  0  0
    6.0086    1.2024    0.4933 C   0  0  0  0  0  0  0  0  0  0  0  0
    6.2593    0.2457   -0.6670 C   0  0  0  0  0  0  0  0  0  0  0  0
    2.1557    0.9563    0.2980 C   0  0  0  0  0  0  0  0  0  0  0  0
    5.2126   -0.8601   -0.6895 C   0  0  0  0  0  0  0  0  0  0  0  0
   -0.1283   -0.0398    0.1691 C   0  0  0  0  0  0  0  0  0  0  0  0
   -0.9917   -1.1569    0.1235 C   0  0  0  0  0  0  0  0  0  0  0  0
   -0.7157    1.2433    0.1295 C   0  0  0  0  0  0  0  0  0  0  0  0
   -2.9287    0.2819    0.0045 C   0  0  0  0  0  0  0  0  0  0  0  0
   -2.3749   -0.9977    0.0422 C   0  0  0  0  0  0  0  0  0  0  0  0
   -2.0991    1.4025    0.0482 C   0  0  0  0  0  0  0  0  0  0  0  0
   -0.4441   -2.5072    0.1610 C   0  0  0  0  0  0  0  0  0  0  0  0
  1 21  1  0
  2  5  2  0
  2  6  2  0
  2  9  1  0
  2 19  1  0
  3 10  1  0
  3 15  1  0
  4 22  1  0
  7 22  2  0
  8 14  1  0
  8 16  1  0
 10 11  1  0
 10 14  1  0
 11 12  1  0
 12 13  1  0
 13 15  1  0
 16 17  2  0
 16 18  1  0
 17 20  1  0
 17 22  1  0
 18 21  2  0
 19 20  2  0
 19 21  1  0
M  END
>  <PUBCHEM_COMPOUND_CID>  (1) 
29234

>  <PUBCHEM_CONFORMER_RMSD>  (1) 
0.8

>  <PUBCHEM_CONFORMER_DIVERSEORDER>  (1) 
1
15
27
39
43
42
6
34
46
44
45
35
31
40
17
32
38
30
37
29
14
13
12
26
22
41
28
18
23
36
2
8
7
24
9
21
25
19
3
10
4
16
11
5
20
33

>  <PUBCHEM_MMFF94_PARTIAL_CHARGES>  (1) 
25
1 -0.18
10 0.28
14 0.37
15 0.28
16 0.1
17 0.09
18 -0.15
19 -0.01
2 1.45
20 -0.15
21 0.18
22 0.63
3 -0.56
34 0.4
35 0.15
36 0.15
37 0.42
38 0.42
39 0.5
4 -0.65
5 -0.65
6 -0.65
7 -0.57
8 -0.87
9 -0.98

>  <PUBCHEM_EFFECTIVE_ROTOR_COUNT>  (1) 
6.2

>  <PUBCHEM_PHARMACOPHORE_FEATURES>  (1) 
11
1 3 acceptor
1 4 acceptor
1 5 acceptor
1 6 acceptor
1 7 acceptor
1 8 cation
1 8 donor
1 9 donor
3 4 7 22 anion
6 16 17 18 19 20 21 rings
6 3 10 11 12 13 15 rings

>  <PUBCHEM_HEAVY_ATOM_COUNT>  (1) 
22

>  <PUBCHEM_ATOM_DEF_STEREO_COUNT>  (1) 
0

>  <PUBCHEM_ATOM_UDEF_STEREO_COUNT>  (1) 
1

>  <PUBCHEM_BOND_DEF_STEREO_COUNT>  (1) 
0

>  <PUBCHEM_BOND_UDEF_STEREO_COUNT>  (1) 
0

>  <PUBCHEM_ISOTOPIC_ATOM_COUNT>  (1) 
0

>  <PUBCHEM_COMPONENT_COUNT>  (1) 
1

>  <PUBCHEM_CACTVS_TAUTO_COUNT>  (1) 
2

>  <PUBCHEM_CONFORMER_ID>  (1) 
0000723200000001

>  <PUBCHEM_MMFF94_ENERGY>  (1) 
48.7632

>  <PUBCHEM_FEATURE_SELFOVERLAP>  (1) 
55.897

>  <PUBCHEM_SHAPE_FINGERPRINT>  (1) 
10411042 1 17761493994870712803
105312 117 17895460471525292127
11578080 2 17170666680409565357
12236239 1 17530682117549393944
12390115 104 18271255906379201841
12788726 201 17988646246917184072
12916748 109 18410013234590817016
12969540 114 18262500559732128589
13140716 1 18193563500317033361
13257819 101 17023724733764437279
13402501 40 18343867731865981984
13533116 47 17846781772386885302
13544592 145 18342184345525807286
14790565 3 18268151950704340017
15042514 8 18191874624513262539
15099037 51 18410576205929176516
15183329 4 18412544280546081928
19784866 170 18335705997203111649
200 152 16845574218679030880
20645477 56 18410009970500107032
20645477 70 17131561557488761676
21033648 29 18338783568324395840
21236236 1 18341331214396824851
21279426 13 18269278971629198022
21521239 73 17917981780902692247
21859007 373 17896294979635050076
221357 26 18131066026517598520
2215653 11 18131075926917706854
22182313 1 18267328523875196799
22224240 67 18410300216295538499
23366157 5 17754178583101464835
23402539 116 18343015614385757061
23559900 14 18271524308076499272
266924 87 18266170626672632053
283562 15 18412261706137404305
3004659 81 18336832992738168742
350125 39 18338801108827680176
3545911 37 18341614837231418120
3759504 43 17894912961789603387
4015057 19 17916011541902000041
4073 2 18262521515848262970
4214541 1 18411983585561527216
474229 33 18410292527739725107
495365 180 17274811481458452882
5104073 3 18263929843048745289
57003041 33 18335693932471217677
59755656 215 18340489971556989430
59755656 520 18334853922324510110
6138700 20 18268997475668670470
9709674 26 18271813458175514190
9981440 41 18260553286211783971

>  <PUBCHEM_SHAPE_MULTIPOLES>  (1) 
419.16
13.59
2.81
0.86
12.38
1.38
0.22
-5.06
1.88
-1.72
-0.43
-0.2
0
0.79

>  <PUBCHEM_SHAPE_SELFOVERLAP>  (1) 
856.37

>  <PUBCHEM_SHAPE_VOLUME>  (1) 
243.8

>  <PUBCHEM_COORDINATE_TYPE>  (1) 
2
5
10

$$$$
