29232
     RDKit          3D

 42 46  0  0  1  0  0  0  0  0999 V2000
    0.8081   -0.0106    1.8172 O   0  0  0  0  0  0  0  0  0  0  0  0
    0.7730    2.5947    0.8375 O   0  0  0  0  0  0  0  0  0  0  0  0
   -1.3327    3.5388    0.2842 O   0  0  0  0  0  0  0  0  0  0  0  0
    2.8706    2.3991    3.6484 O   0  0  0  0  0  0  0  0  0  0  0  0
    4.7484    0.3235    2.9263 O   0  0  0  0  0  0  0  0  0  0  0  0
    1.0452   -2.2921    1.3905 O   0  0  0  0  0  0  0  0  0  0  0  0
    3.4249   -2.3088    2.9218 O   0  0  0  0  0  0  0  0  0  0  0  0
    0.0819    5.2659   -1.5259 O   0  0  0  0  0  0  0  0  0  0  0  0
    0.5020    3.2766   -3.4262 O   0  0  0  0  0  0  0  0  0  0  0  0
   -1.6937    1.5618   -2.8061 O   0  0  0  0  0  0  0  0  0  0  0  0
   -1.5259   -1.7465   -1.1690 O   0  0  0  0  0  0  0  0  0  0  0  0
   -3.5848   -1.6710    3.2637 O   0  0  0  0  0  0  0  0  0  0  0  0
    3.3116    0.0317   -3.1210 O   0  0  0  0  0  0  0  0  0  0  0  0
   -6.1762   -1.0463   -0.6618 O   0  0  0  0  0  0  0  0  0  0  0  0
    4.0039   -2.4598   -4.1388 O   0  0  0  0  0  0  0  0  0  0  0  0
    1.0898    1.0921    2.6808 C   0  0  0  0  0  0  0  0  0  0  0  0
    2.5974    1.3528    2.7201 C   0  0  0  0  0  0  0  0  0  0  0  0
    3.3550    0.0933    3.1407 C   0  0  0  0  0  0  0  0  0  0  0  0
    2.9080   -1.1197    2.3248 C   0  0  0  0  0  0  0  0  0  0  0  0
    0.6026    3.9995   -1.1186 C   0  0  0  0  0  0  0  0  0  0  0  0
    0.0879    3.7166    0.2916 C   0  0  0  0  0  0  0  0  0  0  0  0
    0.1497    2.9115   -2.0937 C   0  0  0  0  0  0  0  0  0  0  0  0
   -1.3625    2.6989   -2.0130 C   0  0  0  0  0  0  0  0  0  0  0  0
    1.3839   -1.2295    2.2811 C   0  0  0  0  0  0  0  0  0  0  0  0
    0.3216    2.2989    2.1514 C   0  0  0  0  0  0  0  0  0  0  0  0
   -1.7860    2.4719   -0.5552 C   0  0  0  0  0  0  0  0  0  0  0  0
   -3.3032    2.4005   -0.4049 C   0  0  0  0  0  0  0  0  0  0  0  0
   -0.1648   -2.0684    0.7719 C   0  0  0  0  0  0  0  0  0  0  0  0
   -0.3002   -1.9724   -0.5605 C   0  0  0  0  0  0  0  0  0  0  0  0
   -1.3309   -1.9327    1.6148 C   0  0  0  0  0  0  0  0  0  0  0  0
   -2.5480   -1.7123    1.0774 C   0  0  0  0  0  0  0  0  0  0  0  0
    0.8212   -2.0958   -1.4933 C   0  0  0  0  0  0  0  0  0  0  0  0
   -2.6692   -1.6119   -0.3832 C   0  0  0  0  0  0  0  0  0  0  0  0
   -3.7493   -1.5697    1.8976 C   0  0  0  0  0  0  0  0  0  0  0  0
   -3.8568   -1.3939   -0.9637 C   0  0  0  0  0  0  0  0  0  0  0  0
    1.5451   -0.9634   -1.8717 C   0  0  0  0  0  0  0  0  0  0  0  0
    1.1705   -3.3468   -2.0060 C   0  0  0  0  0  0  0  0  0  0  0  0
   -4.9481   -1.3513    1.3367 C   0  0  0  0  0  0  0  0  0  0  0  0
   -5.0847   -1.2477   -0.1399 C   0  0  0  0  0  0  0  0  0  0  0  0
    2.6141   -1.0813   -2.7599 C   0  0  0  0  0  0  0  0  0  0  0  0
    2.2395   -3.4644   -2.8945 C   0  0  0  0  0  0  0  0  0  0  0  0
    2.9613   -2.3317   -3.2715 C   0  0  0  0  0  0  0  0  0  0  0  0
  1 16  1  0
  1 24  1  0
  2 21  1  0
  2 25  1  0
  3 21  1  0
  3 26  1  0
  4 17  1  0
  5 18  1  0
  6 24  1  0
  6 28  1  0
  7 19  1  0
  8 20  1  0
  9 22  1  0
 10 23  1  0
 11 29  1  0
 11 33  1  0
 12 34  1  0
 13 40  1  0
 14 39  2  0
 15 42  1  0
 16 17  1  0
 16 25  1  0
 17 18  1  0
 18 19  1  0
 19 24  1  0
 20 21  1  0
 20 22  1  0
 22 23  1  0
 23 26  1  0
 26 27  1  0
 28 29  2  0
 28 30  1  0
 29 32  1  0
 30 31  2  0
 31 33  1  0
 31 34  1  0
 32 36  2  0
 32 37  1  0
 33 35  2  0
 34 38  2  0
 35 39  1  0
 36 40  1  0
 37 41  2  0
 38 39  1  0
 40 42  2  0
 41 42  1  0
M  END
>  <PUBCHEM_COMPOUND_CID>  (1) 
29232

>  <PUBCHEM_CONFORMER_RMSD>  (1) 
1.2

>  <PUBCHEM_CONFORMER_DIVERSEORDER>  (1) 
1
554
167
468
320
112
91
115
611
486
627
192
617
406
340
408
391
347
40
50
415
154
504
582
498
20
529
93
239
193
610
7
211
547
516
4
254
51
557
442
535
34
465
11
441
266
117
189
139
131
248
371
421
541
575
6
604
578
187
198
333
586
157
477
260
64
82
344
349
215
262
361
281
459
458
240
303
629
123
219
470
447
569
494
383
309
400
507
191
15
497
146
172
278
482
378
142
234
561
19
596
325
534
39
45
188
246
9
258
357
364
317
170
227
633
478
350
140
543
592
3
200
56
445
128
96
111
474
212
358
332
17
615
76
571
57
295
201
99
601
370
62
98
380
25
8
179
363
66
407
314
27
78
372
381
195
457
296
274
580
396
86
84
199
233
321
126
297
490
424
95
414
570
105
394
97
336
29
245
83
521
224
493
36
12
148
18
164
122
48
425
214
152
54
269
73
451
10
68
537
252
453
103
63
61
621
625
2
149
210
590
366
133
182
583
156
28
14
576
427
160
177
55
33
26
238
560
461
392
247
47
24
476
58
81
108
71
22
393
385
42
544
243
265

>  <PUBCHEM_MMFF94_PARTIAL_CHARGES>  (1) 
55
1 -0.56
10 -0.68
11 -0.15
12 -0.53
13 -0.53
14 -0.57
15 -0.53
16 0.28
17 0.28
18 0.28
19 0.28
2 -0.56
20 0.28
21 0.56
22 0.28
23 0.28
24 0.56
25 0.28
26 0.28
28 0.08
29 0.05
3 -0.56
30 -0.15
32 0.03
33 0.08
34 0.08
35 -0.14
36 -0.15
37 -0.15
38 -0.14
39 0.54
4 -0.68
40 0.08
41 -0.15
42 0.08
5 -0.68
58 0.4
59 0.4
6 -0.36
60 0.4
61 0.4
62 0.4
63 0.4
64 0.15
65 0.15
66 0.15
67 0.15
68 0.15
69 0.15
7 -0.68
70 0.45
71 0.45
72 0.45
8 -0.68
9 -0.68

>  <PUBCHEM_EFFECTIVE_ROTOR_COUNT>  (1) 
8.4

>  <PUBCHEM_PHARMACOPHORE_FEATURES>  (1) 
26
1 1 acceptor
1 10 acceptor
1 10 donor
1 11 acceptor
1 12 donor
1 13 donor
1 14 acceptor
1 15 donor
1 2 acceptor
1 3 acceptor
1 4 acceptor
1 4 donor
1 5 acceptor
1 5 donor
1 6 acceptor
1 7 acceptor
1 7 donor
1 8 acceptor
1 8 donor
1 9 acceptor
1 9 donor
6 1 16 17 18 19 24 rings
6 11 28 29 30 31 33 rings
6 3 20 21 22 23 26 rings
6 31 33 34 35 38 39 rings
6 32 36 37 40 41 42 rings

>  <PUBCHEM_HEAVY_ATOM_COUNT>  (1) 
42

>  <PUBCHEM_ATOM_DEF_STEREO_COUNT>  (1) 
10

>  <PUBCHEM_ATOM_UDEF_STEREO_COUNT>  (1) 
0

>  <PUBCHEM_BOND_DEF_STEREO_COUNT>  (1) 
0

>  <PUBCHEM_BOND_UDEF_STEREO_COUNT>  (1) 
0

>  <PUBCHEM_ISOTOPIC_ATOM_COUNT>  (1) 
0

>  <PUBCHEM_COMPONENT_COUNT>  (1) 
1

>  <PUBCHEM_CACTVS_TAUTO_COUNT>  (1) 
48

>  <PUBCHEM_CONFORMER_ID>  (1) 
0000723000000001

>  <PUBCHEM_MMFF94_ENERGY>  (1) 
130.6746

>  <PUBCHEM_FEATURE_SELFOVERLAP>  (1) 
132.121

>  <PUBCHEM_SHAPE_FINGERPRINT>  (1) 
10305334 12 17031342446421327656
11578080 2 17844531002489917702
11763715 3 18115569522347026339
12128747 34 17685462413691042210
12156800 1 18262802843746545948
12539773 59 16612207582809456359
13383668 90 15971601340024233440
14114207 22 17131838694327015086
15276724 80 18194094513305592624
20764821 26 17896031041157007725
25223398 141 17105654640544255841
25265897 201 16550035655009913544
3493558 16 17118664177971855651
35225 105 17328238894219048964
469060 322 17469943931120947878
46939830 39 16517061009055683317

>  <PUBCHEM_SHAPE_MULTIPOLES>  (1) 
776.3
7.44
5.71
5
7.3
4.5
-0.15
-5.26
-2.28
-1.99
4.38
-5.66
0.41
4.37

>  <PUBCHEM_SHAPE_SELFOVERLAP>  (1) 
1686.843

>  <PUBCHEM_SHAPE_VOLUME>  (1) 
416.8

>  <PUBCHEM_COORDINATE_TYPE>  (1) 
2
5
10

$$$$
