29248
     RDKit          3D

 24 25  0  0  0  0  0  0  0  0999 V2000
   -0.3219   -0.2633   -1.6241 O   0  0  0  0  0  0  0  0  0  0  0  0
    0.9242   -1.0010    1.2742 O   0  0  0  0  0  0  0  0  0  0  0  0
    1.6002    0.7956   -0.0097 N   0  0  0  0  0  0  0  0  0  0  0  0
    5.2514    0.1169    0.2599 N   0  0  0  0  0  0  0  0  0  0  0  0
   -0.7046   -0.0224   -0.2548 C   0  0  0  0  0  0  0  0  0  0  0  0
   -1.7299   -1.0638    0.2065 C   0  0  0  0  0  0  0  0  0  0  0  0
   -1.2850    1.3915   -0.1334 C   0  0  0  0  0  0  0  0  0  0  0  0
    0.6770   -0.1539    0.4155 C   0  0  0  0  0  0  0  0  0  0  0  0
    2.9396    0.8687    0.5254 C   0  0  0  0  0  0  0  0  0  0  0  0
    3.9018    0.0066   -0.2785 C   0  0  0  0  0  0  0  0  0  0  0  0
   -1.7416   -1.4318    1.5312 C   0  0  0  0  0  0  0  0  0  0  0  0
   -1.9601    1.9179   -1.2088 C   0  0  0  0  0  0  0  0  0  0  0  0
   -2.5962   -1.5885   -0.7232 C   0  0  0  0  0  0  0  0  0  0  0  0
   -1.1060    2.0747    1.0458 C   0  0  0  0  0  0  0  0  0  0  0  0
    0.2545   -1.5464   -1.7649 C   0  0  0  0  0  0  0  0  0  0  0  0
   -2.6747   -2.3800    1.9507 C   0  0  0  0  0  0  0  0  0  0  0  0
   -2.4878    3.2044   -1.0983 C   0  0  0  0  0  0  0  0  0  0  0  0
   -3.5293   -2.5367   -0.3036 C   0  0  0  0  0  0  0  0  0  0  0  0
   -1.6338    3.3612    1.1563 C   0  0  0  0  0  0  0  0  0  0  0  0
   -3.5686   -2.9324    1.0332 C   0  0  0  0  0  0  0  0  0  0  0  0
   -2.3246    3.9260    0.0843 C   0  0  0  0  0  0  0  0  0  0  0  0
    0.6406   -1.7573   -3.2133 C   0  0  0  0  0  0  0  0  0  0  0  0
    5.2844   -0.3056    1.6616 C   0  0  0  0  0  0  0  0  0  0  0  0
    6.1900   -0.6806   -0.5320 C   0  0  0  0  0  0  0  0  0  0  0  0
  1  5  1  0
  1 15  1  0
  2  8  2  0
  3  8  1  0
  3  9  1  0
  4 10  1  0
  4 23  1  0
  4 24  1  0
  5  6  1  0
  5  7  1  0
  5  8  1  0
  6 11  2  0
  6 13  1  0
  7 12  2  0
  7 14  1  0
  9 10  1  0
 11 16  1  0
 12 17  1  0
 13 18  2  0
 14 19  2  0
 15 22  1  0
 16 20  2  0
 17 21  2  0
 18 20  1  0
 19 21  1  0
M  END
>  <PUBCHEM_COMPOUND_CID>  (1) 
29248

>  <PUBCHEM_CONFORMER_RMSD>  (1) 
1

>  <PUBCHEM_CONFORMER_DIVERSEORDER>  (1) 
1
19
8
12
10
5
17
15
18
14
16
4
7
3
13
11
6
9
2

>  <PUBCHEM_MMFF94_PARTIAL_CHARGES>  (1) 
34
1 -0.56
10 0.27
11 -0.15
12 -0.15
13 -0.15
14 -0.15
15 0.28
16 -0.15
17 -0.15
18 -0.15
19 -0.15
2 -0.57
20 -0.15
21 -0.15
23 0.27
24 0.27
27 0.37
3 -0.73
30 0.15
31 0.15
32 0.15
33 0.15
36 0.15
37 0.15
38 0.15
39 0.15
4 -0.81
40 0.15
41 0.15
5 0.63
6 -0.14
7 -0.14
8 0.57
9 0.3

>  <PUBCHEM_EFFECTIVE_ROTOR_COUNT>  (1) 
9

>  <PUBCHEM_PHARMACOPHORE_FEATURES>  (1) 
6
1 1 acceptor
1 2 acceptor
1 3 donor
1 4 cation
6 6 11 13 16 18 20 rings
6 7 12 14 17 19 21 rings

>  <PUBCHEM_HEAVY_ATOM_COUNT>  (1) 
24

>  <PUBCHEM_ATOM_DEF_STEREO_COUNT>  (1) 
0

>  <PUBCHEM_ATOM_UDEF_STEREO_COUNT>  (1) 
0

>  <PUBCHEM_BOND_DEF_STEREO_COUNT>  (1) 
0

>  <PUBCHEM_BOND_UDEF_STEREO_COUNT>  (1) 
0

>  <PUBCHEM_ISOTOPIC_ATOM_COUNT>  (1) 
0

>  <PUBCHEM_COMPONENT_COUNT>  (1) 
1

>  <PUBCHEM_CACTVS_TAUTO_COUNT>  (1) 
2

>  <PUBCHEM_CONFORMER_ID>  (1) 
0000724000000001

>  <PUBCHEM_MMFF94_ENERGY>  (1) 
79.293

>  <PUBCHEM_FEATURE_SELFOVERLAP>  (1) 
30.446

>  <PUBCHEM_SHAPE_FINGERPRINT>  (1) 
11545043 162 18272086072908779130
11578080 2 17556336940249374173
12403814 3 17916581076324674142
12788726 201 18263063484185050803
12930653 34 18337112272269458574
13134695 92 17977950416908515133
13140716 1 18339369681315681537
13149001 5 17480327589863080271
13583140 156 18272922809573261362
14468879 13 17987226747171843102
14713325 29 18271531905430345632
15131766 46 16269377495485670776
15775530 1 17913796958000618071
15876981 60 17968674760913245548
16945 1 16879328203676436431
1813 80 18053967296061626511
20600515 1 18117859904056860763
21033648 29 17417795224708772792
21304303 282 18116979006475298981
21330990 113 17487367986053607383
22182313 1 17845948325113438390
23175994 123 18043529636817195963
23419403 2 18049425239814312277
23557571 272 18340776969966968910
23559900 14 17678730357370047140
23598288 3 18411419527242890612
268830 7 14979950402930923770
283562 15 18260546757650503858
312423 11 18189066429214259716
3380486 145 18201167632693665943
376196 1 17626084366259103828
4409770 3 18408597051045597437
497634 4 17749385984357765686
59755656 520 18191864526776163229
6669772 16 18050568435000450815
7226269 152 18334009489400159189
77188 2 18047196525207139193
81228 2 18192743118687534121
9981440 41 17773017671250255830

>  <PUBCHEM_SHAPE_MULTIPOLES>  (1) 
472.21
8.49
4.15
2.05
19.37
3.29
-1.05
-2.88
2.18
-6.95
0.34
-0.04
-1.25
1.34

>  <PUBCHEM_SHAPE_SELFOVERLAP>  (1) 
991.479

>  <PUBCHEM_SHAPE_VOLUME>  (1) 
266.5

>  <PUBCHEM_COORDINATE_TYPE>  (1) 
2
5
10

$$$$
