29246
     RDKit          3D

 16 18  0  0  0  0  0  0  0  0999 V2000
   -0.2050    2.1131   -0.9645 O   0  0  0  0  0  0  0  0  0  0  0  0
   -1.4487    2.8421   -0.7848 O   0  0  0  0  0  0  0  0  0  0  0  0
   -0.0857    1.2925    0.1913 C   0  0  0  0  0  0  0  0  0  0  0  0
    1.2017    0.4854    0.0872 C   0  0  0  0  0  0  0  0  0  0  0  0
   -1.1387    0.1944    0.1228 C   0  0  0  0  0  0  0  0  0  0  0  0
    0.9118   -0.8929   -0.0286 C   0  0  0  0  0  0  0  0  0  0  0  0
   -0.5237   -1.0714   -0.0068 C   0  0  0  0  0  0  0  0  0  0  0  0
   -0.1671    2.1083    1.4797 C   0  0  0  0  0  0  0  0  0  0  0  0
    2.5092    0.9457    0.0891 C   0  0  0  0  0  0  0  0  0  0  0  0
   -2.5185    0.3205    0.1657 C   0  0  0  0  0  0  0  0  0  0  0  0
    1.9335   -1.8222   -0.1395 C   0  0  0  0  0  0  0  0  0  0  0  0
   -1.2895   -2.2231   -0.0905 C   0  0  0  0  0  0  0  0  0  0  0  0
    3.5382    0.0090   -0.0224 C   0  0  0  0  0  0  0  0  0  0  0  0
   -3.2896   -0.8401    0.0815 C   0  0  0  0  0  0  0  0  0  0  0  0
    3.2531   -1.3617   -0.1351 C   0  0  0  0  0  0  0  0  0  0  0  0
   -2.6811   -2.0996   -0.0449 C   0  0  0  0  0  0  0  0  0  0  0  0
  1  2  1  0
  1  3  1  0
  3  4  1  0
  3  5  1  0
  3  8  1  0
  4  6  2  0
  4  9  1  0
  5  7  2  0
  5 10  1  0
  6  7  1  0
  6 11  1  0
  7 12  1  0
  9 13  2  0
 10 14  2  0
 11 15  2  0
 12 16  2  0
 13 15  1  0
 14 16  1  0
M  END
>  <PUBCHEM_COMPOUND_CID>  (1) 
29246

>  <PUBCHEM_CONFORMER_RMSD>  (1) 
0.6

>  <PUBCHEM_CONFORMER_DIVERSEORDER>  (1) 
1

>  <PUBCHEM_MMFF94_PARTIAL_CHARGES>  (1) 
22
1 -0.28
10 -0.15
11 -0.15
12 -0.15
13 -0.15
14 -0.15
15 -0.15
16 -0.15
2 -0.4
20 0.15
21 0.15
22 0.15
23 0.15
24 0.15
25 0.15
26 0.15
27 0.15
28 0.4
3 0.57
4 -0.14
5 -0.14
9 -0.15

>  <PUBCHEM_EFFECTIVE_ROTOR_COUNT>  (1) 
1.2

>  <PUBCHEM_PHARMACOPHORE_FEATURES>  (1) 
3
5 3 4 5 6 7 rings
6 4 6 9 11 13 15 rings
6 5 7 10 12 14 16 rings

>  <PUBCHEM_HEAVY_ATOM_COUNT>  (1) 
16

>  <PUBCHEM_ATOM_DEF_STEREO_COUNT>  (1) 
0

>  <PUBCHEM_ATOM_UDEF_STEREO_COUNT>  (1) 
0

>  <PUBCHEM_BOND_DEF_STEREO_COUNT>  (1) 
0

>  <PUBCHEM_BOND_UDEF_STEREO_COUNT>  (1) 
0

>  <PUBCHEM_ISOTOPIC_ATOM_COUNT>  (1) 
0

>  <PUBCHEM_COMPONENT_COUNT>  (1) 
1

>  <PUBCHEM_CACTVS_TAUTO_COUNT>  (1) 
1

>  <PUBCHEM_CONFORMER_ID>  (1) 
0000723E00000001

>  <PUBCHEM_MMFF94_ENERGY>  (1) 
56.2477

>  <PUBCHEM_FEATURE_SELFOVERLAP>  (1) 
15.384

>  <PUBCHEM_SHAPE_FINGERPRINT>  (1) 
10967382 1 18268711786632515067
11132069 177 18342452664474514234
11206711 2 18265619788331423494
11680986 33 17979632660866783603
11806522 49 17983571089879220775
12032990 46 18411144674668108082
12035759 4 18044687362273466476
12382932 28 18343303686326804266
12423570 1 11390082196297566648
12716301 132 18120623908574375521
13027679 85 18272370918559383505
13132413 78 18268717288538226045
13140716 1 18412266142242606642
14614273 12 18120374259289159245
15001771 113 18341623602594751816
15490181 8 17335340437526575506
16945 1 18408598154340495932
17844478 74 18261401030834851147
193761 8 17905889171695127059
19591789 44 16253937676192612850
20510252 161 18271525282479901832
20511035 2 17694786624217538951
20588541 1 18412545448165549083
20645477 70 17542494385884527855
21029758 27 18262531410535196599
21267235 1 18339935899359497566
21501502 16 18339084778933443154
22721475 48 18412547642930721634
2334 1 18268149931959187666
23402539 116 18341321253882219647
23419403 2 17558798819962088985
23463225 33 18410013277408608046
23552423 10 17833833055342135911
23559900 14 18270676451599405370
238 59 16310454828749980717
2748010 2 18195805391208662702
3071541 158 18191021407589435565
3312278 4 18412831299961867298
34934 24 18339352062900695707
353137 74 18335980870213669114
427121 178 15836534668486611651
6992083 37 18341629139097831283
7364860 26 17910675697992496425
81228 2 18337968787241911026
8809292 202 18408328778424412442

>  <PUBCHEM_SHAPE_MULTIPOLES>  (1) 
317.53
4.79
2.77
0.82
1.16
0.89
0.1
-2.17
-0.08
-0.82
-0.19
-0.07
0.48
0.2

>  <PUBCHEM_SHAPE_SELFOVERLAP>  (1) 
710.988

>  <PUBCHEM_SHAPE_VOLUME>  (1) 
171.4

>  <PUBCHEM_COORDINATE_TYPE>  (1) 
2
5
10

$$$$
