29256
     RDKit          3D

 23 26  0  0  1  0  0  0  0  0999 V2000
    5.0387   -0.0792    0.4121 Cl  0  0  0  0  0  0  0  0  0  0  0  0
   -1.2834   -1.1501   -0.1575 O   0  0  0  0  0  0  0  0  0  0  0  0
   -4.9088   -0.8101    0.3624 N   0  0  0  0  0  0  0  0  0  0  0  0
   -0.1309   -0.4513    0.2713 C   0  0  0  0  0  0  0  0  0  0  0  0
    2.0320    0.8226    1.0713 C   0  0  0  0  0  0  0  0  0  0  0  0
   -0.0591   -0.4237    1.8269 C   0  0  0  0  0  0  0  0  0  0  0  0
    1.2199    0.3318    2.2993 C   0  0  0  0  0  0  0  0  0  0  0  0
    1.1695   -1.1152   -0.1904 C   0  0  0  0  0  0  0  0  0  0  0  0
   -0.0898    1.0138   -0.1757 C   0  0  0  0  0  0  0  0  0  0  0  0
    2.3324   -0.4235    0.2451 C   0  0  0  0  0  0  0  0  0  0  0  0
    1.0788    1.6951    0.2615 C   0  0  0  0  0  0  0  0  0  0  0  0
    1.2885   -2.2640   -0.9624 C   0  0  0  0  0  0  0  0  0  0  0  0
   -1.0403    1.6787   -0.9398 C   0  0  0  0  0  0  0  0  0  0  0  0
    3.6000   -0.8802   -0.0890 C   0  0  0  0  0  0  0  0  0  0  0  0
    1.2881    3.0291   -0.0602 C   0  0  0  0  0  0  0  0  0  0  0  0
   -2.4775   -0.5568    0.3417 C   0  0  0  0  0  0  0  0  0  0  0  0
    2.5659   -2.7216   -1.2950 C   0  0  0  0  0  0  0  0  0  0  0  0
   -0.8271    3.0218   -1.2598 C   0  0  0  0  0  0  0  0  0  0  0  0
    3.7106   -2.0364   -0.8625 C   0  0  0  0  0  0  0  0  0  0  0  0
    0.3257    3.6909   -0.8237 C   0  0  0  0  0  0  0  0  0  0  0  0
   -3.6763   -1.3503   -0.1449 C   0  0  0  0  0  0  0  0  0  0  0  0
   -6.0638   -1.6095   -0.0747 C   0  0  0  0  0  0  0  0  0  0  0  0
   -5.0931    0.5881   -0.0561 C   0  0  0  0  0  0  0  0  0  0  0  0
  1 14  1  0
  2  4  1  0
  2 16  1  0
  3 21  1  0
  3 22  1  0
  3 23  1  0
  4  6  1  0
  4  8  1  0
  4  9  1  0
  5  7  1  0
  5 10  1  0
  5 11  1  0
  6  7  1  0
  8 10  2  0
  8 12  1  0
  9 11  2  0
  9 13  1  0
 10 14  1  0
 11 15  1  0
 12 17  2  0
 13 18  2  0
 14 19  2  0
 15 20  2  0
 16 21  1  0
 17 19  1  0
 18 20  1  0
M  END
>  <PUBCHEM_COMPOUND_CID>  (1) 
29256

>  <PUBCHEM_CONFORMER_RMSD>  (1) 
0.8

>  <PUBCHEM_CONFORMER_DIVERSEORDER>  (1) 
1
2
5
8
6
4
7
3

>  <PUBCHEM_MMFF94_PARTIAL_CHARGES>  (1) 
28
1 -0.18
10 -0.14
11 -0.14
12 -0.15
13 -0.15
14 0.18
15 -0.15
16 0.28
17 -0.15
18 -0.15
19 -0.15
2 -0.56
20 -0.15
21 0.27
22 0.27
23 0.27
29 0.15
3 -0.81
30 0.15
31 0.15
34 0.15
35 0.15
36 0.15
37 0.15
4 0.57
5 0.29
8 -0.14
9 -0.14

>  <PUBCHEM_EFFECTIVE_ROTOR_COUNT>  (1) 
4.4

>  <PUBCHEM_PHARMACOPHORE_FEATURES>  (1) 
5
1 2 acceptor
1 3 cation
6 8 10 12 14 17 19 rings
6 9 11 13 15 18 20 rings
8 4 5 6 7 8 9 10 11 rings

>  <PUBCHEM_HEAVY_ATOM_COUNT>  (1) 
23

>  <PUBCHEM_ATOM_DEF_STEREO_COUNT>  (1) 
0

>  <PUBCHEM_ATOM_UDEF_STEREO_COUNT>  (1) 
2

>  <PUBCHEM_BOND_DEF_STEREO_COUNT>  (1) 
0

>  <PUBCHEM_BOND_UDEF_STEREO_COUNT>  (1) 
0

>  <PUBCHEM_ISOTOPIC_ATOM_COUNT>  (1) 
0

>  <PUBCHEM_COMPONENT_COUNT>  (1) 
1

>  <PUBCHEM_CACTVS_TAUTO_COUNT>  (1) 
1

>  <PUBCHEM_CONFORMER_ID>  (1) 
0000724800000001

>  <PUBCHEM_MMFF94_ENERGY>  (1) 
97.7077

>  <PUBCHEM_FEATURE_SELFOVERLAP>  (1) 
25.393

>  <PUBCHEM_SHAPE_FINGERPRINT>  (1) 
10064457 181 17559664229981375759
10165383 225 17915733383489257920
10906281 52 18189353379984076960
11421498 54 15936687069558142957
11578080 2 17773581746590974808
116883 192 18337956692666908781
12035758 1 18199166525735955976
12293681 25 17767667374518391262
12293681 4 18113625598815321667
12422481 6 18122598773482146920
12423570 1 11500087914145360664
12617007 42 18261396671522206045
12788726 201 18115032883605054570
13009979 54 18058469667792515881
13140716 1 18125431162616419626
13149001 5 17460053957072745427
13464513 79 18411979186787204235
13583140 156 16701438200518068275
14170010 4 18272933847375584883
14790565 3 17904769125850516316
14863182 85 16701755911522465479
15420108 30 17547835812860489672
15664445 248 18334297565356520896
15848702 151 18413671314240109047
1601671 61 18412547612913306437
16945 1 18129681797302000074
17357779 13 18339349769773028629
17492 54 18117580602597164652
17492 89 18120655996892735099
1813 80 18408892819198806319
20600515 1 17749116598938669607
20645477 70 18190172580908629791
20739085 24 18337387261449861516
21033648 29 17988347214398828379
21285901 2 18339647741392309486
21452121 99 17612289871616917900
21503847 285 18333730252127900625
22182313 1 18268973333287935524
22802520 49 18054497020459282068
23352939 185 18342470248323961448
23419403 2 17701797926547445658
23557571 272 18335702672697698004
23559900 14 18340764940523643595
2748010 2 18268122345800931364
3060560 45 18196379340615533964
338550 245 17985542497428152391
38695281 34 17977953715069456412
4340502 62 17489018387788773850
46194498 28 18335139856041373887
54040823 5 18333730234468321538
57262259 84 17981901747744279526
57527585 103 16333598448765777630
6443956 14 18341618113600271021
7164475 11 17971190322873435234
7364860 26 18266462194774891909
7495541 125 18042129911048987179
81228 2 18045239162449406848
9709674 26 18191026910107771131

>  <PUBCHEM_SHAPE_MULTIPOLES>  (1) 
464.35
8.65
3.5
1.36
11.95
2.79
-0.55
-6.26
0.08
-0.79
1.87
-0.63
0.07
1.17

>  <PUBCHEM_SHAPE_SELFOVERLAP>  (1) 
1012.097

>  <PUBCHEM_SHAPE_VOLUME>  (1) 
257.6

>  <PUBCHEM_COORDINATE_TYPE>  (1) 
2
5
10

$$$$
