29258
     RDKit          3D

 23 26  0  0  1  0  0  0  0  0999 V2000
    5.5720   -1.9330   -0.8423 Cl  0  0  0  0  0  0  0  0  0  0  0  0
   -1.1594   -1.1860   -0.0965 O   0  0  0  0  0  0  0  0  0  0  0  0
   -4.8224   -1.2511    0.2313 N   0  0  0  0  0  0  0  0  0  0  0  0
   -0.1192   -0.3402    0.3539 C   0  0  0  0  0  0  0  0  0  0  0  0
    1.8372    1.2102    1.1962 C   0  0  0  0  0  0  0  0  0  0  0  0
   -0.1343   -0.2400    1.9081 C   0  0  0  0  0  0  0  0  0  0  0  0
    1.0223    0.6791    2.4054 C   0  0  0  0  0  0  0  0  0  0  0  0
    1.2717   -0.8659   -0.0125 C   0  0  0  0  0  0  0  0  0  0  0  0
   -0.2227    1.0999   -0.1595 C   0  0  0  0  0  0  0  0  0  0  0  0
    2.3225   -0.0253    0.4454 C   0  0  0  0  0  0  0  0  0  0  0  0
    0.8349    1.9308    0.3009 C   0  0  0  0  0  0  0  0  0  0  0  0
    1.5629   -2.0238   -0.7225 C   0  0  0  0  0  0  0  0  0  0  0  0
   -1.2010    1.6167   -0.9992 C   0  0  0  0  0  0  0  0  0  0  0  0
    3.6502   -0.3439    0.1950 C   0  0  0  0  0  0  0  0  0  0  0  0
    0.9065    3.2657   -0.0732 C   0  0  0  0  0  0  0  0  0  0  0  0
   -2.4386   -0.7162    0.3159 C   0  0  0  0  0  0  0  0  0  0  0  0
    2.9003   -2.3421   -0.9711 C   0  0  0  0  0  0  0  0  0  0  0  0
   -1.1266    2.9611   -1.3718 C   0  0  0  0  0  0  0  0  0  0  0  0
    3.9341   -1.5102   -0.5166 C   0  0  0  0  0  0  0  0  0  0  0  0
   -0.0833    3.7781   -0.9127 C   0  0  0  0  0  0  0  0  0  0  0  0
   -3.5108   -1.6639   -0.1899 C   0  0  0  0  0  0  0  0  0  0  0  0
   -5.8532   -2.1974   -0.2228 C   0  0  0  0  0  0  0  0  0  0  0  0
   -5.1432    0.0975   -0.2613 C   0  0  0  0  0  0  0  0  0  0  0  0
  1 19  1  0
  2  4  1  0
  2 16  1  0
  3 21  1  0
  3 22  1  0
  3 23  1  0
  4  6  1  0
  4  8  1  0
  4  9  1  0
  5  7  1  0
  5 10  1  0
  5 11  1  0
  6  7  1  0
  8 10  2  0
  8 12  1  0
  9 11  2  0
  9 13  1  0
 10 14  1  0
 11 15  1  0
 12 17  2  0
 13 18  2  0
 14 19  2  0
 15 20  2  0
 16 21  1  0
 17 19  1  0
 18 20  1  0
M  END
>  <PUBCHEM_COMPOUND_CID>  (1) 
29258

>  <PUBCHEM_CONFORMER_RMSD>  (1) 
0.8

>  <PUBCHEM_CONFORMER_DIVERSEORDER>  (1) 
1
7
5
4
2
6
8
3

>  <PUBCHEM_MMFF94_PARTIAL_CHARGES>  (1) 
28
1 -0.18
10 -0.14
11 -0.14
12 -0.15
13 -0.15
14 -0.15
15 -0.15
16 0.28
17 -0.15
18 -0.15
19 0.18
2 -0.56
20 -0.15
21 0.27
22 0.27
23 0.27
29 0.15
3 -0.81
30 0.15
31 0.15
32 0.15
35 0.15
36 0.15
37 0.15
4 0.57
5 0.29
8 -0.14
9 -0.14

>  <PUBCHEM_EFFECTIVE_ROTOR_COUNT>  (1) 
4.4

>  <PUBCHEM_PHARMACOPHORE_FEATURES>  (1) 
5
1 2 acceptor
1 3 cation
6 8 10 12 14 17 19 rings
6 9 11 13 15 18 20 rings
8 4 5 6 7 8 9 10 11 rings

>  <PUBCHEM_HEAVY_ATOM_COUNT>  (1) 
23

>  <PUBCHEM_ATOM_DEF_STEREO_COUNT>  (1) 
0

>  <PUBCHEM_ATOM_UDEF_STEREO_COUNT>  (1) 
2

>  <PUBCHEM_BOND_DEF_STEREO_COUNT>  (1) 
0

>  <PUBCHEM_BOND_UDEF_STEREO_COUNT>  (1) 
0

>  <PUBCHEM_ISOTOPIC_ATOM_COUNT>  (1) 
0

>  <PUBCHEM_COMPONENT_COUNT>  (1) 
1

>  <PUBCHEM_CACTVS_TAUTO_COUNT>  (1) 
1

>  <PUBCHEM_CONFORMER_ID>  (1) 
0000724A00000001

>  <PUBCHEM_MMFF94_ENERGY>  (1) 
96.5807

>  <PUBCHEM_FEATURE_SELFOVERLAP>  (1) 
25.393

>  <PUBCHEM_SHAPE_FINGERPRINT>  (1) 
10906281 52 17897451807474679736
11421498 54 16009023943912974137
11578080 2 17916853647913744080
116883 192 18409446968822461821
12166972 35 18343301509769817817
12422481 6 18050820472482623760
12617007 42 18260548973858649493
12788726 201 18114745910922661554
13009979 54 18201454588000849137
13149001 5 17387147557227481139
13583140 156 15482101648975255355
14022347 108 18040989670024388219
14713325 29 18124035624667723076
14790565 3 17760088810098772732
15081414 286 18263364849145116581
15420108 30 17259040317659787072
1601671 61 18265050412959578213
16087824 20 18120939404837019573
16945 1 17703491282007796400
17357779 13 18339629067185443973
17492 54 18045521930496065164
17492 89 18122064467066808319
1813 80 18408603673294454043
20645477 70 18045491170119632231
21033648 29 18059840780515180387
21049683 271 18337964496859596332
21285901 2 18339928121168242423
21452121 99 17684059427857486444
21503847 285 18261107526356403577
22182313 1 18269531915354633816
23352939 185 18342187682404426088
23419403 2 17773856663099616784
23557571 272 18337957762345705374
23559900 14 18267581480885889859
2748010 2 18196627710269416664
3060560 45 18051134988405059860
38695281 34 17760934334698287764
46194498 28 18189611829878341455
57262259 84 18268719298809553084
57527585 103 16405938630171716598
6443956 14 18341615944678677345
7164475 11 18116711799269480466
7364860 26 18193558002627233237
9709674 26 18119248613434954683
9971528 1 18339355379226936209

>  <PUBCHEM_SHAPE_MULTIPOLES>  (1) 
464.35
8.89
3.73
1.4
7.28
3.26
-0.73
-10.32
2.17
0.34
1.64
-0.51
0.45
1.34

>  <PUBCHEM_SHAPE_SELFOVERLAP>  (1) 
1011.395

>  <PUBCHEM_SHAPE_VOLUME>  (1) 
258.2

>  <PUBCHEM_COORDINATE_TYPE>  (1) 
2
5
10

$$$$
