29252
     RDKit          3D

 12 11  0  0  1  0  0  0  0  0999 V2000
    0.4124    1.7360    1.1381 Cl  0  0  0  0  0  0  0  0  0  0  0  0
   -0.4123   -1.7319    1.1429 Cl  0  0  0  0  0  0  0  0  0  0  0  0
    2.3053   -1.0721   -1.6759 Cl  0  0  0  0  0  0  0  0  0  0  0  0
    3.2546    1.2739   -0.2980 Cl  0  0  0  0  0  0  0  0  0  0  0  0
    2.4377   -1.0550    1.2288 Cl  0  0  0  0  0  0  0  0  0  0  0  0
   -3.2559   -1.2751   -0.2028 Cl  0  0  0  0  0  0  0  0  0  0  0  0
   -2.4084    1.1312    1.1805 Cl  0  0  0  0  0  0  0  0  0  0  0  0
   -2.3341    0.9925   -1.7230 Cl  0  0  0  0  0  0  0  0  0  0  0  0
    0.5890    0.5202   -0.1893 C   0  0  0  0  0  0  0  0  0  0  0  0
   -0.5886   -0.5199   -0.1880 C   0  0  0  0  0  0  0  0  0  0  0  0
    2.0364   -0.0627   -0.2062 C   0  0  0  0  0  0  0  0  0  0  0  0
   -2.0360    0.0629   -0.2070 C   0  0  0  0  0  0  0  0  0  0  0  0
  1  9  1  0
  2 10  1  0
  3 11  1  0
  4 11  1  0
  5 11  1  0
  6 12  1  0
  7 12  1  0
  8 12  1  0
  9 10  1  0
  9 11  1  0
 10 12  1  0
M  END
>  <PUBCHEM_COMPOUND_CID>  (1) 
29252

>  <PUBCHEM_CONFORMER_RMSD>  (1) 
0.6

>  <PUBCHEM_CONFORMER_DIVERSEORDER>  (1) 
1
2
3

>  <PUBCHEM_MMFF94_PARTIAL_CHARGES>  (1) 
12
1 -0.29
10 0.29
11 0.87
12 0.87
2 -0.29
3 -0.29
4 -0.29
5 -0.29
6 -0.29
7 -0.29
8 -0.29
9 0.29

>  <PUBCHEM_EFFECTIVE_ROTOR_COUNT>  (1) 
3

>  <PUBCHEM_PHARMACOPHORE_FEATURES>  (1) 
0

>  <PUBCHEM_HEAVY_ATOM_COUNT>  (1) 
12

>  <PUBCHEM_ATOM_DEF_STEREO_COUNT>  (1) 
0

>  <PUBCHEM_ATOM_UDEF_STEREO_COUNT>  (1) 
2

>  <PUBCHEM_BOND_DEF_STEREO_COUNT>  (1) 
0

>  <PUBCHEM_BOND_UDEF_STEREO_COUNT>  (1) 
0

>  <PUBCHEM_ISOTOPIC_ATOM_COUNT>  (1) 
0

>  <PUBCHEM_COMPONENT_COUNT>  (1) 
1

>  <PUBCHEM_CACTVS_TAUTO_COUNT>  (1) 
1

>  <PUBCHEM_CONFORMER_ID>  (1) 
0000724400000001

>  <PUBCHEM_MMFF94_ENERGY>  (1) 
35.7122

>  <PUBCHEM_FEATURE_SELFOVERLAP>  (1) 
0

>  <PUBCHEM_SHAPE_FINGERPRINT>  (1) 
10353120 184 18196949772264821472
12423570 1 16271937038242955885
12491281 212 17559695982684924024
12932764 1 18040724623218352628
13296908 3 17846505802671921198
14325111 11 17967805042187061119
15775835 57 18186799179901712903
16945 1 18193838132830436559
18186145 218 18335424530246467436
20201158 50 18270123538156145918
20653085 51 17916043281852163961
20653091 64 18340200886009045528
21524375 3 18048600618941614684
22802520 49 17273706363980509379
23402539 116 17824528884509809159
23526113 38 18340211877030854962
23552423 10 18129392513805674350
23557571 272 18260267468580025245
2748010 2 17336741687723558720
3248919 1 18131062701864089150
5084963 1 18261386784665642143
528886 8 17775010059059871301
8030462 33 17167866348135696278
81228 2 17608395736328300954

>  <PUBCHEM_SHAPE_MULTIPOLES>  (1) 
261.91
5.12
1.87
1.63
0
0
-0.3
0
-0.94
0
0.44
0
0
0.11

>  <PUBCHEM_SHAPE_SELFOVERLAP>  (1) 
428.849

>  <PUBCHEM_SHAPE_VOLUME>  (1) 
177.5

>  <PUBCHEM_COORDINATE_TYPE>  (1) 
2
5
10

$$$$
