29254
     RDKit          3D

 22 24  0  0  0  0  0  0  0  0999 V2000
   -1.3438   -0.9125   -0.8919 O   0  0  0  0  0  0  0  0  0  0  0  0
   -3.9813   -0.8991    0.1624 N   0  0  0  0  0  0  0  0  0  0  0  0
    2.2507    0.8724    0.3639 C   0  0  0  0  0  0  0  0  0  0  0  0
    2.0956   -0.6394    0.1088 C   0  0  0  0  0  0  0  0  0  0  0  0
    0.9944    1.7010    0.0318 C   0  0  0  0  0  0  0  0  0  0  0  0
   -0.0866   -0.2785   -1.1450 C   0  0  0  0  0  0  0  0  0  0  0  0
    0.9789   -1.1631   -0.5622 C   0  0  0  0  0  0  0  0  0  0  0  0
   -0.1049    1.1380   -0.6363 C   0  0  0  0  0  0  0  0  0  0  0  0
    3.4280    1.3978   -0.5052 C   0  0  0  0  0  0  0  0  0  0  0  0
    2.5809    1.0773    1.8597 C   0  0  0  0  0  0  0  0  0  0  0  0
    3.0941   -1.5457    0.5289 C   0  0  0  0  0  0  0  0  0  0  0  0
    0.9219    3.0680    0.3796 C   0  0  0  0  0  0  0  0  0  0  0  0
    0.8638   -2.5545   -0.7587 C   0  0  0  0  0  0  0  0  0  0  0  0
   -1.2489    1.9209   -0.8933 C   0  0  0  0  0  0  0  0  0  0  0  0
    2.9707   -2.9218    0.3279 C   0  0  0  0  0  0  0  0  0  0  0  0
   -0.2138    3.8354    0.1150 C   0  0  0  0  0  0  0  0  0  0  0  0
    1.8492   -3.4284   -0.3107 C   0  0  0  0  0  0  0  0  0  0  0  0
   -1.3057    3.2583   -0.5152 C   0  0  0  0  0  0  0  0  0  0  0  0
   -1.5633   -1.0783    0.4990 C   0  0  0  0  0  0  0  0  0  0  0  0
   -2.9196   -1.7338    0.7047 C   0  0  0  0  0  0  0  0  0  0  0  0
   -3.9734    0.4236    0.7923 C   0  0  0  0  0  0  0  0  0  0  0  0
   -5.2870   -1.5377    0.3447 C   0  0  0  0  0  0  0  0  0  0  0  0
  1  6  1  0
  1 19  1  0
  2 20  1  0
  2 21  1  0
  2 22  1  0
  3  4  1  0
  3  5  1  0
  3  9  1  0
  3 10  1  0
  4  7  2  0
  4 11  1  0
  5  8  2  0
  5 12  1  0
  6  7  1  0
  6  8  1  0
  7 13  1  0
  8 14  1  0
 11 15  2  0
 12 16  2  0
 13 17  2  0
 14 18  2  0
 15 17  1  0
 16 18  1  0
 19 20  1  0
M  END
>  <PUBCHEM_COMPOUND_CID>  (1) 
29254

>  <PUBCHEM_CONFORMER_RMSD>  (1) 
0.8

>  <PUBCHEM_CONFORMER_DIVERSEORDER>  (1) 
3
2
1

>  <PUBCHEM_MMFF94_PARTIAL_CHARGES>  (1) 
28
1 -0.56
11 -0.15
12 -0.15
13 -0.15
14 -0.15
15 -0.15
16 -0.15
17 -0.15
18 -0.15
19 0.28
2 -0.81
20 0.27
21 0.27
22 0.27
3 0.29
30 0.15
31 0.15
32 0.15
33 0.15
34 0.15
35 0.15
38 0.15
39 0.15
4 -0.14
5 -0.14
6 0.57
7 -0.14
8 -0.14

>  <PUBCHEM_EFFECTIVE_ROTOR_COUNT>  (1) 
4.4

>  <PUBCHEM_PHARMACOPHORE_FEATURES>  (1) 
6
1 1 acceptor
1 2 cation
3 3 9 10 hydrophobe
6 3 4 5 6 7 8 rings
6 4 7 11 13 15 17 rings
6 5 8 12 14 16 18 rings

>  <PUBCHEM_HEAVY_ATOM_COUNT>  (1) 
22

>  <PUBCHEM_ATOM_DEF_STEREO_COUNT>  (1) 
0

>  <PUBCHEM_ATOM_UDEF_STEREO_COUNT>  (1) 
0

>  <PUBCHEM_BOND_DEF_STEREO_COUNT>  (1) 
0

>  <PUBCHEM_BOND_UDEF_STEREO_COUNT>  (1) 
0

>  <PUBCHEM_ISOTOPIC_ATOM_COUNT>  (1) 
0

>  <PUBCHEM_COMPONENT_COUNT>  (1) 
1

>  <PUBCHEM_CACTVS_TAUTO_COUNT>  (1) 
1

>  <PUBCHEM_CONFORMER_ID>  (1) 
0000724600000003

>  <PUBCHEM_MMFF94_ENERGY>  (1) 
83.9289

>  <PUBCHEM_FEATURE_SELFOVERLAP>  (1) 
30.483

>  <PUBCHEM_SHAPE_FINGERPRINT>  (1) 
10493431 412 17908700979604840888
108634 29 17692248539232531559
10967382 1 18338517555097198310
1100329 8 17834957847189718028
11680986 33 18124018041098012812
116883 192 18265900142268993423
12011746 2 18337961210798164605
12553582 1 18338225072172075078
12633257 1 17912940387288043001
12788726 201 18117287947193386946
13140716 1 18196081158405958704
138480 1 18410295834827821105
13965767 371 17775844622776961123
14178342 30 17911221038601577410
14223421 5 18337952268676286598
14790565 3 18121227733795544580
14866123 147 17472417652074503387
15042514 8 17400642619476643738
15420108 30 18059852908812065215
1601671 61 18265339575864341244
16945 1 18122887979367873508
19591789 44 18193842771822800076
20028762 73 17769377463187437871
20511035 2 17983275063948573588
20600515 1 17095245847183619151
20739085 24 18409449219406365384
20905425 154 18340775827558428636
21041028 32 18338230471162412726
21421861 104 18114744828353169026
23184049 29 18192997015093895655
2334 1 18339909481452957820
23558518 356 18044381530326118872
23559900 14 18263638463951243972
2748010 2 18268689676647134772
3060560 45 18196379340562636782
350125 39 18411139109133907656
474 4 18197500847145489355
5283268 108 18337114471144456315
54173680 148 17977665303530138718
5939293 188 18193840581146755873
6443956 14 18407761430561272671
81228 2 17970924262402058899
8809292 202 17690837865639917332
9709674 26 17693929692585526750
9981440 41 17406773719756742512

>  <PUBCHEM_SHAPE_MULTIPOLES>  (1) 
441.9
6.41
4.59
1.09
7.6
1.72
-0.18
-4.31
-1.87
-1.15
0.22
-0.24
0.13
0.68

>  <PUBCHEM_SHAPE_SELFOVERLAP>  (1) 
948.597

>  <PUBCHEM_SHAPE_VOLUME>  (1) 
245.3

>  <PUBCHEM_COORDINATE_TYPE>  (1) 
2
5
10

$$$$
