29269
     RDKit          3D

 16 15  0  0  1  0  0  0  0  0999 V2000
   -5.3612    1.8357    0.4048 O   0  0  0  0  0  0  0  0  0  0  0  0
   -6.3604    0.0895   -0.6384 O   0  0  0  0  0  0  0  0  0  0  0  0
    4.2883    1.8229   -0.8523 O   0  0  0  0  0  0  0  0  0  0  0  0
    5.3895    1.2274    1.0401 O   0  0  0  0  0  0  0  0  0  0  0  0
    2.0795   -0.2946   -0.3037 N   0  0  0  0  0  0  0  0  0  0  0  0
   -4.4961   -1.6788    0.0359 N   0  0  0  0  0  0  0  0  0  0  0  0
    5.6660   -1.3131    0.0333 N   0  0  0  0  0  0  0  0  0  0  0  0
   -1.6702   -0.5819    0.2949 C   0  0  0  0  0  0  0  0  0  0  0  0
   -0.3551   -0.0097   -0.2403 C   0  0  0  0  0  0  0  0  0  0  0  0
   -2.9083    0.2130   -0.1416 C   0  0  0  0  0  0  0  0  0  0  0  0
    0.8354   -0.8578    0.2077 C   0  0  0  0  0  0  0  0  0  0  0  0
   -4.2343   -0.2960    0.4378 C   0  0  0  0  0  0  0  0  0  0  0  0
    3.2230   -1.0878    0.1245 C   0  0  0  0  0  0  0  0  0  0  0  0
    4.5322   -0.5169   -0.4345 C   0  0  0  0  0  0  0  0  0  0  0  0
   -5.4252    0.5388    0.0142 C   0  0  0  0  0  0  0  0  0  0  0  0
    4.7967    0.9094    0.0175 C   0  0  0  0  0  0  0  0  0  0  0  0
  1 15  1  0
  2 15  2  0
  3 16  1  0
  4 16  2  0
  5 11  1  0
  5 13  1  0
  6 12  1  0
  7 14  1  0
  8  9  1  0
  8 10  1  0
  9 11  1  0
 10 12  1  0
 12 15  1  0
 13 14  1  0
 14 16  1  0
M  END
>  <PUBCHEM_COMPOUND_CID>  (1) 
29269

>  <PUBCHEM_CONFORMER_RMSD>  (1) 
0.8

>  <PUBCHEM_CONFORMER_DIVERSEORDER>  (1) 
2
52
249
167
18
397
195
370
267
232
230
92
8
333
107
207
63
22
123
226
95
411
199
184
15
80
133
148
303
250
348
35
404
149
409
416
68
350
142
331
91
159
253
86
64
201
37
185
29
365
270
364
4
190
291
307
118
76
153
268
294
104
386
234
44
60
384
361
187
297
264
300
276
114
176
136
27
360
106
109
156
5
208
392
165
280
182
330
304
227
66
84
323
139
111
7
125
204
26
259
324
100
129
24
1
115
355
160
403
417
366
171
59
237
272
254
193
96
299
120
406
322
246
65
420
157
45
256
261
11
344
240
33
266
122
277
255
383
141
346
374
81
224
354
402
48
94
206
400
155
289
251
183
399
78
117
113
158
162
112
349
20
50
218
373
242
46
54
168
293
42
284
285
85
101
73
362
127
16
257
241
356
90
412
166
382
243
75
47
407
140
77
212
175
130
233
87
146
405
14
337
262
97
258
342
290
177
147
309
389
108
238
72
367
98
213
28
410
57
287
327
271
352
9
216
279
396
319
318
335
371
369
321
3
215
252
236
102
247
62
83
317
263
225
408
308
154
343
53
275
30
248
394
173
220
134
88
203
49
19
69
196
79
170
296
332
377
351
21
51
414
281
328
345
419
269
38
292
347
13
180
103
43
311
161
137
274
192
413
316
222
375
205
12
228
315
368
302
110
244
329
71
131
202
372
338
340
398
298
150
197
135
380
31
387
210
164
418
235
359
179
144
61
217
200
295
379
273
219
41
326
391
282
194
313
119
385
357
89
390
172
229
239
288
189
23
415
116
339
17
143
393
39
121
58
56
305
320
138
191
34
381
388
260
376
265
231
211
325
245
341
128
181
36
70
221
214
186
152
174
145
278
178
93
32
336
314
151
209
25
363
198
301
74
6
353
223
310
312
395
67
126
169
334
401
99
82
105
40
188
132
378
163
306
358
55
283
10
286
124

>  <PUBCHEM_MMFF94_PARTIAL_CHARGES>  (1) 
20
1 -0.65
11 0.27
12 0.33
13 0.27
14 0.33
15 0.66
16 0.66
2 -0.57
26 0.36
3 -0.65
30 0.36
31 0.36
32 0.36
33 0.36
34 0.5
35 0.5
4 -0.57
5 -0.9
6 -0.99
7 -0.99

>  <PUBCHEM_EFFECTIVE_ROTOR_COUNT>  (1) 
9

>  <PUBCHEM_PHARMACOPHORE_FEATURES>  (1) 
12
1 1 acceptor
1 2 acceptor
1 3 acceptor
1 4 acceptor
1 5 cation
1 5 donor
1 6 cation
1 6 donor
1 7 cation
1 7 donor
3 1 2 15 anion
3 3 4 16 anion

>  <PUBCHEM_HEAVY_ATOM_COUNT>  (1) 
16

>  <PUBCHEM_ATOM_DEF_STEREO_COUNT>  (1) 
1

>  <PUBCHEM_ATOM_UDEF_STEREO_COUNT>  (1) 
1

>  <PUBCHEM_BOND_DEF_STEREO_COUNT>  (1) 
0

>  <PUBCHEM_BOND_UDEF_STEREO_COUNT>  (1) 
0

>  <PUBCHEM_ISOTOPIC_ATOM_COUNT>  (1) 
0

>  <PUBCHEM_COMPONENT_COUNT>  (1) 
1

>  <PUBCHEM_CACTVS_TAUTO_COUNT>  (1) 
1

>  <PUBCHEM_CONFORMER_ID>  (1) 
0000725500000002

>  <PUBCHEM_MMFF94_ENERGY>  (1) 
7.2294

>  <PUBCHEM_FEATURE_SELFOVERLAP>  (1) 
61.015

>  <PUBCHEM_SHAPE_FINGERPRINT>  (1) 
11287383 113 18411140255262564738
117890 112 18411983546416159161
13167372 99 18340771438075913488
13533116 47 17604142611099421594
14123238 8 15769777948559888271
14251718 22 17846497045766367415
14251732 16 18337954596986605835
14528608 73 18342458161879529278
16079462 125 18334564738113455853
17834072 33 18202281424475524463
17834076 25 18202281390316272071
17844677 252 18340495481978950317
20281389 69 18260266313887917277
20621476 66 17987526910211200729
21150785 3 16056592201069400521
212847 35 18343302578873860904
220451 1 12612760111520645634
23402539 116 18408602565530677303
23536379 177 18411982442451393107
23590187 198 9295286145268870281
29717793 49 17632302237842182310
300161 21 18040991835157611211
34797466 226 16917074398770926605
42788 4 18412263921907628719
441001 317 18341897360011305201
465052 167 11169907278327756096
5374978 207 17240198842204173076
542803 24 18202284692993076923

>  <PUBCHEM_SHAPE_MULTIPOLES>  (1) 
290.85
17.53
1.5
0.74
4.81
0.33
-0.03
3.55
-0.03
-0.59
-0.03
-0.28
0.13
-0.05

>  <PUBCHEM_SHAPE_SELFOVERLAP>  (1) 
550.39

>  <PUBCHEM_SHAPE_VOLUME>  (1) 
178.6

>  <PUBCHEM_COORDINATE_TYPE>  (1) 
2
5
10

$$$$
