29268
     RDKit          3D

 21 23  0  0  0  0  0  0  0  0999 V2000
   -0.0070   -3.4275   -0.1768 N   0  0  0  0  0  0  0  0  0  0  0  0
   -0.0007    0.6601    0.0350 N   0  0  0  0  0  0  0  0  0  0  0  0
    1.1958   -1.4171   -0.0722 N   0  0  0  0  0  0  0  0  0  0  0  0
   -1.2037   -1.4132   -0.0725 N   0  0  0  0  0  0  0  0  0  0  0  0
   -1.1175   -0.0784   -0.0035 C   0  0  0  0  0  0  0  0  0  0  0  0
    1.1203   -0.0782   -0.0030 C   0  0  0  0  0  0  0  0  0  0  0  0
   -0.0049   -2.0173   -0.1036 C   0  0  0  0  0  0  0  0  0  0  0  0
   -2.3695    0.6460    0.0341 C   0  0  0  0  0  0  0  0  0  0  0  0
    2.3678    0.6387    0.0340 C   0  0  0  0  0  0  0  0  0  0  0  0
   -2.4483    1.9306   -0.5039 C   0  0  0  0  0  0  0  0  0  0  0  0
   -3.4978    0.0598    0.6077 C   0  0  0  0  0  0  0  0  0  0  0  0
    2.4570    1.9265   -0.5044 C   0  0  0  0  0  0  0  0  0  0  0  0
    3.5007    0.0535    0.6090 C   0  0  0  0  0  0  0  0  0  0  0  0
    1.2417   -4.1598   -0.2287 C   0  0  0  0  0  0  0  0  0  0  0  0
   -1.2580   -4.1569   -0.2150 C   0  0  0  0  0  0  0  0  0  0  0  0
   -3.6552    2.6290   -0.4681 C   0  0  0  0  0  0  0  0  0  0  0  0
   -4.7047    0.7582    0.6434 C   0  0  0  0  0  0  0  0  0  0  0  0
    3.6658    2.6216   -0.4685 C   0  0  0  0  0  0  0  0  0  0  0  0
    4.7095    0.7488    0.6451 C   0  0  0  0  0  0  0  0  0  0  0  0
   -4.7833    2.0428    0.1055 C   0  0  0  0  0  0  0  0  0  0  0  0
    4.7920    2.0328    0.1063 C   0  0  0  0  0  0  0  0  0  0  0  0
  1  7  1  0
  1 14  1  0
  1 15  1  0
  2  5  2  0
  2  6  1  0
  3  6  2  0
  3  7  1  0
  4  5  1  0
  4  7  2  0
  5  8  1  0
  6  9  1  0
  8 10  2  0
  8 11  1  0
  9 12  2  0
  9 13  1  0
 10 16  1  0
 11 17  2  0
 12 18  1  0
 13 19  2  0
 16 20  2  0
 17 20  1  0
 18 21  2  0
 19 21  1  0
M  END
>  <PUBCHEM_COMPOUND_CID>  (1) 
29268

>  <PUBCHEM_CONFORMER_RMSD>  (1) 
0.6

>  <PUBCHEM_CONFORMER_DIVERSEORDER>  (1) 
1
2
4
5
3
6

>  <PUBCHEM_MMFF94_PARTIAL_CHARGES>  (1) 
29
1 -0.84
10 -0.15
11 -0.15
12 -0.15
13 -0.15
14 0.37
15 0.37
16 -0.15
17 -0.15
18 -0.15
19 -0.15
2 -0.62
20 -0.15
21 -0.15
22 0.15
23 0.15
24 0.15
25 0.15
3 -0.62
32 0.15
33 0.15
34 0.15
35 0.15
36 0.15
37 0.15
4 -0.62
5 0.62
6 0.62
7 0.72

>  <PUBCHEM_EFFECTIVE_ROTOR_COUNT>  (1) 
3

>  <PUBCHEM_PHARMACOPHORE_FEATURES>  (1) 
4
4 1 3 4 7 cation
6 2 3 4 5 6 7 rings
6 8 10 11 16 17 20 rings
6 9 12 13 18 19 21 rings

>  <PUBCHEM_HEAVY_ATOM_COUNT>  (1) 
21

>  <PUBCHEM_ATOM_DEF_STEREO_COUNT>  (1) 
0

>  <PUBCHEM_ATOM_UDEF_STEREO_COUNT>  (1) 
0

>  <PUBCHEM_BOND_DEF_STEREO_COUNT>  (1) 
0

>  <PUBCHEM_BOND_UDEF_STEREO_COUNT>  (1) 
0

>  <PUBCHEM_ISOTOPIC_ATOM_COUNT>  (1) 
0

>  <PUBCHEM_COMPONENT_COUNT>  (1) 
1

>  <PUBCHEM_CACTVS_TAUTO_COUNT>  (1) 
1

>  <PUBCHEM_CONFORMER_ID>  (1) 
0000725400000001

>  <PUBCHEM_MMFF94_ENERGY>  (1) 
72.2885

>  <PUBCHEM_FEATURE_SELFOVERLAP>  (1) 
20.297

>  <PUBCHEM_SHAPE_FINGERPRINT>  (1) 
11833330 49 17617934072734417107
12107183 9 18336252480504822834
12173636 292 18339075020472464820
12390115 104 18270699652221519193
12592029 89 18337676321380651562
12730499 353 18338528426287236953
12788726 201 17831007289058047978
13004483 165 17691397937971031690
13140716 1 18336827498309445970
13583140 156 16950826072848891681
138480 1 17762338007140384759
13955234 65 18194408779919420035
14123255 52 18410855460133702884
14178000 22 18411415141669499668
14178342 30 18049421937142515896
14508225 48 17478038819081771695
14790565 3 18411425033159368457
15042514 8 18120660394379778251
15230672 131 18335991909487999670
15842332 3 17752196452032149284
15927050 60 18412824690377237030
16087824 20 18050287261611142679
17539 30 17839736303017185399
18222031 100 11458429054540290345
18785283 64 18264208002458759426
19427546 62 18337392648013492729
19591789 44 18411420643675723059
20101258 96 17471305414178515272
20157964 124 18265607677246958861
204376 136 18411983563569687105
21033648 29 18342165692014213272
21049683 271 17902813863473696990
212916 134 18271225189046978984
21524375 3 18333449858744450665
22149856 69 18192460527726741921
22224240 67 18271252715972069641
2255824 54 18125722279773669215
23227448 37 18267868465540821860
23366157 5 18044660802063857883
23558518 356 18117558638108506290
23559900 14 17977099059874754675
266924 87 18269547415517780231
3091708 16 9337366653659781642
335352 9 18410573968915866900
352729 6 18338801233360795015
394222 165 18187922846341290016
458136 41 18340779147736946889
474 4 18339923718974320249
474229 33 18337391638590748155
5104073 3 18333450923991741097
532947 4 18196938773323438878
5385378 56 18268997483572432800
6138700 20 18123194498737393182
621550 34 18262239894373529509
633830 44 18130229250792105325
6443956 14 17905610995432492062
7164475 11 17977664543885351966
7364860 26 18122906426036274703
77188 2 17330556445180952199
7808743 9 18193559089417963624
81228 2 17693076870851711315
9709674 26 18191029998178233211
9925002 15 17829902284156193685
9981440 41 18409730643022830313

>  <PUBCHEM_SHAPE_MULTIPOLES>  (1) 
412.25
9.21
4.71
0.73
0.07
6.64
-0.03
-10.05
-1.46
-0.03
0.95
0
-0.13
0

>  <PUBCHEM_SHAPE_SELFOVERLAP>  (1) 
900.742

>  <PUBCHEM_SHAPE_VOLUME>  (1) 
218.3

>  <PUBCHEM_COORDINATE_TYPE>  (1) 
2
5
10

$$$$
