29279
     RDKit          3D

 25 27  0  0  0  0  0  0  0  0999 V2000
   -1.3060   -0.0748    0.9675 O   0  0  0  0  0  0  0  0  0  0  0  0
    4.2447   -4.0156   -0.2972 O   0  0  0  0  0  0  0  0  0  0  0  0
    5.4442   -2.2117   -0.6522 O   0  0  0  0  0  0  0  0  0  0  0  0
    2.3566    1.5927    0.0080 N   0  0  0  0  0  0  0  0  0  0  0  0
   -5.6542   -1.9097   -0.1299 N   0  0  0  0  0  0  0  0  0  0  0  0
    4.3571   -2.7677   -0.3630 N   0  0  0  0  0  0  0  0  0  0  0  0
   -1.5850    3.5784   -0.3726 C   0  0  0  0  0  0  0  0  0  0  0  0
   -1.1662    2.7533    0.8444 C   0  0  0  0  0  0  0  0  0  0  0  0
   -0.7238    4.8185   -0.6085 C   0  0  0  0  0  0  0  0  0  0  0  0
    0.0250    1.8747    0.5778 C   0  0  0  0  0  0  0  0  0  0  0  0
    0.7325    4.5305   -0.9716 C   0  0  0  0  0  0  0  0  0  0  0  0
    1.5272    3.8664    0.1514 C   0  0  0  0  0  0  0  0  0  0  0  0
    1.2790    2.3849    0.2536 C   0  0  0  0  0  0  0  0  0  0  0  0
   -0.0967    0.4846    0.6533 C   0  0  0  0  0  0  0  0  0  0  0  0
    1.0004   -0.3494    0.4047 C   0  0  0  0  0  0  0  0  0  0  0  0
    2.2260    0.2563    0.0799 C   0  0  0  0  0  0  0  0  0  0  0  0
   -2.1775   -0.3705   -0.1182 C   0  0  0  0  0  0  0  0  0  0  0  0
   -3.4509   -1.0002    0.4301 C   0  0  0  0  0  0  0  0  0  0  0  0
    0.8959   -1.7496    0.4728 C   0  0  0  0  0  0  0  0  0  0  0  0
    3.3202   -0.5678   -0.1695 C   0  0  0  0  0  0  0  0  0  0  0  0
   -4.4380   -1.3285   -0.6853 C   0  0  0  0  0  0  0  0  0  0  0  0
    3.2189   -1.9595   -0.1027 C   0  0  0  0  0  0  0  0  0  0  0  0
    2.0044   -2.5520    0.2191 C   0  0  0  0  0  0  0  0  0  0  0  0
   -5.3748   -3.1832    0.5859 C   0  0  0  0  0  0  0  0  0  0  0  0
   -6.6589   -2.1001   -1.1780 C   0  0  0  0  0  0  0  0  0  0  0  0
  1 14  1  0
  1 17  1  0
  2  6  1  0
  3  6  2  0
  4 13  2  0
  4 16  1  0
  5 21  1  0
  5 24  1  0
  5 25  1  0
  6 22  1  0
  7  8  1  0
  7  9  1  0
  8 10  1  0
  9 11  1  0
 10 13  1  0
 10 14  2  0
 11 12  1  0
 12 13  1  0
 14 15  1  0
 15 16  2  0
 15 19  1  0
 16 20  1  0
 17 18  1  0
 18 21  1  0
 19 23  2  0
 20 22  2  0
 22 23  1  0
M  CHG  2   2  -1   6   1
M  END
>  <PUBCHEM_COMPOUND_CID>  (1) 
29279

>  <PUBCHEM_CONFORMER_RMSD>  (1) 
0.8

>  <PUBCHEM_CONFORMER_DIVERSEORDER>  (1) 
1
46
40
41
49
50
2
52
26
22
32
25
37
21
24
7
47
33
20
13
44
43
28
42
39
19
4
48
31
51
38
18
29
11
35
14
36
12
45
5
9
8
6
23
34
16
3
27
30
10
15
17

>  <PUBCHEM_MMFF94_PARTIAL_CHARGES>  (1) 
23
1 -0.36
10 -0.14
12 0.14
13 0.17
14 0.08
16 0.31
17 0.28
19 -0.15
2 -0.52
20 -0.15
21 0.27
22 0.13
23 -0.15
24 0.27
25 0.27
3 -0.52
4 -0.62
40 0.15
41 0.15
44 0.15
5 -0.81
6 0.91
8 0.14

>  <PUBCHEM_EFFECTIVE_ROTOR_COUNT>  (1) 
7

>  <PUBCHEM_PHARMACOPHORE_FEATURES>  (1) 
9
1 1 acceptor
1 2 acceptor
1 2 anion
1 3 acceptor
1 4 acceptor
1 5 cation
6 15 16 19 20 22 23 rings
6 4 10 13 14 15 16 rings
7 7 8 9 10 11 12 13 rings

>  <PUBCHEM_HEAVY_ATOM_COUNT>  (1) 
25

>  <PUBCHEM_ATOM_DEF_STEREO_COUNT>  (1) 
0

>  <PUBCHEM_ATOM_UDEF_STEREO_COUNT>  (1) 
0

>  <PUBCHEM_BOND_DEF_STEREO_COUNT>  (1) 
0

>  <PUBCHEM_BOND_UDEF_STEREO_COUNT>  (1) 
0

>  <PUBCHEM_ISOTOPIC_ATOM_COUNT>  (1) 
0

>  <PUBCHEM_COMPONENT_COUNT>  (1) 
1

>  <PUBCHEM_CACTVS_TAUTO_COUNT>  (1) 
1

>  <PUBCHEM_CONFORMER_ID>  (1) 
0000725F00000001

>  <PUBCHEM_MMFF94_ENERGY>  (1) 
76.4409

>  <PUBCHEM_FEATURE_SELFOVERLAP>  (1) 
45.793

>  <PUBCHEM_SHAPE_FINGERPRINT>  (1) 
10254770 206 15812841051639364163
10411042 1 18410856533965483586
10622 236 17486751238242911319
10693767 8 18057898016024272158
11014199 57 18410295765865738245
11045515 52 18335705988027568977
11135609 149 18196904813016685575
12107183 9 18271539598455238779
12730499 353 17831303062254667195
12788726 201 17900541177360340139
13009979 54 17988939859450166203
13140716 1 18196942076221790056
13690498 29 17907888122832352790
138480 1 14590958108864324513
13911987 19 17900846025881904740
13955234 65 18126566966738647435
14114211 80 17109338520468757797
14251757 5 18120365455028338805
14508225 48 18410291385215231333
14790565 3 17042894482867195928
15042514 8 18051419461131559137
16087824 20 17977107856380461313
16728300 4 17536548046697247024
17539 30 18194117408963447557
1813 80 18201450167962868055
19427546 20 18120385250711999534
20645477 70 18191862534385812291
20775438 99 17833502970168669901
21344244 181 17046549267616455213
21478907 32 18339361859995157771
21703447 108 18339064996646849042
22033318 11 17983614929617480899
22849339 104 17548998658286476790
23559900 14 18265044916224339859
255183 451 18342459270519623503
3060560 45 17978226385410565845
3103668 31 18046061567636587821
3380486 145 18194139442389017008
3421961 26 18341329002366971571
4017518 198 16176206580649785619
46194498 28 18042955666230498285
6443956 14 18335980977920167389
70251023 43 18410013234527494315
7164475 11 18336834074373270364
7970288 3 18341329985562145766

>  <PUBCHEM_SHAPE_MULTIPOLES>  (1) 
481.94
10.38
6.76
0.89
18.66
5.87
0.03
-16.28
2.98
-5.13
1.41
0.46
0.15
0.38

>  <PUBCHEM_SHAPE_SELFOVERLAP>  (1) 
1020.258

>  <PUBCHEM_SHAPE_VOLUME>  (1) 
269.7

>  <PUBCHEM_COORDINATE_TYPE>  (1) 
2
5
10

$$$$
