29276
     RDKit          3D

 24 26  0  0  1  0  0  0  0  0999 V2000
    3.2223    3.4658   -0.0226 Cl  0  0  0  0  0  0  0  0  0  0  0  0
    0.4718   -1.0169    0.6549 O   0  0  0  0  0  0  0  0  0  0  0  0
   -2.4383    1.8584    0.0408 N   0  0  0  0  0  0  0  0  0  0  0  0
    3.8846   -0.9950   -0.3554 N   0  0  0  0  0  0  0  0  0  0  0  0
   -2.2258   -1.8824    0.6855 C   0  0  0  0  0  0  0  0  0  0  0  0
   -1.8424   -0.4464    0.4566 C   0  0  0  0  0  0  0  0  0  0  0  0
   -2.9432   -2.5080   -0.5109 C   0  0  0  0  0  0  0  0  0  0  0  0
   -4.4204   -2.1308   -0.6158 C   0  0  0  0  0  0  0  0  0  0  0  0
   -4.6887   -0.6513   -0.8892 C   0  0  0  0  0  0  0  0  0  0  0  0
   -4.2603    0.2726    0.2495 C   0  0  0  0  0  0  0  0  0  0  0  0
   -2.7822    0.5599    0.2517 C   0  0  0  0  0  0  0  0  0  0  0  0
   -0.4961   -0.0719    0.4460 C   0  0  0  0  0  0  0  0  0  0  0  0
    2.0739   -2.6766   -0.0867 C   0  0  0  0  0  0  0  0  0  0  0  0
    0.9830   -1.6775   -0.4976 C   0  0  0  0  0  0  0  0  0  0  0  0
   -0.1202    1.2598    0.2314 C   0  0  0  0  0  0  0  0  0  0  0  0
    3.2887   -1.9760    0.5454 C   0  0  0  0  0  0  0  0  0  0  0  0
   -1.1393    2.2058    0.0296 C   0  0  0  0  0  0  0  0  0  0  0  0
    1.5138   -3.7168    0.8914 C   0  0  0  0  0  0  0  0  0  0  0  0
    1.2289    1.6544    0.2144 C   0  0  0  0  0  0  0  0  0  0  0  0
   -0.7718    3.5315   -0.1850 C   0  0  0  0  0  0  0  0  0  0  0  0
    1.5707    2.9862   -0.0023 C   0  0  0  0  0  0  0  0  0  0  0  0
    0.5681    3.9262   -0.2024 C   0  0  0  0  0  0  0  0  0  0  0  0
    4.2933   -1.6296   -1.6094 C   0  0  0  0  0  0  0  0  0  0  0  0
    5.0297   -0.3415    0.2803 C   0  0  0  0  0  0  0  0  0  0  0  0
  1 21  1  0
  2 12  1  0
  2 14  1  0
  3 11  2  0
  3 17  1  0
  4 16  1  0
  4 23  1  0
  4 24  1  0
  5  6  1  0
  5  7  1  0
  6 11  1  0
  6 12  2  0
  7  8  1  0
  8  9  1  0
  9 10  1  0
 10 11  1  0
 12 15  1  0
 13 14  1  0
 13 16  1  0
 13 18  1  0
 15 17  2  0
 15 19  1  0
 17 20  1  0
 19 21  2  0
 20 22  2  0
 21 22  1  0
M  END
>  <PUBCHEM_COMPOUND_CID>  (1) 
29276

>  <PUBCHEM_CONFORMER_RMSD>  (1) 
0.8

>  <PUBCHEM_CONFORMER_DIVERSEORDER>  (1) 
2
27
38
6
36
33
30
39
32
37
13
1
35
19
31
8
22
15
10
4
16
21
20
5
3
18
17
9
28
34
25
23
26
14
11
29
12
7
24

>  <PUBCHEM_MMFF94_PARTIAL_CHARGES>  (1) 
21
1 -0.18
10 0.14
11 0.17
12 0.08
14 0.28
16 0.27
17 0.31
19 -0.15
2 -0.36
20 -0.15
21 0.18
22 -0.15
23 0.27
24 0.27
3 -0.62
4 -0.81
43 0.15
44 0.15
5 0.14
51 0.15
6 -0.14

>  <PUBCHEM_EFFECTIVE_ROTOR_COUNT>  (1) 
6

>  <PUBCHEM_PHARMACOPHORE_FEATURES>  (1) 
7
1 18 hydrophobe
1 2 acceptor
1 3 acceptor
1 4 cation
6 15 17 19 20 21 22 rings
6 3 6 11 12 15 17 rings
7 5 6 7 8 9 10 11 rings

>  <PUBCHEM_HEAVY_ATOM_COUNT>  (1) 
24

>  <PUBCHEM_ATOM_DEF_STEREO_COUNT>  (1) 
0

>  <PUBCHEM_ATOM_UDEF_STEREO_COUNT>  (1) 
1

>  <PUBCHEM_BOND_DEF_STEREO_COUNT>  (1) 
0

>  <PUBCHEM_BOND_UDEF_STEREO_COUNT>  (1) 
0

>  <PUBCHEM_ISOTOPIC_ATOM_COUNT>  (1) 
0

>  <PUBCHEM_COMPONENT_COUNT>  (1) 
1

>  <PUBCHEM_CACTVS_TAUTO_COUNT>  (1) 
1

>  <PUBCHEM_CONFORMER_ID>  (1) 
0000725C00000002

>  <PUBCHEM_MMFF94_ENERGY>  (1) 
69.0825

>  <PUBCHEM_FEATURE_SELFOVERLAP>  (1) 
35.56

>  <PUBCHEM_SHAPE_FINGERPRINT>  (1) 
10498660 4 18338519612851075022
10670039 82 18191041032223601766
10693767 8 18057882635361841455
10967382 1 18337954592227505929
1100329 8 18410013268649933507
11578080 2 17097185299832522564
12173636 292 17617373979034507004
12553582 1 18337956692709256243
12788726 201 18118406137670583730
13004483 165 18121205498865410427
13140716 1 18338247058067601953
138480 1 18410572915731306016
14081887 123 18195517104682872282
14790565 3 17832710440948865197
15927050 60 17763465410807871190
19591789 44 16897085539682193963
19930381 70 18337670918580857048
20028762 73 17118888886450698407
20642791 35 18411142398361607177
20775438 99 17761722444349395453
23557571 272 18057046809435964990
23559900 14 18340194289176636129
25147074 1 17988087807201616747
266924 87 18338233894251815461
3298306 158 17977389665635692100
34934 24 18337952277419650347
352729 6 17257094194962758704
4280585 95 18411125931594300142
463206 1 18337961180717686078
532947 4 18267305524398614580
6138700 20 18338237197513974764
6443956 14 18337107964074090204
7164475 11 18049156675171994666
7364860 26 18338796835609488233
9709674 26 18191865845763425323

>  <PUBCHEM_SHAPE_MULTIPOLES>  (1) 
479.95
8.35
5.28
0.91
0.53
2.71
0.16
-4.51
1.85
-3.29
-0.03
-0.26
-0.49
-0.14

>  <PUBCHEM_SHAPE_SELFOVERLAP>  (1) 
1003.261

>  <PUBCHEM_SHAPE_VOLUME>  (1) 
273.4

>  <PUBCHEM_COORDINATE_TYPE>  (1) 
2
5
10

$$$$
