2927
     RDKit          3D

 13 12  0  0  1  0  0  0  0  0999 V2000
   -3.8626    0.1085    0.1788 P   0  0  0  0  0  0  0  0  0  0  0  0
   -4.9854   -0.7408   -0.6013 O   0  0  0  0  0  0  0  0  0  0  0  0
   -3.8542    1.5301   -0.5762 O   0  0  0  0  0  0  0  0  0  0  0  0
   -3.9810    0.1512    1.6613 O   0  0  0  0  0  0  0  0  0  0  0  0
    3.8893    1.7022   -0.3590 O   0  0  0  0  0  0  0  0  0  0  0  0
    4.8560   -0.0122    0.7680 O   0  0  0  0  0  0  0  0  0  0  0  0
    2.9766   -1.7959   -0.0342 N   0  0  0  0  0  0  0  0  0  0  0  0
    0.1931   -0.5468   -0.4161 C   0  0  0  0  0  0  0  0  0  0  0  0
   -1.0962    0.0973    0.0923 C   0  0  0  0  0  0  0  0  0  0  0  0
    1.4612    0.1550    0.0861 C   0  0  0  0  0  0  0  0  0  0  0  0
   -2.3278   -0.6497   -0.4035 C   0  0  0  0  0  0  0  0  0  0  0  0
    2.7808   -0.4094   -0.4576 C   0  0  0  0  0  0  0  0  0  0  0  0
    3.9500    0.4105    0.0616 C   0  0  0  0  0  0  0  0  0  0  0  0
  1  2  1  0
  1  3  1  0
  1  4  2  0
  1 11  1  0
  5 13  1  0
  6 13  2  0
  7 12  1  0
  8  9  1  0
  8 10  1  0
  9 11  1  0
 10 12  1  0
 12 13  1  0
M  END
>  <PUBCHEM_COMPOUND_CID>  (1) 
2927

>  <PUBCHEM_CONFORMER_RMSD>  (1) 
0.6

>  <PUBCHEM_CONFORMER_DIVERSEORDER>  (1) 
8
127
25
112
12
68
125
20
111
71
103
89
19
109
43
61
5
108
84
32
10
93
17
104
123
26
129
133
2
98
87
122
27
78
4
120
117
65
56
22
115
116
35
55
18
76
124
85
28
79
72
105
101
42
114
106
94
64
39
14
121
91
9
24
6
70
96
30
97
62
44
13
95
53
128
31
41
66
113
77
45
90
63
132
29
52
74
3
21
88
130
33
69
36
131
50
1
83
110
15
40
23
11
54
86
119
59
100
107
7
38
47
73
99
37
51
49
102
92
48
16
34
81
75
57
46
82
126
60
67
58
118
80

>  <PUBCHEM_MMFF94_PARTIAL_CHARGES>  (1) 
14
1 1.24
12 0.33
13 0.66
2 -0.77
23 0.36
24 0.36
25 0.5
26 0.5
27 0.5
3 -0.77
4 -0.7
5 -0.65
6 -0.57
7 -0.99

>  <PUBCHEM_EFFECTIVE_ROTOR_COUNT>  (1) 
6

>  <PUBCHEM_PHARMACOPHORE_FEATURES>  (1) 
9
1 2 acceptor
1 3 acceptor
1 4 acceptor
1 5 acceptor
1 6 acceptor
1 7 cation
1 7 donor
3 5 6 13 anion
4 1 2 3 4 anion

>  <PUBCHEM_HEAVY_ATOM_COUNT>  (1) 
13

>  <PUBCHEM_ATOM_DEF_STEREO_COUNT>  (1) 
0

>  <PUBCHEM_ATOM_UDEF_STEREO_COUNT>  (1) 
1

>  <PUBCHEM_BOND_DEF_STEREO_COUNT>  (1) 
0

>  <PUBCHEM_BOND_UDEF_STEREO_COUNT>  (1) 
0

>  <PUBCHEM_ISOTOPIC_ATOM_COUNT>  (1) 
0

>  <PUBCHEM_COMPONENT_COUNT>  (1) 
1

>  <PUBCHEM_CACTVS_TAUTO_COUNT>  (1) 
1

>  <PUBCHEM_CONFORMER_ID>  (1) 
00000B6F00000008

>  <PUBCHEM_MMFF94_ENERGY>  (1) 
-23.0012

>  <PUBCHEM_FEATURE_SELFOVERLAP>  (1) 
45.767

>  <PUBCHEM_SHAPE_FINGERPRINT>  (1) 
10680689 15 18334301954966097663
10912923 1 18060139834212875315
114248 4 14549018801190891682
13675066 3 18040721346300814975
14123238 8 18202563994842903967
14251718 22 17632290220217726375
14252887 29 17894916209116947938
15239154 128 18343586234960962113
17834072 33 18271802479716677783
17834076 25 17346599685819129942
18186145 218 18201166468124305134
190213 19 17240488000566126903
20279233 1 18040158417685346491
20645477 70 18341611460817755918
20828058 21 15841555175664476791
20828058 44 16081090385303775299
22485316 2 18411134723450182535
23402539 116 18260258668898702943
23402655 69 18060138739064591716
23532345 1 18335140899222534794
42 15 16081082667411022698
449060 50 18409171029878929350
90127 26 18261965058830403369

>  <PUBCHEM_SHAPE_MULTIPOLES>  (1) 
237.06
11.34
1.25
0.89
1.6
0.08
-0.25
1.45
-0.94
-0.59
0.19
0.65
0.06
-0.19

>  <PUBCHEM_SHAPE_SELFOVERLAP>  (1) 
431.482

>  <PUBCHEM_SHAPE_VOLUME>  (1) 
150.7

>  <PUBCHEM_COORDINATE_TYPE>  (1) 
2
5
10

$$$$
