29287
     RDKit          3D

 23 25  0  0  0  0  0  0  0  0999 V2000
   -0.6265   -0.6512    1.7015 S   0  0  0  0  0  0  0  0  0  0  0  0
    3.3275    0.1206   -0.5037 N   0  0  0  0  0  0  0  0  0  0  0  0
   -4.1276   -0.7018   -0.3375 N   0  0  0  0  0  0  0  0  0  0  0  0
    0.1087    3.0870    0.1779 C   0  0  0  0  0  0  0  0  0  0  0  0
    0.6185    2.1280    1.2539 C   0  0  0  0  0  0  0  0  0  0  0  0
    1.1650    4.0664   -0.3322 C   0  0  0  0  0  0  0  0  0  0  0  0
    1.4105    0.9799    0.6912 C   0  0  0  0  0  0  0  0  0  0  0  0
    2.3308    3.4221   -1.0817 C   0  0  0  0  0  0  0  0  0  0  0  0
    3.2035    2.5237   -0.2072 C   0  0  0  0  0  0  0  0  0  0  0  0
    2.6115    1.1565    0.0097 C   0  0  0  0  0  0  0  0  0  0  0  0
    0.9519   -0.3313    0.8438 C   0  0  0  0  0  0  0  0  0  0  0  0
    1.6739   -1.4125    0.3235 C   0  0  0  0  0  0  0  0  0  0  0  0
    2.8738   -1.1363   -0.3538 C   0  0  0  0  0  0  0  0  0  0  0  0
   -1.7792   -0.5479    0.3138 C   0  0  0  0  0  0  0  0  0  0  0  0
   -3.2060   -0.7872    0.7915 C   0  0  0  0  0  0  0  0  0  0  0  0
    1.2264   -2.7376    0.4645 C   0  0  0  0  0  0  0  0  0  0  0  0
    3.5956   -2.2071   -0.8744 C   0  0  0  0  0  0  0  0  0  0  0  0
   -4.0461    0.6219   -1.0090 C   0  0  0  0  0  0  0  0  0  0  0  0
   -5.4950   -0.9962    0.0937 C   0  0  0  0  0  0  0  0  0  0  0  0
    1.9659   -3.7910   -0.0651 C   0  0  0  0  0  0  0  0  0  0  0  0
    3.1529   -3.5249   -0.7358 C   0  0  0  0  0  0  0  0  0  0  0  0
   -4.4827    1.7404   -0.0856 C   0  0  0  0  0  0  0  0  0  0  0  0
   -6.4533   -1.0214   -1.0791 C   0  0  0  0  0  0  0  0  0  0  0  0
  1 11  1  0
  1 14  1  0
  2 10  2  0
  2 13  1  0
  3 15  1  0
  3 18  1  0
  3 19  1  0
  4  5  1  0
  4  6  1  0
  5  7  1  0
  6  8  1  0
  7 10  1  0
  7 11  2  0
  8  9  1  0
  9 10  1  0
 11 12  1  0
 12 13  2  0
 12 16  1  0
 13 17  1  0
 14 15  1  0
 16 20  2  0
 17 21  2  0
 18 22  1  0
 19 23  1  0
 20 21  1  0
M  END
>  <PUBCHEM_COMPOUND_CID>  (1) 
29287

>  <PUBCHEM_CONFORMER_RMSD>  (1) 
0.8

>  <PUBCHEM_CONFORMER_DIVERSEORDER>  (1) 
1
82
69
61
83
41
30
44
79
74
72
26
53
16
73
56
80
47
62
54
34
42
58
50
38
25
63
35
68
6
52
40
65
60
12
71
46
27
76
70
37
55
8
77
29
67
20
31
59
48
33
18
19
17
24
7
49
64
10
14
78
32
43
57
36
23
3
9
75
11
66
4
5
81
2
21
51
22
45
28
15
13
39

>  <PUBCHEM_MMFF94_PARTIAL_CHARGES>  (1) 
21
1 -0.33
10 0.17
11 0.1
13 0.31
14 0.23
15 0.27
16 -0.15
17 -0.15
18 0.27
19 0.27
2 -0.62
20 -0.15
21 -0.15
3 -0.81
38 0.15
43 0.15
44 0.15
45 0.15
5 0.14
7 -0.14
9 0.14

>  <PUBCHEM_EFFECTIVE_ROTOR_COUNT>  (1) 
7

>  <PUBCHEM_PHARMACOPHORE_FEATURES>  (1) 
5
1 2 acceptor
1 3 cation
6 12 13 16 17 20 21 rings
6 2 7 10 11 12 13 rings
7 4 5 6 7 8 9 10 rings

>  <PUBCHEM_HEAVY_ATOM_COUNT>  (1) 
23

>  <PUBCHEM_ATOM_DEF_STEREO_COUNT>  (1) 
0

>  <PUBCHEM_ATOM_UDEF_STEREO_COUNT>  (1) 
0

>  <PUBCHEM_BOND_DEF_STEREO_COUNT>  (1) 
0

>  <PUBCHEM_BOND_UDEF_STEREO_COUNT>  (1) 
0

>  <PUBCHEM_ISOTOPIC_ATOM_COUNT>  (1) 
0

>  <PUBCHEM_COMPONENT_COUNT>  (1) 
1

>  <PUBCHEM_CACTVS_TAUTO_COUNT>  (1) 
1

>  <PUBCHEM_CONFORMER_ID>  (1) 
0000726700000001

>  <PUBCHEM_MMFF94_ENERGY>  (1) 
62.5912

>  <PUBCHEM_FEATURE_SELFOVERLAP>  (1) 
25.412

>  <PUBCHEM_SHAPE_FINGERPRINT>  (1) 
10498660 4 17458610191516849053
10693767 8 18131362899294892518
10764073 3 17474052750149987992
10930396 42 18263901330143281202
116883 192 18051130289731650994
12553582 1 18122082921987092914
12730499 353 18264213685080216083
12788726 201 17613722509403343083
13009979 54 17774168877199365595
13533116 47 18342735256939124903
1361 2 17905601456837479551
138480 1 18410295765976534028
13911987 19 18191894373083788468
14251757 5 17760367691325653853
14537116 161 17686587210355688917
15210252 30 17968669202713847932
17818456 19 17558843793092328649
17844677 252 18411424986599776803
17980427 26 16376047767433089680
20642791 105 17693653032662495146
20645477 70 18410291419517207331
20775438 99 17615645632539484436
21304303 282 16763352984025392040
221357 26 18409164377644507351
22289505 5 18336536162620268277
23379529 103 17839182904939057695
23559900 14 18411971482433468467
238 59 18265617769591364187
25222932 49 15982822736505224671
266924 87 18338245873268908276
2748010 2 17764623154034704514
3060560 45 18339922739700417818
4280585 95 18120649137370501490
46194498 28 18334292093805582367
5281201 14 18408886218166355847
6287921 2 18189058766760138149
6443956 14 18336551525454308180
7164475 11 17832708967980447202
9709674 26 18407761452268276363

>  <PUBCHEM_SHAPE_MULTIPOLES>  (1) 
467.22
9.86
5.05
1.16
20.74
1.59
-0.19
-3.78
3.97
-6.33
1.07
0.23
0.01
0.17

>  <PUBCHEM_SHAPE_SELFOVERLAP>  (1) 
964.485

>  <PUBCHEM_SHAPE_VOLUME>  (1) 
269

>  <PUBCHEM_COORDINATE_TYPE>  (1) 
2
5
10

$$$$
