29294
     RDKit          3D

 24 26  0  0  0  0  0  0  0  0999 V2000
    3.1591   -5.0871   -0.0113 Cl  0  0  0  0  0  0  0  0  0  0  0  0
   -0.9295    0.3920    1.5205 S   0  0  0  0  0  0  0  0  0  0  0  0
    2.9718   -0.0875   -0.8545 N   0  0  0  0  0  0  0  0  0  0  0  0
   -4.5058    0.0695   -0.3568 N   0  0  0  0  0  0  0  0  0  0  0  0
    1.4742    3.6901    0.9096 C   0  0  0  0  0  0  0  0  0  0  0  0
    0.5883    2.6966    0.1576 C   0  0  0  0  0  0  0  0  0  0  0  0
    2.5816    4.3052    0.0549 C   0  0  0  0  0  0  0  0  0  0  0  0
    1.2221    1.3415    0.0038 C   0  0  0  0  0  0  0  0  0  0  0  0
    3.6431    3.3183   -0.4294 C   0  0  0  0  0  0  0  0  0  0  0  0
    3.1094    2.2698   -1.4037 C   0  0  0  0  0  0  0  0  0  0  0  0
    2.3946    1.1362   -0.7178 C   0  0  0  0  0  0  0  0  0  0  0  0
    0.6331    0.2199    0.5940 C   0  0  0  0  0  0  0  0  0  0  0  0
    1.2104   -1.0492    0.4646 C   0  0  0  0  0  0  0  0  0  0  0  0
    2.3978   -1.1584   -0.2785 C   0  0  0  0  0  0  0  0  0  0  0  0
   -2.1269    0.1581    0.1877 C   0  0  0  0  0  0  0  0  0  0  0  0
   -3.5478    0.2605    0.7281 C   0  0  0  0  0  0  0  0  0  0  0  0
    0.6340   -2.1879    1.0542 C   0  0  0  0  0  0  0  0  0  0  0  0
    2.9776   -2.4175   -0.4094 C   0  0  0  0  0  0  0  0  0  0  0  0
   -5.9066    0.1983    0.1238 C   0  0  0  0  0  0  0  0  0  0  0  0
   -4.2855   -1.2195   -1.0143 C   0  0  0  0  0  0  0  0  0  0  0  0
    1.2327   -3.4359    0.9089 C   0  0  0  0  0  0  0  0  0  0  0  0
    2.4070   -3.5505    0.1756 C   0  0  0  0  0  0  0  0  0  0  0  0
   -6.1393    1.5311    0.8050 C   0  0  0  0  0  0  0  0  0  0  0  0
   -5.1954   -1.3938   -2.2126 C   0  0  0  0  0  0  0  0  0  0  0  0
  1 22  1  0
  2 12  1  0
  2 15  1  0
  3 11  2  0
  3 14  1  0
  4 16  1  0
  4 19  1  0
  4 20  1  0
  5  6  1  0
  5  7  1  0
  6  8  1  0
  7  9  1  0
  8 11  1  0
  8 12  2  0
  9 10  1  0
 10 11  1  0
 12 13  1  0
 13 14  2  0
 13 17  1  0
 14 18  1  0
 15 16  1  0
 17 21  2  0
 18 22  2  0
 19 23  1  0
 20 24  1  0
 21 22  1  0
M  END
>  <PUBCHEM_COMPOUND_CID>  (1) 
29294

>  <PUBCHEM_CONFORMER_RMSD>  (1) 
0.8

>  <PUBCHEM_CONFORMER_DIVERSEORDER>  (1) 
4
76
58
48
75
59
66
60
44
47
39
29
68
25
43
56
62
46
71
15
41
74
69
23
22
63
16
64
52
42
14
55
21
77
40
37
9
72
38
51
65
50
54
32
13
11
78
53
67
35
70
28
31
27
61
34
20
49
2
30
19
57
36
33
12
5
24
10
1
6
73
8
7
17
45
18
26
3

>  <PUBCHEM_MMFF94_PARTIAL_CHARGES>  (1) 
21
1 -0.18
10 0.14
11 0.17
12 0.1
14 0.31
15 0.23
16 0.27
17 -0.15
18 -0.15
19 0.27
2 -0.33
20 0.27
21 -0.15
22 0.18
3 -0.62
39 0.15
4 -0.81
44 0.15
45 0.15
6 0.14
8 -0.14

>  <PUBCHEM_EFFECTIVE_ROTOR_COUNT>  (1) 
7

>  <PUBCHEM_PHARMACOPHORE_FEATURES>  (1) 
5
1 3 acceptor
1 4 cation
6 13 14 17 18 21 22 rings
6 3 8 11 12 13 14 rings
7 5 6 7 8 9 10 11 rings

>  <PUBCHEM_HEAVY_ATOM_COUNT>  (1) 
24

>  <PUBCHEM_ATOM_DEF_STEREO_COUNT>  (1) 
0

>  <PUBCHEM_ATOM_UDEF_STEREO_COUNT>  (1) 
0

>  <PUBCHEM_BOND_DEF_STEREO_COUNT>  (1) 
0

>  <PUBCHEM_BOND_UDEF_STEREO_COUNT>  (1) 
0

>  <PUBCHEM_ISOTOPIC_ATOM_COUNT>  (1) 
0

>  <PUBCHEM_COMPONENT_COUNT>  (1) 
1

>  <PUBCHEM_CACTVS_TAUTO_COUNT>  (1) 
1

>  <PUBCHEM_CONFORMER_ID>  (1) 
0000726E00000004

>  <PUBCHEM_MMFF94_ENERGY>  (1) 
62.9998

>  <PUBCHEM_FEATURE_SELFOVERLAP>  (1) 
25.412

>  <PUBCHEM_SHAPE_FINGERPRINT>  (1) 
10411042 1 17976826384859467322
10622 236 17987493997813748631
10693767 8 18201732712866529278
10764073 3 13195898159353626681
1100329 8 18337956796405389962
12107183 9 18055079753470243969
12730499 353 18262813981029170625
12769317 202 18338513144308859609
12788726 201 17252584578170719963
13004483 165 17761486998083423643
13009979 54 17843973528767401539
13140716 1 18122096275651826074
13533116 47 18410571800136860175
13726171 33 17201937023137451353
138480 1 18337675191935997722
13955234 65 18409454686910023427
15250474 111 18201990071844628079
15664445 248 18199764547838837494
15842332 3 18059587858196054481
16989713 51 17406550312902320006
17818456 19 17773036346322311145
17980427 26 18199453540757001604
1813 80 18055642706953845135
21054139 6 18057030531135100639
21478907 32 17833273017007211395
22033318 11 17624450514035244089
22393880 68 18129950108204305781
22907989 373 16822218693308730756
23559900 14 18409449172061706723
238 59 18337676433113136971
46194498 28 17749116560737534511
463206 1 18336831883851110059
59444896 2 17410733211815734582
5969126 39 17905043652097564922
7471813 234 18267022752273065938

>  <PUBCHEM_SHAPE_MULTIPOLES>  (1) 
489.67
10.39
6.1
1.32
23.86
1.64
-0.34
0.04
-2.95
-10.9
0.4
1.05
0.14
-1.94

>  <PUBCHEM_SHAPE_SELFOVERLAP>  (1) 
1002.267

>  <PUBCHEM_SHAPE_VOLUME>  (1) 
285.5

>  <PUBCHEM_COORDINATE_TYPE>  (1) 
2
5
10

$$$$
