2929
     RDKit          3D

 28 31  0  0  0  0  0  0  0  0999 V2000
    3.6015    5.1845    1.4994 Cl  0  0  0  0  0  0  0  0  0  0  0  0
   -1.5817   -3.2010    0.8928 O   0  0  0  0  0  0  0  0  0  0  0  0
   -2.9861   -1.8675   -1.3934 O   0  0  0  0  0  0  0  0  0  0  0  0
    1.7026   -0.6667   -1.0699 N   0  0  0  0  0  0  0  0  0  0  0  0
   -2.9053   -0.4914    0.5345 N   0  0  0  0  0  0  0  0  0  0  0  0
   -6.1509    2.1185    0.0756 N   0  0  0  0  0  0  0  0  0  0  0  0
    2.2944   -1.6745   -0.3424 C   0  0  0  0  0  0  0  0  0  0  0  0
    1.2664   -2.4187    0.2404 C   0  0  0  0  0  0  0  0  0  0  0  0
    2.4038    0.3405   -1.8365 C   0  0  0  0  0  0  0  0  0  0  0  0
    0.0389   -1.8225   -0.1627 C   0  0  0  0  0  0  0  0  0  0  0  0
    0.3397   -0.7480   -0.9676 C   0  0  0  0  0  0  0  0  0  0  0  0
    3.6473   -1.9812   -0.1576 C   0  0  0  0  0  0  0  0  0  0  0  0
    2.7049    1.5555   -1.0012 C   0  0  0  0  0  0  0  0  0  0  0  0
    1.6027   -3.5235    1.0477 C   0  0  0  0  0  0  0  0  0  0  0  0
   -1.2958   -2.2269    0.1765 C   0  0  0  0  0  0  0  0  0  0  0  0
    3.9567   -3.0814    0.6471 C   0  0  0  0  0  0  0  0  0  0  0  0
    2.9518   -3.8422    1.2414 C   0  0  0  0  0  0  0  0  0  0  0  0
    3.8979    1.6215   -0.2944 C   0  0  0  0  0  0  0  0  0  0  0  0
    1.7848    2.5938   -0.9476 C   0  0  0  0  0  0  0  0  0  0  0  0
   -2.5201   -1.4939   -0.3300 C   0  0  0  0  0  0  0  0  0  0  0  0
    4.1761    2.7473    0.4808 C   0  0  0  0  0  0  0  0  0  0  0  0
    2.0631    3.7194   -0.1724 C   0  0  0  0  0  0  0  0  0  0  0  0
    3.2588    3.7962    0.5419 C   0  0  0  0  0  0  0  0  0  0  0  0
   -4.0006    0.3892    0.3797 C   0  0  0  0  0  0  0  0  0  0  0  0
   -4.2439    1.3464    1.3450 C   0  0  0  0  0  0  0  0  0  0  0  0
   -4.8091    0.2777   -0.7343 C   0  0  0  0  0  0  0  0  0  0  0  0
   -5.3288    2.1850    1.1467 C   0  0  0  0  0  0  0  0  0  0  0  0
   -5.8690    1.1640   -0.8393 C   0  0  0  0  0  0  0  0  0  0  0  0
  1 23  1  0
  2 15  2  0
  3 20  2  0
  4  7  1  0
  4  9  1  0
  4 11  1  0
  5 20  1  0
  5 24  1  0
  6 27  2  0
  6 28  1  0
  7  8  2  0
  7 12  1  0
  8 10  1  0
  8 14  1  0
  9 13  1  0
 10 11  2  0
 10 15  1  0
 12 16  2  0
 13 18  2  0
 13 19  1  0
 14 17  2  0
 15 20  1  0
 16 17  1  0
 18 21  1  0
 19 22  2  0
 21 23  2  0
 22 23  1  0
 24 25  2  0
 24 26  1  0
 25 27  1  0
 26 28  2  0
M  END
>  <PUBCHEM_COMPOUND_CID>  (1) 
2929

>  <PUBCHEM_CONFORMER_RMSD>  (1) 
0.8

>  <PUBCHEM_CONFORMER_DIVERSEORDER>  (1) 
1
97
90
111
39
50
102
136
125
86
117
118
91
128
98
7
77
62
96
123
13
127
55
139
41
29
85
68
15
71
18
64
129
115
14
126
26
121
94
107
19
43
122
116
130
35
21
66
48
104
80
106
132
42
135
12
105
89
88
56
52
67
45
81
32
34
134
99
93
65
38
82
22
100
46
124
87
16
138
57
47
44
131
119
9
75
24
83
114
84
27
53
59
36
108
70
10
92
78
112
20
33
60
51
8
103
58
79
120
95
30
69
137
113
28
11
74
49
101
110
25
54
37
3
61
76
63
40
72
2
109
31
73
133
17
6
5
23
4

>  <PUBCHEM_MMFF94_PARTIAL_CHARGES>  (1) 
41
1 -0.18
10 -0.09
11 -0.3
12 -0.15
13 -0.14
14 -0.15
15 0.66
16 -0.15
17 -0.15
18 -0.15
19 -0.15
2 -0.57
20 0.63
21 -0.15
22 -0.15
23 0.18
24 0.12
25 -0.15
26 -0.15
27 0.16
28 0.16
3 -0.57
31 0.15
32 0.15
33 0.15
34 0.15
35 0.15
36 0.15
37 0.15
38 0.15
39 0.15
4 0.05
40 0.37
41 0.15
42 0.15
43 0.15
44 0.15
5 -0.55
6 -0.62
7 -0.15
9 0.4

>  <PUBCHEM_EFFECTIVE_ROTOR_COUNT>  (1) 
6

>  <PUBCHEM_PHARMACOPHORE_FEATURES>  (1) 
9
1 2 acceptor
1 3 acceptor
1 4 cation
1 5 donor
1 6 acceptor
5 4 7 8 10 11 rings
6 13 18 19 21 22 23 rings
6 6 24 25 26 27 28 rings
6 7 8 12 14 16 17 rings

>  <PUBCHEM_HEAVY_ATOM_COUNT>  (1) 
28

>  <PUBCHEM_ATOM_DEF_STEREO_COUNT>  (1) 
0

>  <PUBCHEM_ATOM_UDEF_STEREO_COUNT>  (1) 
0

>  <PUBCHEM_BOND_DEF_STEREO_COUNT>  (1) 
0

>  <PUBCHEM_BOND_UDEF_STEREO_COUNT>  (1) 
0

>  <PUBCHEM_ISOTOPIC_ATOM_COUNT>  (1) 
0

>  <PUBCHEM_COMPONENT_COUNT>  (1) 
1

>  <PUBCHEM_CACTVS_TAUTO_COUNT>  (1) 
3

>  <PUBCHEM_CONFORMER_ID>  (1) 
00000B7100000001

>  <PUBCHEM_MMFF94_ENERGY>  (1) 
65.8691

>  <PUBCHEM_FEATURE_SELFOVERLAP>  (1) 
45.765

>  <PUBCHEM_SHAPE_FINGERPRINT>  (1) 
10439779 11 18412545379884149800
10937287 8 18266178529079867776
1100329 8 18337393746918952842
11059845 2 17833531763972722600
11331351 85 17979630131279298014
11456790 92 17608380039140706049
12107183 9 18191007101776579176
12166972 35 18198617740500611779
12788726 201 17831308203331286870
12925494 130 18335984255096142041
13140716 1 18260267481855764938
13583140 156 18187662275503606603
13590594 115 18120939395486526698
13878862 14 18115010910779033797
13965767 371 17968927699578367628
14178342 30 17898298452570373487
14251764 38 18054231200121972420
14466204 15 18265891544214322608
14739800 52 18271517701794065441
14790565 3 17899992817738488236
14848178 96 18411422851315689885
14955137 171 18047481032009306795
15326921 28 17478314797086425808
15420108 30 18270386300630735406
15475509 8 17911536306618694582
15475509 84 17829044317236140970
17980427 23 18199730497528375910
17980427 26 18267571572253628158
21033648 144 18260544511873238071
21049683 118 17676481757739664579
21304253 13 18338509717452302802
21475661 188 18270403918227725044
21591340 35 18412833472978221976
21860390 5 18271253698702305927
22122407 14 18122358882959207009
283562 15 17833827553568423831
345986 75 17317878049895197210
376196 1 18057328507777238420
4058900 60 18117283764564971596
469060 322 17757010156772220571
5104073 3 18261120651745026331
5252454 2 18187942702059397863
57124632 79 18336826484765599400
5895379 119 17630621019605903793
59124914 9 18338523035997941196
6328613 192 17975138948877270764
6371380 46 18267867371389927308
67856867 119 18410570657237761423
79837 15 17829610917854164266
84936 182 18339365296111601146
9849439 229 18118693346576568029
9981440 41 18047747388827106531

>  <PUBCHEM_SHAPE_MULTIPOLES>  (1) 
551.41
11.73
6.54
1.36
19.34
3.17
0.06
9.37
-1.33
-9.46
-3.23
-0.16
0.27
-0.55

>  <PUBCHEM_SHAPE_SELFOVERLAP>  (1) 
1212.93

>  <PUBCHEM_SHAPE_VOLUME>  (1) 
298.5

>  <PUBCHEM_COORDINATE_TYPE>  (1) 
2
5
10

$$$$
