29290
     RDKit          3D

 24 26  0  0  0  0  0  0  0  0999 V2000
    0.0188   -4.9877    1.1876 Cl  0  0  0  0  0  0  0  0  0  0  0  0
   -0.7643    0.3708    1.4852 S   0  0  0  0  0  0  0  0  0  0  0  0
    3.0432   -0.4182   -0.9589 N   0  0  0  0  0  0  0  0  0  0  0  0
   -4.3527    0.6498   -0.3757 N   0  0  0  0  0  0  0  0  0  0  0  0
    2.0385    3.3731    1.1007 C   0  0  0  0  0  0  0  0  0  0  0  0
    1.0331    2.5599    0.2850 C   0  0  0  0  0  0  0  0  0  0  0  0
    3.2145    3.9064    0.2834 C   0  0  0  0  0  0  0  0  0  0  0  0
    1.4896    1.1512    0.0228 C   0  0  0  0  0  0  0  0  0  0  0  0
    4.1417    2.8329   -0.2849 C   0  0  0  0  0  0  0  0  0  0  0  0
    3.4785    1.9377   -1.3300 C   0  0  0  0  0  0  0  0  0  0  0  0
    2.6261    0.8547   -0.7243 C   0  0  0  0  0  0  0  0  0  0  0  0
    0.7634    0.0715    0.5328 C   0  0  0  0  0  0  0  0  0  0  0  0
    1.1748   -1.2470    0.3020 C   0  0  0  0  0  0  0  0  0  0  0  0
    2.3383   -1.4486   -0.4594 C   0  0  0  0  0  0  0  0  0  0  0  0
   -1.9819    0.3929    0.1505 C   0  0  0  0  0  0  0  0  0  0  0  0
   -3.3780    0.6345    0.7110 C   0  0  0  0  0  0  0  0  0  0  0  0
    0.4589   -2.3451    0.8099 C   0  0  0  0  0  0  0  0  0  0  0  0
    2.7535   -2.7573   -0.6910 C   0  0  0  0  0  0  0  0  0  0  0  0
   -5.7255    0.9194    0.1270 C   0  0  0  0  0  0  0  0  0  0  0  0
   -4.2991   -0.6032   -1.1302 C   0  0  0  0  0  0  0  0  0  0  0  0
    0.8943   -3.6441    0.5647 C   0  0  0  0  0  0  0  0  0  0  0  0
    2.0440   -3.8502   -0.1873 C   0  0  0  0  0  0  0  0  0  0  0  0
   -5.7857    2.2155    0.9085 C   0  0  0  0  0  0  0  0  0  0  0  0
   -5.2240   -0.5690   -2.3293 C   0  0  0  0  0  0  0  0  0  0  0  0
  1 21  1  0
  2 12  1  0
  2 15  1  0
  3 11  2  0
  3 14  1  0
  4 16  1  0
  4 19  1  0
  4 20  1  0
  5  6  1  0
  5  7  1  0
  6  8  1  0
  7  9  1  0
  8 11  1  0
  8 12  2  0
  9 10  1  0
 10 11  1  0
 12 13  1  0
 13 14  2  0
 13 17  1  0
 14 18  1  0
 15 16  1  0
 17 21  2  0
 18 22  2  0
 19 23  1  0
 20 24  1  0
 21 22  1  0
M  END
>  <PUBCHEM_COMPOUND_CID>  (1) 
29290

>  <PUBCHEM_CONFORMER_RMSD>  (1) 
0.8

>  <PUBCHEM_CONFORMER_DIVERSEORDER>  (1) 
3
76
53
69
49
39
40
71
18
57
72
56
28
73
6
10
34
65
33
74
46
25
62
15
21
67
38
52
58
36
19
66
54
63
42
11
60
50
41
12
61
75
35
55
27
24
22
20
51
70
2
44
68
23
32
47
31
48
16
64
4
9
43
37
59
17
29
13
45
14
8
1
7
30
26
5

>  <PUBCHEM_MMFF94_PARTIAL_CHARGES>  (1) 
21
1 -0.18
10 0.14
11 0.17
12 0.1
14 0.31
15 0.23
16 0.27
17 -0.15
18 -0.15
19 0.27
2 -0.33
20 0.27
21 0.18
22 -0.15
3 -0.62
39 0.15
4 -0.81
44 0.15
45 0.15
6 0.14
8 -0.14

>  <PUBCHEM_EFFECTIVE_ROTOR_COUNT>  (1) 
7

>  <PUBCHEM_PHARMACOPHORE_FEATURES>  (1) 
5
1 3 acceptor
1 4 cation
6 13 14 17 18 21 22 rings
6 3 8 11 12 13 14 rings
7 5 6 7 8 9 10 11 rings

>  <PUBCHEM_HEAVY_ATOM_COUNT>  (1) 
24

>  <PUBCHEM_ATOM_DEF_STEREO_COUNT>  (1) 
0

>  <PUBCHEM_ATOM_UDEF_STEREO_COUNT>  (1) 
0

>  <PUBCHEM_BOND_DEF_STEREO_COUNT>  (1) 
0

>  <PUBCHEM_BOND_UDEF_STEREO_COUNT>  (1) 
0

>  <PUBCHEM_ISOTOPIC_ATOM_COUNT>  (1) 
0

>  <PUBCHEM_COMPONENT_COUNT>  (1) 
1

>  <PUBCHEM_CACTVS_TAUTO_COUNT>  (1) 
1

>  <PUBCHEM_CONFORMER_ID>  (1) 
0000726A00000003

>  <PUBCHEM_MMFF94_ENERGY>  (1) 
63.0271

>  <PUBCHEM_FEATURE_SELFOVERLAP>  (1) 
25.412

>  <PUBCHEM_SHAPE_FINGERPRINT>  (1) 
10411042 1 17833839265664808170
10693767 8 18058742290805122390
10764073 3 13556192700737753633
1100329 8 18410014351778355090
11582403 64 17606098800718716992
12107183 9 17767131904536064617
12730499 353 18335997440572030761
12769317 202 18411696603719792489
13004483 165 17256239350605653035
13533116 47 18411979144944956525
13911987 19 17900575335599930526
13955234 65 18336832987709673603
15250474 111 18131057248131635391
15664445 248 18056492642200229286
20645477 70 18260272906456845707
22033318 11 17265002510594564297
22393880 68 18131356349089957365
2255824 54 18340763763058909259
22907989 373 17254564214586501972
238 59 18410294735189709835
283562 15 17832439596759549374
4409770 3 17475508851437006618
46194498 28 17749965353665113861
463206 1 18265900159697412627
5912855 24 18271806870123008219
59444896 2 17623521662669125170
7471813 234 18197216945221807176
84936 182 18342181076465338640
9777508 108 17979080714408168976

>  <PUBCHEM_SHAPE_MULTIPOLES>  (1) 
489.67
10.01
5.94
1.41
19.69
5.03
-0.41
-8.09
-3.5
-6.61
1.96
1.16
0.15
-0.74

>  <PUBCHEM_SHAPE_SELFOVERLAP>  (1) 
1002.255

>  <PUBCHEM_SHAPE_VOLUME>  (1) 
285.2

>  <PUBCHEM_COORDINATE_TYPE>  (1) 
2
5
10

$$$$
