293
     RDKit          3D

 28 29  0  0  1  0  0  0  0  0999 V2000
   -3.5152   -0.3507    1.1985 P   0  0  0  0  0  0  0  0  0  0  0  0
   -3.1068    1.8736   -0.6838 P   0  0  0  0  0  0  0  0  0  0  0  0
   -0.1233   -1.0462    0.1719 O   0  0  0  0  0  0  0  0  0  0  0  0
    0.1356   -4.5779   -0.3576 O   0  0  0  0  0  0  0  0  0  0  0  0
    1.9132   -2.7889   -2.1711 O   0  0  0  0  0  0  0  0  0  0  0  0
   -2.5648   -1.6288    1.4813 O   0  0  0  0  0  0  0  0  0  0  0  0
    3.0725    0.3573   -1.9753 O   0  0  0  0  0  0  0  0  0  0  0  0
   -2.6926    0.5386    0.1279 O   0  0  0  0  0  0  0  0  0  0  0  0
   -4.7402   -0.9440    0.3240 O   0  0  0  0  0  0  0  0  0  0  0  0
   -3.9386    0.4012    2.4270 O   0  0  0  0  0  0  0  0  0  0  0  0
   -1.6926    2.3971   -1.2695 O   0  0  0  0  0  0  0  0  0  0  0  0
   -3.8723    1.2868   -1.9824 O   0  0  0  0  0  0  0  0  0  0  0  0
   -3.8904    2.8730    0.1160 O   0  0  0  0  0  0  0  0  0  0  0  0
    2.1104   -0.3810   -0.0118 N   0  0  0  0  0  0  0  0  0  0  0  0
    4.0930    0.9940   -0.0506 N   0  0  0  0  0  0  0  0  0  0  0  0
    5.1349    1.6416    1.9252 N   0  0  0  0  0  0  0  0  0  0  0  0
    1.5599    3.7623   -0.2386 N   0  0  0  0  0  0  0  0  0  0  0  0
    0.0279   -3.2173   -0.7290 C   0  0  0  0  0  0  0  0  0  0  0  0
    1.3819   -2.5608   -0.8785 C   0  0  0  0  0  0  0  0  0  0  0  0
   -0.5818   -2.3902    0.3885 C   0  0  0  0  0  0  0  0  0  0  0  0
    1.0467   -1.0936   -0.6609 C   0  0  0  0  0  0  0  0  0  0  0  0
   -2.0995   -2.4188    0.3993 C   0  0  0  0  0  0  0  0  0  0  0  0
    2.1710   -0.3919    1.3732 C   0  0  0  0  0  0  0  0  0  0  0  0
    3.0960    0.3287   -0.7435 C   0  0  0  0  0  0  0  0  0  0  0  0
    3.1221    0.2404    2.0579 C   0  0  0  0  0  0  0  0  0  0  0  0
    4.1355    0.9740    1.2559 C   0  0  0  0  0  0  0  0  0  0  0  0
   -0.7052    2.8417   -0.3558 C   0  0  0  0  0  0  0  0  0  0  0  0
    0.5226    3.2798   -1.1382 C   0  0  0  0  0  0  0  0  0  0  0  0
  1  6  1  0
  1  8  1  0
  1  9  1  0
  1 10  2  0
  2  8  1  0
  2 11  1  0
  2 12  1  0
  2 13  2  0
  3 20  1  0
  3 21  1  0
  4 18  1  0
  5 19  1  0
  6 22  1  0
  7 24  2  0
 11 27  1  0
 14 21  1  0
 14 23  1  0
 14 24  1  0
 15 24  1  0
 15 26  2  0
 16 26  1  0
 17 28  1  0
 18 19  1  0
 18 20  1  0
 19 21  1  0
 20 22  1  0
 23 25  2  0
 25 26  1  0
 27 28  1  0
M  END
>  <PUBCHEM_COMPOUND_CID>  (1) 
293

>  <PUBCHEM_CONFORMER_RMSD>  (1) 
1.4

>  <PUBCHEM_CONFORMER_DIVERSEORDER>  (1) 
1
109
205
157
244
258
167
53
55
66
202
70
120
33
248
132
182
104
242
77
153
105
225
227
75
123
219
69
50
185
37
95
71
61
194
28
200
218
60
255
64
224
47
193
87
266
67
196
117
239
21
221
111
243
158
204
154
166
65
130
13
155
142
34
251
82
4
179
99
197
165
262
238
170
73
39
164
107
62
257
20
263
52
215
115
229
46
110
12
236
83
26
137
68
59
84
169
144
240
156
237
27
56
209
91
43
58
162
98
11
212
112
231
177
17
81
3
151
256
35
173
245
234
127
36
45
252
250
103
78
102
15
232
88
113
135
51
148
129
260
48
207
235
125
190
222
223
180
241
85
80
44
259
228
216
14
152
163
265
178
247
188
72
147
226
198
138
5
171
249
124
187
217
29
38
191
41
18
57
140
79
16
174
8
220
126
264
108
24
30
143
261
189
121
203
31
213
211
131
63
136
7
201
210
128
233
92
149
22
181
40
141
168
146
172
175
208
19
32
206
254
186
161
199
90
230
118
23
192
42
253
9
10
150
106
134
119
25
2
6
101
214
86
159
122
183
76
246
74
96
54
114
100
184
49
116
176
139
195
89
133
97
145
94
93
160

>  <PUBCHEM_MMFF94_PARTIAL_CHARGES>  (1) 
38
1 1.51
10 -0.7
11 -0.55
12 -0.77
13 -0.7
14 -0.47
15 -0.66
16 -0.85
17 -0.99
18 0.28
19 0.28
2 1.51
20 0.28
21 0.58
22 0.28
23 -0.04
24 0.84
25 -0.14
26 0.49
27 0.28
28 0.27
3 -0.56
35 0.4
36 0.4
37 0.15
38 0.15
39 0.5
4 -0.68
40 0.4
41 0.4
46 0.5
47 0.36
48 0.36
5 -0.68
6 -0.55
7 -0.57
8 -0.54
9 -0.77

>  <PUBCHEM_EFFECTIVE_ROTOR_COUNT>  (1) 
10

>  <PUBCHEM_PHARMACOPHORE_FEATURES>  (1) 
16
1 10 acceptor
1 12 acceptor
1 13 acceptor
1 15 donor
1 16 donor
1 17 cation
1 17 donor
1 3 acceptor
1 4 acceptor
1 4 donor
1 5 acceptor
1 5 donor
1 7 acceptor
1 9 acceptor
5 3 18 19 20 21 rings
6 14 15 23 24 25 26 rings

>  <PUBCHEM_HEAVY_ATOM_COUNT>  (1) 
28

>  <PUBCHEM_ATOM_DEF_STEREO_COUNT>  (1) 
0

>  <PUBCHEM_ATOM_UDEF_STEREO_COUNT>  (1) 
4

>  <PUBCHEM_BOND_DEF_STEREO_COUNT>  (1) 
0

>  <PUBCHEM_BOND_UDEF_STEREO_COUNT>  (1) 
0

>  <PUBCHEM_ISOTOPIC_ATOM_COUNT>  (1) 
0

>  <PUBCHEM_COMPONENT_COUNT>  (1) 
1

>  <PUBCHEM_CACTVS_TAUTO_COUNT>  (1) 
3

>  <PUBCHEM_CONFORMER_ID>  (1) 
0000012500000001

>  <PUBCHEM_MMFF94_ENERGY>  (1) 
23.2987

>  <PUBCHEM_FEATURE_SELFOVERLAP>  (1) 
81.271

>  <PUBCHEM_SHAPE_FINGERPRINT>  (1) 
10165383 225 18055384450496178258
10675989 125 17034414000731443309
12633257 1 18188501279910360169
13140716 1 18047197637561250075
13544592 271 18335412431582317165
13583140 156 17386272289931493977
13726171 33 17970377920940563588
15403338 16 17168685506031565851
17093844 170 18193558865731108332
20715895 44 17172061947691394109
21033648 29 18129646595623740992
23536364 44 17119763599632679118
23559900 14 18045789987488547271
23598288 3 18042666447180164218
238 59 18057315089819461855
238918 7 18341602677777842610
469060 322 18267571580838547375
484985 159 14639885560868663560
6287921 2 18199771213859942289
633830 44 17417823815525366114
7064713 232 18199760291563254937
9862522 239 18337099146453438326

>  <PUBCHEM_SHAPE_MULTIPOLES>  (1) 
499.44
8.14
4.82
1.93
0.4
0.93
0.32
-4.28
3.42
0.84
-2
-0.54
-0.06
1.83

>  <PUBCHEM_SHAPE_SELFOVERLAP>  (1) 
996.469

>  <PUBCHEM_SHAPE_VOLUME>  (1) 
296.5

>  <PUBCHEM_COORDINATE_TYPE>  (1) 
2
5
10

$$$$
