29309
     RDKit          3D

 15 15  0  0  1  0  0  0  0  0999 V2000
    0.0504   -0.8960   -1.4635 O   0  0  0  0  0  0  0  0  0  0  0  0
    1.9422   -0.7896    0.7170 N   0  0  0  0  0  0  0  0  0  0  0  0
    0.5062   -0.6627    0.9193 C   0  0  0  0  0  0  0  0  0  0  0  0
   -0.1414   -0.0367   -0.3364 C   0  0  0  0  0  0  0  0  0  0  0  0
    2.5389    0.5041    0.4020 C   0  0  0  0  0  0  0  0  0  0  0  0
    4.0568    0.4102    0.1700 C   0  0  0  0  0  0  0  0  0  0  0  0
   -0.0505   -2.0518    1.2368 C   0  0  0  0  0  0  0  0  0  0  0  0
   -1.6331    0.1861   -0.2059 C   0  0  0  0  0  0  0  0  0  0  0  0
    4.3458   -0.5772   -0.9640 C   0  0  0  0  0  0  0  0  0  0  0  0
    4.6862    1.7669   -0.1564 C   0  0  0  0  0  0  0  0  0  0  0  0
   -2.5022   -0.8186   -0.5934 C   0  0  0  0  0  0  0  0  0  0  0  0
   -2.0943    1.3897    0.2976 C   0  0  0  0  0  0  0  0  0  0  0  0
   -3.8766   -0.6131   -0.4733 C   0  0  0  0  0  0  0  0  0  0  0  0
   -3.4687    1.5951    0.4178 C   0  0  0  0  0  0  0  0  0  0  0  0
   -4.3598    0.5936    0.0324 C   0  0  0  0  0  0  0  0  0  0  0  0
  1  4  1  0
  2  3  1  0
  2  5  1  0
  3  4  1  0
  3  7  1  0
  4  8  1  0
  5  6  1  0
  6  9  1  0
  6 10  1  0
  8 11  2  0
  8 12  1  0
 11 13  1  0
 12 14  2  0
 13 15  2  0
 14 15  1  0
M  END
>  <PUBCHEM_COMPOUND_CID>  (1) 
29309

>  <PUBCHEM_CONFORMER_RMSD>  (1) 
0.6

>  <PUBCHEM_CONFORMER_DIVERSEORDER>  (1) 
10
18
19
6
14
5
2
27
21
8
24
17
1
26
4
23
25
13
22
3
7
9
11
16
12
28
15
20

>  <PUBCHEM_MMFF94_PARTIAL_CHARGES>  (1) 
18
1 -0.68
11 -0.15
12 -0.15
13 -0.15
14 -0.15
15 -0.15
2 -0.9
21 0.36
3 0.27
31 0.15
32 0.15
33 0.4
34 0.15
35 0.15
36 0.15
4 0.42
5 0.27
8 -0.14

>  <PUBCHEM_EFFECTIVE_ROTOR_COUNT>  (1) 
5

>  <PUBCHEM_PHARMACOPHORE_FEATURES>  (1) 
6
1 1 acceptor
1 1 donor
1 2 cation
1 2 donor
3 6 9 10 hydrophobe
6 8 11 12 13 14 15 rings

>  <PUBCHEM_HEAVY_ATOM_COUNT>  (1) 
15

>  <PUBCHEM_ATOM_DEF_STEREO_COUNT>  (1) 
0

>  <PUBCHEM_ATOM_UDEF_STEREO_COUNT>  (1) 
2

>  <PUBCHEM_BOND_DEF_STEREO_COUNT>  (1) 
0

>  <PUBCHEM_BOND_UDEF_STEREO_COUNT>  (1) 
0

>  <PUBCHEM_ISOTOPIC_ATOM_COUNT>  (1) 
0

>  <PUBCHEM_COMPONENT_COUNT>  (1) 
1

>  <PUBCHEM_CACTVS_TAUTO_COUNT>  (1) 
1

>  <PUBCHEM_CONFORMER_ID>  (1) 
0000727D0000000A

>  <PUBCHEM_MMFF94_ENERGY>  (1) 
29.8619

>  <PUBCHEM_FEATURE_SELFOVERLAP>  (1) 
30.448

>  <PUBCHEM_SHAPE_FINGERPRINT>  (1) 
10498660 4 18335975376803304676
10922049 32 18413111649488464622
11132069 177 16877941663520948010
11543360 7 17917708054262890438
12186901 62 18060699468472500109
12346645 44 18333727992331446699
12592029 89 17917716764536318462
12916748 109 18410015450640844048
13897977 58 18341895207974252741
14943859 89 18343582945184480754
15309172 13 17458340836278379938
15775835 57 18410291384999044513
15848700 24 12103845653162939466
18186145 218 18334289851742937340
19422 9 18340760451433382794
19784866 140 14189585117239528013
19784866 240 16558203596923711934
200 152 13398637143112188424
201361 129 18191302676318110355
20300324 65 18272650181791200409
20325693 3 17489870449255114813
204376 136 17458346355306113146
20645477 56 17703496796756509944
20645477 70 17489317356615583214
20671657 53 15482954951934746930
21652331 79 18408884031495778249
22079108 93 18186804716082980745
22094290 60 17917708007049937553
22854114 59 17530681013505447980
23175994 123 14620514557946299995
23402539 116 18412537738851986924
23402655 69 18273215300866824864
23559900 14 17701824276188209110
26918003 58 11818985297277541084
2916195 48 18270671078305343600
296302 2 14923944531242646471
458136 41 17822577092652246506
474 4 18114746044240740236
4990 188 18201441350684828046
5374978 207 12973601140813018348
633830 44 18409729543284179790
77779 3 18272370862719215428
9882013 296 16081090363654910832

>  <PUBCHEM_SHAPE_MULTIPOLES>  (1) 
297.84
9.33
1.67
1.05
5.16
0.03
-0.06
3.78
-1.3
0.06
0.39
0.2
-0.38
-0.3

>  <PUBCHEM_SHAPE_SELFOVERLAP>  (1) 
594.229

>  <PUBCHEM_SHAPE_VOLUME>  (1) 
177.3

>  <PUBCHEM_COORDINATE_TYPE>  (1) 
2
5
10

$$$$
