29307
     RDKit          3D

 20 21  0  0  0  0  0  0  0  0999 V2000
    2.6455    0.5710   -2.4381 S   0  0  0  0  0  0  0  0  0  0  0  0
    2.7246    0.2128   -0.5234 P   0  0  0  0  0  0  0  0  0  0  0  0
    1.7703   -0.9731    0.0365 O   0  0  0  0  0  0  0  0  0  0  0  0
    2.3559    1.4406    0.4783 O   0  0  0  0  0  0  0  0  0  0  0  0
    4.1733   -0.2446    0.0616 O   0  0  0  0  0  0  0  0  0  0  0  0
   -1.5075   -1.8389    0.6012 O   0  0  0  0  0  0  0  0  0  0  0  0
   -0.1445   -2.1075    0.6327 N   0  0  0  0  0  0  0  0  0  0  0  0
   -1.7081   -0.5983    0.0875 C   0  0  0  0  0  0  0  0  0  0  0  0
   -3.0761   -0.1781   -0.0066 C   0  0  0  0  0  0  0  0  0  0  0  0
    0.4191   -1.0127    0.1347 C   0  0  0  0  0  0  0  0  0  0  0  0
   -0.5025   -0.0290   -0.2266 C   0  0  0  0  0  0  0  0  0  0  0  0
    2.9949    2.6957    0.3180 C   0  0  0  0  0  0  0  0  0  0  0  0
    4.7203   -1.4984   -0.3109 C   0  0  0  0  0  0  0  0  0  0  0  0
   -3.3922    1.0843   -0.5207 C   0  0  0  0  0  0  0  0  0  0  0  0
   -4.1063   -1.0257    0.4151 C   0  0  0  0  0  0  0  0  0  0  0  0
   -4.7224    1.4941   -0.6117 C   0  0  0  0  0  0  0  0  0  0  0  0
   -5.4365   -0.6157    0.3239 C   0  0  0  0  0  0  0  0  0  0  0  0
    2.4744    3.6517    1.3701 C   0  0  0  0  0  0  0  0  0  0  0  0
    6.0621   -1.6723    0.3680 C   0  0  0  0  0  0  0  0  0  0  0  0
   -5.7445    0.6442   -0.1894 C   0  0  0  0  0  0  0  0  0  0  0  0
  1  2  2  0
  2  3  1  0
  2  4  1  0
  2  5  1  0
  3 10  1  0
  4 12  1  0
  5 13  1  0
  6  7  1  0
  6  8  1  0
  7 10  2  0
  8  9  1  0
  8 11  2  0
  9 14  2  0
  9 15  1  0
 10 11  1  0
 12 18  1  0
 13 19  1  0
 14 16  1  0
 15 17  2  0
 16 20  2  0
 17 20  1  0
M  END
>  <PUBCHEM_COMPOUND_CID>  (1) 
29307

>  <PUBCHEM_CONFORMER_RMSD>  (1) 
0.8

>  <PUBCHEM_CONFORMER_DIVERSEORDER>  (1) 
1
5
50
26
51
15
52
4
46
28
53
3
7
23
65
47
2
56
12
30
31
11
61
33
69
71
24
38
60
10
16
62
27
64
58
34
75
9
70
20
49
29
25
22
18
21
55
32
59
8
57
72
39
13
35
67
63
41
74
19
36
66
14
48
68
43
77
37
17
54
6
45
42
76
40
44
73

>  <PUBCHEM_MMFF94_PARTIAL_CHARGES>  (1) 
24
1 -0.68
10 0.35
11 -0.15
12 0.28
13 0.28
14 -0.15
15 -0.15
16 -0.15
17 -0.15
2 1.49
20 -0.15
21 0.15
26 0.15
27 0.15
3 -0.33
34 0.15
35 0.15
36 0.15
4 -0.55
5 -0.55
6 -0.02
7 -0.41
8 0.09
9 0.05

>  <PUBCHEM_EFFECTIVE_ROTOR_COUNT>  (1) 
7

>  <PUBCHEM_PHARMACOPHORE_FEATURES>  (1) 
2
5 6 7 8 10 11 rings
6 9 14 15 16 17 20 rings

>  <PUBCHEM_HEAVY_ATOM_COUNT>  (1) 
20

>  <PUBCHEM_ATOM_DEF_STEREO_COUNT>  (1) 
0

>  <PUBCHEM_ATOM_UDEF_STEREO_COUNT>  (1) 
0

>  <PUBCHEM_BOND_DEF_STEREO_COUNT>  (1) 
0

>  <PUBCHEM_BOND_UDEF_STEREO_COUNT>  (1) 
0

>  <PUBCHEM_ISOTOPIC_ATOM_COUNT>  (1) 
0

>  <PUBCHEM_COMPONENT_COUNT>  (1) 
1

>  <PUBCHEM_CACTVS_TAUTO_COUNT>  (1) 
1

>  <PUBCHEM_CONFORMER_ID>  (1) 
0000727B00000001

>  <PUBCHEM_MMFF94_ENERGY>  (1) 
23.8138

>  <PUBCHEM_FEATURE_SELFOVERLAP>  (1) 
10.149

>  <PUBCHEM_SHAPE_FINGERPRINT>  (1) 
10366900 7 12973607746119330933
10763959 59 16877656834185414119
11089746 13 18412537692071615877
11405975 8 18342459282918949043
12166972 35 18261397728221564284
12403259 415 18114173138500236605
12516196 113 18342737391506410706
12549972 3 18115597087715021472
12596602 18 14851900170241960125
12616971 3 17917991702714644717
13081056 2 18409448111536768657
14251764 18 18040434387294724838
14466204 15 18266454313493956368
15196674 1 18408323315304788773
15295992 7 18336550503009492218
17844677 252 18272377481749323185
17980427 23 16701435980078206588
18006028 8 18342174415846489198
18186145 218 18200887248279575401
18335252 114 18269263574630631205
192875 21 17989491809823725496
19433438 28 18187367644978179891
20369508 70 18342461448062208694
20832881 197 18336827503173722826
21033648 29 17822838845212934973
21033650 10 14188479055676180882
21279426 13 18264767649756046444
212847 35 18333455348039592236
21315763 129 18342455933261176365
21452121 103 18340479075615557536
21503847 285 16443353086998581612
21521721 280 11242550907895064886
21524375 3 18261115153738669315
21709351 56 18343292665688616815
22224240 67 11098150989067084726
23227448 37 18198621232345660789
23402539 116 18411976949420486199
23558518 356 17898851524521247578
23559900 14 18342172280408966818
3004659 81 18114187389882427310
3286 77 18410294709520029076
345986 75 17826212014307371034
34797466 226 17774730861349608437
350125 39 18187365389603664316
351380 180 18412824689896259957
3545911 37 18113901525169162463
495365 180 17846215630834965328
5104073 3 18337396045121790547
59755656 215 18188208684931432775
633830 44 18342167891284537189
7808743 9 17827647172754463636
8509985 295 18410571778187179096
9981440 41 17621868113071039392

>  <PUBCHEM_SHAPE_MULTIPOLES>  (1) 
390.83
13.11
2.74
1.2
4.51
2.52
0.73
-1.63
0.04
-3.28
-1.32
-1.13
0.54
1.07

>  <PUBCHEM_SHAPE_SELFOVERLAP>  (1) 
782.437

>  <PUBCHEM_SHAPE_VOLUME>  (1) 
233.1

>  <PUBCHEM_COORDINATE_TYPE>  (1) 
2
5
10

$$$$
