2930
     RDKit          3D

 16 16  0  0  1  0  0  0  0  0999 V2000
   -2.8093    1.8797   -0.6139 O   0  0  0  0  0  0  0  0  0  0  0  0
   -1.3440    3.2273    0.4574 O   0  0  0  0  0  0  0  0  0  0  0  0
   -2.2649   -0.9217    1.4623 O   0  0  0  0  0  0  0  0  0  0  0  0
   -3.3362   -3.0645    0.2284 O   0  0  0  0  0  0  0  0  0  0  0  0
   -1.2768   -0.2375   -0.5197 N   0  0  0  0  0  0  0  0  0  0  0  0
   -2.5375   -2.1511   -0.4731 N   0  0  0  0  0  0  0  0  0  0  0  0
   -0.6575    0.9514    0.0103 C   0  0  0  0  0  0  0  0  0  0  0  0
    0.6209    1.3005   -0.7628 C   0  0  0  0  0  0  0  0  0  0  0  0
    1.8005    0.4451   -0.3675 C   0  0  0  0  0  0  0  0  0  0  0  0
   -1.6195    2.1301   -0.0168 C   0  0  0  0  0  0  0  0  0  0  0  0
    2.6273    0.8629    0.6633 C   0  0  0  0  0  0  0  0  0  0  0  0
    2.0349   -0.7425   -1.0423 C   0  0  0  0  0  0  0  0  0  0  0  0
    3.7170    0.0725    1.0287 C   0  0  0  0  0  0  0  0  0  0  0  0
    3.1245   -1.5328   -0.6767 C   0  0  0  0  0  0  0  0  0  0  0  0
   -2.0449   -1.0942    0.2637 C   0  0  0  0  0  0  0  0  0  0  0  0
    3.9656   -1.1252    0.3588 C   0  0  0  0  0  0  0  0  0  0  0  0
  1 10  1  0
  2 10  2  0
  3 15  2  0
  4  6  1  0
  5  7  1  0
  5 15  1  0
  6 15  1  0
  7  8  1  0
  7 10  1  0
  8  9  1  0
  9 11  2  0
  9 12  1  0
 11 13  1  0
 12 14  2  0
 13 16  2  0
 14 16  1  0
M  END
>  <PUBCHEM_COMPOUND_CID>  (1) 
2930

>  <PUBCHEM_CONFORMER_RMSD>  (1) 
0.8

>  <PUBCHEM_CONFORMER_DIVERSEORDER>  (1) 
4
10
7
18
15
12
8
3
13
2
9
11
17
14
16
6
1
5

>  <PUBCHEM_MMFF94_PARTIAL_CHARGES>  (1) 
25
1 -0.65
10 0.66
11 -0.15
12 -0.15
13 -0.15
14 -0.15
15 0.69
16 -0.15
2 -0.57
20 0.37
21 0.15
22 0.15
23 0.15
24 0.15
25 0.15
26 0.5
27 0.37
28 0.4
3 -0.57
4 -0.44
5 -0.73
6 -0.39
7 0.36
8 0.14
9 -0.14

>  <PUBCHEM_EFFECTIVE_ROTOR_COUNT>  (1) 
6

>  <PUBCHEM_PHARMACOPHORE_FEATURES>  (1) 
7
1 1 acceptor
1 2 acceptor
1 3 acceptor
1 5 donor
1 6 donor
3 1 2 10 anion
6 9 11 12 13 14 16 rings

>  <PUBCHEM_HEAVY_ATOM_COUNT>  (1) 
16

>  <PUBCHEM_ATOM_DEF_STEREO_COUNT>  (1) 
0

>  <PUBCHEM_ATOM_UDEF_STEREO_COUNT>  (1) 
1

>  <PUBCHEM_BOND_DEF_STEREO_COUNT>  (1) 
0

>  <PUBCHEM_BOND_UDEF_STEREO_COUNT>  (1) 
0

>  <PUBCHEM_ISOTOPIC_ATOM_COUNT>  (1) 
0

>  <PUBCHEM_COMPONENT_COUNT>  (1) 
1

>  <PUBCHEM_CACTVS_TAUTO_COUNT>  (1) 
4

>  <PUBCHEM_CONFORMER_ID>  (1) 
00000B7200000004

>  <PUBCHEM_MMFF94_ENERGY>  (1) 
34.2138

>  <PUBCHEM_FEATURE_SELFOVERLAP>  (1) 
35.635

>  <PUBCHEM_SHAPE_FINGERPRINT>  (1) 
10366900 7 17916854738887989072
10618630 7 18335704995790026702
12346177 29 18260820462809511247
12363563 72 18190465041705373579
12500047 106 18193835929987162324
12553582 1 18193853745131957871
12824470 246 17676753357805923714
13083527 12 18120923173416330428
14178342 30 18263635191634771682
15279308 132 17980762636639509220
15885798 251 18335427928014199355
17834072 14 18339909524102034991
19049666 15 17913495636254143836
20361792 2 16805327669460188124
20442098 301 18409733945757604802
20524608 308 18267022760704725401
20645477 70 17544185439073408367
20671657 53 17023451075126986278
21452121 199 18191299588199798360
21501502 16 18334862714597240748
2255824 54 17329720228402197725
23184049 29 18409731789467607918
23402539 116 18198326382704277125
23419403 2 17540492097330789549
23532345 11 18336818706917040208
23557571 272 18413103978771579386
23559900 14 18340757183506777800
257057 1 18266738180767229759
2748010 2 18201440233993305428
3086196 2 18409438207083597976
6049 1 17988653956414848876
6338986 31 18266458896144881239
69090 78 18198332970962231501
74978 22 18262803956417544748
81228 2 18334863813829241697
8809292 202 18126285238511762148
9709674 26 18272083838750338110

>  <PUBCHEM_SHAPE_MULTIPOLES>  (1) 
295.83
6.5
2.96
1.02
2.9
0.12
-0.1
2.99
-1.03
-3.81
-0.11
0.27
0.09
0.6

>  <PUBCHEM_SHAPE_SELFOVERLAP>  (1) 
607.017

>  <PUBCHEM_SHAPE_VOLUME>  (1) 
168.9

>  <PUBCHEM_COORDINATE_TYPE>  (1) 
2
5
10

$$$$
