29317
     RDKit          3D

 21 23  0  0  1  0  0  0  0  0999 V2000
    4.2532   -2.0085   -0.3017 O   0  0  0  0  0  0  0  0  0  0  0  0
   -3.9927    1.6470    1.1476 O   0  0  0  0  0  0  0  0  0  0  0  0
   -5.3179    0.7801   -0.6692 O   0  0  0  0  0  0  0  0  0  0  0  0
    0.6328   -1.2305   -0.1763 N   0  0  0  0  0  0  0  0  0  0  0  0
    1.8700   -1.8941    0.2026 C   0  0  0  0  0  0  0  0  0  0  0  0
    3.0388   -1.3315   -0.6373 C   0  0  0  0  0  0  0  0  0  0  0  0
   -0.5019   -1.7947    0.5559 C   0  0  0  0  0  0  0  0  0  0  0  0
    2.0745   -1.6896    1.7049 C   0  0  0  0  0  0  0  0  0  0  0  0
    3.2879    0.1458   -0.4203 C   0  0  0  0  0  0  0  0  0  0  0  0
   -1.7917   -1.1321    0.2020 C   0  0  0  0  0  0  0  0  0  0  0  0
   -2.2199   -0.0162    0.9252 C   0  0  0  0  0  0  0  0  0  0  0  0
   -2.5648   -1.6380   -0.8578 C   0  0  0  0  0  0  0  0  0  0  0  0
   -3.4187    0.5616    0.5609 C   0  0  0  0  0  0  0  0  0  0  0  0
    2.6300    1.0657   -1.2178 C   0  0  0  0  0  0  0  0  0  0  0  0
    4.1676    0.5436    0.5712 C   0  0  0  0  0  0  0  0  0  0  0  0
   -4.1755    0.0664   -0.4764 C   0  0  0  0  0  0  0  0  0  0  0  0
   -3.7751   -1.0339   -1.2066 C   0  0  0  0  0  0  0  0  0  0  0  0
    2.8593    2.4270   -1.0177 C   0  0  0  0  0  0  0  0  0  0  0  0
    4.3968    1.9050    0.7713 C   0  0  0  0  0  0  0  0  0  0  0  0
   -5.1953    1.7805    0.3624 C   0  0  0  0  0  0  0  0  0  0  0  0
    3.7425    2.8466   -0.0232 C   0  0  0  0  0  0  0  0  0  0  0  0
  1  6  1  0
  2 13  1  0
  2 20  1  0
  3 16  1  0
  3 20  1  0
  4  5  1  0
  4  7  1  0
  5  6  1  0
  5  8  1  0
  6  9  1  0
  7 10  1  0
  9 14  2  0
  9 15  1  0
 10 11  1  0
 10 12  2  0
 11 13  2  0
 12 17  1  0
 13 16  1  0
 14 18  1  0
 15 19  2  0
 16 17  2  0
 18 21  2  0
 19 21  1  0
M  END
>  <PUBCHEM_COMPOUND_CID>  (1) 
29317

>  <PUBCHEM_CONFORMER_RMSD>  (1) 
0.8

>  <PUBCHEM_CONFORMER_DIVERSEORDER>  (1) 
5
10
17
47
30
2
7
15
38
45
14
33
4
23
1
28
44
19
32
26
54
24
16
3
41
6
36
31
9
8
46
35
39
27
42
12
25
29
40
34
43
20
37
13
50
52
22
49
21
11
48
18
51
53

>  <PUBCHEM_MMFF94_PARTIAL_CHARGES>  (1) 
30
1 -0.68
10 -0.14
11 -0.15
12 -0.15
13 0.08
14 -0.15
15 -0.15
16 0.08
17 -0.15
18 -0.15
19 -0.15
2 -0.36
20 0.56
21 -0.15
24 0.36
3 -0.36
30 0.15
31 0.15
32 0.15
33 0.15
34 0.4
35 0.15
36 0.15
37 0.15
4 -0.9
40 0.15
5 0.27
6 0.42
7 0.41
9 -0.14

>  <PUBCHEM_EFFECTIVE_ROTOR_COUNT>  (1) 
5.6

>  <PUBCHEM_PHARMACOPHORE_FEATURES>  (1) 
9
1 1 acceptor
1 1 donor
1 2 acceptor
1 3 acceptor
1 4 cation
1 4 donor
5 2 3 13 16 20 rings
6 10 11 12 13 16 17 rings
6 9 14 15 18 19 21 rings

>  <PUBCHEM_HEAVY_ATOM_COUNT>  (1) 
21

>  <PUBCHEM_ATOM_DEF_STEREO_COUNT>  (1) 
0

>  <PUBCHEM_ATOM_UDEF_STEREO_COUNT>  (1) 
2

>  <PUBCHEM_BOND_DEF_STEREO_COUNT>  (1) 
0

>  <PUBCHEM_BOND_UDEF_STEREO_COUNT>  (1) 
0

>  <PUBCHEM_ISOTOPIC_ATOM_COUNT>  (1) 
0

>  <PUBCHEM_COMPONENT_COUNT>  (1) 
1

>  <PUBCHEM_CACTVS_TAUTO_COUNT>  (1) 
1

>  <PUBCHEM_CONFORMER_ID>  (1) 
0000728500000005

>  <PUBCHEM_MMFF94_ENERGY>  (1) 
53.8608

>  <PUBCHEM_FEATURE_SELFOVERLAP>  (1) 
45.826

>  <PUBCHEM_SHAPE_FINGERPRINT>  (1) 
10498660 4 17917433158896619600
11089746 13 18335416833512436382
12633257 1 16443341035257090400
13590594 115 18191592939388758504
14251764 30 11026611196413671776
14251764 38 18118405274587722744
14848178 96 18335703879230457084
15239191 94 9151184137962433566
17810953 82 18409172082125363461
17844677 252 18412270532010477507
17959699 21 18342174462262655697
18186145 218 18113337492114232450
18335252 114 18048873001472137669
19752476 56 18341615927720412792
20511986 3 18271508871304751749
20715895 44 18268989783097296137
21033648 144 18261385663494906463
21033648 29 16878217580994575103
21315763 76 18336533984839987533
21503847 285 18408325458567264018
21860390 5 18342465833192170108
21864079 5 18411703183799113499
22079108 93 17967543363500842035
22122407 14 18046920286212710073
22749437 52 18264211477166254244
22956985 138 8487287025974863614
23227448 37 18410293631736289399
23503958 8 11314292962784349191
23559900 14 17774720853332627190
245318 6 17897458399827428116
2838139 119 17985261022714919008
3472631 163 18272652316690835125
474 4 18261110802667409442
5104073 3 18261111880809956307
543358 83 18412546487774286728
57724786 102 17531537567544816756
5895379 119 17630899213533861104
6328613 192 18044379551359480836
633830 44 18410289190413590271
67856867 119 18343010099837847850
960060 61 12607409905125012096
9971528 1 18341331085858970958
9981440 41 18194115442111403154

>  <PUBCHEM_SHAPE_MULTIPOLES>  (1) 
409.58
11.85
2.87
1.22
6.95
0.76
-0.09
6.44
0.34
-2.35
-0.1
-0.01
-0.06
-0.98

>  <PUBCHEM_SHAPE_SELFOVERLAP>  (1) 
884.123

>  <PUBCHEM_SHAPE_VOLUME>  (1) 
225.5

>  <PUBCHEM_COORDINATE_TYPE>  (1) 
2
5
10

$$$$
