2931
     RDKit          3D

 22 23  0  0  1  0  0  0  0  0999 V2000
    0.2461   -3.8230    0.1998 P   0  0  0  0  0  0  0  0  0  0  0  0
   -4.4399   -0.0021    0.4389 O   0  0  0  0  0  0  0  0  0  0  0  0
    1.0498   -2.4237    0.2899 O   0  0  0  0  0  0  0  0  0  0  0  0
    1.5745    2.9716    1.2447 O   0  0  0  0  0  0  0  0  0  0  0  0
   -3.3188    2.8754   -1.1836 O   0  0  0  0  0  0  0  0  0  0  0  0
    0.5980   -4.3752   -1.2788 O   0  0  0  0  0  0  0  0  0  0  0  0
   -1.2917   -3.3422    0.0611 O   0  0  0  0  0  0  0  0  0  0  0  0
    0.5112   -4.7824    1.3229 O   0  0  0  0  0  0  0  0  0  0  0  0
   -1.1589    1.3492   -0.0801 N   0  0  0  0  0  0  0  0  0  0  0  0
   -4.6036    1.0742   -0.4601 N   0  0  0  0  0  0  0  0  0  0  0  0
    3.7929    0.8787   -0.7560 N   0  0  0  0  0  0  0  0  0  0  0  0
   -2.4998    1.2916    0.4659 C   0  0  0  0  0  0  0  0  0  0  0  0
   -0.1858    0.7785    0.8456 C   0  0  0  0  0  0  0  0  0  0  0  0
    1.2102    0.8112    0.2827 C   0  0  0  0  0  0  0  0  0  0  0  0
   -3.0236   -0.1261    0.5879 C   0  0  0  0  0  0  0  0  0  0  0  0
    1.6790   -0.2574   -0.4635 C   0  0  0  0  0  0  0  0  0  0  0  0
   -3.4794    1.8718   -0.5059 C   0  0  0  0  0  0  0  0  0  0  0  0
    2.0163    1.9132    0.5160 C   0  0  0  0  0  0  0  0  0  0  0  0
    0.8493   -1.4629   -0.7404 C   0  0  0  0  0  0  0  0  0  0  0  0
    3.2930    1.8982   -0.0223 C   0  0  0  0  0  0  0  0  0  0  0  0
    2.9708   -0.1754   -0.9580 C   0  0  0  0  0  0  0  0  0  0  0  0
    4.2106    3.0568    0.1934 C   0  0  0  0  0  0  0  0  0  0  0  0
  1  3  1  0
  1  6  1  0
  1  7  1  0
  1  8  2  0
  2 10  1  0
  2 15  1  0
  3 19  1  0
  4 18  1  0
  5 17  2  0
  9 12  1  0
  9 13  1  0
 10 17  1  0
 11 20  2  0
 11 21  1  0
 12 15  1  0
 12 17  1  0
 13 14  1  0
 14 16  1  0
 14 18  2  0
 16 19  1  0
 16 21  2  0
 18 20  1  0
 20 22  1  0
M  END
>  <PUBCHEM_COMPOUND_CID>  (1) 
2931

>  <PUBCHEM_CONFORMER_RMSD>  (1) 
0.8

>  <PUBCHEM_CONFORMER_DIVERSEORDER>  (1) 
1
86
28
80
25
70
65
23
18
57
90
55
53
42
14
77
68
51
78
59
43
54
85
13
96
79
27
91
88
38
47
74
9
31
58
37
97
81
17
34
69
71
10
73
83
95
75
22
45
26
50
76
6
72
61
35
93
8
87
11
16
92
7
52
29
44
41
48
24
89
39
66
56
33
49
94
15
12
64
60
40
36
63
82
62
30
32
3
20
67
2
21
5
46
4
84
19

>  <PUBCHEM_MMFF94_PARTIAL_CHARGES>  (1) 
28
1 1.51
10 -0.39
11 -0.62
12 0.33
13 0.41
14 -0.14
15 0.28
16 -0.14
17 0.57
18 0.08
19 0.42
2 -0.32
20 0.17
21 0.16
22 0.14
26 0.36
3 -0.55
31 0.37
32 0.15
36 0.45
37 0.5
38 0.5
4 -0.53
5 -0.57
6 -0.77
7 -0.77
8 -0.7
9 -0.9

>  <PUBCHEM_EFFECTIVE_ROTOR_COUNT>  (1) 
6.8

>  <PUBCHEM_PHARMACOPHORE_FEATURES>  (1) 
12
1 10 donor
1 11 acceptor
1 4 donor
1 5 acceptor
1 6 acceptor
1 7 acceptor
1 8 acceptor
1 9 cation
1 9 donor
4 1 6 7 8 anion
5 2 10 12 15 17 rings
6 11 14 16 18 20 21 rings

>  <PUBCHEM_HEAVY_ATOM_COUNT>  (1) 
22

>  <PUBCHEM_ATOM_DEF_STEREO_COUNT>  (1) 
0

>  <PUBCHEM_ATOM_UDEF_STEREO_COUNT>  (1) 
1

>  <PUBCHEM_BOND_DEF_STEREO_COUNT>  (1) 
0

>  <PUBCHEM_BOND_UDEF_STEREO_COUNT>  (1) 
0

>  <PUBCHEM_ISOTOPIC_ATOM_COUNT>  (1) 
0

>  <PUBCHEM_COMPONENT_COUNT>  (1) 
1

>  <PUBCHEM_CACTVS_TAUTO_COUNT>  (1) 
9

>  <PUBCHEM_CONFORMER_ID>  (1) 
00000B7300000001

>  <PUBCHEM_MMFF94_ENERGY>  (1) 
13.5012

>  <PUBCHEM_FEATURE_SELFOVERLAP>  (1) 
60.932

>  <PUBCHEM_SHAPE_FINGERPRINT>  (1) 
10074138 170 17762866125473564784
10688039 33 17400645316610298962
108634 29 18126575749767692374
1100329 8 18410008802559542730
11265709 11 17184752394338565162
11370993 70 18409165519562677549
116883 192 17620196867912221886
12553582 1 17187017388582044427
12730499 353 18337116674953601193
12788726 201 17832695047890896226
13052359 8 18194117645328852976
13540713 4 17770795808198043324
138480 1 17834114147929730531
19591789 44 18411142449890639126
20567600 347 18260548922372023635
20645477 70 18192148205534780989
21452121 199 17689428291770278746
21641784 216 17182230647594164540
22182313 1 17413897619361055332
23558518 356 17615118219604262488
23559900 14 18120927305116859961
238 59 18266438937716524893
257057 1 17329146871595273026
3060560 45 18410572873024375876
314173 41 17691129232311633839
621550 34 18335146371538858281
633830 44 17988375788020319117
6442390 28 18336548308265639453
6443956 14 17688305686002936679
7364860 26 18193556666544030227
7399639 24 18334577945433562769
81228 2 17689715689385389499
9925002 15 17540543847481468357

>  <PUBCHEM_SHAPE_MULTIPOLES>  (1) 
400.57
7.17
5.69
1.04
2.33
8.87
-0.01
-8.19
-0.85
0.55
0.38
-0.03
0.2
1.22

>  <PUBCHEM_SHAPE_SELFOVERLAP>  (1) 
824.53

>  <PUBCHEM_SHAPE_VOLUME>  (1) 
232.6

>  <PUBCHEM_COORDINATE_TYPE>  (1) 
2
5
10

$$$$
