29315
     RDKit          3D

 22 23  0  0  1  0  0  0  0  0999 V2000
    4.4461   -2.0939   -0.0663 O   0  0  0  0  0  0  0  0  0  0  0  0
   -3.6764    1.8149    0.9213 O   0  0  0  0  0  0  0  0  0  0  0  0
   -5.1576    0.5719   -1.0748 O   0  0  0  0  0  0  0  0  0  0  0  0
    0.8196   -1.2737   -0.0350 N   0  0  0  0  0  0  0  0  0  0  0  0
    2.0665   -1.8951    0.4287 C   0  0  0  0  0  0  0  0  0  0  0  0
    3.2343   -1.4596   -0.4849 C   0  0  0  0  0  0  0  0  0  0  0  0
   -0.3425   -1.7453    0.7389 C   0  0  0  0  0  0  0  0  0  0  0  0
    2.2807   -1.4911    1.8887 C   0  0  0  0  0  0  0  0  0  0  0  0
    3.4944    0.0315   -0.4704 C   0  0  0  0  0  0  0  0  0  0  0  0
   -1.6268   -1.1245    0.2571 C   0  0  0  0  0  0  0  0  0  0  0  0
    2.8382    0.8402   -1.3818 C   0  0  0  0  0  0  0  0  0  0  0  0
    4.3823    0.5532    0.4542 C   0  0  0  0  0  0  0  0  0  0  0  0
   -2.0609    0.0685    0.8177 C   0  0  0  0  0  0  0  0  0  0  0  0
   -2.3580   -1.7545   -0.7399 C   0  0  0  0  0  0  0  0  0  0  0  0
   -3.2511    0.6434    0.3716 C   0  0  0  0  0  0  0  0  0  0  0  0
    3.0776    2.2143   -1.3684 C   0  0  0  0  0  0  0  0  0  0  0  0
    4.6215    1.9274    0.4675 C   0  0  0  0  0  0  0  0  0  0  0  0
   -3.5480   -1.1796   -1.1859 C   0  0  0  0  0  0  0  0  0  0  0  0
   -3.9945    0.0193   -0.6302 C   0  0  0  0  0  0  0  0  0  0  0  0
    3.9691    2.7579   -0.4437 C   0  0  0  0  0  0  0  0  0  0  0  0
   -2.8586    2.3877    1.9399 C   0  0  0  0  0  0  0  0  0  0  0  0
   -6.3559    0.1870   -0.4042 C   0  0  0  0  0  0  0  0  0  0  0  0
  1  6  1  0
  2 15  1  0
  2 21  1  0
  3 19  1  0
  3 22  1  0
  4  5  1  0
  4  7  1  0
  5  6  1  0
  5  8  1  0
  6  9  1  0
  7 10  1  0
  9 11  2  0
  9 12  1  0
 10 13  2  0
 10 14  1  0
 11 16  1  0
 12 17  2  0
 13 15  1  0
 14 18  2  0
 15 19  2  0
 16 20  2  0
 17 20  1  0
 18 19  1  0
M  END
>  <PUBCHEM_COMPOUND_CID>  (1) 
29315

>  <PUBCHEM_CONFORMER_RMSD>  (1) 
0.8

>  <PUBCHEM_CONFORMER_DIVERSEORDER>  (1) 
41
4
47
40
82
22
106
39
9
58
91
28
54
33
113
71
86
67
21
105
90
35
107
92
49
65
59
52
13
32
73
5
29
124
97
94
11
51
56
80
87
68
61
103
19
118
1
24
16
110
75
102
60
37
48
111
83
129
23
63
77
8
38
50
2
122
76
114
26
74
100
72
96
36
66
84
89
121
44
88
95
15
125
69
109
20
27
30
12
70
78
46
85
57
104
10
79
101
34
115
127
45
3
123
108
25
64
99
43
112
18
93
53
31
120
116
98
81
62
119
6
117
42
17
55
128
14
7
126

>  <PUBCHEM_MMFF94_PARTIAL_CHARGES>  (1) 
31
1 -0.68
10 -0.14
11 -0.15
12 -0.15
13 -0.15
14 -0.15
15 0.08
16 -0.15
17 -0.15
18 -0.15
19 0.08
2 -0.36
20 -0.15
21 0.28
22 0.28
25 0.36
3 -0.36
31 0.15
32 0.15
33 0.4
34 0.15
35 0.15
36 0.15
37 0.15
38 0.15
39 0.15
4 -0.9
5 0.27
6 0.42
7 0.41
9 -0.14

>  <PUBCHEM_EFFECTIVE_ROTOR_COUNT>  (1) 
7

>  <PUBCHEM_PHARMACOPHORE_FEATURES>  (1) 
8
1 1 acceptor
1 1 donor
1 2 acceptor
1 3 acceptor
1 4 cation
1 4 donor
6 10 13 14 15 18 19 rings
6 9 11 12 16 17 20 rings

>  <PUBCHEM_HEAVY_ATOM_COUNT>  (1) 
22

>  <PUBCHEM_ATOM_DEF_STEREO_COUNT>  (1) 
0

>  <PUBCHEM_ATOM_UDEF_STEREO_COUNT>  (1) 
2

>  <PUBCHEM_BOND_DEF_STEREO_COUNT>  (1) 
0

>  <PUBCHEM_BOND_UDEF_STEREO_COUNT>  (1) 
0

>  <PUBCHEM_ISOTOPIC_ATOM_COUNT>  (1) 
0

>  <PUBCHEM_COMPONENT_COUNT>  (1) 
1

>  <PUBCHEM_CACTVS_TAUTO_COUNT>  (1) 
1

>  <PUBCHEM_CONFORMER_ID>  (1) 
0000728300000029

>  <PUBCHEM_MMFF94_ENERGY>  (1) 
77.5996

>  <PUBCHEM_FEATURE_SELFOVERLAP>  (1) 
40.6

>  <PUBCHEM_SHAPE_FINGERPRINT>  (1) 
10366900 7 16515690987586955807
10498660 4 18272372035182016256
12166972 35 18270677559146956786
12633257 1 17531799273108472244
12788726 201 17703795804011444473
13583140 156 17603593989088301779
13590594 115 18044943372837230872
13617811 41 17418086604059701277
14251764 30 8357166370547507040
14251764 38 18342462547220947684
14739800 52 18058148670579521280
14848178 96 18261396693282100060
14931854 50 18272657865208917356
17959699 21 18409162212564271741
20511986 3 18268975617894123612
21033648 144 18259697917267242231
21033648 29 16660637428176271231
21298829 104 18409165511089528229
21315763 76 18334848437561621836
21503847 285 18334296444660382258
21864079 5 18340779156005102280
22224240 67 9654991348837962070
22749437 52 18262523718364820604
23227448 37 18261391195708202047
23557571 272 17131547241392345899
23559900 14 18272364257255459414
312425 83 17560261149121187948
3472631 163 18412260662143444247
474 4 18187648028674663554
5895379 119 17916875595328176576
6328613 192 18043538412158360740
6823239 73 12829762952468734072
9971528 1 18339077091422524910
9981440 41 18120088644481265330

>  <PUBCHEM_SHAPE_MULTIPOLES>  (1) 
430.16
12.54
2.84
1.45
7.32
0.81
-0.35
4.88
2.28
-2.44
-0.44
0.28
0.38
-1.82

>  <PUBCHEM_SHAPE_SELFOVERLAP>  (1) 
899.636

>  <PUBCHEM_SHAPE_VOLUME>  (1) 
245.2

>  <PUBCHEM_COORDINATE_TYPE>  (1) 
2
5
10

$$$$
