29313
     RDKit          3D

 19 20  0  0  1  0  0  0  0  0999 V2000
   -7.2323    0.3214    0.8815 Cl  0  0  0  0  0  0  0  0  0  0  0  0
    3.7013   -2.5666    0.7933 O   0  0  0  0  0  0  0  0  0  0  0  0
   -0.7004   -0.6987   -0.0993 N   0  0  0  0  0  0  0  0  0  0  0  0
    1.5287   -1.6153    0.3439 C   0  0  0  0  0  0  0  0  0  0  0  0
    3.0054   -1.6743   -0.0794 C   0  0  0  0  0  0  0  0  0  0  0  0
    0.6826   -0.7213   -0.5630 C   0  0  0  0  0  0  0  0  0  0  0  0
    3.7099   -0.3381   -0.0383 C   0  0  0  0  0  0  0  0  0  0  0  0
   -1.5114    0.1807   -0.9290 C   0  0  0  0  0  0  0  0  0  0  0  0
   -2.9463    0.2153   -0.4742 C   0  0  0  0  0  0  0  0  0  0  0  0
    3.7049    0.4658   -1.1664 C   0  0  0  0  0  0  0  0  0  0  0  0
    4.3466    0.0572    1.1267 C   0  0  0  0  0  0  0  0  0  0  0  0
   -3.8522   -0.6943   -1.0012 C   0  0  0  0  0  0  0  0  0  0  0  0
   -3.3429    1.1572    0.4649 C   0  0  0  0  0  0  0  0  0  0  0  0
    4.3550    1.6994   -1.1286 C   0  0  0  0  0  0  0  0  0  0  0  0
    4.9966    1.2908    1.1645 C   0  0  0  0  0  0  0  0  0  0  0  0
    5.0007    2.1118    0.0368 C   0  0  0  0  0  0  0  0  0  0  0  0
   -5.1818   -0.6615   -0.5806 C   0  0  0  0  0  0  0  0  0  0  0  0
   -4.6724    1.1900    0.8856 C   0  0  0  0  0  0  0  0  0  0  0  0
   -5.5919    0.2805    0.3629 C   0  0  0  0  0  0  0  0  0  0  0  0
  1 19  1  0
  2  5  1  0
  3  6  1  0
  3  8  1  0
  4  5  1  0
  4  6  1  0
  5  7  1  0
  7 10  2  0
  7 11  1  0
  8  9  1  0
  9 12  2  0
  9 13  1  0
 10 14  1  0
 11 15  2  0
 12 17  1  0
 13 18  2  0
 14 16  2  0
 15 16  1  0
 17 19  2  0
 18 19  1  0
M  END
>  <PUBCHEM_COMPOUND_CID>  (1) 
29313

>  <PUBCHEM_CONFORMER_RMSD>  (1) 
0.8

>  <PUBCHEM_CONFORMER_DIVERSEORDER>  (1) 
1
39
12
38
4
8
33
28
7
16
29
2
19
14
13
40
17
42
18
46
37
15
32
22
45
6
34
20
47
3
10
30
11
31
43
5
24
26
41
23
48
35
9
21
27
25
44
36

>  <PUBCHEM_MMFF94_PARTIAL_CHARGES>  (1) 
29
1 -0.18
10 -0.15
11 -0.15
12 -0.15
13 -0.15
14 -0.15
15 -0.15
16 -0.15
17 -0.15
18 -0.15
19 0.18
2 -0.68
25 0.36
28 0.15
29 0.15
3 -0.9
30 0.4
31 0.15
32 0.15
33 0.15
34 0.15
35 0.15
36 0.15
37 0.15
5 0.42
6 0.27
7 -0.14
8 0.41
9 -0.14

>  <PUBCHEM_EFFECTIVE_ROTOR_COUNT>  (1) 
6

>  <PUBCHEM_PHARMACOPHORE_FEATURES>  (1) 
6
1 2 acceptor
1 2 donor
1 3 cation
1 3 donor
6 7 10 11 14 15 16 rings
6 9 12 13 17 18 19 rings

>  <PUBCHEM_HEAVY_ATOM_COUNT>  (1) 
19

>  <PUBCHEM_ATOM_DEF_STEREO_COUNT>  (1) 
0

>  <PUBCHEM_ATOM_UDEF_STEREO_COUNT>  (1) 
1

>  <PUBCHEM_BOND_DEF_STEREO_COUNT>  (1) 
0

>  <PUBCHEM_BOND_UDEF_STEREO_COUNT>  (1) 
0

>  <PUBCHEM_ISOTOPIC_ATOM_COUNT>  (1) 
0

>  <PUBCHEM_COMPONENT_COUNT>  (1) 
1

>  <PUBCHEM_CACTVS_TAUTO_COUNT>  (1) 
1

>  <PUBCHEM_CONFORMER_ID>  (1) 
0000728100000001

>  <PUBCHEM_MMFF94_ENERGY>  (1) 
40.7212

>  <PUBCHEM_FEATURE_SELFOVERLAP>  (1) 
30.446

>  <PUBCHEM_SHAPE_FINGERPRINT>  (1) 
10554248 39 17630602315830666245
10670039 82 16486707878432970448
10688039 33 17095235913083156644
10912923 1 18272645736584782991
11724838 91 18041840730805605614
11796584 16 11241979169763354865
11858739 19 11097851900049594097
12107183 9 17692534412213360505
12236239 1 18412265017773018919
125118 31 18336549309863807981
12596602 18 18130790083389595553
12616971 3 18272077262886778791
12895836 83 16773510096586348868
13533116 47 18187086100644247802
13668630 136 7997971284381191417
13914758 101 8790614689429699867
13955234 65 18334852771706181578
14251732 16 18411140273101849467
14251757 52 17060623295920391529
14251764 75 17827367884264526316
14341114 328 18413108368148995621
14366163 111 17131833192178399530
14461889 52 18115031912889900027
14528608 73 18202563998847727500
14573314 32 13614526246667353435
146900 427 18411418423008709267
14848160 23 15285352929624672661
14849402 71 18409444796391852072
15183329 4 9295293841797504251
15188451 53 13045933633758128692
17349148 13 12107786276782144023
17834072 8 11815897859873138197
17844677 252 18264210218814494749
18222031 100 15140970521347464031
190975 80 17822583810692857691
19377110 9 18410287047367080963
1979834 28 17967817154327132620
20567600 234 17749112235399615949
22079108 93 18333453157648638035
221357 26 11887678355385081347
2215653 11 11887956557749433213
23081809 10 17989480810829179191
23559900 14 16226342417000813674
300161 21 18341608209843413215
3472631 163 17845934147247474508
34797466 226 16773801419727987693
4340502 62 17821446867507452491
474 4 18261392295298684556
5104073 3 18042400240643366281
5207 123 9006790795220273808
5374978 207 17313103046962342724
542803 24 17846779602932359935
543368 44 18131067181979507689
59682541 52 11743845716418117481
8988823 20 13623536796091686974
960060 61 11455889191665194450

>  <PUBCHEM_SHAPE_MULTIPOLES>  (1) 
382.03
17.37
1.92
1.18
15.69
0.32
-0.03
-5.79
3.54
-2.97
0.28
-0.49
-0.16
-1.26

>  <PUBCHEM_SHAPE_SELFOVERLAP>  (1) 
789.292

>  <PUBCHEM_SHAPE_VOLUME>  (1) 
219.2

>  <PUBCHEM_COORDINATE_TYPE>  (1) 
2
5
10

$$$$
