29311
     RDKit          3D

 19 19  0  0  1  0  0  0  0  0999 V2000
   -1.5475    1.3922   -1.5247 O   0  0  0  0  0  0  0  0  0  0  0  0
    0.8243    0.6267   -0.1464 N   0  0  0  0  0  0  0  0  0  0  0  0
    3.1895    1.2062    0.4629 C   0  0  0  0  0  0  0  0  0  0  0  0
    3.8659    0.1165   -0.4044 C   0  0  0  0  0  0  0  0  0  0  0  0
    1.7744    0.8200    0.9436 C   0  0  0  0  0  0  0  0  0  0  0  0
    3.2211    2.5452   -0.3124 C   0  0  0  0  0  0  0  0  0  0  0  0
   -0.4914    0.2754    0.3685 C   0  0  0  0  0  0  0  0  0  0  0  0
    3.9931   -1.2733    0.2308 C   0  0  0  0  0  0  0  0  0  0  0  0
   -1.4928    0.1587   -0.8028 C   0  0  0  0  0  0  0  0  0  0  0  0
    4.7488   -2.2756   -0.6419 C   0  0  0  0  0  0  0  0  0  0  0  0
    2.6742    3.7278    0.4749 C   0  0  0  0  0  0  0  0  0  0  0  0
   -0.3568   -1.0278    1.1583 C   0  0  0  0  0  0  0  0  0  0  0  0
   -2.9076   -0.1540   -0.3645 C   0  0  0  0  0  0  0  0  0  0  0  0
    4.7597   -3.6605   -0.0126 C   0  0  0  0  0  0  0  0  0  0  0  0
   -3.3029   -1.4754   -0.2521 C   0  0  0  0  0  0  0  0  0  0  0  0
   -3.7741    0.8883   -0.0855 C   0  0  0  0  0  0  0  0  0  0  0  0
   -4.6065   -1.7638    0.1520 C   0  0  0  0  0  0  0  0  0  0  0  0
   -5.0776    0.5998    0.3188 C   0  0  0  0  0  0  0  0  0  0  0  0
   -5.4938   -0.7262    0.4375 C   0  0  0  0  0  0  0  0  0  0  0  0
  1  9  1  0
  2  5  1  0
  2  7  1  0
  3  4  1  0
  3  5  1  0
  3  6  1  0
  4  8  1  0
  6 11  1  0
  7  9  1  0
  7 12  1  0
  8 10  1  0
  9 13  1  0
 10 14  1  0
 13 15  2  0
 13 16  1  0
 15 17  1  0
 16 18  2  0
 17 19  2  0
 18 19  1  0
M  END
>  <PUBCHEM_COMPOUND_CID>  (1) 
29311

>  <PUBCHEM_CONFORMER_RMSD>  (1) 
1

>  <PUBCHEM_CONFORMER_DIVERSEORDER>  (1) 
1
173
383
4
381
416
242
17
289
273
461
71
137
506
301
519
318
146
346
160
97
497
260
84
418
384
389
3
258
221
29
349
453
495
31
485
409
16
361
406
56
39
235
185
359
473
297
342
329
94
380
91
112
262
124
172
15
179
290
280
41
64
32
460
19
410
138
228
257
151
224
8
413
357
463
533
103
49
330
10
269
27
405
261
12
509
23
540
43
14
168
121
78
81
60
481
452
479
92
2
369
496
73
21
13
5
48
141
230
402
72
9
37
89
484
156
352
196
165
182
55
464
143
6
69
483
109
98
524
33
70
26
38
108
283
234
490
293
51
102
42

>  <PUBCHEM_MMFF94_PARTIAL_CHARGES>  (1) 
18
1 -0.68
13 -0.14
15 -0.15
16 -0.15
17 -0.15
18 -0.15
19 -0.15
2 -0.9
30 0.36
43 0.4
44 0.15
45 0.15
46 0.15
47 0.15
48 0.15
5 0.27
7 0.27
9 0.42

>  <PUBCHEM_EFFECTIVE_ROTOR_COUNT>  (1) 
9

>  <PUBCHEM_PHARMACOPHORE_FEATURES>  (1) 
8
1 1 acceptor
1 1 donor
1 11 hydrophobe
1 14 hydrophobe
1 2 cation
1 2 donor
5 3 4 6 8 10 hydrophobe
6 13 15 16 17 18 19 rings

>  <PUBCHEM_HEAVY_ATOM_COUNT>  (1) 
19

>  <PUBCHEM_ATOM_DEF_STEREO_COUNT>  (1) 
0

>  <PUBCHEM_ATOM_UDEF_STEREO_COUNT>  (1) 
3

>  <PUBCHEM_BOND_DEF_STEREO_COUNT>  (1) 
0

>  <PUBCHEM_BOND_UDEF_STEREO_COUNT>  (1) 
0

>  <PUBCHEM_ISOTOPIC_ATOM_COUNT>  (1) 
0

>  <PUBCHEM_COMPONENT_COUNT>  (1) 
1

>  <PUBCHEM_CACTVS_TAUTO_COUNT>  (1) 
1

>  <PUBCHEM_CONFORMER_ID>  (1) 
0000727F00000001

>  <PUBCHEM_MMFF94_ENERGY>  (1) 
31.3374

>  <PUBCHEM_FEATURE_SELFOVERLAP>  (1) 
40.598

>  <PUBCHEM_SHAPE_FINGERPRINT>  (1) 
11128504 68 16371017295033732454
11405975 8 18343303673673679625
12107183 9 18127139571752494761
12403259 226 18334853871022149628
12730499 353 18265341796905726472
13167823 11 18412543240874248755
13533116 47 18411703222559099737
13955234 65 18270399520360360832
14341114 176 18410580604308289513
14420673 8 18267309724845436367
14866123 147 17548981053273331432
15250474 111 18058436780590328646
15806764 133 18041548170376379980
15848702 151 18408602582488818397
17844677 252 18412552028504027977
1813 80 17095521820623644437
18186145 218 18041549321432596989
20645477 70 18408885153067330882
20832881 197 18263928748164471594
21065198 57 18412544340406650669
23559900 14 18411694378936600801
3323516 105 18334292046165660274
3421961 26 18341327825957103202
46194498 28 17822296790781356468
4990 188 18259701198822365218
5104073 3 18201726171541361171
5281201 14 18408884048833545900
633830 44 18260539061158532811
77779 3 18339923813695540385
7970288 3 18195528082852272502
90127 26 18040154028766918217
9709674 26 18335422412854321618
9841814 1 16200430303920320922

>  <PUBCHEM_SHAPE_MULTIPOLES>  (1) 
380.16
12.66
3.45
0.95
5.26
0.2
0.04
-6.67
0
-6.91
-0.06
0.04
0.11
0.69

>  <PUBCHEM_SHAPE_SELFOVERLAP>  (1) 
744.751

>  <PUBCHEM_SHAPE_VOLUME>  (1) 
228.2

>  <PUBCHEM_COORDINATE_TYPE>  (1) 
2
5
10

$$$$
