29326
     RDKit          3D

 12 11  0  0  0  0  0  0  0  0999 V2000
   -0.8004   -1.0951    0.9826 S   0  0  0  0  0  0  0  0  0  0  0  0
    0.5423    1.1861    2.3312 S   0  0  0  0  0  0  0  0  0  0  0  0
   -2.3346   -0.1652   -0.2322 Si  0  0  0  0  0  4  0  0  0  0  0  0
    1.5107   -0.0125    0.0453 N   0  0  0  0  0  0  0  0  0  0  0  0
   -3.7538   -1.3699   -0.3313 C   0  0  0  0  0  0  0  0  0  0  0  0
   -1.6513    0.1735   -1.9263 C   0  0  0  0  0  0  0  0  0  0  0  0
   -2.8812    1.4085    0.5930 C   0  0  0  0  0  0  0  0  0  0  0  0
    2.2761    1.1520   -0.4062 C   0  0  0  0  0  0  0  0  0  0  0  0
    1.8986   -1.2615   -0.6180 C   0  0  0  0  0  0  0  0  0  0  0  0
    0.5284    0.0793    1.0522 C   0  0  0  0  0  0  0  0  0  0  0  0
    1.6070    1.8342   -1.5815 C   0  0  0  0  0  0  0  0  0  0  0  0
    3.0582   -1.9295    0.0913 C   0  0  0  0  0  0  0  0  0  0  0  0
  1  3  1  0
  1 10  1  0
  2 10  2  0
  3  5  1  0
  3  6  1  0
  3  7  1  0
  4  8  1  0
  4  9  1  0
  4 10  1  0
  8 11  1  0
  9 12  1  0
M  END
>  <PUBCHEM_COMPOUND_CID>  (1) 
29326

>  <PUBCHEM_CONFORMER_RMSD>  (1) 
0.6

>  <PUBCHEM_CONFORMER_DIVERSEORDER>  (1) 
1
31
14
17
15
5
23
20
34
33
13
27
8
26
19
6
3
28
16
7
30
22
29
25
4
32
10
9
18
21
24
2
11
12

>  <PUBCHEM_MMFF94_PARTIAL_CHARGES>  (1) 
10
1 -0.47
10 0.58
2 -0.38
3 0.57
4 -0.66
5 -0.08
6 -0.08
7 -0.08
8 0.3
9 0.3

>  <PUBCHEM_EFFECTIVE_ROTOR_COUNT>  (1) 
5

>  <PUBCHEM_PHARMACOPHORE_FEATURES>  (1) 
1
1 2 acceptor

>  <PUBCHEM_HEAVY_ATOM_COUNT>  (1) 
12

>  <PUBCHEM_ATOM_DEF_STEREO_COUNT>  (1) 
0

>  <PUBCHEM_ATOM_UDEF_STEREO_COUNT>  (1) 
0

>  <PUBCHEM_BOND_DEF_STEREO_COUNT>  (1) 
0

>  <PUBCHEM_BOND_UDEF_STEREO_COUNT>  (1) 
0

>  <PUBCHEM_ISOTOPIC_ATOM_COUNT>  (1) 
0

>  <PUBCHEM_COMPONENT_COUNT>  (1) 
1

>  <PUBCHEM_CACTVS_TAUTO_COUNT>  (1) 
1

>  <PUBCHEM_CONFORMER_ID>  (1) 
0000728E00000001

>  <PUBCHEM_MMFF94_ENERGY>  (1) 
21.0207

>  <PUBCHEM_FEATURE_SELFOVERLAP>  (1) 
5.074

>  <PUBCHEM_SHAPE_FINGERPRINT>  (1) 
12382932 28 13758064216908709967
12932764 1 17489302044592844687
14115302 16 18200599077475321657
14250199 8 17968101962071870799
14817 1 16454533904619400608
15310529 11 18131070467507884023
15775835 57 17703791474225110135
16945 1 18047773751214750819
17834072 14 17703215214273910634
18511873 20 18197223538028274649
19422 9 18412831283077280135
19786989 88 18041845150126454244
20082192 1 17968638519419635277
20653085 51 17968112905543175817
20671657 53 18263085431515626630
20711983 171 18271257062115216141
21501502 16 18411708685768218535
21524375 3 17317328642063148612
21947302 44 18113907112404500438
22802520 49 17749686154536110819
230 275 15719388460098007174
232386 152 17489583433432982142
23419403 2 17767643271625740592
23526113 38 17023480637903998818
23532345 88 18410860962150268118
23557571 272 18119497016999396961
23598291 2 18338811004421657255
3248919 1 18334010631418367843
3286 77 18130495414426644231
5084963 1 18261660528717252123
9939556 21 18338806619470953483

>  <PUBCHEM_SHAPE_MULTIPOLES>  (1) 
267.89
5.19
1.99
1.89
1.82
0.09
0.43
-1.78
0.6
-0.65
-0.46
-0.49
0.79
-0.51

>  <PUBCHEM_SHAPE_SELFOVERLAP>  (1) 
450.992

>  <PUBCHEM_SHAPE_VOLUME>  (1) 
184.7

>  <PUBCHEM_COORDINATE_TYPE>  (1) 
2
5
10

$$$$
