29329
     RDKit          3D

 23 26  0  0  0  0  0  0  0  0999 V2000
    1.6919   -0.1615   -0.4009 O   0  0  0  0  0  0  0  0  0  0  0  0
    5.3250   -0.3987    0.1428 N   0  0  0  0  0  0  0  0  0  0  0  0
   -0.6073   -0.0158   -1.0336 C   0  0  0  0  0  0  0  0  0  0  0  0
   -3.1278    0.1903   -0.2410 C   0  0  0  0  0  0  0  0  0  0  0  0
   -1.5802    0.0839   -2.2586 C   0  0  0  0  0  0  0  0  0  0  0  0
   -3.0603    0.2050   -1.7867 C   0  0  0  0  0  0  0  0  0  0  0  0
   -0.8938    1.2418   -0.1899 C   0  0  0  0  0  0  0  0  0  0  0  0
   -1.1061   -1.2278   -0.2225 C   0  0  0  0  0  0  0  0  0  0  0  0
   -2.2493    1.3419    0.2276 C   0  0  0  0  0  0  0  0  0  0  0  0
   -2.4597   -1.1062    0.1953 C   0  0  0  0  0  0  0  0  0  0  0  0
    0.8375   -0.1335   -1.5274 C   0  0  0  0  0  0  0  0  0  0  0  0
    0.0149    2.2255    0.1859 C   0  0  0  0  0  0  0  0  0  0  0  0
   -0.3791   -2.3615    0.1258 C   0  0  0  0  0  0  0  0  0  0  0  0
   -2.6850    2.4088    1.0037 C   0  0  0  0  0  0  0  0  0  0  0  0
   -3.0726   -2.1033    0.9441 C   0  0  0  0  0  0  0  0  0  0  0  0
   -0.4266    3.2988    0.9652 C   0  0  0  0  0  0  0  0  0  0  0  0
   -0.9988   -3.3638    0.8778 C   0  0  0  0  0  0  0  0  0  0  0  0
   -1.7645    3.3900    1.3701 C   0  0  0  0  0  0  0  0  0  0  0  0
   -2.3338   -3.2362    1.2830 C   0  0  0  0  0  0  0  0  0  0  0  0
    3.0606   -0.2703   -0.7778 C   0  0  0  0  0  0  0  0  0  0  0  0
    3.9150   -0.2713    0.4798 C   0  0  0  0  0  0  0  0  0  0  0  0
    6.1457   -0.4420    1.3556 C   0  0  0  0  0  0  0  0  0  0  0  0
    5.7541    0.7059   -0.7183 C   0  0  0  0  0  0  0  0  0  0  0  0
  1 11  1  0
  1 20  1  0
  2 21  1  0
  2 22  1  0
  2 23  1  0
  3  5  1  0
  3  7  1  0
  3  8  1  0
  3 11  1  0
  4  6  1  0
  4  9  1  0
  4 10  1  0
  5  6  1  0
  7  9  2  0
  7 12  1  0
  8 10  2  0
  8 13  1  0
  9 14  1  0
 10 15  1  0
 12 16  2  0
 13 17  2  0
 14 18  2  0
 15 19  2  0
 16 18  1  0
 17 19  1  0
 20 21  1  0
M  END
>  <PUBCHEM_COMPOUND_CID>  (1) 
29329

>  <PUBCHEM_CONFORMER_RMSD>  (1) 
0.8

>  <PUBCHEM_CONFORMER_DIVERSEORDER>  (1) 
1
5
4
7
6
3
8
2

>  <PUBCHEM_MMFF94_PARTIAL_CHARGES>  (1) 
29
1 -0.56
10 -0.14
11 0.28
12 -0.15
13 -0.15
14 -0.15
15 -0.15
16 -0.15
17 -0.15
18 -0.15
19 -0.15
2 -0.81
20 0.28
21 0.27
22 0.27
23 0.27
3 0.29
31 0.15
32 0.15
33 0.15
34 0.15
35 0.15
36 0.15
37 0.15
38 0.15
4 0.29
7 -0.14
8 -0.14
9 -0.14

>  <PUBCHEM_EFFECTIVE_ROTOR_COUNT>  (1) 
5.4

>  <PUBCHEM_PHARMACOPHORE_FEATURES>  (1) 
5
1 1 acceptor
1 2 cation
6 7 9 12 14 16 18 rings
6 8 10 13 15 17 19 rings
8 3 4 5 6 7 8 9 10 rings

>  <PUBCHEM_HEAVY_ATOM_COUNT>  (1) 
23

>  <PUBCHEM_ATOM_DEF_STEREO_COUNT>  (1) 
0

>  <PUBCHEM_ATOM_UDEF_STEREO_COUNT>  (1) 
0

>  <PUBCHEM_BOND_DEF_STEREO_COUNT>  (1) 
0

>  <PUBCHEM_BOND_UDEF_STEREO_COUNT>  (1) 
0

>  <PUBCHEM_ISOTOPIC_ATOM_COUNT>  (1) 
0

>  <PUBCHEM_COMPONENT_COUNT>  (1) 
1

>  <PUBCHEM_CACTVS_TAUTO_COUNT>  (1) 
1

>  <PUBCHEM_CONFORMER_ID>  (1) 
0000729100000001

>  <PUBCHEM_MMFF94_ENERGY>  (1) 
85.1607

>  <PUBCHEM_FEATURE_SELFOVERLAP>  (1) 
25.393

>  <PUBCHEM_SHAPE_FINGERPRINT>  (1) 
10006869 2 17768534889788844529
10366900 7 18201428191094904526
10906281 52 18201455661479415893
1100329 8 18410582816121540537
11036077 51 18265896852471842026
11135609 149 17257350373000087903
11315181 36 18260546732692705964
11552529 35 18336262457398034778
11578080 2 17679290030248001061
12082328 90 18341066160071169620
12293681 160 18197194985376380325
12293681 25 17325462893663296063
12633257 1 18196677273980944851
12788726 201 18270670970340083616
13027679 85 18338237184359547341
13140716 1 18267316511146283275
13631057 29 17897450721227436978
14142880 1 18269271257805235005
14468879 13 17703233888770244318
14787075 74 18340481167559717765
14844126 61 18336825389834055346
16945 1 18059594476851492245
17780758 139 18335128792390365666
18927931 339 18273498970708876990
20510252 161 18410017623773093283
20600515 1 18335994111497876365
20681651 13 17822280289385103392
20721686 56 18057026116679464456
2306618 200 18113331990287136733
23419403 2 17976809111017474111
23558518 356 18197508315708281084
23559900 14 18044367459934051756
34934 24 17986105219900904221
3633792 109 17899957366444813463
392239 28 18411990177624066707
4340502 62 18118980092174261777
497634 4 18114472244702429828
5104073 3 18334288800056238048
59554788 281 18263092023857539239
81228 2 18127995038864293645
90127 26 17846497033387724680
9981440 41 18059006177600565774

>  <PUBCHEM_SHAPE_MULTIPOLES>  (1) 
462.48
8.68
3.82
1.61
22.75
0.31
-0.54
-1.02
1.48
-4.08
2.71
-0.55
0.1
-0.1

>  <PUBCHEM_SHAPE_SELFOVERLAP>  (1) 
1009.653

>  <PUBCHEM_SHAPE_VOLUME>  (1) 
252.6

>  <PUBCHEM_COORDINATE_TYPE>  (1) 
2
5
10

$$$$
