29339
     RDKit          3D

  6  5  0  0  1  0  0  0  0  0999 V2000
   -1.8234    1.2412    0.1450 N   0  0  0  0  0  0  0  0  0  0  0  0
    0.0201   -0.5725   -0.3642 C   0  0  0  0  0  0  0  0  0  0  0  0
    1.3432   -0.2397    0.3444 C   0  0  0  0  0  0  0  0  0  0  0  0
   -0.4821   -1.9495    0.0728 C   0  0  0  0  0  0  0  0  0  0  0  0
    1.9533    1.0776   -0.1201 C   0  0  0  0  0  0  0  0  0  0  0  0
   -1.0111    0.4429   -0.0779 C   0  0  0  0  0  0  0  0  0  0  0  0
  1  6  3  0
  2  3  1  0
  2  4  1  0
  2  6  1  0
  3  5  1  0
M  END
>  <PUBCHEM_COMPOUND_CID>  (1) 
29339

>  <PUBCHEM_CONFORMER_RMSD>  (1) 
0.4

>  <PUBCHEM_CONFORMER_DIVERSEORDER>  (1) 
1
5
2
6
3
4

>  <PUBCHEM_MMFF94_PARTIAL_CHARGES>  (1) 
3
1 -0.56
2 0.2
6 0.36

>  <PUBCHEM_EFFECTIVE_ROTOR_COUNT>  (1) 
1

>  <PUBCHEM_PHARMACOPHORE_FEATURES>  (1) 
3
1 1 acceptor
1 4 hydrophobe
1 5 hydrophobe

>  <PUBCHEM_HEAVY_ATOM_COUNT>  (1) 
6

>  <PUBCHEM_ATOM_DEF_STEREO_COUNT>  (1) 
0

>  <PUBCHEM_ATOM_UDEF_STEREO_COUNT>  (1) 
1

>  <PUBCHEM_BOND_DEF_STEREO_COUNT>  (1) 
0

>  <PUBCHEM_BOND_UDEF_STEREO_COUNT>  (1) 
0

>  <PUBCHEM_ISOTOPIC_ATOM_COUNT>  (1) 
0

>  <PUBCHEM_COMPONENT_COUNT>  (1) 
1

>  <PUBCHEM_CACTVS_TAUTO_COUNT>  (1) 
1

>  <PUBCHEM_CONFORMER_ID>  (1) 
0000729B00000001

>  <PUBCHEM_MMFF94_ENERGY>  (1) 
0.8443

>  <PUBCHEM_FEATURE_SELFOVERLAP>  (1) 
15.223

>  <PUBCHEM_SHAPE_FINGERPRINT>  (1) 
16714656 1 18053109706940687550
20096714 4 18411417276358091908
21040471 1 18411698777136202896
23552449 1 18052816141704898104
24536 1 18267004228258310414
29004967 10 17472141670017721955
5943 1 16832845026350881015

>  <PUBCHEM_SHAPE_MULTIPOLES>  (1) 
118.5
2.25
1.75
0.65
1.06
0.31
0.01
-0.81
-0.05
-0.9
-0.08
0.04
0.04
-0.1

>  <PUBCHEM_SHAPE_SELFOVERLAP>  (1) 
209.111

>  <PUBCHEM_SHAPE_VOLUME>  (1) 
76.6

>  <PUBCHEM_COORDINATE_TYPE>  (1) 
2
5
10

$$$$
