29331
     RDKit          3D

 11 10  0  0  0  0  0  0  0  0999 V2000
   -0.9709    0.6653   -0.1889 O   0  0  0  0  0  0  0  0  0  0  0  0
    1.8041    0.3492   -0.0194 O   0  0  0  0  0  0  0  0  0  0  0  0
    3.7866   -1.3610    0.9670 O   0  0  0  0  0  0  0  0  0  0  0  0
   -3.1132   -0.4448   -0.3506 C   0  0  0  0  0  0  0  0  0  0  0  0
   -2.2769    0.6161    0.3703 C   0  0  0  0  0  0  0  0  0  0  0  0
   -2.4944   -1.8367   -0.2038 C   0  0  0  0  0  0  0  0  0  0  0  0
   -4.5462   -0.4428    0.1771 C   0  0  0  0  0  0  0  0  0  0  0  0
   -0.1591    1.6300    0.4667 C   0  0  0  0  0  0  0  0  0  0  0  0
    1.2164    1.6356   -0.1720 C   0  0  0  0  0  0  0  0  0  0  0  0
    3.0901    0.2897   -0.6207 C   0  0  0  0  0  0  0  0  0  0  0  0
    3.6635   -1.1007   -0.4259 C   0  0  0  0  0  0  0  0  0  0  0  0
  1  5  1  0
  1  8  1  0
  2  9  1  0
  2 10  1  0
  3 11  1  0
  4  5  1  0
  4  6  1  0
  4  7  1  0
  8  9  1  0
 10 11  1  0
M  END
>  <PUBCHEM_COMPOUND_CID>  (1) 
29331

>  <PUBCHEM_CONFORMER_RMSD>  (1) 
0.6

>  <PUBCHEM_CONFORMER_DIVERSEORDER>  (1) 
1
75
40
3
81
8
69
78
63
14
9
47
30
65
72
39
74
28
57
61
15
25
68
24
38
76
62
41
42
35
44
7
67
37
26
34
55
79
6
21
73
20
23
50
16
56
80
58
66
5
64
59
31
10
71
36
46
11
33
49
17
48
51
70
54
18
52
4
53
32
13
12
60
45
29
77
19
2
22
43
27

>  <PUBCHEM_MMFF94_PARTIAL_CHARGES>  (1) 
9
1 -0.56
10 0.28
11 0.28
2 -0.56
29 0.4
3 -0.68
5 0.28
8 0.28
9 0.28

>  <PUBCHEM_EFFECTIVE_ROTOR_COUNT>  (1) 
7

>  <PUBCHEM_PHARMACOPHORE_FEATURES>  (1) 
5
1 1 acceptor
1 2 acceptor
1 3 acceptor
1 3 donor
3 4 6 7 hydrophobe

>  <PUBCHEM_HEAVY_ATOM_COUNT>  (1) 
11

>  <PUBCHEM_ATOM_DEF_STEREO_COUNT>  (1) 
0

>  <PUBCHEM_ATOM_UDEF_STEREO_COUNT>  (1) 
0

>  <PUBCHEM_BOND_DEF_STEREO_COUNT>  (1) 
0

>  <PUBCHEM_BOND_UDEF_STEREO_COUNT>  (1) 
0

>  <PUBCHEM_ISOTOPIC_ATOM_COUNT>  (1) 
0

>  <PUBCHEM_COMPONENT_COUNT>  (1) 
1

>  <PUBCHEM_CACTVS_TAUTO_COUNT>  (1) 
1

>  <PUBCHEM_CONFORMER_ID>  (1) 
0000729300000001

>  <PUBCHEM_MMFF94_ENERGY>  (1) 
15.5865

>  <PUBCHEM_FEATURE_SELFOVERLAP>  (1) 
25.38

>  <PUBCHEM_SHAPE_FINGERPRINT>  (1) 
10130415 120 18131075965113729665
14123260 362 9223223087505190010
14251710 61 18411707581713840110
15242433 33 18409454712384460237
177051 138 18343022168679657558
18342897 69 18341614797706203008
20201158 50 18342182175971444679
20645477 70 18411701031993968647
20671657 53 18260831492380888676
20767249 442 8430312420476046318
22485316 2 18411135865663517940
22959321 94 18412540985931866522
59345606 31 18408880728839611338

>  <PUBCHEM_SHAPE_MULTIPOLES>  (1) 
208.77
8.41
1.82
0.77
0.19
0.06
0.06
4.33
0.16
-0.42
0.12
-0.35
0.09
-0.48

>  <PUBCHEM_SHAPE_SELFOVERLAP>  (1) 
374.285

>  <PUBCHEM_SHAPE_VOLUME>  (1) 
135.9

>  <PUBCHEM_COORDINATE_TYPE>  (1) 
2
5
10

$$$$
