29336
     RDKit          3D

 32 34  0  0  1  0  0  0  0  0999 V2000
    3.3087    1.7142    1.1613 Cl  0  0  0  0  0  0  0  0  0  0  0  0
   -4.9936   -1.4248    1.6106 O   0  0  0  0  0  0  0  0  0  0  0  0
   -6.4591   -1.9123   -1.5318 O   0  0  0  0  0  0  0  0  0  0  0  0
   -8.5472   -1.2691   -0.9311 O   0  0  0  0  0  0  0  0  0  0  0  0
   -6.3862    3.6490   -0.9084 O   0  0  0  0  0  0  0  0  0  0  0  0
   -6.2229    2.6432    1.1203 O   0  0  0  0  0  0  0  0  0  0  0  0
    1.1408   -0.7654    0.0014 N   0  0  0  0  0  0  0  0  0  0  0  0
   -5.2267   -0.0433   -0.2370 N   0  0  0  0  0  0  0  0  0  0  0  0
    7.4093   -0.7969   -0.8220 N   0  0  0  0  0  0  0  0  0  0  0  0
    7.5487    1.5723   -0.4043 N   0  0  0  0  0  0  0  0  0  0  0  0
    5.7951    2.7747    0.4697 N   0  0  0  0  0  0  0  0  0  0  0  0
    9.3701    0.4008   -1.2973 N   0  0  0  0  0  0  0  0  0  0  0  0
    3.4875   -0.8649    0.5894 C   0  0  0  0  0  0  0  0  0  0  0  0
    2.0784   -0.9740    1.0810 C   0  0  0  0  0  0  0  0  0  0  0  0
   -6.6668    0.0670   -0.1832 C   0  0  0  0  0  0  0  0  0  0  0  0
    5.5181    0.3593    0.0936 C   0  0  0  0  0  0  0  0  0  0  0  0
    4.1955    0.3328    0.5687 C   0  0  0  0  0  0  0  0  0  0  0  0
   -0.2343   -0.7704    0.1668 C   0  0  0  0  0  0  0  0  0  0  0  0
    6.1447   -0.8108   -0.3654 C   0  0  0  0  0  0  0  0  0  0  0  0
    4.0972   -2.0299    0.1376 C   0  0  0  0  0  0  0  0  0  0  0  0
   -3.0294   -0.7835    0.5021 C   0  0  0  0  0  0  0  0  0  0  0  0
   -7.1392    1.4012   -0.7674 C   0  0  0  0  0  0  0  0  0  0  0  0
    5.4129   -1.9954   -0.3336 C   0  0  0  0  0  0  0  0  0  0  0  0
   -1.0945   -0.5619   -0.9278 C   0  0  0  0  0  0  0  0  0  0  0  0
   -0.8094   -0.9856    1.4336 C   0  0  0  0  0  0  0  0  0  0  0  0
   -4.4735   -0.7916    0.6750 C   0  0  0  0  0  0  0  0  0  0  0  0
   -2.4795   -0.5684   -0.7617 C   0  0  0  0  0  0  0  0  0  0  0  0
   -2.1944   -0.9921    1.5997 C   0  0  0  0  0  0  0  0  0  0  0  0
    6.2810    1.5227    0.0463 C   0  0  0  0  0  0  0  0  0  0  0  0
   -7.3356   -1.0886   -0.9089 C   0  0  0  0  0  0  0  0  0  0  0  0
    8.0425    0.3938   -0.8168 C   0  0  0  0  0  0  0  0  0  0  0  0
   -6.5383    2.5980   -0.0604 C   0  0  0  0  0  0  0  0  0  0  0  0
  1 17  1  0
  2 26  2  0
  3 30  1  0
  4 30  2  0
  5 32  1  0
  6 32  2  0
  7 14  1  0
  7 18  1  0
  8 15  1  0
  8 26  1  0
  9 19  2  0
  9 31  1  0
 10 29  1  0
 10 31  2  0
 11 29  1  0
 12 31  1  0
 13 14  1  0
 13 17  2  0
 13 20  1  0
 15 22  1  0
 15 30  1  0
 16 17  1  0
 16 19  1  0
 16 29  2  0
 18 24  2  0
 18 25  1  0
 19 23  1  0
 20 23  2  0
 21 26  1  0
 21 27  2  0
 21 28  1  0
 22 32  1  0
 24 27  1  0
 25 28  2  0
M  END
>  <PUBCHEM_COMPOUND_CID>  (1) 
29336

>  <PUBCHEM_CONFORMER_RMSD>  (1) 
1

>  <PUBCHEM_CONFORMER_DIVERSEORDER>  (1) 
1
19
7
9
27
18
12
20
29
37
38
28
6
24
3
5
21
13
33
34
15
26
31
11
36
10
32
30
4
8
17
23
2
22
35
16
25
14

>  <PUBCHEM_MMFF94_PARTIAL_CHARGES>  (1) 
45
1 -0.18
10 -0.62
11 -0.9
12 -0.9
13 -0.14
14 0.51
15 0.36
17 0.18
18 0.1
19 0.31
2 -0.57
20 -0.15
21 0.09
22 0.06
23 -0.15
24 -0.15
25 -0.15
26 0.54
27 -0.15
28 -0.15
29 0.41
3 -0.65
30 0.66
31 0.72
32 0.66
36 0.4
37 0.15
4 -0.57
40 0.15
41 0.37
42 0.15
43 0.15
44 0.15
45 0.15
46 0.4
47 0.4
48 0.4
49 0.4
5 -0.65
50 0.5
51 0.5
6 -0.57
7 -0.87
8 -0.73
9 -0.62

>  <PUBCHEM_EFFECTIVE_ROTOR_COUNT>  (1) 
9

>  <PUBCHEM_PHARMACOPHORE_FEATURES>  (1) 
16
1 11 donor
1 12 donor
1 2 acceptor
1 3 acceptor
1 4 acceptor
1 5 acceptor
1 6 acceptor
1 7 cation
1 7 donor
1 8 donor
3 3 4 30 anion
3 5 6 32 anion
4 9 10 12 31 cation
6 13 16 17 19 20 23 rings
6 18 21 24 25 27 28 rings
6 9 10 16 19 29 31 rings

>  <PUBCHEM_HEAVY_ATOM_COUNT>  (1) 
32

>  <PUBCHEM_ATOM_DEF_STEREO_COUNT>  (1) 
1

>  <PUBCHEM_ATOM_UDEF_STEREO_COUNT>  (1) 
0

>  <PUBCHEM_BOND_DEF_STEREO_COUNT>  (1) 
0

>  <PUBCHEM_BOND_UDEF_STEREO_COUNT>  (1) 
0

>  <PUBCHEM_ISOTOPIC_ATOM_COUNT>  (1) 
0

>  <PUBCHEM_COMPONENT_COUNT>  (1) 
1

>  <PUBCHEM_CACTVS_TAUTO_COUNT>  (1) 
27

>  <PUBCHEM_CONFORMER_ID>  (1) 
0000729800000001

>  <PUBCHEM_MMFF94_ENERGY>  (1) 
121.5617

>  <PUBCHEM_FEATURE_SELFOVERLAP>  (1) 
81.347

>  <PUBCHEM_SHAPE_FINGERPRINT>  (1) 
10 15 14490467590956576415
10299344 5 17561086920739509414
10454371 7 18340206298185264033
10835480 77 18260550021678007410
11181472 205 18128826235104749864
11315181 36 17967252006025993851
11607047 141 15936393556927741072
11991303 11 16988267768648922167
12082328 90 18343016684497356111
12664476 115 18113333133745638604
13383665 225 17750253439071325124
13685833 64 10375878472239567042
13782708 43 11527947841827415706
14344974 204 9510872900676641793
14933364 13 18410293601106989667
15183329 4 17988927764621728770
15276724 80 18261389979794711284
15461852 350 18201719574629927623
1577012 14 18334010554235498793
17093844 174 13190340167689870803
1754908 1 8214138530513830390
17686467 74 18260545667646337677
2026 5 13253976559200456748
21033648 29 18334847355894222344
21150785 3 18131632309122716959
21267235 1 15052017878760580995
21424621 283 17967814903875058891
21585482 111 18114458938435850109
21781051 124 15769213980546608223
221357 26 18342459249376855760
23576562 1 18267300026834935159
24771293 8 17821449045124086255
3711267 37 16443355269079423412
4073 2 18040439901247185330
4098825 35 18341327825250351341
4107672 100 18131626803655132511
4169191 19 18341898442210986969
44389302 135 9871480777684799372
44802255 64 18130783444177622695
504579 68 17489590073579061166
5758199 1 17603303735250983979
5937810 71 18410860928228847481
6691757 9 16370732547813961363
9962374 69 12175612980748102066

>  <PUBCHEM_SHAPE_MULTIPOLES>  (1) 
601.18
29.8
2.61
1.28
0.05
2.35
0.18
9.46
-11.15
-2.67
-0.01
-0.79
-0.21
0.13

>  <PUBCHEM_SHAPE_SELFOVERLAP>  (1) 
1292.476

>  <PUBCHEM_SHAPE_VOLUME>  (1) 
328.8

>  <PUBCHEM_COORDINATE_TYPE>  (1) 
2
5
10

$$$$
