29346
     RDKit          3D

 11 11  0  0  0  0  0  0  0  0999 V2000
   -4.3490    0.5057   -0.3800 S   0  0  0  0  0  0  0  0  0  0  0  0
   -0.6794   -0.9478   -0.0508 O   0  0  0  0  0  0  0  0  0  0  0  0
   -1.8537    0.5588    1.2377 O   0  0  0  0  0  0  0  0  0  0  0  0
    0.5819   -0.4038    0.3232 C   0  0  0  0  0  0  0  0  0  0  0  0
    1.6960   -1.3709   -0.0752 C   0  0  0  0  0  0  0  0  0  0  0  0
    0.7644    0.9650   -0.3309 C   0  0  0  0  0  0  0  0  0  0  0  0
    3.0753   -0.7890    0.2167 C   0  0  0  0  0  0  0  0  0  0  0  0
    2.1436    1.5471   -0.0390 C   0  0  0  0  0  0  0  0  0  0  0  0
    3.2569    0.5799   -0.4348 C   0  0  0  0  0  0  0  0  0  0  0  0
   -1.7775   -0.1931    0.2761 C   0  0  0  0  0  0  0  0  0  0  0  0
   -2.8584   -0.4520   -0.7430 C   0  0  0  0  0  0  0  0  0  0  0  0
  1 11  1  0
  2  4  1  0
  2 10  1  0
  3 10  2  0
  4  5  1  0
  4  6  1  0
  5  7  1  0
  6  8  1  0
  7  9  1  0
  8  9  1  0
 10 11  1  0
M  END
>  <PUBCHEM_COMPOUND_CID>  (1) 
29346

>  <PUBCHEM_CONFORMER_RMSD>  (1) 
0.6

>  <PUBCHEM_CONFORMER_DIVERSEORDER>  (1) 
1
27
29
33
13
20
32
21
16
30
4
17
9
14
26
2
31
28
22
25
19
18
5
6
7
23
8
12
15
24
10
11
3

>  <PUBCHEM_MMFF94_PARTIAL_CHARGES>  (1) 
7
1 -0.41
10 0.66
11 0.29
2 -0.43
25 0.18
3 -0.57
4 0.28

>  <PUBCHEM_EFFECTIVE_ROTOR_COUNT>  (1) 
4.2

>  <PUBCHEM_PHARMACOPHORE_FEATURES>  (1) 
2
1 3 acceptor
6 4 5 6 7 8 9 rings

>  <PUBCHEM_HEAVY_ATOM_COUNT>  (1) 
11

>  <PUBCHEM_ATOM_DEF_STEREO_COUNT>  (1) 
0

>  <PUBCHEM_ATOM_UDEF_STEREO_COUNT>  (1) 
0

>  <PUBCHEM_BOND_DEF_STEREO_COUNT>  (1) 
0

>  <PUBCHEM_BOND_UDEF_STEREO_COUNT>  (1) 
0

>  <PUBCHEM_ISOTOPIC_ATOM_COUNT>  (1) 
0

>  <PUBCHEM_COMPONENT_COUNT>  (1) 
1

>  <PUBCHEM_CACTVS_TAUTO_COUNT>  (1) 
1

>  <PUBCHEM_CONFORMER_ID>  (1) 
000072A200000001

>  <PUBCHEM_MMFF94_ENERGY>  (1) 
12.4848

>  <PUBCHEM_FEATURE_SELFOVERLAP>  (1) 
10.148

>  <PUBCHEM_SHAPE_FINGERPRINT>  (1) 
10219947 1 18409450275994583526
11062470 55 18411416202721652615
11471102 20 18335417958941171340
124424 183 17603581911560695458
14144814 61 18413394228229215218
14251717 144 18411415090214645566
14325111 11 18336546113748087727
14993402 34 18272937119918878078
15775835 57 18410013268644431557
16945 1 18409739456279643362
18186145 218 18040708152535802071
20201158 50 18260547805595974338
20606313 2 18408319986483419508
20645477 70 18336825299455021335
20653085 51 18186800305425913029
21119208 17 18059855064969595605
23402539 116 16630522904129299649
23402655 69 18412259519666494397
3248919 1 18060709385214519282
63268167 104 18409451401191573704
8030462 33 17989494021367697339

>  <PUBCHEM_SHAPE_MULTIPOLES>  (1) 
218.49
6.73
1.34
0.83
4.88
0.12
-0.09
0.87
0.97
-0.9
0.05
0.33
0.05
-0.2

>  <PUBCHEM_SHAPE_SELFOVERLAP>  (1) 
415.774

>  <PUBCHEM_SHAPE_VOLUME>  (1) 
135.5

>  <PUBCHEM_COORDINATE_TYPE>  (1) 
2
5
10

$$$$
