29342
     RDKit          3D

 16 16  0  0  0  0  0  0  0  0999 V2000
    1.0673    0.3189    0.6077 O   0  0  0  0  0  0  0  0  0  0  0  0
    1.3798    0.1568   -1.6832 O   0  0  0  0  0  0  0  0  0  0  0  0
    4.8289   -0.7038    1.2373 O   0  0  0  0  0  0  0  0  0  0  0  0
    3.1659   -0.2921   -0.2701 N   0  0  0  0  0  0  0  0  0  0  0  0
    3.6413   -0.3772    1.1375 N   0  0  0  0  0  0  0  0  0  0  0  0
   -3.5936   -1.0024   -0.0330 C   0  0  0  0  0  0  0  0  0  0  0  0
   -2.5393    0.0484    0.0554 C   0  0  0  0  0  0  0  0  0  0  0  0
   -3.7521   -1.7899    1.2816 C   0  0  0  0  0  0  0  0  0  0  0  0
   -3.3562   -1.9785   -1.2009 C   0  0  0  0  0  0  0  0  0  0  0  0
   -1.2131   -0.3125    0.2938 C   0  0  0  0  0  0  0  0  0  0  0  0
   -2.8792    1.3923   -0.1010 C   0  0  0  0  0  0  0  0  0  0  0  0
   -0.2269    0.6706    0.3758 C   0  0  0  0  0  0  0  0  0  0  0  0
   -1.8930    2.3752   -0.0189 C   0  0  0  0  0  0  0  0  0  0  0  0
   -0.5669    2.0144    0.2193 C   0  0  0  0  0  0  0  0  0  0  0  0
    1.8456    0.0653   -0.5480 C   0  0  0  0  0  0  0  0  0  0  0  0
    4.0915   -0.5855   -1.3533 C   0  0  0  0  0  0  0  0  0  0  0  0
  1 12  1  0
  1 15  1  0
  2 15  2  0
  3  5  2  0
  4  5  1  0
  4 15  1  0
  4 16  1  0
  6  7  1  0
  6  8  1  0
  6  9  1  0
  7 10  2  0
  7 11  1  0
 10 12  1  0
 11 13  2  0
 12 14  2  0
 13 14  1  0
M  END
>  <PUBCHEM_COMPOUND_CID>  (1) 
29342

>  <PUBCHEM_CONFORMER_RMSD>  (1) 
0.6

>  <PUBCHEM_CONFORMER_DIVERSEORDER>  (1) 
2
74
194
100
113
135
128
152
138
126
102
39
57
19
143
157
137
96
133
108
196
75
82
86
45
94
22
179
37
13
88
163
71
32
73
142
54
83
26
46
190
65
51
33
111
134
14
160
121
50
168
107
174
122
40
155
192
124
47
76
21
177
80
55
175
36
44
16
156
186
93
130
183
77
193
115
203
38
185
162
84
43
118
178
120
131
208
6
87
4
180
182
53
140
200
85
18
10
35
29
90
205
116
165
48
204
52
109
99
91
202
89
9
172
5
101
123
141
197
103
67
164
207
151
139
154
1
79
69
206
95
70
201
176
146
30
60
31
62
167
170
12
195
187
61
112
209
191
166
23
105
59
104
129
3
8
132
189
119
42
41
81
92
158
110
56
68
98
188
159
15
169
149
147
24
78
114
117
161
11
145
106
27
144
97
66
64
63
72
7
17
181
136
28
34
25
198
199
148
153
184
171
127
58
150
173
20
125
49

>  <PUBCHEM_MMFF94_PARTIAL_CHARGES>  (1) 
18
1 -0.23
10 -0.15
11 -0.15
12 0.08
13 -0.15
14 -0.15
15 0.78
16 0.3
2 -0.57
24 0.15
25 0.15
26 0.15
27 0.15
3 -0.16
4 -0.18
5 -0.02
6 0.14
7 -0.14

>  <PUBCHEM_EFFECTIVE_ROTOR_COUNT>  (1) 
5

>  <PUBCHEM_PHARMACOPHORE_FEATURES>  (1) 
3
1 2 acceptor
3 6 8 9 hydrophobe
6 7 10 11 12 13 14 rings

>  <PUBCHEM_HEAVY_ATOM_COUNT>  (1) 
16

>  <PUBCHEM_ATOM_DEF_STEREO_COUNT>  (1) 
0

>  <PUBCHEM_ATOM_UDEF_STEREO_COUNT>  (1) 
0

>  <PUBCHEM_BOND_DEF_STEREO_COUNT>  (1) 
0

>  <PUBCHEM_BOND_UDEF_STEREO_COUNT>  (1) 
0

>  <PUBCHEM_ISOTOPIC_ATOM_COUNT>  (1) 
0

>  <PUBCHEM_COMPONENT_COUNT>  (1) 
1

>  <PUBCHEM_CACTVS_TAUTO_COUNT>  (1) 
1

>  <PUBCHEM_CONFORMER_ID>  (1) 
0000729E00000002

>  <PUBCHEM_MMFF94_ENERGY>  (1) 
43.8931

>  <PUBCHEM_FEATURE_SELFOVERLAP>  (1) 
15.223

>  <PUBCHEM_SHAPE_FINGERPRINT>  (1) 
10062212 137 18186796950776925755
11132069 177 17847062202832065999
11543360 7 15719958050203009707
11578080 2 17533186809206504252
12363563 72 18339081617895788871
12553582 1 18340495572537559391
13296908 3 17917996044689184372
13583140 156 17987215773783648306
15099037 37 18273490174040763396
18186145 218 12973888091646275388
18927931 339 18413387618517568590
19026448 5 17821734905610688644
19141452 34 17846785139535913031
200 152 17749387074451264042
20279233 1 17775282729427608253
20281407 28 18130793355890904983
20281475 54 17917721222347776934
20361792 2 18339646771293695943
20621476 91 17985804125128554602
20671657 53 17530685450053522093
20871998 22 18195530518140083065
21061003 4 17060342915812090385
21065201 7 18267868285768873402
21069387 34 17095528383281080626
21728266 224 18263063475384132530
23402539 116 18187079542434421212
23557571 272 18129677295754534045
23559900 14 18127977408598101918
2748010 2 18267009734765645093
3086196 2 18412539899094195961
573450 72 18187639151114387088
633830 44 14562533929568979204
7615 1 17749118768234926716
76465 3 18340195397109549111
77492 1 17676494899843808032
81228 2 18268727038557366017

>  <PUBCHEM_SHAPE_MULTIPOLES>  (1) 
301.7
8.38
2.04
1.26
7.65
0.72
-0.09
-4.79
0.88
-2.55
-0.08
0.71
-0.52
0.02

>  <PUBCHEM_SHAPE_SELFOVERLAP>  (1) 
612.08

>  <PUBCHEM_SHAPE_VOLUME>  (1) 
174.7

>  <PUBCHEM_COORDINATE_TYPE>  (1) 
2
5
10

$$$$
