29355
     RDKit          3D

 10 10  0  0  0  0  0  0  0  0999 V2000
   -2.1678    2.0834    0.0408 Cl  0  0  0  0  0  0  0  0  0  0  0  0
   -2.8502   -0.8347    0.2680 O   0  0  0  0  0  0  0  0  0  0  0  0
    1.1898   -0.0553   -0.2950 C   0  0  0  0  0  0  0  0  0  0  0  0
    2.6429    0.2134   -0.4953 C   0  0  0  0  0  0  0  0  0  0  0  0
    0.2864    1.0054   -0.2271 C   0  0  0  0  0  0  0  0  0  0  0  0
    0.7342   -1.3681   -0.1744 C   0  0  0  0  0  0  0  0  0  0  0  0
    3.3897    0.3825    0.8254 C   0  0  0  0  0  0  0  0  0  0  0  0
   -1.0724    0.7533   -0.0387 C   0  0  0  0  0  0  0  0  0  0  0  0
   -0.6246   -1.6203    0.0142 C   0  0  0  0  0  0  0  0  0  0  0  0
   -1.5279   -0.5595    0.0819 C   0  0  0  0  0  0  0  0  0  0  0  0
  1  8  1  0
  2 10  1  0
  3  4  1  0
  3  5  2  0
  3  6  1  0
  4  7  1  0
  5  8  1  0
  6  9  2  0
  8 10  2  0
  9 10  1  0
M  END
>  <PUBCHEM_COMPOUND_CID>  (1) 
29355

>  <PUBCHEM_CONFORMER_RMSD>  (1) 
0.4

>  <PUBCHEM_CONFORMER_DIVERSEORDER>  (1) 
1
4
2
3

>  <PUBCHEM_MMFF94_PARTIAL_CHARGES>  (1) 
13
1 -0.18
10 0.08
13 0.15
14 0.15
18 0.15
19 0.45
2 -0.53
3 -0.14
4 0.14
5 -0.15
6 -0.15
8 0.18
9 -0.15

>  <PUBCHEM_EFFECTIVE_ROTOR_COUNT>  (1) 
1

>  <PUBCHEM_PHARMACOPHORE_FEATURES>  (1) 
3
1 2 donor
1 7 hydrophobe
6 3 5 6 8 9 10 rings

>  <PUBCHEM_HEAVY_ATOM_COUNT>  (1) 
10

>  <PUBCHEM_ATOM_DEF_STEREO_COUNT>  (1) 
0

>  <PUBCHEM_ATOM_UDEF_STEREO_COUNT>  (1) 
0

>  <PUBCHEM_BOND_DEF_STEREO_COUNT>  (1) 
0

>  <PUBCHEM_BOND_UDEF_STEREO_COUNT>  (1) 
0

>  <PUBCHEM_ISOTOPIC_ATOM_COUNT>  (1) 
0

>  <PUBCHEM_COMPONENT_COUNT>  (1) 
1

>  <PUBCHEM_CACTVS_TAUTO_COUNT>  (1) 
3

>  <PUBCHEM_CONFORMER_ID>  (1) 
000072AB00000001

>  <PUBCHEM_MMFF94_ENERGY>  (1) 
19.1399

>  <PUBCHEM_FEATURE_SELFOVERLAP>  (1) 
15.223

>  <PUBCHEM_SHAPE_FINGERPRINT>  (1) 
10857977 72 18339640147984685594
12423570 1 17678186992103804316
12932764 1 17703790331995995942
13380535 21 18195826071423263597
13380535 76 18265609888500319197
14325111 11 18411138004979120540
14897335 6 18266170630872432773
15310529 11 14548752689270124278
16945 1 18338523035428099150
193761 8 18121783820406329887
20645464 45 18060418023702803354
20871998 184 18200317756743199198
21040471 1 18337679589829541028
23211744 41 18060138743217147246
23402539 116 18341599464984218959
23402655 69 18268133281352066165
23552423 10 18187938209492327294
2748010 2 18266469702161278807
369184 2 18131347535848194434
5084963 1 18200888334753287950
53812653 166 18271523108984051728
6333449 129 18341327816644813301

>  <PUBCHEM_SHAPE_MULTIPOLES>  (1) 
201.8
4.22
1.81
0.73
1.98
0.12
0.03
1.11
0.75
-1.2
0.02
0.3
0.05
0.17

>  <PUBCHEM_SHAPE_SELFOVERLAP>  (1) 
405.887

>  <PUBCHEM_SHAPE_VOLUME>  (1) 
120.5

>  <PUBCHEM_COORDINATE_TYPE>  (1) 
2
5
10

$$$$
