29357
     RDKit          3D

 10 10  0  0  0  0  0  0  0  0999 V2000
    3.2196   -1.2142   -0.0476 Cl  0  0  0  0  0  0  0  0  0  0  0  0
   -1.8483    1.7510    0.0896 O   0  0  0  0  0  0  0  0  0  0  0  0
   -0.6679   -0.3274    0.2734 C   0  0  0  0  0  0  0  0  0  0  0  0
   -1.9367   -1.0690    0.5374 C   0  0  0  0  0  0  0  0  0  0  0  0
   -0.6795    1.0512    0.0612 C   0  0  0  0  0  0  0  0  0  0  0  0
    0.5378   -1.0280    0.2400 C   0  0  0  0  0  0  0  0  0  0  0  0
   -2.5916   -1.5710   -0.7462 C   0  0  0  0  0  0  0  0  0  0  0  0
    0.5145    1.7292   -0.1843 C   0  0  0  0  0  0  0  0  0  0  0  0
    1.7318   -0.3502   -0.0056 C   0  0  0  0  0  0  0  0  0  0  0  0
    1.7202    1.0284   -0.2178 C   0  0  0  0  0  0  0  0  0  0  0  0
  1  9  1  0
  2  5  1  0
  3  4  1  0
  3  5  2  0
  3  6  1  0
  4  7  1  0
  5  8  1  0
  6  9  2  0
  8 10  2  0
  9 10  1  0
M  END
>  <PUBCHEM_COMPOUND_CID>  (1) 
29357

>  <PUBCHEM_CONFORMER_RMSD>  (1) 
0.4

>  <PUBCHEM_CONFORMER_DIVERSEORDER>  (1) 
2
1
3

>  <PUBCHEM_MMFF94_PARTIAL_CHARGES>  (1) 
13
1 -0.18
10 -0.15
13 0.15
17 0.15
18 0.15
19 0.45
2 -0.53
3 -0.14
4 0.14
5 0.08
6 -0.15
8 -0.15
9 0.18

>  <PUBCHEM_EFFECTIVE_ROTOR_COUNT>  (1) 
1

>  <PUBCHEM_PHARMACOPHORE_FEATURES>  (1) 
3
1 2 donor
1 7 hydrophobe
6 3 5 6 8 9 10 rings

>  <PUBCHEM_HEAVY_ATOM_COUNT>  (1) 
10

>  <PUBCHEM_ATOM_DEF_STEREO_COUNT>  (1) 
0

>  <PUBCHEM_ATOM_UDEF_STEREO_COUNT>  (1) 
0

>  <PUBCHEM_BOND_DEF_STEREO_COUNT>  (1) 
0

>  <PUBCHEM_BOND_UDEF_STEREO_COUNT>  (1) 
0

>  <PUBCHEM_ISOTOPIC_ATOM_COUNT>  (1) 
0

>  <PUBCHEM_COMPONENT_COUNT>  (1) 
1

>  <PUBCHEM_CACTVS_TAUTO_COUNT>  (1) 
3

>  <PUBCHEM_CONFORMER_ID>  (1) 
000072AD00000002

>  <PUBCHEM_MMFF94_ENERGY>  (1) 
20.8671

>  <PUBCHEM_FEATURE_SELFOVERLAP>  (1) 
15.223

>  <PUBCHEM_SHAPE_FINGERPRINT>  (1) 
11206711 2 18334016090121334734
12423570 1 13003091816101060435
14128692 85 18413111684000936974
16945 1 18120662589033817072
193761 8 18409732884674193032
20653085 51 15791728611618724903
20871998 184 18271248196770025806
21040471 1 18048880688899270064
21501502 16 18410579491637414060
23552423 10 18259710007905719190
241688 4 18335420149353672744
2748010 2 18409728465247531236
29004967 10 18046912850895579459
5084963 1 18273217521027300538

>  <PUBCHEM_SHAPE_MULTIPOLES>  (1) 
201.8
3.83
2.02
0.72
0.82
0.56
-0.03
-2.09
-0.41
-0.34
-0.13
-0.18
-0.13
-0.25

>  <PUBCHEM_SHAPE_SELFOVERLAP>  (1) 
406.337

>  <PUBCHEM_SHAPE_VOLUME>  (1) 
120.4

>  <PUBCHEM_COORDINATE_TYPE>  (1) 
2
5
10

$$$$
