29351
     RDKit          3D

 11 11  0  0  0  0  0  0  0  0999 V2000
   -0.3153   -2.5022    0.1347 Cl  0  0  0  0  0  0  0  0  0  0  0  0
    4.6491    0.1470   -0.0248 S   0  0  0  0  0  0  0  0  0  0  0  0
    1.9296    0.2905   -0.5093 N   0  0  0  0  0  0  0  0  0  0  0  0
   -0.3805    0.2157    0.3263 C   0  0  0  0  0  0  0  0  0  0  0  0
    1.0721    0.1968    0.6774 C   0  0  0  0  0  0  0  0  0  0  0  0
   -1.0859   -0.9593    0.0656 C   0  0  0  0  0  0  0  0  0  0  0  0
   -1.0308    1.4481    0.2627 C   0  0  0  0  0  0  0  0  0  0  0  0
   -2.4414   -0.9015   -0.2586 C   0  0  0  0  0  0  0  0  0  0  0  0
   -2.3863    1.5056   -0.0616 C   0  0  0  0  0  0  0  0  0  0  0  0
   -3.0916    0.3308   -0.3222 C   0  0  0  0  0  0  0  0  0  0  0  0
    3.0808    0.2284   -0.2902 C   0  0  0  0  0  0  0  0  0  0  0  0
  1  6  1  0
  2 11  2  0
  3  5  1  0
  3 11  2  0
  4  5  1  0
  4  6  2  0
  4  7  1  0
  6  8  1  0
  7  9  2  0
  8 10  2  0
  9 10  1  0
M  END
>  <PUBCHEM_COMPOUND_CID>  (1) 
29351

>  <PUBCHEM_CONFORMER_RMSD>  (1) 
0.4

>  <PUBCHEM_CONFORMER_DIVERSEORDER>  (1) 
2
18
11
16
23
6
8
19
1
24
10
3
20
25
14
21
22
13
12
5
15
4
17
27
7
9
26

>  <PUBCHEM_MMFF94_PARTIAL_CHARGES>  (1) 
15
1 -0.18
10 -0.15
11 0.57
14 0.15
15 0.15
16 0.15
17 0.15
2 -0.27
3 -0.55
4 -0.14
5 0.39
6 0.18
7 -0.15
8 -0.15
9 -0.15

>  <PUBCHEM_EFFECTIVE_ROTOR_COUNT>  (1) 
2

>  <PUBCHEM_PHARMACOPHORE_FEATURES>  (1) 
3
1 2 acceptor
1 3 acceptor
6 4 6 7 8 9 10 rings

>  <PUBCHEM_HEAVY_ATOM_COUNT>  (1) 
11

>  <PUBCHEM_ATOM_DEF_STEREO_COUNT>  (1) 
0

>  <PUBCHEM_ATOM_UDEF_STEREO_COUNT>  (1) 
0

>  <PUBCHEM_BOND_DEF_STEREO_COUNT>  (1) 
0

>  <PUBCHEM_BOND_UDEF_STEREO_COUNT>  (1) 
0

>  <PUBCHEM_ISOTOPIC_ATOM_COUNT>  (1) 
0

>  <PUBCHEM_COMPONENT_COUNT>  (1) 
1

>  <PUBCHEM_CACTVS_TAUTO_COUNT>  (1) 
1

>  <PUBCHEM_CONFORMER_ID>  (1) 
000072A700000002

>  <PUBCHEM_MMFF94_ENERGY>  (1) 
22.355

>  <PUBCHEM_FEATURE_SELFOVERLAP>  (1) 
15.228

>  <PUBCHEM_SHAPE_FINGERPRINT>  (1) 
10726558 24 18338237059420497383
12716758 59 18339919423938160314
13024252 1 12829485965495392005
13380535 76 18411982438457320462
14325111 11 18410293575611557440
14614273 12 18189049807289897797
14993402 34 18186796989294448885
15669948 3 18337668728311092326
15775835 57 18186801340180786908
16945 1 18340754984504192537
20201158 50 17846502534539366974
20279233 1 17846504738205697526
20645476 183 17894623781678408787
20645477 56 18410014351424823080
20871998 184 18199757010176611447
20871998 22 17545321238526232675
23402539 116 18341322353419864028
23552423 10 18048873001287663843
23559900 14 18273211989942639176
366044 4 18409166597578317819
6333449 129 18413388752135512584
9709674 26 18343026605661053566

>  <PUBCHEM_SHAPE_MULTIPOLES>  (1) 
227.11
6.31
1.82
0.72
8.1
1.04
-0.02
-1.34
0.87
-1.17
-0.1
0.07
-0.01
-0.05

>  <PUBCHEM_SHAPE_SELFOVERLAP>  (1) 
449.758

>  <PUBCHEM_SHAPE_VOLUME>  (1) 
136.3

>  <PUBCHEM_COORDINATE_TYPE>  (1) 
2
5
10

$$$$
