29350
     RDKit          3D

 12 12  0  0  0  0  0  0  0  0999 V2000
   -2.8094    2.2624   -0.0683 Cl  0  0  0  0  0  0  0  0  0  0  0  0
   -4.1086   -0.6762   -0.4595 Cl  0  0  0  0  0  0  0  0  0  0  0  0
    5.2901    0.2004   -0.1526 S   0  0  0  0  0  0  0  0  0  0  0  0
    2.5535    0.0639   -0.5276 N   0  0  0  0  0  0  0  0  0  0  0  0
    0.2972   -0.1902    0.4130 C   0  0  0  0  0  0  0  0  0  0  0  0
    1.7542   -0.0512    0.6987 C   0  0  0  0  0  0  0  0  0  0  0  0
   -0.5050    0.9465    0.3114 C   0  0  0  0  0  0  0  0  0  0  0  0
   -0.2632   -1.4566    0.2455 C   0  0  0  0  0  0  0  0  0  0  0  0
   -1.8676    0.8166    0.0423 C   0  0  0  0  0  0  0  0  0  0  0  0
   -1.6256   -1.5865   -0.0235 C   0  0  0  0  0  0  0  0  0  0  0  0
   -2.4278   -0.4499   -0.1252 C   0  0  0  0  0  0  0  0  0  0  0  0
    3.7122    0.1210   -0.3542 C   0  0  0  0  0  0  0  0  0  0  0  0
  1  9  1  0
  2 11  1  0
  3 12  2  0
  4  6  1  0
  4 12  2  0
  5  6  1  0
  5  7  2  0
  5  8  1  0
  7  9  1  0
  8 10  2  0
  9 11  2  0
 10 11  1  0
M  END
>  <PUBCHEM_COMPOUND_CID>  (1) 
29350

>  <PUBCHEM_CONFORMER_RMSD>  (1) 
0.6

>  <PUBCHEM_CONFORMER_DIVERSEORDER>  (1) 
1
4
6
8
10
12
7
5
2
9
3
11

>  <PUBCHEM_MMFF94_PARTIAL_CHARGES>  (1) 
15
1 -0.18
10 -0.15
11 0.18
12 0.57
15 0.15
16 0.15
17 0.15
2 -0.18
3 -0.27
4 -0.55
5 -0.14
6 0.39
7 -0.15
8 -0.15
9 0.18

>  <PUBCHEM_EFFECTIVE_ROTOR_COUNT>  (1) 
2

>  <PUBCHEM_PHARMACOPHORE_FEATURES>  (1) 
3
1 3 acceptor
1 4 acceptor
6 5 7 8 9 10 11 rings

>  <PUBCHEM_HEAVY_ATOM_COUNT>  (1) 
12

>  <PUBCHEM_ATOM_DEF_STEREO_COUNT>  (1) 
0

>  <PUBCHEM_ATOM_UDEF_STEREO_COUNT>  (1) 
0

>  <PUBCHEM_BOND_DEF_STEREO_COUNT>  (1) 
0

>  <PUBCHEM_BOND_UDEF_STEREO_COUNT>  (1) 
0

>  <PUBCHEM_ISOTOPIC_ATOM_COUNT>  (1) 
0

>  <PUBCHEM_COMPONENT_COUNT>  (1) 
1

>  <PUBCHEM_CACTVS_TAUTO_COUNT>  (1) 
1

>  <PUBCHEM_CONFORMER_ID>  (1) 
000072A600000001

>  <PUBCHEM_MMFF94_ENERGY>  (1) 
22.6884

>  <PUBCHEM_FEATURE_SELFOVERLAP>  (1) 
15.228

>  <PUBCHEM_SHAPE_FINGERPRINT>  (1) 
11206711 2 18339910559595289661
12032990 46 18267866271382135123
12119455 92 13984653776304710282
12186901 62 18342177743528116005
13024252 1 17894633681794082987
13380535 21 18198627618983128705
14325111 11 18337673018677199656
14911166 2 18410848902198592575
14993402 34 18040994059443943671
15775835 57 18187929417662506824
16945 1 18339347648206896651
18186145 218 17774997973116995824
187816 3 18334291002720566375
200 152 15985106310259975546
20201158 50 17917717915624100006
20279233 1 17846506950056021078
20300324 65 18413670227085791093
20645476 183 17749382710886317419
20645477 56 18411423877818005312
20645477 70 17059788724019692126
20828058 44 9367347024983257396
20871999 31 18342453733879296213
21119208 17 18040996271684540358
21501502 16 18194113028355385539
23402539 116 18412538834068771039
23557571 272 18201728344736984948
23559900 14 18201719501989841234
2748010 2 18196650692792158007
53812653 8 18335697222236714283
559249 180 18265329517874081242
573450 72 18334283254926450114

>  <PUBCHEM_SHAPE_MULTIPOLES>  (1) 
249.56
8.41
1.66
0.74
10.35
0.5
0.01
0.88
-1.72
-1.98
0.01
0.1
-0.01
-0.15

>  <PUBCHEM_SHAPE_SELFOVERLAP>  (1) 
488.226

>  <PUBCHEM_SHAPE_VOLUME>  (1) 
152.6

>  <PUBCHEM_COORDINATE_TYPE>  (1) 
2
5
10

$$$$
