29364
     RDKit          3D

 19 20  0  0  0  0  0  0  0  0999 V2000
    5.1710    0.1330   -0.1774 N   0  0  0  0  0  0  0  0  0  0  0  0
   -0.9426   -0.3459   -0.4766 N   0  0  0  0  0  0  0  0  0  0  0  0
   -0.3562   -0.2544    0.6266 N   0  0  0  0  0  0  0  0  0  0  0  0
   -3.1230    0.6993   -0.2211 C   0  0  0  0  0  0  0  0  0  0  0  0
   -4.4980    0.5810   -0.0186 C   0  0  0  0  0  0  0  0  0  0  0  0
    3.7785    0.0357    0.0251 C   0  0  0  0  0  0  0  0  0  0  0  0
   -2.3251   -0.4437   -0.2748 C   0  0  0  0  0  0  0  0  0  0  0  0
   -5.0753   -0.6802    0.1301 C   0  0  0  0  0  0  0  0  0  0  0  0
    2.9981    1.1909    0.0742 C   0  0  0  0  0  0  0  0  0  0  0  0
    3.1816   -1.2160    0.1761 C   0  0  0  0  0  0  0  0  0  0  0  0
   -2.5046    2.0524   -0.3801 C   0  0  0  0  0  0  0  0  0  0  0  0
   -2.9025   -1.7048   -0.1259 C   0  0  0  0  0  0  0  0  0  0  0  0
    1.0311   -0.1564    0.4245 C   0  0  0  0  0  0  0  0  0  0  0  0
   -5.3744    1.7891    0.0438 C   0  0  0  0  0  0  0  0  0  0  0  0
   -4.2774   -1.8230    0.0765 C   0  0  0  0  0  0  0  0  0  0  0  0
    1.6211    1.0945    0.2744 C   0  0  0  0  0  0  0  0  0  0  0  0
    1.8045   -1.3123    0.3763 C   0  0  0  0  0  0  0  0  0  0  0  0
    5.9010    1.2947    0.2894 C   0  0  0  0  0  0  0  0  0  0  0  0
    5.8921   -0.9340   -0.8425 C   0  0  0  0  0  0  0  0  0  0  0  0
  1  6  1  0
  1 18  1  0
  1 19  1  0
  2  3  2  0
  2  7  1  0
  3 13  1  0
  4  5  2  0
  4  7  1  0
  4 11  1  0
  5  8  1  0
  5 14  1  0
  6  9  2  0
  6 10  1  0
  7 12  2  0
  8 15  2  0
  9 16  1  0
 10 17  2  0
 12 15  1  0
 13 16  2  0
 13 17  1  0
M  END
>  <PUBCHEM_COMPOUND_CID>  (1) 
29364

>  <PUBCHEM_CONFORMER_RMSD>  (1) 
0.6

>  <PUBCHEM_CONFORMER_DIVERSEORDER>  (1) 
1
2
3
7
5
6
8
4

>  <PUBCHEM_MMFF94_PARTIAL_CHARGES>  (1) 
26
1 -0.84
10 -0.15
11 0.14
12 -0.15
13 0.18
14 0.14
15 -0.15
16 -0.15
17 -0.15
18 0.37
19 0.37
2 -0.18
20 0.15
21 0.15
22 0.15
26 0.15
3 -0.18
30 0.15
31 0.15
32 0.15
4 -0.14
5 -0.14
6 0.1
7 0.18
8 -0.15
9 -0.15

>  <PUBCHEM_EFFECTIVE_ROTOR_COUNT>  (1) 
3

>  <PUBCHEM_PHARMACOPHORE_FEATURES>  (1) 
3
1 1 cation
6 4 5 7 8 12 15 rings
6 6 9 10 13 16 17 rings

>  <PUBCHEM_HEAVY_ATOM_COUNT>  (1) 
19

>  <PUBCHEM_ATOM_DEF_STEREO_COUNT>  (1) 
0

>  <PUBCHEM_ATOM_UDEF_STEREO_COUNT>  (1) 
0

>  <PUBCHEM_BOND_DEF_STEREO_COUNT>  (1) 
0

>  <PUBCHEM_BOND_UDEF_STEREO_COUNT>  (1) 
0

>  <PUBCHEM_ISOTOPIC_ATOM_COUNT>  (1) 
0

>  <PUBCHEM_COMPONENT_COUNT>  (1) 
1

>  <PUBCHEM_CACTVS_TAUTO_COUNT>  (1) 
1

>  <PUBCHEM_CONFORMER_ID>  (1) 
000072B400000001

>  <PUBCHEM_MMFF94_ENERGY>  (1) 
69.8335

>  <PUBCHEM_FEATURE_SELFOVERLAP>  (1) 
15.223

>  <PUBCHEM_SHAPE_FINGERPRINT>  (1) 
10595046 47 18335420201009181614
10616163 171 18411136969934823831
11287383 113 18412826919411483074
11315181 36 17894630400338699031
12107183 9 17687177591293784601
12236239 1 18202284705988644754
12403259 415 18130782408299050712
12616971 3 16660370289568084501
12916748 109 18334859433104836096
13167823 11 18410290336926972707
13897977 58 18407759223079866853
14341114 176 18410297999148265052
14933364 13 18412548721516080652
15183329 4 18341334392645775914
15196674 1 18410572885650385896
15778101 99 18339928121869719065
15788980 27 17275383213844540740
17834072 33 18409449202273754606
17844677 252 18341057388339870728
200 152 18060420230841363515
20645477 56 18335700508097672709
20645477 70 17846505794894642942
20681677 155 18335419067069341531
21267235 1 18336271232100246267
21709351 56 18335415798403868741
221357 26 18413668015172553669
2297311 6 18412270540583925415
23402539 116 18261106391662039519
23402655 69 18410571777596354786
23536379 177 18411700985102749618
23557571 272 18413675711901504949
23559900 14 18341886428781694145
2916195 48 18341604984354934376
29717793 49 17418098681233041332
300161 21 18260822687818926115
3004659 81 18409169875451046774
34797466 226 17917157194858958220
3545911 37 18410011022693040001
4073 2 18114467854998420394
4214541 1 18411136931168666265
4990 188 18342745113456643510
5104073 3 18408881828182252963
542803 24 17167864162123787078
59755656 215 18340772546288167878
59755656 520 16732706038710322587
77779 3 18410292519076047899
9709674 26 18410296912928442075

>  <PUBCHEM_SHAPE_MULTIPOLES>  (1) 
376.07
14.5
1.9
0.71
7.56
0.18
-0.02
1.46
-1.06
-1.44
-0.03
0.23
-0.03
0.44

>  <PUBCHEM_SHAPE_SELFOVERLAP>  (1) 
797.006

>  <PUBCHEM_SHAPE_VOLUME>  (1) 
213.4

>  <PUBCHEM_COORDINATE_TYPE>  (1) 
2
5
10

$$$$
