29363
     RDKit          3D

 17 18  0  0  0  0  0  0  0  0999 V2000
   -3.2488    2.3572   -0.7786 Cl  0  0  0  0  0  0  0  0  0  0  0  0
   -5.4537    0.2401    0.2837 Cl  0  0  0  0  0  0  0  0  0  0  0  0
    5.1939   -1.3566   -0.3052 Cl  0  0  0  0  0  0  0  0  0  0  0  0
    2.5171    3.0088    0.6129 Cl  0  0  0  0  0  0  0  0  0  0  0  0
    0.2472   -1.3156   -0.1827 N   0  0  0  0  0  0  0  0  0  0  0  0
    1.3569    0.7162    0.1900 N   0  0  0  0  0  0  0  0  0  0  0  0
    2.5915   -1.2973   -0.2336 N   0  0  0  0  0  0  0  0  0  0  0  0
    3.7554    0.7669    0.1441 N   0  0  0  0  0  0  0  0  0  0  0  0
   -1.1054   -0.9308   -0.0766 C   0  0  0  0  0  0  0  0  0  0  0  0
   -1.4929    0.3618   -0.4301 C   0  0  0  0  0  0  0  0  0  0  0  0
   -2.0559   -1.8431    0.3816 C   0  0  0  0  0  0  0  0  0  0  0  0
    1.4545   -0.5990   -0.0702 C   0  0  0  0  0  0  0  0  0  0  0  0
   -2.8310    0.7419   -0.3253 C   0  0  0  0  0  0  0  0  0  0  0  0
   -3.3939   -1.4631    0.4864 C   0  0  0  0  0  0  0  0  0  0  0  0
   -3.7814   -0.1706    0.1329 C   0  0  0  0  0  0  0  0  0  0  0  0
    3.7006   -0.5500   -0.1128 C   0  0  0  0  0  0  0  0  0  0  0  0
    2.5458    1.3331    0.2834 C   0  0  0  0  0  0  0  0  0  0  0  0
  1 13  1  0
  2 15  1  0
  3 16  1  0
  4 17  1  0
  5  9  1  0
  5 12  1  0
  6 12  2  0
  6 17  1  0
  7 12  1  0
  7 16  2  0
  8 16  1  0
  8 17  2  0
  9 10  2  0
  9 11  1  0
 10 13  1  0
 11 14  2  0
 13 15  2  0
 14 15  1  0
M  END
>  <PUBCHEM_COMPOUND_CID>  (1) 
29363

>  <PUBCHEM_CONFORMER_RMSD>  (1) 
0.6

>  <PUBCHEM_CONFORMER_DIVERSEORDER>  (1) 
1
10
6
9
5
2
8
3
7
4

>  <PUBCHEM_MMFF94_PARTIAL_CHARGES>  (1) 
21
1 -0.18
10 -0.15
11 -0.15
12 0.72
13 0.18
14 -0.15
15 0.18
16 0.8
17 0.8
18 0.4
19 0.15
2 -0.18
20 0.15
21 0.15
3 -0.18
4 -0.18
5 -0.6
6 -0.62
7 -0.62
8 -0.62
9 0.1

>  <PUBCHEM_EFFECTIVE_ROTOR_COUNT>  (1) 
2

>  <PUBCHEM_PHARMACOPHORE_FEATURES>  (1) 
4
1 5 donor
4 5 6 7 12 cation
6 6 7 8 12 16 17 rings
6 9 10 11 13 14 15 rings

>  <PUBCHEM_HEAVY_ATOM_COUNT>  (1) 
17

>  <PUBCHEM_ATOM_DEF_STEREO_COUNT>  (1) 
0

>  <PUBCHEM_ATOM_UDEF_STEREO_COUNT>  (1) 
0

>  <PUBCHEM_BOND_DEF_STEREO_COUNT>  (1) 
0

>  <PUBCHEM_BOND_UDEF_STEREO_COUNT>  (1) 
0

>  <PUBCHEM_ISOTOPIC_ATOM_COUNT>  (1) 
0

>  <PUBCHEM_COMPONENT_COUNT>  (1) 
1

>  <PUBCHEM_CACTVS_TAUTO_COUNT>  (1) 
3

>  <PUBCHEM_CONFORMER_ID>  (1) 
000072B300000001

>  <PUBCHEM_MMFF94_ENERGY>  (1) 
46.3413

>  <PUBCHEM_FEATURE_SELFOVERLAP>  (1) 
20.297

>  <PUBCHEM_SHAPE_FINGERPRINT>  (1) 
10366900 7 17967536770034985107
10608611 8 18410289241768139637
11405975 8 18411420643554579595
11471102 20 18342738533371424086
12403259 226 18410852200390668773
12403259 415 18260823783273295157
12507557 5 18343582945226659506
12507560 40 18410571803514007580
12916754 54 18342458200829919755
13081056 2 18410573989720867989
13134695 92 17203321209329114704
13675066 3 18273207617201916050
14341114 176 18408047316057933137
14866123 147 16755786686290626162
15196674 1 18339080496713873027
15219456 202 18411699928060831234
17802600 8 18410291406584533725
17804303 29 18408046208009008022
18186145 218 18272654540829578042
200 152 17775845718410398407
20510252 161 18410293571770459401
20645477 56 18334014956782757239
20645477 70 17703515376759100782
20681677 76 18338226171810335829
21065198 57 18410576227187995131
21065199 12 18337390560005343850
21267235 1 18409457963727768867
21279426 13 18049724023240148574
21652331 79 18408040736542614501
221357 26 18412543180581130973
221490 88 18337960098881747754
22182937 141 18268996380404667137
23175994 123 17917997152643034344
23402539 116 18409725167345741895
23559900 14 18411696612361812162
3004659 81 18115031789101018166
335352 9 18411702054053727895
350125 39 18408891741051433661
351380 180 18412260644900251463
3524813 1 18408879620854346813
3545911 37 18410295791556381775
4214541 1 18409167679883598637
5104073 3 18337955696192298883
58051976 100 18343302595500355591
69090 78 18413385454133665167
77779 3 18410014372424737002
9709674 26 18337391672323096346

>  <PUBCHEM_SHAPE_MULTIPOLES>  (1) 
337.41
10.43
2.49
0.74
0.59
1.71
-0.01
-0.6
0.09
0.79
0.19
-0.16
0.15
1.26

>  <PUBCHEM_SHAPE_SELFOVERLAP>  (1) 
685.303

>  <PUBCHEM_SHAPE_VOLUME>  (1) 
192.8

>  <PUBCHEM_COORDINATE_TYPE>  (1) 
2
5
10

$$$$
