29373
     RDKit          3D

  9  8  0  0  0  0  0  0  0  0999 V2000
   -3.6084   -0.7643   -0.6213 O   0  0  0  0  0  0  0  0  0  0  0  0
   -2.9543    1.2864    0.1351 O   0  0  0  0  0  0  0  0  0  0  0  0
    2.0679    0.2498   -0.1006 C   0  0  0  0  0  0  0  0  0  0  0  0
    3.4530   -0.3569    0.1241 C   0  0  0  0  0  0  0  0  0  0  0  0
    0.9980   -0.4988    0.6968 C   0  0  0  0  0  0  0  0  0  0  0  0
    4.5256    0.4055   -0.6374 C   0  0  0  0  0  0  0  0  0  0  0  0
   -0.3578    0.1175    0.5016 C   0  0  0  0  0  0  0  0  0  0  0  0
   -1.4127   -0.5600    0.0298 C   0  0  0  0  0  0  0  0  0  0  0  0
   -2.7113    0.1209   -0.1281 C   0  0  0  0  0  0  0  0  0  0  0  0
  1  9  1  0
  2  9  2  0
  3  4  1  0
  3  5  1  0
  4  6  1  0
  5  7  1  0
  7  8  2  0
  8  9  1  0
M  END
>  <PUBCHEM_COMPOUND_CID>  (1) 
29373

>  <PUBCHEM_CONFORMER_RMSD>  (1) 
0.6

>  <PUBCHEM_CONFORMER_DIVERSEORDER>  (1) 
1
15
17
13
12
7
5
16
14
9
2
11
6
8
3
10
4

>  <PUBCHEM_MMFF94_PARTIAL_CHARGES>  (1) 
9
1 -0.65
19 0.15
2 -0.57
20 0.15
21 0.5
5 0.14
7 -0.29
8 -0.14
9 0.71

>  <PUBCHEM_EFFECTIVE_ROTOR_COUNT>  (1) 
4

>  <PUBCHEM_PHARMACOPHORE_FEATURES>  (1) 
5
1 1 acceptor
1 2 acceptor
1 6 hydrophobe
3 1 2 9 anion
4 3 4 5 7 hydrophobe

>  <PUBCHEM_HEAVY_ATOM_COUNT>  (1) 
9

>  <PUBCHEM_ATOM_DEF_STEREO_COUNT>  (1) 
0

>  <PUBCHEM_ATOM_UDEF_STEREO_COUNT>  (1) 
0

>  <PUBCHEM_BOND_DEF_STEREO_COUNT>  (1) 
0

>  <PUBCHEM_BOND_UDEF_STEREO_COUNT>  (1) 
1

>  <PUBCHEM_ISOTOPIC_ATOM_COUNT>  (1) 
0

>  <PUBCHEM_COMPONENT_COUNT>  (1) 
1

>  <PUBCHEM_CACTVS_TAUTO_COUNT>  (1) 
1

>  <PUBCHEM_CONFORMER_ID>  (1) 
000072BD00000001

>  <PUBCHEM_MMFF94_ENERGY>  (1) 
3.9796

>  <PUBCHEM_FEATURE_SELFOVERLAP>  (1) 
25.427

>  <PUBCHEM_SHAPE_FINGERPRINT>  (1) 
11062470 55 18408606963671828364
12932764 1 17703777120349688659
14325111 11 18408040697697868466
18342897 14 12324241676756140566
190213 19 13262396652913995470
1986462 14 18060420205145380101
20211469 26 13110965305813660528
20645464 45 13767928996731040561
20828058 44 8646769984860326060
21119208 17 18273217495494659164
21293036 1 18272933842858798498
22485316 2 12391515256856816708

>  <PUBCHEM_SHAPE_MULTIPOLES>  (1) 
173.48
7.98
0.9
0.77
3.53
0.11
0
1.05
-1.94
-0.33
0.03
0.01
-0.04
-0.44

>  <PUBCHEM_SHAPE_SELFOVERLAP>  (1) 
318.156

>  <PUBCHEM_SHAPE_VOLUME>  (1) 
110.1

>  <PUBCHEM_COORDINATE_TYPE>  (1) 
2
5
10

$$$$
