29372
     RDKit          3D

 10  9  0  0  0  0  0  0  0  0999 V2000
    1.7554   -1.9984    0.5817 S   0  0  0  0  0  0  0  0  0  0  0  0
    3.7444   -0.1080   -0.5212 S   0  0  0  0  0  0  0  0  0  0  0  0
   -2.4611   -0.3748    0.0878 N   0  0  0  0  0  0  0  0  0  0  0  0
    1.1519    0.6057    0.1142 N   0  0  0  0  0  0  0  0  0  0  0  0
   -1.1448   -0.0805   -0.4638 C   0  0  0  0  0  0  0  0  0  0  0  0
   -0.1872    0.3324    0.6443 C   0  0  0  0  0  0  0  0  0  0  0  0
   -3.3779   -0.8096   -0.9678 C   0  0  0  0  0  0  0  0  0  0  0  0
   -3.0041    0.7955    0.7805 C   0  0  0  0  0  0  0  0  0  0  0  0
    1.3525    2.0006   -0.2872 C   0  0  0  0  0  0  0  0  0  0  0  0
    2.1709   -0.3630    0.0315 C   0  0  0  0  0  0  0  0  0  0  0  0
  1 10  1  0
  2 10  2  0
  3  5  1  0
  3  7  1  0
  3  8  1  0
  4  6  1  0
  4  9  1  0
  4 10  1  0
  5  6  1  0
M  END
>  <PUBCHEM_COMPOUND_CID>  (1) 
29372

>  <PUBCHEM_CONFORMER_RMSD>  (1) 
0.6

>  <PUBCHEM_CONFORMER_DIVERSEORDER>  (1) 
2
12
27
26
18
10
15
22
11
21
28
19
6
5
7
29
13
1
9
8
31
17
4
30
20
23
3
24
16
25
14

>  <PUBCHEM_MMFF94_PARTIAL_CHARGES>  (1) 
11
1 -0.32
10 0.58
2 -0.38
24 0.18
3 -0.81
4 -0.66
5 0.27
6 0.3
7 0.27
8 0.27
9 0.3

>  <PUBCHEM_EFFECTIVE_ROTOR_COUNT>  (1) 
4

>  <PUBCHEM_PHARMACOPHORE_FEATURES>  (1) 
3
1 2 acceptor
1 3 cation
3 1 2 10 anion

>  <PUBCHEM_HEAVY_ATOM_COUNT>  (1) 
10

>  <PUBCHEM_ATOM_DEF_STEREO_COUNT>  (1) 
0

>  <PUBCHEM_ATOM_UDEF_STEREO_COUNT>  (1) 
0

>  <PUBCHEM_BOND_DEF_STEREO_COUNT>  (1) 
0

>  <PUBCHEM_BOND_UDEF_STEREO_COUNT>  (1) 
0

>  <PUBCHEM_ISOTOPIC_ATOM_COUNT>  (1) 
0

>  <PUBCHEM_COMPONENT_COUNT>  (1) 
1

>  <PUBCHEM_CACTVS_TAUTO_COUNT>  (1) 
1

>  <PUBCHEM_CONFORMER_ID>  (1) 
000072BC00000002

>  <PUBCHEM_MMFF94_ENERGY>  (1) 
26.5552

>  <PUBCHEM_FEATURE_SELFOVERLAP>  (1) 
15.223

>  <PUBCHEM_SHAPE_FINGERPRINT>  (1) 
10857977 72 15482665810367565811
12897270 3 18187080689011367175
12932741 1 17240480355629848057
12932764 1 18342173341213030817
14128692 85 18202281424396279672
14144814 61 18412542089701460355
14251717 144 18408318912921008510
14993402 34 18342177773777536014
15757776 16 18409442570934212734
177051 138 17489583497968287559
20201158 50 18186238420265847546
20645477 70 18342170116019892855
20711985 327 18340759386708657376
20711985 365 17831859049527966200
21293036 1 18333737935665968590
23402539 116 15647049395768933894
23552423 10 18411697725022118257
23598291 2 18272099317786488757
2748010 2 17900833952395895562
3248919 1 18334008432426721865
449060 23 18059303067320065686

>  <PUBCHEM_SHAPE_MULTIPOLES>  (1) 
203.53
6.08
1.69
0.92
1.57
0
0.03
-0.84
1.08
-0.92
-0.13
0.36
-0.09
-0.75

>  <PUBCHEM_SHAPE_SELFOVERLAP>  (1) 
352.401

>  <PUBCHEM_SHAPE_VOLUME>  (1) 
138.4

>  <PUBCHEM_COORDINATE_TYPE>  (1) 
2
5
10

$$$$
