29374
     RDKit          3D

 17 18  0  0  0  0  0  0  0  0999 V2000
   -0.8648   -1.1323    0.5569 O   0  0  0  0  0  0  0  0  0  0  0  0
    1.2340    0.7660    0.9894 O   0  0  0  0  0  0  0  0  0  0  0  0
    1.9534    0.4290   -1.1964 O   0  0  0  0  0  0  0  0  0  0  0  0
    4.5102   -1.7572   -0.3487 O   0  0  0  0  0  0  0  0  0  0  0  0
    3.3838    0.0560    0.5900 N   0  0  0  0  0  0  0  0  0  0  0  0
   -2.0765   -1.7327    0.0149 C   0  0  0  0  0  0  0  0  0  0  0  0
   -3.1096   -0.6135   -0.2542 C   0  0  0  0  0  0  0  0  0  0  0  0
   -2.2278    0.5735   -0.1872 C   0  0  0  0  0  0  0  0  0  0  0  0
   -0.9845    0.2079    0.3003 C   0  0  0  0  0  0  0  0  0  0  0  0
   -1.6938   -2.4699   -1.2748 C   0  0  0  0  0  0  0  0  0  0  0  0
   -2.5993   -2.7306    1.0494 C   0  0  0  0  0  0  0  0  0  0  0  0
   -2.5116    1.8935   -0.4881 C   0  0  0  0  0  0  0  0  0  0  0  0
    0.0203    1.1335    0.5075 C   0  0  0  0  0  0  0  0  0  0  0  0
   -1.5079    2.8461   -0.2950 C   0  0  0  0  0  0  0  0  0  0  0  0
   -0.2495    2.4682    0.2007 C   0  0  0  0  0  0  0  0  0  0  0  0
    2.1842    0.4143    0.0092 C   0  0  0  0  0  0  0  0  0  0  0  0
    4.5395   -0.3516   -0.1738 C   0  0  0  0  0  0  0  0  0  0  0  0
  1  6  1  0
  1  9  1  0
  2 13  1  0
  2 16  1  0
  3 16  2  0
  4 17  1  0
  5 16  1  0
  5 17  1  0
  6  7  1  0
  6 10  1  0
  6 11  1  0
  7  8  1  0
  8  9  2  0
  8 12  1  0
  9 13  1  0
 12 14  2  0
 13 15  2  0
 14 15  1  0
M  END
>  <PUBCHEM_COMPOUND_CID>  (1) 
29374

>  <PUBCHEM_CONFORMER_RMSD>  (1) 
0.6

>  <PUBCHEM_CONFORMER_DIVERSEORDER>  (1) 
1
31
66
13
67
22
46
52
50
42
16
56
63
19
24
59
41
15
35
58
14
51
20
47
57
27
11
18
7
62
38
55
25
3
43
8
26
48
17
65
37
34
54
28
4
21
36
5
60
64
49
53
10
2
32
61
44
29
9
33
40
30
23
45
12
6
39

>  <PUBCHEM_MMFF94_PARTIAL_CHARGES>  (1) 
20
1 -0.36
12 -0.15
13 0.08
14 -0.15
15 -0.15
16 0.78
17 0.58
2 -0.23
26 0.15
27 0.15
28 0.15
29 0.37
3 -0.57
32 0.4
4 -0.68
5 -0.73
6 0.28
7 0.14
8 -0.14
9 0.08

>  <PUBCHEM_EFFECTIVE_ROTOR_COUNT>  (1) 
4.6

>  <PUBCHEM_PHARMACOPHORE_FEATURES>  (1) 
8
1 1 acceptor
1 3 acceptor
1 4 acceptor
1 4 donor
1 5 donor
3 6 10 11 hydrophobe
5 1 6 7 8 9 rings
6 8 9 12 13 14 15 rings

>  <PUBCHEM_HEAVY_ATOM_COUNT>  (1) 
17

>  <PUBCHEM_ATOM_DEF_STEREO_COUNT>  (1) 
0

>  <PUBCHEM_ATOM_UDEF_STEREO_COUNT>  (1) 
0

>  <PUBCHEM_BOND_DEF_STEREO_COUNT>  (1) 
0

>  <PUBCHEM_BOND_UDEF_STEREO_COUNT>  (1) 
0

>  <PUBCHEM_ISOTOPIC_ATOM_COUNT>  (1) 
0

>  <PUBCHEM_COMPONENT_COUNT>  (1) 
1

>  <PUBCHEM_CACTVS_TAUTO_COUNT>  (1) 
2

>  <PUBCHEM_CONFORMER_ID>  (1) 
000072BE00000001

>  <PUBCHEM_MMFF94_ENERGY>  (1) 
48.367

>  <PUBCHEM_FEATURE_SELFOVERLAP>  (1) 
40.739

>  <PUBCHEM_SHAPE_FINGERPRINT>  (1) 
10616163 171 18410857625398866670
12500047 106 18266733581052681356
12553582 1 18051133888972715518
14115302 16 18260550021625194941
15042514 8 18336273375035531201
16752209 62 18263626408236695185
16945 1 18334564781316258409
17870717 6 18198920114946291070
19141452 34 18059857324365473519
20524608 308 18339640027720521256
20645476 183 17749104435923596473
20645477 70 17183325757165492903
20871998 22 18049442844547330025
20871999 31 18408034113449908189
21296965 67 18265614475541215715
21665056 4 18192714436247130490
23114952 82 17467045876416004005
2334 1 17832417975450660537
23402539 116 18270108029298545101
23419403 2 14545310204405341863
23557571 272 18342178882069411376
23559900 14 18341886352289628984
23728640 28 18338229349912354082
2748010 2 17976523233620176209
559249 180 18047184160281286642
58051976 100 18335425629984870628
7364860 26 17475235077563848705
81228 2 18337379535146509729
8809292 202 18341330011541828712
9709674 26 18270402685767172926

>  <PUBCHEM_SHAPE_MULTIPOLES>  (1) 
321.39
6.4
3.17
0.96
9.8
0.12
-0.08
-3.55
-0.52
-2.6
-0.15
-0.17
-0.34
0.53

>  <PUBCHEM_SHAPE_SELFOVERLAP>  (1) 
681.56

>  <PUBCHEM_SHAPE_VOLUME>  (1) 
180.1

>  <PUBCHEM_COORDINATE_TYPE>  (1) 
2
5
10

$$$$
