29387
     RDKit          3D

 23 23  0  0  0  0  0  0  0  0999 V2000
    1.3739   -2.7300    0.6838 I   0  0  0  0  0  0  0  0  0  0  0  0
   -1.6959    1.8931   -1.8762 I   0  0  0  0  0  0  0  0  0  0  0  0
    4.2480    2.1641   -1.6132 I   0  0  0  0  0  0  0  0  0  0  0  0
   -4.0684   -2.6835   -0.9475 O   0  0  0  0  0  0  0  0  0  0  0  0
   -3.2090    1.0536    3.2136 O   0  0  0  0  0  0  0  0  0  0  0  0
   -4.1692   -0.6255   -1.9049 O   0  0  0  0  0  0  0  0  0  0  0  0
   -3.2076    2.3837    1.3715 O   0  0  0  0  0  0  0  0  0  0  0  0
    4.1073    0.0852    2.0086 O   0  0  0  0  0  0  0  0  0  0  0  0
   -2.1815   -0.0906    0.1816 N   0  0  0  0  0  0  0  0  0  0  0  0
    3.7603   -0.7266   -0.1757 N   0  0  0  0  0  0  0  0  0  0  0  0
   -1.1680   -0.9871   -0.3732 C   0  0  0  0  0  0  0  0  0  0  0  0
    0.1248   -0.2679   -0.6526 C   0  0  0  0  0  0  0  0  0  0  0  0
   -3.4405   -0.8063    0.3856 C   0  0  0  0  0  0  0  0  0  0  0  0
   -1.7152    0.4920    1.4393 C   0  0  0  0  0  0  0  0  0  0  0  0
    1.3388   -0.8380   -0.2811 C   0  0  0  0  0  0  0  0  0  0  0  0
    0.0923    0.9716   -1.2852 C   0  0  0  0  0  0  0  0  0  0  0  0
    2.5307   -0.1632   -0.5445 C   0  0  0  0  0  0  0  0  0  0  0  0
    1.2843    1.6466   -1.5485 C   0  0  0  0  0  0  0  0  0  0  0  0
    2.5035    1.0791   -1.1782 C   0  0  0  0  0  0  0  0  0  0  0  0
   -3.9134   -1.3351   -0.9403 C   0  0  0  0  0  0  0  0  0  0  0  0
   -2.7850    1.4041    1.9728 C   0  0  0  0  0  0  0  0  0  0  0  0
    4.4477   -0.5728    1.0309 C   0  0  0  0  0  0  0  0  0  0  0  0
    5.7422   -1.3466    1.0335 C   0  0  0  0  0  0  0  0  0  0  0  0
  1 15  1  0
  2 16  1  0
  3 19  1  0
  4 20  1  0
  5 21  1  0
  6 20  2  0
  7 21  2  0
  8 22  2  0
  9 11  1  0
  9 13  1  0
  9 14  1  0
 10 17  1  0
 10 22  1  0
 11 12  1  0
 12 15  2  0
 12 16  1  0
 13 20  1  0
 14 21  1  0
 15 17  1  0
 16 18  2  0
 17 19  2  0
 18 19  1  0
 22 23  1  0
M  END
>  <PUBCHEM_COMPOUND_CID>  (1) 
29387

>  <PUBCHEM_CONFORMER_RMSD>  (1) 
0.8

>  <PUBCHEM_CONFORMER_DIVERSEORDER>  (1) 
1
16
26
25
4
24
8
10
22
23
29
20
7
32
15
9
11
27
19
30
12
31
21
3
18
13
28
17
14
6
5
2

>  <PUBCHEM_MMFF94_PARTIAL_CHARGES>  (1) 
27
1 -0.08
10 -0.55
11 0.41
12 -0.14
13 0.33
14 0.33
15 0.08
16 0.08
17 0.12
18 -0.15
19 0.08
2 -0.08
20 0.66
21 0.66
22 0.57
23 0.06
3 -0.08
30 0.15
31 0.37
32 0.5
33 0.5
4 -0.65
5 -0.65
6 -0.57
7 -0.57
8 -0.57
9 -0.81

>  <PUBCHEM_EFFECTIVE_ROTOR_COUNT>  (1) 
8

>  <PUBCHEM_PHARMACOPHORE_FEATURES>  (1) 
13
1 1 hydrophobe
1 10 donor
1 2 hydrophobe
1 3 hydrophobe
1 4 acceptor
1 5 acceptor
1 6 acceptor
1 7 acceptor
1 8 acceptor
1 9 cation
3 4 6 20 anion
3 5 7 21 anion
6 12 15 16 17 18 19 rings

>  <PUBCHEM_HEAVY_ATOM_COUNT>  (1) 
23

>  <PUBCHEM_ATOM_DEF_STEREO_COUNT>  (1) 
0

>  <PUBCHEM_ATOM_UDEF_STEREO_COUNT>  (1) 
0

>  <PUBCHEM_BOND_DEF_STEREO_COUNT>  (1) 
0

>  <PUBCHEM_BOND_UDEF_STEREO_COUNT>  (1) 
0

>  <PUBCHEM_ISOTOPIC_ATOM_COUNT>  (1) 
0

>  <PUBCHEM_COMPONENT_COUNT>  (1) 
1

>  <PUBCHEM_CACTVS_TAUTO_COUNT>  (1) 
2

>  <PUBCHEM_CONFORMER_ID>  (1) 
000072CB00000001

>  <PUBCHEM_MMFF94_ENERGY>  (1) 
103.9343

>  <PUBCHEM_FEATURE_SELFOVERLAP>  (1) 
66.087

>  <PUBCHEM_SHAPE_FINGERPRINT>  (1) 
10646746 165 17203336576452801232
11578080 2 18269250479017291681
11595378 159 17775002444394423268
11640471 11 18056781852760842281
11796584 16 14562805526595455442
12553582 1 17895491227912737686
12596599 1 18339092543923520239
12633257 1 17822305543423545576
12644460 14 17822583793486731284
12788726 201 18057616558001135327
12892183 10 17561076995539340014
12930653 34 17418095373449256351
13103583 49 17170424855933296992
13140716 1 17968109663069941514
13296909 8 18059860528242030809
13583140 156 16343429392972594750
13965767 371 17767988449103867329
14178342 30 18271250421505134303
14739800 52 17916299632014706552
14787075 74 17843104051234879354
15209294 21 18200876162921615898
15806764 133 15195028049440168016
16945 1 18041010513421580190
17349148 13 18335703879040611383
18222031 100 18187916284195938614
192875 21 18409163350445813939
19433438 48 18336549330478177771
200 152 18334565867610714231
20600515 1 16557349460830423695
20645477 70 17530679944259077518
20739085 24 17822876211739581572
21304303 282 17843392991651182085
23419403 2 17914022508620045909
23503958 25 16128390263102890936
23526113 38 16516246387352056301
23557571 272 16701483224270205809
23559900 14 15213016060050047326
2748010 2 17682678420178953958
3286 77 18272643589111359792
3380486 145 18116151056512303756
5104073 3 18040996267236910513
633830 44 18266204805900716686
7615 1 18340781410937064797

>  <PUBCHEM_SHAPE_MULTIPOLES>  (1) 
469.83
9.77
2.99
2.19
4.66
0.88
1.82
-2.29
0.91
2.4
-0.83
-3.7
-0.5
-1

>  <PUBCHEM_SHAPE_SELFOVERLAP>  (1) 
909.207

>  <PUBCHEM_SHAPE_VOLUME>  (1) 
292.7

>  <PUBCHEM_COORDINATE_TYPE>  (1) 
2
5
10

$$$$
