29385
     RDKit          3D

  7  6  0  0  0  0  0  0  0  0999 V2000
   -0.8971   -0.0273    0.0000 N   0  0  0  0  0  0  0  0  0  0  0  0
    0.4702   -0.6939    0.0485 C   0  0  0  0  0  0  0  0  0  0  0  0
   -1.9831   -1.0905    0.0809 C   0  0  0  0  0  0  0  0  0  0  0  0
   -1.0362    0.9304    1.1745 C   0  0  0  0  0  0  0  0  0  0  0  0
   -1.0393    0.7448   -1.3038 C   0  0  0  0  0  0  0  0  0  0  0  0
    1.5483    0.3771    0.0001 C   0  0  0  0  0  0  0  0  0  0  0  0
    2.9372   -0.2405   -0.0002 C   0  0  0  0  0  0  0  0  0  0  0  0
  1  2  1  0
  1  3  1  0
  1  4  1  0
  1  5  1  0
  2  6  1  0
  6  7  1  0
M  CHG  1   1   1
M  END
>  <PUBCHEM_COMPOUND_CID>  (1) 
29385

>  <PUBCHEM_CONFORMER_RMSD>  (1) 
0.4

>  <PUBCHEM_CONFORMER_DIVERSEORDER>  (1) 
1

>  <PUBCHEM_MMFF94_PARTIAL_CHARGES>  (1) 
5
1 -1.01
2 0.5
3 0.5
4 0.5
5 0.5

>  <PUBCHEM_EFFECTIVE_ROTOR_COUNT>  (1) 
2

>  <PUBCHEM_PHARMACOPHORE_FEATURES>  (1) 
2
1 1 cation
1 7 hydrophobe

>  <PUBCHEM_HEAVY_ATOM_COUNT>  (1) 
7

>  <PUBCHEM_ATOM_DEF_STEREO_COUNT>  (1) 
0

>  <PUBCHEM_ATOM_UDEF_STEREO_COUNT>  (1) 
0

>  <PUBCHEM_BOND_DEF_STEREO_COUNT>  (1) 
0

>  <PUBCHEM_BOND_UDEF_STEREO_COUNT>  (1) 
0

>  <PUBCHEM_ISOTOPIC_ATOM_COUNT>  (1) 
0

>  <PUBCHEM_COMPONENT_COUNT>  (1) 
1

>  <PUBCHEM_CACTVS_TAUTO_COUNT>  (1) 
1

>  <PUBCHEM_CONFORMER_ID>  (1) 
000072C900000001

>  <PUBCHEM_MMFF94_ENERGY>  (1) 
19.6929

>  <PUBCHEM_FEATURE_SELFOVERLAP>  (1) 
10.148

>  <PUBCHEM_SHAPE_FINGERPRINT>  (1) 
16714656 1 18040714800601974214
21040471 1 17700150806336449208
23552449 1 17894903023250909884
24536 1 18129937884510622498
29004967 10 17561086950888293178
5084963 1 18333449867677101066
5460574 1 9439410124958223122
5943 1 13006629026896870029

>  <PUBCHEM_SHAPE_MULTIPOLES>  (1) 
139.08
3.26
1.09
1.06
2.53
0.06
0.09
0.57
-0.03
-0.48
-0.06
-0.48
-0.38
0.01

>  <PUBCHEM_SHAPE_SELFOVERLAP>  (1) 
239.54

>  <PUBCHEM_SHAPE_VOLUME>  (1) 
95.5

>  <PUBCHEM_COORDINATE_TYPE>  (1) 
2
5
10

$$$$
