29391
     RDKit          3D

 12 11  0  0  0  0  0  0  0  0999 V2000
    4.3309   -0.1567   -0.4358 S   0  0  0  0  0  0  0  0  0  0  0  0
    2.4965   -1.5485    1.4201 S   0  0  0  0  0  0  0  0  0  0  0  0
   -1.8993   -0.1175    0.1486 N   0  0  0  0  0  0  0  0  0  0  0  0
    1.7588    0.6393   -0.0976 N   0  0  0  0  0  0  0  0  0  0  0  0
   -0.5555   -0.1501   -0.4141 C   0  0  0  0  0  0  0  0  0  0  0  0
    0.3940    0.6819    0.4354 C   0  0  0  0  0  0  0  0  0  0  0  0
   -2.8106   -0.9470   -0.6424 C   0  0  0  0  0  0  0  0  0  0  0  0
   -2.3969    1.2579    0.2179 C   0  0  0  0  0  0  0  0  0  0  0  0
   -2.3217   -2.3778   -0.7324 C   0  0  0  0  0  0  0  0  0  0  0  0
   -3.7666    1.3206    0.8616 C   0  0  0  0  0  0  0  0  0  0  0  0
    2.0436    1.6970   -1.0711 C   0  0  0  0  0  0  0  0  0  0  0  0
    2.7267   -0.2992    0.3099 C   0  0  0  0  0  0  0  0  0  0  0  0
  1 12  1  0
  2 12  2  0
  3  5  1  0
  3  7  1  0
  3  8  1  0
  4  6  1  0
  4 11  1  0
  4 12  1  0
  5  6  1  0
  7  9  1  0
  8 10  1  0
M  END
>  <PUBCHEM_COMPOUND_CID>  (1) 
29391

>  <PUBCHEM_CONFORMER_RMSD>  (1) 
0.6

>  <PUBCHEM_CONFORMER_DIVERSEORDER>  (1) 
2
32
55
79
46
65
83
50
31
39
23
26
48
33
68
47
27
53
86
76
41
36
80
5
74
81
42
73
44
77
29
69
61
62
60
56
6
30
84
35
9
67
40
37
82
85
38
52
75
17
57
8
71
16
64
22
14
72
18
43
21
34
66
54
7
12
3
78
28
45
13
24
59
10
49
63
15
11
4
51
70
1
19
58
20
25

>  <PUBCHEM_MMFF94_PARTIAL_CHARGES>  (1) 
11
1 -0.32
11 0.3
12 0.58
2 -0.38
3 -0.81
30 0.18
4 -0.66
5 0.27
6 0.3
7 0.27
8 0.27

>  <PUBCHEM_EFFECTIVE_ROTOR_COUNT>  (1) 
6

>  <PUBCHEM_PHARMACOPHORE_FEATURES>  (1) 
3
1 2 acceptor
1 3 cation
3 1 2 12 anion

>  <PUBCHEM_HEAVY_ATOM_COUNT>  (1) 
12

>  <PUBCHEM_ATOM_DEF_STEREO_COUNT>  (1) 
0

>  <PUBCHEM_ATOM_UDEF_STEREO_COUNT>  (1) 
0

>  <PUBCHEM_BOND_DEF_STEREO_COUNT>  (1) 
0

>  <PUBCHEM_BOND_UDEF_STEREO_COUNT>  (1) 
0

>  <PUBCHEM_ISOTOPIC_ATOM_COUNT>  (1) 
0

>  <PUBCHEM_COMPONENT_COUNT>  (1) 
1

>  <PUBCHEM_CACTVS_TAUTO_COUNT>  (1) 
1

>  <PUBCHEM_CONFORMER_ID>  (1) 
000072CF00000002

>  <PUBCHEM_MMFF94_ENERGY>  (1) 
24.9484

>  <PUBCHEM_FEATURE_SELFOVERLAP>  (1) 
15.223

>  <PUBCHEM_SHAPE_FINGERPRINT>  (1) 
124424 183 16200432429765601330
12500047 106 17988639657935989774
12932764 1 18187640293306779060
13296908 3 17203603813523215834
13380535 76 18060139795858687791
14144814 61 18409442566227522514
14965852 173 18412824706975817924
15279307 12 18409731742165393755
15375462 189 18114460068111462082
15669948 3 18272369823527072967
15775835 57 18408889507594294424
18186145 218 17676772054289082340
18342897 69 18270954764947338791
18511873 20 18338237063689214425
18522851 12 18261110734159234682
19422 9 18338802315977039662
20279233 1 15913333489412050941
20645476 183 18409735040995299239
20645477 70 17241310383481886250
20681677 155 18341618083762327530
20715346 28 16486968531228472122
22445834 79 18334290959396288755
22485316 2 18343864394887337694
2255824 54 18041282166367279828
23402539 116 17917423195306092485
23552423 10 18261387913899182111
23559900 14 17846499202214372856
23598291 2 18335427901711548556
23598294 1 18200322133747136995
3248919 1 17895188973504323992
53748568 43 18335140882032285074
58051976 100 18334857229712675975
603831 33 18124307461331665814
74978 22 18342452664342684193
9939556 21 18409168830808421845

>  <PUBCHEM_SHAPE_MULTIPOLES>  (1) 
244.69
7.34
2.01
1.12
1.35
0.69
-0.15
-0.03
-0.23
-0.98
0.23
0.23
0.19
-1.78

>  <PUBCHEM_SHAPE_SELFOVERLAP>  (1) 
430.336

>  <PUBCHEM_SHAPE_VOLUME>  (1) 
163.6

>  <PUBCHEM_COORDINATE_TYPE>  (1) 
2
5
10

$$$$
