29396
     RDKit          3D

  8  8  0  0  0  0  0  0  0  0999 V2000
    2.4964   -0.0497    0.3306 O   0  0  0  0  0  0  0  0  0  0  0  0
    0.6643    1.1719   -0.2063 N   0  0  0  0  0  0  0  0  0  0  0  0
    0.5711   -1.1930   -0.0212 N   0  0  0  0  0  0  0  0  0  0  0  0
   -1.6648    0.7754    0.5367 C   0  0  0  0  0  0  0  0  0  0  0  0
   -1.8459   -0.7276    0.3221 C   0  0  0  0  0  0  0  0  0  0  0  0
   -0.7421    1.4390   -0.4741 C   0  0  0  0  0  0  0  0  0  0  0  0
   -0.7733   -1.3907   -0.5279 C   0  0  0  0  0  0  0  0  0  0  0  0
    1.2944   -0.0253    0.0401 C   0  0  0  0  0  0  0  0  0  0  0  0
  1  8  2  0
  2  6  1  0
  2  8  1  0
  3  7  1  0
  3  8  1  0
  4  5  1  0
  4  6  1  0
  5  7  1  0
M  END
>  <PUBCHEM_COMPOUND_CID>  (1) 
29396

>  <PUBCHEM_CONFORMER_RMSD>  (1) 
0.4

>  <PUBCHEM_CONFORMER_DIVERSEORDER>  (1) 
1
2
3

>  <PUBCHEM_MMFF94_PARTIAL_CHARGES>  (1) 
8
1 -0.57
17 0.37
18 0.37
2 -0.73
3 -0.73
6 0.3
7 0.3
8 0.69

>  <PUBCHEM_EFFECTIVE_ROTOR_COUNT>  (1) 
1.2

>  <PUBCHEM_PHARMACOPHORE_FEATURES>  (1) 
4
1 1 acceptor
1 2 donor
1 3 donor
7 2 3 4 5 6 7 8 rings

>  <PUBCHEM_HEAVY_ATOM_COUNT>  (1) 
8

>  <PUBCHEM_ATOM_DEF_STEREO_COUNT>  (1) 
0

>  <PUBCHEM_ATOM_UDEF_STEREO_COUNT>  (1) 
0

>  <PUBCHEM_BOND_DEF_STEREO_COUNT>  (1) 
0

>  <PUBCHEM_BOND_UDEF_STEREO_COUNT>  (1) 
0

>  <PUBCHEM_ISOTOPIC_ATOM_COUNT>  (1) 
0

>  <PUBCHEM_COMPONENT_COUNT>  (1) 
1

>  <PUBCHEM_CACTVS_TAUTO_COUNT>  (1) 
2

>  <PUBCHEM_CONFORMER_ID>  (1) 
000072D400000001

>  <PUBCHEM_MMFF94_ENERGY>  (1) 
12.0528

>  <PUBCHEM_FEATURE_SELFOVERLAP>  (1) 
20.333

>  <PUBCHEM_SHAPE_FINGERPRINT>  (1) 
16714656 1 18411144631865634550
18185500 45 17907579486112514471
21040471 1 18194968443674129317
23552423 10 18187933833142192190
29004967 10 17604151522686710912
5084963 1 18343023297871129459

>  <PUBCHEM_SHAPE_MULTIPOLES>  (1) 
148.8
2.5
1.59
0.72
0.9
0.03
-0.02
-0.07
0.5
-0.42
-0.24
-0.13
0.02
-0.06

>  <PUBCHEM_SHAPE_SELFOVERLAP>  (1) 
287.898

>  <PUBCHEM_SHAPE_VOLUME>  (1) 
88.3

>  <PUBCHEM_COORDINATE_TYPE>  (1) 
2
5
10

$$$$
