2939
     RDKit          3D

 28 29  0  0  1  0  0  0  0  0999 V2000
    2.4005    1.9886    0.5543 P   0  0  0  0  0  0  0  0  0  0  0  0
    4.0333    0.0902   -0.9935 P   0  0  0  0  0  0  0  0  0  0  0  0
    5.9382   -1.5335    0.5682 P   0  0  0  0  0  0  0  0  0  0  0  0
   -1.7334    1.1628   -0.2003 O   0  0  0  0  0  0  0  0  0  0  0  0
    0.9996    1.2890    0.1464 O   0  0  0  0  0  0  0  0  0  0  0  0
    3.4319    1.5370   -0.6042 O   0  0  0  0  0  0  0  0  0  0  0  0
   -3.9408    0.0428    2.7575 O   0  0  0  0  0  0  0  0  0  0  0  0
    2.1680    3.5604    0.2506 O   0  0  0  0  0  0  0  0  0  0  0  0
   -7.5491   -0.6946    0.0034 O   0  0  0  0  0  0  0  0  0  0  0  0
    2.8719    1.6899    1.9478 O   0  0  0  0  0  0  0  0  0  0  0  0
    4.9347   -0.2977    0.2900 O   0  0  0  0  0  0  0  0  0  0  0  0
    5.1277    0.4205   -2.1363 O   0  0  0  0  0  0  0  0  0  0  0  0
    3.0151   -0.9431   -1.3766 O   0  0  0  0  0  0  0  0  0  0  0  0
    4.9585   -2.8184    0.5989 O   0  0  0  0  0  0  0  0  0  0  0  0
    6.3447   -1.3326    2.1197 O   0  0  0  0  0  0  0  0  0  0  0  0
    7.0921   -1.6294   -0.3859 O   0  0  0  0  0  0  0  0  0  0  0  0
   -3.5415   -0.1710    0.4669 N   0  0  0  0  0  0  0  0  0  0  0  0
   -5.7313   -0.3260    1.3725 N   0  0  0  0  0  0  0  0  0  0  0  0
   -2.1214    0.0074    0.5634 C   0  0  0  0  0  0  0  0  0  0  0  0
   -0.8488    0.7344   -1.2588 C   0  0  0  0  0  0  0  0  0  0  0  0
   -1.4135   -1.1446   -0.0420 C   0  0  0  0  0  0  0  0  0  0  0  0
   -0.6819   -0.7316   -1.0743 C   0  0  0  0  0  0  0  0  0  0  0  0
    0.4536    1.4976   -1.1449 C   0  0  0  0  0  0  0  0  0  0  0  0
   -4.1031   -0.3802   -0.7884 C   0  0  0  0  0  0  0  0  0  0  0  0
   -4.3661   -0.1376    1.6145 C   0  0  0  0  0  0  0  0  0  0  0  0
   -5.4099   -0.5600   -1.0165 C   0  0  0  0  0  0  0  0  0  0  0  0
   -6.3393   -0.5370    0.1442 C   0  0  0  0  0  0  0  0  0  0  0  0
   -5.9894   -0.7832   -2.3765 C   0  0  0  0  0  0  0  0  0  0  0  0
  1  5  1  0
  1  6  1  0
  1  8  1  0
  1 10  2  0
  2  6  1  0
  2 11  1  0
  2 12  1  0
  2 13  2  0
  3 11  1  0
  3 14  1  0
  3 15  1  0
  3 16  2  0
  4 19  1  0
  4 20  1  0
  5 23  1  0
  7 25  2  0
  9 27  2  0
 17 19  1  0
 17 24  1  0
 17 25  1  0
 18 25  1  0
 18 27  1  0
 19 21  1  0
 20 22  1  0
 20 23  1  0
 21 22  2  0
 24 26  2  0
 26 27  1  0
 26 28  1  0
M  END
>  <PUBCHEM_COMPOUND_CID>  (1) 
2939

>  <PUBCHEM_CONFORMER_RMSD>  (1) 
1.4

>  <PUBCHEM_CONFORMER_DIVERSEORDER>  (1) 
1
218
145
13
95
173
4
109
203
96
235
38
100
42
52
70
69
91
180
26
20
63
92
204
72
24
157
182
73
137
66
139
22
215
88
147
97
35
176
25
193
200
53
183
68
108
202
187
17
208
76
89
41
216
123
29
163
61
211
21
219
164
47
194
132
225
23
156
119
7
49
213
110
12
102
186
98
152
120
191
107
8
158
94
9
196
71
85
18
165
127
170
217
31
133
79
177
37
58
87
229
206
112
144
44
60
234
201
46
80
65
128
56
84
59
167
3
226
125
197
166
149
228
121
116
230
55
232
40
99
64
82
86
101
131
129
209
220
154
115
223
190
43
16
148
6
27
185
90
130
5
175
126
188
11
111
83
207
205
104
141
135
195
122
77
93
160
162
136
2
124
198
32
214
153
14
150
117
189
227
224
50
28
171
75
39
178
143
142
57
151
78
54
51
146
174
74
172
62
236
103
33
179
168
30
10
181
67
15
169
199
19
210
45
233
140
36
138
34
106
184
161
221
231
134
113
81
114
159
212
155
222
105
48
118
192
237

>  <PUBCHEM_MMFF94_PARTIAL_CHARGES>  (1) 
36
1 1.51
10 -0.7
11 -0.54
12 -0.77
13 -0.7
14 -0.77
15 -0.77
16 -0.7
17 -0.47
18 -0.49
19 0.72
2 1.51
20 0.42
21 -0.29
22 -0.29
23 0.28
24 -0.04
25 0.69
26 -0.12
27 0.62
28 0.14
3 1.51
31 0.15
32 0.15
35 0.15
36 0.37
4 -0.56
40 0.5
41 0.5
42 0.5
43 0.5
5 -0.55
6 -0.54
7 -0.57
8 -0.77
9 -0.57

>  <PUBCHEM_EFFECTIVE_ROTOR_COUNT>  (1) 
8.6

>  <PUBCHEM_PHARMACOPHORE_FEATURES>  (1) 
14
1 10 acceptor
1 12 acceptor
1 13 acceptor
1 14 acceptor
1 15 acceptor
1 16 acceptor
1 18 donor
1 4 acceptor
1 7 acceptor
1 8 acceptor
1 9 acceptor
4 3 14 15 16 anion
5 4 19 20 21 22 rings
6 17 18 24 25 26 27 rings

>  <PUBCHEM_HEAVY_ATOM_COUNT>  (1) 
28

>  <PUBCHEM_ATOM_DEF_STEREO_COUNT>  (1) 
0

>  <PUBCHEM_ATOM_UDEF_STEREO_COUNT>  (1) 
2

>  <PUBCHEM_BOND_DEF_STEREO_COUNT>  (1) 
0

>  <PUBCHEM_BOND_UDEF_STEREO_COUNT>  (1) 
0

>  <PUBCHEM_ISOTOPIC_ATOM_COUNT>  (1) 
0

>  <PUBCHEM_COMPONENT_COUNT>  (1) 
1

>  <PUBCHEM_CACTVS_TAUTO_COUNT>  (1) 
3

>  <PUBCHEM_CONFORMER_ID>  (1) 
00000B7B00000001

>  <PUBCHEM_MMFF94_ENERGY>  (1) 
-20.4017

>  <PUBCHEM_FEATURE_SELFOVERLAP>  (1) 
71.115

>  <PUBCHEM_SHAPE_FINGERPRINT>  (1) 
10 15 14908174270388718074
12236239 1 17775011232699032933
12596602 18 16415476034976403386
12616971 3 17775014526638463381
12633257 1 18272375286820561974
12760667 363 18335140864683467884
13533116 47 18271519888101471000
13673619 4 18187644687475223412
13685833 64 18334856117353030332
13782708 43 18186800274923493615
13914758 101 18342178839583741409
14251764 18 17917993901622017764
15183329 4 18202007641906430589
17349148 13 17988089997265659685
17857418 61 18131632300664294055
17980427 23 12966829257145614680
20567600 75 17530965808792513695
21315764 119 15357974512961619746
22061861 79 17749108902504922647
23559900 14 17022621983287941357
3004659 81 17703799153616572868
3411729 13 17488172885434196168
345986 75 18202002071455277760
34797466 226 16371014043758969605
397830 11 13326566397562790477
5104073 3 17916870260831101835
67856867 119 17131836512362510905

>  <PUBCHEM_SHAPE_MULTIPOLES>  (1) 
501.51
18.98
2.16
1.99
0.95
1.06
-0.39
-10.88
-1.83
-4.29
-0.32
0.8
-0.1
-1.2

>  <PUBCHEM_SHAPE_SELFOVERLAP>  (1) 
997.156

>  <PUBCHEM_SHAPE_VOLUME>  (1) 
298.1

>  <PUBCHEM_COORDINATE_TYPE>  (1) 
2
5
10

$$$$
