29407
     RDKit          3D

 16 17  0  0  0  0  0  0  0  0999 V2000
    3.7178   -0.2039    0.4710 O   0  0  0  0  0  0  0  0  0  0  0  0
   -2.3084    2.3080    0.3478 O   0  0  0  0  0  0  0  0  0  0  0  0
   -2.4088   -2.2512   -0.4712 O   0  0  0  0  0  0  0  0  0  0  0  0
   -1.8399    0.0088   -0.0158 N   0  0  0  0  0  0  0  0  0  0  0  0
   -0.4140   -0.0452    0.1094 C   0  0  0  0  0  0  0  0  0  0  0  0
    0.3606    1.0560   -0.2547 C   0  0  0  0  0  0  0  0  0  0  0  0
    0.1998   -1.2001    0.5945 C   0  0  0  0  0  0  0  0  0  0  0  0
    2.3632   -0.1525    0.3512 C   0  0  0  0  0  0  0  0  0  0  0  0
   -2.6059    1.1516    0.0963 C   0  0  0  0  0  0  0  0  0  0  0  0
   -2.6581   -1.0743   -0.2673 C   0  0  0  0  0  0  0  0  0  0  0  0
    1.7492    1.0024   -0.1340 C   0  0  0  0  0  0  0  0  0  0  0  0
    1.5884   -1.2538    0.7153 C   0  0  0  0  0  0  0  0  0  0  0  0
   -4.0050    0.7479   -0.1060 C   0  0  0  0  0  0  0  0  0  0  0  0
   -4.0368   -0.5654   -0.3091 C   0  0  0  0  0  0  0  0  0  0  0  0
    4.4814    0.5737   -0.4500 C   0  0  0  0  0  0  0  0  0  0  0  0
    5.8168   -0.1022   -0.6774 C   0  0  0  0  0  0  0  0  0  0  0  0
  1  8  1  0
  1 15  1  0
  2  9  2  0
  3 10  2  0
  4  5  1  0
  4  9  1  0
  4 10  1  0
  5  6  2  0
  5  7  1  0
  6 11  1  0
  7 12  2  0
  8 11  2  0
  8 12  1  0
  9 13  1  0
 10 14  1  0
 13 14  2  0
 15 16  1  0
M  END
>  <PUBCHEM_COMPOUND_CID>  (1) 
29407

>  <PUBCHEM_CONFORMER_RMSD>  (1) 
0.6

>  <PUBCHEM_CONFORMER_DIVERSEORDER>  (1) 
1
4
5
6
3
2

>  <PUBCHEM_MMFF94_PARTIAL_CHARGES>  (1) 
21
1 -0.36
10 0.62
11 -0.15
12 -0.15
13 -0.14
14 -0.14
15 0.28
17 0.15
18 0.15
19 0.15
2 -0.57
20 0.15
21 0.15
22 0.15
3 -0.57
4 -0.24
5 0.12
6 -0.15
7 -0.15
8 0.08
9 0.62

>  <PUBCHEM_EFFECTIVE_ROTOR_COUNT>  (1) 
3.2

>  <PUBCHEM_PHARMACOPHORE_FEATURES>  (1) 
5
1 1 acceptor
1 2 acceptor
1 3 acceptor
5 4 9 10 13 14 rings
6 5 6 7 8 11 12 rings

>  <PUBCHEM_HEAVY_ATOM_COUNT>  (1) 
16

>  <PUBCHEM_ATOM_DEF_STEREO_COUNT>  (1) 
0

>  <PUBCHEM_ATOM_UDEF_STEREO_COUNT>  (1) 
0

>  <PUBCHEM_BOND_DEF_STEREO_COUNT>  (1) 
0

>  <PUBCHEM_BOND_UDEF_STEREO_COUNT>  (1) 
0

>  <PUBCHEM_ISOTOPIC_ATOM_COUNT>  (1) 
0

>  <PUBCHEM_COMPONENT_COUNT>  (1) 
1

>  <PUBCHEM_CACTVS_TAUTO_COUNT>  (1) 
1

>  <PUBCHEM_CONFORMER_ID>  (1) 
000072DF00000001

>  <PUBCHEM_MMFF94_ENERGY>  (1) 
49.0512

>  <PUBCHEM_FEATURE_SELFOVERLAP>  (1) 
25.373

>  <PUBCHEM_SHAPE_FINGERPRINT>  (1) 
10680689 15 18412550928765215610
11401426 45 18335417989364625368
12236239 1 18114180830448773916
12390115 104 17986686874289388657
13214271 11 17385727989174256617
13288520 33 18272371987842462975
13760787 5 17385435510618103218
14144814 61 18410006598881883179
14911166 2 18333734641431314182
14993402 34 18186238450620482980
15442244 35 18121212087038969242
15669948 3 18341600525899318835
16945 1 18340475716977096283
17804303 29 18343582970827852809
17834072 33 18410014377336928500
17870717 6 18129959922156662910
18186145 218 18335411405069270220
19026448 4 17489583493957974906
200 152 18409439311259432199
20300324 65 18413109480461174524
204376 136 16081092588817274762
20510252 161 18130787794462476353
20645477 56 18342178826123865425
20645477 70 16486982748266548398
21267235 1 18337960086107842823
22094290 60 18272090504386639280
2297311 6 18202010940251546053
23175994 123 16415482666030803704
23402539 116 18342171180696729604
23402655 69 18261668186385491181
23557571 272 17918000455452175496
23559900 14 18272929466719998120
2748010 2 15670134003250231307
296302 2 15285354007329076648
3312278 4 18408320008269544363
3545911 37 18409730651417305975
4214541 1 18413390917120919580
474 4 17531252785474630740
4990 188 18272657827223299726
5104073 3 18335699403784643912

>  <PUBCHEM_SHAPE_MULTIPOLES>  (1) 
306.68
9.45
1.69
0.75
9.25
0.02
0
-0.55
2.07
-1.4
-0.05
0.23
0.08
-0.56

>  <PUBCHEM_SHAPE_SELFOVERLAP>  (1) 
659.264

>  <PUBCHEM_SHAPE_VOLUME>  (1) 
168.1

>  <PUBCHEM_COORDINATE_TYPE>  (1) 
2
5
10

$$$$
