29400
     RDKit          3D

 23 27  0  0  1  0  0  0  0  0999 V2000
   -1.9126    1.4424   -1.9380 O   0  0  0  0  0  0  0  0  0  0  0  0
    0.0307    1.9811    1.6103 N   0  0  0  0  0  0  0  0  0  0  0  0
   -0.0556    2.2394   -0.7597 N   0  0  0  0  0  0  0  0  0  0  0  0
    1.3800    0.4758    0.0993 C   0  0  0  0  0  0  0  0  0  0  0  0
   -1.1963    0.3233    0.1485 C   0  0  0  0  0  0  0  0  0  0  0  0
    0.1407   -0.4724   -0.0170 C   0  0  0  0  0  0  0  0  0  0  0  0
    1.2916    1.2177    1.4707 C   0  0  0  0  0  0  0  0  0  0  0  0
    1.2091    1.5614   -1.0047 C   0  0  0  0  0  0  0  0  0  0  0  0
   -1.1230    1.0559    1.5258 C   0  0  0  0  0  0  0  0  0  0  0  0
   -0.0808    2.9569    0.5076 C   0  0  0  0  0  0  0  0  0  0  0  0
   -1.1670    1.3945   -0.9676 C   0  0  0  0  0  0  0  0  0  0  0  0
    2.6817   -0.3242   -0.0055 C   0  0  0  0  0  0  0  0  0  0  0  0
   -2.4649   -0.5302    0.0648 C   0  0  0  0  0  0  0  0  0  0  0  0
    2.9615   -1.3306    0.9209 C   0  0  0  0  0  0  0  0  0  0  0  0
    3.5923   -0.0492   -1.0277 C   0  0  0  0  0  0  0  0  0  0  0  0
   -3.7205    0.0696    0.1782 C   0  0  0  0  0  0  0  0  0  0  0  0
   -2.3689   -1.9099   -0.1248 C   0  0  0  0  0  0  0  0  0  0  0  0
    4.1473   -2.0591    0.8254 C   0  0  0  0  0  0  0  0  0  0  0  0
    4.7778   -0.7777   -1.1232 C   0  0  0  0  0  0  0  0  0  0  0  0
   -4.8760   -0.7080    0.1021 C   0  0  0  0  0  0  0  0  0  0  0  0
   -3.5245   -2.6874   -0.2010 C   0  0  0  0  0  0  0  0  0  0  0  0
    5.0554   -1.7828   -0.1966 C   0  0  0  0  0  0  0  0  0  0  0  0
   -4.7781   -2.0864   -0.0876 C   0  0  0  0  0  0  0  0  0  0  0  0
  1 11  2  0
  2  7  1  0
  2  9  1  0
  2 10  1  0
  3  8  1  0
  3 10  1  0
  3 11  1  0
  4  6  1  0
  4  7  1  0
  4  8  1  0
  4 12  1  0
  5  6  1  0
  5  9  1  0
  5 11  1  0
  5 13  1  0
 12 14  2  0
 12 15  1  0
 13 16  2  0
 13 17  1  0
 14 18  1  0
 15 19  2  0
 16 20  1  0
 17 21  2  0
 18 22  2  0
 19 22  1  0
 20 23  2  0
 21 23  1  0
M  END
>  <PUBCHEM_COMPOUND_CID>  (1) 
29400

>  <PUBCHEM_CONFORMER_RMSD>  (1) 
0.6

>  <PUBCHEM_CONFORMER_DIVERSEORDER>  (1) 
2
1
3
6
5
4

>  <PUBCHEM_MMFF94_PARTIAL_CHARGES>  (1) 
32
1 -0.57
10 0.57
11 0.57
12 -0.14
13 -0.14
14 -0.15
15 -0.15
16 -0.15
17 -0.15
18 -0.15
19 -0.15
2 -0.81
20 -0.15
21 -0.15
22 -0.15
23 -0.15
3 -0.66
34 0.15
35 0.15
36 0.15
37 0.15
38 0.15
39 0.15
4 0.14
40 0.15
41 0.15
42 0.15
43 0.15
5 0.2
7 0.27
8 0.3
9 0.27

>  <PUBCHEM_EFFECTIVE_ROTOR_COUNT>  (1) 
3

>  <PUBCHEM_PHARMACOPHORE_FEATURES>  (1) 
8
1 1 acceptor
1 2 cation
6 12 14 15 18 19 22 rings
6 13 16 17 20 21 23 rings
6 2 3 4 7 8 10 rings
6 2 3 5 9 10 11 rings
6 2 4 5 6 7 9 rings
6 3 4 5 6 8 11 rings

>  <PUBCHEM_HEAVY_ATOM_COUNT>  (1) 
23

>  <PUBCHEM_ATOM_DEF_STEREO_COUNT>  (1) 
0

>  <PUBCHEM_ATOM_UDEF_STEREO_COUNT>  (1) 
2

>  <PUBCHEM_BOND_DEF_STEREO_COUNT>  (1) 
0

>  <PUBCHEM_BOND_UDEF_STEREO_COUNT>  (1) 
0

>  <PUBCHEM_ISOTOPIC_ATOM_COUNT>  (1) 
0

>  <PUBCHEM_COMPONENT_COUNT>  (1) 
1

>  <PUBCHEM_CACTVS_TAUTO_COUNT>  (1) 
1

>  <PUBCHEM_CONFORMER_ID>  (1) 
000072D800000002

>  <PUBCHEM_MMFF94_ENERGY>  (1) 
107.795

>  <PUBCHEM_FEATURE_SELFOVERLAP>  (1) 
53.978

>  <PUBCHEM_SHAPE_FINGERPRINT>  (1) 
10369192 42 17911500310904157192
10622 236 17534041001061345442
11045515 52 18040437659543041700
11046707 91 18411984641432469962
11135609 187 17976551829661048948
11578080 2 18338221730762307072
11796584 16 18413112762122442895
12506688 2 18412825797897809898
12553582 1 18336255803860664587
12596602 18 13901899012265994983
12633257 1 17916882295640688579
12714826 92 18336538339714837759
12760667 363 18271523096204924142
12788726 201 18262238798629108226
12824470 246 18411142424231364986
12892183 10 15410625743748586770
12916754 54 18337395925099997830
12969540 37 18052531359492866118
13004483 165 18410568462013438634
13009979 54 18340222863868447561
13103583 49 17846232059127129371
13134695 92 17489020582654549889
13533116 47 17982165923331751983
13544653 18 18411425045880084114
13631057 29 18410573955983985554
13955234 65 17908147929735497545
14790565 3 17689433789439784837
14863182 85 16681188752209231015
15342816 4 18411145748836959974
16945 1 18193826059878314800
17349148 13 17560807679789169591
17492 89 18051410974936500455
17804303 29 18341896320518371539
1813 80 18411993463300363212
18222031 100 18131066064992676879
19784866 135 18411133598152738633
19784866 140 17022620866802224731
200 152 17822298946591246098
20028762 73 17560233764610909847
20291156 8 18410575106254330218
20388580 30 18334581290701007036
20775530 9 18266738172067428243
20871999 31 18040713632460332807
21033648 29 14835857148635727099
21250096 35 18413389855958191795
21452121 71 18341341062355550976
221490 88 18047197620218207859
22182313 1 18192124148848456485
22950370 63 18409173216007116655
23175994 123 18059853952631334789
23419403 2 18128794465226964568
23557571 272 18270967830311648038
23559900 14 18270392923316798721
238078 22 18412271635784910942
3004659 81 18259985964050479806
335352 9 18411700972634553351
46194498 28 17169266151440482119
463206 1 18334858350330849666
465052 167 18340777034555723159
497634 4 18270131110853454028
5104073 3 17916312808931990939
5486654 36 18337404824119670667
7808743 9 8862642604711161110
7970288 3 18341894099593992862
8863177 126 17972893724410537539
9709674 26 18050283971169977587
9981440 41 12280878617441668475

>  <PUBCHEM_SHAPE_MULTIPOLES>  (1) 
457.5
9.19
2.87
1.32
1.47
0.34
0.03
-9.02
-1.11
-0.75
0.19
0.44
0.63
-0.2

>  <PUBCHEM_SHAPE_SELFOVERLAP>  (1) 
1029.535

>  <PUBCHEM_SHAPE_VOLUME>  (1) 
231.8

>  <PUBCHEM_COORDINATE_TYPE>  (1) 
2
5
10

$$$$
