2941
     RDKit          3D

 14 16  0  0  1  0  0  0  0  0999 V2000
   -2.8222    2.0265   -0.3211 S   0  0  0  0  0  0  0  0  0  0  0  0
   -4.4430   -0.4913   -0.1783 S   0  0  0  0  0  0  0  0  0  0  0  0
   -1.9030   -0.2787    0.6470 O   0  0  0  0  0  0  0  0  0  0  0  0
    1.8906   -0.3903    0.9467 C   0  0  0  0  0  0  0  0  0  0  0  0
    2.1961   -0.6156   -0.5499 C   0  0  0  0  0  0  0  0  0  0  0  0
    0.4211   -0.8549    1.0696 C   0  0  0  0  0  0  0  0  0  0  0  0
    0.8637   -1.1859   -1.0915 C   0  0  0  0  0  0  0  0  0  0  0  0
    0.4229   -2.0474    0.0983 C   0  0  0  0  0  0  0  0  0  0  0  0
   -0.5599    0.0993    0.3631 C   0  0  0  0  0  0  0  0  0  0  0  0
   -0.2672   -0.1415   -1.1267 C   0  0  0  0  0  0  0  0  0  0  0  0
    2.2297    1.0652    1.2470 C   0  0  0  0  0  0  0  0  0  0  0  0
    2.7070    0.7117   -1.0976 C   0  0  0  0  0  0  0  0  0  0  0  0
    2.2723    1.7779   -0.0996 C   0  0  0  0  0  0  0  0  0  0  0  0
   -3.0079    0.3250    0.0928 C   0  0  0  0  0  0  0  0  0  0  0  0
  1 14  1  0
  2 14  2  0
  3  9  1  0
  3 14  1  0
  4  5  1  0
  4  6  1  0
  4 11  1  0
  5  7  1  0
  5 12  1  0
  6  8  1  0
  6  9  1  0
  7  8  1  0
  7 10  1  0
  9 10  1  0
 11 13  1  0
 12 13  1  0
M  END
>  <PUBCHEM_COMPOUND_CID>  (1) 
2941

>  <PUBCHEM_CONFORMER_RMSD>  (1) 
0.6

>  <PUBCHEM_CONFORMER_DIVERSEORDER>  (1) 
1
19
10
25
5
22
9
23
20
11
16
6
15
2
21
24
4
12
17
7
8
14
13
3
18

>  <PUBCHEM_MMFF94_PARTIAL_CHARGES>  (1) 
6
1 -0.32
14 0.67
2 -0.38
3 -0.43
30 0.18
9 0.28

>  <PUBCHEM_EFFECTIVE_ROTOR_COUNT>  (1) 
3.2

>  <PUBCHEM_PHARMACOPHORE_FEATURES>  (1) 
4
1 2 acceptor
3 1 2 14 anion
5 4 5 11 12 13 rings
7 4 5 6 7 8 9 10 rings

>  <PUBCHEM_HEAVY_ATOM_COUNT>  (1) 
14

>  <PUBCHEM_ATOM_DEF_STEREO_COUNT>  (1) 
0

>  <PUBCHEM_ATOM_UDEF_STEREO_COUNT>  (1) 
5

>  <PUBCHEM_BOND_DEF_STEREO_COUNT>  (1) 
0

>  <PUBCHEM_BOND_UDEF_STEREO_COUNT>  (1) 
0

>  <PUBCHEM_ISOTOPIC_ATOM_COUNT>  (1) 
0

>  <PUBCHEM_COMPONENT_COUNT>  (1) 
1

>  <PUBCHEM_CACTVS_TAUTO_COUNT>  (1) 
1

>  <PUBCHEM_CONFORMER_ID>  (1) 
00000B7D00000001

>  <PUBCHEM_MMFF94_ENERGY>  (1) 
57.711

>  <PUBCHEM_FEATURE_SELFOVERLAP>  (1) 
20.49

>  <PUBCHEM_SHAPE_FINGERPRINT>  (1) 
10219947 1 15357697487349091739
12162725 195 18260545598135823465
12423570 1 12659582595578930778
12932764 1 18272090453258403923
13705890 14 13902190395605110668
15375462 6 18411982442830993391
15775835 57 18201997780445526616
15852999 172 16298386868538646955
16945 1 18264210394802762762
18186145 218 17775010085003806881
18522853 295 10735883880477669013
19422 9 14692578740690828435
21028194 46 18343581862763070896
21501502 16 18262519165651961993
21524375 3 18270397316741307808
230 275 18259984855500134697
23419403 2 16332407686726794082
23557571 272 18410296896112017797
2748010 2 17700986697593740690
3060560 45 18060420217951167620
3286 77 18334005069266927278
5084963 1 18130795542161114530
6333272 397 18261394511259203001
7364860 26 18265613169681688771
81228 2 17550663748097859066

>  <PUBCHEM_SHAPE_MULTIPOLES>  (1) 
289.94
5.72
1.83
1.2
6.55
0.35
0.01
1.47
0.31
-0.08
0.08
-0.66
-0.03
0.18

>  <PUBCHEM_SHAPE_SELFOVERLAP>  (1) 
599.963

>  <PUBCHEM_SHAPE_VOLUME>  (1) 
170.8

>  <PUBCHEM_COORDINATE_TYPE>  (1) 
2
5
10

$$$$
