29421
     RDKit          3D

 12 11  0  0  0  0  0  0  0  0999 V2000
    1.0741   -0.2418   -0.0045 O   0  0  0  0  0  0  0  0  0  0  0  0
    2.3813    1.6634    0.0221 O   0  0  0  0  0  0  0  0  0  0  0  0
   -2.6260    0.4100   -0.0225 C   0  0  0  0  0  0  0  0  0  0  0  0
   -3.8727   -0.4790   -0.0042 C   0  0  0  0  0  0  0  0  0  0  0  0
   -1.3173   -0.3784   -0.0126 C   0  0  0  0  0  0  0  0  0  0  0  0
   -5.1824    0.3096   -0.0390 C   0  0  0  0  0  0  0  0  0  0  0  0
   -0.1078    0.5469    0.0019 C   0  0  0  0  0  0  0  0  0  0  0  0
   -6.3878   -0.6137    0.0540 C   0  0  0  0  0  0  0  0  0  0  0  0
    2.2509    0.4497    0.0071 C   0  0  0  0  0  0  0  0  0  0  0  0
    3.3576   -0.5311   -0.0027 C   0  0  0  0  0  0  0  0  0  0  0  0
    4.6278   -0.1065    0.0049 C   0  0  0  0  0  0  0  0  0  0  0  0
    5.8024   -1.0290   -0.0045 C   0  0  0  0  0  0  0  0  0  0  0  0
  1  7  1  0
  1  9  1  0
  2  9  2  0
  3  4  1  0
  3  5  1  0
  4  6  1  0
  5  7  1  0
  6  8  1  0
  9 10  1  0
 10 11  2  0
 11 12  1  0
M  END
>  <PUBCHEM_COMPOUND_CID>  (1) 
29421

>  <PUBCHEM_CONFORMER_RMSD>  (1) 
0.8

>  <PUBCHEM_CONFORMER_DIVERSEORDER>  (1) 
1
99
71
3
93
18
59
125
57
8
68
113
72
95
106
122
10
60
63
65
109
32
2
127
105
97
39
66
100
17
25
48
115
94
47
36
38
80
85
35
34
126
26
123
102
43
112
49
50
64
86
5
108
73
33
40
44
103
82
24
79
121
84
124
98
7
69
12
31
90
6
81
13
83
19
11
46
42
70
117
4
14
114
111
37
67
76
104
55
21
52
101
53
23
88
27
74
89
51
75
110
92
15
77
119
45
20
62
28
91
54
78
96
107
116
58
87
9
30
61
29
16
56
22
118
120
41

>  <PUBCHEM_MMFF94_PARTIAL_CHARGES>  (1) 
9
1 -0.43
10 -0.14
11 -0.29
12 0.14
2 -0.57
26 0.15
27 0.15
7 0.28
9 0.71

>  <PUBCHEM_EFFECTIVE_ROTOR_COUNT>  (1) 
7

>  <PUBCHEM_PHARMACOPHORE_FEATURES>  (1) 
4
1 12 hydrophobe
1 2 acceptor
1 8 hydrophobe
4 3 4 5 6 hydrophobe

>  <PUBCHEM_HEAVY_ATOM_COUNT>  (1) 
12

>  <PUBCHEM_ATOM_DEF_STEREO_COUNT>  (1) 
0

>  <PUBCHEM_ATOM_UDEF_STEREO_COUNT>  (1) 
0

>  <PUBCHEM_BOND_DEF_STEREO_COUNT>  (1) 
0

>  <PUBCHEM_BOND_UDEF_STEREO_COUNT>  (1) 
1

>  <PUBCHEM_ISOTOPIC_ATOM_COUNT>  (1) 
0

>  <PUBCHEM_COMPONENT_COUNT>  (1) 
1

>  <PUBCHEM_CACTVS_TAUTO_COUNT>  (1) 
1

>  <PUBCHEM_CONFORMER_ID>  (1) 
000072ED00000001

>  <PUBCHEM_MMFF94_ENERGY>  (1) 
5.7272

>  <PUBCHEM_FEATURE_SELFOVERLAP>  (1) 
20.297

>  <PUBCHEM_SHAPE_FINGERPRINT>  (1) 
12714333 28 10665229254327990078
13533116 47 14261079731765822214
13690532 89 18411982442852118170
14123238 8 10879992458614349171
1420 363 18041002851790702707
14251718 22 11530486631746066689
15242439 84 17821729446686013529
17834072 33 18411138068976336253
17834072 8 18113614586798846575
17834076 25 8718827587076588975
187816 3 16008468724589494753
20605781 2 9799688199390212566
20645477 70 18410293584106929918
20767249 213 9583515421502902187
21130983 4 11024103265707947450
23218964 4 18408602543971145775
23402539 116 17846492626250431093
42788 4 18410011035467081173
522135 26 18113900468216758988
57483677 66 18410852174937532019
7062679 117 10881694524511476689
8209 1 18333732412353915030

>  <PUBCHEM_SHAPE_MULTIPOLES>  (1) 
235.22
15.26
1.03
0.6
7.06
0.2
0
-4.45
-0.08
-0.63
-0.01
0.03
-0.01
0.04

>  <PUBCHEM_SHAPE_SELFOVERLAP>  (1) 
431.182

>  <PUBCHEM_SHAPE_VOLUME>  (1) 
149.5

>  <PUBCHEM_COORDINATE_TYPE>  (1) 
2
5
10

$$$$
