29436
     RDKit          3D

 14 14  0  0  1  0  0  0  0  0999 V2000
    2.7133    0.8102   -0.3746 O   0  0  0  0  0  0  0  0  0  0  0  0
    2.0121   -1.2707    0.5330 O   0  0  0  0  0  0  0  0  0  0  0  0
   -1.9923    0.0324    0.4265 O   0  0  0  0  0  0  0  0  0  0  0  0
    0.3468    0.4734    0.1347 C   0  0  0  0  0  0  0  0  0  0  0  0
   -1.0667    0.7124   -0.4088 C   0  0  0  0  0  0  0  0  0  0  0  0
    1.3860    1.1516   -0.7775 C   0  0  0  0  0  0  0  0  0  0  0  0
    0.6487   -1.0365    0.1772 C   0  0  0  0  0  0  0  0  0  0  0  0
    0.4490    1.0593    1.5563 C   0  0  0  0  0  0  0  0  0  0  0  0
   -1.3810    2.1955   -0.4300 C   0  0  0  0  0  0  0  0  0  0  0  0
    2.8970   -0.6073   -0.3728 C   0  0  0  0  0  0  0  0  0  0  0  0
   -3.1279   -0.4117   -0.3044 C   0  0  0  0  0  0  0  0  0  0  0  0
    4.3199   -0.8901    0.0782 C   0  0  0  0  0  0  0  0  0  0  0  0
   -2.8659   -1.8041   -0.8551 C   0  0  0  0  0  0  0  0  0  0  0  0
   -4.3391   -0.4144    0.6174 C   0  0  0  0  0  0  0  0  0  0  0  0
  1  6  1  0
  1 10  1  0
  2  7  1  0
  2 10  1  0
  3  5  1  0
  3 11  1  0
  4  5  1  0
  4  6  1  0
  4  7  1  0
  4  8  1  0
  5  9  1  0
 10 12  1  0
 11 13  1  0
 11 14  1  0
M  END
>  <PUBCHEM_COMPOUND_CID>  (1) 
29436

>  <PUBCHEM_CONFORMER_RMSD>  (1) 
0.6

>  <PUBCHEM_CONFORMER_DIVERSEORDER>  (1) 
1
11
5
6
2
10
15
12
18
19
24
13
4
17
20
8
23
7
22
21
3
9
14
16

>  <PUBCHEM_MMFF94_PARTIAL_CHARGES>  (1) 
8
1 -0.56
10 0.56
11 0.28
2 -0.56
3 -0.56
5 0.28
6 0.28
7 0.28

>  <PUBCHEM_EFFECTIVE_ROTOR_COUNT>  (1) 
4.2

>  <PUBCHEM_PHARMACOPHORE_FEATURES>  (1) 
5
1 1 acceptor
1 2 acceptor
1 3 acceptor
3 11 13 14 hydrophobe
6 1 2 4 6 7 10 rings

>  <PUBCHEM_HEAVY_ATOM_COUNT>  (1) 
14

>  <PUBCHEM_ATOM_DEF_STEREO_COUNT>  (1) 
0

>  <PUBCHEM_ATOM_UDEF_STEREO_COUNT>  (1) 
1

>  <PUBCHEM_BOND_DEF_STEREO_COUNT>  (1) 
0

>  <PUBCHEM_BOND_UDEF_STEREO_COUNT>  (1) 
0

>  <PUBCHEM_ISOTOPIC_ATOM_COUNT>  (1) 
0

>  <PUBCHEM_COMPONENT_COUNT>  (1) 
1

>  <PUBCHEM_CACTVS_TAUTO_COUNT>  (1) 
1

>  <PUBCHEM_CONFORMER_ID>  (1) 
000072FC00000001

>  <PUBCHEM_MMFF94_ENERGY>  (1) 
40.5039

>  <PUBCHEM_FEATURE_SELFOVERLAP>  (1) 
25.407

>  <PUBCHEM_SHAPE_FINGERPRINT>  (1) 
10062212 137 17897154737476381514
11132069 177 18201715162991768919
11769659 78 18410569574483886270
11806522 49 18334856134548762830
12032990 46 18187935009883785235
12251169 10 17917996083586606515
12932764 1 18272365421396662373
13705890 14 17022905670141258202
14128692 85 18411700984754557436
15375462 189 18341895194846771035
16945 1 18187090567694597832
18186145 218 16370723768336305181
19422 9 18270685384566716423
200 152 18259703389150151998
20279233 1 14979962479846047463
20281407 28 18342454850580985299
20281475 54 18271805761040088767
20671657 53 18186524276267137500
20871998 184 18269273469950106709
21061003 4 17274814740399757040
21501502 16 18042404621330523360
22485316 2 18343299296991222037
232386 152 18060138781808653447
23402539 116 17530962445643132156
23402655 69 18187644678410301397
23557571 272 18060145284710951236
23559900 14 18057313999741767762
25610 137 18259991495630422181
305870 269 10015326631843268357
568465 68 15841555222840954855
83771 10 18409167723039025877
8809292 202 18041003976603045291

>  <PUBCHEM_SHAPE_MULTIPOLES>  (1) 
270.51
6.72
1.77
0.99
0.3
0.31
-0.2
-3.15
-0.03
0.46
0.27
0.11
0.17
-0.28

>  <PUBCHEM_SHAPE_SELFOVERLAP>  (1) 
528.292

>  <PUBCHEM_SHAPE_VOLUME>  (1) 
164.1

>  <PUBCHEM_COORDINATE_TYPE>  (1) 
2
5
10

$$$$
