29433
     RDKit          3D

 12 12  0  0  1  0  0  0  0  0999 V2000
    3.3887    0.0324   -0.2571 O   0  0  0  0  0  0  0  0  0  0  0  0
   -2.5855    0.6702    1.5509 O   0  0  0  0  0  0  0  0  0  0  0  0
   -0.7300    0.4404    0.0569 C   0  0  0  0  0  0  0  0  0  0  0  0
   -2.2098    0.5867    0.1693 C   0  0  0  0  0  0  0  0  0  0  0  0
    0.0246    1.4372   -0.5614 C   0  0  0  0  0  0  0  0  0  0  0  0
   -0.1007   -0.6941    0.5695 C   0  0  0  0  0  0  0  0  0  0  0  0
    2.0380    0.1652   -0.1544 C   0  0  0  0  0  0  0  0  0  0  0  0
    1.4086    1.2996   -0.6671 C   0  0  0  0  0  0  0  0  0  0  0  0
    1.2833   -0.8316    0.4640 C   0  0  0  0  0  0  0  0  0  0  0  0
   -2.9424   -0.5244   -0.4732 C   0  0  0  0  0  0  0  0  0  0  0  0
    3.9680   -1.1522    0.2881 C   0  0  0  0  0  0  0  0  0  0  0  0
   -3.5428   -1.4294   -0.9855 C   0  0  0  0  0  0  0  0  0  0  0  0
  1  7  1  0
  1 11  1  0
  2  4  1  0
  3  4  1  0
  3  5  2  0
  3  6  1  0
  4 10  1  0
  5  8  1  0
  6  9  2  0
  7  8  2  0
  7  9  1  0
 10 12  3  0
M  END
>  <PUBCHEM_COMPOUND_CID>  (1) 
29433

>  <PUBCHEM_CONFORMER_RMSD>  (1) 
0.6

>  <PUBCHEM_CONFORMER_DIVERSEORDER>  (1) 
1
3
2

>  <PUBCHEM_MMFF94_PARTIAL_CHARGES>  (1) 
18
1 -0.36
10 -0.2
11 0.28
12 -0.18
14 0.15
15 0.15
16 0.15
17 0.15
18 0.4
2 -0.68
22 0.18
3 -0.14
4 0.62
5 -0.15
6 -0.15
7 0.08
8 -0.15
9 -0.15

>  <PUBCHEM_EFFECTIVE_ROTOR_COUNT>  (1) 
2

>  <PUBCHEM_PHARMACOPHORE_FEATURES>  (1) 
5
1 1 acceptor
1 12 hydrophobe
1 2 acceptor
1 2 donor
6 3 5 6 7 8 9 rings

>  <PUBCHEM_HEAVY_ATOM_COUNT>  (1) 
12

>  <PUBCHEM_ATOM_DEF_STEREO_COUNT>  (1) 
0

>  <PUBCHEM_ATOM_UDEF_STEREO_COUNT>  (1) 
1

>  <PUBCHEM_BOND_DEF_STEREO_COUNT>  (1) 
0

>  <PUBCHEM_BOND_UDEF_STEREO_COUNT>  (1) 
0

>  <PUBCHEM_ISOTOPIC_ATOM_COUNT>  (1) 
0

>  <PUBCHEM_COMPONENT_COUNT>  (1) 
1

>  <PUBCHEM_CACTVS_TAUTO_COUNT>  (1) 
1

>  <PUBCHEM_CONFORMER_ID>  (1) 
000072F900000001

>  <PUBCHEM_MMFF94_ENERGY>  (1) 
35.6841

>  <PUBCHEM_FEATURE_SELFOVERLAP>  (1) 
25.371

>  <PUBCHEM_SHAPE_FINGERPRINT>  (1) 
10219947 1 18260833687383028550
10857977 72 15841557409385191245
11206711 2 17676483891684301908
11401426 45 18187917374584544028
11769659 78 18272363187428242574
11806522 49 18340479092457510966
12032990 46 17968106287209543162
124424 183 16515395270598801616
12932764 1 18411707568770974353
13581323 91 17203607116136827838
13690532 89 18333726922916491598
13760787 5 17967259680493956102
14128692 85 18341325695226075941
14993402 34 18334573559796894790
16945 1 17967537878162836400
18186145 218 15574721278857479700
18534176 82 15502095250261315713
19026448 4 16558753386580243020
19026448 5 18060706087053981064
19422 9 18272655649094625318
200 152 18411974784904402007
20201158 50 17603865585212612459
20671657 53 18338509837368093245
20715346 28 16588595342980457421
23402539 116 18334568002494205662
23402655 69 17823118065801028021
2748010 2 17680164146239115376
5084963 1 18410852191827042977

>  <PUBCHEM_SHAPE_MULTIPOLES>  (1) 
235.22
6.13
1.43
0.98
1.1
0.08
0.18
-2.74
-0.68
0.05
-0.22
-0.7
0.03
-0.85

>  <PUBCHEM_SHAPE_SELFOVERLAP>  (1) 
483.964

>  <PUBCHEM_SHAPE_VOLUME>  (1) 
135.5

>  <PUBCHEM_COORDINATE_TYPE>  (1) 
2
5
10

$$$$
