29442
     RDKit          3D

 16 18  0  0  1  0  0  0  0  0999 V2000
    2.1704   -0.3441   -0.8327 N   0  0  0  0  0  0  0  0  0  0  0  0
   -1.7499    1.8323    0.0714 N   0  0  0  0  0  0  0  0  0  0  0  0
    1.6549    0.4305    0.3140 C   0  0  0  0  0  0  0  0  0  0  0  0
    1.9861   -0.4301    1.5472 C   0  0  0  0  0  0  0  0  0  0  0  0
    2.7481   -1.6300    1.0022 C   0  0  0  0  0  0  0  0  0  0  0  0
    3.2900   -1.1371   -0.3245 C   0  0  0  0  0  0  0  0  0  0  0  0
    0.1765    0.7357    0.1946 C   0  0  0  0  0  0  0  0  0  0  0  0
   -0.8705   -0.2181    0.0546 C   0  0  0  0  0  0  0  0  0  0  0  0
   -0.3957    1.9871    0.2015 C   0  0  0  0  0  0  0  0  0  0  0  0
    2.5584    0.4912   -1.9621 C   0  0  0  0  0  0  0  0  0  0  0  0
   -2.0684    0.4961   -0.0203 C   0  0  0  0  0  0  0  0  0  0  0  0
   -0.9140   -1.6247   -0.0159 C   0  0  0  0  0  0  0  0  0  0  0  0
    0.2082    3.3280    0.3200 C   0  0  0  0  0  0  0  0  0  0  0  0
   -3.3125   -0.1287   -0.1624 C   0  0  0  0  0  0  0  0  0  0  0  0
   -2.1511   -2.2632   -0.1580 C   0  0  0  0  0  0  0  0  0  0  0  0
   -3.3307   -1.5248   -0.2297 C   0  0  0  0  0  0  0  0  0  0  0  0
  1  3  1  0
  1  6  1  0
  1 10  1  0
  2  9  1  0
  2 11  1  0
  3  4  1  0
  3  7  1  0
  4  5  1  0
  5  6  1  0
  7  8  1  0
  7  9  2  0
  8 11  2  0
  8 12  1  0
  9 13  1  0
 11 14  1  0
 12 15  2  0
 14 16  2  0
 15 16  1  0
M  END
>  <PUBCHEM_COMPOUND_CID>  (1) 
29442

>  <PUBCHEM_CONFORMER_RMSD>  (1) 
0.6

>  <PUBCHEM_CONFORMER_DIVERSEORDER>  (1) 
1
3
12
11
10
13
7
5
9
6
4
2
8

>  <PUBCHEM_MMFF94_PARTIAL_CHARGES>  (1) 
18
1 -0.81
10 0.27
11 -0.15
12 -0.15
13 0.18
14 -0.15
15 -0.15
16 -0.15
2 0.03
27 0.27
28 0.15
3 0.45
32 0.15
33 0.15
34 0.15
6 0.27
7 -0.18
9 -0.33

>  <PUBCHEM_EFFECTIVE_ROTOR_COUNT>  (1) 
2

>  <PUBCHEM_PHARMACOPHORE_FEATURES>  (1) 
6
1 1 cation
1 2 cation
1 2 donor
5 1 3 4 5 6 rings
5 2 7 8 9 11 rings
6 8 11 12 14 15 16 rings

>  <PUBCHEM_HEAVY_ATOM_COUNT>  (1) 
16

>  <PUBCHEM_ATOM_DEF_STEREO_COUNT>  (1) 
0

>  <PUBCHEM_ATOM_UDEF_STEREO_COUNT>  (1) 
1

>  <PUBCHEM_BOND_DEF_STEREO_COUNT>  (1) 
0

>  <PUBCHEM_BOND_UDEF_STEREO_COUNT>  (1) 
0

>  <PUBCHEM_ISOTOPIC_ATOM_COUNT>  (1) 
0

>  <PUBCHEM_COMPONENT_COUNT>  (1) 
1

>  <PUBCHEM_CACTVS_TAUTO_COUNT>  (1) 
1

>  <PUBCHEM_CONFORMER_ID>  (1) 
0000730200000001

>  <PUBCHEM_MMFF94_ENERGY>  (1) 
27.2505

>  <PUBCHEM_FEATURE_SELFOVERLAP>  (1) 
30.538

>  <PUBCHEM_SHAPE_FINGERPRINT>  (1) 
10465860 71 18270699665000504085
10967382 1 18050843617976387451
11578080 2 17533463869019962644
12202030 40 17202781293026702606
12400797 292 18115040704724442628
12553582 1 18411704309143945819
13083527 12 17478853505616063235
13140716 1 18412540977394777249
13538477 17 18262236603932305508
14115302 16 18261108534850765783
14817 1 11722147515789501764
15375462 175 18270974452718662527
15375462 189 18261403281534897059
15848700 24 18201427099978097783
16752209 62 18265042549232726645
16945 1 18268426832805829449
17804303 29 18125996066843413602
17990270 104 18126282180057327319
19049666 15 17414996842566229826
19765921 60 17460329960445853900
19868273 325 18410857654972572581
20510252 161 18127967512323753456
20645476 183 17822296755920853607
20645477 70 17837204149746243999
20711985 344 18128274314664501428
21197605 99 13578225256577463634
22112679 90 18338528459987741704
23184049 29 18411408510366686288
232386 152 18409720781561666082
2334 1 18339355370162300033
23402539 116 18128238031023189845
23419403 2 17032973954199518500
23463225 33 18336262353769972635
23552423 10 18047750691894021557
23557571 272 18201723925368507560
23559900 14 18127968608389791398
23598291 2 17680155075606225058
2748010 2 18341034290169172713
34934 24 18340203114996858124
427121 178 16195408658280832753
458136 41 8645661793040107631
5902787 121 18338791329329539499
6992083 37 17610342636935277856
7364860 26 17982449596534834441
74978 22 18267583683892648811
77492 1 17822859671530003554
81228 2 18200316502797280665
84936 31 16772962574055500620

>  <PUBCHEM_SHAPE_MULTIPOLES>  (1) 
319.31
5.14
2.74
1.14
0.44
1.77
0.24
-2.94
0.69
0.58
-0.36
-1.21
-0.06
-0.5

>  <PUBCHEM_SHAPE_SELFOVERLAP>  (1) 
692.413

>  <PUBCHEM_SHAPE_VOLUME>  (1) 
178.9

>  <PUBCHEM_COORDINATE_TYPE>  (1) 
2
5
10

$$$$
