29446
     RDKit          3D

 16 18  0  0  1  0  0  0  0  0999 V2000
   -1.9971   -0.6514   -0.9718 N   0  0  0  0  0  0  0  0  0  0  0  0
    1.4804    1.8548   -0.8245 N   0  0  0  0  0  0  0  0  0  0  0  0
   -1.2028   -0.4219    0.2522 C   0  0  0  0  0  0  0  0  0  0  0  0
   -3.4202    0.5609    0.3965 C   0  0  0  0  0  0  0  0  0  0  0  0
   -2.1329    0.3633    1.1953 C   0  0  0  0  0  0  0  0  0  0  0  0
   -3.4045   -0.6173   -0.5664 C   0  0  0  0  0  0  0  0  0  0  0  0
    0.0716    0.3088   -0.0835 C   0  0  0  0  0  0  0  0  0  0  0  0
   -4.6676    0.6141    1.2620 C   0  0  0  0  0  0  0  0  0  0  0  0
   -1.6549   -1.8917   -1.6567 C   0  0  0  0  0  0  0  0  0  0  0  0
    1.3971   -0.1374    0.1762 C   0  0  0  0  0  0  0  0  0  0  0  0
    0.1548    1.5361   -0.6988 C   0  0  0  0  0  0  0  0  0  0  0  0
    2.2620    0.8508   -0.2987 C   0  0  0  0  0  0  0  0  0  0  0  0
    1.9463   -1.2905    0.7714 C   0  0  0  0  0  0  0  0  0  0  0  0
    3.6543    0.7431   -0.2081 C   0  0  0  0  0  0  0  0  0  0  0  0
    3.3371   -1.4119    0.8690 C   0  0  0  0  0  0  0  0  0  0  0  0
    4.1762   -0.4097    0.3859 C   0  0  0  0  0  0  0  0  0  0  0  0
  1  3  1  0
  1  6  1  0
  1  9  1  0
  2 11  1  0
  2 12  1  0
  3  5  1  0
  3  7  1  0
  4  5  1  0
  4  6  1  0
  4  8  1  0
  7 10  1  0
  7 11  2  0
 10 12  2  0
 10 13  1  0
 12 14  1  0
 13 15  2  0
 14 16  2  0
 15 16  1  0
M  END
>  <PUBCHEM_COMPOUND_CID>  (1) 
29446

>  <PUBCHEM_CONFORMER_RMSD>  (1) 
0.6

>  <PUBCHEM_CONFORMER_DIVERSEORDER>  (1) 
1
3
13
4
19
14
18
17
9
6
2
5
7
16
8
15
10
11
12

>  <PUBCHEM_MMFF94_PARTIAL_CHARGES>  (1) 
18
1 -0.81
11 -0.3
12 -0.15
13 -0.15
14 -0.15
15 -0.15
16 -0.15
2 0.03
29 0.15
3 0.45
30 0.27
31 0.15
32 0.15
33 0.15
34 0.15
6 0.27
7 -0.18
9 0.27

>  <PUBCHEM_EFFECTIVE_ROTOR_COUNT>  (1) 
2

>  <PUBCHEM_PHARMACOPHORE_FEATURES>  (1) 
6
1 1 cation
1 2 cation
1 2 donor
5 1 3 4 5 6 rings
5 2 7 10 11 12 rings
6 10 12 13 14 15 16 rings

>  <PUBCHEM_HEAVY_ATOM_COUNT>  (1) 
16

>  <PUBCHEM_ATOM_DEF_STEREO_COUNT>  (1) 
0

>  <PUBCHEM_ATOM_UDEF_STEREO_COUNT>  (1) 
2

>  <PUBCHEM_BOND_DEF_STEREO_COUNT>  (1) 
0

>  <PUBCHEM_BOND_UDEF_STEREO_COUNT>  (1) 
0

>  <PUBCHEM_ISOTOPIC_ATOM_COUNT>  (1) 
0

>  <PUBCHEM_COMPONENT_COUNT>  (1) 
1

>  <PUBCHEM_CACTVS_TAUTO_COUNT>  (1) 
1

>  <PUBCHEM_CONFORMER_ID>  (1) 
0000730600000001

>  <PUBCHEM_MMFF94_ENERGY>  (1) 
29.7332

>  <PUBCHEM_FEATURE_SELFOVERLAP>  (1) 
30.538

>  <PUBCHEM_SHAPE_FINGERPRINT>  (1) 
11471102 20 18040151829468985540
11578080 2 17982694654452739609
12236239 1 18342740723741350747
12251169 10 18272931609343948824
12500047 106 17132111342470822975
12553582 1 18260820459063553386
13296908 3 17168139027166908754
13538477 17 18131067177378351407
13581323 91 17704352186516517759
13675066 3 18334576832567301097
13705890 14 15430312504276654890
13760787 5 18113899373116091302
14144814 61 18412824694080418443
14252887 29 18262243226993643322
15219456 202 17022901267699520532
15375462 189 18407757028029708512
15375462 478 18336273362161458025
15653759 3 15791729715356585361
15775835 57 18273219698675783969
15852999 172 16702314437859492607
16945 1 18040992986166453596
17844478 74 16805602560040939893
1813 80 18189628154991011422
18186145 218 16081082650104611296
18785283 64 16879931861082385772
19422 9 18411418457426723159
200 152 18336540608069551599
20279233 1 16587738741765079603
20645477 70 18041265591519123047
20871998 22 18191027798748912498
21267235 1 18187937127418817314
212916 134 17203323356570019923
22112679 90 18272647999599778085
2255824 54 18262521523779061220
23175994 123 17313385595501581301
23184049 59 18410015403343287183
232386 152 17774716575344103687
23419403 2 13490296847461405376
23559900 14 16630537215202864916
23598291 2 18268429216518019029
2748010 2 17762045546011747686
3286 77 17458635544423733113
474 4 18120651598455788416
6049 1 16153420666672934325
6992083 37 18413106173647528325
74978 22 18059007414397795741
77492 1 18342737446407075151
84936 182 17982451804232985960
9981440 41 17260173918659159264

>  <PUBCHEM_SHAPE_MULTIPOLES>  (1) 
319.31
7.78
1.6
1.23
1.48
0.16
-0.08
0.06
2.28
-0.35
-0.49
0.69
0.26
-1.45

>  <PUBCHEM_SHAPE_SELFOVERLAP>  (1) 
691.613

>  <PUBCHEM_SHAPE_VOLUME>  (1) 
180

>  <PUBCHEM_COORDINATE_TYPE>  (1) 
2
5
10

$$$$
