29447
     RDKit          3D

 16 18  0  0  1  0  0  0  0  0999 V2000
   -3.8337   -2.5333   -0.3902 Cl  0  0  0  0  0  0  0  0  0  0  0  0
    2.6442   -0.4267    0.8120 N   0  0  0  0  0  0  0  0  0  0  0  0
   -0.6739    2.3322    0.2987 N   0  0  0  0  0  0  0  0  0  0  0  0
    1.6835   -0.4378   -0.3093 C   0  0  0  0  0  0  0  0  0  0  0  0
    2.5201   -0.0555   -1.5442 C   0  0  0  0  0  0  0  0  0  0  0  0
    3.9471    0.0803   -1.0317 C   0  0  0  0  0  0  0  0  0  0  0  0
    3.9513   -0.7468    0.2381 C   0  0  0  0  0  0  0  0  0  0  0  0
    0.5133    0.4966   -0.0844 C   0  0  0  0  0  0  0  0  0  0  0  0
   -0.8644    0.1411   -0.0754 C   0  0  0  0  0  0  0  0  0  0  0  0
    2.2804   -1.3384    1.8892 C   0  0  0  0  0  0  0  0  0  0  0  0
    0.5985    1.8497    0.1481 C   0  0  0  0  0  0  0  0  0  0  0  0
   -1.5876    1.3108    0.1672 C   0  0  0  0  0  0  0  0  0  0  0  0
   -1.5678   -1.0671   -0.2510 C   0  0  0  0  0  0  0  0  0  0  0  0
   -2.9847    1.3328    0.2437 C   0  0  0  0  0  0  0  0  0  0  0  0
   -2.9654   -1.0603   -0.1774 C   0  0  0  0  0  0  0  0  0  0  0  0
   -3.6609    0.1223    0.0666 C   0  0  0  0  0  0  0  0  0  0  0  0
  1 15  1  0
  2  4  1  0
  2  7  1  0
  2 10  1  0
  3 11  1  0
  3 12  1  0
  4  5  1  0
  4  8  1  0
  5  6  1  0
  6  7  1  0
  8  9  1  0
  8 11  2  0
  9 12  2  0
  9 13  1  0
 12 14  1  0
 13 15  2  0
 14 16  2  0
 15 16  1  0
M  END
>  <PUBCHEM_COMPOUND_CID>  (1) 
29447

>  <PUBCHEM_CONFORMER_RMSD>  (1) 
0.6

>  <PUBCHEM_CONFORMER_DIVERSEORDER>  (1) 
1
2
12
4
3
13
15
5
6
16
7
9
11
14
8
10

>  <PUBCHEM_MMFF94_PARTIAL_CHARGES>  (1) 
18
1 -0.18
10 0.27
11 -0.3
12 -0.15
13 -0.15
14 -0.15
15 0.18
16 -0.15
2 -0.81
27 0.15
28 0.27
29 0.15
3 0.03
30 0.15
31 0.15
4 0.45
7 0.27
8 -0.18

>  <PUBCHEM_EFFECTIVE_ROTOR_COUNT>  (1) 
2

>  <PUBCHEM_PHARMACOPHORE_FEATURES>  (1) 
6
1 2 cation
1 3 cation
1 3 donor
5 2 4 5 6 7 rings
5 3 8 9 11 12 rings
6 9 12 13 14 15 16 rings

>  <PUBCHEM_HEAVY_ATOM_COUNT>  (1) 
16

>  <PUBCHEM_ATOM_DEF_STEREO_COUNT>  (1) 
0

>  <PUBCHEM_ATOM_UDEF_STEREO_COUNT>  (1) 
1

>  <PUBCHEM_BOND_DEF_STEREO_COUNT>  (1) 
0

>  <PUBCHEM_BOND_UDEF_STEREO_COUNT>  (1) 
0

>  <PUBCHEM_ISOTOPIC_ATOM_COUNT>  (1) 
0

>  <PUBCHEM_COMPONENT_COUNT>  (1) 
1

>  <PUBCHEM_CACTVS_TAUTO_COUNT>  (1) 
1

>  <PUBCHEM_CONFORMER_ID>  (1) 
0000730700000001

>  <PUBCHEM_MMFF94_ENERGY>  (1) 
26.4803

>  <PUBCHEM_FEATURE_SELFOVERLAP>  (1) 
30.538

>  <PUBCHEM_SHAPE_FINGERPRINT>  (1) 
10062212 137 18187922846531271299
10465860 71 18341349841390062500
10616163 171 18412267207352427702
11132069 177 18342740676164504909
11543360 7 16298665105031082959
11578080 2 17824513401411839308
11769659 78 18336824290374479429
11806522 49 18265895941775153820
12236239 1 18040721333684879974
12553582 1 18410854412652552939
13103583 49 17902270933143701259
13140716 1 18343304803514089041
13296908 3 18271804652679913993
13538477 17 18335137536278979268
13760787 19 18114185207120662351
14115302 16 17894919554521983582
14252887 29 18058735835025878106
14787075 74 18263361568006126976
15375462 189 18259705592478944211
15415430 112 18411144640318432207
15669948 3 18410009897168865983
16752209 62 18338226056057202293
16945 1 18342177705089869841
17804303 29 18273217512748491753
18175812 5 17418089906045227820
18186145 218 13190337937520357876
18915474 69 18334015003695347942
19049666 15 16915106097079514408
19422 9 18333453127404544766
200 152 17530965765615831114
20279233 1 17489305252606386990
20281475 54 18409729555979294319
20510252 161 17986957336452903201
20645476 183 17967542267761961191
20645477 70 17980754154511896007
20871999 31 18409732876289506463
21452121 199 18055339499842978153
21501502 16 18268718375576570845
21501925 9 18199459034167177139
21639500 275 16443927062238540356
23184049 29 18268987751561447049
232386 152 18410573998057517239
23366157 5 18117274980782162989
23402539 116 18410572881946399046
23557571 272 17988086578397949268
23559900 14 18129104425064527342
2748010 2 18270389620365862525
474 4 17532386442404056124
57096353 35 18040726887019708198
5902787 121 18412541045982170377
603831 33 18040999522832248036
7364860 26 17913771888308549145
77492 1 17968100785245543588
7970288 3 18269552900222938511
81228 2 18057616368948695369
8863177 126 17683252726617516363

>  <PUBCHEM_SHAPE_MULTIPOLES>  (1) 
321.18
7.32
2.1
1.13
0.72
0.11
0.17
-3.33
-0.8
-1.97
0.23
1.21
-0.36
-0.87

>  <PUBCHEM_SHAPE_SELFOVERLAP>  (1) 
689.309

>  <PUBCHEM_SHAPE_VOLUME>  (1) 
181.5

>  <PUBCHEM_COORDINATE_TYPE>  (1) 
2
5
10

$$$$
