29448
     RDKit          3D

 16 18  0  0  1  0  0  0  0  0999 V2000
   -3.6183   -2.3099   -0.3932 O   0  0  0  0  0  0  0  0  0  0  0  0
    2.6392   -0.4072    0.8092 N   0  0  0  0  0  0  0  0  0  0  0  0
   -0.7307    2.2941    0.3304 N   0  0  0  0  0  0  0  0  0  0  0  0
    1.6813   -0.4195   -0.3145 C   0  0  0  0  0  0  0  0  0  0  0  0
    2.5131   -0.0014   -1.5413 C   0  0  0  0  0  0  0  0  0  0  0  0
    3.9360    0.1542   -1.0231 C   0  0  0  0  0  0  0  0  0  0  0  0
    3.9536   -0.6927    0.2336 C   0  0  0  0  0  0  0  0  0  0  0  0
    0.4925    0.4882   -0.0779 C   0  0  0  0  0  0  0  0  0  0  0  0
   -0.8777    0.1059   -0.0785 C   0  0  0  0  0  0  0  0  0  0  0  0
    2.2910   -1.3428    1.8710 C   0  0  0  0  0  0  0  0  0  0  0  0
    0.5512    1.8388    0.1760 C   0  0  0  0  0  0  0  0  0  0  0  0
   -1.6241    1.2575    0.1803 C   0  0  0  0  0  0  0  0  0  0  0  0
   -1.5571   -1.1128   -0.2751 C   0  0  0  0  0  0  0  0  0  0  0  0
   -3.0216    1.2512    0.2531 C   0  0  0  0  0  0  0  0  0  0  0  0
   -2.9547   -1.1343   -0.2053 C   0  0  0  0  0  0  0  0  0  0  0  0
   -3.6737    0.0307    0.0551 C   0  0  0  0  0  0  0  0  0  0  0  0
  1 15  1  0
  2  4  1  0
  2  7  1  0
  2 10  1  0
  3 11  1  0
  3 12  1  0
  4  5  1  0
  4  8  1  0
  5  6  1  0
  6  7  1  0
  8  9  1  0
  8 11  2  0
  9 12  2  0
  9 13  1  0
 12 14  1  0
 13 15  2  0
 14 16  2  0
 15 16  1  0
M  END
>  <PUBCHEM_COMPOUND_CID>  (1) 
29448

>  <PUBCHEM_CONFORMER_RMSD>  (1) 
0.6

>  <PUBCHEM_CONFORMER_DIVERSEORDER>  (1) 
1
2
11
4
3
5
15
16
7
12
8
14
9
10
13
6

>  <PUBCHEM_MMFF94_PARTIAL_CHARGES>  (1) 
19
1 -0.53
10 0.27
11 -0.3
12 -0.15
13 -0.15
14 -0.15
15 0.08
16 -0.15
2 -0.81
27 0.15
28 0.27
29 0.15
3 0.03
30 0.15
31 0.15
32 0.45
4 0.45
7 0.27
8 -0.18

>  <PUBCHEM_EFFECTIVE_ROTOR_COUNT>  (1) 
2

>  <PUBCHEM_PHARMACOPHORE_FEATURES>  (1) 
7
1 1 donor
1 2 cation
1 3 cation
1 3 donor
5 2 4 5 6 7 rings
5 3 8 9 11 12 rings
6 9 12 13 14 15 16 rings

>  <PUBCHEM_HEAVY_ATOM_COUNT>  (1) 
16

>  <PUBCHEM_ATOM_DEF_STEREO_COUNT>  (1) 
0

>  <PUBCHEM_ATOM_UDEF_STEREO_COUNT>  (1) 
1

>  <PUBCHEM_BOND_DEF_STEREO_COUNT>  (1) 
0

>  <PUBCHEM_BOND_UDEF_STEREO_COUNT>  (1) 
0

>  <PUBCHEM_ISOTOPIC_ATOM_COUNT>  (1) 
0

>  <PUBCHEM_COMPONENT_COUNT>  (1) 
1

>  <PUBCHEM_CACTVS_TAUTO_COUNT>  (1) 
8

>  <PUBCHEM_CONFORMER_ID>  (1) 
0000730800000001

>  <PUBCHEM_MMFF94_ENERGY>  (1) 
27.7817

>  <PUBCHEM_FEATURE_SELFOVERLAP>  (1) 
35.614

>  <PUBCHEM_SHAPE_FINGERPRINT>  (1) 
10062212 137 18187922846499603299
10465860 71 18269573726618537764
11132069 177 18343022155425613853
11543360 7 16371006373010876855
11578080 2 17824794876420224436
12236239 1 18041002808661571134
12553582 1 18410854404004537627
12670545 47 16917055668518431192
13103583 49 17830214438601557363
13140716 1 18343024432338698721
13296908 3 18272367602643897792
13538477 17 18335419011266258908
13760787 19 18186524276061428437
14115302 16 17894919558832768630
14144814 61 18410856538286291969
14787075 74 18263360468526167240
15375462 189 18259987067450373627
15415430 112 18411427214796195157
15536298 74 18200594820999551704
15669948 3 18410291376424713199
16752209 62 18338507535307748757
16945 1 18270120106651499057
17804303 29 18273498987709417145
18175812 5 17418371385322174004
18186145 218 13334734600599337124
19049666 15 16915387576340623360
19422 9 18333734598139029130
19786989 88 15647352852261470102
200 152 17530964666120014624
20279233 1 17489587831373881454
20281475 54 18410856551076378207
20510252 161 17987238820040627977
20645476 183 17967822647532573855
20645477 70 17981317104460023095
20715346 28 17346876749637593861
21501502 16 18268998751010031181
21501925 9 18200021979794002129
21639500 275 16443925967027174116
232386 152 18410855473018416623
23402539 116 18410854352665007230
23463225 33 18262234404719373346
23557571 272 17988648424576469436
23559900 14 18129385904346722326
2748010 2 18270390724151371549
474 4 17605006994985365948
57096353 35 18041289837010007318
5902787 121 18340764931179003625
603831 33 18113338587588888068
7364860 26 17914053358963944745
77492 1 18040439854260182172
81228 2 18057898947726719865
8863177 126 17683533106377572979

>  <PUBCHEM_SHAPE_MULTIPOLES>  (1) 
313.44
7.06
1.89
1.13
1.05
0.16
0.15
-2.33
-0.72
-1.47
0.25
1.16
-0.3
-0.95

>  <PUBCHEM_SHAPE_SELFOVERLAP>  (1) 
683.883

>  <PUBCHEM_SHAPE_VOLUME>  (1) 
174.3

>  <PUBCHEM_COORDINATE_TYPE>  (1) 
2
5
10

$$$$
