29444
     RDKit          3D

 16 18  0  0  1  0  0  0  0  0999 V2000
   -1.9622   -0.1782    0.8174 N   0  0  0  0  0  0  0  0  0  0  0  0
    1.6387    1.9952    0.0583 N   0  0  0  0  0  0  0  0  0  0  0  0
   -3.3446   -0.1784    0.3218 C   0  0  0  0  0  0  0  0  0  0  0  0
   -1.0755   -0.4600   -0.3226 C   0  0  0  0  0  0  0  0  0  0  0  0
   -3.1960    0.4418   -1.0668 C   0  0  0  0  0  0  0  0  0  0  0  0
   -1.8730   -0.1074   -1.5824 C   0  0  0  0  0  0  0  0  0  0  0  0
    0.2041    0.3128   -0.1597 C   0  0  0  0  0  0  0  0  0  0  0  0
   -3.9144   -1.6036    0.2625 C   0  0  0  0  0  0  0  0  0  0  0  0
   -4.2162    0.6878    1.2320 C   0  0  0  0  0  0  0  0  0  0  0  0
    1.5161   -0.2299   -0.0465 C   0  0  0  0  0  0  0  0  0  0  0  0
    0.3138    1.6838   -0.0914 C   0  0  0  0  0  0  0  0  0  0  0  0
    2.3961    0.8460    0.0888 C   0  0  0  0  0  0  0  0  0  0  0  0
    2.0393   -1.5383   -0.0462 C   0  0  0  0  0  0  0  0  0  0  0  0
    3.7787    0.6783    0.2245 C   0  0  0  0  0  0  0  0  0  0  0  0
    3.4202   -1.7213    0.0888 C   0  0  0  0  0  0  0  0  0  0  0  0
    4.2748   -0.6285    0.2216 C   0  0  0  0  0  0  0  0  0  0  0  0
  1  3  1  0
  1  4  1  0
  2 11  1  0
  2 12  1  0
  3  5  1  0
  3  8  1  0
  3  9  1  0
  4  6  1  0
  4  7  1  0
  5  6  1  0
  7 10  1  0
  7 11  2  0
 10 12  2  0
 10 13  1  0
 12 14  1  0
 13 15  2  0
 14 16  2  0
 15 16  1  0
M  END
>  <PUBCHEM_COMPOUND_CID>  (1) 
29444

>  <PUBCHEM_CONFORMER_RMSD>  (1) 
0.6

>  <PUBCHEM_CONFORMER_DIVERSEORDER>  (1) 
1
2
3
6
5
8
7
4
9

>  <PUBCHEM_MMFF94_PARTIAL_CHARGES>  (1) 
18
1 -0.9
11 -0.3
12 -0.15
13 -0.15
14 -0.15
15 -0.15
16 -0.15
2 0.03
22 0.36
29 0.15
3 0.27
30 0.27
31 0.15
32 0.15
33 0.15
34 0.15
4 0.45
7 -0.18

>  <PUBCHEM_EFFECTIVE_ROTOR_COUNT>  (1) 
2

>  <PUBCHEM_PHARMACOPHORE_FEATURES>  (1) 
8
1 1 cation
1 1 donor
1 2 cation
1 2 donor
3 3 8 9 hydrophobe
5 1 3 4 5 6 rings
5 2 7 10 11 12 rings
6 10 12 13 14 15 16 rings

>  <PUBCHEM_HEAVY_ATOM_COUNT>  (1) 
16

>  <PUBCHEM_ATOM_DEF_STEREO_COUNT>  (1) 
0

>  <PUBCHEM_ATOM_UDEF_STEREO_COUNT>  (1) 
1

>  <PUBCHEM_BOND_DEF_STEREO_COUNT>  (1) 
0

>  <PUBCHEM_BOND_UDEF_STEREO_COUNT>  (1) 
0

>  <PUBCHEM_ISOTOPIC_ATOM_COUNT>  (1) 
0

>  <PUBCHEM_COMPONENT_COUNT>  (1) 
1

>  <PUBCHEM_CACTVS_TAUTO_COUNT>  (1) 
1

>  <PUBCHEM_CONFORMER_ID>  (1) 
0000730400000001

>  <PUBCHEM_MMFF94_ENERGY>  (1) 
24.5694

>  <PUBCHEM_FEATURE_SELFOVERLAP>  (1) 
40.688

>  <PUBCHEM_SHAPE_FINGERPRINT>  (1) 
10618630 7 18335984177533535836
11471102 20 18409724071601326636
11543360 7 15574725676977876302
11578080 2 17199910510948032137
11796584 16 16661194842064671154
12032990 46 18335701620267297078
12119455 92 11311769549497346764
12236239 1 17704070698459680879
12251169 10 18341900709895716327
12670546 56 17632286878601444185
128620 24 11746943096175438225
13296908 3 18259979353657467678
13675066 3 17704075087921571171
13705890 14 17022901216729696582
14004511 7 18131070415978877953
14144814 61 18272369771602369307
14252887 29 18202286879580037958
15219456 202 18187077356122072348
15309172 13 18272647948139473839
15375462 189 18131064948406285010
15375462 478 18131637772584718705
15501101 241 18333449867555983428
15653759 3 17676485038482702565
16945 1 18411691115278595780
17844478 74 17894909616030912469
18186145 218 18334857199284089690
19049666 15 17896588501619673549
19141452 34 18261115197178848867
19422 9 18341617048564322223
200 152 18201146754889074391
20279233 1 17967526870240823535
20281475 54 18335423456525722846
20645477 70 18339065000219090718
20871998 22 18199193884551342254
21267235 1 18341059565978018998
22094290 60 16226045574424818023
22485316 2 18260264135706430571
2255824 54 18268993257783750460
23184049 59 18272932708797599902
23402539 116 14634864224155349222
23557571 272 16588293969414704540
23559900 14 17969491624959012794
23598291 2 17916015944216825620
26918003 58 18410289198770890242
2748010 2 18196075652526891236
3286 77 18336548334483517639
42 15 18411141329041071691
474 4 17843105168269709872
5104073 3 18412262856518259515
6049 1 17895186710230834029
77492 1 17632291302317291949
83771 10 18260268538053001822
8809292 202 18041001764583949146

>  <PUBCHEM_SHAPE_MULTIPOLES>  (1) 
319.31
8.39
1.66
1
1.17
0.01
0.17
-1.81
-1.63
-0.8
-0.09
1.04
0.06
-0.02

>  <PUBCHEM_SHAPE_SELFOVERLAP>  (1) 
694.29

>  <PUBCHEM_SHAPE_VOLUME>  (1) 
179

>  <PUBCHEM_COORDINATE_TYPE>  (1) 
2
5
10

$$$$
