29454
     RDKit          3D

 16 18  0  0  1  0  0  0  0  0999 V2000
    2.7121   -0.2091    0.8334 N   0  0  0  0  0  0  0  0  0  0  0  0
   -1.1109    1.7955    0.3348 N   0  0  0  0  0  0  0  0  0  0  0  0
    1.8152   -0.3477   -0.3315 C   0  0  0  0  0  0  0  0  0  0  0  0
    2.5887    0.2938   -1.4984 C   0  0  0  0  0  0  0  0  0  0  0  0
    3.9332    0.6981   -0.9102 C   0  0  0  0  0  0  0  0  0  0  0  0
    4.0761   -0.1970    0.3043 C   0  0  0  0  0  0  0  0  0  0  0  0
    0.4619    0.2929   -0.1055 C   0  0  0  0  0  0  0  0  0  0  0  0
   -0.8037   -0.3524   -0.1840 C   0  0  0  0  0  0  0  0  0  0  0  0
    2.5210   -1.2525    1.8327 C   0  0  0  0  0  0  0  0  0  0  0  0
    0.2406    1.6122    0.2149 C   0  0  0  0  0  0  0  0  0  0  0  0
   -1.7734    0.6125    0.0966 C   0  0  0  0  0  0  0  0  0  0  0  0
   -1.2188   -1.6687   -0.4678 C   0  0  0  0  0  0  0  0  0  0  0  0
   -3.1430    0.3257    0.1081 C   0  0  0  0  0  0  0  0  0  0  0  0
   -2.5856   -1.9702   -0.4601 C   0  0  0  0  0  0  0  0  0  0  0  0
   -3.5311   -0.9868   -0.1761 C   0  0  0  0  0  0  0  0  0  0  0  0
   -4.1823    1.3537    0.4088 C   0  0  0  0  0  0  0  0  0  0  0  0
  1  3  1  0
  1  6  1  0
  1  9  1  0
  2 10  1  0
  2 11  1  0
  3  4  1  0
  3  7  1  0
  4  5  1  0
  5  6  1  0
  7  8  1  0
  7 10  2  0
  8 11  2  0
  8 12  1  0
 11 13  1  0
 12 14  2  0
 13 15  2  0
 13 16  1  0
 14 15  1  0
M  END
>  <PUBCHEM_COMPOUND_CID>  (1) 
29454

>  <PUBCHEM_CONFORMER_RMSD>  (1) 
0.6

>  <PUBCHEM_CONFORMER_DIVERSEORDER>  (1) 
1
2
8
14
3
12
9
10
4
6
5
11
7
13

>  <PUBCHEM_MMFF94_PARTIAL_CHARGES>  (1) 
18
1 -0.81
10 -0.3
11 -0.15
12 -0.15
13 -0.14
14 -0.15
15 -0.15
16 0.14
2 0.03
27 0.15
28 0.27
29 0.15
3 0.45
30 0.15
31 0.15
6 0.27
7 -0.18
9 0.27

>  <PUBCHEM_EFFECTIVE_ROTOR_COUNT>  (1) 
2

>  <PUBCHEM_PHARMACOPHORE_FEATURES>  (1) 
6
1 1 cation
1 2 cation
1 2 donor
5 1 3 4 5 6 rings
5 2 7 8 10 11 rings
6 8 11 12 13 14 15 rings

>  <PUBCHEM_HEAVY_ATOM_COUNT>  (1) 
16

>  <PUBCHEM_ATOM_DEF_STEREO_COUNT>  (1) 
0

>  <PUBCHEM_ATOM_UDEF_STEREO_COUNT>  (1) 
1

>  <PUBCHEM_BOND_DEF_STEREO_COUNT>  (1) 
0

>  <PUBCHEM_BOND_UDEF_STEREO_COUNT>  (1) 
0

>  <PUBCHEM_ISOTOPIC_ATOM_COUNT>  (1) 
0

>  <PUBCHEM_COMPONENT_COUNT>  (1) 
1

>  <PUBCHEM_CACTVS_TAUTO_COUNT>  (1) 
1

>  <PUBCHEM_CONFORMER_ID>  (1) 
0000730E00000001

>  <PUBCHEM_MMFF94_ENERGY>  (1) 
28.5796

>  <PUBCHEM_FEATURE_SELFOVERLAP>  (1) 
30.538

>  <PUBCHEM_SHAPE_FINGERPRINT>  (1) 
10062212 137 18335414673460319643
10366900 7 16559033774634835328
11132069 177 18272373053115691029
11578080 2 17898255468738395420
12236239 1 18186523202825974164
12346177 29 17917984006122811295
12403814 3 17821728317278692861
12670545 47 16702013210175219240
12932764 1 18187358839699422916
13140716 1 18270684280965914809
13221675 6 18409169917398029522
13296908 3 17561366209503513294
13538477 17 18407758136104844918
13583140 156 17531257145035624537
13760787 19 18186524310458219895
14144814 61 18411417323623772747
14289901 80 15985099742959535443
15375358 24 17775567532940617908
15375462 189 18260265260977098603
15415430 112 18340494455513220446
15669948 3 18412259553757174743
15775835 57 18333453131493510906
16752209 62 18341885325249379527
16945 1 18343584014826613597
17804303 29 18201721794890421705
1813 80 17388536013413650146
18175812 5 17346878970341479316
18186145 218 16877662374687833290
19026448 4 15913323594118338189
19049666 15 16915954963011020770
19050596 39 18187362134282022552
19422 9 18186519916643561083
19786989 88 15647347376220430750
200 152 17531241764540881392
20279233 1 17275106128308653974
20281475 54 18333725836247509331
20510252 161 17988085465579582817
20645476 183 18113908190436393903
20645477 70 16515948307599386202
21267235 1 18339089279716615863
21501502 16 18197780110034694453
232386 152 18339922718083228230
23402539 116 18342454846591973492
23463225 33 18335135349924562170
23557571 272 18059582437905245284
23559900 14 18059301976625005134
2748010 2 18127403669412649613
34934 24 18408603664704714204
4072396 5 18194108634883312745
4175511 318 18260545602610126357
4340502 62 16878237398047616385
474 4 17460605950934295132
495365 180 16486402162460211695
5104073 3 18412826914715648432
5902787 121 18341607182744868601
7364860 26 17770781517760317569
74978 22 18339921636041541821
77492 1 18113617893522770238
81228 2 17630625439164779209

>  <PUBCHEM_SHAPE_MULTIPOLES>  (1) 
319.31
7.5
1.74
1.12
1.06
0.15
-0.17
-0.26
-0.03
-1.32
-0.1
1.12
0.24
-1.1

>  <PUBCHEM_SHAPE_SELFOVERLAP>  (1) 
692.637

>  <PUBCHEM_SHAPE_VOLUME>  (1) 
179.2

>  <PUBCHEM_COORDINATE_TYPE>  (1) 
2
5
10

$$$$
