29453
     RDKit          3D

 16 18  0  0  1  0  0  0  0  0999 V2000
    2.6413   -0.4135    0.8103 N   0  0  0  0  0  0  0  0  0  0  0  0
   -0.7108    2.3080    0.3183 N   0  0  0  0  0  0  0  0  0  0  0  0
    1.6823   -0.4260   -0.3125 C   0  0  0  0  0  0  0  0  0  0  0  0
    2.5157   -0.0210   -1.5424 C   0  0  0  0  0  0  0  0  0  0  0  0
    3.9402    0.1279   -1.0266 C   0  0  0  0  0  0  0  0  0  0  0  0
    3.9532   -0.7114    0.2352 C   0  0  0  0  0  0  0  0  0  0  0  0
    0.5000    0.4913   -0.0803 C   0  0  0  0  0  0  0  0  0  0  0  0
   -0.8731    0.1185   -0.0772 C   0  0  0  0  0  0  0  0  0  0  0  0
    2.2876   -1.3402    1.8780 C   0  0  0  0  0  0  0  0  0  0  0  0
    0.5679    1.8431    0.1655 C   0  0  0  0  0  0  0  0  0  0  0  0
   -1.6113    1.2766    0.1755 C   0  0  0  0  0  0  0  0  0  0  0  0
   -1.5610   -1.0968   -0.2658 C   0  0  0  0  0  0  0  0  0  0  0  0
   -3.0087    1.2802    0.2496 C   0  0  0  0  0  0  0  0  0  0  0  0
   -2.9586   -1.1083   -0.1945 C   0  0  0  0  0  0  0  0  0  0  0  0
   -3.6693    0.0631    0.0597 C   0  0  0  0  0  0  0  0  0  0  0  0
   -3.6951   -2.3916   -0.3929 C   0  0  0  0  0  0  0  0  0  0  0  0
  1  3  1  0
  1  6  1  0
  1  9  1  0
  2 10  1  0
  2 11  1  0
  3  4  1  0
  3  7  1  0
  4  5  1  0
  5  6  1  0
  7  8  1  0
  7 10  2  0
  8 11  2  0
  8 12  1  0
 11 13  1  0
 12 14  2  0
 13 15  2  0
 14 15  1  0
 14 16  1  0
M  END
>  <PUBCHEM_COMPOUND_CID>  (1) 
29453

>  <PUBCHEM_CONFORMER_RMSD>  (1) 
0.6

>  <PUBCHEM_CONFORMER_DIVERSEORDER>  (1) 
1
2
11
4
3
12
14
5
6
16
7
9
15
10
13
8

>  <PUBCHEM_MMFF94_PARTIAL_CHARGES>  (1) 
18
1 -0.81
10 -0.3
11 -0.15
12 -0.15
13 -0.15
14 -0.14
15 -0.15
16 0.14
2 0.03
27 0.15
28 0.27
29 0.15
3 0.45
30 0.15
31 0.15
6 0.27
7 -0.18
9 0.27

>  <PUBCHEM_EFFECTIVE_ROTOR_COUNT>  (1) 
2

>  <PUBCHEM_PHARMACOPHORE_FEATURES>  (1) 
6
1 1 cation
1 2 cation
1 2 donor
5 1 3 4 5 6 rings
5 2 7 8 10 11 rings
6 8 11 12 13 14 15 rings

>  <PUBCHEM_HEAVY_ATOM_COUNT>  (1) 
16

>  <PUBCHEM_ATOM_DEF_STEREO_COUNT>  (1) 
0

>  <PUBCHEM_ATOM_UDEF_STEREO_COUNT>  (1) 
1

>  <PUBCHEM_BOND_DEF_STEREO_COUNT>  (1) 
0

>  <PUBCHEM_BOND_UDEF_STEREO_COUNT>  (1) 
0

>  <PUBCHEM_ISOTOPIC_ATOM_COUNT>  (1) 
0

>  <PUBCHEM_COMPONENT_COUNT>  (1) 
1

>  <PUBCHEM_CACTVS_TAUTO_COUNT>  (1) 
1

>  <PUBCHEM_CONFORMER_ID>  (1) 
0000730D00000001

>  <PUBCHEM_MMFF94_ENERGY>  (1) 
28.3886

>  <PUBCHEM_FEATURE_SELFOVERLAP>  (1) 
30.538

>  <PUBCHEM_SHAPE_FINGERPRINT>  (1) 
10062212 137 18259980440548106715
10465860 71 18341631320640628452
10616163 171 18412548682350230878
11132069 177 18342740680459439717
11543360 7 16298666204511042711
11578080 2 17824794880683523740
11806522 49 18265895941785703324
12236239 1 18040721337974572518
12553582 1 18411135883307909539
12670545 47 16917055668523686448
13103583 49 17902270933138433003
13140716 1 18343023332837607449
13296908 3 18272367602628054049
13538477 17 18335417911744068636
13760787 19 18186524276093096447
14115302 16 17894918463589773382
14787075 74 18263360472789473008
15375462 189 18259705592505337459
15415430 112 18411426115300404623
15536298 74 18200312250663697320
15669948 3 18410009897174140743
16752209 62 18338787915104689733
16945 1 18342177705105681097
17804303 29 18273498987719927657
18175812 5 17418089910329632604
18186145 218 13262394432062495268
18915474 69 18334016103228061726
19049666 15 16915107200859703232
19422 9 18333734602428728182
19786989 88 15575295258218280398
200 152 17530683191138042186
20279233 1 17489587831379169198
20281475 54 18410292505916865399
20510252 161 17987239915257288457
20645476 183 17967822647537855111
20645477 70 17981035629488600183
21501502 16 18268998751052203221
21501925 9 18199740504833083251
21639500 275 16443925967016605124
23184049 29 18269269226527621193
232386 152 18410855477355581951
23366157 5 18117274980771613469
23402539 116 18410572881967491550
23463225 33 18262234404708830330
23557571 272 17988085478902191164
23559900 14 18129385904341467062
2748010 2 18270390724177732341
474 4 17532949400942150276
57096353 35 18041008362017504870
5902787 121 18340764931205364385
603831 33 18113057116891294468
7364860 26 17914053363290528073
77492 1 18040439854244364414
81228 2 18057897848241465841
8863177 126 17683251627105882075

>  <PUBCHEM_SHAPE_MULTIPOLES>  (1) 
319.31
7.21
2.01
1.13
1.02
0.17
0.16
-2.88
-0.76
-1.73
0.24
1.19
-0.34
-0.89

>  <PUBCHEM_SHAPE_SELFOVERLAP>  (1) 
692.423

>  <PUBCHEM_SHAPE_VOLUME>  (1) 
179.1

>  <PUBCHEM_COORDINATE_TYPE>  (1) 
2
5
10

$$$$
