29465
     RDKit          3D

 17 19  0  0  1  0  0  0  0  0999 V2000
   -3.7031   -1.6668   -0.1520 O   0  0  0  0  0  0  0  0  0  0  0  0
    2.7352   -0.4846    0.8351 N   0  0  0  0  0  0  0  0  0  0  0  0
   -0.2187    2.5534    0.1765 N   0  0  0  0  0  0  0  0  0  0  0  0
    1.7940   -0.4895   -0.3025 C   0  0  0  0  0  0  0  0  0  0  0  0
    2.6712   -0.2756   -1.5474 C   0  0  0  0  0  0  0  0  0  0  0  0
    4.0927   -0.1688   -1.0151 C   0  0  0  0  0  0  0  0  0  0  0  0
    4.0309   -0.9111    0.3049 C   0  0  0  0  0  0  0  0  0  0  0  0
    0.7459    0.5770   -0.1166 C   0  0  0  0  0  0  0  0  0  0  0  0
   -0.6618    0.3802   -0.0648 C   0  0  0  0  0  0  0  0  0  0  0  0
    2.2990   -1.3178    1.9486 C   0  0  0  0  0  0  0  0  0  0  0  0
    0.9880    1.9223    0.0344 C   0  0  0  0  0  0  0  0  0  0  0  0
   -1.2438    1.6362    0.1198 C   0  0  0  0  0  0  0  0  0  0  0  0
   -1.5000   -0.7486   -0.1574 C   0  0  0  0  0  0  0  0  0  0  0  0
   -2.6277    1.8205    0.2167 C   0  0  0  0  0  0  0  0  0  0  0  0
   -2.8861   -0.5795   -0.0621 C   0  0  0  0  0  0  0  0  0  0  0  0
   -3.4392    0.6862    0.1221 C   0  0  0  0  0  0  0  0  0  0  0  0
   -3.0764   -2.9336   -0.3402 C   0  0  0  0  0  0  0  0  0  0  0  0
  1 15  1  0
  1 17  1  0
  2  4  1  0
  2  7  1  0
  2 10  1  0
  3 11  1  0
  3 12  1  0
  4  5  1  0
  4  8  1  0
  5  6  1  0
  6  7  1  0
  8  9  1  0
  8 11  2  0
  9 12  2  0
  9 13  1  0
 12 14  1  0
 13 15  2  0
 14 16  2  0
 15 16  1  0
M  END
>  <PUBCHEM_COMPOUND_CID>  (1) 
29465

>  <PUBCHEM_CONFORMER_RMSD>  (1) 
0.6

>  <PUBCHEM_CONFORMER_DIVERSEORDER>  (1) 
1
5
19
7
6
3
9
2
10
11
18
20
4
16
8
14
15
12
17
13

>  <PUBCHEM_MMFF94_PARTIAL_CHARGES>  (1) 
19
1 -0.36
10 0.27
11 -0.3
12 -0.15
13 -0.15
14 -0.15
15 0.08
16 -0.15
17 0.28
2 -0.81
28 0.15
29 0.27
3 0.03
30 0.15
31 0.15
32 0.15
4 0.45
7 0.27
8 -0.18

>  <PUBCHEM_EFFECTIVE_ROTOR_COUNT>  (1) 
3

>  <PUBCHEM_PHARMACOPHORE_FEATURES>  (1) 
7
1 1 acceptor
1 2 cation
1 3 cation
1 3 donor
5 2 4 5 6 7 rings
5 3 8 9 11 12 rings
6 9 12 13 14 15 16 rings

>  <PUBCHEM_HEAVY_ATOM_COUNT>  (1) 
17

>  <PUBCHEM_ATOM_DEF_STEREO_COUNT>  (1) 
0

>  <PUBCHEM_ATOM_UDEF_STEREO_COUNT>  (1) 
1

>  <PUBCHEM_BOND_DEF_STEREO_COUNT>  (1) 
0

>  <PUBCHEM_BOND_UDEF_STEREO_COUNT>  (1) 
0

>  <PUBCHEM_ISOTOPIC_ATOM_COUNT>  (1) 
0

>  <PUBCHEM_COMPONENT_COUNT>  (1) 
1

>  <PUBCHEM_CACTVS_TAUTO_COUNT>  (1) 
1

>  <PUBCHEM_CONFORMER_ID>  (1) 
0000731900000001

>  <PUBCHEM_MMFF94_ENERGY>  (1) 
39.9839

>  <PUBCHEM_FEATURE_SELFOVERLAP>  (1) 
35.612

>  <PUBCHEM_SHAPE_FINGERPRINT>  (1) 
10062212 137 18114458964036004019
10366900 7 17203040781765072768
10616163 171 18411704257483415390
11543360 7 16081652287306489655
11578080 2 17751331011289436204
11806522 49 18265052612241075884
12236239 1 17895482427603544638
12553582 1 18410011069975012875
13083527 12 17764837549426079353
13103583 49 17901710164991279939
13140716 1 18342460382831406089
13296908 3 18342454859060253992
13538477 17 18262235500236584220
13760787 19 18114186293678861988
14787075 74 18190178074140445168
15375462 189 18186523180755091011
15415430 112 18410301297751694350
15669948 3 18336264539860463689
16752209 62 18337379440730594625
16945 1 18268993090021588909
17804303 29 18343867714638692113
18186145 218 12829489212263860180
18915474 69 18333735719273232118
19422 9 18261115140869299390
200 152 17385726859608433272
20281475 54 18408885118259128070
20291156 8 18337953497274556915
20510252 161 17913772717210974257
20600515 1 18200313213132172824
20645477 70 18051968423089102223
21452121 199 18054213595540947937
21501502 16 18339650056722579469
21634736 98 18263930019195216238
21639500 275 16298970739246066556
23184049 29 18339920545119777103
232386 152 18410012134714945613
23366157 5 18116714216861632829
23402539 116 18409166589526492614
23557571 272 18059582330520591452
23559900 14 18128259987339170790
238078 22 18340782506274999140
2748010 2 18341885346650369397
34934 24 18335419019634855272
474 4 17532390823333988588
568465 68 17203327814408482310
57096353 35 17967827054306014006
5902787 121 18411696608008958889
603831 33 17968098594880794364
7364860 26 18056761159239703360
74978 22 18410008849466156933
77492 1 17895199848688409028
7970288 3 18340767164505196831
81228 2 17986118413428631193
8809292 202 18409735092556129195
8863177 126 17682129012801476795

>  <PUBCHEM_SHAPE_MULTIPOLES>  (1) 
334.02
7.16
2.46
1.11
1.77
0.23
-0.22
3.3
0.63
-2.49
-0.12
1.26
0.38
-0.75

>  <PUBCHEM_SHAPE_SELFOVERLAP>  (1) 
723.542

>  <PUBCHEM_SHAPE_VOLUME>  (1) 
187.2

>  <PUBCHEM_COORDINATE_TYPE>  (1) 
2
5
10

$$$$
