29464
     RDKit          3D

 16 18  0  0  1  0  0  0  0  0999 V2000
    2.2237    0.8256    0.8251 N   0  0  0  0  0  0  0  0  0  0  0  0
   -1.4537    1.5652   -1.3237 N   0  0  0  0  0  0  0  0  0  0  0  0
    1.4010   -0.2123    0.1731 C   0  0  0  0  0  0  0  0  0  0  0  0
    2.3041   -0.6791   -0.9844 C   0  0  0  0  0  0  0  0  0  0  0  0
    3.7322   -0.4163   -0.4956 C   0  0  0  0  0  0  0  0  0  0  0  0
    3.5789    0.2671    0.8555 C   0  0  0  0  0  0  0  0  0  0  0  0
    0.0720    0.3322   -0.2868 C   0  0  0  0  0  0  0  0  0  0  0  0
    2.0694   -2.1372   -1.3620 C   0  0  0  0  0  0  0  0  0  0  0  0
    1.7650    1.1677    2.1687 C   0  0  0  0  0  0  0  0  0  0  0  0
   -1.2143   -0.1379    0.0974 C   0  0  0  0  0  0  0  0  0  0  0  0
   -0.1072    1.3791   -1.1607 C   0  0  0  0  0  0  0  0  0  0  0  0
   -2.1542    0.6529   -0.5670 C   0  0  0  0  0  0  0  0  0  0  0  0
   -1.6713   -1.1633    0.9491 C   0  0  0  0  0  0  0  0  0  0  0  0
   -3.5338    0.4691   -0.4215 C   0  0  0  0  0  0  0  0  0  0  0  0
   -3.0484   -1.3588    1.1042 C   0  0  0  0  0  0  0  0  0  0  0  0
   -3.9635   -0.5539    0.4286 C   0  0  0  0  0  0  0  0  0  0  0  0
  1  3  1  0
  1  6  1  0
  1  9  1  0
  2 11  1  0
  2 12  1  0
  3  4  1  0
  3  7  1  0
  4  5  1  0
  4  8  1  0
  5  6  1  0
  7 10  1  0
  7 11  2  0
 10 12  2  0
 10 13  1  0
 12 14  1  0
 13 15  2  0
 14 16  2  0
 15 16  1  0
M  END
>  <PUBCHEM_COMPOUND_CID>  (1) 
29464

>  <PUBCHEM_CONFORMER_RMSD>  (1) 
0.6

>  <PUBCHEM_CONFORMER_DIVERSEORDER>  (1) 
1
13
12
7
4
10
3
2
8
9
6
5
11

>  <PUBCHEM_MMFF94_PARTIAL_CHARGES>  (1) 
18
1 -0.81
11 -0.3
12 -0.15
13 -0.15
14 -0.15
15 -0.15
16 -0.15
2 0.03
29 0.15
3 0.45
30 0.27
31 0.15
32 0.15
33 0.15
34 0.15
6 0.27
7 -0.18
9 0.27

>  <PUBCHEM_EFFECTIVE_ROTOR_COUNT>  (1) 
2

>  <PUBCHEM_PHARMACOPHORE_FEATURES>  (1) 
6
1 1 cation
1 2 cation
1 2 donor
5 1 3 4 5 6 rings
5 2 7 10 11 12 rings
6 10 12 13 14 15 16 rings

>  <PUBCHEM_HEAVY_ATOM_COUNT>  (1) 
16

>  <PUBCHEM_ATOM_DEF_STEREO_COUNT>  (1) 
0

>  <PUBCHEM_ATOM_UDEF_STEREO_COUNT>  (1) 
2

>  <PUBCHEM_BOND_DEF_STEREO_COUNT>  (1) 
0

>  <PUBCHEM_BOND_UDEF_STEREO_COUNT>  (1) 
0

>  <PUBCHEM_ISOTOPIC_ATOM_COUNT>  (1) 
0

>  <PUBCHEM_COMPONENT_COUNT>  (1) 
1

>  <PUBCHEM_CACTVS_TAUTO_COUNT>  (1) 
1

>  <PUBCHEM_CONFORMER_ID>  (1) 
0000731800000001

>  <PUBCHEM_MMFF94_ENERGY>  (1) 
30.0986

>  <PUBCHEM_FEATURE_SELFOVERLAP>  (1) 
30.538

>  <PUBCHEM_SHAPE_FINGERPRINT>  (1) 
10366900 7 18273214213802080313
10465860 71 17676788512155407127
107287 299 18272370875804661950
11471102 22 17989488511077572260
11582403 64 16607364964413547868
11615757 297 16917066672161333543
11640471 11 15266772346851098416
12202030 40 18338805502774500230
12236239 1 16008748000642949282
13296908 3 18335424573233154479
13538477 17 16732700549530913081
13581323 91 17676199165459363802
13760787 19 15430037660671355643
14252887 29 18335433377905646427
14289901 80 17847058908918911619
14787075 74 15332324276695283357
15219456 202 18342174436350492038
15309172 13 17632578244755975446
15375358 24 18408037407768685615
15375462 175 17894352142303127307
15501101 241 18273220806640137732
15775835 57 14620797119333465074
16752209 62 17385990759679150029
16945 1 17775563143726595288
17844478 74 18342738498769235540
18175812 5 18411980294930613926
19049666 15 18198340645857610776
19862831 5 16081094774639214206
200 152 17346591963594545407
20279233 1 18411982455367988871
204376 136 17774150344673867698
20510252 161 18188767249965857381
20539784 86 17703795837959465970
20645476 183 15647059278530938795
20645477 70 17702941414108164199
22112679 90 16732985271508376028
2255824 54 17060335262533627648
22892500 29 17847058900007347161
23048698 100 16487254369897282195
232386 152 17313100894983377691
23402539 116 17822005419720187654
23526113 38 18125992785155596244
23557571 272 18188212009631382252
23559900 14 18115026295241345038
23598291 2 15142072150509771424
2748010 2 17390217136426547981
3286 77 18059859441235574774
474 4 16126942301115566088
495365 180 17986935389427865881
568465 68 18201721764820603354
5902787 121 17604434127529827785
7364860 26 17972614443660526133
77492 1 15410889660930269612
81228 2 18042414538515842853
8272917 22 16988295174603193255

>  <PUBCHEM_SHAPE_MULTIPOLES>  (1) 
319.31
6.61
1.6
1.54
0.99
0.45
-0.06
0.83
1.21
-1.43
0.18
0.68
-0.4
1.31

>  <PUBCHEM_SHAPE_SELFOVERLAP>  (1) 
691.613

>  <PUBCHEM_SHAPE_VOLUME>  (1) 
180

>  <PUBCHEM_COORDINATE_TYPE>  (1) 
2
5
10

$$$$
