29469
     RDKit          3D

 20 19  0  0  0  0  0  0  0  0999 V2000
    0.1331    0.4423   -0.5730 P   0  0  0  0  0  0  0  0  0  0  0  0
    0.0593   -1.1848   -0.6829 O   0  0  0  0  0  0  0  0  0  0  0  0
    0.1562    1.0357   -1.9626 O   0  0  0  0  0  0  0  0  0  0  0  0
    5.1929    0.3904    0.2678 N   0  0  0  0  0  0  0  0  0  0  0  0
   -4.9167    0.7114    0.2935 N   0  0  0  0  0  0  0  0  0  0  0  0
    1.4833    0.7855    0.3410 N   0  0  0  0  0  0  0  0  0  0  0  0
   -1.1898    0.8905    0.3352 N   0  0  0  0  0  0  0  0  0  0  0  0
    3.8685    0.7404    0.8368 C   0  0  0  0  0  0  0  0  0  0  0  0
   -3.5637    0.8570    0.8839 C   0  0  0  0  0  0  0  0  0  0  0  0
    2.7976    0.4922   -0.2121 C   0  0  0  0  0  0  0  0  0  0  0  0
   -2.5251    0.7049   -0.2146 C   0  0  0  0  0  0  0  0  0  0  0  0
    5.2468   -1.0950   -0.1165 C   0  0  0  0  0  0  0  0  0  0  0  0
    5.4817    1.2192   -0.9918 C   0  0  0  0  0  0  0  0  0  0  0  0
    6.3121    0.6607    1.2832 C   0  0  0  0  0  0  0  0  0  0  0  0
   -5.1761    1.8042   -0.7531 C   0  0  0  0  0  0  0  0  0  0  0  0
   -5.0680   -0.6527   -0.3941 C   0  0  0  0  0  0  0  0  0  0  0  0
   -5.9996    0.8221    1.3761 C   0  0  0  0  0  0  0  0  0  0  0  0
    0.0921   -1.9906    0.4837 C   0  0  0  0  0  0  0  0  0  0  0  0
   -0.4773   -3.3612    0.1507 C   0  0  0  0  0  0  0  0  0  0  0  0
   -1.9073   -3.2720   -0.3512 C   0  0  0  0  0  0  0  0  0  0  0  0
  1  2  1  0
  1  3  2  0
  1  6  1  0
  1  7  1  0
  2 18  1  0
  4  8  1  0
  4 12  1  0
  4 13  1  0
  4 14  1  0
  5  9  1  0
  5 15  1  0
  5 16  1  0
  5 17  1  0
  6 10  1  0
  7 11  1  0
  8 10  1  0
  9 11  1  0
 18 19  1  0
 19 20  1  0
M  CHG  2   4   1   5   1
M  END
>  <PUBCHEM_COMPOUND_CID>  (1) 
29469

>  <PUBCHEM_CONFORMER_RMSD>  (1) 
1

>  <PUBCHEM_CONFORMER_DIVERSEORDER>  (1) 
1
10
30
21
4
17
18
7
8
5
25
12
14
26
27
2
16
3
29
24
20
13
19
6
9
15
28
23
11
22

>  <PUBCHEM_MMFF94_PARTIAL_CHARGES>  (1) 
20
1 1.51
10 0.27
11 0.27
12 0.5
13 0.5
14 0.5
15 0.5
16 0.5
17 0.5
18 0.28
2 -0.55
3 -0.7
4 -1.01
47 0.36
48 0.36
5 -1.01
6 -0.9
7 -0.9
8 0.5
9 0.5

>  <PUBCHEM_EFFECTIVE_ROTOR_COUNT>  (1) 
11

>  <PUBCHEM_PHARMACOPHORE_FEATURES>  (1) 
3
1 20 hydrophobe
1 4 cation
1 5 cation

>  <PUBCHEM_HEAVY_ATOM_COUNT>  (1) 
20

>  <PUBCHEM_ATOM_DEF_STEREO_COUNT>  (1) 
0

>  <PUBCHEM_ATOM_UDEF_STEREO_COUNT>  (1) 
0

>  <PUBCHEM_BOND_DEF_STEREO_COUNT>  (1) 
0

>  <PUBCHEM_BOND_UDEF_STEREO_COUNT>  (1) 
0

>  <PUBCHEM_ISOTOPIC_ATOM_COUNT>  (1) 
0

>  <PUBCHEM_COMPONENT_COUNT>  (1) 
1

>  <PUBCHEM_CACTVS_TAUTO_COUNT>  (1) 
2

>  <PUBCHEM_CONFORMER_ID>  (1) 
0000731D00000001

>  <PUBCHEM_MMFF94_ENERGY>  (1) 
38.2813

>  <PUBCHEM_FEATURE_SELFOVERLAP>  (1) 
15.223

>  <PUBCHEM_SHAPE_FINGERPRINT>  (1) 
10756046 70 17604441819589428286
12516196 113 15502378932519394540
12597179 24 18131639980003133414
12616971 3 17530957030169380804
13052359 8 18337674225716568835
13533116 47 17988646234359276974
14866123 147 18336540620359244898
19141452 34 18335699473047471142
19784866 140 10591766454433636701
20197701 30 18411697660376374559
21033648 29 18338498786101606320
21236236 1 18342173427334338495
21279426 13 18342460309490291262
22224240 67 18412544314921774737
23402539 116 18273209807429697077
23419403 2 16628270189688327099
23503953 91 18335695092465841336
23558518 356 17902230344858207882
23559900 14 18201437038806987240
4340502 62 18342179942677997902
465052 167 17240492398538869544
474229 33 18409166606300004195
5104073 3 18191854825283441872
5486654 2 18413674612574675209
59755656 215 18339925896564723262
59755656 520 18412822490736159942
7226269 152 18131069346247392905

>  <PUBCHEM_SHAPE_MULTIPOLES>  (1) 
383.78
15.24
2.69
1.18
6.04
3.68
0.09
-7.65
-3.38
-1.8
0.22
0.05
-0.43
-0.24

>  <PUBCHEM_SHAPE_SELFOVERLAP>  (1) 
689.948

>  <PUBCHEM_SHAPE_VOLUME>  (1) 
253.1

>  <PUBCHEM_COORDINATE_TYPE>  (1) 
2
5
10

$$$$
