29466
     RDKit          3D

 21 24  0  0  1  0  0  0  0  0999 V2000
    0.9179    0.9203   -0.0886 N   0  0  0  0  0  0  0  0  0  0  0  0
   -2.6804   -0.1199    1.9997 N   0  0  0  0  0  0  0  0  0  0  0  0
   -0.4186    1.4292   -0.4553 C   0  0  0  0  0  0  0  0  0  0  0  0
   -0.3682    2.9366   -0.1546 C   0  0  0  0  0  0  0  0  0  0  0  0
    1.0378    3.1876    0.3702 C   0  0  0  0  0  0  0  0  0  0  0  0
    1.8426    2.0470   -0.2200 C   0  0  0  0  0  0  0  0  0  0  0  0
   -1.4852    0.6983    0.3184 C   0  0  0  0  0  0  0  0  0  0  0  0
    1.3371   -0.2267   -0.8842 C   0  0  0  0  0  0  0  0  0  0  0  0
   -2.5673   -0.0467   -0.2272 C   0  0  0  0  0  0  0  0  0  0  0  0
   -1.5813    0.6351    1.6892 C   0  0  0  0  0  0  0  0  0  0  0  0
   -3.3019   -0.5494    0.8487 C   0  0  0  0  0  0  0  0  0  0  0  0
    2.6936   -0.6706   -0.4242 C   0  0  0  0  0  0  0  0  0  0  0  0
   -2.9940   -0.3427   -1.5371 C   0  0  0  0  0  0  0  0  0  0  0  0
   -4.4466   -1.3366    0.6797 C   0  0  0  0  0  0  0  0  0  0  0  0
    3.8321   -0.1305   -1.0131 C   0  0  0  0  0  0  0  0  0  0  0  0
    2.8024   -1.6183    0.5880 C   0  0  0  0  0  0  0  0  0  0  0  0
   -4.1372   -1.1289   -1.7214 C   0  0  0  0  0  0  0  0  0  0  0  0
   -4.8509   -1.6170   -0.6286 C   0  0  0  0  0  0  0  0  0  0  0  0
    5.0939   -0.5431   -0.5851 C   0  0  0  0  0  0  0  0  0  0  0  0
    4.0644   -2.0307    1.0161 C   0  0  0  0  0  0  0  0  0  0  0  0
    5.2100   -1.4930    0.4294 C   0  0  0  0  0  0  0  0  0  0  0  0
  1  3  1  0
  1  6  1  0
  1  8  1  0
  2 10  1  0
  2 11  1  0
  3  4  1  0
  3  7  1  0
  4  5  1  0
  5  6  1  0
  7  9  1  0
  7 10  2  0
  8 12  1  0
  9 11  2  0
  9 13  1  0
 11 14  1  0
 12 15  2  0
 12 16  1  0
 13 17  2  0
 14 18  2  0
 15 19  1  0
 16 20  2  0
 17 18  1  0
 19 21  2  0
 20 21  1  0
M  END
>  <PUBCHEM_COMPOUND_CID>  (1) 
29466

>  <PUBCHEM_CONFORMER_RMSD>  (1) 
0.6

>  <PUBCHEM_CONFORMER_DIVERSEORDER>  (1) 
2
14
25
16
11
31
39
18
13
1
30
17
38
10
22
33
37
23
24
15
4
6
32
20
29
28
12
5
19
3
21
7
26
27
36
8
35
34
9

>  <PUBCHEM_MMFF94_PARTIAL_CHARGES>  (1) 
29
1 -0.81
10 -0.3
11 -0.15
12 -0.14
13 -0.15
14 -0.15
15 -0.15
16 -0.15
17 -0.15
18 -0.15
19 -0.15
2 0.03
20 -0.15
21 -0.15
3 0.45
31 0.15
32 0.27
33 0.15
34 0.15
35 0.15
36 0.15
37 0.15
38 0.15
39 0.15
40 0.15
41 0.15
6 0.27
7 -0.18
8 0.41

>  <PUBCHEM_EFFECTIVE_ROTOR_COUNT>  (1) 
4

>  <PUBCHEM_PHARMACOPHORE_FEATURES>  (1) 
7
1 1 cation
1 2 cation
1 2 donor
5 1 3 4 5 6 rings
5 2 7 9 10 11 rings
6 12 15 16 19 20 21 rings
6 9 11 13 14 17 18 rings

>  <PUBCHEM_HEAVY_ATOM_COUNT>  (1) 
21

>  <PUBCHEM_ATOM_DEF_STEREO_COUNT>  (1) 
0

>  <PUBCHEM_ATOM_UDEF_STEREO_COUNT>  (1) 
1

>  <PUBCHEM_BOND_DEF_STEREO_COUNT>  (1) 
0

>  <PUBCHEM_BOND_UDEF_STEREO_COUNT>  (1) 
0

>  <PUBCHEM_ISOTOPIC_ATOM_COUNT>  (1) 
0

>  <PUBCHEM_COMPONENT_COUNT>  (1) 
1

>  <PUBCHEM_CACTVS_TAUTO_COUNT>  (1) 
1

>  <PUBCHEM_CONFORMER_ID>  (1) 
0000731A00000002

>  <PUBCHEM_MMFF94_ENERGY>  (1) 
46.2174

>  <PUBCHEM_FEATURE_SELFOVERLAP>  (1) 
35.614

>  <PUBCHEM_SHAPE_FINGERPRINT>  (1) 
10447042 23 18186799176029174086
10681291 71 9511458952725300378
11045977 3 15267342911686784291
11265709 11 18413109450565344961
11552529 35 17773599304443238362
11578080 2 17774422963355123113
12293681 25 17462289354712561963
12363563 72 18408325471098575622
12553582 1 18411710863216521406
12788726 201 18047459029049754401
12892183 10 16056886788628596006
12954195 1 10954043475481219288
13083527 12 18342166795941698232
13533116 47 18197220463301286691
13544653 18 18261396620193562556
13583140 156 14692289478616643860
14178342 30 17560254504637618223
14251757 17 16515402941326301698
14251764 38 12253341915596651486
14341114 176 15123514705052249714
14341114 328 15769491027564763602
14767858 380 18262535783576802364
14787075 74 18337118947133634588
15415430 10 18343584036100983590
15534591 1 11314316039865455537
17349148 13 17988645232882940911
1813 80 18273225196017755772
18222031 100 18201718457595376886
19784866 34 8214145153037012612
200 152 18187365402636220030
20028762 73 17846213418563643479
20626108 58 18201146750198422387
20645477 70 18116429439207610625
20671657 53 18410009957451551405
20832881 197 18333732408122290545
21250096 35 18407757019271124530
23402539 116 18411983520599025514
23526113 38 17531250616273767537
23559900 14 17458343099620721605
23596394 208 17676202507054780892
23598288 3 18120947100753132588
25147074 1 18269856301149580513
27216 239 12751234788140804523
314194 84 18409451405486956666
339767 52 18131066022159022519
351380 3 18343304777201232567
38570 142 13756644842656854282
4098825 35 17385447617935810309
46194498 28 16734116819550433671
463206 1 18261110794194260331
4921388 177 15357710686100019363
5104073 3 17844539988426522003
5283173 99 17459177513024401868
56616090 89 17917422142516391315
59682541 52 18189594160541440607
7064713 232 17060630983669121271
76465 3 18409727348545354762
7970288 3 18412543206283162086
8863177 126 18043822102816099627

>  <PUBCHEM_SHAPE_MULTIPOLES>  (1) 
422.21
10.53
2.68
1.45
3.05
2.29
0.17
-9.05
-0.93
1.13
0.27
-1.21
-0.32
-0.97

>  <PUBCHEM_SHAPE_SELFOVERLAP>  (1) 
931.556

>  <PUBCHEM_SHAPE_VOLUME>  (1) 
229.3

>  <PUBCHEM_COORDINATE_TYPE>  (1) 
2
5
10

$$$$
