2946
     RDKit          3D

 16 18  0  0  1  0  0  0  0  0999 V2000
    3.1545   -0.7235    0.0702 O   0  0  0  0  0  0  0  0  0  0  0  0
    1.7897   -3.0590   -0.0329 O   0  0  0  0  0  0  0  0  0  0  0  0
   -2.4256   -0.6518   -0.0161 N   0  0  0  0  0  0  0  0  0  0  0  0
    1.4138    1.7887   -0.0029 N   0  0  0  0  0  0  0  0  0  0  0  0
   -0.2737    0.3912   -0.0256 C   0  0  0  0  0  0  0  0  0  0  0  0
   -0.8171    1.6805   -0.0877 C   0  0  0  0  0  0  0  0  0  0  0  0
   -2.2833    1.8771   -0.1901 C   0  0  0  0  0  0  0  0  0  0  0  0
   -3.0332    0.6507    0.3832 C   0  0  0  0  0  0  0  0  0  0  0  0
   -1.0246   -0.8180   -0.0256 C   0  0  0  0  0  0  0  0  0  0  0  0
    1.0910    0.4541    0.0048 C   0  0  0  0  0  0  0  0  0  0  0  0
    0.2563    2.5453   -0.0658 C   0  0  0  0  0  0  0  0  0  0  0  0
   -0.3417   -1.9840   -0.0345 C   0  0  0  0  0  0  0  0  0  0  0  0
    1.9348   -0.6996    0.0274 C   0  0  0  0  0  0  0  0  0  0  0  0
   -3.3476   -1.7838   -0.0589 C   0  0  0  0  0  0  0  0  0  0  0  0
    1.1597   -2.0113   -0.0166 C   0  0  0  0  0  0  0  0  0  0  0  0
    2.7471    2.3435    0.0709 C   0  0  0  0  0  0  0  0  0  0  0  0
  1 13  2  0
  2 15  2  0
  3  8  1  0
  3  9  1  0
  3 14  1  0
  4 10  1  0
  4 11  1  0
  4 16  1  0
  5  6  1  0
  5  9  1  0
  5 10  2  0
  6  7  1  0
  6 11  2  0
  7  8  1  0
  9 12  2  0
 10 13  1  0
 12 15  1  0
 13 15  1  0
M  END
>  <PUBCHEM_COMPOUND_CID>  (1) 
2946

>  <PUBCHEM_CONFORMER_RMSD>  (1) 
0.4

>  <PUBCHEM_CONFORMER_DIVERSEORDER>  (1) 
1

>  <PUBCHEM_MMFF94_PARTIAL_CHARGES>  (1) 
18
1 -0.57
10 -0.24
11 -0.3
12 -0.14
13 0.65
14 0.37
15 0.56
16 0.26
2 -0.57
21 0.15
22 0.15
3 -0.84
4 0.05
5 -0.05
6 -0.18
7 0.18
8 0.37
9 0.15

>  <PUBCHEM_EFFECTIVE_ROTOR_COUNT>  (1) 
0.6

>  <PUBCHEM_PHARMACOPHORE_FEATURES>  (1) 
7
1 1 acceptor
1 2 acceptor
1 3 cation
1 4 cation
5 4 5 6 10 11 rings
6 3 5 6 7 8 9 rings
6 5 9 10 12 13 15 rings

>  <PUBCHEM_HEAVY_ATOM_COUNT>  (1) 
16

>  <PUBCHEM_ATOM_DEF_STEREO_COUNT>  (1) 
0

>  <PUBCHEM_ATOM_UDEF_STEREO_COUNT>  (1) 
0

>  <PUBCHEM_BOND_DEF_STEREO_COUNT>  (1) 
0

>  <PUBCHEM_BOND_UDEF_STEREO_COUNT>  (1) 
0

>  <PUBCHEM_ISOTOPIC_ATOM_COUNT>  (1) 
0

>  <PUBCHEM_COMPONENT_COUNT>  (1) 
1

>  <PUBCHEM_CACTVS_TAUTO_COUNT>  (1) 
1

>  <PUBCHEM_CONFORMER_ID>  (1) 
00000B8200000001

>  <PUBCHEM_MMFF94_ENERGY>  (1) 
35.9916

>  <PUBCHEM_FEATURE_SELFOVERLAP>  (1) 
35.75

>  <PUBCHEM_SHAPE_FINGERPRINT>  (1) 
10967382 1 18337954489179633869
11680986 33 18267858398089513377
12382932 28 18267860584275424434
13140716 1 18411135827030028568
13380535 76 18050002495733765682
14790565 3 17832163975491278645
16945 1 18266740181942616133
17990270 104 18337670815206268915
193761 8 18410573963871942917
19591789 44 18338804523759067158
20645477 70 18264198279243703487
21501502 16 18410576205839739577
2334 1 18338516459843848284
23388829 49 18341316894643167431
23402539 116 17695340765166409341
23463225 33 18408320007953052608
23552423 10 18409169917640746141
23559900 14 18053379891366716686
2748010 2 18410008866245125548
2897 32 18337955704750473685
43471831 8 18337105795131137618
54173680 148 17833552297303502587
7364860 26 18413390921225872336

>  <PUBCHEM_SHAPE_MULTIPOLES>  (1) 
307.57
4.4
3.34
0.61
1.28
0.53
0
0.12
0.18
-1.13
-0.09
0.06
-0.03
-0.01

>  <PUBCHEM_SHAPE_SELFOVERLAP>  (1) 
681.978

>  <PUBCHEM_SHAPE_VOLUME>  (1) 
165.2

>  <PUBCHEM_COORDINATE_TYPE>  (1) 
2
5
10

$$$$
