2947
     RDKit          3D

 15 17  0  0  1  0  0  0  0  0999 V2000
    3.3200    0.6613    0.0870 O   0  0  0  0  0  0  0  0  0  0  0  0
    2.8794   -2.0068   -0.0348 O   0  0  0  0  0  0  0  0  0  0  0  0
   -1.9177   -1.2635   -0.0241 N   0  0  0  0  0  0  0  0  0  0  0  0
    0.7972    2.3869    0.0195 N   0  0  0  0  0  0  0  0  0  0  0  0
   -0.2800    0.4791   -0.0183 C   0  0  0  0  0  0  0  0  0  0  0  0
   -1.2478    1.4898   -0.0759 C   0  0  0  0  0  0  0  0  0  0  0  0
   -2.6873    1.1506   -0.1840 C   0  0  0  0  0  0  0  0  0  0  0  0
   -2.9512   -0.2665    0.3794 C   0  0  0  0  0  0  0  0  0  0  0  0
   -0.5496   -0.9184   -0.0282 C   0  0  0  0  0  0  0  0  0  0  0  0
    0.9721    1.0250    0.0186 C   0  0  0  0  0  0  0  0  0  0  0  0
   -0.5540    2.6807   -0.0446 C   0  0  0  0  0  0  0  0  0  0  0  0
    0.5046   -1.7637   -0.0403 C   0  0  0  0  0  0  0  0  0  0  0  0
    2.1723    0.2484    0.0388 C   0  0  0  0  0  0  0  0  0  0  0  0
   -2.3746   -2.6497   -0.0772 C   0  0  0  0  0  0  0  0  0  0  0  0
    1.9167   -1.2532   -0.0158 C   0  0  0  0  0  0  0  0  0  0  0  0
  1 13  2  0
  2 15  2  0
  3  8  1  0
  3  9  1  0
  3 14  1  0
  4 10  1  0
  4 11  1  0
  5  6  1  0
  5  9  1  0
  5 10  2  0
  6  7  1  0
  6 11  2  0
  7  8  1  0
  9 12  2  0
 10 13  1  0
 12 15  1  0
 13 15  1  0
M  END
>  <PUBCHEM_COMPOUND_CID>  (1) 
2947

>  <PUBCHEM_CONFORMER_RMSD>  (1) 
0.4

>  <PUBCHEM_CONFORMER_DIVERSEORDER>  (1) 
1

>  <PUBCHEM_MMFF94_PARTIAL_CHARGES>  (1) 
18
1 -0.57
10 -0.24
11 -0.3
12 -0.14
13 0.65
14 0.37
15 0.56
2 -0.57
20 0.15
21 0.27
22 0.15
3 -0.84
4 0.03
5 -0.05
6 -0.18
7 0.18
8 0.37
9 0.15

>  <PUBCHEM_EFFECTIVE_ROTOR_COUNT>  (1) 
0.6

>  <PUBCHEM_PHARMACOPHORE_FEATURES>  (1) 
8
1 1 acceptor
1 2 acceptor
1 3 cation
1 4 cation
1 4 donor
5 4 5 6 10 11 rings
6 3 5 6 7 8 9 rings
6 5 9 10 12 13 15 rings

>  <PUBCHEM_HEAVY_ATOM_COUNT>  (1) 
15

>  <PUBCHEM_ATOM_DEF_STEREO_COUNT>  (1) 
0

>  <PUBCHEM_ATOM_UDEF_STEREO_COUNT>  (1) 
0

>  <PUBCHEM_BOND_DEF_STEREO_COUNT>  (1) 
0

>  <PUBCHEM_BOND_UDEF_STEREO_COUNT>  (1) 
0

>  <PUBCHEM_ISOTOPIC_ATOM_COUNT>  (1) 
0

>  <PUBCHEM_COMPONENT_COUNT>  (1) 
1

>  <PUBCHEM_CACTVS_TAUTO_COUNT>  (1) 
7

>  <PUBCHEM_CONFORMER_ID>  (1) 
00000B8300000001

>  <PUBCHEM_MMFF94_ENERGY>  (1) 
32.811

>  <PUBCHEM_FEATURE_SELFOVERLAP>  (1) 
40.824

>  <PUBCHEM_SHAPE_FINGERPRINT>  (1) 
10967382 1 18410856585467641607
11132069 177 18411414025236608648
12382932 28 18412259549414481458
12423570 1 11826953324678560216
12524768 44 18270686359281666935
13140716 1 18410855421568824362
16945 1 18410855481740382205
193761 8 18266458896197557149
20510252 161 17911794670217499560
20588541 1 18412263917454451349
21501502 16 18411418388722986062
22802520 49 18057338196907142078
2334 1 18410855490261855438
23388829 49 17982440800410033767
23402539 116 18125987283482020255
23463225 33 18408604742899442752
23552423 10 18192152826592563405
23559900 14 18269835321056733182
241688 4 18410011035282432737
2748010 2 18411699876558205494
2897 32 17905610252250039077
34934 24 18410566305765750161
528886 8 18411694404711698737
53812653 166 18343298210406973744
54173680 148 18337955580165124298
7364860 26 17981327012358484089
8809292 202 18263087625737441259

>  <PUBCHEM_SHAPE_MULTIPOLES>  (1) 
286.99
4.2
2.99
0.61
0.76
0.07
0
-1.32
0.14
-0.61
-0.1
-0.07
0
0.07

>  <PUBCHEM_SHAPE_SELFOVERLAP>  (1) 
641.203

>  <PUBCHEM_SHAPE_VOLUME>  (1) 
152

>  <PUBCHEM_COORDINATE_TYPE>  (1) 
2
5
10

$$$$
