29479
     RDKit          3D

 19 19  0  0  0  0  0  0  0  0999 V2000
    1.7195   -3.3296   -2.9094 Cl  0  0  0  0  0  0  0  0  0  0  0  0
    3.2727   -1.8436    3.0677 Cl  0  0  0  0  0  0  0  0  0  0  0  0
   -3.3396   -1.9116    0.8318 O   0  0  0  0  0  0  0  0  0  0  0  0
   -4.7551   -0.1627    0.5087 O   0  0  0  0  0  0  0  0  0  0  0  0
    1.2389   -0.4432   -0.1271 N   0  0  0  0  0  0  0  0  0  0  0  0
   -0.0130    0.2090   -0.1623 C   0  0  0  0  0  0  0  0  0  0  0  0
   -0.1079    1.5514   -0.5293 C   0  0  0  0  0  0  0  0  0  0  0  0
    1.1065    2.3401   -0.8968 C   0  0  0  0  0  0  0  0  0  0  0  0
    1.7457   -1.1194   -1.3035 C   0  0  0  0  0  0  0  0  0  0  0  0
    2.0368   -0.4317    1.0820 C   0  0  0  0  0  0  0  0  0  0  0  0
    1.7396    3.0284    0.3194 C   0  0  0  0  0  0  0  0  0  0  0  0
   -1.1627   -0.5044    0.1764 C   0  0  0  0  0  0  0  0  0  0  0  0
   -1.3527    2.1803   -0.5576 C   0  0  0  0  0  0  0  0  0  0  0  0
   -2.4074    0.1245    0.1481 C   0  0  0  0  0  0  0  0  0  0  0  0
   -2.5025    1.4668   -0.2189 C   0  0  0  0  0  0  0  0  0  0  0  0
    1.1112   -2.4925   -1.4594 C   0  0  0  0  0  0  0  0  0  0  0  0
    2.2833   -1.8447    1.5864 C   0  0  0  0  0  0  0  0  0  0  0  0
    2.9936    3.8014   -0.0564 C   0  0  0  0  0  0  0  0  0  0  0  0
   -3.6069   -0.6185    0.5005 C   0  0  0  0  0  0  0  0  0  0  0  0
  1 16  1  0
  2 17  1  0
  3 19  1  0
  4 19  2  0
  5  6  1  0
  5  9  1  0
  5 10  1  0
  6  7  2  0
  6 12  1  0
  7  8  1  0
  7 13  1  0
  8 11  1  0
  9 16  1  0
 10 17  1  0
 11 18  1  0
 12 14  2  0
 13 15  2  0
 14 15  1  0
 14 19  1  0
M  END
>  <PUBCHEM_COMPOUND_CID>  (1) 
29479

>  <PUBCHEM_CONFORMER_RMSD>  (1) 
0.8

>  <PUBCHEM_CONFORMER_DIVERSEORDER>  (1) 
1
17
32
40
42
20
52
53
13
60
28
24
8
45
61
39
29
59
36
49
23
12
46
18
56
38
7
25
43
50
57
44
51
9
41
48
4
62
11
2
3
16
54
34
47
55
21
35
22
19
33
31
14
58
37
10
27
30
26
15
6
5

>  <PUBCHEM_MMFF94_PARTIAL_CHARGES>  (1) 
21
1 -0.29
10 0.37
12 -0.15
13 -0.15
14 0.09
15 -0.15
16 0.29
17 0.29
19 0.63
2 -0.29
28 0.15
29 0.15
3 -0.65
30 0.15
38 0.5
4 -0.57
5 -0.84
6 0.1
7 -0.14
8 0.14
9 0.37

>  <PUBCHEM_EFFECTIVE_ROTOR_COUNT>  (1) 
8

>  <PUBCHEM_PHARMACOPHORE_FEATURES>  (1) 
6
1 18 hydrophobe
1 3 acceptor
1 4 acceptor
1 5 cation
3 3 4 19 anion
6 6 7 12 13 14 15 rings

>  <PUBCHEM_HEAVY_ATOM_COUNT>  (1) 
19

>  <PUBCHEM_ATOM_DEF_STEREO_COUNT>  (1) 
0

>  <PUBCHEM_ATOM_UDEF_STEREO_COUNT>  (1) 
0

>  <PUBCHEM_BOND_DEF_STEREO_COUNT>  (1) 
0

>  <PUBCHEM_BOND_UDEF_STEREO_COUNT>  (1) 
0

>  <PUBCHEM_ISOTOPIC_ATOM_COUNT>  (1) 
0

>  <PUBCHEM_COMPONENT_COUNT>  (1) 
1

>  <PUBCHEM_CACTVS_TAUTO_COUNT>  (1) 
1

>  <PUBCHEM_CONFORMER_ID>  (1) 
0000732700000001

>  <PUBCHEM_MMFF94_ENERGY>  (1) 
61.6264

>  <PUBCHEM_FEATURE_SELFOVERLAP>  (1) 
30.503

>  <PUBCHEM_SHAPE_FINGERPRINT>  (1) 
10382601 240 18262809595561879009
107951 10 17536611943036024052
10906281 52 17979615858912906932
12553582 1 18189909625620169323
13083527 12 18263902475775668747
13140716 1 18261956254802100745
14022347 108 17760942735622286705
14787075 74 17967255304307455474
14817 1 11271446515464194086
15420108 30 18128249193569696101
16945 1 18188473796008632656
17780758 139 16669887452387599082
20600515 1 17683511849950772460
20645476 183 16450113111956443508
20645477 70 18338804524102095095
20905425 154 18333732403558694052
21524375 3 17977952615404808516
21650355 55 17755557375003692976
232386 152 17823977840285035331
23366157 5 17894351089878455676
23419403 2 16736316860802944098
23557571 272 17836077875859994766
23559900 14 18271534095868772637
2748010 2 17911515402806428335
394222 165 18265898153662511736
43471831 8 17970902491155404576
58807428 26 17901094540931523512
5902787 121 18189332381445738313
59554788 248 18269540784029421364
621550 5 17127348090980922206
7364860 26 18342471364630408125
81228 2 17550100364394945336
84936 31 18060422425638399004
90316 7 17829589683477791688
9841814 1 18260840258693554345

>  <PUBCHEM_SHAPE_MULTIPOLES>  (1) 
378.03
5.8
4.33
2.21
5.35
3.16
-0.24
-2.46
-3.26
-3.91
2.03
-3.23
-2.84
0.67

>  <PUBCHEM_SHAPE_SELFOVERLAP>  (1) 
744.256

>  <PUBCHEM_SHAPE_VOLUME>  (1) 
228.9

>  <PUBCHEM_COORDINATE_TYPE>  (1) 
2
5
10

$$$$
