29482
     RDKit          3D

 12 12  0  0  0  0  0  0  0  0999 V2000
    2.3952   -1.5896    0.0003 O   0  0  0  0  0  0  0  0  0  0  0  0
    0.2617    2.6805    0.0000 O   0  0  0  0  0  0  0  0  0  0  0  0
   -3.4699   -1.8522    0.0002 N   0  0  0  0  0  0  0  0  0  0  0  0
    1.2594   -0.8396    0.0000 C   0  0  0  0  0  0  0  0  0  0  0  0
    0.1796    1.3218   -0.0006 C   0  0  0  0  0  0  0  0  0  0  0  0
    1.3435    0.5528   -0.0003 C   0  0  0  0  0  0  0  0  0  0  0  0
    0.0115   -1.4629    0.0001 C   0  0  0  0  0  0  0  0  0  0  0  0
   -1.0682    0.6982   -0.0006 C   0  0  0  0  0  0  0  0  0  0  0  0
   -1.1522   -0.6941   -0.0001 C   0  0  0  0  0  0  0  0  0  0  0  0
    3.6371   -0.8872    0.0002 C   0  0  0  0  0  0  0  0  0  0  0  0
   -0.9672    3.4052    0.0007 C   0  0  0  0  0  0  0  0  0  0  0  0
   -2.4305   -1.3328    0.0000 C   0  0  0  0  0  0  0  0  0  0  0  0
  1  4  1  0
  1 10  1  0
  2  5  1  0
  2 11  1  0
  3 12  3  0
  4  6  2  0
  4  7  1  0
  5  6  1  0
  5  8  2  0
  7  9  2  0
  8  9  1  0
  9 12  1  0
M  END
>  <PUBCHEM_COMPOUND_CID>  (1) 
29482

>  <PUBCHEM_CONFORMER_RMSD>  (1) 
0.6

>  <PUBCHEM_CONFORMER_DIVERSEORDER>  (1) 
2
3
1

>  <PUBCHEM_MMFF94_PARTIAL_CHARGES>  (1) 
15
1 -0.36
10 0.28
11 0.28
12 0.48
13 0.15
14 0.15
15 0.15
2 -0.36
3 -0.56
4 0.08
5 0.08
6 -0.15
7 -0.15
8 -0.15
9 0.07

>  <PUBCHEM_EFFECTIVE_ROTOR_COUNT>  (1) 
2

>  <PUBCHEM_PHARMACOPHORE_FEATURES>  (1) 
4
1 1 acceptor
1 2 acceptor
1 3 acceptor
6 4 5 6 7 8 9 rings

>  <PUBCHEM_HEAVY_ATOM_COUNT>  (1) 
12

>  <PUBCHEM_ATOM_DEF_STEREO_COUNT>  (1) 
0

>  <PUBCHEM_ATOM_UDEF_STEREO_COUNT>  (1) 
0

>  <PUBCHEM_BOND_DEF_STEREO_COUNT>  (1) 
0

>  <PUBCHEM_BOND_UDEF_STEREO_COUNT>  (1) 
0

>  <PUBCHEM_ISOTOPIC_ATOM_COUNT>  (1) 
0

>  <PUBCHEM_COMPONENT_COUNT>  (1) 
1

>  <PUBCHEM_CACTVS_TAUTO_COUNT>  (1) 
1

>  <PUBCHEM_CONFORMER_ID>  (1) 
0000732A00000002

>  <PUBCHEM_MMFF94_ENERGY>  (1) 
43.4936

>  <PUBCHEM_FEATURE_SELFOVERLAP>  (1) 
20.297

>  <PUBCHEM_SHAPE_FINGERPRINT>  (1) 
1 1 17617659199306959317
13380535 76 17620746189918582302
14648413 74 17903356257808474427
14817 1 13882665083488336069
16945 1 18194402182390476582
19021347 4 17618503181713054345
193761 8 18410575080490061028
20645477 70 17977091685580373279
20711985 344 18265320721057963467
20871998 184 18201717293459000454
20871998 22 18343312456650288982
21040471 1 17617941327192421826
23530152 11 17402051098029057469
23559900 14 17479457838550884814
241688 4 18410856546781307353
2748010 2 18340193163531103613
3071541 12 17978798131388145197
3071541 158 18188766274802053005
3071541 236 17901933154480084200
3071541 250 18338248179090865838
54173680 148 18265895752743864643
68521 5 18410014295167884990
7364860 26 18051694648397415515
81228 2 18265059028605516665

>  <PUBCHEM_SHAPE_MULTIPOLES>  (1) 
230.23
4.11
3.23
0.59
1.79
3.24
0
-3.28
0
-2.11
0
0
0
0

>  <PUBCHEM_SHAPE_SELFOVERLAP>  (1) 
476.667

>  <PUBCHEM_SHAPE_VOLUME>  (1) 
131.1

>  <PUBCHEM_COORDINATE_TYPE>  (1) 
2
5
10

$$$$
