29486
     RDKit          3D

 13 13  0  0  0  0  0  0  0  0999 V2000
    1.5823    2.0628    0.0004 O   0  0  0  0  0  0  0  0  0  0  0  0
   -0.4860    2.7985   -0.0005 O   0  0  0  0  0  0  0  0  0  0  0  0
    2.7222    0.0197    0.0005 O   0  0  0  0  0  0  0  0  0  0  0  0
    2.3195   -2.1382    0.0003 O   0  0  0  0  0  0  0  0  0  0  0  0
   -1.4585    0.1942    0.0001 N   0  0  0  0  0  0  0  0  0  0  0  0
   -0.3587   -1.7352   -0.0006 N   0  0  0  0  0  0  0  0  0  0  0  0
    0.3378    1.8394   -0.0001 N   0  0  0  0  0  0  0  0  0  0  0  0
    1.9053   -0.9443    0.0000 N   0  0  0  0  0  0  0  0  0  0  0  0
   -0.1314    0.5199   -0.0005 C   0  0  0  0  0  0  0  0  0  0  0  0
   -1.5457   -1.1702    0.0002 C   0  0  0  0  0  0  0  0  0  0  0  0
    0.5273   -0.6872   -0.0005 C   0  0  0  0  0  0  0  0  0  0  0  0
   -2.5712    1.1179    0.0007 C   0  0  0  0  0  0  0  0  0  0  0  0
   -2.8428   -1.8773    0.0002 C   0  0  0  0  0  0  0  0  0  0  0  0
  1  7  1  0
  2  7  2  0
  3  8  1  0
  4  8  2  0
  5  9  1  0
  5 10  1  0
  5 12  1  0
  6 10  2  0
  6 11  1  0
  7  9  1  0
  8 11  1  0
  9 11  2  0
 10 13  1  0
M  CHG  4   1  -1   3  -1   7   1   8   1
M  END
>  <PUBCHEM_COMPOUND_CID>  (1) 
29486

>  <PUBCHEM_CONFORMER_RMSD>  (1) 
0.6

>  <PUBCHEM_CONFORMER_DIVERSEORDER>  (1) 
1

>  <PUBCHEM_MMFF94_PARTIAL_CHARGES>  (1) 
13
1 -0.52
10 0.01
11 0.31
12 0.26
13 0.18
2 -0.52
3 -0.52
4 -0.52
5 0.05
6 -0.57
7 0.96
8 0.96
9 -0.07

>  <PUBCHEM_EFFECTIVE_ROTOR_COUNT>  (1) 
2

>  <PUBCHEM_PHARMACOPHORE_FEATURES>  (1) 
8
1 1 acceptor
1 1 anion
1 2 acceptor
1 3 acceptor
1 3 anion
1 4 acceptor
3 5 6 10 cation
5 5 6 9 10 11 rings

>  <PUBCHEM_HEAVY_ATOM_COUNT>  (1) 
13

>  <PUBCHEM_ATOM_DEF_STEREO_COUNT>  (1) 
0

>  <PUBCHEM_ATOM_UDEF_STEREO_COUNT>  (1) 
0

>  <PUBCHEM_BOND_DEF_STEREO_COUNT>  (1) 
0

>  <PUBCHEM_BOND_UDEF_STEREO_COUNT>  (1) 
0

>  <PUBCHEM_ISOTOPIC_ATOM_COUNT>  (1) 
0

>  <PUBCHEM_COMPONENT_COUNT>  (1) 
1

>  <PUBCHEM_CACTVS_TAUTO_COUNT>  (1) 
1

>  <PUBCHEM_CONFORMER_ID>  (1) 
0000732E00000001

>  <PUBCHEM_MMFF94_ENERGY>  (1) 
34.6428

>  <PUBCHEM_FEATURE_SELFOVERLAP>  (1) 
40.843

>  <PUBCHEM_SHAPE_FINGERPRINT>  (1) 
1 1 17689994961112312495
10967382 1 18338233735168525195
12524768 44 18270965617970967246
161256 15 18193278713625073143
16945 1 16032674116597764673
193761 8 18338799017452932901
20645477 70 18123465249070223375
21040471 1 17546164104198203814
21501502 16 18338238283807923501
2334 1 18338516442821987779
23402539 116 17909529689149137343
23552423 10 18264209286674774615
23559900 14 17479175259704314486
241688 4 18410290294119328697
2748010 2 18411416232691445687
66348 1 18411419513946356364

>  <PUBCHEM_SHAPE_MULTIPOLES>  (1) 
224.13
3.57
2.78
0.56
0.44
1.01
0
-1.32
0
-0.36
0
0.07
-0.01
0

>  <PUBCHEM_SHAPE_SELFOVERLAP>  (1) 
469.648

>  <PUBCHEM_SHAPE_VOLUME>  (1) 
126.2

>  <PUBCHEM_COORDINATE_TYPE>  (1) 
2
5
10

$$$$
