29489
     RDKit          3D

 15 15  0  0  0  0  0  0  0  0999 V2000
    1.1809    0.6173    0.9680 O   0  0  0  0  0  0  0  0  0  0  0  0
    1.8784    0.0978   -1.1891 O   0  0  0  0  0  0  0  0  0  0  0  0
    4.6319   -1.7562   -0.1811 O   0  0  0  0  0  0  0  0  0  0  0  0
    3.3717    0.0505    0.5840 N   0  0  0  0  0  0  0  0  0  0  0  0
   -3.2417   -1.1453   -0.1332 C   0  0  0  0  0  0  0  0  0  0  0  0
   -2.2692   -0.0167   -0.0714 C   0  0  0  0  0  0  0  0  0  0  0  0
   -3.5738   -1.7136    1.2596 C   0  0  0  0  0  0  0  0  0  0  0  0
   -2.7689   -2.2805   -1.0611 C   0  0  0  0  0  0  0  0  0  0  0  0
   -0.9836   -0.2303    0.4261 C   0  0  0  0  0  0  0  0  0  0  0  0
   -2.6447    1.2525   -0.5118 C   0  0  0  0  0  0  0  0  0  0  0  0
   -0.0736    0.8254    0.4832 C   0  0  0  0  0  0  0  0  0  0  0  0
   -1.7348    2.3081   -0.4548 C   0  0  0  0  0  0  0  0  0  0  0  0
   -0.4493    2.0945    0.0426 C   0  0  0  0  0  0  0  0  0  0  0  0
    2.1340    0.2388    0.0032 C   0  0  0  0  0  0  0  0  0  0  0  0
    4.5426   -0.3424   -0.1642 C   0  0  0  0  0  0  0  0  0  0  0  0
  1 11  1  0
  1 14  1  0
  2 14  2  0
  3 15  1  0
  4 14  1  0
  4 15  1  0
  5  6  1  0
  5  7  1  0
  5  8  1  0
  6  9  2  0
  6 10  1  0
  9 11  1  0
 10 12  2  0
 11 13  2  0
 12 13  1  0
M  END
>  <PUBCHEM_COMPOUND_CID>  (1) 
29489

>  <PUBCHEM_CONFORMER_RMSD>  (1) 
0.6

>  <PUBCHEM_CONFORMER_DIVERSEORDER>  (1) 
1
153
44
164
148
89
50
97
12
133
41
60
119
158
79
38
28
57
155
43
101
139
95
108
142
20
63
54
39
58
140
45
117
70
56
149
152
93
112
105
106
29
84
98
83
78
115
40
145
99
151
36
100
94
126
59
123
129
113
80
96
144
61
51
103
141
127
69
90
92
5
13
104
162
52
19
34
160
165
159
147
32
26
102
8
110
62
146
24
163
64
116
161
21
157
30
55
135
111
128
136
107
87
18
166
124
143
14
27
134
121
72
76
125
31
114
154
2
130
82
138
75
120
131
3
85
88
81
49
22
67
132
74
17
23
122
68
11
73
66
15
156
137
48
77
53
6
25
46
86
9
35
150
65
33
16
91
47
42
71
109
4
10
37
7
118

>  <PUBCHEM_MMFF94_PARTIAL_CHARGES>  (1) 
19
1 -0.23
10 -0.15
11 0.08
12 -0.15
13 -0.15
14 0.78
15 0.58
2 -0.57
23 0.15
24 0.15
25 0.15
26 0.15
27 0.37
3 -0.68
30 0.4
4 -0.73
5 0.14
6 -0.14
9 -0.15

>  <PUBCHEM_EFFECTIVE_ROTOR_COUNT>  (1) 
5

>  <PUBCHEM_PHARMACOPHORE_FEATURES>  (1) 
6
1 2 acceptor
1 3 acceptor
1 3 donor
1 4 donor
3 5 7 8 hydrophobe
6 6 9 10 11 12 13 rings

>  <PUBCHEM_HEAVY_ATOM_COUNT>  (1) 
15

>  <PUBCHEM_ATOM_DEF_STEREO_COUNT>  (1) 
0

>  <PUBCHEM_ATOM_UDEF_STEREO_COUNT>  (1) 
0

>  <PUBCHEM_BOND_DEF_STEREO_COUNT>  (1) 
0

>  <PUBCHEM_BOND_UDEF_STEREO_COUNT>  (1) 
0

>  <PUBCHEM_ISOTOPIC_ATOM_COUNT>  (1) 
0

>  <PUBCHEM_COMPONENT_COUNT>  (1) 
1

>  <PUBCHEM_CACTVS_TAUTO_COUNT>  (1) 
2

>  <PUBCHEM_CONFORMER_ID>  (1) 
0000733100000001

>  <PUBCHEM_MMFF94_ENERGY>  (1) 
35.3241

>  <PUBCHEM_FEATURE_SELFOVERLAP>  (1) 
30.49

>  <PUBCHEM_SHAPE_FINGERPRINT>  (1) 
11127187 94 18335692837064510301
11543360 7 15068900922791281363
12032990 46 18336548316997726019
12500047 106 18194111915769055796
12532896 13 17482563987987904033
12553582 1 18263352741505618027
13296908 3 18272081712762729304
16945 1 18263349340139445529
17834072 33 18334300864571854028
17870717 6 18197790912072447750
18186145 218 16298386893997265676
19141452 34 18059576931857671519
20281407 28 18272087223010435344
20281475 54 18200877386681196920
20361792 2 18264486372532375951
20645476 183 17531523162445830421
20645477 70 17759504961662053399
20671657 53 17095234865105139908
20871998 22 18193837270059228177
20871999 31 18187353329768052837
21061003 4 17418372506129407360
21499 59 9222688665156903307
21713013 43 16661484185469154643
23402539 116 18040432192212683844
23403322 49 18412261709989103670
23557571 272 18412548673812790420
23559900 14 18341040810583532528
27216 239 9943523046424105759
2748010 2 18119509171783582205
559249 180 18046337536048213826
573450 72 18042391453451313848
58051976 100 18261393299835676684
83771 10 18341615970458894361
9709674 26 18127973005913985558

>  <PUBCHEM_SHAPE_MULTIPOLES>  (1) 
286.1
7.74
2.32
1
9.19
0.23
0.02
-5.28
-0.14
-1.83
-0.36
-0.44
-0.28
0.39

>  <PUBCHEM_SHAPE_SELFOVERLAP>  (1) 
581.667

>  <PUBCHEM_SHAPE_VOLUME>  (1) 
165

>  <PUBCHEM_COORDINATE_TYPE>  (1) 
2
5
10

$$$$
