29485
     RDKit          3D

 12 12  0  0  0  0  0  0  0  0999 V2000
    2.3472    1.0336    0.0007 O   0  0  0  0  0  0  0  0  0  0  0  0
    1.0286    2.7887   -0.0005 O   0  0  0  0  0  0  0  0  0  0  0  0
    2.1354   -1.3344    0.0008 O   0  0  0  0  0  0  0  0  0  0  0  0
    0.5822   -2.8857   -0.0001 O   0  0  0  0  0  0  0  0  0  0  0  0
   -1.2116    1.1760    0.0004 N   0  0  0  0  0  0  0  0  0  0  0  0
   -1.3980   -1.0370   -0.0006 N   0  0  0  0  0  0  0  0  0  0  0  0
    1.1842    1.5326    0.0000 N   0  0  0  0  0  0  0  0  0  0  0  0
    0.9162   -1.6668   -0.0002 N   0  0  0  0  0  0  0  0  0  0  0  0
    0.0666    0.6928   -0.0009 C   0  0  0  0  0  0  0  0  0  0  0  0
   -2.0562    0.1009    0.0007 C   0  0  0  0  0  0  0  0  0  0  0  0
   -0.0742   -0.6751   -0.0010 C   0  0  0  0  0  0  0  0  0  0  0  0
   -3.5205    0.2744    0.0004 C   0  0  0  0  0  0  0  0  0  0  0  0
  1  7  1  0
  2  7  2  0
  3  8  1  0
  4  8  2  0
  5  9  1  0
  5 10  1  0
  6 10  2  0
  6 11  1  0
  7  9  1  0
  8 11  1  0
  9 11  2  0
 10 12  1  0
M  CHG  4   1  -1   3  -1   7   1   8   1
M  END
>  <PUBCHEM_COMPOUND_CID>  (1) 
29485

>  <PUBCHEM_CONFORMER_RMSD>  (1) 
0.6

>  <PUBCHEM_CONFORMER_DIVERSEORDER>  (1) 
1

>  <PUBCHEM_MMFF94_PARTIAL_CHARGES>  (1) 
13
1 -0.52
10 0.01
11 0.31
12 0.18
13 0.27
2 -0.52
3 -0.52
4 -0.52
5 0.03
6 -0.57
7 0.96
8 0.96
9 -0.07

>  <PUBCHEM_EFFECTIVE_ROTOR_COUNT>  (1) 
2

>  <PUBCHEM_PHARMACOPHORE_FEATURES>  (1) 
9
1 1 acceptor
1 1 anion
1 2 acceptor
1 3 acceptor
1 3 anion
1 4 acceptor
1 5 donor
3 5 6 10 cation
5 5 6 9 10 11 rings

>  <PUBCHEM_HEAVY_ATOM_COUNT>  (1) 
12

>  <PUBCHEM_ATOM_DEF_STEREO_COUNT>  (1) 
0

>  <PUBCHEM_ATOM_UDEF_STEREO_COUNT>  (1) 
0

>  <PUBCHEM_BOND_DEF_STEREO_COUNT>  (1) 
0

>  <PUBCHEM_BOND_UDEF_STEREO_COUNT>  (1) 
0

>  <PUBCHEM_ISOTOPIC_ATOM_COUNT>  (1) 
0

>  <PUBCHEM_COMPONENT_COUNT>  (1) 
1

>  <PUBCHEM_CACTVS_TAUTO_COUNT>  (1) 
1

>  <PUBCHEM_CONFORMER_ID>  (1) 
0000732D00000001

>  <PUBCHEM_MMFF94_ENERGY>  (1) 
24.9452

>  <PUBCHEM_FEATURE_SELFOVERLAP>  (1) 
45.904

>  <PUBCHEM_SHAPE_FINGERPRINT>  (1) 
1 1 18338232768827381005
13380535 76 18335977679279860451
14251717 144 18411410718217376711
16945 1 18410855443248998949
193761 8 18050568735664076514
20645477 70 18412257316997254487
20871998 184 16974502131818520684
21040471 1 18050568748380056420
23552423 10 18411697686509889431
23559900 14 15821844952512092390
241688 4 17834114139123050811
2748010 2 18192999437592470767
528862 383 18335693953397245947
81228 2 17257366349971109401

>  <PUBCHEM_SHAPE_MULTIPOLES>  (1) 
203.55
3.47
2.6
0.55
2.51
0.18
0
-0.3
0
-1.83
0
0.06
0
0

>  <PUBCHEM_SHAPE_SELFOVERLAP>  (1) 
427.1

>  <PUBCHEM_SHAPE_VOLUME>  (1) 
114.9

>  <PUBCHEM_COORDINATE_TYPE>  (1) 
2
5
10

$$$$
