29488
     RDKit          3D

 15 15  0  0  0  0  0  0  0  0999 V2000
    1.8087   -0.1970   -0.9670 O   0  0  0  0  0  0  0  0  0  0  0  0
   -3.2986   -1.5264    0.6276 O   0  0  0  0  0  0  0  0  0  0  0  0
    2.3797    0.1007    1.2672 O   0  0  0  0  0  0  0  0  0  0  0  0
    3.9461    0.4265   -0.4129 N   0  0  0  0  0  0  0  0  0  0  0  0
   -2.7376    1.2224    0.0913 C   0  0  0  0  0  0  0  0  0  0  0  0
   -1.7145    0.1433   -0.0414 C   0  0  0  0  0  0  0  0  0  0  0  0
   -3.0230    1.9289   -1.2468 C   0  0  0  0  0  0  0  0  0  0  0  0
   -2.3591    2.2623    1.1621 C   0  0  0  0  0  0  0  0  0  0  0  0
   -2.0403   -1.1851    0.2318 C   0  0  0  0  0  0  0  0  0  0  0  0
   -0.4210    0.4755   -0.4442 C   0  0  0  0  0  0  0  0  0  0  0  0
    0.5467   -0.5207   -0.5737 C   0  0  0  0  0  0  0  0  0  0  0  0
   -1.0726   -2.1813    0.1025 C   0  0  0  0  0  0  0  0  0  0  0  0
    0.2209   -1.8491   -0.3003 C   0  0  0  0  0  0  0  0  0  0  0  0
    2.6968    0.1126    0.0813 C   0  0  0  0  0  0  0  0  0  0  0  0
    5.0678    0.7874    0.4224 C   0  0  0  0  0  0  0  0  0  0  0  0
  1 11  1  0
  1 14  1  0
  2  9  1  0
  3 14  2  0
  4 14  1  0
  4 15  1  0
  5  6  1  0
  5  7  1  0
  5  8  1  0
  6  9  2  0
  6 10  1  0
  9 12  1  0
 10 11  2  0
 11 13  1  0
 12 13  2  0
M  END
>  <PUBCHEM_COMPOUND_CID>  (1) 
29488

>  <PUBCHEM_CONFORMER_RMSD>  (1) 
0.6

>  <PUBCHEM_CONFORMER_DIVERSEORDER>  (1) 
1
33
37
30
10
35
22
23
38
12
39
29
21
24
9
40
36
11
17
18
26
25
14
3
15
32
4
27
31
8
7
16
28
34
2
13
20
19
6
5

>  <PUBCHEM_MMFF94_PARTIAL_CHARGES>  (1) 
18
1 -0.23
10 -0.15
11 0.08
12 -0.15
13 -0.15
14 0.78
15 0.3
2 -0.53
23 0.15
24 0.15
25 0.15
26 0.45
27 0.37
3 -0.57
4 -0.73
5 0.14
6 -0.14
9 0.08

>  <PUBCHEM_EFFECTIVE_ROTOR_COUNT>  (1) 
4

>  <PUBCHEM_PHARMACOPHORE_FEATURES>  (1) 
5
1 2 donor
1 3 acceptor
1 4 donor
3 5 7 8 hydrophobe
6 6 9 10 11 12 13 rings

>  <PUBCHEM_HEAVY_ATOM_COUNT>  (1) 
15

>  <PUBCHEM_ATOM_DEF_STEREO_COUNT>  (1) 
0

>  <PUBCHEM_ATOM_UDEF_STEREO_COUNT>  (1) 
0

>  <PUBCHEM_BOND_DEF_STEREO_COUNT>  (1) 
0

>  <PUBCHEM_BOND_UDEF_STEREO_COUNT>  (1) 
0

>  <PUBCHEM_ISOTOPIC_ATOM_COUNT>  (1) 
0

>  <PUBCHEM_COMPONENT_COUNT>  (1) 
1

>  <PUBCHEM_CACTVS_TAUTO_COUNT>  (1) 
6

>  <PUBCHEM_CONFORMER_ID>  (1) 
0000733000000001

>  <PUBCHEM_MMFF94_ENERGY>  (1) 
37.6062

>  <PUBCHEM_FEATURE_SELFOVERLAP>  (1) 
25.371

>  <PUBCHEM_SHAPE_FINGERPRINT>  (1) 
10608611 8 18272934942565637504
12251169 10 18040437689396432436
124424 183 17846494812536308682
12500047 106 18410003334770119486
13024252 1 13190328080939925503
13140716 1 17977677729134705603
13296909 8 18261391173753070837
13764800 53 18341902857184224857
14614273 12 18261394417102147767
15042514 8 18121787385018903498
15061688 2 17897714384695151293
15219456 202 18201729422699923438
15279308 16 17988650666047932940
15775835 57 18114179700962227808
16945 1 18337120067576948791
1741750 31 18413109429222143480
18186145 218 18270129989439539972
19422 9 17894348899982646250
200 152 15140950811858314130
20112054 60 18343868813902497432
20510252 161 18413112783417625963
20645477 56 18413111684174958276
20645477 70 16629979767540237854
21339142 36 18200867487472565893
21524375 3 18198334074589264095
23402539 116 18339918341976160655
23419403 2 16052626383230287159
23500284 214 18271814475386450593
23557571 272 18130229354034694623
23559900 14 18272656702300804726
2748010 2 18193293913709915503
305870 269 18262235499920397970
3071541 12 17837498448835598959
6333449 129 18413109454960259765
81228 2 18264508311273257947
83771 10 8286187375218261012
84936 182 17764576626116527345
90316 7 17821440249326976276

>  <PUBCHEM_SHAPE_MULTIPOLES>  (1) 
286.1
7.05
2.24
1.02
9.16
0.27
-0.02
-3.54
-0.71
-2.3
-0.23
-0.28
-0.37
0.44

>  <PUBCHEM_SHAPE_SELFOVERLAP>  (1) 
586.286

>  <PUBCHEM_SHAPE_VOLUME>  (1) 
164.4

>  <PUBCHEM_COORDINATE_TYPE>  (1) 
2
5
10

$$$$
