29499
     RDKit          3D

 17 19  0  0  1  0  0  0  0  0999 V2000
   -1.5336    0.2165   -0.3086 N   0  0  0  0  0  0  0  0  0  0  0  0
    2.6263    1.7665    0.6898 N   0  0  0  0  0  0  0  0  0  0  0  0
   -2.8657    0.1991   -0.9430 C   0  0  0  0  0  0  0  0  0  0  0  0
   -3.5935   -1.1102   -0.5827 C   0  0  0  0  0  0  0  0  0  0  0  0
   -1.5803    0.0602    1.1494 C   0  0  0  0  0  0  0  0  0  0  0  0
   -3.6713   -1.3402    0.9237 C   0  0  0  0  0  0  0  0  0  0  0  0
   -2.2852   -1.2366    1.5475 C   0  0  0  0  0  0  0  0  0  0  0  0
   -0.7333    1.3778   -0.6867 C   0  0  0  0  0  0  0  0  0  0  0  0
   -3.7496    1.4200   -0.6439 C   0  0  0  0  0  0  0  0  0  0  0  0
    0.6870    1.2625   -0.2005 C   0  0  0  0  0  0  0  0  0  0  0  0
    1.4950    0.1156   -0.2961 C   0  0  0  0  0  0  0  0  0  0  0  0
    1.3835    2.2629    0.4011 C   0  0  0  0  0  0  0  0  0  0  0  0
    2.7227    0.4572    0.2753 C   0  0  0  0  0  0  0  0  0  0  0  0
    1.3237   -1.1862   -0.8072 C   0  0  0  0  0  0  0  0  0  0  0  0
    3.7917   -0.4417    0.3616 C   0  0  0  0  0  0  0  0  0  0  0  0
    2.3843   -2.0960   -0.7278 C   0  0  0  0  0  0  0  0  0  0  0  0
    3.5984   -1.7274   -0.1520 C   0  0  0  0  0  0  0  0  0  0  0  0
  1  3  1  0
  1  5  1  0
  1  8  1  0
  2 12  1  0
  2 13  1  0
  3  4  1  0
  3  9  1  0
  4  6  1  0
  5  7  1  0
  6  7  1  0
  8 10  1  0
 10 11  1  0
 10 12  2  0
 11 13  2  0
 11 14  1  0
 13 15  1  0
 14 16  2  0
 15 17  2  0
 16 17  1  0
M  END
>  <PUBCHEM_COMPOUND_CID>  (1) 
29499

>  <PUBCHEM_CONFORMER_RMSD>  (1) 
0.6

>  <PUBCHEM_CONFORMER_DIVERSEORDER>  (1) 
6
21
39
1
36
33
2
14
29
37
38
9
25
18
20
35
3
12
28
11
31
5
8
22
23
10
24
13
26
17
30
15
34
7
27
32
4
19
16

>  <PUBCHEM_MMFF94_PARTIAL_CHARGES>  (1) 
18
1 -0.81
10 -0.18
12 -0.3
13 -0.15
14 -0.15
15 -0.15
16 -0.15
17 -0.15
2 0.03
3 0.27
32 0.15
33 0.27
34 0.15
35 0.15
36 0.15
37 0.15
5 0.27
8 0.45

>  <PUBCHEM_EFFECTIVE_ROTOR_COUNT>  (1) 
3.2

>  <PUBCHEM_PHARMACOPHORE_FEATURES>  (1) 
6
1 1 cation
1 2 cation
1 2 donor
5 2 10 11 12 13 rings
6 1 3 4 5 6 7 rings
6 11 13 14 15 16 17 rings

>  <PUBCHEM_HEAVY_ATOM_COUNT>  (1) 
17

>  <PUBCHEM_ATOM_DEF_STEREO_COUNT>  (1) 
0

>  <PUBCHEM_ATOM_UDEF_STEREO_COUNT>  (1) 
1

>  <PUBCHEM_BOND_DEF_STEREO_COUNT>  (1) 
0

>  <PUBCHEM_BOND_UDEF_STEREO_COUNT>  (1) 
0

>  <PUBCHEM_ISOTOPIC_ATOM_COUNT>  (1) 
0

>  <PUBCHEM_COMPONENT_COUNT>  (1) 
1

>  <PUBCHEM_CACTVS_TAUTO_COUNT>  (1) 
1

>  <PUBCHEM_CONFORMER_ID>  (1) 
0000733B00000006

>  <PUBCHEM_MMFF94_ENERGY>  (1) 
25.6473

>  <PUBCHEM_FEATURE_SELFOVERLAP>  (1) 
30.54

>  <PUBCHEM_SHAPE_FINGERPRINT>  (1) 
10922523 26 18334856134564671669
11137873 295 18409735041016495835
11471102 22 18342739628477217334
11543360 7 16733278901675128934
11578080 2 14058657591976168278
11582403 64 16388656858841707533
116883 192 18267302023932021612
12202030 40 18186810192002700531
12363563 72 18337959991312698166
12596599 1 17489595540824834598
13296908 3 18260830414428077431
14115302 16 17749964249336318037
14251745 187 18335695001337624248
14386348 63 18260832600418965435
15219456 202 18408601491472218497
15375358 24 18336539443531936772
15635459 17 18408606967445108523
15653759 3 18186803582116655735
16752209 62 15864613000078110461
16945 1 18272375303868529604
17834072 14 18409443670102754314
18186145 218 17967803921633328061
19049666 15 18334856091483155713
19862831 5 14273458088909857887
200 152 17917983975947101237
20201158 50 18409165476481083678
20279233 1 18334576841025171775
204376 136 17911233146404645720
20645477 70 18342165678943824351
221490 88 18410295813384555270
22721475 48 18335427841650382820
23557571 272 17676759963871904429
23559900 14 18114740431018950186
2748010 2 18334575763046357461
4921388 177 16515981314755034051
5161694 15 18187078421622017479
77492 1 16917068888433121045
81228 2 17907872699456787376
8809292 202 18261392191723668637
9709674 26 18334853965563982479

>  <PUBCHEM_SHAPE_MULTIPOLES>  (1) 
339.89
7.31
2.23
1.14
1.66
0.24
-0.21
-2.35
-0.06
-0.83
-0.01
0.7
-0.23
1.24

>  <PUBCHEM_SHAPE_SELFOVERLAP>  (1) 
729.192

>  <PUBCHEM_SHAPE_VOLUME>  (1) 
188.4

>  <PUBCHEM_COORDINATE_TYPE>  (1) 
2
5
10

$$$$
