29498
     RDKit          3D

 17 19  0  0  0  0  0  0  0  0999 V2000
   -1.5549    0.3396    0.6682 N   0  0  0  0  0  0  0  0  0  0  0  0
    0.7754    0.0820    0.7747 N   0  0  0  0  0  0  0  0  0  0  0  0
    0.6568   -1.1932    1.1527 N   0  0  0  0  0  0  0  0  0  0  0  0
    1.7763   -1.8103    0.7907 N   0  0  0  0  0  0  0  0  0  0  0  0
   -4.0788    0.0466   -0.7945 C   0  0  0  0  0  0  0  0  0  0  0  0
   -2.8210   -0.7503   -1.1566 C   0  0  0  0  0  0  0  0  0  0  0  0
   -4.0261    0.4541    0.6818 C   0  0  0  0  0  0  0  0  0  0  0  0
   -1.5503    0.0054   -0.7623 C   0  0  0  0  0  0  0  0  0  0  0  0
   -2.7157    1.1704    1.0149 C   0  0  0  0  0  0  0  0  0  0  0  0
   -0.3121    1.0156    1.0397 C   0  0  0  0  0  0  0  0  0  0  0  0
   -5.3420   -0.7541   -1.0980 C   0  0  0  0  0  0  0  0  0  0  0  0
    1.9557    0.3435    0.1620 C   0  0  0  0  0  0  0  0  0  0  0  0
    2.5895   -0.8915    0.1816 C   0  0  0  0  0  0  0  0  0  0  0  0
    2.5206    1.4911   -0.3901 C   0  0  0  0  0  0  0  0  0  0  0  0
    3.8690   -1.0190   -0.3785 C   0  0  0  0  0  0  0  0  0  0  0  0
    3.7972    1.3505   -0.9455 C   0  0  0  0  0  0  0  0  0  0  0  0
    4.4606    0.1196   -0.9409 C   0  0  0  0  0  0  0  0  0  0  0  0
  1  8  1  0
  1  9  1  0
  1 10  1  0
  2  3  1  0
  2 10  1  0
  2 12  1  0
  3  4  2  0
  4 13  1  0
  5  6  1  0
  5  7  1  0
  5 11  1  0
  6  8  1  0
  7  9  1  0
 12 13  2  0
 12 14  1  0
 13 15  1  0
 14 16  2  0
 15 17  2  0
 16 17  1  0
M  END
>  <PUBCHEM_COMPOUND_CID>  (1) 
29498

>  <PUBCHEM_CONFORMER_RMSD>  (1) 
0.6

>  <PUBCHEM_CONFORMER_DIVERSEORDER>  (1) 
2
14
17
3
9
7
10
15
8
1
12
11
5
16
4
6
13

>  <PUBCHEM_MMFF94_PARTIAL_CHARGES>  (1) 
17
1 -0.81
10 0.53
12 -0.15
13 0.23
14 -0.15
15 -0.15
16 -0.15
17 -0.15
2 0.31
3 -0.42
32 0.15
33 0.15
34 0.15
35 0.15
4 -0.23
8 0.27
9 0.27

>  <PUBCHEM_EFFECTIVE_ROTOR_COUNT>  (1) 
3.2

>  <PUBCHEM_PHARMACOPHORE_FEATURES>  (1) 
4
1 1 cation
5 2 3 4 12 13 rings
6 1 5 6 7 8 9 rings
6 12 13 14 15 16 17 rings

>  <PUBCHEM_HEAVY_ATOM_COUNT>  (1) 
17

>  <PUBCHEM_ATOM_DEF_STEREO_COUNT>  (1) 
0

>  <PUBCHEM_ATOM_UDEF_STEREO_COUNT>  (1) 
0

>  <PUBCHEM_BOND_DEF_STEREO_COUNT>  (1) 
0

>  <PUBCHEM_BOND_UDEF_STEREO_COUNT>  (1) 
0

>  <PUBCHEM_ISOTOPIC_ATOM_COUNT>  (1) 
0

>  <PUBCHEM_COMPONENT_COUNT>  (1) 
1

>  <PUBCHEM_CACTVS_TAUTO_COUNT>  (1) 
1

>  <PUBCHEM_CONFORMER_ID>  (1) 
0000733A00000002

>  <PUBCHEM_MMFF94_ENERGY>  (1) 
27.3885

>  <PUBCHEM_FEATURE_SELFOVERLAP>  (1) 
20.402

>  <PUBCHEM_SHAPE_FINGERPRINT>  (1) 
10498660 4 15068340094804658765
10646746 165 14345792742845627532
10751810 167 17846500326910306889
11128504 68 18342178894431697269
11132069 177 13262395540675786303
11471102 20 18186524293673924620
11543360 7 18186795898873752959
11615757 297 18407759227053009317
11796584 16 16127266472283057772
12236239 1 18272371953699047748
12251169 10 9151173151409671192
12616999 72 18334285483444939507
12670546 177 18335137613641352823
12730499 353 17385727976247313123
13296908 3 15482664676105822673
13583140 156 16153713171437261264
13675066 3 11959733763484790715
13760787 19 18342176635938152497
14252887 29 12247683747207841300
14576447 43 18343863312175835982
15375358 24 16153423948307431997
15653759 3 15410892950927991921
15885798 251 13470694758335153515
16752209 62 17632003166479255845
17804303 29 16558747923529568241
17834072 33 18411417332577600479
1813 80 10807671016536104960
18186145 218 18186806885157464024
18915474 69 18202845460944824055
19422 9 18273498948785530169
19862831 5 18413671313707190189
200 152 18410856546828883737
20279233 1 16443066084414680897
20281475 54 17846780663609927395
20645477 70 17895470332575245362
20715895 44 10666316646423883119
20871998 22 10159438495857413544
20871999 31 17847064367717109553
22094290 60 17489873726056692313
231179 274 16805324409616998272
23402539 116 18271812289664769612
23402655 69 18336831896477068300
23557571 272 16845288328771346240
23559900 14 16630519639674573896
23598291 2 18268714900478166258
25 1 18113345202086411450
3060560 45 18113898273609972150
3082319 5 18343866614710235440
328317 168 15719387356713535207
351380 180 15140959577812472164
4028521 119 16588021303727238237
42 15 11743842477785539789
465052 167 17417246675759693287
474 4 18263925621555452036
5281201 14 17894911780736426486
57096353 35 18411987961410547789
602551 16 16487248885181990622
633830 44 18189069628326364448
77492 1 18271529706090553232
9981440 41 17263550506262777792

>  <PUBCHEM_SHAPE_MULTIPOLES>  (1) 
329.93
9.98
1.44
1.25
4.76
0.03
-0.01
-1.38
3.84
-0.31
-0.14
-0.02
-0.07
-1.41

>  <PUBCHEM_SHAPE_SELFOVERLAP>  (1) 
701.569

>  <PUBCHEM_SHAPE_VOLUME>  (1) 
181.8

>  <PUBCHEM_COORDINATE_TYPE>  (1) 
2
5
10

$$$$
