29504
     RDKit          3D

 28 30  0  0  0  0  0  0  0  0999 V2000
    5.4237   -0.3315    0.1501 O   0  0  0  0  0  0  0  0  0  0  0  0
    5.5114    1.8393   -0.5615 O   0  0  0  0  0  0  0  0  0  0  0  0
   -5.2775   -2.7713   -0.0185 O   0  0  0  0  0  0  0  0  0  0  0  0
   -6.7383   -0.4222   -0.2821 O   0  0  0  0  0  0  0  0  0  0  0  0
    0.7823    0.9723    0.3548 N   0  0  0  0  0  0  0  0  0  0  0  0
    3.5973    1.0304    0.4758 N   0  0  0  0  0  0  0  0  0  0  0  0
   -1.2341   -0.2680    0.2309 N   0  0  0  0  0  0  0  0  0  0  0  0
   -1.2621    2.1379    0.0996 N   0  0  0  0  0  0  0  0  0  0  0  0
   -3.2905    3.3031   -0.1545 N   0  0  0  0  0  0  0  0  0  0  0  0
    1.5204   -0.2911    0.4918 C   0  0  0  0  0  0  0  0  0  0  0  0
    1.5102    2.0765   -0.2916 C   0  0  0  0  0  0  0  0  0  0  0  0
    2.8763   -0.0474    1.1531 C   0  0  0  0  0  0  0  0  0  0  0  0
    2.8626    2.2879    0.3847 C   0  0  0  0  0  0  0  0  0  0  0  0
   -0.6109    0.9488    0.2245 C   0  0  0  0  0  0  0  0  0  0  0  0
    4.8964    0.9208   -0.0228 C   0  0  0  0  0  0  0  0  0  0  0  0
    7.2014   -1.9686   -0.0717 C   0  0  0  0  0  0  0  0  0  0  0  0
    6.7562   -0.5279   -0.3369 C   0  0  0  0  0  0  0  0  0  0  0  0
   -2.5726   -0.2982    0.1056 C   0  0  0  0  0  0  0  0  0  0  0  0
   -3.3231    0.8813   -0.0285 C   0  0  0  0  0  0  0  0  0  0  0  0
   -2.6011    2.0717   -0.0237 C   0  0  0  0  0  0  0  0  0  0  0  0
    8.6537   -2.1652   -0.5009 C   0  0  0  0  0  0  0  0  0  0  0  0
    6.2949   -2.9727   -0.7870 C   0  0  0  0  0  0  0  0  0  0  0  0
   -3.2601   -1.5095    0.1052 C   0  0  0  0  0  0  0  0  0  0  0  0
   -4.7221    0.8376   -0.1586 C   0  0  0  0  0  0  0  0  0  0  0  0
   -4.6513   -1.5614   -0.0237 C   0  0  0  0  0  0  0  0  0  0  0  0
   -5.3833   -0.3867   -0.1558 C   0  0  0  0  0  0  0  0  0  0  0  0
   -5.6952   -3.2793    1.2470 C   0  0  0  0  0  0  0  0  0  0  0  0
   -7.2649   -0.5068   -1.6052 C   0  0  0  0  0  0  0  0  0  0  0  0
  1 15  1  0
  1 17  1  0
  2 15  2  0
  3 25  1  0
  3 27  1  0
  4 26  1  0
  4 28  1  0
  5 10  1  0
  5 11  1  0
  5 14  1  0
  6 12  1  0
  6 13  1  0
  6 15  1  0
  7 14  2  0
  7 18  1  0
  8 14  1  0
  8 20  2  0
  9 20  1  0
 10 12  1  0
 11 13  1  0
 16 17  1  0
 16 21  1  0
 16 22  1  0
 18 19  2  0
 18 23  1  0
 19 20  1  0
 19 24  1  0
 23 25  2  0
 24 26  2  0
 25 26  1  0
M  END
>  <PUBCHEM_COMPOUND_CID>  (1) 
29504

>  <PUBCHEM_CONFORMER_RMSD>  (1) 
1

>  <PUBCHEM_CONFORMER_DIVERSEORDER>  (1) 
1
28
24
29
31
27
4
23
25
20
7
14
26
9
18
8
16
22
3
12
11
21
34
2
6
17
13
30
15
32
19
33
10
5

>  <PUBCHEM_MMFF94_PARTIAL_CHARGES>  (1) 
28
1 -0.43
10 0.37
11 0.37
12 0.3
13 0.3
14 0.72
15 0.78
17 0.28
18 0.31
2 -0.57
20 0.41
23 -0.15
24 -0.15
25 0.08
26 0.08
27 0.28
28 0.28
3 -0.36
4 -0.36
46 0.15
47 0.15
48 0.4
49 0.4
5 -0.84
6 -0.66
7 -0.62
8 -0.62
9 -0.9

>  <PUBCHEM_EFFECTIVE_ROTOR_COUNT>  (1) 
8.2

>  <PUBCHEM_PHARMACOPHORE_FEATURES>  (1) 
9
1 2 acceptor
1 3 acceptor
1 4 acceptor
1 9 donor
3 16 21 22 hydrophobe
4 5 7 8 14 cation
6 18 19 23 24 25 26 rings
6 5 6 10 11 12 13 rings
6 7 8 14 18 19 20 rings

>  <PUBCHEM_HEAVY_ATOM_COUNT>  (1) 
28

>  <PUBCHEM_ATOM_DEF_STEREO_COUNT>  (1) 
0

>  <PUBCHEM_ATOM_UDEF_STEREO_COUNT>  (1) 
0

>  <PUBCHEM_BOND_DEF_STEREO_COUNT>  (1) 
0

>  <PUBCHEM_BOND_UDEF_STEREO_COUNT>  (1) 
0

>  <PUBCHEM_ISOTOPIC_ATOM_COUNT>  (1) 
0

>  <PUBCHEM_COMPONENT_COUNT>  (1) 
1

>  <PUBCHEM_CACTVS_TAUTO_COUNT>  (1) 
3

>  <PUBCHEM_CONFORMER_ID>  (1) 
0000734000000001

>  <PUBCHEM_MMFF94_ENERGY>  (1) 
104.5838

>  <PUBCHEM_FEATURE_SELFOVERLAP>  (1) 
45.706

>  <PUBCHEM_SHAPE_FINGERPRINT>  (1) 
11524674 6 16558749031320096487
11578080 2 16880176824810807303
11991303 11 14779557807155997418
12760667 363 18272086106825457369
1361 4 18338238275476971434
13685833 64 18343864403677556994
13782708 43 18060419135814691414
13911987 19 14273740642166031136
14211702 104 18201728310588204310
14347332 77 18412827963009661532
14420673 8 18411139134681983627
14556957 393 15357986599284324438
14931854 50 18041271106578494883
15183329 4 18334577902604904146
15352257 5 18342739594360637414
15510800 12 17845665755189495566
17492 89 18338517555155558232
18335252 98 18265337381721420840
18603816 31 17346584297494894759
20105231 36 17894639158436815235
2026 5 18059576824410143574
20721686 56 18272091556807478727
21130935 74 18272090555794436986
21267235 1 18408606959013208713
21623969 137 17346319259437101214
21682296 61 18343588417089003206
23522609 53 18125473948875745256
23559900 14 18265607861592864401
3004659 81 18113890615667556409
335352 9 18336258042862056245
4073 2 18041000695168715227
439807 62 18411704266479077118
465052 167 18273500091858767324
504579 68 18113612365789155630
5080951 261 14907598100705704917
5104073 3 17988647410647813824
5718773 13 18413670206138605270
59755656 215 18335415764281753535

>  <PUBCHEM_SHAPE_MULTIPOLES>  (1) 
527.84
22.68
3.4
0.89
23.53
0.76
0.05
18.62
5.45
-0.19
-0.14
-0.59
0.31
1.61

>  <PUBCHEM_SHAPE_SELFOVERLAP>  (1) 
1109.205

>  <PUBCHEM_SHAPE_VOLUME>  (1) 
297.4

>  <PUBCHEM_COORDINATE_TYPE>  (1) 
2
5
10

$$$$
