29509
     RDKit          3D

 12 12  0  0  0  0  0  0  0  0999 V2000
    1.5724    0.1274    0.3749 C   0  0  0  0  0  0  0  0  0  0  0  0
    0.5311    0.8250   -0.5342 C   0  0  0  0  0  0  0  0  0  0  0  0
    1.8756   -1.3256   -0.0574 C   0  0  0  0  0  0  0  0  0  0  0  0
    2.8315    1.0182    0.4662 C   0  0  0  0  0  0  0  0  0  0  0  0
   -0.8978    0.4134   -0.2737 C   0  0  0  0  0  0  0  0  0  0  0  0
    2.8616   -2.0768    0.8267 C   0  0  0  0  0  0  0  0  0  0  0  0
    3.5505    1.2093   -0.8616 C   0  0  0  0  0  0  0  0  0  0  0  0
   -1.4316   -0.6625   -0.9653 C   0  0  0  0  0  0  0  0  0  0  0  0
   -1.6501    1.1188    0.6521 C   0  0  0  0  0  0  0  0  0  0  0  0
   -2.7518   -1.0429   -0.7247 C   0  0  0  0  0  0  0  0  0  0  0  0
   -2.9704    0.7383    0.8926 C   0  0  0  0  0  0  0  0  0  0  0  0
   -3.5212   -0.3426    0.2043 C   0  0  0  0  0  0  0  0  0  0  0  0
  1  2  1  0
  1  3  1  0
  1  4  1  0
  2  5  1  0
  3  6  1  0
  4  7  1  0
  5  8  2  0
  5  9  1  0
  8 10  1  0
  9 11  2  0
 10 12  2  0
 11 12  1  0
M  END
>  <PUBCHEM_COMPOUND_CID>  (1) 
29509

>  <PUBCHEM_CONFORMER_RMSD>  (1) 
0.6

>  <PUBCHEM_CONFORMER_DIVERSEORDER>  (1) 
2
8
10
4
14
1
12
6
5
13
3
11
7
9

>  <PUBCHEM_MMFF94_PARTIAL_CHARGES>  (1) 
12
10 -0.15
11 -0.15
12 -0.15
2 0.14
26 0.15
27 0.15
28 0.15
29 0.15
30 0.15
5 -0.14
8 -0.15
9 -0.15

>  <PUBCHEM_EFFECTIVE_ROTOR_COUNT>  (1) 
4

>  <PUBCHEM_PHARMACOPHORE_FEATURES>  (1) 
4
1 6 hydrophobe
1 7 hydrophobe
4 1 2 3 4 hydrophobe
6 5 8 9 10 11 12 rings

>  <PUBCHEM_HEAVY_ATOM_COUNT>  (1) 
12

>  <PUBCHEM_ATOM_DEF_STEREO_COUNT>  (1) 
0

>  <PUBCHEM_ATOM_UDEF_STEREO_COUNT>  (1) 
0

>  <PUBCHEM_BOND_DEF_STEREO_COUNT>  (1) 
0

>  <PUBCHEM_BOND_UDEF_STEREO_COUNT>  (1) 
0

>  <PUBCHEM_ISOTOPIC_ATOM_COUNT>  (1) 
0

>  <PUBCHEM_COMPONENT_COUNT>  (1) 
1

>  <PUBCHEM_CACTVS_TAUTO_COUNT>  (1) 
1

>  <PUBCHEM_CONFORMER_ID>  (1) 
0000734500000002

>  <PUBCHEM_MMFF94_ENERGY>  (1) 
22.9624

>  <PUBCHEM_FEATURE_SELFOVERLAP>  (1) 
20.354

>  <PUBCHEM_SHAPE_FINGERPRINT>  (1) 
107287 299 17894638075693222328
10857977 72 16486971830137960305
12251169 10 18200870660767933050
12346645 44 18271243923662610024
12932764 1 18273492381564549065
13296908 3 17749103357622879215
14144814 61 18131632283384236873
15076042 46 17988364750164663473
15279307 12 18412263977658093574
15375462 189 18343024419005202569
15669948 3 17774717649407733199
15775835 57 18201445778447976609
16945 1 18337663238873350765
19422 9 18413110537002127834
201361 129 18412833481947717480
20279233 1 16298382474480972129
204376 136 17897168142343839684
20559304 39 18130784530070722018
20645464 45 14979660088014751071
20645477 70 18260818264039943975
20653085 51 10879996852450432003
20711985 365 18193270793579110013
21499 59 17970072347328849652
21501502 16 18341612581524014842
21730867 7 18040152920501487534
22445834 79 18413388739414050123
2255824 54 18261115145454605418
23402539 116 13118547619756325683
23463225 33 18341611464848511054
23552423 10 18336542729124090830
23598291 2 18268997500926244910
23598294 1 17918278662232794915
3248919 1 17603588534083994921
3312278 4 18268710678884231191
369184 2 18343298159099260081
57812782 119 13479123631526777412
581208 293 18260544545889694626
8030462 33 18271801349887032269
81228 2 14402895977960705773

>  <PUBCHEM_SHAPE_MULTIPOLES>  (1) 
246.95
6.4
1.69
1.02
0.22
0.62
0.03
0.11
-0.39
1.36
-0.2
-0.04
0.01
-1.09

>  <PUBCHEM_SHAPE_SELFOVERLAP>  (1) 
488.434

>  <PUBCHEM_SHAPE_VOLUME>  (1) 
144.5

>  <PUBCHEM_COORDINATE_TYPE>  (1) 
2
5
10

$$$$
