29502
     RDKit          3D

 15 17  0  0  0  0  0  0  0  0999 V2000
   -1.9952    0.3843   -0.2085 N   0  0  0  0  0  0  0  0  0  0  0  0
    0.1201   -0.4752   -0.7250 N   0  0  0  0  0  0  0  0  0  0  0  0
    0.2179   -1.7938   -0.5379 N   0  0  0  0  0  0  0  0  0  0  0  0
    1.4113   -2.0210    0.0003 N   0  0  0  0  0  0  0  0  0  0  0  0
   -3.2483    0.9871   -0.6624 C   0  0  0  0  0  0  0  0  0  0  0  0
   -2.3955   -0.8121    0.5313 C   0  0  0  0  0  0  0  0  0  0  0  0
   -4.1523    0.8519    0.5541 C   0  0  0  0  0  0  0  0  0  0  0  0
   -3.5897   -0.3283    1.3404 C   0  0  0  0  0  0  0  0  0  0  0  0
   -1.0936    0.0809   -1.3099 C   0  0  0  0  0  0  0  0  0  0  0  0
    1.2255    0.1985   -0.3236 C   0  0  0  0  0  0  0  0  0  0  0  0
    2.0491   -0.8170    0.1424 C   0  0  0  0  0  0  0  0  0  0  0  0
    1.5833    1.5450   -0.3175 C   0  0  0  0  0  0  0  0  0  0  0  0
    3.3161   -0.4984    0.6524 C   0  0  0  0  0  0  0  0  0  0  0  0
    2.8497    1.8497    0.1938 C   0  0  0  0  0  0  0  0  0  0  0  0
    3.7016    0.8485    0.6701 C   0  0  0  0  0  0  0  0  0  0  0  0
  1  5  1  0
  1  6  1  0
  1  9  1  0
  2  3  1  0
  2  9  1  0
  2 10  1  0
  3  4  2  0
  4 11  1  0
  5  7  1  0
  6  8  1  0
  7  8  1  0
 10 11  2  0
 10 12  1  0
 11 13  1  0
 12 14  2  0
 13 15  2  0
 14 15  1  0
M  END
>  <PUBCHEM_COMPOUND_CID>  (1) 
29502

>  <PUBCHEM_CONFORMER_RMSD>  (1) 
0.6

>  <PUBCHEM_CONFORMER_DIVERSEORDER>  (1) 
1
7
5
6
3
8
4
2

>  <PUBCHEM_MMFF94_PARTIAL_CHARGES>  (1) 
17
1 -0.81
10 -0.15
11 0.23
12 -0.15
13 -0.15
14 -0.15
15 -0.15
2 0.31
26 0.15
27 0.15
28 0.15
29 0.15
3 -0.42
4 -0.23
5 0.27
6 0.27
9 0.53

>  <PUBCHEM_EFFECTIVE_ROTOR_COUNT>  (1) 
3

>  <PUBCHEM_PHARMACOPHORE_FEATURES>  (1) 
4
1 1 cation
5 1 5 6 7 8 rings
5 2 3 4 10 11 rings
6 10 11 12 13 14 15 rings

>  <PUBCHEM_HEAVY_ATOM_COUNT>  (1) 
15

>  <PUBCHEM_ATOM_DEF_STEREO_COUNT>  (1) 
0

>  <PUBCHEM_ATOM_UDEF_STEREO_COUNT>  (1) 
0

>  <PUBCHEM_BOND_DEF_STEREO_COUNT>  (1) 
0

>  <PUBCHEM_BOND_UDEF_STEREO_COUNT>  (1) 
0

>  <PUBCHEM_ISOTOPIC_ATOM_COUNT>  (1) 
0

>  <PUBCHEM_COMPONENT_COUNT>  (1) 
1

>  <PUBCHEM_CACTVS_TAUTO_COUNT>  (1) 
1

>  <PUBCHEM_CONFORMER_ID>  (1) 
0000733E00000001

>  <PUBCHEM_MMFF94_ENERGY>  (1) 
26.3441

>  <PUBCHEM_FEATURE_SELFOVERLAP>  (1) 
20.402

>  <PUBCHEM_SHAPE_FINGERPRINT>  (1) 
10465860 228 18201727206169393464
10498660 4 14764075493688622395
10608611 8 18334854970533829237
10980938 120 18412823586121242036
11471102 22 18334016077257479568
12251169 10 18187083983409493219
12382932 28 18407762542825667257
12390115 104 17835528494088972576
12633257 1 18113333102778625145
12696612 119 18260269684867409372
13693222 15 18113903801121884825
13705890 14 9439402428186911652
15219456 202 18261110751317640933
15309172 13 18411696608051176470
15653759 3 17603584114662841641
15775835 57 17775563152190130817
16945 1 18338783560108150038
17844478 74 17822282479438889140
18175812 5 18040714770679420229
18186145 218 18060144257997353228
19049666 15 17753322076528055773
200 152 18271231816534775519
20279233 1 17967813825896282839
21065199 12 18187367627513688641
21524375 3 18130220574778533326
21730867 7 18408327670037402728
21731228 192 18338796818208287322
22169311 14 18040152894578696593
22854114 111 18412825789265625328
22854114 59 18410293627198631345
232386 152 15285366136638532505
23557571 272 13973097943783440589
251288 83 17313673770637771217
2748010 2 17907276777355523918
276578 36 18272937137114467288
4028521 119 13830138252424026849
7364860 26 18129667387433702790
77492 1 17489294279049296287
81228 2 17544741787345155806
9882013 296 17968662747251037257

>  <PUBCHEM_SHAPE_MULTIPOLES>  (1) 
288.77
7.24
1.71
1.04
3.3
0.17
0.01
-2.14
2.62
-0.98
-0.07
0.56
0.01
0.32

>  <PUBCHEM_SHAPE_SELFOVERLAP>  (1) 
623.476

>  <PUBCHEM_SHAPE_VOLUME>  (1) 
161.1

>  <PUBCHEM_COORDINATE_TYPE>  (1) 
2
5
10

$$$$
