29500
     RDKit          3D

 17 19  0  0  1  0  0  0  0  0999 V2000
   -1.7166    0.0550    0.4223 N   0  0  0  0  0  0  0  0  0  0  0  0
    2.1013    1.9148    0.4540 N   0  0  0  0  0  0  0  0  0  0  0  0
   -4.1929   -0.0261    0.2628 C   0  0  0  0  0  0  0  0  0  0  0  0
   -2.9198   -0.7022    0.7990 C   0  0  0  0  0  0  0  0  0  0  0  0
   -4.1076    0.1559   -1.2565 C   0  0  0  0  0  0  0  0  0  0  0  0
   -2.8144    0.8687   -1.6374 C   0  0  0  0  0  0  0  0  0  0  0  0
   -1.5956    0.1680   -1.0373 C   0  0  0  0  0  0  0  0  0  0  0  0
   -0.5208   -0.5696    0.9878 C   0  0  0  0  0  0  0  0  0  0  0  0
   -5.4346   -0.8318    0.6406 C   0  0  0  0  0  0  0  0  0  0  0  0
    0.7218    0.2271    0.6911 C   0  0  0  0  0  0  0  0  0  0  0  0
    1.9467   -0.3010    0.2461 C   0  0  0  0  0  0  0  0  0  0  0  0
    0.8246    1.5769    0.8151 C   0  0  0  0  0  0  0  0  0  0  0  0
    2.8092    0.7879    0.1018 C   0  0  0  0  0  0  0  0  0  0  0  0
    2.4274   -1.5912   -0.0537 C   0  0  0  0  0  0  0  0  0  0  0  0
    4.1336    0.6504   -0.3290 C   0  0  0  0  0  0  0  0  0  0  0  0
    3.7498   -1.7439   -0.4858 C   0  0  0  0  0  0  0  0  0  0  0  0
    4.5880   -0.6388   -0.6206 C   0  0  0  0  0  0  0  0  0  0  0  0
  1  4  1  0
  1  7  1  0
  1  8  1  0
  2 12  1  0
  2 13  1  0
  3  4  1  0
  3  5  1  0
  3  9  1  0
  5  6  1  0
  6  7  1  0
  8 10  1  0
 10 11  1  0
 10 12  2  0
 11 13  2  0
 11 14  1  0
 13 15  1  0
 14 16  2  0
 15 17  2  0
 16 17  1  0
M  END
>  <PUBCHEM_COMPOUND_CID>  (1) 
29500

>  <PUBCHEM_CONFORMER_RMSD>  (1) 
0.6

>  <PUBCHEM_CONFORMER_DIVERSEORDER>  (1) 
1
13
7
16
28
29
2
11
24
18
17
3
4
6
27
19
21
20
14
22
25
8
5
15
26
10
9
23
12

>  <PUBCHEM_MMFF94_PARTIAL_CHARGES>  (1) 
18
1 -0.81
10 -0.18
12 -0.3
13 -0.15
14 -0.15
15 -0.15
16 -0.15
17 -0.15
2 0.03
32 0.15
33 0.27
34 0.15
35 0.15
36 0.15
37 0.15
4 0.27
7 0.27
8 0.45

>  <PUBCHEM_EFFECTIVE_ROTOR_COUNT>  (1) 
3.2

>  <PUBCHEM_PHARMACOPHORE_FEATURES>  (1) 
6
1 1 cation
1 2 cation
1 2 donor
5 2 10 11 12 13 rings
6 1 3 4 5 6 7 rings
6 11 13 14 15 16 17 rings

>  <PUBCHEM_HEAVY_ATOM_COUNT>  (1) 
17

>  <PUBCHEM_ATOM_DEF_STEREO_COUNT>  (1) 
0

>  <PUBCHEM_ATOM_UDEF_STEREO_COUNT>  (1) 
1

>  <PUBCHEM_BOND_DEF_STEREO_COUNT>  (1) 
0

>  <PUBCHEM_BOND_UDEF_STEREO_COUNT>  (1) 
0

>  <PUBCHEM_ISOTOPIC_ATOM_COUNT>  (1) 
0

>  <PUBCHEM_COMPONENT_COUNT>  (1) 
1

>  <PUBCHEM_CACTVS_TAUTO_COUNT>  (1) 
1

>  <PUBCHEM_CONFORMER_ID>  (1) 
0000733C00000001

>  <PUBCHEM_MMFF94_ENERGY>  (1) 
25.7898

>  <PUBCHEM_FEATURE_SELFOVERLAP>  (1) 
30.54

>  <PUBCHEM_SHAPE_FINGERPRINT>  (1) 
10062212 137 16415190196428373823
10498660 4 16732972094844072277
11471102 20 18412828001627223184
11552529 35 17915180350520584551
12186901 62 17458340815199149903
12236239 1 17060342928564967427
12553582 1 17846493708313027846
12616999 72 18335143090035780982
12730499 353 18261117408295566394
128620 24 15574714694698936615
12916748 109 16587747537831695312
13134695 92 18131064944243777744
13675066 3 16559031580138798459
13760787 5 17775281677419064021
14350574 20 18408328795556360555
15375462 189 17489586744952942202
15961568 22 16734114624885878316
1813 80 17560533815288681876
18186145 218 18259982660914200049
19433438 38 18114178605845833014
200 152 18131634469395944754
20645477 70 18341337721182484082
21267235 1 18201732721445777054
22094290 60 17458065945734310903
221357 26 18409724046053471757
2255824 54 17631726196696762280
22646028 1 16989122054444091399
22646028 28 16988839488355809703
232386 152 15410603817908612933
23402539 116 17917713465716065592
23402655 69 18411417297737943980
23557571 272 17676489453587796173
23559900 14 17458617870201079002
2838139 119 16444208584992537948
3268164 11 16805594889678086543
3323516 105 18334857216485109955
351380 3 17418377982207441414
46194498 28 18041286551138434588
465052 167 17918000511703456063
474 4 17200773778041934904
4990 188 18113616776646630986
522135 26 18343866623342277226
5281201 14 18186523193724570828
573450 72 15697997444648103375
5924683 9 10807632507843855421
7495541 125 18260271879579827682
77492 1 17060340742368565465

>  <PUBCHEM_SHAPE_MULTIPOLES>  (1) 
339.89
10.28
1.5
1.19
5.06
0.06
0.28
-2.42
1.63
-1.29
-0.09
0.9
0.16
1.11

>  <PUBCHEM_SHAPE_SELFOVERLAP>  (1) 
728.303

>  <PUBCHEM_SHAPE_VOLUME>  (1) 
187.3

>  <PUBCHEM_COORDINATE_TYPE>  (1) 
2
5
10

$$$$
