29511
     RDKit          3D

 22 23  0  0  0  0  0  0  0  0999 V2000
   -3.0484   -0.2076   -0.0048 O   0  0  0  0  0  0  0  0  0  0  0  0
    3.0483    0.2077   -0.0117 O   0  0  0  0  0  0  0  0  0  0  0  0
   -4.0454   -2.2823    0.0265 O   0  0  0  0  0  0  0  0  0  0  0  0
    4.0454    2.2822    0.0273 O   0  0  0  0  0  0  0  0  0  0  0  0
   -0.7058    0.2883   -0.0214 C   0  0  0  0  0  0  0  0  0  0  0  0
    0.7057   -0.2880   -0.0360 C   0  0  0  0  0  0  0  0  0  0  0  0
   -1.7607   -0.8086   -0.0026 C   0  0  0  0  0  0  0  0  0  0  0  0
    1.7608    0.8086   -0.0116 C   0  0  0  0  0  0  0  0  0  0  0  0
   -4.1082   -1.0628    0.0110 C   0  0  0  0  0  0  0  0  0  0  0  0
    4.1083    1.0628    0.0090 C   0  0  0  0  0  0  0  0  0  0  0  0
   -5.3901   -0.3135    0.0055 C   0  0  0  0  0  0  0  0  0  0  0  0
    5.3901    0.3134    0.0051 C   0  0  0  0  0  0  0  0  0  0  0  0
   -6.4956   -0.8878   -0.5877 C   0  0  0  0  0  0  0  0  0  0  0  0
    6.4973    0.8892   -0.5836 C   0  0  0  0  0  0  0  0  0  0  0  0
   -5.4361    0.9338    0.5940 C   0  0  0  0  0  0  0  0  0  0  0  0
    5.4345   -0.9352    0.5906 C   0  0  0  0  0  0  0  0  0  0  0  0
   -7.7000   -0.1841   -0.5928 C   0  0  0  0  0  0  0  0  0  0  0  0
    7.7016    0.1855   -0.5872 C   0  0  0  0  0  0  0  0  0  0  0  0
   -6.6405    1.6373    0.5891 C   0  0  0  0  0  0  0  0  0  0  0  0
    6.6389   -1.6389    0.5872 C   0  0  0  0  0  0  0  0  0  0  0  0
   -7.7724    1.0784   -0.0043 C   0  0  0  0  0  0  0  0  0  0  0  0
    7.7724   -1.0784   -0.0018 C   0  0  0  0  0  0  0  0  0  0  0  0
  1  7  1  0
  1  9  1  0
  2  8  1  0
  2 10  1  0
  3  9  2  0
  4 10  2  0
  5  6  1  0
  5  7  1  0
  6  8  1  0
  9 11  1  0
 10 12  1  0
 11 13  2  0
 11 15  1  0
 12 14  2  0
 12 16  1  0
 13 17  1  0
 14 18  1  0
 15 19  2  0
 16 20  2  0
 17 21  2  0
 18 22  2  0
 19 21  1  0
 20 22  1  0
M  END
>  <PUBCHEM_COMPOUND_CID>  (1) 
29511

>  <PUBCHEM_CONFORMER_RMSD>  (1) 
0.8

>  <PUBCHEM_CONFORMER_DIVERSEORDER>  (1) 
1
131
208
359
421
397
8
136
11
42
341
189
10
149
5
98
26
4
125
17
89
192
75
412
21
68
22
173
129
395
142
114
340
145
187
170
13
116
133
258
97
48
389
154
3
108
24
266
362
111
25
87
295
267
190
81
328
314
105
53
29
86
329
391
171
56
209
2
49
269
185
74
232
399
286
217
141
127
249
169
417
104
416
83
411
213
372
408
407
64
257
338
383
119
242
414
197
6
120
126
151
27
230
58
167
214
324
377
221
95
400
201
174
256
186
80
344
20
132
281
115
212
220
265
199
193
226
294
237
325
353
238
248
376
405
162
203
276
289
260
182
60
348
275
155
157
351
342
263
319
347
379
316
69
356
46
76
251
9
367
350
331
368
140
224
268
244
66
110
117
283
246
402
44
207
84
135
164
308
99
92
234
273
233
210
45
357
202
296
333
138
321
37
243
218
139
406
334
28
124
261
236
77
78
313
403
284
196
239
106
100
225
228
113
425
332
219
361
227
404
290
59
297
216
14
274
280
52
90
250
32
118
272
364
253
38
318
424
381
380
310
386
161
159
322
345
19
401
47
426
137
375
168
255
346
371
51
390
387
163
300
34
231
67
360
103
252
130
336
39
188
121
287
93
147
410
166
385
54
349
282
413
418
392
30
415
158
178
55
206
91
302
112
43
327
50
82
293
355
79
40
394
94
354
307
382
72
223
365
16
262
288
160
279
107
123
143
245
215
330
422
35
96
264
240
320
309
134
211
101
388
62
172
369
205
36
301
370
366
180
70
198
285
41
374
128
71
12
373
343
177
419
277
363
299
85
200
146
150
398
57
326
73
270
339
18
183
204
304
303
271
337
352
222
306
23
144
229
181
63
156
378
153
122
175
315
254
312
176
409
235
335
65
323
148
191
33
278
420
7
152
247
195
393
396
241
61
384
184
358
291
317
194
31
102
423
165
259
305
88
15
311
179
109
292
298

>  <PUBCHEM_MMFF94_PARTIAL_CHARGES>  (1) 
30
1 -0.43
10 0.63
11 0.09
12 0.09
13 -0.15
14 -0.15
15 -0.15
16 -0.15
17 -0.15
18 -0.15
19 -0.15
2 -0.43
20 -0.15
21 -0.15
22 -0.15
3 -0.57
31 0.15
32 0.15
33 0.15
34 0.15
35 0.15
36 0.15
37 0.15
38 0.15
39 0.15
4 -0.57
40 0.15
7 0.28
8 0.28
9 0.63

>  <PUBCHEM_EFFECTIVE_ROTOR_COUNT>  (1) 
9

>  <PUBCHEM_PHARMACOPHORE_FEATURES>  (1) 
4
1 3 acceptor
1 4 acceptor
6 11 13 15 17 19 21 rings
6 12 14 16 18 20 22 rings

>  <PUBCHEM_HEAVY_ATOM_COUNT>  (1) 
22

>  <PUBCHEM_ATOM_DEF_STEREO_COUNT>  (1) 
0

>  <PUBCHEM_ATOM_UDEF_STEREO_COUNT>  (1) 
0

>  <PUBCHEM_BOND_DEF_STEREO_COUNT>  (1) 
0

>  <PUBCHEM_BOND_UDEF_STEREO_COUNT>  (1) 
0

>  <PUBCHEM_ISOTOPIC_ATOM_COUNT>  (1) 
0

>  <PUBCHEM_COMPONENT_COUNT>  (1) 
1

>  <PUBCHEM_CACTVS_TAUTO_COUNT>  (1) 
1

>  <PUBCHEM_CONFORMER_ID>  (1) 
0000734700000001

>  <PUBCHEM_MMFF94_ENERGY>  (1) 
54.5793

>  <PUBCHEM_FEATURE_SELFOVERLAP>  (1) 
20.298

>  <PUBCHEM_SHAPE_FINGERPRINT>  (1) 
100830 39 18338798914617019065
10299344 5 18335138687240595778
10319688 140 16879054262315470762
10666366 153 17846227618436731788
10670039 82 18272086068529948625
11315181 36 17632581574167655867
11524674 6 17203326736572515823
11719270 70 17775568624358631990
12091667 2 18272371993034254823
12516196 113 8790889583472105423
12592606 108 18413105078162115167
13533116 47 17822000978903280802
13885169 127 18342175548905433041
13914758 101 18341897363783935729
13968360 50 16773802471778639975
14251752 14 18272651242542712201
14251764 18 18410855455833194532
14251764 46 18410855460128161798
14347424 109 18342451565622470872
14461889 52 10231750094182236004
14671636 106 11675179085323939177
14933364 13 18259984881333281060
15183329 4 18410292505885048363
15419008 47 15357692002628357311
15461852 350 17775565373342214695
195137 175 18409176527680233036
20281389 69 18335136501429659997
20621476 8 18260545606678142493
21315763 28 18341330076414568621
220451 1 16153699955374154330
23081809 10 18338797926235620197
232437 2 18411136953572112527
2835820 82 17897156924174898962
28498 318 18410573964093495686
3004659 81 18409164428925892656
4073 2 18041283282869165506
4339292 15 16271631400687541903
59682541 35 9295280642772173334
59755656 520 18186516627268642875
6394761 36 18410293601106996452
8209 1 18412545414085177724

>  <PUBCHEM_SHAPE_MULTIPOLES>  (1) 
429.27
29.69
1.68
0.73
0.01
0
0
0
1.49
0
-0.14
-0.01
0
-1.3

>  <PUBCHEM_SHAPE_SELFOVERLAP>  (1) 
902.293

>  <PUBCHEM_SHAPE_VOLUME>  (1) 
240.4

>  <PUBCHEM_COORDINATE_TYPE>  (1) 
2
5
10

$$$$
