29527
     RDKit          3D

 14 14  0  0  0  0  0  0  0  0999 V2000
    3.1761   -1.3533   -0.3112 O   0  0  0  0  0  0  0  0  0  0  0  0
    3.7402    1.3507   -0.0070 O   0  0  0  0  0  0  0  0  0  0  0  0
   -4.2361   -1.3100   -0.4158 O   0  0  0  0  0  0  0  0  0  0  0  0
   -4.9260    0.6487    0.5732 N   0  0  0  0  0  0  0  0  0  0  0  0
   -0.1981    0.0481   -0.1899 C   0  0  0  0  0  0  0  0  0  0  0  0
    2.1675   -0.4421   -0.2211 C   0  0  0  0  0  0  0  0  0  0  0  0
    0.8431   -0.8754   -0.2824 C   0  0  0  0  0  0  0  0  0  0  0  0
    0.0852    1.4053   -0.0358 C   0  0  0  0  0  0  0  0  0  0  0  0
    2.4508    0.9150   -0.0670 C   0  0  0  0  0  0  0  0  0  0  0  0
    1.4098    1.8386    0.0258 C   0  0  0  0  0  0  0  0  0  0  0  0
   -1.5790   -0.4037   -0.2543 C   0  0  0  0  0  0  0  0  0  0  0  0
   -2.5966    0.3220    0.2010 C   0  0  0  0  0  0  0  0  0  0  0  0
    3.6419   -1.9273    0.9085 C   0  0  0  0  0  0  0  0  0  0  0  0
   -3.9788   -0.2166    0.0757 C   0  0  0  0  0  0  0  0  0  0  0  0
  1  6  1  0
  1 13  1  0
  2  9  1  0
  3 14  2  0
  4 14  1  0
  5  7  2  0
  5  8  1  0
  5 11  1  0
  6  7  1  0
  6  9  2  0
  8 10  2  0
  9 10  1  0
 11 12  2  0
 12 14  1  0
M  END
>  <PUBCHEM_COMPOUND_CID>  (1) 
29527

>  <PUBCHEM_CONFORMER_RMSD>  (1) 
0.6

>  <PUBCHEM_CONFORMER_DIVERSEORDER>  (1) 
3
4
6
8
5
7
1
2

>  <PUBCHEM_MMFF94_PARTIAL_CHARGES>  (1) 
22
1 -0.36
10 -0.15
11 -0.18
12 -0.14
13 0.28
14 0.62
15 0.15
16 0.15
17 0.15
18 0.15
19 0.15
2 -0.53
23 0.45
24 0.37
25 0.37
3 -0.57
4 -0.8
5 0.03
6 0.08
7 -0.15
8 -0.15
9 0.08

>  <PUBCHEM_EFFECTIVE_ROTOR_COUNT>  (1) 
3

>  <PUBCHEM_PHARMACOPHORE_FEATURES>  (1) 
5
1 1 acceptor
1 2 donor
1 3 acceptor
1 4 donor
6 5 6 7 8 9 10 rings

>  <PUBCHEM_HEAVY_ATOM_COUNT>  (1) 
14

>  <PUBCHEM_ATOM_DEF_STEREO_COUNT>  (1) 
0

>  <PUBCHEM_ATOM_UDEF_STEREO_COUNT>  (1) 
0

>  <PUBCHEM_BOND_DEF_STEREO_COUNT>  (1) 
0

>  <PUBCHEM_BOND_UDEF_STEREO_COUNT>  (1) 
1

>  <PUBCHEM_ISOTOPIC_ATOM_COUNT>  (1) 
0

>  <PUBCHEM_COMPONENT_COUNT>  (1) 
1

>  <PUBCHEM_CACTVS_TAUTO_COUNT>  (1) 
6

>  <PUBCHEM_CONFORMER_ID>  (1) 
0000735700000003

>  <PUBCHEM_MMFF94_ENERGY>  (1) 
47.206

>  <PUBCHEM_FEATURE_SELFOVERLAP>  (1) 
25.371

>  <PUBCHEM_SHAPE_FINGERPRINT>  (1) 
10130415 120 18412262813558016770
10980938 120 18341333370158658028
11471102 20 18411135844336348653
12032990 46 18338518534513389022
12346645 6 18343586261120818476
14144814 61 18272092707926349745
14251717 144 18410571803413884695
14252887 29 18040999565602878536
14325111 11 18341614854073410869
14576447 43 18127682945234366295
15442244 35 18340209587697254449
15501101 241 18334012804387145596
16945 1 18337662135557476596
18186145 218 17821726135308536603
200 152 18131061663383992807
20281475 54 18334295392161175879
20645477 70 18410291397984407095
20871998 22 18127415549186896910
21501502 16 18337961077907892464
21501925 9 18411692158786733258
22485316 2 18408602569783173543
2255824 54 18334580165598962326
23402655 69 18343020004179989117
23463225 33 18412545405220936621
23557571 272 14764083250436702809
2748010 2 18266445526238996444
3071541 37 18261681467009965452
42 15 18408887317456391939
449060 62 18340490062252579188
5104073 3 18413392046966214723
522135 26 18334579035716439405
77779 3 18411704305191545077

>  <PUBCHEM_SHAPE_MULTIPOLES>  (1) 
265.52
8.36
1.78
0.71
7.81
0.04
-0.05
-2.04
-1.14
-1.75
-0.16
-0.08
-0.12
-0.59

>  <PUBCHEM_SHAPE_SELFOVERLAP>  (1) 
552.796

>  <PUBCHEM_SHAPE_VOLUME>  (1) 
151.6

>  <PUBCHEM_COORDINATE_TYPE>  (1) 
2
5
10

$$$$
