29522
     RDKit          3D

 29 31  0  0  1  0  0  0  0  0999 V2000
    2.0336    1.5480   -1.3762 O   0  0  0  0  0  0  0  0  0  0  0  0
    0.7413   -0.8705   -0.9656 O   0  0  0  0  0  0  0  0  0  0  0  0
   -1.8894    0.0564   -1.1761 O   0  0  0  0  0  0  0  0  0  0  0  0
    1.2759   -2.5578   -2.4376 O   0  0  0  0  0  0  0  0  0  0  0  0
   -3.8351   -0.4576   -2.2939 O   0  0  0  0  0  0  0  0  0  0  0  0
    2.9178   -4.5871    0.9373 N   0  0  0  0  0  0  0  0  0  0  0  0
   -5.9731    0.4673    1.2322 N   0  0  0  0  0  0  0  0  0  0  0  0
    0.3569   -0.0278   -2.0543 C   0  0  0  0  0  0  0  0  0  0  0  0
    0.6443    1.4141   -1.6567 C   0  0  0  0  0  0  0  0  0  0  0  0
   -1.1251   -0.2424   -2.3397 C   0  0  0  0  0  0  0  0  0  0  0  0
    2.3879    2.5041   -0.4620 C   0  0  0  0  0  0  0  0  0  0  0  0
    3.0625    2.1569    0.7087 C   0  0  0  0  0  0  0  0  0  0  0  0
    2.0668    3.8383   -0.7121 C   0  0  0  0  0  0  0  0  0  0  0  0
    1.1816   -2.1097   -1.3054 C   0  0  0  0  0  0  0  0  0  0  0  0
    3.4160    3.1438    1.6288 C   0  0  0  0  0  0  0  0  0  0  0  0
    3.4145    0.7340    0.9931 C   0  0  0  0  0  0  0  0  0  0  0  0
    2.4204    4.8252    0.2080 C   0  0  0  0  0  0  0  0  0  0  0  0
    1.5464   -2.8821   -0.0910 C   0  0  0  0  0  0  0  0  0  0  0  0
    3.0949    4.4780    1.3784 C   0  0  0  0  0  0  0  0  0  0  0  0
   -3.2367   -0.0943   -1.2932 C   0  0  0  0  0  0  0  0  0  0  0  0
   -3.9154    0.2481   -0.0178 C   0  0  0  0  0  0  0  0  0  0  0  0
    0.9036   -2.6576    1.1214 C   0  0  0  0  0  0  0  0  0  0  0  0
    2.5377   -3.8494   -0.1300 C   0  0  0  0  0  0  0  0  0  0  0  0
   -3.1877    0.6571    1.0942 C   0  0  0  0  0  0  0  0  0  0  0  0
   -5.2936    0.1703    0.1018 C   0  0  0  0  0  0  0  0  0  0  0  0
    1.2668   -3.3966    2.2419 C   0  0  0  0  0  0  0  0  0  0  0  0
   -3.8511    0.9712    2.2752 C   0  0  0  0  0  0  0  0  0  0  0  0
    2.2707   -4.3408    2.0985 C   0  0  0  0  0  0  0  0  0  0  0  0
   -5.2323    0.8611    2.2922 C   0  0  0  0  0  0  0  0  0  0  0  0
  1  9  1  0
  1 11  1  0
  2  8  1  0
  2 14  1  0
  3 10  1  0
  3 20  1  0
  4 14  2  0
  5 20  2  0
  6 23  2  0
  6 28  1  0
  7 25  2  0
  7 29  1  0
  8  9  1  0
  8 10  1  0
 11 12  2  0
 11 13  1  0
 12 15  1  0
 12 16  1  0
 13 17  2  0
 14 18  1  0
 15 19  2  0
 17 19  1  0
 18 22  2  0
 18 23  1  0
 20 21  1  0
 21 24  2  0
 21 25  1  0
 22 26  1  0
 24 27  1  0
 26 28  2  0
 27 29  2  0
M  END
>  <PUBCHEM_COMPOUND_CID>  (1) 
29522

>  <PUBCHEM_CONFORMER_RMSD>  (1) 
1.2

>  <PUBCHEM_CONFORMER_DIVERSEORDER>  (1) 
1
247
109
150
261
69
176
70
222
220
146
208
170
90
75
182
126
58
140
168
230
217
96
125
213
203
237
210
130
166
138
64
91
255
191
187
158
66
207
41
209
154
218
225
128
205
97
17
249
189
223
93
231
260
161
259
83
63
175
48
137
113
258
13
177
61
143
88
239
199
38
122
11
253
229
219
85
72
233
77
134
163
221
151
105
246
243
142
169
74
241
254
20
228
180
34
53
192
94
117
162
149
42
51
242
214
141
148
181
78
144
123
167
157
112
245
204
190
193
124
54
240
197
71
186
111
135
18
36
153
194
224
145
152
115
147
73
216
165
139
102
238
127
215
211
98
46
106
67
47
164
118
173
108
44
37
24
178
107
19
87
50
79
198
86
101
250
57
30
68
174
159
99
80
206
92
131
232
114
155
188
236
160
56
25
49
136
202
183
132
212
200
35
14
76
31
22
16
257
129
227
82
110
179
185
15
196
116
12
172
52
252
84
244
234
29
95
119
55
3
133
7
235
103
156
171
33
104
120
195
32
59
6
60
62
100
26
121
2
28
21
89
8
81
65
5
226
23
248
27
9
43
40
251
45
184
10
201
39
256
4

>  <PUBCHEM_MMFF94_PARTIAL_CHARGES>  (1) 
41
1 -0.36
10 0.28
11 0.08
12 -0.14
13 -0.15
14 0.63
15 -0.15
16 0.14
17 -0.15
18 0.09
19 -0.15
2 -0.43
20 0.63
21 0.09
22 -0.15
23 0.16
24 -0.15
25 0.16
26 -0.15
27 -0.15
28 0.16
29 0.16
3 -0.43
35 0.15
36 0.15
4 -0.57
40 0.15
41 0.15
42 0.15
43 0.15
44 0.15
45 0.15
46 0.15
47 0.15
48 0.15
49 0.15
5 -0.57
6 -0.62
7 -0.62
8 0.28
9 0.28

>  <PUBCHEM_EFFECTIVE_ROTOR_COUNT>  (1) 
10

>  <PUBCHEM_PHARMACOPHORE_FEATURES>  (1) 
8
1 1 acceptor
1 4 acceptor
1 5 acceptor
1 6 acceptor
1 7 acceptor
6 11 12 13 15 17 19 rings
6 6 18 22 23 26 28 rings
6 7 21 24 25 27 29 rings

>  <PUBCHEM_HEAVY_ATOM_COUNT>  (1) 
29

>  <PUBCHEM_ATOM_DEF_STEREO_COUNT>  (1) 
0

>  <PUBCHEM_ATOM_UDEF_STEREO_COUNT>  (1) 
1

>  <PUBCHEM_BOND_DEF_STEREO_COUNT>  (1) 
0

>  <PUBCHEM_BOND_UDEF_STEREO_COUNT>  (1) 
0

>  <PUBCHEM_ISOTOPIC_ATOM_COUNT>  (1) 
0

>  <PUBCHEM_COMPONENT_COUNT>  (1) 
1

>  <PUBCHEM_CACTVS_TAUTO_COUNT>  (1) 
1

>  <PUBCHEM_CONFORMER_ID>  (1) 
0000735200000001

>  <PUBCHEM_MMFF94_ENERGY>  (1) 
89.4952

>  <PUBCHEM_FEATURE_SELFOVERLAP>  (1) 
40.6

>  <PUBCHEM_SHAPE_FINGERPRINT>  (1) 
10794284 68 17622190983089890446
11070050 100 18192173652878542753
12160290 23 17472706196102647094
12549972 3 17624999496654816940
12788726 201 16967148035184437598
12977781 61 17604686959908484967
14020679 6 18339363097615645780
14202776 33 11592325463542969954
14251757 17 14476412606738461585
15142526 21 18127136500856334249
15475509 84 17688317789210591133
15878777 1 16336894084640574374
16067690 210 16335779252917688464
21049683 118 17914320531773153377
23559900 14 16371588994389495351
244849 19 17750220440737401853
24941158 1 18263950802684536651
2835447 4 16084180928503116002
35225 105 17544184343233547946
394222 165 17988651817252188031
4616759 239 16453444138795199098
474 4 18200885092206551749
474144 1 17917706886142692873
508180 173 17057284104950999236
550186 83 15963225813760745104
6086070 43 18121499056165165821
6823239 73 16371022754084631203
7288768 16 17982171424393515469
86090 222 17676779694672204827
9981440 41 17199106970201792244

>  <PUBCHEM_SHAPE_MULTIPOLES>  (1) 
557.5
9.27
6.93
2.72
16.62
3.18
-0.25
-6.91
5.12
-12.99
3.61
1.28
0.82
-0.93

>  <PUBCHEM_SHAPE_SELFOVERLAP>  (1) 
1195.023

>  <PUBCHEM_SHAPE_VOLUME>  (1) 
304.1

>  <PUBCHEM_COORDINATE_TYPE>  (1) 
2
5
10

$$$$
