29524
     RDKit          3D

 12 12  0  0  1  0  0  0  0  0999 V2000
    1.9655   -0.3160   -0.2101 C   0  0  0  0  0  0  0  0  0  0  0  0
    0.9199    0.4054    0.7244 C   0  0  0  0  0  0  0  0  0  0  0  0
    1.6948   -1.8383   -0.2217 C   0  0  0  0  0  0  0  0  0  0  0  0
    1.9244    0.1783   -1.6685 C   0  0  0  0  0  0  0  0  0  0  0  0
    3.4006   -0.1147    0.3266 C   0  0  0  0  0  0  0  0  0  0  0  0
   -0.5434    0.1718    0.3549 C   0  0  0  0  0  0  0  0  0  0  0  0
    1.2026    1.9087    0.9044 C   0  0  0  0  0  0  0  0  0  0  0  0
   -1.1449   -1.0043    0.7450 C   0  0  0  0  0  0  0  0  0  0  0  0
   -1.2100    1.1452   -0.3560 C   0  0  0  0  0  0  0  0  0  0  0  0
   -2.4813   -1.2179    0.4071 C   0  0  0  0  0  0  0  0  0  0  0  0
   -2.5464    0.9317   -0.6937 C   0  0  0  0  0  0  0  0  0  0  0  0
   -3.1819   -0.2499   -0.3123 C   0  0  0  0  0  0  0  0  0  0  0  0
  1  2  1  0
  1  3  1  0
  1  4  1  0
  1  5  1  0
  2  6  1  0
  2  7  1  0
  6  8  2  0
  6  9  1  0
  8 10  1  0
  9 11  2  0
 10 12  2  0
 11 12  1  0
M  END
>  <PUBCHEM_COMPOUND_CID>  (1) 
29524

>  <PUBCHEM_CONFORMER_RMSD>  (1) 
0.6

>  <PUBCHEM_CONFORMER_DIVERSEORDER>  (1) 
2
3
4
1

>  <PUBCHEM_MMFF94_PARTIAL_CHARGES>  (1) 
12
10 -0.15
11 -0.15
12 -0.15
2 0.14
26 0.15
27 0.15
28 0.15
29 0.15
30 0.15
6 -0.14
8 -0.15
9 -0.15

>  <PUBCHEM_EFFECTIVE_ROTOR_COUNT>  (1) 
2

>  <PUBCHEM_PHARMACOPHORE_FEATURES>  (1) 
3
1 7 hydrophobe
4 1 3 4 5 hydrophobe
6 6 8 9 10 11 12 rings

>  <PUBCHEM_HEAVY_ATOM_COUNT>  (1) 
12

>  <PUBCHEM_ATOM_DEF_STEREO_COUNT>  (1) 
0

>  <PUBCHEM_ATOM_UDEF_STEREO_COUNT>  (1) 
1

>  <PUBCHEM_BOND_DEF_STEREO_COUNT>  (1) 
0

>  <PUBCHEM_BOND_UDEF_STEREO_COUNT>  (1) 
0

>  <PUBCHEM_ISOTOPIC_ATOM_COUNT>  (1) 
0

>  <PUBCHEM_COMPONENT_COUNT>  (1) 
1

>  <PUBCHEM_CACTVS_TAUTO_COUNT>  (1) 
1

>  <PUBCHEM_CONFORMER_ID>  (1) 
0000735400000002

>  <PUBCHEM_MMFF94_ENERGY>  (1) 
41.623

>  <PUBCHEM_FEATURE_SELFOVERLAP>  (1) 
15.224

>  <PUBCHEM_SHAPE_FINGERPRINT>  (1) 
10219947 1 17203323421062977432
10465860 250 18338503167515893792
12326174 3 17704355493736261640
12423570 1 17328589930090167649
12524768 44 18263919007263040049
12716758 59 18262797341961738713
12897270 3 18261402173185408166
12932764 1 18341335573624651747
14115302 16 18259991456806781630
15219456 202 18340197617465203617
15775835 57 18409730642727365511
16945 1 18411146830757001785
20201158 50 18413385427809765467
20279233 1 18341890792515568995
20361792 2 17417819391777531908
20645476 183 16660635268002990851
20645477 70 17917425484396794743
20653085 51 17095817507515346221
20711985 344 17341838637346745488
21061003 4 18059582394623159304
21501502 16 18338237171147929161
22445834 79 13758082852634287261
22802520 49 18335140895054129209
23402539 116 18040983034231239958
23552423 10 17894632517747331971
23559900 14 18266168449640969818
2748010 2 17977950416391777851
29004967 10 17846500322409611416
369184 2 17917711271167079755
5084963 1 17821725022616542861
81228 2 17699864929292911336

>  <PUBCHEM_SHAPE_MULTIPOLES>  (1) 
246.95
4.79
1.62
1.11
0.5
0.02
0.28
-0.64
0.54
-0.14
-0.24
-0.38
0.17
0.53

>  <PUBCHEM_SHAPE_SELFOVERLAP>  (1) 
499.253

>  <PUBCHEM_SHAPE_VOLUME>  (1) 
143.5

>  <PUBCHEM_COORDINATE_TYPE>  (1) 
2
5
10

$$$$
