29523
     RDKit          3D

  9  9  0  0  0  0  0  0  0  0999 V2000
   -1.9088   -2.3255   -0.0007 I   0  0  0  0  0  0  0  0  0  0  0  0
    1.9085   -2.3256    0.0001 I   0  0  0  0  0  0  0  0  0  0  0  0
   -3.2410    1.2849    0.0000 I   0  0  0  0  0  0  0  0  0  0  0  0
    3.2411    1.2848   -0.0004 I   0  0  0  0  0  0  0  0  0  0  0  0
    0.0002    1.8803   -0.0002 S   0  0  0  0  0  0  0  0  0  0  0  0
   -0.7125   -0.5879    0.0005 C   0  0  0  0  0  0  0  0  0  0  0  0
    0.7124   -0.5882    0.0004 C   0  0  0  0  0  0  0  0  0  0  0  0
   -1.2296    0.6888    0.0002 C   0  0  0  0  0  0  0  0  0  0  0  0
    1.2298    0.6884   -0.0001 C   0  0  0  0  0  0  0  0  0  0  0  0
  1  6  1  0
  2  7  1  0
  3  8  1  0
  4  9  1  0
  5  8  1  0
  5  9  1  0
  6  7  1  0
  6  8  2  0
  7  9  2  0
M  END
>  <PUBCHEM_COMPOUND_CID>  (1) 
29523

>  <PUBCHEM_CONFORMER_RMSD>  (1) 
0.4

>  <PUBCHEM_CONFORMER_DIVERSEORDER>  (1) 
1

>  <PUBCHEM_MMFF94_PARTIAL_CHARGES>  (1) 
9
1 -0.03
2 -0.03
3 -0.03
4 -0.03
5 -0.08
6 0.03
7 0.03
8 0.07
9 0.07

>  <PUBCHEM_EFFECTIVE_ROTOR_COUNT>  (1) 
0

>  <PUBCHEM_PHARMACOPHORE_FEATURES>  (1) 
5
1 1 hydrophobe
1 2 hydrophobe
1 3 hydrophobe
1 4 hydrophobe
5 5 6 7 8 9 rings

>  <PUBCHEM_HEAVY_ATOM_COUNT>  (1) 
9

>  <PUBCHEM_ATOM_DEF_STEREO_COUNT>  (1) 
0

>  <PUBCHEM_ATOM_UDEF_STEREO_COUNT>  (1) 
0

>  <PUBCHEM_BOND_DEF_STEREO_COUNT>  (1) 
0

>  <PUBCHEM_BOND_UDEF_STEREO_COUNT>  (1) 
0

>  <PUBCHEM_ISOTOPIC_ATOM_COUNT>  (1) 
0

>  <PUBCHEM_COMPONENT_COUNT>  (1) 
1

>  <PUBCHEM_CACTVS_TAUTO_COUNT>  (1) 
1

>  <PUBCHEM_CONFORMER_ID>  (1) 
0000735300000001

>  <PUBCHEM_MMFF94_ENERGY>  (1) 
9.3677

>  <PUBCHEM_FEATURE_SELFOVERLAP>  (1) 
25.374

>  <PUBCHEM_SHAPE_FINGERPRINT>  (1) 
11680986 33 18337679624126242211
12423570 1 11921499968694462398
13380535 21 18410582785539538086
13380535 76 18410849966865061670
14325111 11 18338797810714945701
14897335 6 18411132532800440789
15219459 52 18266739082499527695
161256 15 18191588540936143484
16945 1 18410575088958409989
193761 8 18410856559640218310
20510252 161 17983580985515487144
20645477 70 18193832653217220501
20671657 1 18338803308177924700
20871998 184 18197501937507798959
21040471 1 18410573972467288645
21501502 16 18410567392377022051
2334 1 18410575123439519626
23526114 1 18411703205448257094
23552423 10 18335141985981298462
2748010 2 18410864251974053407
5084963 1 17770229567296651954
528862 383 18262796255287605112
53812653 166 18343018925657979120
68250623 7 18410855460128564550
7364860 26 18269835320539599446

>  <PUBCHEM_SHAPE_MULTIPOLES>  (1) 
236.81
4.98
3.19
0.74
0
1.74
0
-1.79
0
0
0
0
0.04
0

>  <PUBCHEM_SHAPE_SELFOVERLAP>  (1) 
384.518

>  <PUBCHEM_SHAPE_VOLUME>  (1) 
172.8

>  <PUBCHEM_COORDINATE_TYPE>  (1) 
2
5
10

$$$$
