29520
     RDKit          3D

 13 13  0  0  0  0  0  0  0  0999 V2000
   -4.5777   -0.2924   -0.0005 O   0  0  0  0  0  0  0  0  0  0  0  0
    1.7372   -1.6359   -0.0017 O   0  0  0  0  0  0  0  0  0  0  0  0
    0.9047    0.5440    0.0000 N   0  0  0  0  0  0  0  0  0  0  0  0
   -0.4975    0.3305   -0.0007 C   0  0  0  0  0  0  0  0  0  0  0  0
   -1.3462    1.4229   -0.0006 C   0  0  0  0  0  0  0  0  0  0  0  0
   -0.9817   -0.9654    0.0000 C   0  0  0  0  0  0  0  0  0  0  0  0
   -2.7250    1.2124    0.0003 C   0  0  0  0  0  0  0  0  0  0  0  0
   -2.3606   -1.1760    0.0009 C   0  0  0  0  0  0  0  0  0  0  0  0
   -3.2323   -0.0870    0.0009 C   0  0  0  0  0  0  0  0  0  0  0  0
    1.9057   -0.4188    0.0000 C   0  0  0  0  0  0  0  0  0  0  0  0
    3.3017    0.1532    0.0008 C   0  0  0  0  0  0  0  0  0  0  0  0
    3.5492    1.6320   -0.0003 C   0  0  0  0  0  0  0  0  0  0  0  0
    4.3224   -0.7195    0.0009 C   0  0  0  0  0  0  0  0  0  0  0  0
  1  9  1  0
  2 10  2  0
  3  4  1  0
  3 10  1  0
  4  5  2  0
  4  6  1  0
  5  7  1  0
  6  8  2  0
  7  9  2  0
  8  9  1  0
 10 11  1  0
 11 12  1  0
 11 13  2  0
M  END
>  <PUBCHEM_COMPOUND_CID>  (1) 
29520

>  <PUBCHEM_CONFORMER_RMSD>  (1) 
0.6

>  <PUBCHEM_CONFORMER_DIVERSEORDER>  (1) 
1
4
2
3

>  <PUBCHEM_MMFF94_PARTIAL_CHARGES>  (1) 
21
1 -0.53
10 0.62
11 -0.12
12 0.14
13 -0.3
14 0.15
15 0.15
16 0.37
17 0.15
18 0.15
2 -0.57
22 0.15
23 0.15
24 0.45
3 -0.55
4 0.12
5 -0.15
6 -0.15
7 -0.15
8 -0.15
9 0.08

>  <PUBCHEM_EFFECTIVE_ROTOR_COUNT>  (1) 
3

>  <PUBCHEM_PHARMACOPHORE_FEATURES>  (1) 
4
1 1 donor
1 2 acceptor
1 3 donor
6 4 5 6 7 8 9 rings

>  <PUBCHEM_HEAVY_ATOM_COUNT>  (1) 
13

>  <PUBCHEM_ATOM_DEF_STEREO_COUNT>  (1) 
0

>  <PUBCHEM_ATOM_UDEF_STEREO_COUNT>  (1) 
0

>  <PUBCHEM_BOND_DEF_STEREO_COUNT>  (1) 
0

>  <PUBCHEM_BOND_UDEF_STEREO_COUNT>  (1) 
0

>  <PUBCHEM_ISOTOPIC_ATOM_COUNT>  (1) 
0

>  <PUBCHEM_COMPONENT_COUNT>  (1) 
1

>  <PUBCHEM_CACTVS_TAUTO_COUNT>  (1) 
4

>  <PUBCHEM_CONFORMER_ID>  (1) 
0000735000000001

>  <PUBCHEM_MMFF94_ENERGY>  (1) 
35.9976

>  <PUBCHEM_FEATURE_SELFOVERLAP>  (1) 
20.297

>  <PUBCHEM_SHAPE_FINGERPRINT>  (1) 
10608611 8 18410570669663954724
11062470 55 18410292527365178671
11132069 177 18410285947755005608
12932764 1 17131818855176671177
13380535 76 18410012126267942298
14144814 61 18409166580277051408
14325111 11 18410573959402921760
14415576 193 18409733967369597956
14445660 50 18272098184030868401
15442244 35 18122907521442651034
15536298 74 18413108385751039676
17802600 8 18409725153991334696
18186145 218 17894625963748252078
18522853 276 18342736317205404736
200 152 18131344207201015397
20201158 50 18412265025503305210
20510252 161 18272373019056906217
20528008 55 18410852183173681441
20645477 70 18341894060964978886
20871998 184 18201442536043437735
21267235 1 18410583872261430370
23402539 116 18273206492110265389
23463225 33 18408321056162352174
23559900 14 18412259532788513024
474 4 17459196346936243772
5104073 3 18410856563955947800
5374978 207 18410006658895588808
69090 78 18342453751106579695
7364860 26 18268710507223092150
77779 3 18411420609337018692
8809292 202 18261396684280825866
9709674 26 18411987931425313838

>  <PUBCHEM_SHAPE_MULTIPOLES>  (1) 
250.81
7.98
1.54
0.6
1.72
0.18
0
-0.01
0
0.33
0
0.02
0.01
0

>  <PUBCHEM_SHAPE_SELFOVERLAP>  (1) 
519.023

>  <PUBCHEM_SHAPE_VOLUME>  (1) 
143.3

>  <PUBCHEM_COORDINATE_TYPE>  (1) 
2
5
10

$$$$
