29548
     RDKit          3D

 19 19  0  0  0  0  0  0  0  0999 V2000
   -2.0946   -2.6826    0.4479 O   0  0  0  0  0  0  0  0  0  0  0  0
    3.8099    0.1119   -0.1416 O   0  0  0  0  0  0  0  0  0  0  0  0
   -3.8934   -1.3328   -0.0438 O   0  0  0  0  0  0  0  0  0  0  0  0
    3.7606   -2.1630   -0.4913 O   0  0  0  0  0  0  0  0  0  0  0  0
    0.1436    0.2067    0.0736 N   0  0  0  0  0  0  0  0  0  0  0  0
   -3.9871   -3.6085   -0.3594 N   0  0  0  0  0  0  0  0  0  0  0  0
    5.6314   -1.1251    0.3515 N   0  0  0  0  0  0  0  0  0  0  0  0
   -0.5933   -0.9753   -0.3272 C   0  0  0  0  0  0  0  0  0  0  0  0
    1.5077    0.0634    0.5418 C   0  0  0  0  0  0  0  0  0  0  0  0
   -0.4637    1.4787    0.0215 C   0  0  0  0  0  0  0  0  0  0  0  0
   -1.3481   -1.5452    0.8618 C   0  0  0  0  0  0  0  0  0  0  0  0
    2.4749    0.2192   -0.6195 C   0  0  0  0  0  0  0  0  0  0  0  0
    0.2490    2.6090    0.4220 C   0  0  0  0  0  0  0  0  0  0  0  0
   -1.7772    1.6062   -0.4303 C   0  0  0  0  0  0  0  0  0  0  0  0
   -0.3520    3.8668    0.3709 C   0  0  0  0  0  0  0  0  0  0  0  0
   -2.3781    2.8641   -0.4813 C   0  0  0  0  0  0  0  0  0  0  0  0
   -1.6654    3.9943   -0.0807 C   0  0  0  0  0  0  0  0  0  0  0  0
   -3.3689   -2.4400    0.0114 C   0  0  0  0  0  0  0  0  0  0  0  0
    4.3448   -1.1478   -0.1275 C   0  0  0  0  0  0  0  0  0  0  0  0
  1 11  1  0
  1 18  1  0
  2 12  1  0
  2 19  1  0
  3 18  2  0
  4 19  2  0
  5  8  1  0
  5  9  1  0
  5 10  1  0
  6 18  1  0
  7 19  1  0
  8 11  1  0
  9 12  1  0
 10 13  2  0
 10 14  1  0
 13 15  1  0
 14 16  2  0
 15 17  2  0
 16 17  1  0
M  END
>  <PUBCHEM_COMPOUND_CID>  (1) 
29548

>  <PUBCHEM_CONFORMER_RMSD>  (1) 
0.8

>  <PUBCHEM_CONFORMER_DIVERSEORDER>  (1) 
26
43
96
37
30
172
6
152
46
7
129
55
16
110
5
160
74
2
24
75
153
109
84
29
105
87
106
148
101
56
100
48
91
12
94
133
138
35
175
135
22
122
1
66
70
41
154
142
151
71
36
51
167
119
4
177
103
17
54
82
83
28
178
72
97
85
136
58
147
90
161
104
158
137
8
171
108
111
140
155
15
69
14
98
176
79
59
60
27
157
116
78
31
114
131
121
68
77
62
159
39
115
63
170
38
113
64
89
21
173
145
132
123
130
99
33
126
86
117
93
124
112
44
65
34
139
92
169
76
47
3
174
53
81
23
13
141
57
52
168
73
166
95
67
49
165
50
45
162
40
80
18
42
118
143
163
164
20
107
156
134
144
61
120
146
127
32
102
128
125
149
9
25
150
11
19
88
10

>  <PUBCHEM_MMFF94_PARTIAL_CHARGES>  (1) 
28
1 -0.43
10 0.1
11 0.28
12 0.28
13 -0.15
14 -0.15
15 -0.15
16 -0.15
17 -0.15
18 0.78
19 0.78
2 -0.43
28 0.15
29 0.15
3 -0.57
30 0.15
31 0.15
32 0.15
33 0.37
34 0.37
35 0.37
36 0.37
4 -0.57
5 -0.84
6 -0.8
7 -0.8
8 0.37
9 0.37

>  <PUBCHEM_EFFECTIVE_ROTOR_COUNT>  (1) 
9

>  <PUBCHEM_PHARMACOPHORE_FEATURES>  (1) 
6
1 3 acceptor
1 4 acceptor
1 5 cation
1 6 donor
1 7 donor
6 10 13 14 15 16 17 rings

>  <PUBCHEM_HEAVY_ATOM_COUNT>  (1) 
19

>  <PUBCHEM_ATOM_DEF_STEREO_COUNT>  (1) 
0

>  <PUBCHEM_ATOM_UDEF_STEREO_COUNT>  (1) 
0

>  <PUBCHEM_BOND_DEF_STEREO_COUNT>  (1) 
0

>  <PUBCHEM_BOND_UDEF_STEREO_COUNT>  (1) 
0

>  <PUBCHEM_ISOTOPIC_ATOM_COUNT>  (1) 
0

>  <PUBCHEM_COMPONENT_COUNT>  (1) 
1

>  <PUBCHEM_CACTVS_TAUTO_COUNT>  (1) 
3

>  <PUBCHEM_CONFORMER_ID>  (1) 
0000736C0000001A

>  <PUBCHEM_MMFF94_ENERGY>  (1) 
52.0513

>  <PUBCHEM_FEATURE_SELFOVERLAP>  (1) 
30.446

>  <PUBCHEM_SHAPE_FINGERPRINT>  (1) 
10411042 1 18338516464176005179
1100329 8 18410295792063297169
116883 192 18410860962097572574
11833330 49 18408038515728050456
121448 382 17982442702991225800
12553582 1 18193017004167369746
12788726 201 18333450937208835066
13052359 8 18264487282707025893
13134695 92 18121782995867451063
138480 1 15744443718944875189
13899415 180 18196073650534431431
13955234 65 17475803529438941883
14178000 15 18124316270742112737
14790565 3 18194972838001666961
15042514 8 18338521841606519369
17539 30 18411693270998607725
20671657 53 18196379336489553323
21049683 271 17757001364314555076
21426921 1 18410295770709058862
21478907 32 18410012139247575403
21524375 3 17754748117366299280
22849339 104 17981352009432417326
23402539 116 18125147243903771924
23419403 2 17631717374491000041
23557571 272 18343026549810069740
23558518 356 18261117344408841016
23559900 14 18055065459956024562
3091708 16 9133561174087487441
3421961 26 18051694639902725411
4409770 3 18335414613594190533
54173680 148 18410856529659752348
58779409 54 18337383851192626325
633830 44 10738098305227676947
68521 5 18409733967026693438
7164475 11 18408611357528887046
7364860 26 17618506922977644281
77188 2 18266741470512043205
81228 2 18261398861818598024
9709674 26 18127692626386037494
9981440 41 17688308984554275160

>  <PUBCHEM_SHAPE_MULTIPOLES>  (1) 
352.59
7.79
5.33
0.75
11.49
1.77
0.03
-7.28
-0.61
-7.35
0.11
-0.01
0.01
0.28

>  <PUBCHEM_SHAPE_SELFOVERLAP>  (1) 
715.985

>  <PUBCHEM_SHAPE_VOLUME>  (1) 
203.4

>  <PUBCHEM_COORDINATE_TYPE>  (1) 
2
5
10

$$$$
