29542
     RDKit          3D

 15 16  0  0  0  0  0  0  0  0999 V2000
   -1.2464    1.1900    0.1535 N   0  0  0  0  0  0  0  0  0  0  0  0
   -1.2458   -1.1899   -0.1528 N   0  0  0  0  0  0  0  0  0  0  0  0
   -3.3241   -0.0004   -0.0010 N   0  0  0  0  0  0  0  0  0  0  0  0
   -3.2930    2.3253    0.2993 N   0  0  0  0  0  0  0  0  0  0  0  0
   -3.2916   -2.3257   -0.2994 N   0  0  0  0  0  0  0  0  0  0  0  0
    0.7963    0.0002    0.0008 C   0  0  0  0  0  0  0  0  0  0  0  0
    3.5860    0.0001   -0.0004 C   0  0  0  0  0  0  0  0  0  0  0  0
    1.4936    1.1149   -0.4649 C   0  0  0  0  0  0  0  0  0  0  0  0
    1.4939   -1.1145    0.4661 C   0  0  0  0  0  0  0  0  0  0  0  0
   -0.6506    0.0001    0.0007 C   0  0  0  0  0  0  0  0  0  0  0  0
    2.8885    1.1147   -0.4656 C   0  0  0  0  0  0  0  0  0  0  0  0
    2.8888   -1.1145    0.4655 C   0  0  0  0  0  0  0  0  0  0  0  0
    5.0775    0.0001   -0.0009 C   0  0  0  0  0  0  0  0  0  0  0  0
   -2.5868    1.1127    0.1429 C   0  0  0  0  0  0  0  0  0  0  0  0
   -2.5864   -1.1131   -0.1436 C   0  0  0  0  0  0  0  0  0  0  0  0
  1 10  2  0
  1 14  1  0
  2 10  1  0
  2 15  2  0
  3 14  2  0
  3 15  1  0
  4 14  1  0
  5 15  1  0
  6  8  2  0
  6  9  1  0
  6 10  1  0
  7 11  2  0
  7 12  1  0
  7 13  1  0
  8 11  1  0
  9 12  2  0
M  END
>  <PUBCHEM_COMPOUND_CID>  (1) 
29542

>  <PUBCHEM_CONFORMER_RMSD>  (1) 
0.4

>  <PUBCHEM_CONFORMER_DIVERSEORDER>  (1) 
1
2
3

>  <PUBCHEM_MMFF94_PARTIAL_CHARGES>  (1) 
22
1 -0.62
10 0.62
11 -0.15
12 -0.15
13 0.14
14 0.72
15 0.72
16 0.15
17 0.15
18 0.15
19 0.15
2 -0.62
23 0.4
24 0.4
25 0.4
26 0.4
3 -0.62
4 -0.9
5 -0.9
7 -0.14
8 -0.15
9 -0.15

>  <PUBCHEM_EFFECTIVE_ROTOR_COUNT>  (1) 
1

>  <PUBCHEM_PHARMACOPHORE_FEATURES>  (1) 
6
1 4 donor
1 5 donor
4 1 3 4 14 cation
4 2 3 5 15 cation
6 1 2 3 10 14 15 rings
6 6 7 8 9 11 12 rings

>  <PUBCHEM_HEAVY_ATOM_COUNT>  (1) 
15

>  <PUBCHEM_ATOM_DEF_STEREO_COUNT>  (1) 
0

>  <PUBCHEM_ATOM_UDEF_STEREO_COUNT>  (1) 
0

>  <PUBCHEM_BOND_DEF_STEREO_COUNT>  (1) 
0

>  <PUBCHEM_BOND_UDEF_STEREO_COUNT>  (1) 
0

>  <PUBCHEM_ISOTOPIC_ATOM_COUNT>  (1) 
0

>  <PUBCHEM_COMPONENT_COUNT>  (1) 
1

>  <PUBCHEM_CACTVS_TAUTO_COUNT>  (1) 
5

>  <PUBCHEM_CONFORMER_ID>  (1) 
0000736600000001

>  <PUBCHEM_MMFF94_ENERGY>  (1) 
47.9951

>  <PUBCHEM_FEATURE_SELFOVERLAP>  (1) 
30.489

>  <PUBCHEM_SHAPE_FINGERPRINT>  (1) 
10062212 137 18334287656814351594
10608611 8 18413666924435632848
10616163 171 18411983584876309686
11132069 177 18409163286374829856
11806522 49 18263077868030433670
12251169 10 18408608037060438869
12500047 106 18341887442282952585
12932764 1 17346308332301756374
14144814 61 18408322164021198064
14325111 11 18409450297421947228
14965852 173 18410291410684211755
15196674 1 18409449185426129798
15442244 35 18264486179084956290
15536298 74 18412263935235434370
15669948 3 18342450448255623543
15775835 57 18335144146096686184
18186145 218 18040714736604687206
18522853 276 18410854382334171568
19026448 4 17704071798598939136
19050596 39 18408044034760694552
19422 9 18335422382921152854
200 152 18337944696939334719
20279233 1 16487256564646702252
20281475 54 18260823779094216130
20510252 161 18202005442877932811
20645477 56 18341054017101864177
20871998 184 18130790087874753087
21267235 1 18336837454148879554
21501502 16 18408041814178199812
22445834 79 18260545584923867659
2306618 200 18131360704349799897
23402539 116 18340761623932918671
23402655 69 18261109643200364956
23463225 33 18335138661650088142
23557571 272 18060424611734424392
23559900 14 18342166825758478152
3312278 4 18341895177529348978
3545911 37 18412264999807243984
4214541 1 18411419492693085460
474 4 17532098361582943132
4990 188 18272380750430256910
5104073 3 18409728456963370744
57096353 35 18263084486258467774
573450 72 18335972100201622354
77779 3 18412265030315022790
7832392 63 18409730617036812892
9709674 26 18410863182854575550

>  <PUBCHEM_SHAPE_MULTIPOLES>  (1) 
283.79
7.89
1.88
0.67
3.62
0
0
0
0
-1.99
0
0.12
0
-0.71

>  <PUBCHEM_SHAPE_SELFOVERLAP>  (1) 
613.627

>  <PUBCHEM_SHAPE_VOLUME>  (1) 
147.2

>  <PUBCHEM_COORDINATE_TYPE>  (1) 
2
5
10

$$$$
