29547
     RDKit          3D

 23 24  0  0  0  0  0  0  0  0999 V2000
    2.0949    4.3939   -1.1757 Cl  0  0  0  0  0  0  0  0  0  0  0  0
    2.0365   -2.8164   -1.3037 F   0  0  0  0  0  0  0  0  0  0  0  0
    0.0889   -1.4109   -0.3794 O   0  0  0  0  0  0  0  0  0  0  0  0
   -4.6022   -1.0753   -0.6093 N   0  0  0  0  0  0  0  0  0  0  0  0
   -1.6768    0.2853    0.8186 N   0  0  0  0  0  0  0  0  0  0  0  0
   -3.7535   -0.6723    1.6839 C   0  0  0  0  0  0  0  0  0  0  0  0
   -3.9162   -1.6688    0.5319 C   0  0  0  0  0  0  0  0  0  0  0  0
   -2.9923    0.6020    1.3200 C   0  0  0  0  0  0  0  0  0  0  0  0
   -0.7830    1.2346    0.3483 C   0  0  0  0  0  0  0  0  0  0  0  0
    0.4926    0.8798   -0.1327 C   0  0  0  0  0  0  0  0  0  0  0  0
   -5.9879   -0.6621   -0.2607 C   0  0  0  0  0  0  0  0  0  0  0  0
   -4.5940   -1.9941   -1.7495 C   0  0  0  0  0  0  0  0  0  0  0  0
   -1.1397    2.5965    0.3422 C   0  0  0  0  0  0  0  0  0  0  0  0
    0.9130   -0.5157   -0.1486 C   0  0  0  0  0  0  0  0  0  0  0  0
    1.3774    1.8507   -0.6018 C   0  0  0  0  0  0  0  0  0  0  0  0
   -0.2550    3.5675   -0.1269 C   0  0  0  0  0  0  0  0  0  0  0  0
    2.3251   -0.9263    0.1062 C   0  0  0  0  0  0  0  0  0  0  0  0
    1.0036    3.1947   -0.5989 C   0  0  0  0  0  0  0  0  0  0  0  0
    2.8024   -2.0674   -0.4973 C   0  0  0  0  0  0  0  0  0  0  0  0
    3.0965   -0.1451    0.9363 C   0  0  0  0  0  0  0  0  0  0  0  0
    4.1228   -2.4479   -0.2577 C   0  0  0  0  0  0  0  0  0  0  0  0
    4.4169   -0.5258    1.1758 C   0  0  0  0  0  0  0  0  0  0  0  0
    4.9300   -1.6771    0.5789 C   0  0  0  0  0  0  0  0  0  0  0  0
  1 18  1  0
  2 19  1  0
  3 14  2  0
  4  7  1  0
  4 11  1  0
  4 12  1  0
  5  8  1  0
  5  9  1  0
  6  7  1  0
  6  8  1  0
  9 10  2  0
  9 13  1  0
 10 14  1  0
 10 15  1  0
 13 16  2  0
 14 17  1  0
 15 18  2  0
 16 18  1  0
 17 19  2  0
 17 20  1  0
 19 21  1  0
 20 22  2  0
 21 23  2  0
 22 23  1  0
M  END
>  <PUBCHEM_COMPOUND_CID>  (1) 
29547

>  <PUBCHEM_CONFORMER_RMSD>  (1) 
0.8

>  <PUBCHEM_CONFORMER_DIVERSEORDER>  (1) 
1
70
44
91
43
12
90
62
72
67
52
61
89
32
14
40
65
58
19
87
66
22
88
86
37
57
24
59
68
30
79
25
64
35
75
6
69
85
63
34
26
60
38
74
54
5
10
31
80
73
83
23
46
18
39
76
21
8
27
20
11
3
36
56
45
47
84
29
77
82
17
51
53
42
2
81
16
71
15
78
50
13
9
55
41
4
7
48
28
33
49

>  <PUBCHEM_MMFF94_PARTIAL_CHARGES>  (1) 
30
1 -0.18
10 0.09
11 0.27
12 0.27
13 -0.15
14 0.4
15 -0.15
16 -0.15
17 0.09
18 0.18
19 0.19
2 -0.19
20 -0.15
21 -0.15
22 -0.15
23 -0.15
3 -0.57
30 0.4
37 0.15
38 0.15
39 0.15
4 -0.81
40 0.15
41 0.15
42 0.15
43 0.15
5 -0.87
7 0.27
8 0.37
9 0.1

>  <PUBCHEM_EFFECTIVE_ROTOR_COUNT>  (1) 
7

>  <PUBCHEM_PHARMACOPHORE_FEATURES>  (1) 
6
1 3 acceptor
1 4 cation
1 5 cation
1 5 donor
6 17 19 20 21 22 23 rings
6 9 10 13 15 16 18 rings

>  <PUBCHEM_HEAVY_ATOM_COUNT>  (1) 
23

>  <PUBCHEM_ATOM_DEF_STEREO_COUNT>  (1) 
0

>  <PUBCHEM_ATOM_UDEF_STEREO_COUNT>  (1) 
0

>  <PUBCHEM_BOND_DEF_STEREO_COUNT>  (1) 
0

>  <PUBCHEM_BOND_UDEF_STEREO_COUNT>  (1) 
0

>  <PUBCHEM_ISOTOPIC_ATOM_COUNT>  (1) 
0

>  <PUBCHEM_COMPONENT_COUNT>  (1) 
1

>  <PUBCHEM_CACTVS_TAUTO_COUNT>  (1) 
3

>  <PUBCHEM_CONFORMER_ID>  (1) 
0000736B00000001

>  <PUBCHEM_MMFF94_ENERGY>  (1) 
73.7378

>  <PUBCHEM_FEATURE_SELFOVERLAP>  (1) 
30.446

>  <PUBCHEM_SHAPE_FINGERPRINT>  (1) 
11265709 11 18409169879017721601
11552529 35 17916022348012823499
12363563 72 18261123945267445955
12403259 226 18197494018353152138
12553582 1 18265638544453858187
12623949 98 17560811974287357758
13004483 165 18266444417879113931
13009979 54 17988657319279569131
13083527 12 18411417336451003116
13140716 1 17905057202618884432
13544653 18 18408325471124969043
13583140 156 15266485219755701715
1454969 45 18412261774998870220
14787075 74 17895487998461035832
14790565 3 17543914963128212588
15842332 3 17986699097860985913
167882 2 18190743243943280909
17357779 13 18336815416808502781
17539 30 18119241770966411685
1813 80 18341341010736815726
18222031 100 18411138030580229770
19141452 34 18127979607352527097
192875 21 18341051899920098051
20645477 70 18189334748531725273
20739085 24 18342730862628710846
23402539 116 18336544910962345691
23419403 2 17823118159784153108
23559900 14 18335700610707318409
25147074 1 18271544069099910513
46194498 28 18188756375603945631
5283173 99 18116421545374309885
57035037 87 16009016312083163388
613672 6 18334858303143978531
7471813 234 18412259562611009169

>  <PUBCHEM_SHAPE_MULTIPOLES>  (1) 
452.09
10.19
4.53
1.3
9.38
5.32
0
-9.89
-0.28
-3.59
1.92
0.83
-0.32
-1.19

>  <PUBCHEM_SHAPE_SELFOVERLAP>  (1) 
944.191

>  <PUBCHEM_SHAPE_VOLUME>  (1) 
258.3

>  <PUBCHEM_COORDINATE_TYPE>  (1) 
2
5
10

$$$$
