29549
     RDKit          3D

 20 20  0  0  0  0  0  0  0  0999 V2000
    2.1802   -2.1455   -0.2592 O   0  0  0  0  0  0  0  0  0  0  0  0
    0.7923    2.4741    0.0470 O   0  0  0  0  0  0  0  0  0  0  0  0
    4.2275   -1.4537    0.5341 O   0  0  0  0  0  0  0  0  0  0  0  0
   -0.1467    4.5108   -0.4721 O   0  0  0  0  0  0  0  0  0  0  0  0
    0.1111   -0.2594    0.0533 N   0  0  0  0  0  0  0  0  0  0  0  0
    3.9583   -2.1268   -1.6480 N   0  0  0  0  0  0  0  0  0  0  0  0
    1.2150    4.2572    1.3632 N   0  0  0  0  0  0  0  0  0  0  0  0
    1.0882   -0.4921    1.0983 C   0  0  0  0  0  0  0  0  0  0  0  0
    0.5232    0.4156   -1.1612 C   0  0  0  0  0  0  0  0  0  0  0  0
   -1.2270   -0.6726    0.2220 C   0  0  0  0  0  0  0  0  0  0  0  0
    1.6026   -1.9194    1.0204 C   0  0  0  0  0  0  0  0  0  0  0  0
    0.1613    1.8892   -1.0852 C   0  0  0  0  0  0  0  0  0  0  0  0
   -2.1630   -0.4340   -0.7843 C   0  0  0  0  0  0  0  0  0  0  0  0
   -1.6137   -1.3215    1.3945 C   0  0  0  0  0  0  0  0  0  0  0  0
   -3.4857   -0.8443   -0.6178 C   0  0  0  0  0  0  0  0  0  0  0  0
   -2.9364   -1.7317    1.5610 C   0  0  0  0  0  0  0  0  0  0  0  0
   -3.8725   -1.4930    0.5548 C   0  0  0  0  0  0  0  0  0  0  0  0
   -4.4869   -0.5892   -1.6930 C   0  0  0  0  0  0  0  0  0  0  0  0
    3.5161   -1.8711   -0.3737 C   0  0  0  0  0  0  0  0  0  0  0  0
    0.5562    3.8075    0.2457 C   0  0  0  0  0  0  0  0  0  0  0  0
  1 11  1  0
  1 19  1  0
  2 12  1  0
  2 20  1  0
  3 19  2  0
  4 20  2  0
  5  8  1  0
  5  9  1  0
  5 10  1  0
  6 19  1  0
  7 20  1  0
  8 11  1  0
  9 12  1  0
 10 13  2  0
 10 14  1  0
 13 15  1  0
 14 16  2  0
 15 17  2  0
 15 18  1  0
 16 17  1  0
M  END
>  <PUBCHEM_COMPOUND_CID>  (1) 
29549

>  <PUBCHEM_CONFORMER_RMSD>  (1) 
0.8

>  <PUBCHEM_CONFORMER_DIVERSEORDER>  (1) 
7
234
99
31
79
60
66
84
69
116
53
180
25
122
34
75
77
130
224
10
9
146
136
231
193
5
228
232
26
68
38
216
208
56
46
141
2
42
206
131
112
87
223
209
67
50
132
217
198
227
108
23
169
200
41
158
213
89
135
139
182
113
218
207
100
37
225
119
147
190
120
20
126
91
226
24
55
220
63
171
230
140
4
61
40
98
179
196
177
64
18
52
17
127
204
221
92
168
74
187
229
88
129
170
123
105
155
104
70
185
44
114
125
51
172
233
39
137
144
157
197
47
192
110
6
175
45
106
43
85
212
76
82
222
186
111
184
138
203
32
62
48
94
188
1
151
78
183
22
149
163
191
8
173
90
176
72
15
115
33
161
93
21
14
3
178
29
219
205
210
164
154
57
118
73
59
97
133
58
109
121
152
156
80
102
162
65
199
181
174
145
128
36
134
16
148
201
124
83
150
143
13
30
214
153
96
142
160
166
71
95
202
35
81
54
189
86
19
194
215
103
117
49
195
27
12
107
101
165
159
211
11
28
167

>  <PUBCHEM_MMFF94_PARTIAL_CHARGES>  (1) 
28
1 -0.43
10 0.1
11 0.28
12 0.28
13 -0.15
14 -0.15
15 -0.14
16 -0.15
17 -0.15
18 0.14
19 0.78
2 -0.43
20 0.78
29 0.15
3 -0.57
30 0.15
31 0.15
32 0.15
36 0.37
37 0.37
38 0.37
39 0.37
4 -0.57
5 -0.84
6 -0.8
7 -0.8
8 0.37
9 0.37

>  <PUBCHEM_EFFECTIVE_ROTOR_COUNT>  (1) 
9

>  <PUBCHEM_PHARMACOPHORE_FEATURES>  (1) 
6
1 3 acceptor
1 4 acceptor
1 5 cation
1 6 donor
1 7 donor
6 10 13 14 15 16 17 rings

>  <PUBCHEM_HEAVY_ATOM_COUNT>  (1) 
20

>  <PUBCHEM_ATOM_DEF_STEREO_COUNT>  (1) 
0

>  <PUBCHEM_ATOM_UDEF_STEREO_COUNT>  (1) 
0

>  <PUBCHEM_BOND_DEF_STEREO_COUNT>  (1) 
0

>  <PUBCHEM_BOND_UDEF_STEREO_COUNT>  (1) 
0

>  <PUBCHEM_ISOTOPIC_ATOM_COUNT>  (1) 
0

>  <PUBCHEM_COMPONENT_COUNT>  (1) 
1

>  <PUBCHEM_CACTVS_TAUTO_COUNT>  (1) 
3

>  <PUBCHEM_CONFORMER_ID>  (1) 
0000736D00000007

>  <PUBCHEM_MMFF94_ENERGY>  (1) 
54.0148

>  <PUBCHEM_FEATURE_SELFOVERLAP>  (1) 
30.446

>  <PUBCHEM_SHAPE_FINGERPRINT>  (1) 
121448 382 7996821105013428107
12707595 3 18334858333351102323
12788726 201 17975972068603224107
13134695 92 18411136965285708029
13681431 1 18411986896290183420
1813 80 18130243574349840398
19765921 60 17410507897462102225
20600515 1 17823111494047299656
20671657 53 18411704278921146787
20711985 344 18048876295089801626
21029758 11 18335130969263544679
21041028 32 18337410261263105625
21524375 3 17255394350149864401
21731228 192 17398666187037509641
22112679 90 18126314993496776993
22620623 9 17911530796143472470
23175994 123 18409737248730140027
23419403 2 17392988085574227916
23557571 272 18192983838735774066
23558518 356 17542782015037410902
23559900 14 17677609933979459111
4663303 62 18191022502869496851
532947 4 18195808703082349476
6049 1 17749677414931836587
7364860 26 18265054819711795675
81228 2 18045785576688924714
84936 31 18055907938353062688

>  <PUBCHEM_SHAPE_MULTIPOLES>  (1) 
373.17
6.69
4.72
1.54
2.74
8.17
0.07
-6.1
1.76
-5.26
-0.84
0.47
-0.28
1.54

>  <PUBCHEM_SHAPE_SELFOVERLAP>  (1) 
759.64

>  <PUBCHEM_SHAPE_VOLUME>  (1) 
215.6

>  <PUBCHEM_COORDINATE_TYPE>  (1) 
2
5
10

$$$$
