29540
     RDKit          3D

 15 16  0  0  0  0  0  0  0  0999 V2000
    2.7740   -0.3194    0.6269 S   0  0  0  0  0  0  0  0  0  0  0  0
    1.4951   -2.5307   -0.5487 O   0  0  0  0  0  0  0  0  0  0  0  0
    0.2466   -0.5688   -0.0698 N   0  0  0  0  0  0  0  0  0  0  0  0
   -1.0350   -0.0188   -0.0282 C   0  0  0  0  0  0  0  0  0  0  0  0
    1.3916    0.3071   -0.0927 C   0  0  0  0  0  0  0  0  0  0  0  0
    0.5380   -1.9649   -0.0112 C   0  0  0  0  0  0  0  0  0  0  0  0
   -1.2459    1.2114    0.5947 C   0  0  0  0  0  0  0  0  0  0  0  0
   -2.1051   -0.6984   -0.6102 C   0  0  0  0  0  0  0  0  0  0  0  0
    1.4856    1.5313   -0.6040 C   0  0  0  0  0  0  0  0  0  0  0  0
   -2.5269    1.7617    0.6360 C   0  0  0  0  0  0  0  0  0  0  0  0
   -3.3861   -0.1479   -0.5690 C   0  0  0  0  0  0  0  0  0  0  0  0
    2.8040    2.0333   -0.4043 C   0  0  0  0  0  0  0  0  0  0  0  0
   -3.5970    1.0822    0.0542 C   0  0  0  0  0  0  0  0  0  0  0  0
   -0.4471   -2.8066    0.7734 C   0  0  0  0  0  0  0  0  0  0  0  0
    3.6081    1.1286    0.2531 C   0  0  0  0  0  0  0  0  0  0  0  0
  1  5  1  0
  1 15  1  0
  2  6  2  0
  3  4  1  0
  3  5  1  0
  3  6  1  0
  4  7  2  0
  4  8  1  0
  5  9  2  0
  6 14  1  0
  7 10  1  0
  8 11  2  0
  9 12  1  0
 10 13  2  0
 11 13  1  0
 12 15  2  0
M  END
>  <PUBCHEM_COMPOUND_CID>  (1) 
29540

>  <PUBCHEM_CONFORMER_RMSD>  (1) 
0.6

>  <PUBCHEM_CONFORMER_DIVERSEORDER>  (1) 
3
7
20
2
14
10
8
13
1
15
22
4
23
5
12
9
19
11
17
6
21
18
16

>  <PUBCHEM_MMFF94_PARTIAL_CHARGES>  (1) 
23
1 -0.08
10 -0.15
11 -0.15
12 -0.15
13 -0.15
14 0.06
15 -0.11
16 0.15
17 0.15
18 0.15
19 0.15
2 -0.57
20 0.15
21 0.15
22 0.15
26 0.15
3 -0.24
4 0.12
5 0.1
6 0.57
7 -0.15
8 -0.15
9 -0.15

>  <PUBCHEM_EFFECTIVE_ROTOR_COUNT>  (1) 
3

>  <PUBCHEM_PHARMACOPHORE_FEATURES>  (1) 
3
1 2 acceptor
5 1 5 9 12 15 rings
6 4 7 8 10 11 13 rings

>  <PUBCHEM_HEAVY_ATOM_COUNT>  (1) 
15

>  <PUBCHEM_ATOM_DEF_STEREO_COUNT>  (1) 
0

>  <PUBCHEM_ATOM_UDEF_STEREO_COUNT>  (1) 
0

>  <PUBCHEM_BOND_DEF_STEREO_COUNT>  (1) 
0

>  <PUBCHEM_BOND_UDEF_STEREO_COUNT>  (1) 
0

>  <PUBCHEM_ISOTOPIC_ATOM_COUNT>  (1) 
0

>  <PUBCHEM_COMPONENT_COUNT>  (1) 
1

>  <PUBCHEM_CACTVS_TAUTO_COUNT>  (1) 
1

>  <PUBCHEM_CONFORMER_ID>  (1) 
0000736400000003

>  <PUBCHEM_MMFF94_ENERGY>  (1) 
71.2067

>  <PUBCHEM_FEATURE_SELFOVERLAP>  (1) 
15.223

>  <PUBCHEM_SHAPE_FINGERPRINT>  (1) 
10465860 228 18269562636870612801
10967382 1 18410855451543534444
13380535 76 18410291436559757394
13538477 17 18117832429240498728
13583140 156 16805875307675915993
14787075 74 18265894851449825843
15279307 12 18271806787737622135
15309172 13 18260265265325027372
15442244 35 17909832037482231457
15490181 8 18410299128893676770
15536298 74 18130223740364661086
15775835 57 18344149193562450817
15906896 17 18125437755132951182
16945 1 18411707560249299775
1741750 31 18267304429393080728
18186145 218 18410575080426394004
20510252 161 18052827132473324922
20645476 183 18043260238987705116
20645477 70 18269269055124549183
21499 59 18409163346256543325
21524375 3 18410851092331077094
2255824 54 18266463092191052063
2334 1 18411140233645140968
23402539 116 18200302355206623700
23419403 2 13916211252203613795
23463225 33 18335977589006341456
23552423 10 18267582408297742503
25 1 18410576175621812436
2748010 2 18194697070787579014
305870 269 18336546023353379384
3071541 236 18118113895258120274
3091708 16 9191845173095525634
352729 6 18266184022406199910
4340502 62 18113623374729143859
474 4 18335984190297306889
57096353 35 18272642485257454717
6333272 397 18408324410278544419
6992083 37 17968936534384364740
7364860 26 18127974113577567838
74978 22 18263085586123756828
7832392 63 17836368142455749985
81228 2 17687740962196347906
84936 182 18201716219727966544

>  <PUBCHEM_SHAPE_MULTIPOLES>  (1) 
301.69
5.67
2.71
0.84
0.57
1.7
0.04
-3.11
-0.05
-0.56
0.19
0.06
0.02
-0.42

>  <PUBCHEM_SHAPE_SELFOVERLAP>  (1) 
637.162

>  <PUBCHEM_SHAPE_VOLUME>  (1) 
169.9

>  <PUBCHEM_COORDINATE_TYPE>  (1) 
2
5
10

$$$$
