29545
     RDKit          3D

 14 14  0  0  1  0  0  0  0  0999 V2000
    0.0512    2.2783    0.7172 O   0  0  0  0  0  0  0  0  0  0  0  0
    2.5486   -0.4190    0.2854 N   0  0  0  0  0  0  0  0  0  0  0  0
    0.4800    0.9224    0.5677 C   0  0  0  0  0  0  0  0  0  0  0  0
    2.0065    0.9258    0.4243 C   0  0  0  0  0  0  0  0  0  0  0  0
   -0.2267    0.3277   -0.6599 C   0  0  0  0  0  0  0  0  0  0  0  0
    4.0019   -0.3877    0.1927 C   0  0  0  0  0  0  0  0  0  0  0  0
   -1.6626   -0.0420   -0.3682 C   0  0  0  0  0  0  0  0  0  0  0  0
    4.4373    0.4408   -1.0127 C   0  0  0  0  0  0  0  0  0  0  0  0
    4.5357   -1.8136    0.0993 C   0  0  0  0  0  0  0  0  0  0  0  0
   -1.9542   -1.3141    0.0954 C   0  0  0  0  0  0  0  0  0  0  0  0
   -2.6590    0.8987   -0.5705 C   0  0  0  0  0  0  0  0  0  0  0  0
   -3.2796   -1.6553    0.3645 C   0  0  0  0  0  0  0  0  0  0  0  0
   -3.9844    0.5575   -0.3014 C   0  0  0  0  0  0  0  0  0  0  0  0
   -4.2948   -0.7195    0.1661 C   0  0  0  0  0  0  0  0  0  0  0  0
  1  3  1  0
  2  4  1  0
  2  6  1  0
  3  4  1  0
  3  5  1  0
  5  7  1  0
  6  8  1  0
  6  9  1  0
  7 10  2  0
  7 11  1  0
 10 12  1  0
 11 13  2  0
 12 14  2  0
 13 14  1  0
M  END
>  <PUBCHEM_COMPOUND_CID>  (1) 
29545

>  <PUBCHEM_CONFORMER_RMSD>  (1) 
0.6

>  <PUBCHEM_CONFORMER_DIVERSEORDER>  (1) 
1
50
22
46
41
23
11
54
63
2
57
44
17
67
48
52
66
60
65
5
43
51
27
47
26
64
56
37
25
36
45
9
30
20
61
32
34
19
35
10
24
28
31
55
38
7
49
3
33
6
16
13
40
15
59
62
29
21
14
4
18
39
53
58
42
8
12

>  <PUBCHEM_MMFF94_PARTIAL_CHARGES>  (1) 
19
1 -0.68
10 -0.15
11 -0.15
12 -0.15
13 -0.15
14 -0.15
2 -0.9
21 0.36
28 0.4
29 0.15
3 0.28
30 0.15
31 0.15
32 0.15
33 0.15
4 0.27
5 0.14
6 0.27
7 -0.14

>  <PUBCHEM_EFFECTIVE_ROTOR_COUNT>  (1) 
5

>  <PUBCHEM_PHARMACOPHORE_FEATURES>  (1) 
6
1 1 acceptor
1 1 donor
1 2 cation
1 2 donor
3 6 8 9 hydrophobe
6 7 10 11 12 13 14 rings

>  <PUBCHEM_HEAVY_ATOM_COUNT>  (1) 
14

>  <PUBCHEM_ATOM_DEF_STEREO_COUNT>  (1) 
0

>  <PUBCHEM_ATOM_UDEF_STEREO_COUNT>  (1) 
1

>  <PUBCHEM_BOND_DEF_STEREO_COUNT>  (1) 
0

>  <PUBCHEM_BOND_UDEF_STEREO_COUNT>  (1) 
0

>  <PUBCHEM_ISOTOPIC_ATOM_COUNT>  (1) 
0

>  <PUBCHEM_COMPONENT_COUNT>  (1) 
1

>  <PUBCHEM_CACTVS_TAUTO_COUNT>  (1) 
1

>  <PUBCHEM_CONFORMER_ID>  (1) 
0000736900000001

>  <PUBCHEM_MMFF94_ENERGY>  (1) 
21.0687

>  <PUBCHEM_FEATURE_SELFOVERLAP>  (1) 
30.446

>  <PUBCHEM_SHAPE_FINGERPRINT>  (1) 
10465860 250 18342454833216623184
10751810 167 18260830401374480929
11128504 68 16153717522344516462
11543360 7 17530970210917668652
12032990 46 18412825797876490049
12186901 62 17530953658335106783
124424 183 18343578547459898397
12616999 72 18259708913206108046
12670546 56 12895073977112138742
13296908 3 18342730858006455416
14123255 52 8862933975302467088
14251731 8 18335981978325677086
14252887 29 17489873726483895262
15242433 33 18334860519626099470
17804303 29 18409730698915134359
17834074 16 18334856125516041330
18186145 218 14562533994135744636
19422 9 18260832600577019644
20281407 28 18413388748146390104
20281475 54 18409447011603121806
20645477 70 18060135462041351404
20671657 53 18343024397715391560
20871999 31 17967809448945008181
21499 59 10953454132948040913
22094290 60 17967248693783146093
2215653 11 18341324527058372735
22485316 2 18411697707873956014
22926399 37 12396297045626508271
23175994 123 17847064397919082921
23227448 37 10666103370736512530
23402539 116 17846208948272041189
23403322 49 18411135818455911331
23559900 14 18410568484010696504
265663 24 11312057634270626548
3004659 81 18187645765728311722
314173 85 17418097602974814368
4921388 177 16298679364032310507
6333272 397 8790880800632892928
77779 3 18260830414406998060
83771 10 18409729573264470184

>  <PUBCHEM_SHAPE_MULTIPOLES>  (1) 
277.26
9.82
1.75
0.84
5.46
0.1
0.06
3.62
0.99
0.12
-0.32
0.25
-0.16
0.18

>  <PUBCHEM_SHAPE_SELFOVERLAP>  (1) 
550.528

>  <PUBCHEM_SHAPE_VOLUME>  (1) 
165.8

>  <PUBCHEM_COORDINATE_TYPE>  (1) 
2
5
10

$$$$
