29557
     RDKit          3D

 17 19  0  0  1  0  0  0  0  0999 V2000
    1.8164   -0.1458    0.6482 N   0  0  0  0  0  0  0  0  0  0  0  0
   -1.9146    2.0129    0.2761 N   0  0  0  0  0  0  0  0  0  0  0  0
    0.8404   -0.3144   -0.4456 C   0  0  0  0  0  0  0  0  0  0  0  0
    3.1289   -0.5116    0.0836 C   0  0  0  0  0  0  0  0  0  0  0  0
    1.5967    0.2432   -1.6472 C   0  0  0  0  0  0  0  0  0  0  0  0
    3.0364   -0.1850   -1.4116 C   0  0  0  0  0  0  0  0  0  0  0  0
   -0.4537    0.4051   -0.1733 C   0  0  0  0  0  0  0  0  0  0  0  0
    4.2576    0.2592    0.7601 C   0  0  0  0  0  0  0  0  0  0  0  0
    1.4866   -0.9492    1.8251 C   0  0  0  0  0  0  0  0  0  0  0  0
   -1.7517   -0.1745   -0.1310 C   0  0  0  0  0  0  0  0  0  0  0  0
   -0.5853    1.7502    0.0803 C   0  0  0  0  0  0  0  0  0  0  0  0
    5.6005   -0.0451    0.1216 C   0  0  0  0  0  0  0  0  0  0  0  0
   -2.6505    0.8559    0.1529 C   0  0  0  0  0  0  0  0  0  0  0  0
   -2.2507   -1.4804   -0.3070 C   0  0  0  0  0  0  0  0  0  0  0  0
   -4.0289    0.6449    0.2698 C   0  0  0  0  0  0  0  0  0  0  0  0
   -3.6273   -1.7066   -0.1929 C   0  0  0  0  0  0  0  0  0  0  0  0
   -4.5009   -0.6587    0.0911 C   0  0  0  0  0  0  0  0  0  0  0  0
  1  3  1  0
  1  4  1  0
  1  9  1  0
  2 11  1  0
  2 13  1  0
  3  5  1  0
  3  7  1  0
  4  6  1  0
  4  8  1  0
  5  6  1  0
  7 10  1  0
  7 11  2  0
  8 12  1  0
 10 13  2  0
 10 14  1  0
 13 15  1  0
 14 16  2  0
 15 17  2  0
 16 17  1  0
M  END
>  <PUBCHEM_COMPOUND_CID>  (1) 
29557

>  <PUBCHEM_CONFORMER_RMSD>  (1) 
0.6

>  <PUBCHEM_CONFORMER_DIVERSEORDER>  (1) 
1
17
27
15
24
20
9
36
6
3
32
31
5
2
10
30
33
16
23
8
28
26
19
22
25
34
35
12
21
29
13
18
7
14
4
11

>  <PUBCHEM_MMFF94_PARTIAL_CHARGES>  (1) 
18
1 -0.81
11 -0.3
13 -0.15
14 -0.15
15 -0.15
16 -0.15
17 -0.15
2 0.03
29 0.15
3 0.45
33 0.27
34 0.15
35 0.15
36 0.15
37 0.15
4 0.27
7 -0.18
9 0.27

>  <PUBCHEM_EFFECTIVE_ROTOR_COUNT>  (1) 
3

>  <PUBCHEM_PHARMACOPHORE_FEATURES>  (1) 
7
1 1 cation
1 12 hydrophobe
1 2 cation
1 2 donor
5 1 3 4 5 6 rings
5 2 7 10 11 13 rings
6 10 13 14 15 16 17 rings

>  <PUBCHEM_HEAVY_ATOM_COUNT>  (1) 
17

>  <PUBCHEM_ATOM_DEF_STEREO_COUNT>  (1) 
0

>  <PUBCHEM_ATOM_UDEF_STEREO_COUNT>  (1) 
2

>  <PUBCHEM_BOND_DEF_STEREO_COUNT>  (1) 
0

>  <PUBCHEM_BOND_UDEF_STEREO_COUNT>  (1) 
0

>  <PUBCHEM_ISOTOPIC_ATOM_COUNT>  (1) 
0

>  <PUBCHEM_COMPONENT_COUNT>  (1) 
1

>  <PUBCHEM_CACTVS_TAUTO_COUNT>  (1) 
1

>  <PUBCHEM_CONFORMER_ID>  (1) 
0000737500000001

>  <PUBCHEM_MMFF94_ENERGY>  (1) 
28.3678

>  <PUBCHEM_FEATURE_SELFOVERLAP>  (1) 
35.612

>  <PUBCHEM_SHAPE_FINGERPRINT>  (1) 
10366900 7 16917341524567538291
11132069 177 18343027679133286845
11578080 2 17751612494571329253
12236239 1 17967251992265197238
13134695 92 15357697505014316758
13214271 11 17989202646818521109
13288520 33 18411138030622362790
13583140 156 17913456140130587610
14115302 16 17749676289170194467
14386348 63 17632298973229213279
14787075 74 18261391208714488024
15219456 202 17418379060407470662
15375358 24 17846500318230688815
15375462 189 18113899368726217603
16752209 62 18337382761035720159
16945 1 18341616984556648189
17349148 13 17167859768704572448
17862501 102 18114176428650582106
1813 80 17096371636197129718
18186145 218 13045939123047846405
18785283 64 16915361420390828792
19049666 15 17129877019021307893
192875 21 17240486913987120948
200 152 16950279607037760373
20279233 1 17704358766237688399
20510252 161 18059014969446009233
20600515 1 18272663367367556373
20645477 70 15140963946221525514
21267235 1 18337397127411493211
22854114 59 16630528440109827878
2297311 6 18201730548002226436
23175994 123 14273740629201975806
232386 152 18337954592580719551
23402539 116 18411694400490714542
23557571 272 18130794430044529888
23559900 14 18129389219839987302
26918003 58 16950567687853585481
34934 24 18188766146306578537
474 4 17605566663473022788
67856867 119 18188777291820974492
7364860 26 17985549102939874265
7495541 125 17989201586283190088
77492 1 17967258576307552893

>  <PUBCHEM_SHAPE_MULTIPOLES>  (1) 
339.89
9.36
1.48
1.18
4.69
0.25
-0.04
-1.45
0.69
-1.54
0.12
1.06
-0.17
-0.41

>  <PUBCHEM_SHAPE_SELFOVERLAP>  (1) 
730.655

>  <PUBCHEM_SHAPE_VOLUME>  (1) 
192.4

>  <PUBCHEM_COORDINATE_TYPE>  (1) 
2
5
10

$$$$
