29551
     RDKit          3D

 21 21  0  0  0  0  0  0  0  0999 V2000
    1.5533    2.4133    0.3118 O   0  0  0  0  0  0  0  0  0  0  0  0
    1.6663   -2.3750   -0.3359 O   0  0  0  0  0  0  0  0  0  0  0  0
   -5.3909   -0.1840    0.2559 O   0  0  0  0  0  0  0  0  0  0  0  0
    3.5626    2.4875   -0.8093 O   0  0  0  0  0  0  0  0  0  0  0  0
    3.7532   -2.3441    0.6354 O   0  0  0  0  0  0  0  0  0  0  0  0
    0.1641   -0.0240    0.0542 N   0  0  0  0  0  0  0  0  0  0  0  0
    3.4415    2.8898    1.4514 N   0  0  0  0  0  0  0  0  0  0  0  0
    3.4900   -2.7318   -1.6157 N   0  0  0  0  0  0  0  0  0  0  0  0
    0.8403    0.5854   -1.0738 C   0  0  0  0  0  0  0  0  0  0  0  0
    0.9543   -0.6038    1.1219 C   0  0  0  0  0  0  0  0  0  0  0  0
   -1.2447   -0.0641    0.1056 C   0  0  0  0  0  0  0  0  0  0  0  0
    0.8829    2.0942   -0.9011 C   0  0  0  0  0  0  0  0  0  0  0  0
    1.0695   -2.1059    0.9265 C   0  0  0  0  0  0  0  0  0  0  0  0
   -1.8864   -0.6647    1.1888 C   0  0  0  0  0  0  0  0  0  0  0  0
   -1.9966    0.4964   -0.9271 C   0  0  0  0  0  0  0  0  0  0  0  0
   -3.2797   -0.7047    1.2394 C   0  0  0  0  0  0  0  0  0  0  0  0
   -3.3898    0.4563   -0.8766 C   0  0  0  0  0  0  0  0  0  0  0  0
   -4.0315   -0.1443    0.2066 C   0  0  0  0  0  0  0  0  0  0  0  0
    2.9080    2.5871    0.2231 C   0  0  0  0  0  0  0  0  0  0  0  0
    3.0315   -2.4715   -0.3479 C   0  0  0  0  0  0  0  0  0  0  0  0
   -6.0979    0.4077   -0.8331 C   0  0  0  0  0  0  0  0  0  0  0  0
  1 12  1  0
  1 19  1  0
  2 13  1  0
  2 20  1  0
  3 18  1  0
  3 21  1  0
  4 19  2  0
  5 20  2  0
  6  9  1  0
  6 10  1  0
  6 11  1  0
  7 19  1  0
  8 20  1  0
  9 12  1  0
 10 13  1  0
 11 14  2  0
 11 15  1  0
 14 16  1  0
 15 17  2  0
 16 18  2  0
 17 18  1  0
M  END
>  <PUBCHEM_COMPOUND_CID>  (1) 
29551

>  <PUBCHEM_CONFORMER_RMSD>  (1) 
1

>  <PUBCHEM_CONFORMER_DIVERSEORDER>  (1) 
5
50
36
55
17
53
34
2
26
4
19
9
51
45
39
24
10
32
33
41
31
48
58
23
25
16
29
35
18
44
20
43
38
52
28
21
30
22
49
42
40
8
1
46
27
37
57
56
47
54
6
7
11
13
14
15
12
3

>  <PUBCHEM_MMFF94_PARTIAL_CHARGES>  (1) 
29
1 -0.43
10 0.37
11 0.1
12 0.28
13 0.28
14 -0.15
15 -0.15
16 -0.15
17 -0.15
18 0.08
19 0.78
2 -0.43
20 0.78
21 0.28
3 -0.36
30 0.15
31 0.15
32 0.15
33 0.15
37 0.37
38 0.37
39 0.37
4 -0.57
40 0.37
5 -0.57
6 -0.84
7 -0.8
8 -0.8
9 0.37

>  <PUBCHEM_EFFECTIVE_ROTOR_COUNT>  (1) 
10

>  <PUBCHEM_PHARMACOPHORE_FEATURES>  (1) 
7
1 3 acceptor
1 4 acceptor
1 5 acceptor
1 6 cation
1 7 donor
1 8 donor
6 11 14 15 16 17 18 rings

>  <PUBCHEM_HEAVY_ATOM_COUNT>  (1) 
21

>  <PUBCHEM_ATOM_DEF_STEREO_COUNT>  (1) 
0

>  <PUBCHEM_ATOM_UDEF_STEREO_COUNT>  (1) 
0

>  <PUBCHEM_BOND_DEF_STEREO_COUNT>  (1) 
0

>  <PUBCHEM_BOND_UDEF_STEREO_COUNT>  (1) 
0

>  <PUBCHEM_ISOTOPIC_ATOM_COUNT>  (1) 
0

>  <PUBCHEM_COMPONENT_COUNT>  (1) 
1

>  <PUBCHEM_CACTVS_TAUTO_COUNT>  (1) 
3

>  <PUBCHEM_CONFORMER_ID>  (1) 
0000736F00000005

>  <PUBCHEM_MMFF94_ENERGY>  (1) 
66.0359

>  <PUBCHEM_FEATURE_SELFOVERLAP>  (1) 
35.522

>  <PUBCHEM_SHAPE_FINGERPRINT>  (1) 
11680986 33 18186810205325459011
12788726 201 17399240746361177090
13533116 47 18413393138024966225
13955234 65 18413389847420868763
15238133 3 14201383955738850773
15536298 74 18187364333537308465
1813 80 17843975749386942670
18222031 100 18199189494778676878
18915476 22 18337966674149766907
20369508 70 18335138644354492783
20388580 30 18200878366002682558
20645477 70 18409726266530179055
20671657 53 18266179426664891667
21452121 103 18334849533237088249
22182313 1 17749655325809317797
23352939 185 18270689654001501130
23419403 2 18115569462469614036
23557571 272 17762892166097747278
23559900 14 17967540068801827455
2748010 2 17749680670369165459
312423 11 18131079199487692017
3411729 13 18187920720554296760
42630746 31 18410006658658029718
4663303 62 18408042917990076154
495365 180 18408881858647865363
5104073 3 18187367619678122073
59755656 215 18333731342495894236
7364860 26 18410294717798480137
7471813 234 18130501929802186153
81228 2 17546729257770353274
84936 31 18272925038323632150
9709674 26 18041284369917799851
9841814 1 18261106314416237530

>  <PUBCHEM_SHAPE_MULTIPOLES>  (1) 
387.88
9.46
3.37
1.33
11.61
0.45
-0.02
0.17
1.1
-7.07
0.05
-0.35
-0.1
1.51

>  <PUBCHEM_SHAPE_SELFOVERLAP>  (1) 
790.958

>  <PUBCHEM_SHAPE_VOLUME>  (1) 
223.6

>  <PUBCHEM_COORDINATE_TYPE>  (1) 
2
5
10

$$$$
