2956
     RDKit          3D

 31 32  0  0  1  0  0  0  0  0999 V2000
    4.7739    0.5225    2.9931 F   0  0  0  0  0  0  0  0  0  0  0  0
    6.0111    1.8726   -1.3743 F   0  0  0  0  0  0  0  0  0  0  0  0
   -1.0907    1.3132   -0.3442 O   0  0  0  0  0  0  0  0  0  0  0  0
   -2.4512    2.2678    1.2446 O   0  0  0  0  0  0  0  0  0  0  0  0
   -0.3516   -1.5018    1.5256 O   0  0  0  0  0  0  0  0  0  0  0  0
    1.5713   -1.1021   -1.9467 O   0  0  0  0  0  0  0  0  0  0  0  0
   -2.0054   -1.0735   -0.0450 N   0  0  0  0  0  0  0  0  0  0  0  0
    1.0950   -2.7906   -0.4254 N   0  0  0  0  0  0  0  0  0  0  0  0
   -0.4630    2.5809   -0.5633 C   0  0  0  0  0  0  0  0  0  0  0  0
   -2.7196   -0.0797    0.7221 C   0  0  0  0  0  0  0  0  0  0  0  0
   -0.3377   -2.7450   -0.5549 C   0  0  0  0  0  0  0  0  0  0  0  0
   -4.1862   -0.0568    0.3611 C   0  0  0  0  0  0  0  0  0  0  0  0
   -2.0783    1.2958    0.5953 C   0  0  0  0  0  0  0  0  0  0  0  0
    0.1684    3.0440    0.7489 C   0  0  0  0  0  0  0  0  0  0  0  0
    0.6074    2.3851   -1.6349 C   0  0  0  0  0  0  0  0  0  0  0  0
   -1.5234    3.5734   -1.0379 C   0  0  0  0  0  0  0  0  0  0  0  0
   -0.8661   -1.7090    0.4285 C   0  0  0  0  0  0  0  0  0  0  0  0
   -0.9604   -4.1080   -0.2954 C   0  0  0  0  0  0  0  0  0  0  0  0
   -5.0674   -0.9536    0.9656 C   0  0  0  0  0  0  0  0  0  0  0  0
   -4.6598    0.8613   -0.5763 C   0  0  0  0  0  0  0  0  0  0  0  0
    1.9422   -1.9533   -1.1424 C   0  0  0  0  0  0  0  0  0  0  0  0
    3.3990   -2.2114   -0.8090 C   0  0  0  0  0  0  0  0  0  0  0  0
   -6.4217   -0.9324    0.6326 C   0  0  0  0  0  0  0  0  0  0  0  0
   -6.0143    0.8824   -0.9092 C   0  0  0  0  0  0  0  0  0  0  0  0
    4.1027   -1.0089   -0.2381 C   0  0  0  0  0  0  0  0  0  0  0  0
   -6.8951   -0.0145   -0.3047 C   0  0  0  0  0  0  0  0  0  0  0  0
    4.7440   -0.1075   -1.0875 C   0  0  0  0  0  0  0  0  0  0  0  0
    4.1125   -0.7960    1.1404 C   0  0  0  0  0  0  0  0  0  0  0  0
    4.7639    0.3184    1.6695 C   0  0  0  0  0  0  0  0  0  0  0  0
    5.3953    1.0070   -0.5586 C   0  0  0  0  0  0  0  0  0  0  0  0
    5.4053    1.2199    0.8199 C   0  0  0  0  0  0  0  0  0  0  0  0
  1 29  1  0
  2 30  1  0
  3  9  1  0
  3 13  1  0
  4 13  2  0
  5 17  2  0
  6 21  2  0
  7 10  1  0
  7 17  1  0
  8 11  1  0
  8 21  1  0
  9 14  1  0
  9 15  1  0
  9 16  1  0
 10 12  1  0
 10 13  1  0
 11 17  1  0
 11 18  1  0
 12 19  2  0
 12 20  1  0
 19 23  1  0
 20 24  2  0
 21 22  1  0
 22 25  1  0
 23 26  2  0
 24 26  1  0
 25 27  2  0
 25 28  1  0
 27 30  1  0
 28 29  2  0
 29 31  1  0
 30 31  2  0
M  END
>  <PUBCHEM_COMPOUND_CID>  (1) 
2956

>  <PUBCHEM_CONFORMER_RMSD>  (1) 
1.6

>  <PUBCHEM_CONFORMER_DIVERSEORDER>  (1) 
1
22
21
52
50
5
4
7
41
24
2
3
27
14
38
11
46
19
29
34
48
15
35
16
10
39
6
26
49
42
30
9
45
43
8
28
53
47
23
31
33
36
18
44
25
17
40
32
51
12
37
13
20

>  <PUBCHEM_MMFF94_PARTIAL_CHARGES>  (1) 
37
1 -0.19
10 0.5
11 0.36
12 -0.14
13 0.66
17 0.57
19 -0.15
2 -0.19
20 -0.15
21 0.57
22 0.2
23 -0.15
24 -0.15
25 -0.14
26 -0.15
27 -0.15
28 -0.15
29 0.19
3 -0.43
30 0.19
31 -0.15
34 0.37
4 -0.57
44 0.37
48 0.15
49 0.15
5 -0.57
52 0.15
53 0.15
54 0.15
55 0.15
56 0.15
57 0.15
6 -0.57
7 -0.73
8 -0.73
9 0.28

>  <PUBCHEM_EFFECTIVE_ROTOR_COUNT>  (1) 
11

>  <PUBCHEM_PHARMACOPHORE_FEATURES>  (1) 
8
1 4 acceptor
1 5 acceptor
1 6 acceptor
1 7 donor
1 8 donor
4 9 14 15 16 hydrophobe
6 12 19 20 23 24 26 rings
6 25 27 28 29 30 31 rings

>  <PUBCHEM_HEAVY_ATOM_COUNT>  (1) 
31

>  <PUBCHEM_ATOM_DEF_STEREO_COUNT>  (1) 
0

>  <PUBCHEM_ATOM_UDEF_STEREO_COUNT>  (1) 
2

>  <PUBCHEM_BOND_DEF_STEREO_COUNT>  (1) 
0

>  <PUBCHEM_BOND_UDEF_STEREO_COUNT>  (1) 
0

>  <PUBCHEM_ISOTOPIC_ATOM_COUNT>  (1) 
0

>  <PUBCHEM_COMPONENT_COUNT>  (1) 
1

>  <PUBCHEM_CACTVS_TAUTO_COUNT>  (1) 
4

>  <PUBCHEM_CONFORMER_ID>  (1) 
00000B8C00000001

>  <PUBCHEM_MMFF94_ENERGY>  (1) 
75.4445

>  <PUBCHEM_FEATURE_SELFOVERLAP>  (1) 
40.596

>  <PUBCHEM_SHAPE_FINGERPRINT>  (1) 
10165383 225 18060423543242219882
10670039 82 18265633008805081406
10906281 52 18262527987994829937
11112241 14 17202181092463298633
12166972 35 17604159137632396959
12596602 18 17313109682992854778
12788726 201 18260552216865497864
13402501 40 18342457041220132208
1361 2 18412547612923797514
13617811 41 18411976975232877561
14068700 686 18340209566454345045
14840074 17 17989486320934499805
15183329 4 17748827410681126557
15403338 16 17168130235511402594
21703447 108 18047749300446983107
3004659 81 17894918438094367500
5265222 85 17037838390830500940
6004065 56 18341044216397691741

>  <PUBCHEM_SHAPE_MULTIPOLES>  (1) 
589.98
14.81
3.95
1.63
4.05
0.32
0.51
-1.99
1.61
-0.11
-1.09
-1.94
-0.36
0.87

>  <PUBCHEM_SHAPE_SELFOVERLAP>  (1) 
1237.182

>  <PUBCHEM_SHAPE_VOLUME>  (1) 
333

>  <PUBCHEM_COORDINATE_TYPE>  (1) 
2
5
10

$$$$
