29568
     RDKit          3D

  9  9  0  0  0  0  0  0  0  0999 V2000
   -0.0002   -2.6122    0.0011 Br  0  0  0  0  0  0  0  0  0  0  0  0
   -2.7520   -0.7836   -0.0020 Cl  0  0  0  0  0  0  0  0  0  0  0  0
    2.7522   -0.7836    0.0000 Cl  0  0  0  0  0  0  0  0  0  0  0  0
    0.0003   -0.6984   -0.0001 C   0  0  0  0  0  0  0  0  0  0  0  0
   -1.2078   -0.0010    0.0012 C   0  0  0  0  0  0  0  0  0  0  0  0
    1.2082   -0.0007   -0.0011 C   0  0  0  0  0  0  0  0  0  0  0  0
   -1.2082    1.3938    0.0014 C   0  0  0  0  0  0  0  0  0  0  0  0
    1.2079    1.3942   -0.0009 C   0  0  0  0  0  0  0  0  0  0  0  0
   -0.0003    2.0914    0.0003 C   0  0  0  0  0  0  0  0  0  0  0  0
  1  4  1  0
  2  5  1  0
  3  6  1  0
  4  5  2  0
  4  6  1  0
  5  7  1  0
  6  8  2  0
  7  9  2  0
  8  9  1  0
M  END
>  <PUBCHEM_COMPOUND_CID>  (1) 
29568

>  <PUBCHEM_CONFORMER_RMSD>  (1) 
0.4

>  <PUBCHEM_CONFORMER_DIVERSEORDER>  (1) 
1

>  <PUBCHEM_MMFF94_PARTIAL_CHARGES>  (1) 
12
1 -0.11
10 0.15
11 0.15
12 0.15
2 -0.18
3 -0.18
4 0.11
5 0.18
6 0.18
7 -0.15
8 -0.15
9 -0.15

>  <PUBCHEM_EFFECTIVE_ROTOR_COUNT>  (1) 
0

>  <PUBCHEM_PHARMACOPHORE_FEATURES>  (1) 
2
1 1 hydrophobe
6 4 5 6 7 8 9 rings

>  <PUBCHEM_HEAVY_ATOM_COUNT>  (1) 
9

>  <PUBCHEM_ATOM_DEF_STEREO_COUNT>  (1) 
0

>  <PUBCHEM_ATOM_UDEF_STEREO_COUNT>  (1) 
0

>  <PUBCHEM_BOND_DEF_STEREO_COUNT>  (1) 
0

>  <PUBCHEM_BOND_UDEF_STEREO_COUNT>  (1) 
0

>  <PUBCHEM_ISOTOPIC_ATOM_COUNT>  (1) 
0

>  <PUBCHEM_COMPONENT_COUNT>  (1) 
1

>  <PUBCHEM_CACTVS_TAUTO_COUNT>  (1) 
1

>  <PUBCHEM_CONFORMER_ID>  (1) 
0000738000000001

>  <PUBCHEM_MMFF94_ENERGY>  (1) 
20.3051

>  <PUBCHEM_FEATURE_SELFOVERLAP>  (1) 
10.148

>  <PUBCHEM_SHAPE_FINGERPRINT>  (1) 
16945 1 18410855455833291939
18185500 45 18266739078146382159
193761 8 17762336907739325355
21040471 1 17906452482499465861
23552423 10 17830465981275752870
241688 4 18410856529580546945
2748010 2 18409724066979578021
5084963 1 18202563977362386970
66348 1 18410009914211857986

>  <PUBCHEM_SHAPE_MULTIPOLES>  (1) 
194.9
3
2.63
0.64
0
0.6
0
0.76
0
0
0
0
0.04
0

>  <PUBCHEM_SHAPE_SELFOVERLAP>  (1) 
372.149

>  <PUBCHEM_SHAPE_VOLUME>  (1) 
121.5

>  <PUBCHEM_COORDINATE_TYPE>  (1) 
2
5
10

$$$$
