29565
     RDKit          3D

 20 22  0  0  0  0  0  0  0  0999 V2000
    4.4358    0.0959    0.6722 O   0  0  0  0  0  0  0  0  0  0  0  0
   -5.9439   -0.6019   -0.3774 O   0  0  0  0  0  0  0  0  0  0  0  0
   -5.4874    1.5322   -0.1408 O   0  0  0  0  0  0  0  0  0  0  0  0
    4.6176    0.2951   -1.6531 O   0  0  0  0  0  0  0  0  0  0  0  0
   -5.1244    0.3338   -0.2149 N   0  0  0  0  0  0  0  0  0  0  0  0
   -0.2945    1.6420    0.3618 C   0  0  0  0  0  0  0  0  0  0  0  0
    0.8607    0.6630    0.3832 C   0  0  0  0  0  0  0  0  0  0  0  0
   -1.4785    0.7181    0.1663 C   0  0  0  0  0  0  0  0  0  0  0  0
    0.3912   -0.6598    0.2194 C   0  0  0  0  0  0  0  0  0  0  0  0
   -1.0493   -0.6258    0.0859 C   0  0  0  0  0  0  0  0  0  0  0  0
   -2.8168    1.0568    0.0698 C   0  0  0  0  0  0  0  0  0  0  0  0
    2.2083    0.9382    0.5356 C   0  0  0  0  0  0  0  0  0  0  0  0
    1.2770   -1.7242    0.2073 C   0  0  0  0  0  0  0  0  0  0  0  0
   -1.9666   -1.6477   -0.0934 C   0  0  0  0  0  0  0  0  0  0  0  0
   -3.7412    0.0265   -0.1109 C   0  0  0  0  0  0  0  0  0  0  0  0
    3.1009   -0.1350    0.5235 C   0  0  0  0  0  0  0  0  0  0  0  0
   -3.3204   -1.3122   -0.1919 C   0  0  0  0  0  0  0  0  0  0  0  0
    2.6401   -1.4529    0.3610 C   0  0  0  0  0  0  0  0  0  0  0  0
    5.1181    0.3069   -0.5364 C   0  0  0  0  0  0  0  0  0  0  0  0
    6.5735    0.5509   -0.2671 C   0  0  0  0  0  0  0  0  0  0  0  0
  1 16  1  0
  1 19  1  0
  2  5  1  0
  3  5  2  0
  4 19  2  0
  5 15  1  0
  6  7  1  0
  6  8  1  0
  7  9  2  0
  7 12  1  0
  8 10  2  0
  8 11  1  0
  9 10  1  0
  9 13  1  0
 10 14  1  0
 11 15  2  0
 12 16  2  0
 13 18  2  0
 14 17  2  0
 15 17  1  0
 16 18  1  0
 19 20  1  0
M  CHG  2   2  -1   5   1
M  END
>  <PUBCHEM_COMPOUND_CID>  (1) 
29565

>  <PUBCHEM_CONFORMER_RMSD>  (1) 
0.6

>  <PUBCHEM_CONFORMER_DIVERSEORDER>  (1) 
1
8
9
5
10
3
4
7
6
2

>  <PUBCHEM_MMFF94_PARTIAL_CHARGES>  (1) 
24
1 -0.23
11 -0.15
12 -0.15
13 -0.15
14 -0.15
15 0.13
16 0.08
17 -0.15
18 -0.15
19 0.66
2 -0.52
20 0.06
23 0.15
24 0.15
25 0.15
26 0.15
27 0.15
28 0.15
3 -0.52
4 -0.57
5 0.91
6 0.29
7 -0.14
8 -0.14

>  <PUBCHEM_EFFECTIVE_ROTOR_COUNT>  (1) 
3.2

>  <PUBCHEM_PHARMACOPHORE_FEATURES>  (1) 
7
1 2 acceptor
1 2 anion
1 3 acceptor
1 4 acceptor
5 6 7 8 9 10 rings
6 7 9 12 13 16 18 rings
6 8 10 11 14 15 17 rings

>  <PUBCHEM_HEAVY_ATOM_COUNT>  (1) 
20

>  <PUBCHEM_ATOM_DEF_STEREO_COUNT>  (1) 
0

>  <PUBCHEM_ATOM_UDEF_STEREO_COUNT>  (1) 
0

>  <PUBCHEM_BOND_DEF_STEREO_COUNT>  (1) 
0

>  <PUBCHEM_BOND_UDEF_STEREO_COUNT>  (1) 
0

>  <PUBCHEM_ISOTOPIC_ATOM_COUNT>  (1) 
0

>  <PUBCHEM_COMPONENT_COUNT>  (1) 
1

>  <PUBCHEM_CACTVS_TAUTO_COUNT>  (1) 
1

>  <PUBCHEM_CONFORMER_ID>  (1) 
0000737D00000001

>  <PUBCHEM_MMFF94_ENERGY>  (1) 
70.6867

>  <PUBCHEM_FEATURE_SELFOVERLAP>  (1) 
35.768

>  <PUBCHEM_SHAPE_FINGERPRINT>  (1) 
10906281 52 18338532862587507635
10968037 39 18411699902570511373
11287383 113 16298392374211907729
11315181 36 17846785135040199992
11796584 16 14333410060015754084
12011746 2 18272932721566340229
12236239 1 17967812756428333610
12390115 104 17986402100846372921
12670543 26 18271812289580211446
12788726 201 18059294249430551489
13288520 33 18202282533072757575
13760787 19 18186517722041996978
14251764 18 18411138022797202457
14528608 73 18411136961138641308
14573314 32 17131840832535062716
14617045 38 18412547613230090371
14790565 3 18339083662200235529
14911166 2 18342458153368741872
15048467 5 18040152911558099309
15196674 1 18339638941410287123
15242433 33 18409165497882216618
1601671 61 18409728452246545804
17834072 8 18201719565380453821
18681886 176 18271238430388824272
200 152 16702302351763544363
20645477 70 18341328873323247974
21267235 1 18341334491688636019
21637258 2 14979679845528756462
21641784 216 18114192882280826196
2215653 11 17775284945546330652
2297311 6 17989213645929247953
23035841 295 18342176657086051778
23175994 123 16917068884243603929
23402539 116 18272081725357409518
23402655 69 18341044134402753805
23557571 272 18130511846887220100
23559900 14 18130217267817616280
25147074 1 18266181617662319170
293599 30 18410292501748466179
296302 2 16950282909788606723
3004659 81 18335702685920755634
335352 9 18413105082852552557
34797466 226 17703514380342245364
34934 24 18410568474793215827
350125 39 18410855430686539153
3545911 37 18412261744417212539
3759504 43 17821451287150320763
4340502 62 16298391240419663522
4463277 17 18412262843707411184
465052 167 11600002171990963380
474 4 17385731313515893108
4990 188 17989494017784730614
5104073 3 18339074896277161987
542803 24 17603303752013913477
59755656 215 18342461422245367654
59755656 520 17022619788723762090

>  <PUBCHEM_SHAPE_MULTIPOLES>  (1) 
383.13
12.91
1.59
0.8
2.73
0.24
0.14
-2.47
3.04
-0.78
-0.11
0.74
-0.04
-0.26

>  <PUBCHEM_SHAPE_SELFOVERLAP>  (1) 
850.648

>  <PUBCHEM_SHAPE_VOLUME>  (1) 
205.9

>  <PUBCHEM_COORDINATE_TYPE>  (1) 
2
5
10

$$$$
