29567
     RDKit          3D

 11 10  0  0  0  0  0  0  0  0999 V2000
   -0.5789   -2.0288   -0.0005 Cl  0  0  0  0  0  0  0  0  0  0  0  0
   -2.8783   -0.4283    0.0007 O   0  0  0  0  0  0  0  0  0  0  0  0
    2.8349    0.9265    0.0005 O   0  0  0  0  0  0  0  0  0  0  0  0
   -1.9189    1.6592   -0.0012 O   0  0  0  0  0  0  0  0  0  0  0  0
    2.2839   -1.3122    0.0000 O   0  0  0  0  0  0  0  0  0  0  0  0
   -0.5341   -0.3040   -0.0012 C   0  0  0  0  0  0  0  0  0  0  0  0
    0.5962    0.4207   -0.0012 C   0  0  0  0  0  0  0  0  0  0  0  0
   -1.8289    0.4386   -0.0011 C   0  0  0  0  0  0  0  0  0  0  0  0
    1.9770   -0.1320   -0.0003 C   0  0  0  0  0  0  0  0  0  0  0  0
   -4.1798    0.1685    0.0025 C   0  0  0  0  0  0  0  0  0  0  0  0
    4.2269    0.5917    0.0017 C   0  0  0  0  0  0  0  0  0  0  0  0
  1  6  1  0
  2  8  1  0
  2 10  1  0
  3  9  1  0
  3 11  1  0
  4  8  2  0
  5  9  2  0
  6  7  2  0
  6  8  1  0
  7  9  1  0
M  END
>  <PUBCHEM_COMPOUND_CID>  (1) 
29567

>  <PUBCHEM_CONFORMER_RMSD>  (1) 
0.6

>  <PUBCHEM_CONFORMER_DIVERSEORDER>  (1) 
1
3
12
6
9
4
8
5
2
10
13
7
11

>  <PUBCHEM_MMFF94_PARTIAL_CHARGES>  (1) 
12
1 -0.14
10 0.28
11 0.28
12 0.15
2 -0.43
3 -0.43
4 -0.57
5 -0.57
6 0.15
7 -0.14
8 0.71
9 0.71

>  <PUBCHEM_EFFECTIVE_ROTOR_COUNT>  (1) 
4

>  <PUBCHEM_PHARMACOPHORE_FEATURES>  (1) 
2
1 4 acceptor
1 5 acceptor

>  <PUBCHEM_HEAVY_ATOM_COUNT>  (1) 
11

>  <PUBCHEM_ATOM_DEF_STEREO_COUNT>  (1) 
0

>  <PUBCHEM_ATOM_UDEF_STEREO_COUNT>  (1) 
0

>  <PUBCHEM_BOND_DEF_STEREO_COUNT>  (1) 
0

>  <PUBCHEM_BOND_UDEF_STEREO_COUNT>  (1) 
1

>  <PUBCHEM_ISOTOPIC_ATOM_COUNT>  (1) 
0

>  <PUBCHEM_COMPONENT_COUNT>  (1) 
1

>  <PUBCHEM_CACTVS_TAUTO_COUNT>  (1) 
1

>  <PUBCHEM_CONFORMER_ID>  (1) 
0000737F00000001

>  <PUBCHEM_MMFF94_ENERGY>  (1) 
25.2575

>  <PUBCHEM_FEATURE_SELFOVERLAP>  (1) 
10.149

>  <PUBCHEM_SHAPE_FINGERPRINT>  (1) 
10219947 1 18334297552555930567
11062470 55 18411419522599536021
12932764 1 17203313499245431492
13380535 76 18411701006435583414
14325111 11 18410855417231301313
14897335 6 18411134757978699894
15775835 57 18343303669194199695
170605 34 18261110777293140658
18186145 218 18271251508163346220
20645477 70 18340201874031202959
20871998 184 18199757018845797255
21293036 1 17775287179161380816
23235685 24 18411694404680043590
23402539 116 18341884216767664909
23402655 69 18271519819455743437
366044 4 18410292527518490835
6333449 129 18340485689469437127
69090 78 18342172284471955230

>  <PUBCHEM_SHAPE_MULTIPOLES>  (1) 
204.77
6.78
1.52
0.58
1
0.59
0
-1.85
-0.01
-0.16
0
-0.01
0.02
0

>  <PUBCHEM_SHAPE_SELFOVERLAP>  (1) 
387.937

>  <PUBCHEM_SHAPE_VOLUME>  (1) 
127

>  <PUBCHEM_COORDINATE_TYPE>  (1) 
2
5
10

$$$$
