29574
     RDKit          3D

 14 14  0  0  0  0  0  0  0  0999 V2000
    3.5138    0.0338    0.0020 O   0  0  0  0  0  0  0  0  0  0  0  0
   -3.5139    0.0336    0.0024 O   0  0  0  0  0  0  0  0  0  0  0  0
    2.4522    1.9553   -0.0002 O   0  0  0  0  0  0  0  0  0  0  0  0
   -2.4526    1.9552    0.0005 O   0  0  0  0  0  0  0  0  0  0  0  0
    2.4533    0.7018    0.0007 N   0  0  0  0  0  0  0  0  0  0  0  0
   -2.4534    0.7017    0.0005 N   0  0  0  0  0  0  0  0  0  0  0  0
    0.0002   -3.4892   -0.0012 N   0  0  0  0  0  0  0  0  0  0  0  0
    0.0000    0.7113   -0.0010 C   0  0  0  0  0  0  0  0  0  0  0  0
    1.2080    0.0138   -0.0001 C   0  0  0  0  0  0  0  0  0  0  0  0
   -1.2080    0.0138   -0.0012 C   0  0  0  0  0  0  0  0  0  0  0  0
    0.0000   -2.0786    0.0002 C   0  0  0  0  0  0  0  0  0  0  0  0
    1.2079   -1.3812    0.0005 C   0  0  0  0  0  0  0  0  0  0  0  0
   -1.2079   -1.3811   -0.0007 C   0  0  0  0  0  0  0  0  0  0  0  0
    0.0004    2.2097   -0.0023 C   0  0  0  0  0  0  0  0  0  0  0  0
  1  5  1  0
  2  6  1  0
  3  5  2  0
  4  6  2  0
  5  9  1  0
  6 10  1  0
  7 11  1  0
  8  9  2  0
  8 10  1  0
  8 14  1  0
  9 12  1  0
 10 13  2  0
 11 12  2  0
 11 13  1  0
M  CHG  4   1  -1   2  -1   5   1   6   1
M  END
>  <PUBCHEM_COMPOUND_CID>  (1) 
29574

>  <PUBCHEM_CONFORMER_RMSD>  (1) 
0.6

>  <PUBCHEM_CONFORMER_DIVERSEORDER>  (1) 
1

>  <PUBCHEM_MMFF94_PARTIAL_CHARGES>  (1) 
18
1 -0.52
10 0.13
11 0.1
12 -0.15
13 -0.15
14 0.14
15 0.15
16 0.15
2 -0.52
20 0.4
21 0.4
3 -0.52
4 -0.52
5 0.91
6 0.91
7 -0.9
8 -0.14
9 0.13

>  <PUBCHEM_EFFECTIVE_ROTOR_COUNT>  (1) 
2

>  <PUBCHEM_PHARMACOPHORE_FEATURES>  (1) 
9
1 1 acceptor
1 1 anion
1 2 acceptor
1 2 anion
1 3 acceptor
1 4 acceptor
1 7 cation
1 7 donor
6 8 9 10 11 12 13 rings

>  <PUBCHEM_HEAVY_ATOM_COUNT>  (1) 
14

>  <PUBCHEM_ATOM_DEF_STEREO_COUNT>  (1) 
0

>  <PUBCHEM_ATOM_UDEF_STEREO_COUNT>  (1) 
0

>  <PUBCHEM_BOND_DEF_STEREO_COUNT>  (1) 
0

>  <PUBCHEM_BOND_UDEF_STEREO_COUNT>  (1) 
0

>  <PUBCHEM_ISOTOPIC_ATOM_COUNT>  (1) 
0

>  <PUBCHEM_COMPONENT_COUNT>  (1) 
1

>  <PUBCHEM_CACTVS_TAUTO_COUNT>  (1) 
1

>  <PUBCHEM_CONFORMER_ID>  (1) 
0000738600000001

>  <PUBCHEM_MMFF94_ENERGY>  (1) 
84.1099

>  <PUBCHEM_FEATURE_SELFOVERLAP>  (1) 
45.834

>  <PUBCHEM_SHAPE_FINGERPRINT>  (1) 
1 1 18338516335310785471
10967382 1 18266741281401359942
13380535 76 18410572885645494371
14648413 74 17976542702522163385
16945 1 18410573989446424932
17990270 104 17977381634120720851
19021347 11 18338232661453263335
193761 8 17617940236102111972
20645476 183 17968677019733473302
20645477 70 18194957445148971495
20871998 184 17911528906057272566
21040471 1 18410574023969713094
21501502 16 18050565136634307385
21524375 3 18335136492385778450
2334 1 18410856594005095011
23402539 116 18270950340750878286
23463225 33 18334853879537945170
23552423 10 18122627150193316599
23559900 14 13084214819878154311
241688 4 16897364209707501026
2748010 2 18410300211056669383
43471831 8 18336544893856374818
528886 8 18411131433283453944
54173680 148 18121500421279073842
7364860 26 18052537664483588743
81228 2 17834666471970427547

>  <PUBCHEM_SHAPE_MULTIPOLES>  (1) 
249.69
3.96
2.95
0.57
0
1.67
0
-1.79
0
0
0
0
0.02
0

>  <PUBCHEM_SHAPE_SELFOVERLAP>  (1) 
532.555

>  <PUBCHEM_SHAPE_VOLUME>  (1) 
140.1

>  <PUBCHEM_COORDINATE_TYPE>  (1) 
2
5
10

$$$$
