29570
     RDKit          3D

  7  6  0  0  1  0  0  0  0  0999 V2000
    3.4240   -0.1163   -0.1826 Br  0  0  0  0  0  0  0  0  0  0  0  0
   -3.6570   -0.3494    0.1124 Br  0  0  0  0  0  0  0  0  0  0  0  0
    0.7348    1.3444    0.3243 O   0  0  0  0  0  0  0  0  0  0  0  0
    0.5704    0.0540   -0.2638 C   0  0  0  0  0  0  0  0  0  0  0  0
   -0.8129   -0.4971    0.1070 C   0  0  0  0  0  0  0  0  0  0  0  0
    1.6720   -0.8723    0.2352 C   0  0  0  0  0  0  0  0  0  0  0  0
   -1.9312    0.4369   -0.3325 C   0  0  0  0  0  0  0  0  0  0  0  0
  1  6  1  0
  2  7  1  0
  3  4  1  0
  4  5  1  0
  4  6  1  0
  5  7  1  0
M  END
>  <PUBCHEM_COMPOUND_CID>  (1) 
29570

>  <PUBCHEM_CONFORMER_RMSD>  (1) 
0.4

>  <PUBCHEM_CONFORMER_DIVERSEORDER>  (1) 
4
7
22
17
33
16
19
32
1
30
15
5
24
28
23
26
20
11
8
6
31
25
12
21
18
3
14
27
2
13
9
10
29
34

>  <PUBCHEM_MMFF94_PARTIAL_CHARGES>  (1) 
7
1 -0.23
15 0.4
2 -0.23
3 -0.68
4 0.28
6 0.23
7 0.23

>  <PUBCHEM_EFFECTIVE_ROTOR_COUNT>  (1) 
3

>  <PUBCHEM_PHARMACOPHORE_FEATURES>  (1) 
4
1 1 hydrophobe
1 2 hydrophobe
1 3 acceptor
1 3 donor

>  <PUBCHEM_HEAVY_ATOM_COUNT>  (1) 
7

>  <PUBCHEM_ATOM_DEF_STEREO_COUNT>  (1) 
0

>  <PUBCHEM_ATOM_UDEF_STEREO_COUNT>  (1) 
1

>  <PUBCHEM_BOND_DEF_STEREO_COUNT>  (1) 
0

>  <PUBCHEM_BOND_UDEF_STEREO_COUNT>  (1) 
0

>  <PUBCHEM_ISOTOPIC_ATOM_COUNT>  (1) 
0

>  <PUBCHEM_COMPONENT_COUNT>  (1) 
1

>  <PUBCHEM_CACTVS_TAUTO_COUNT>  (1) 
1

>  <PUBCHEM_CONFORMER_ID>  (1) 
0000738200000004

>  <PUBCHEM_MMFF94_ENERGY>  (1) 
6.3449

>  <PUBCHEM_FEATURE_SELFOVERLAP>  (1) 
20.297

>  <PUBCHEM_SHAPE_FINGERPRINT>  (1) 
10219947 1 17775287153212229158
11062470 55 12751520678074805055
12932764 1 16486679282297762615
14325111 11 18260547792647723447
18342897 14 18341899567381726785
20719005 15 18408041810215743286
21293036 1 18409733967142692606
29004967 10 18341331110926784490
5460574 1 10519982668829311711

>  <PUBCHEM_SHAPE_MULTIPOLES>  (1) 
150.07
6.16
1.01
0.69
1.31
0.13
0.02
-0.78
0.16
-0.15
-0.09
0
0
0.06

>  <PUBCHEM_SHAPE_SELFOVERLAP>  (1) 
240.457

>  <PUBCHEM_SHAPE_VOLUME>  (1) 
108.8

>  <PUBCHEM_COORDINATE_TYPE>  (1) 
2
5
10

$$$$
