29578
     RDKit          3D

 24 27  0  0  1  0  0  0  0  0999 V2000
    0.5587   -0.3858   -0.6429 O   0  0  0  0  0  0  0  0  0  0  0  0
    3.0557    0.4013    0.6704 N   0  0  0  0  0  0  0  0  0  0  0  0
   -2.6381   -2.4812    1.3607 N   0  0  0  0  0  0  0  0  0  0  0  0
    2.8738    0.2508   -0.7918 C   0  0  0  0  0  0  0  0  0  0  0  0
    3.2242   -1.1858   -1.2298 C   0  0  0  0  0  0  0  0  0  0  0  0
    4.6323   -1.5825   -0.8058 C   0  0  0  0  0  0  0  0  0  0  0  0
    4.4354    0.0738    1.0716 C   0  0  0  0  0  0  0  0  0  0  0  0
    4.8143   -1.3543    0.6865 C   0  0  0  0  0  0  0  0  0  0  0  0
    1.4375    0.5511   -1.2438 C   0  0  0  0  0  0  0  0  0  0  0  0
    2.7255    1.7495    1.1416 C   0  0  0  0  0  0  0  0  0  0  0  0
   -0.7976   -0.1402   -1.0220 C   0  0  0  0  0  0  0  0  0  0  0  0
   -1.2477    1.2450   -0.6005 C   0  0  0  0  0  0  0  0  0  0  0  0
   -1.6710   -1.2478   -0.4860 C   0  0  0  0  0  0  0  0  0  0  0  0
   -1.3652    1.6183    0.7537 C   0  0  0  0  0  0  0  0  0  0  0  0
   -1.8909   -1.4530    0.8806 C   0  0  0  0  0  0  0  0  0  0  0  0
   -1.5349    2.1936   -1.5990 C   0  0  0  0  0  0  0  0  0  0  0  0
   -2.2840   -2.1403   -1.3766 C   0  0  0  0  0  0  0  0  0  0  0  0
   -1.0703    0.7100    1.8734 C   0  0  0  0  0  0  0  0  0  0  0  0
   -1.2973   -0.6112    1.9268 C   0  0  0  0  0  0  0  0  0  0  0  0
   -1.7407    2.9352    1.0713 C   0  0  0  0  0  0  0  0  0  0  0  0
   -1.9221    3.4910   -1.2668 C   0  0  0  0  0  0  0  0  0  0  0  0
   -2.0222    3.8627    0.0684 C   0  0  0  0  0  0  0  0  0  0  0  0
   -3.0666   -3.1862   -0.9036 C   0  0  0  0  0  0  0  0  0  0  0  0
   -3.2086   -3.3139    0.4634 C   0  0  0  0  0  0  0  0  0  0  0  0
  1  9  1  0
  1 11  1  0
  2  4  1  0
  2  7  1  0
  2 10  1  0
  3 15  2  0
  3 24  1  0
  4  5  1  0
  4  9  1  0
  5  6  1  0
  6  8  1  0
  7  8  1  0
 11 12  1  0
 11 13  1  0
 12 14  2  0
 12 16  1  0
 13 15  1  0
 13 17  2  0
 14 18  1  0
 14 20  1  0
 15 19  1  0
 16 21  2  0
 17 23  1  0
 18 19  2  0
 20 22  2  0
 21 22  1  0
 23 24  2  0
M  END
>  <PUBCHEM_COMPOUND_CID>  (1) 
29578

>  <PUBCHEM_CONFORMER_RMSD>  (1) 
0.8

>  <PUBCHEM_CONFORMER_DIVERSEORDER>  (1) 
8
39
24
10
36
17
42
33
12
40
22
41
11
29
2
27
30
21
35
25
13
20
26
7
38
16
1
32
19
18
28
15
3
34
23
31
14
9
37
4
5
6

>  <PUBCHEM_MMFF94_PARTIAL_CHARGES>  (1) 
30
1 -0.56
10 0.27
11 0.57
12 -0.14
13 -0.14
14 0.03
15 0.34
16 -0.15
17 -0.15
18 -0.18
19 -0.18
2 -0.81
20 -0.15
21 -0.15
22 -0.15
23 -0.15
24 0.16
3 -0.62
4 0.27
40 0.15
41 0.15
42 0.15
43 0.15
44 0.15
45 0.15
46 0.15
47 0.15
48 0.15
7 0.27
9 0.28

>  <PUBCHEM_EFFECTIVE_ROTOR_COUNT>  (1) 
4.4

>  <PUBCHEM_PHARMACOPHORE_FEATURES>  (1) 
7
1 1 acceptor
1 2 cation
1 3 acceptor
6 12 14 16 20 21 22 rings
6 2 4 5 6 7 8 rings
6 3 13 15 17 23 24 rings
7 11 12 13 14 15 18 19 rings

>  <PUBCHEM_HEAVY_ATOM_COUNT>  (1) 
24

>  <PUBCHEM_ATOM_DEF_STEREO_COUNT>  (1) 
0

>  <PUBCHEM_ATOM_UDEF_STEREO_COUNT>  (1) 
2

>  <PUBCHEM_BOND_DEF_STEREO_COUNT>  (1) 
0

>  <PUBCHEM_BOND_UDEF_STEREO_COUNT>  (1) 
0

>  <PUBCHEM_ISOTOPIC_ATOM_COUNT>  (1) 
0

>  <PUBCHEM_COMPONENT_COUNT>  (1) 
1

>  <PUBCHEM_CACTVS_TAUTO_COUNT>  (1) 
1

>  <PUBCHEM_CONFORMER_ID>  (1) 
0000738A00000008

>  <PUBCHEM_MMFF94_ENERGY>  (1) 
65.9086

>  <PUBCHEM_FEATURE_SELFOVERLAP>  (1) 
35.541

>  <PUBCHEM_SHAPE_FINGERPRINT>  (1) 
10764073 3 17487925353156049667
11101153 10 18190187982862482876
11578080 2 18059007414540662889
121448 382 18126269862439737069
12363563 72 18115306829314463926
12422481 6 17978265736332962233
12553582 1 18123766501737822838
12633257 1 17702691902410127474
12643181 29 17907867202680091982
12788726 201 18261118486474600325
13004483 165 18339929319748876183
13583140 156 17917982859661928962
13681431 1 17830742319508455365
13911987 19 16886412503123515132
13955234 65 17185322478950349819
14178342 30 18335981965915925054
14223421 5 18272086141084845494
14840074 17 17115764061535956136
1813 80 18123195859703572363
20197701 30 18048311155167263517
20600515 1 17984147233808567047
21033648 29 18051406263325630832
21304303 282 17830414394444588565
21524375 3 18047194042499764317
23419403 2 17486751224987853393
23526113 38 17390495647617660127
23557571 272 18265596827330815664
23728640 28 18189057490706529362
3027735 51 18335696105324372715
3380486 145 17912625089195865447
35225 105 18262523572051271905
463206 1 17898843814680814442
469060 322 17195405996782316160
59755656 520 18122056507721782333
633830 44 10810713334655220823
6786 2 17907873803342289721
70251023 43 18337673121867756434
81228 2 18335424577612602413
90316 7 18269572661598399835
9981440 41 17344318109271676494

>  <PUBCHEM_SHAPE_MULTIPOLES>  (1) 
478.08
7.34
4.44
1.8
12.14
1.12
0.27
-4.1
0.45
-6.41
-0.45
-0.39
0.14
0.79

>  <PUBCHEM_SHAPE_SELFOVERLAP>  (1) 
1032.814

>  <PUBCHEM_SHAPE_VOLUME>  (1) 
258.9

>  <PUBCHEM_COORDINATE_TYPE>  (1) 
2
5
10

$$$$
