29577
     RDKit          3D

 22 24  0  0  1  0  0  0  0  0999 V2000
    3.6352    2.2097   -0.3987 O   0  0  0  0  0  0  0  0  0  0  0  0
    4.8144    0.1289   -0.1113 O   0  0  0  0  0  0  0  0  0  0  0  0
   -1.4657   -1.2825   -0.4844 N   0  0  0  0  0  0  0  0  0  0  0  0
   -0.8254    0.0309   -0.2299 C   0  0  0  0  0  0  0  0  0  0  0  0
   -1.3745    0.6331    1.0740 C   0  0  0  0  0  0  0  0  0  0  0  0
   -0.8567   -2.3472    0.3392 C   0  0  0  0  0  0  0  0  0  0  0  0
    0.6950   -0.0013   -0.2050 C   0  0  0  0  0  0  0  0  0  0  0  0
   -2.9260    0.6229    0.9992 C   0  0  0  0  0  0  0  0  0  0  0  0
    0.6440   -2.5301    0.0562 C   0  0  0  0  0  0  0  0  0  0  0  0
    1.3925   -1.2234   -0.0294 C   0  0  0  0  0  0  0  0  0  0  0  0
   -0.8362    2.0674    1.2172 C   0  0  0  0  0  0  0  0  0  0  0  0
   -0.8712   -0.2141    2.2556 C   0  0  0  0  0  0  0  0  0  0  0  0
   -3.5448    1.3709   -0.1881 C   0  0  0  0  0  0  0  0  0  0  0  0
   -1.5065   -1.5824   -1.9181 C   0  0  0  0  0  0  0  0  0  0  0  0
   -1.5949   -3.6860    0.2260 C   0  0  0  0  0  0  0  0  0  0  0  0
    1.4142    1.2004   -0.3348 C   0  0  0  0  0  0  0  0  0  0  0  0
    2.7965   -1.2384    0.0040 C   0  0  0  0  0  0  0  0  0  0  0  0
    2.7917    1.1474   -0.2894 C   0  0  0  0  0  0  0  0  0  0  0  0
   -5.0695    1.2348   -0.1883 C   0  0  0  0  0  0  0  0  0  0  0  0
    3.4641   -0.0387   -0.1243 C   0  0  0  0  0  0  0  0  0  0  0  0
   -5.6921    1.9411   -1.3823 C   0  0  0  0  0  0  0  0  0  0  0  0
    4.9160    1.5565   -0.2873 C   0  0  0  0  0  0  0  0  0  0  0  0
  1 18  1  0
  1 22  1  0
  2 20  1  0
  2 22  1  0
  3  4  1  0
  3  6  1  0
  3 14  1  0
  4  5  1  0
  4  7  1  0
  5  8  1  0
  5 11  1  0
  5 12  1  0
  6  9  1  0
  6 15  1  0
  7 10  2  0
  7 16  1  0
  8 13  1  0
  9 10  1  0
 10 17  1  0
 13 19  1  0
 16 18  2  0
 17 20  2  0
 18 20  1  0
 19 21  1  0
M  END
>  <PUBCHEM_COMPOUND_CID>  (1) 
29577

>  <PUBCHEM_CONFORMER_RMSD>  (1) 
0.8

>  <PUBCHEM_CONFORMER_DIVERSEORDER>  (1) 
7
11
6
10
12
9
3
4
2
8
5
1

>  <PUBCHEM_MMFF94_PARTIAL_CHARGES>  (1) 
16
1 -0.36
10 -0.14
14 0.27
16 -0.15
17 -0.15
18 0.08
2 -0.36
20 0.08
22 0.56
3 -0.81
4 0.41
43 0.15
44 0.15
6 0.27
7 -0.14
9 0.14

>  <PUBCHEM_EFFECTIVE_ROTOR_COUNT>  (1) 
5.4

>  <PUBCHEM_PHARMACOPHORE_FEATURES>  (1) 
9
1 1 acceptor
1 2 acceptor
1 21 hydrophobe
1 3 cation
3 5 11 12 hydrophobe
4 5 8 13 19 hydrophobe
5 1 2 18 20 22 rings
6 3 4 6 7 9 10 rings
6 7 10 16 17 18 20 rings

>  <PUBCHEM_HEAVY_ATOM_COUNT>  (1) 
22

>  <PUBCHEM_ATOM_DEF_STEREO_COUNT>  (1) 
0

>  <PUBCHEM_ATOM_UDEF_STEREO_COUNT>  (1) 
2

>  <PUBCHEM_BOND_DEF_STEREO_COUNT>  (1) 
0

>  <PUBCHEM_BOND_UDEF_STEREO_COUNT>  (1) 
0

>  <PUBCHEM_ISOTOPIC_ATOM_COUNT>  (1) 
0

>  <PUBCHEM_COMPONENT_COUNT>  (1) 
1

>  <PUBCHEM_CACTVS_TAUTO_COUNT>  (1) 
1

>  <PUBCHEM_CONFORMER_ID>  (1) 
0000738900000007

>  <PUBCHEM_MMFF94_ENERGY>  (1) 
81.4974

>  <PUBCHEM_FEATURE_SELFOVERLAP>  (1) 
45.868

>  <PUBCHEM_SHAPE_FINGERPRINT>  (1) 
10090160 65 18339641114806007849
10498660 4 18270972340127678272
10688039 33 17828775280659546811
10863032 1 18409453591451003307
10948715 1 18333733502916970707
11315181 36 17561090241693175952
11370993 70 18335984186213115179
11578080 2 16412936330619725667
11582403 64 17677040270654095961
11725454 13 17603860062385842513
11961588 58 18059278955025727017
12011746 2 18262810553623987286
12236239 1 17846214406526692773
12293681 160 18059852844561616561
12403260 363 18196087733705431400
12592029 89 18264488399598892235
12969540 114 18334846200295020157
13103583 49 7997682160574278389
13140716 1 18270122439177339888
13149001 5 17631719599700809881
13583140 156 17676497154596137553
14142880 1 18043527415812461502
14787075 74 18343865537380436323
15061688 2 18114183008340240321
15420108 30 16618152036753892274
15848702 105 18272081687114134307
16752209 62 18128812126459474806
16945 1 18195831581808555138
17138139 8 17844499250608887535
17492 54 18059850654291721317
20197701 30 18335419045879289315
20510252 161 18055364792900363066
20602899 9 15482674589022360719
20715895 44 18191017916061150789
21521721 280 18341898498357142809
21524375 3 18201444627285841464
22182313 1 18193585352868360339
23227448 37 18337957899452349389
23402539 116 18272928332094179988
23419403 2 15363898990891504539
23559900 14 18130794486459282104
2838139 119 18187075118887866261
335352 9 18409449151319826894
34934 24 18408321099128057352
350125 39 18121791778769499033
352729 6 18271260377497763258
3759504 43 18335138713363892383
394222 165 18265892446051869323
404807 14 14828847538908292222
4340502 62 18335990792104977051
474 4 18410293575342473656
5104073 3 18339359794859596632
53917941 68 18340474677210070685
59755656 520 18260264152981531374
633830 44 17843142328352582393
69090 78 18410012121951577209
8272917 22 18122909733588061807
9709674 26 18201168736363078718

>  <PUBCHEM_SHAPE_MULTIPOLES>  (1) 
436.03
8.77
3.11
1.32
1.85
2.46
0.26
-7.73
-2.98
0.87
-0.14
1.18
-0.04
0.08

>  <PUBCHEM_SHAPE_SELFOVERLAP>  (1) 
920.92

>  <PUBCHEM_SHAPE_VOLUME>  (1) 
246.8

>  <PUBCHEM_COORDINATE_TYPE>  (1) 
2
5
10

$$$$
