2957
     RDKit          3D

 19 20  0  0  0  0  0  0  0  0999 V2000
   -3.5732   -0.6320    0.3949 N   0  0  0  0  0  0  0  0  0  0  0  0
    5.2363   -0.2579   -0.0059 N   0  0  0  0  0  0  0  0  0  0  0  0
   -2.7315    0.2663   -0.1113 C   0  0  0  0  0  0  0  0  0  0  0  0
   -3.0872   -1.9069    0.9297 C   0  0  0  0  0  0  0  0  0  0  0  0
    1.1234    0.5935   -0.0104 C   0  0  0  0  0  0  0  0  0  0  0  0
    3.8553    0.0281   -0.0074 C   0  0  0  0  0  0  0  0  0  0  0  0
   -1.2883   -0.0308   -0.1293 C   0  0  0  0  0  0  0  0  0  0  0  0
   -4.8944   -0.4127    0.4378 C   0  0  0  0  0  0  0  0  0  0  0  0
   -3.1813    1.4674   -0.6169 C   0  0  0  0  0  0  0  0  0  0  0  0
   -0.3007    0.8883   -0.0120 C   0  0  0  0  0  0  0  0  0  0  0  0
    1.5869   -0.6107   -0.5400 C   0  0  0  0  0  0  0  0  0  0  0  0
    2.0258    1.5151    0.5207 C   0  0  0  0  0  0  0  0  0  0  0  0
    2.9528   -0.8935   -0.5384 C   0  0  0  0  0  0  0  0  0  0  0  0
    3.3918    1.2324    0.5223 C   0  0  0  0  0  0  0  0  0  0  0  0
   -3.0605   -2.9412   -0.1778 C   0  0  0  0  0  0  0  0  0  0  0  0
   -5.4187    0.7746   -0.0530 C   0  0  0  0  0  0  0  0  0  0  0  0
   -4.5491    1.7219   -0.5852 C   0  0  0  0  0  0  0  0  0  0  0  0
    5.8147   -1.0906   -1.0416 C   0  0  0  0  0  0  0  0  0  0  0  0
    6.0980    0.2888    1.0237 C   0  0  0  0  0  0  0  0  0  0  0  0
  1  3  2  0
  1  4  1  0
  1  8  1  0
  2  6  1  0
  2 18  1  0
  2 19  1  0
  3  7  1  0
  3  9  1  0
  4 15  1  0
  5 10  1  0
  5 11  2  0
  5 12  1  0
  6 13  2  0
  6 14  1  0
  7 10  2  0
  8 16  2  0
  9 17  2  0
 11 13  1  0
 12 14  2  0
 16 17  1  0
M  CHG  1   1   1
M  END
>  <PUBCHEM_COMPOUND_CID>  (1) 
2957

>  <PUBCHEM_CONFORMER_RMSD>  (1) 
0.6

>  <PUBCHEM_CONFORMER_DIVERSEORDER>  (1) 
2
1
5
4
6
3
7

>  <PUBCHEM_MMFF94_PARTIAL_CHARGES>  (1) 
28
1 -0.21
10 -0.18
11 -0.15
12 -0.15
13 -0.15
14 -0.15
16 -0.15
17 -0.15
18 0.37
19 0.37
2 -0.84
22 0.15
23 0.15
24 0.15
25 0.15
26 0.15
27 0.15
28 0.15
29 0.15
3 0.39
33 0.15
34 0.15
4 0.49
5 0.03
6 0.1
7 -0.18
8 0.21
9 -0.15

>  <PUBCHEM_EFFECTIVE_ROTOR_COUNT>  (1) 
4

>  <PUBCHEM_PHARMACOPHORE_FEATURES>  (1) 
3
1 2 cation
6 1 3 8 9 16 17 rings
6 5 6 11 12 13 14 rings

>  <PUBCHEM_HEAVY_ATOM_COUNT>  (1) 
19

>  <PUBCHEM_ATOM_DEF_STEREO_COUNT>  (1) 
0

>  <PUBCHEM_ATOM_UDEF_STEREO_COUNT>  (1) 
0

>  <PUBCHEM_BOND_DEF_STEREO_COUNT>  (1) 
0

>  <PUBCHEM_BOND_UDEF_STEREO_COUNT>  (1) 
1

>  <PUBCHEM_ISOTOPIC_ATOM_COUNT>  (1) 
0

>  <PUBCHEM_COMPONENT_COUNT>  (1) 
1

>  <PUBCHEM_CACTVS_TAUTO_COUNT>  (1) 
1

>  <PUBCHEM_CONFORMER_ID>  (1) 
00000B8D00000002

>  <PUBCHEM_MMFF94_ENERGY>  (1) 
76.3408

>  <PUBCHEM_FEATURE_SELFOVERLAP>  (1) 
15.223

>  <PUBCHEM_SHAPE_FINGERPRINT>  (1) 
10 15 18271513287448790072
11045977 3 18343863338077372154
11128504 68 16008754623672463036
11315181 36 17846499235740921561
11405975 8 18410011065294755113
11524674 6 17917707989659696207
11796584 16 18408884023528056842
12236239 1 15791734087527908188
12500047 106 18408318874413872447
12507557 5 18131069359058389737
12596602 18 15051724304992496014
12616971 3 16515405179362699214
13167823 11 18040713675584267522
13675066 3 18202278139237006104
1420 363 18272373049052851844
14251731 8 18408041792772058613
14341114 176 18411986874958044672
14386348 63 18342462529887701510
14617045 38 18334301937528116499
15042514 8 18189342441383057651
15196674 1 18340206405115808586
15242439 84 18411981342939791189
15348495 7 18271517702210706304
15375358 24 18343866602189324103
15788980 27 18130786763342972148
17844677 252 18334582355885077340
19141452 34 18411140268659052599
19489759 90 18334573530001090385
200 152 17346876728347640081
20279233 1 18342745113187410231
20645477 56 18334012766423438677
20645477 70 17775287110347017718
20681677 155 18186518787262074977
21033648 29 17774705490070878176
21065198 57 18411418444520728657
21065201 7 18261105309383080737
21267235 1 18259993695281132883
21682296 61 17273710754117861110
21709351 56 18409162242434026852
220451 1 17676489424087371562
221490 88 18338803445616813344
2215653 11 18342736282465598551
2297311 6 18260274031770185557
23402539 116 16660359273098341316
23536379 177 17385723565474233176
23557571 272 18339084774549351300
23559900 14 18413102887797450592
23622692 118 18126558149334715159
239999 70 18341898477013960502
26918003 58 18273214209438606368
3004659 81 18042126471429048890
3545911 37 18410293592860095861
4015057 19 18058717130934161353
4073 2 18260551173303970034
4214541 1 18409167718786399513
5104073 3 18340204206066232144
5364581 5 18123457543545194096
542803 24 16588027900549136876
559249 180 18187077326189319507
5924683 9 18200026391095226175
59755656 215 18339364059219094494
59755656 520 18335977589697171845
633830 44 17240765137430715760
9709674 26 18191308388825054443

>  <PUBCHEM_SHAPE_MULTIPOLES>  (1) 
381.05
14.47
2.01
0.89
8.99
1.12
-0.02
0.45
-0.34
-2.28
0.03
0.45
0.07
1.48

>  <PUBCHEM_SHAPE_SELFOVERLAP>  (1) 
801.367

>  <PUBCHEM_SHAPE_VOLUME>  (1) 
215.4

>  <PUBCHEM_COORDINATE_TYPE>  (1) 
2
5
10

$$$$
