29584
     RDKit          3D

 13 14  0  0  0  0  0  0  0  0999 V2000
   -0.4795    1.9471   -0.3222 O   0  0  0  0  0  0  0  0  0  0  0  0
    1.7522    2.3247    0.1248 O   0  0  0  0  0  0  0  0  0  0  0  0
    0.8052    0.2117    0.4563 N   0  0  0  0  0  0  0  0  0  0  0  0
   -0.4699   -0.2775    0.2731 C   0  0  0  0  0  0  0  0  0  0  0  0
   -1.2208    0.7820   -0.1938 C   0  0  0  0  0  0  0  0  0  0  0  0
   -1.0090   -1.5309    0.4744 C   0  0  0  0  0  0  0  0  0  0  0  0
    1.9399   -0.5365    0.9350 C   0  0  0  0  0  0  0  0  0  0  0  0
    0.8031    1.5503    0.0988 C   0  0  0  0  0  0  0  0  0  0  0  0
   -2.5615    0.6462   -0.4866 C   0  0  0  0  0  0  0  0  0  0  0  0
   -2.3663   -1.6925    0.1840 C   0  0  0  0  0  0  0  0  0  0  0  0
   -3.1363   -0.6130   -0.2925 C   0  0  0  0  0  0  0  0  0  0  0  0
    2.6703   -1.1522   -0.1726 C   0  0  0  0  0  0  0  0  0  0  0  0
    3.2725   -1.6595   -1.0789 C   0  0  0  0  0  0  0  0  0  0  0  0
  1  5  1  0
  1  8  1  0
  2  8  2  0
  3  4  1  0
  3  7  1  0
  3  8  1  0
  4  5  2  0
  4  6  1  0
  5  9  1  0
  6 10  2  0
  7 12  1  0
  9 11  2  0
 10 11  1  0
 12 13  3  0
M  END
>  <PUBCHEM_COMPOUND_CID>  (1) 
29584

>  <PUBCHEM_CONFORMER_RMSD>  (1) 
0.4

>  <PUBCHEM_CONFORMER_DIVERSEORDER>  (1) 
2
7
3
6
4
5
1

>  <PUBCHEM_MMFF94_PARTIAL_CHARGES>  (1) 
18
1 -0.23
10 -0.15
11 -0.15
12 -0.2
13 -0.18
14 0.15
17 0.15
18 0.15
19 0.15
2 -0.57
20 0.18
3 -0.48
4 0.12
5 0.08
6 -0.15
7 0.5
8 0.78
9 -0.15

>  <PUBCHEM_EFFECTIVE_ROTOR_COUNT>  (1) 
1

>  <PUBCHEM_PHARMACOPHORE_FEATURES>  (1) 
4
1 13 hydrophobe
1 2 acceptor
5 1 3 4 5 8 rings
6 4 5 6 9 10 11 rings

>  <PUBCHEM_HEAVY_ATOM_COUNT>  (1) 
13

>  <PUBCHEM_ATOM_DEF_STEREO_COUNT>  (1) 
0

>  <PUBCHEM_ATOM_UDEF_STEREO_COUNT>  (1) 
0

>  <PUBCHEM_BOND_DEF_STEREO_COUNT>  (1) 
0

>  <PUBCHEM_BOND_UDEF_STEREO_COUNT>  (1) 
0

>  <PUBCHEM_ISOTOPIC_ATOM_COUNT>  (1) 
0

>  <PUBCHEM_COMPONENT_COUNT>  (1) 
1

>  <PUBCHEM_CACTVS_TAUTO_COUNT>  (1) 
1

>  <PUBCHEM_CONFORMER_ID>  (1) 
0000739000000002

>  <PUBCHEM_MMFF94_ENERGY>  (1) 
32.6144

>  <PUBCHEM_FEATURE_SELFOVERLAP>  (1) 
20.41

>  <PUBCHEM_SHAPE_FINGERPRINT>  (1) 
10353120 184 18261669277396731535
10465860 71 18337402547586283630
11206711 2 18116140091697888221
12524768 44 18264200482002328347
13380535 21 18191034606081984281
13380535 76 17975120256192089208
14128692 85 18408889529153572348
14911166 2 18263917761706583247
15219456 202 18338514260830908425
161256 15 18335138751533223401
16945 1 18263070038136059707
17990270 104 18339357577749246218
20201158 50 18342455898558780598
20645476 183 17386012710798674723
20645477 70 18266730475928911895
20711985 344 17981609269230070418
20871998 22 18411980269324515858
20871999 31 18265056838340975068
21501502 16 18337951311114863881
22213442 358 18412547617609278358
22802520 49 18335990868913319403
2334 1 18263075690334126721
23419403 2 13123129327595748049
23552423 10 18114457980498938515
23557571 272 18199749134013289578
23559900 14 18195802965417641498
2748010 2 18262227936814863765
369184 2 15697987531589524467
7364860 26 18270679912667728336
81228 2 18124037828012404320
84936 31 17418087763368171848

>  <PUBCHEM_SHAPE_MULTIPOLES>  (1) 
250.81
4.68
2.23
0.84
0.95
0.78
-0.03
-2.37
-1.13
0.55
-0.1
0.35
-0.2
0.62

>  <PUBCHEM_SHAPE_SELFOVERLAP>  (1) 
542.954

>  <PUBCHEM_SHAPE_VOLUME>  (1) 
137.5

>  <PUBCHEM_COORDINATE_TYPE>  (1) 
2
5
10

$$$$
