29594
     RDKit          3D

 16 17  0  0  0  0  0  0  0  0999 V2000
   -0.4102   -2.3444   -0.4841 O   0  0  0  0  0  0  0  0  0  0  0  0
   -1.6674   -0.6341    2.1331 O   0  0  0  0  0  0  0  0  0  0  0  0
    1.0201   -0.5188   -0.1802 C   0  0  0  0  0  0  0  0  0  0  0  0
   -1.5555   -0.3194   -0.2417 C   0  0  0  0  0  0  0  0  0  0  0  0
   -0.2970   -1.1219   -0.3098 C   0  0  0  0  0  0  0  0  0  0  0  0
    3.5466    0.6377    0.0689 C   0  0  0  0  0  0  0  0  0  0  0  0
    1.1410    0.8569    0.0154 C   0  0  0  0  0  0  0  0  0  0  0  0
    2.1622   -1.3164   -0.2512 C   0  0  0  0  0  0  0  0  0  0  0  0
    2.4043    1.4351    0.1398 C   0  0  0  0  0  0  0  0  0  0  0  0
    3.4256   -0.7382   -0.1266 C   0  0  0  0  0  0  0  0  0  0  0  0
   -2.1685   -0.1211    0.9740 C   0  0  0  0  0  0  0  0  0  0  0  0
   -2.0537    0.1926   -1.4187 C   0  0  0  0  0  0  0  0  0  0  0  0
    4.8974    1.2563    0.2013 C   0  0  0  0  0  0  0  0  0  0  0  0
   -3.3432    0.6301    1.0160 C   0  0  0  0  0  0  0  0  0  0  0  0
   -3.2284    0.9436   -1.3767 C   0  0  0  0  0  0  0  0  0  0  0  0
   -3.8732    1.1622   -0.1594 C   0  0  0  0  0  0  0  0  0  0  0  0
  1  5  2  0
  2 11  1  0
  3  5  1  0
  3  7  2  0
  3  8  1  0
  4  5  1  0
  4 11  2  0
  4 12  1  0
  6  9  2  0
  6 10  1  0
  6 13  1  0
  7  9  1  0
  8 10  2  0
 11 14  1  0
 12 15  2  0
 14 16  2  0
 15 16  1  0
M  END
>  <PUBCHEM_COMPOUND_CID>  (1) 
29594

>  <PUBCHEM_CONFORMER_RMSD>  (1) 
0.6

>  <PUBCHEM_CONFORMER_DIVERSEORDER>  (1) 
1
3
4
6
7
5
2

>  <PUBCHEM_MMFF94_PARTIAL_CHARGES>  (1) 
25
1 -0.57
10 -0.15
11 0.08
12 -0.15
13 0.14
14 -0.15
15 -0.15
16 -0.15
17 0.15
18 0.15
19 0.15
2 -0.53
20 0.15
21 0.15
25 0.15
26 0.15
27 0.15
28 0.45
3 0.09
4 0.09
5 0.4
6 -0.14
7 -0.15
8 -0.15
9 -0.15

>  <PUBCHEM_EFFECTIVE_ROTOR_COUNT>  (1) 
2

>  <PUBCHEM_PHARMACOPHORE_FEATURES>  (1) 
4
1 1 acceptor
1 2 donor
6 3 6 7 8 9 10 rings
6 4 11 12 14 15 16 rings

>  <PUBCHEM_HEAVY_ATOM_COUNT>  (1) 
16

>  <PUBCHEM_ATOM_DEF_STEREO_COUNT>  (1) 
0

>  <PUBCHEM_ATOM_UDEF_STEREO_COUNT>  (1) 
0

>  <PUBCHEM_BOND_DEF_STEREO_COUNT>  (1) 
0

>  <PUBCHEM_BOND_UDEF_STEREO_COUNT>  (1) 
0

>  <PUBCHEM_ISOTOPIC_ATOM_COUNT>  (1) 
0

>  <PUBCHEM_COMPONENT_COUNT>  (1) 
1

>  <PUBCHEM_CACTVS_TAUTO_COUNT>  (1) 
5

>  <PUBCHEM_CONFORMER_ID>  (1) 
0000739A00000001

>  <PUBCHEM_MMFF94_ENERGY>  (1) 
52.6415

>  <PUBCHEM_FEATURE_SELFOVERLAP>  (1) 
20.297

>  <PUBCHEM_SHAPE_FINGERPRINT>  (1) 
11471102 20 18341328916599306036
11543360 7 14908177594909637600
11640471 11 17202216113927070009
12119455 92 18334569122947828951
12236239 1 17418373563144873557
12251169 10 16081090389334991949
124424 183 18113893836744997506
12633257 1 17313117357804474585
13581323 91 15574719083928594833
13675066 3 17967812769487347808
13705890 14 11600005453540902834
14123260 362 17775011214590943672
14289901 80 16660371397875439720
14897335 6 18272646874687585566
15219456 202 18114183003660040607
15309172 13 18411140225092227183
15375358 24 18186798071800416908
15653759 3 17530688705564976304
15775835 57 17917712387742707525
16945 1 18339921489685801110
1813 80 17197713515170381534
18186145 218 18272374144084883206
18219364 16 18411142462780562592
19049666 15 17605834703248224691
19862831 5 17203607077461113844
20112054 13 18408325483994143988
20279233 1 17894912923139691384
20300324 65 15841551894320213752
204376 136 18411700997666021502
20645464 45 17749109985015938193
20645476 183 17060612304988142437
20645477 70 18341331089942831518
20871999 31 15195277621758421981
21499 59 18273211984708960983
21650355 55 16226056630040078229
231179 274 18408321086390692636
23402539 116 15410895141261333008
23402655 69 17917707972363483028
23559900 14 16951413104948043002
25 1 18341891861819929622
27216 239 18187928434120283793
3082319 5 16343703214101292814
350125 39 18051979409108503632
465052 167 11603407329880870961
474 4 18202003209257587632
4921388 177 14907902721044427741
63268167 104 18131068216617927874
633830 44 17916597435580713823
74978 22 18201435943215455228
77492 1 17346312640333230943
83771 10 8718825405391386839
90316 7 14996282479381598015

>  <PUBCHEM_SHAPE_MULTIPOLES>  (1) 
317.53
7.81
1.61
1.23
3.92
0.44
-0.28
-3.82
-0.1
0.6
0.15
-1.38
0.02
0.43

>  <PUBCHEM_SHAPE_SELFOVERLAP>  (1) 
691.034

>  <PUBCHEM_SHAPE_VOLUME>  (1) 
173.3

>  <PUBCHEM_COORDINATE_TYPE>  (1) 
2
5
10

$$$$
