29595
     RDKit          3D

 14 15  0  0  0  0  0  0  0  0999 V2000
    0.2169   -2.4566   -0.0003 O   0  0  0  0  0  0  0  0  0  0  0  0
    3.4397    2.0783    0.0003 N   0  0  0  0  0  0  0  0  0  0  0  0
    0.4120   -0.0608   -0.0003 C   0  0  0  0  0  0  0  0  0  0  0  0
   -1.0255    0.1040   -0.0001 C   0  0  0  0  0  0  0  0  0  0  0  0
    1.2283    1.0717   -0.0010 C   0  0  0  0  0  0  0  0  0  0  0  0
    0.9883   -1.3323    0.0006 C   0  0  0  0  0  0  0  0  0  0  0  0
    2.6163    0.9331   -0.0007 C   0  0  0  0  0  0  0  0  0  0  0  0
   -1.7187    0.1828   -1.2080 C   0  0  0  0  0  0  0  0  0  0  0  0
   -1.7181    0.1837    1.2079 C   0  0  0  0  0  0  0  0  0  0  0  0
    2.3762   -1.4708    0.0007 C   0  0  0  0  0  0  0  0  0  0  0  0
    3.1903   -0.3381    0.0002 C   0  0  0  0  0  0  0  0  0  0  0  0
   -3.1045    0.3414   -1.2078 C   0  0  0  0  0  0  0  0  0  0  0  0
   -3.1040    0.3423    1.2082 C   0  0  0  0  0  0  0  0  0  0  0  0
   -3.7971    0.4212    0.0003 C   0  0  0  0  0  0  0  0  0  0  0  0
  1  6  1  0
  2  7  1  0
  3  4  1  0
  3  5  2  0
  3  6  1  0
  4  8  2  0
  4  9  1  0
  5  7  1  0
  6 10  2  0
  7 11  2  0
  8 12  1  0
  9 13  2  0
 10 11  1  0
 12 14  2  0
 13 14  1  0
M  END
>  <PUBCHEM_COMPOUND_CID>  (1) 
29595

>  <PUBCHEM_CONFORMER_RMSD>  (1) 
0.4

>  <PUBCHEM_CONFORMER_DIVERSEORDER>  (1) 
1
2
3

>  <PUBCHEM_MMFF94_PARTIAL_CHARGES>  (1) 
23
1 -0.53
10 -0.15
11 -0.15
12 -0.15
13 -0.15
14 -0.15
15 0.15
16 0.15
17 0.15
18 0.15
19 0.15
2 -0.9
20 0.15
21 0.15
22 0.15
23 0.4
24 0.4
25 0.45
5 -0.15
6 0.08
7 0.1
8 -0.15
9 -0.15

>  <PUBCHEM_EFFECTIVE_ROTOR_COUNT>  (1) 
1

>  <PUBCHEM_PHARMACOPHORE_FEATURES>  (1) 
5
1 1 donor
1 2 cation
1 2 donor
6 3 5 6 7 10 11 rings
6 4 8 9 12 13 14 rings

>  <PUBCHEM_HEAVY_ATOM_COUNT>  (1) 
14

>  <PUBCHEM_ATOM_DEF_STEREO_COUNT>  (1) 
0

>  <PUBCHEM_ATOM_UDEF_STEREO_COUNT>  (1) 
0

>  <PUBCHEM_BOND_DEF_STEREO_COUNT>  (1) 
0

>  <PUBCHEM_BOND_UDEF_STEREO_COUNT>  (1) 
0

>  <PUBCHEM_ISOTOPIC_ATOM_COUNT>  (1) 
0

>  <PUBCHEM_COMPONENT_COUNT>  (1) 
1

>  <PUBCHEM_CACTVS_TAUTO_COUNT>  (1) 
7

>  <PUBCHEM_CONFORMER_ID>  (1) 
0000739B00000001

>  <PUBCHEM_MMFF94_ENERGY>  (1) 
53.9484

>  <PUBCHEM_FEATURE_SELFOVERLAP>  (1) 
25.371

>  <PUBCHEM_SHAPE_FINGERPRINT>  (1) 
10219947 1 18334577931941570788
10608611 8 18114176398206438245
107287 299 18187656785933593078
11471102 20 18409727322643656324
12119455 92 18187634834477101400
12236239 1 17703788094085893417
12932764 1 17749390342990110595
13380535 21 18264499545197261190
13538477 17 17489577966219052871
13581323 91 15068623786010977913
14144814 61 17489586744905449809
14251717 144 18412539886277807359
14897335 6 18341608282752303448
15219456 202 18040435477625320909
15279307 12 17917988356708755191
15279308 16 17821721728440255413
15309172 13 18408044030376075811
15342168 16 18263654024676448757
15775835 57 18202002152738071301
16945 1 18338517439402275398
17844478 74 17895200965295704957
1813 80 17699301962465666934
18175812 5 17821451257048177863
18186145 218 18342461443377013748
19049666 15 17532928290686779133
19422 9 17775284945804825903
200 152 18271516525394902453
20201158 50 18041843900523183515
20279233 1 17676205762597715281
204376 136 18336828722870678960
20645464 45 17458344135161468281
20645477 70 18337944581001630591
20715346 28 17822014215507072621
21499 59 18340767147461321124
21639500 275 18340476846205640740
21730867 7 18333733494121255614
2255824 54 18342741767529660702
228727 97 17561085825601548209
23557571 272 17168435887212300343
23559900 14 16443624593519890554
25 1 18412265055889764708
2748010 2 18265627644069499422
474 4 17844232141807593728
57096353 35 17846489378996751149
63268167 104 18343579642212335192
633830 44 18129959917476813693
77492 1 17703788094080605669
81228 2 17686337981302046538
8272917 22 18127136277812959679

>  <PUBCHEM_SHAPE_MULTIPOLES>  (1) 
277.26
6.17
1.65
1.04
1.2
0.43
0
-1.82
0
-1.77
0
1.04
-0.08
0

>  <PUBCHEM_SHAPE_SELFOVERLAP>  (1) 
605.278

>  <PUBCHEM_SHAPE_VOLUME>  (1) 
151.2

>  <PUBCHEM_COORDINATE_TYPE>  (1) 
2
5
10

$$$$
