29602
     RDKit          3D

 25 27  0  0  0  0  0  0  0  0999 V2000
    2.4684   -0.2688   -0.4790 O   0  0  0  0  0  0  0  0  0  0  0  0
    1.5517    1.7401    0.1157 O   0  0  0  0  0  0  0  0  0  0  0  0
   -4.4996   -0.6877   -1.1009 O   0  0  0  0  0  0  0  0  0  0  0  0
    6.1476   -0.3352   -0.2635 N   0  0  0  0  0  0  0  0  0  0  0  0
    0.2342   -0.0694   -0.5699 N   0  0  0  0  0  0  0  0  0  0  0  0
    7.1420   -1.3433   -0.6568 C   0  0  0  0  0  0  0  0  0  0  0  0
    6.3123    0.0523    1.1445 C   0  0  0  0  0  0  0  0  0  0  0  0
    8.5657   -0.8203   -0.4598 C   0  0  0  0  0  0  0  0  0  0  0  0
    7.7088    0.6208    1.4006 C   0  0  0  0  0  0  0  0  0  0  0  0
    8.7942   -0.3619    0.9759 C   0  0  0  0  0  0  0  0  0  0  0  0
    4.7929   -0.8325   -0.5021 C   0  0  0  0  0  0  0  0  0  0  0  0
    3.7654    0.2516   -0.2182 C   0  0  0  0  0  0  0  0  0  0  0  0
    1.4129    0.5865   -0.2721 C   0  0  0  0  0  0  0  0  0  0  0  0
   -1.0846    0.4341   -0.4969 C   0  0  0  0  0  0  0  0  0  0  0  0
   -2.1458   -0.3883   -0.8401 C   0  0  0  0  0  0  0  0  0  0  0  0
   -1.2905    1.7404   -0.0824 C   0  0  0  0  0  0  0  0  0  0  0  0
   -3.4472    0.1086   -0.7672 C   0  0  0  0  0  0  0  0  0  0  0  0
   -2.5918    2.2372   -0.0095 C   0  0  0  0  0  0  0  0  0  0  0  0
   -3.6701    1.4214   -0.3519 C   0  0  0  0  0  0  0  0  0  0  0  0
   -5.6008   -0.6843   -0.2615 C   0  0  0  0  0  0  0  0  0  0  0  0
   -5.4059   -0.7576    1.1060 C   0  0  0  0  0  0  0  0  0  0  0  0
   -6.8674   -0.6079   -0.8119 C   0  0  0  0  0  0  0  0  0  0  0  0
   -6.5151   -0.7540    1.9516 C   0  0  0  0  0  0  0  0  0  0  0  0
   -7.9767   -0.6043    0.0339 C   0  0  0  0  0  0  0  0  0  0  0  0
   -7.8006   -0.6774    1.4157 C   0  0  0  0  0  0  0  0  0  0  0  0
  1 12  1  0
  1 13  1  0
  2 13  2  0
  3 17  1  0
  3 20  1  0
  4  6  1  0
  4  7  1  0
  4 11  1  0
  5 13  1  0
  5 14  1  0
  6  8  1  0
  7  9  1  0
  8 10  1  0
  9 10  1  0
 11 12  1  0
 14 15  2  0
 14 16  1  0
 15 17  1  0
 16 18  2  0
 17 19  2  0
 18 19  1  0
 20 21  2  0
 20 22  1  0
 21 23  1  0
 22 24  2  0
 23 25  2  0
 24 25  1  0
M  END
>  <PUBCHEM_COMPOUND_CID>  (1) 
29602

>  <PUBCHEM_CONFORMER_RMSD>  (1) 
1

>  <PUBCHEM_CONFORMER_DIVERSEORDER>  (1) 
2
209
97
71
147
3
57
4
179
198
158
113
61
211
149
126
59
74
89
121
28
105
186
78
159
138
84
206
53
212
22
87
92
107
39
195
31
204
183
24
55
95
54
177
137
122
164
142
133
104
175
116
157
108
26
184
188
194
5
210
178
80
197
161
199
160
68
172
182
174
110
125
187
136
166
48
205
115
35
162
109
134
77
141
124
70
144
171
25
202
81
40
60
129
185
23
119
16
201
106
151
93
139
167
49
168
153
123
88
47
101
94
176
44
34
150
102
6
99
50
41
207
127
20
143
17
135
128
56
91
170
15
45
42
169
200
69
140
12
96
131
112
132
152
66
180
155
100
118
79
14
165
52
148
114
98
13
73
208
51
85
43
117
154
181
146
29
9
38
203
163
130
189
145
72
27
1
83
193
120
21
67
10
190
156
62
111
64
75
192
58
65
191
76
196
90
32
30
82
8
7
46
37
173
33
11
19
63
86
18
103
36

>  <PUBCHEM_MMFF94_PARTIAL_CHARGES>  (1) 
32
1 -0.43
11 0.27
12 0.28
13 0.78
14 0.12
15 -0.15
16 -0.15
17 0.08
18 -0.15
19 -0.15
2 -0.57
20 0.08
21 -0.15
22 -0.15
23 -0.15
24 -0.15
25 -0.15
3 -0.17
4 -0.81
40 0.37
41 0.15
42 0.15
43 0.15
44 0.15
45 0.15
46 0.15
47 0.15
48 0.15
49 0.15
5 -0.55
6 0.27
7 0.27

>  <PUBCHEM_EFFECTIVE_ROTOR_COUNT>  (1) 
9.2

>  <PUBCHEM_PHARMACOPHORE_FEATURES>  (1) 
7
1 2 acceptor
1 3 acceptor
1 4 cation
1 5 donor
6 14 15 16 17 18 19 rings
6 20 21 22 23 24 25 rings
6 4 6 7 8 9 10 rings

>  <PUBCHEM_HEAVY_ATOM_COUNT>  (1) 
25

>  <PUBCHEM_ATOM_DEF_STEREO_COUNT>  (1) 
0

>  <PUBCHEM_ATOM_UDEF_STEREO_COUNT>  (1) 
0

>  <PUBCHEM_BOND_DEF_STEREO_COUNT>  (1) 
0

>  <PUBCHEM_BOND_UDEF_STEREO_COUNT>  (1) 
0

>  <PUBCHEM_ISOTOPIC_ATOM_COUNT>  (1) 
0

>  <PUBCHEM_COMPONENT_COUNT>  (1) 
1

>  <PUBCHEM_CACTVS_TAUTO_COUNT>  (1) 
2

>  <PUBCHEM_CONFORMER_ID>  (1) 
000073A200000002

>  <PUBCHEM_MMFF94_ENERGY>  (1) 
63.019

>  <PUBCHEM_FEATURE_SELFOVERLAP>  (1) 
35.522

>  <PUBCHEM_SHAPE_FINGERPRINT>  (1) 
10 15 13614243672384665261
10066227 49 15574982937118773138
10299344 5 16988841687890891454
106641 1 16988562429317707095
10674148 151 17675925396582949537
11135609 127 13046241502643970990
11315181 36 17167867460980644789
12082328 90 16805595949996938687
12643181 29 18113337540166020659
13073987 5 18340204073307237126
13150687 139 11818990756461108472
13540713 4 11531923736298590485
13668630 136 17240480287121517370
13673619 4 18334293175663210884
13685833 64 18413388735477733492
13885169 127 18260265210039267429
14150022 121 16630534999131811249
14251764 18 16845572032408749952
14251764 46 18040152915847889142
14428016 248 16630526272064096912
14849402 71 16987992924885847760
15183329 4 11458419120866224308
15350500 55 13038917590527548569
15461852 350 15647054850298395566
155225 1 12103574070229595891
15716309 27 18131350816854964743
17093844 174 18342737395775101681
1754911 235 11891328768792257883
1818759 1 17967256386296595458
18335252 114 10881403145245326606
18335252 98 18342458119953301134
21095123 145 13470399011683207045
21095123 293 14189571958172046210
21150785 3 14851605483665927618
21267235 1 18410295808857661460
21792934 111 18343016701361155601
21792961 116 17967526862442017685
22224240 67 17561363989190388718
23559900 14 17313954163979536325
23576562 1 10665813134105756315
246663 6 18186241731622225150
335507 130 18343018896584666860
3383291 50 18334016107233359898
3711267 37 12679182751838778258
4339292 15 17603864559797421979
437795 83 9222965738051702963
44802255 64 11383835944614887097
5104073 3 18128540366529606074
54039377 194 14779560015333383993
5470011 282 17240488013852176710
5758199 1 17060338530698181478
58902169 19 13984671381318335722
59682541 35 18202282528282385922
636775 72 13757810179090838219
636775 8 17967543375642230794
9663363 56 18410570691992917933
9953998 17 17632859733266336671
9962374 69 18339917233409913511
999808 66 18335707143458330043

>  <PUBCHEM_SHAPE_MULTIPOLES>  (1) 
486.92
30.33
1.44
1.27
32.15
0.75
0.46
-13.08
8.11
-0.83
0.07
-0.62
-0.3
1.39

>  <PUBCHEM_SHAPE_SELFOVERLAP>  (1) 
1027.842

>  <PUBCHEM_SHAPE_VOLUME>  (1) 
272.3

>  <PUBCHEM_COORDINATE_TYPE>  (1) 
2
5
10

$$$$
