29610
     RDKit          3D

 10 11  0  0  1  0  0  0  0  0999 V2000
    2.1031    0.3661    0.0154 S   0  0  0  0  0  0  0  0  0  0  0  0
    0.7564    1.2106   -0.2935 O   0  0  0  0  0  0  0  0  0  0  0  0
    1.3962   -0.7688    0.9335 O   0  0  0  0  0  0  0  0  0  0  0  0
    2.5375   -0.2834   -1.2649 O   0  0  0  0  0  0  0  0  0  0  0  0
   -0.2124    0.9113    0.7138 C   0  0  0  0  0  0  0  0  0  0  0  0
   -0.0243   -0.5788    0.9561 C   0  0  0  0  0  0  0  0  0  0  0  0
   -1.6148    1.3048    0.2677 C   0  0  0  0  0  0  0  0  0  0  0  0
   -0.6678   -1.4810   -0.1018 C   0  0  0  0  0  0  0  0  0  0  0  0
   -2.1715    0.3921   -0.8220 C   0  0  0  0  0  0  0  0  0  0  0  0
   -2.1024   -1.0730   -0.4043 C   0  0  0  0  0  0  0  0  0  0  0  0
  1  2  1  0
  1  3  1  0
  1  4  2  0
  2  5  1  0
  3  6  1  0
  5  6  1  0
  5  7  1  0
  6  8  1  0
  7  9  1  0
  8 10  1  0
  9 10  1  0
M  END
>  <PUBCHEM_COMPOUND_CID>  (1) 
29610

>  <PUBCHEM_CONFORMER_RMSD>  (1) 
0.4

>  <PUBCHEM_CONFORMER_DIVERSEORDER>  (1) 
1
4
5
2
3

>  <PUBCHEM_MMFF94_PARTIAL_CHARGES>  (1) 
6
1 0.6
2 -0.33
3 -0.33
4 -0.5
5 0.28
6 0.28

>  <PUBCHEM_EFFECTIVE_ROTOR_COUNT>  (1) 
1.2

>  <PUBCHEM_PHARMACOPHORE_FEATURES>  (1) 
3
1 4 acceptor
5 1 2 3 5 6 rings
6 5 6 7 8 9 10 rings

>  <PUBCHEM_HEAVY_ATOM_COUNT>  (1) 
10

>  <PUBCHEM_ATOM_DEF_STEREO_COUNT>  (1) 
0

>  <PUBCHEM_ATOM_UDEF_STEREO_COUNT>  (1) 
2

>  <PUBCHEM_BOND_DEF_STEREO_COUNT>  (1) 
0

>  <PUBCHEM_BOND_UDEF_STEREO_COUNT>  (1) 
0

>  <PUBCHEM_ISOTOPIC_ATOM_COUNT>  (1) 
0

>  <PUBCHEM_COMPONENT_COUNT>  (1) 
1

>  <PUBCHEM_CACTVS_TAUTO_COUNT>  (1) 
1

>  <PUBCHEM_CONFORMER_ID>  (1) 
000073AA00000001

>  <PUBCHEM_MMFF94_ENERGY>  (1) 
12.0572

>  <PUBCHEM_FEATURE_SELFOVERLAP>  (1) 
15.412

>  <PUBCHEM_SHAPE_FINGERPRINT>  (1) 
10353120 184 18409732897764459503
10702982 57 16410729288216769241
12423570 1 14586401792945584649
12716758 59 18272652307546797896
12897270 3 18411133670929747150
13024252 1 16878805913808965832
15310529 11 17240762856903243345
15775835 57 17967248676339539460
16945 1 18335697256385267571
18185500 45 18190441814579700459
20653085 51 17458351839979272252
21040471 1 18197204850541271233
23552423 10 18262795284471989258
2748010 2 17977654635137434419
29004967 10 15841260527980903954
369184 2 14549023156234949855
5084963 1 17313370236703818283

>  <PUBCHEM_SHAPE_MULTIPOLES>  (1) 
192.04
3.15
1.46
1.04
0.69
0.02
0.05
0.11
1.06
-0.51
-0.07
0.28
0.07
-0.07

>  <PUBCHEM_SHAPE_SELFOVERLAP>  (1) 
383.239

>  <PUBCHEM_SHAPE_VOLUME>  (1) 
115.1

>  <PUBCHEM_COORDINATE_TYPE>  (1) 
2
5
10

$$$$
