29622
     RDKit          3D

 12 12  0  0  0  0  0  0  0  0999 V2000
    1.3609    3.0627    0.1999 Cl  0  0  0  0  0  0  0  0  0  0  0  0
    1.3341   -2.0142   -0.4293 O   0  0  0  0  0  0  0  0  0  0  0  0
    2.6600    0.3924   -0.2021 O   0  0  0  0  0  0  0  0  0  0  0  0
   -3.5826   -0.8305   -0.0160 O   0  0  0  0  0  0  0  0  0  0  0  0
    0.6346   -0.8592   -0.2479 C   0  0  0  0  0  0  0  0  0  0  0  0
   -1.4872    0.2679    0.0070 C   0  0  0  0  0  0  0  0  0  0  0  0
   -0.7578   -0.9065   -0.1784 C   0  0  0  0  0  0  0  0  0  0  0  0
    1.2977    0.3626   -0.1321 C   0  0  0  0  0  0  0  0  0  0  0  0
   -0.8242    1.4896    0.1227 C   0  0  0  0  0  0  0  0  0  0  0  0
    0.5682    1.5371    0.0533 C   0  0  0  0  0  0  0  0  0  0  0  0
   -2.9388    0.2180    0.0796 C   0  0  0  0  0  0  0  0  0  0  0  0
    1.7349   -2.7199    0.7434 C   0  0  0  0  0  0  0  0  0  0  0  0
  1 10  1  0
  2  5  1  0
  2 12  1  0
  3  8  1  0
  4 11  2  0
  5  7  2  0
  5  8  1  0
  6  7  1  0
  6  9  2  0
  6 11  1  0
  8 10  2  0
  9 10  1  0
M  END
>  <PUBCHEM_COMPOUND_CID>  (1) 
29622

>  <PUBCHEM_CONFORMER_RMSD>  (1) 
0.6

>  <PUBCHEM_CONFORMER_DIVERSEORDER>  (1) 
1
2

>  <PUBCHEM_MMFF94_PARTIAL_CHARGES>  (1) 
16
1 -0.18
10 0.18
11 0.42
12 0.28
13 0.15
14 0.15
15 0.06
19 0.45
2 -0.36
3 -0.53
4 -0.57
5 0.08
6 0.09
7 -0.15
8 0.08
9 -0.15

>  <PUBCHEM_EFFECTIVE_ROTOR_COUNT>  (1) 
2

>  <PUBCHEM_PHARMACOPHORE_FEATURES>  (1) 
4
1 2 acceptor
1 3 donor
1 4 acceptor
6 5 6 7 8 9 10 rings

>  <PUBCHEM_HEAVY_ATOM_COUNT>  (1) 
12

>  <PUBCHEM_ATOM_DEF_STEREO_COUNT>  (1) 
0

>  <PUBCHEM_ATOM_UDEF_STEREO_COUNT>  (1) 
0

>  <PUBCHEM_BOND_DEF_STEREO_COUNT>  (1) 
0

>  <PUBCHEM_BOND_UDEF_STEREO_COUNT>  (1) 
0

>  <PUBCHEM_ISOTOPIC_ATOM_COUNT>  (1) 
0

>  <PUBCHEM_COMPONENT_COUNT>  (1) 
1

>  <PUBCHEM_CACTVS_TAUTO_COUNT>  (1) 
5

>  <PUBCHEM_CONFORMER_ID>  (1) 
000073B600000001

>  <PUBCHEM_MMFF94_ENERGY>  (1) 
37.8764

>  <PUBCHEM_FEATURE_SELFOVERLAP>  (1) 
20.297

>  <PUBCHEM_SHAPE_FINGERPRINT>  (1) 
1 1 18338233898324665077
12423570 1 10754008272883330444
13380535 76 17838333347702361108
13380536 305 18267311013229766372
14817 1 10867115295893537508
16945 1 18410853282743441981
19021347 11 18409730685513482158
193761 8 18050851009604918068
20645476 183 17609225902341348628
20645477 70 18271525407635554591
20871998 184 17552063009714142446
20871998 22 18054796087158203407
21040471 1 17763464310790061916
21501502 16 18266461992832203717
21524375 3 17983292926190303045
2334 1 17835521900622368541
23552423 10 18189909616444457847
23559900 14 16182981776059521022
241688 4 18050571737677184384
257057 1 18120924019345390331
2748010 2 18196649584073391333
3071541 236 17257910019689952784
528862 383 18410568496299538263
7364860 26 18413671326597321321
81228 2 17475795351372485633

>  <PUBCHEM_SHAPE_MULTIPOLES>  (1) 
231.22
3.72
3.04
0.68
3.27
0.4
-0.04
-0.82
-0.09
-2.54
-0.51
-0.11
-0.11
-0.17

>  <PUBCHEM_SHAPE_SELFOVERLAP>  (1) 
474.675

>  <PUBCHEM_SHAPE_VOLUME>  (1) 
135.1

>  <PUBCHEM_COORDINATE_TYPE>  (1) 
2
5
10

$$$$
