29623
     RDKit          3D

 20 21  0  0  0  0  0  0  0  0999 V2000
    6.0581   -0.1128   -0.2463 O   0  0  0  0  0  0  0  0  0  0  0  0
   -5.4816    0.1277    0.1679 N   0  0  0  0  0  0  0  0  0  0  0  0
    4.7952   -0.0951   -0.0701 N   0  0  0  0  0  0  0  0  0  0  0  0
    0.6461   -0.0708    0.5030 N   0  0  0  0  0  0  0  0  0  0  0  0
    0.0638    0.0495   -0.5998 N   0  0  0  0  0  0  0  0  0  0  0  0
    2.7048   -1.2905    0.1000 C   0  0  0  0  0  0  0  0  0  0  0  0
    2.0329   -0.0912    0.3102 C   0  0  0  0  0  0  0  0  0  0  0  0
   -4.0844    0.1082   -0.0253 C   0  0  0  0  0  0  0  0  0  0  0  0
    4.1177    1.0905    0.1394 C   0  0  0  0  0  0  0  0  0  0  0  0
    2.7400    1.1060    0.3304 C   0  0  0  0  0  0  0  0  0  0  0  0
    4.0829   -1.2789   -0.0884 C   0  0  0  0  0  0  0  0  0  0  0  0
   -3.3609    1.3007   -0.0071 C   0  0  0  0  0  0  0  0  0  0  0  0
   -3.4262   -1.1037   -0.2347 C   0  0  0  0  0  0  0  0  0  0  0  0
   -1.3281    0.0698   -0.4068 C   0  0  0  0  0  0  0  0  0  0  0  0
    1.9787   -2.5937    0.0718 C   0  0  0  0  0  0  0  0  0  0  0  0
   -1.9794    1.2814   -0.1984 C   0  0  0  0  0  0  0  0  0  0  0  0
   -2.0446   -1.1229   -0.4259 C   0  0  0  0  0  0  0  0  0  0  0  0
    4.9037    2.3563    0.1560 C   0  0  0  0  0  0  0  0  0  0  0  0
   -6.2637    1.2755   -0.2457 C   0  0  0  0  0  0  0  0  0  0  0  0
   -6.1549   -1.0059    0.7699 C   0  0  0  0  0  0  0  0  0  0  0  0
  1  3  1  0
  2  8  1  0
  2 19  1  0
  2 20  1  0
  3  9  2  0
  3 11  1  0
  4  5  2  0
  4  7  1  0
  5 14  1  0
  6  7  1  0
  6 11  2  0
  6 15  1  0
  7 10  2  0
  8 12  2  0
  8 13  1  0
  9 10  1  0
  9 18  1  0
 12 16  1  0
 13 17  2  0
 14 16  2  0
 14 17  1  0
M  CHG  2   1  -1   3   1
M  END
>  <PUBCHEM_COMPOUND_CID>  (1) 
29623

>  <PUBCHEM_CONFORMER_RMSD>  (1) 
0.6

>  <PUBCHEM_CONFORMER_DIVERSEORDER>  (1) 
2
4
5
6
1
3

>  <PUBCHEM_MMFF94_PARTIAL_CHARGES>  (1) 
26
1 -0.75
10 -0.15
11 -0.06
12 -0.15
13 -0.15
14 0.18
15 0.14
16 -0.15
17 -0.15
18 0.14
19 0.37
2 -0.84
20 0.37
21 0.15
22 0.15
23 0.15
24 0.15
28 0.15
29 0.15
3 0.57
4 -0.18
5 -0.18
6 -0.14
7 0.18
8 0.1
9 -0.05

>  <PUBCHEM_EFFECTIVE_ROTOR_COUNT>  (1) 
3

>  <PUBCHEM_PHARMACOPHORE_FEATURES>  (1) 
4
1 1 anion
1 2 cation
6 3 6 7 9 10 11 rings
6 8 12 13 14 16 17 rings

>  <PUBCHEM_HEAVY_ATOM_COUNT>  (1) 
20

>  <PUBCHEM_ATOM_DEF_STEREO_COUNT>  (1) 
0

>  <PUBCHEM_ATOM_UDEF_STEREO_COUNT>  (1) 
0

>  <PUBCHEM_BOND_DEF_STEREO_COUNT>  (1) 
0

>  <PUBCHEM_BOND_UDEF_STEREO_COUNT>  (1) 
0

>  <PUBCHEM_ISOTOPIC_ATOM_COUNT>  (1) 
0

>  <PUBCHEM_COMPONENT_COUNT>  (1) 
1

>  <PUBCHEM_CACTVS_TAUTO_COUNT>  (1) 
1

>  <PUBCHEM_CONFORMER_ID>  (1) 
000073B700000002

>  <PUBCHEM_MMFF94_ENERGY>  (1) 
69.8826

>  <PUBCHEM_FEATURE_SELFOVERLAP>  (1) 
20.297

>  <PUBCHEM_SHAPE_FINGERPRINT>  (1) 
10 15 18261668281392022536
10411042 1 17907015076767966134
11287383 113 18334296478497634553
12107183 9 17621040854808320915
12236239 1 18113618984581568029
12596602 18 18272378581324339507
12616971 3 18201708561990843870
12730499 353 18408610270749511650
12788726 201 17274828995786453817
13533116 47 17988360364982383823
13760787 19 18202559600917514359
13955234 65 18411413986951597210
1420 363 18187369839453370995
14251732 16 18336829792349002435
14341114 176 18411985775372433865
14528608 73 18412824720077121260
14933364 13 18409732855083974337
15196674 1 18411697716173961183
15475509 35 16516227554537298472
17834072 33 18413668019657269239
17844677 252 18410862035876598961
1813 80 16950283996526090045
20645477 70 18271526390734841166
21267235 1 18341057345838291830
21652331 79 18411134740482501533
221357 26 18271807891618368932
23402539 116 18201994431183185549
23557571 272 17095802122768328166
23559900 14 18411131450822220697
239999 70 18343306929549566662
29717793 49 17489874821584602268
300161 21 18343012303018491743
3004659 81 18411699868495726624
34797466 226 17917158281232567612
3545911 37 18410292510222330268
4073 2 18041565839855874890
4214541 1 18411980230659344981
4463277 17 18409730660318730261
474 4 18041563645607543164
5104073 3 18335981961346353049
542803 24 17530965782568931621
54446538 1 18343582928036721352
59755656 215 18409732828966102126
59755656 520 17240481420460452483
621550 34 18114455691413245446
77779 3 18412261731363362606
8272917 22 18271527511679061950
9999458 23 18335420175877720694

>  <PUBCHEM_SHAPE_MULTIPOLES>  (1) 
385.8
15.2
2.01
0.7
7.41
0.19
0.02
-3.01
0.97
-1.57
0.05
0.23
0.03
0.45

>  <PUBCHEM_SHAPE_SELFOVERLAP>  (1) 
816.315

>  <PUBCHEM_SHAPE_VOLUME>  (1) 
218.4

>  <PUBCHEM_COORDINATE_TYPE>  (1) 
2
5
10

$$$$
