29634
     RDKit          3D

 14 13  0  0  0  0  0  0  0  0999 V2000
   -8.5050   -0.4571    0.0056 S   0  0  0  0  0  0  0  0  0  0  0  0
    0.6697    0.4241    0.0586 C   0  0  0  0  0  0  0  0  0  0  0  0
   -0.6367   -0.3748   -0.0061 C   0  0  0  0  0  0  0  0  0  0  0  0
    1.9213   -0.4552    0.0131 C   0  0  0  0  0  0  0  0  0  0  0  0
   -1.9247    0.4553   -0.0222 C   0  0  0  0  0  0  0  0  0  0  0  0
    3.2271    0.3473    0.0001 C   0  0  0  0  0  0  0  0  0  0  0  0
   -3.1983   -0.3937   -0.0026 C   0  0  0  0  0  0  0  0  0  0  0  0
    4.5169   -0.4799   -0.0238 C   0  0  0  0  0  0  0  0  0  0  0  0
   -4.4511    0.4859   -0.0002 C   0  0  0  0  0  0  0  0  0  0  0  0
    5.7884    0.3701    0.0188 C   0  0  0  0  0  0  0  0  0  0  0  0
   -5.7561   -0.3177    0.0290 C   0  0  0  0  0  0  0  0  0  0  0  0
    7.0422   -0.5045   -0.0174 C   0  0  0  0  0  0  0  0  0  0  0  0
   -7.0015    0.5621   -0.0427 C   0  0  0  0  0  0  0  0  0  0  0  0
    8.3079    0.3381   -0.0102 C   0  0  0  0  0  0  0  0  0  0  0  0
  1 13  1  0
  2  3  1  0
  2  4  1  0
  3  5  1  0
  4  6  1  0
  5  7  1  0
  6  8  1  0
  7  9  1  0
  8 10  1  0
  9 11  1  0
 10 12  1  0
 11 13  1  0
 12 14  1  0
M  END
>  <PUBCHEM_COMPOUND_CID>  (1) 
29634

>  <PUBCHEM_CONFORMER_RMSD>  (1) 
1.2

>  <PUBCHEM_CONFORMER_DIVERSEORDER>  (1) 
1
23
10
50
52
21
5
25
26
14
22
35
48
36
7
24
31
53
17
3
29
54
47
44
27
51
30
20
8
46
2
38
28
55
42
45
40
19
11
41
32
16
43
18
15
13
39
56
34
33
9
37
12
6
4
49

>  <PUBCHEM_MMFF94_PARTIAL_CHARGES>  (1) 
3
1 -0.41
13 0.23
42 0.18

>  <PUBCHEM_EFFECTIVE_ROTOR_COUNT>  (1) 
11

>  <PUBCHEM_PHARMACOPHORE_FEATURES>  (1) 
1
1 14 hydrophobe

>  <PUBCHEM_HEAVY_ATOM_COUNT>  (1) 
14

>  <PUBCHEM_ATOM_DEF_STEREO_COUNT>  (1) 
0

>  <PUBCHEM_ATOM_UDEF_STEREO_COUNT>  (1) 
0

>  <PUBCHEM_BOND_DEF_STEREO_COUNT>  (1) 
0

>  <PUBCHEM_BOND_UDEF_STEREO_COUNT>  (1) 
0

>  <PUBCHEM_ISOTOPIC_ATOM_COUNT>  (1) 
0

>  <PUBCHEM_COMPONENT_COUNT>  (1) 
1

>  <PUBCHEM_CACTVS_TAUTO_COUNT>  (1) 
1

>  <PUBCHEM_CONFORMER_ID>  (1) 
000073C200000001

>  <PUBCHEM_MMFF94_ENERGY>  (1) 
-0.6438

>  <PUBCHEM_FEATURE_SELFOVERLAP>  (1) 
5.074

>  <PUBCHEM_SHAPE_FINGERPRINT>  (1) 
11315181 36 18060423529956404787
12091667 2 18408886235773395353
14123256 10 18410856555344822275
14251764 18 18410855447290765347
14251764 46 18410575088963353442
17834076 25 18410575084663078918
18006028 8 17918274251127594449
22224240 67 16950281823589149018
232437 2 18413108355601989550
23521765 1 18341894090834051077
246663 6 17846501439185562775
33684 2 18410573980856496842
42788 4 18411136935563873320
59567204 34 18337106749706913901
67123 10 18410574006626287621
8209 1 18408603660578233661

>  <PUBCHEM_SHAPE_MULTIPOLES>  (1) 
291.96
28.05
0.81
0.62
1
0
0
0.67
-0.15
0.13
0
0.05
0
0.03

>  <PUBCHEM_SHAPE_SELFOVERLAP>  (1) 
506.994

>  <PUBCHEM_SHAPE_VOLUME>  (1) 
192.6

>  <PUBCHEM_COORDINATE_TYPE>  (1) 
2
5
10

$$$$
