29631
     RDKit          3D

 25 26  0  0  0  0  0  0  0  0999 V2000
    0.5374   -0.3122   -0.2391 O   0  0  0  0  0  0  0  0  0  0  0  0
    2.1266    1.8453   -1.0038 O   0  0  0  0  0  0  0  0  0  0  0  0
    1.4845    3.9367   -0.3184 O   0  0  0  0  0  0  0  0  0  0  0  0
    3.1592   -2.8464    0.5546 N   0  0  0  0  0  0  0  0  0  0  0  0
   -1.2378    0.5627    1.0289 N   0  0  0  0  0  0  0  0  0  0  0  0
   -1.7416    1.7145    1.5041 N   0  0  0  0  0  0  0  0  0  0  0  0
    2.1160   -2.1199   -0.2821 C   0  0  0  0  0  0  0  0  0  0  0  0
    3.7197   -4.0178   -0.2390 C   0  0  0  0  0  0  0  0  0  0  0  0
    2.5147   -3.3619    1.8334 C   0  0  0  0  0  0  0  0  0  0  0  0
    4.2863   -1.8862    0.9061 C   0  0  0  0  0  0  0  0  0  0  0  0
    1.5384   -0.9730    0.5236 C   0  0  0  0  0  0  0  0  0  0  0  0
   -0.1031    0.7350    0.3107 C   0  0  0  0  0  0  0  0  0  0  0  0
    0.1687    2.0679    0.3027 C   0  0  0  0  0  0  0  0  0  0  0  0
   -1.9190   -0.6784    1.3149 C   0  0  0  0  0  0  0  0  0  0  0  0
   -0.8782    2.6304    1.0573 C   0  0  0  0  0  0  0  0  0  0  0  0
   -2.9391   -1.0016    0.2569 C   0  0  0  0  0  0  0  0  0  0  0  0
    1.2769    2.7091   -0.3391 C   0  0  0  0  0  0  0  0  0  0  0  0
   -1.0973    4.0513    1.3802 C   0  0  0  0  0  0  0  0  0  0  0  0
   -2.5637   -1.7530   -0.8485 C   0  0  0  0  0  0  0  0  0  0  0  0
   -4.2422   -0.5445    0.4003 C   0  0  0  0  0  0  0  0  0  0  0  0
   -3.5092   -2.0528   -1.8293 C   0  0  0  0  0  0  0  0  0  0  0  0
   -5.1876   -0.8445   -0.5804 C   0  0  0  0  0  0  0  0  0  0  0  0
   -4.8210   -1.5986   -1.6952 C   0  0  0  0  0  0  0  0  0  0  0  0
    3.2569    2.4208   -1.6687 C   0  0  0  0  0  0  0  0  0  0  0  0
    4.0546    1.3171   -2.3300 C   0  0  0  0  0  0  0  0  0  0  0  0
  1 11  1  0
  1 12  1  0
  2 17  1  0
  2 24  1  0
  3 17  2  0
  4  7  1  0
  4  8  1  0
  4  9  1  0
  4 10  1  0
  5  6  1  0
  5 12  1  0
  5 14  1  0
  6 15  2  0
  7 11  1  0
 12 13  2  0
 13 15  1  0
 13 17  1  0
 14 16  1  0
 15 18  1  0
 16 19  2  0
 16 20  1  0
 19 21  1  0
 20 22  2  0
 21 23  2  0
 22 23  1  0
 24 25  1  0
M  CHG  1   4   1
M  END
>  <PUBCHEM_COMPOUND_CID>  (1) 
29631

>  <PUBCHEM_CONFORMER_RMSD>  (1) 
1

>  <PUBCHEM_CONFORMER_DIVERSEORDER>  (1) 
1
69
36
54
45
38
62
61
28
44
41
13
47
34
27
20
26
21
50
24
7
16
51
49
58
67
35
18
10
70
46
2
39
59
14
30
8
32
53
42
57
40
52
9
4
11
22
66
48
25
65
12
6
5
55
56
15
43
63
37
3
23
68
71
17
29
33
19
31
64
60

>  <PUBCHEM_MMFF94_PARTIAL_CHARGES>  (1) 
29
1 -0.34
10 0.5
11 0.28
12 -0.09
13 -0.09
14 0.4
15 0.11
16 -0.14
17 0.81
18 0.18
19 -0.15
2 -0.43
20 -0.15
21 -0.15
22 -0.15
23 -0.15
24 0.28
3 -0.57
4 -1.01
44 0.15
45 0.15
46 0.15
47 0.15
48 0.15
5 0.31
6 -0.71
7 0.5
8 0.5
9 0.5

>  <PUBCHEM_EFFECTIVE_ROTOR_COUNT>  (1) 
9

>  <PUBCHEM_PHARMACOPHORE_FEATURES>  (1) 
6
1 1 acceptor
1 3 acceptor
1 4 cation
1 6 acceptor
5 5 6 12 13 15 rings
6 16 19 20 21 22 23 rings

>  <PUBCHEM_HEAVY_ATOM_COUNT>  (1) 
25

>  <PUBCHEM_ATOM_DEF_STEREO_COUNT>  (1) 
0

>  <PUBCHEM_ATOM_UDEF_STEREO_COUNT>  (1) 
0

>  <PUBCHEM_BOND_DEF_STEREO_COUNT>  (1) 
0

>  <PUBCHEM_BOND_UDEF_STEREO_COUNT>  (1) 
0

>  <PUBCHEM_ISOTOPIC_ATOM_COUNT>  (1) 
0

>  <PUBCHEM_COMPONENT_COUNT>  (1) 
1

>  <PUBCHEM_CACTVS_TAUTO_COUNT>  (1) 
1

>  <PUBCHEM_CONFORMER_ID>  (1) 
000073BF00000001

>  <PUBCHEM_MMFF94_ENERGY>  (1) 
62.0149

>  <PUBCHEM_FEATURE_SELFOVERLAP>  (1) 
30.447

>  <PUBCHEM_SHAPE_FINGERPRINT>  (1) 
11265709 11 18341043030496360915
11552529 35 17841705206404666354
12035759 4 18270975638108381620
12553582 1 18201168736194247203
12730499 353 17976538635716018499
12788726 201 18200326424324539745
13004483 165 18196914600978536563
13083527 12 18340753897645364746
133893 2 17531548511374408228
13757389 114 17476375906892894620
13911987 19 17683552853882202332
14468879 13 13119151100926386155
15163728 17 16153710989250788660
1813 80 18337093575997238059
19026451 147 18410852183306284478
20600515 1 17323186547741897920
2132832 1 18335698287467575374
22393880 68 17983574388798680757
23114952 82 18040987484160262983
23419403 2 17839982391837199145
23598288 3 18049744930876811265
25147074 1 18269290001195086425
266924 1 18338809943654646188
46194498 28 17968919986186733447
463206 1 18267861855654666418
474144 1 18341887553926190431
7471813 234 18410007698399149430
9925002 15 18194407684497128324

>  <PUBCHEM_SHAPE_MULTIPOLES>  (1) 
481.94
8.77
5.46
1.83
4.58
1.84
0.54
-7.54
3.81
-5.38
-0.95
-0.4
0.17
-4.01

>  <PUBCHEM_SHAPE_SELFOVERLAP>  (1) 
993.164

>  <PUBCHEM_SHAPE_VOLUME>  (1) 
281.5

>  <PUBCHEM_COORDINATE_TYPE>  (1) 
2
5
10

$$$$
