29638
     RDKit          3D

  9  9  0  0  1  0  0  0  0  0999 V2000
   -0.8760   -0.2554    0.2608 C   0  0  0  0  0  0  0  0  0  0  0  0
    1.6598   -0.4064    0.3434 C   0  0  0  0  0  0  0  0  0  0  0  0
    0.3608   -1.0829   -0.1177 C   0  0  0  0  0  0  0  0  0  0  0  0
   -0.7650    1.1742   -0.2839 C   0  0  0  0  0  0  0  0  0  0  0  0
    1.7547    1.0240   -0.2023 C   0  0  0  0  0  0  0  0  0  0  0  0
    0.5263    1.8500    0.1690 C   0  0  0  0  0  0  0  0  0  0  0  0
   -2.1506   -0.9279   -0.2466 C   0  0  0  0  0  0  0  0  0  0  0  0
    2.8758   -1.2271   -0.0828 C   0  0  0  0  0  0  0  0  0  0  0  0
   -3.3859   -0.1485    0.1602 C   0  0  0  0  0  0  0  0  0  0  0  0
  1  3  1  0
  1  4  1  0
  1  7  1  0
  2  3  1  0
  2  5  1  0
  2  8  1  0
  4  6  1  0
  5  6  1  0
  7  9  1  0
M  END
>  <PUBCHEM_COMPOUND_CID>  (1) 
29638

>  <PUBCHEM_CONFORMER_RMSD>  (1) 
0.4

>  <PUBCHEM_CONFORMER_DIVERSEORDER>  (1) 
1
11
7
4
3
9
10
2
6
5
8

>  <PUBCHEM_MMFF94_PARTIAL_CHARGES>  (1) 
0

>  <PUBCHEM_EFFECTIVE_ROTOR_COUNT>  (1) 
2.2

>  <PUBCHEM_PHARMACOPHORE_FEATURES>  (1) 
2
1 9 hydrophobe
6 1 2 3 4 5 6 rings

>  <PUBCHEM_HEAVY_ATOM_COUNT>  (1) 
9

>  <PUBCHEM_ATOM_DEF_STEREO_COUNT>  (1) 
2

>  <PUBCHEM_ATOM_UDEF_STEREO_COUNT>  (1) 
0

>  <PUBCHEM_BOND_DEF_STEREO_COUNT>  (1) 
0

>  <PUBCHEM_BOND_UDEF_STEREO_COUNT>  (1) 
0

>  <PUBCHEM_ISOTOPIC_ATOM_COUNT>  (1) 
0

>  <PUBCHEM_COMPONENT_COUNT>  (1) 
1

>  <PUBCHEM_CACTVS_TAUTO_COUNT>  (1) 
1

>  <PUBCHEM_CONFORMER_ID>  (1) 
000073C600000001

>  <PUBCHEM_MMFF94_ENERGY>  (1) 
6.4091

>  <PUBCHEM_FEATURE_SELFOVERLAP>  (1) 
10.148

>  <PUBCHEM_SHAPE_FINGERPRINT>  (1) 
10219947 1 18343585135633872727
12932764 1 17702387436784346729
14128692 85 18411141329093780214
14325111 11 18338517555534983091
161256 15 18408599279558961796
16945 1 18266739275630624649
18185500 45 18341046440504883614
20201158 50 18335699420970027195
20711978 78 18201145641896536668
20871998 184 18057034706017560950
20871998 22 18270970024781590214
21040471 1 17761492890767899912
23552333 60 18341335573418969280
23552423 10 18260548947861966334
241688 4 18337108943453201896
2748010 2 18338224986367940980
29004967 10 18262237827887234777
5084963 1 18272087175723753018
63268167 104 18339646740865122985

>  <PUBCHEM_SHAPE_MULTIPOLES>  (1) 
185.22
4.17
1.69
0.67
1.77
0.56
0
-1.47
-0.04
-0.63
0.05
0
0
-0.02

>  <PUBCHEM_SHAPE_SELFOVERLAP>  (1) 
351.385

>  <PUBCHEM_SHAPE_VOLUME>  (1) 
113

>  <PUBCHEM_COORDINATE_TYPE>  (1) 
2
5
10

$$$$
