29637
     RDKit          3D

 13 14  0  0  1  0  0  0  0  0999 V2000
   -1.9198   -0.7349    0.1487 N   0  0  0  0  0  0  0  0  0  0  0  0
   -0.9708    0.1711   -0.4677 C   0  0  0  0  0  0  0  0  0  0  0  0
   -1.2754    1.5903    0.0299 C   0  0  0  0  0  0  0  0  0  0  0  0
   -0.1584    2.5492   -0.3554 C   0  0  0  0  0  0  0  0  0  0  0  0
    0.4575   -0.2677   -0.2030 C   0  0  0  0  0  0  0  0  0  0  0  0
    1.1436    2.1310    0.3204 C   0  0  0  0  0  0  0  0  0  0  0  0
    1.4561    0.6666    0.1384 C   0  0  0  0  0  0  0  0  0  0  0  0
    0.8227   -1.6153   -0.3735 C   0  0  0  0  0  0  0  0  0  0  0  0
    2.7720    0.2281    0.3596 C   0  0  0  0  0  0  0  0  0  0  0  0
   -3.2806   -0.3069   -0.1224 C   0  0  0  0  0  0  0  0  0  0  0  0
    2.1362   -2.0359   -0.1631 C   0  0  0  0  0  0  0  0  0  0  0  0
    3.1096   -1.1154    0.2092 C   0  0  0  0  0  0  0  0  0  0  0  0
   -4.2925   -1.2602    0.4788 C   0  0  0  0  0  0  0  0  0  0  0  0
  1  2  1  0
  1 10  1  0
  2  3  1  0
  2  5  1  0
  3  4  1  0
  4  6  1  0
  5  7  2  0
  5  8  1  0
  6  7  1  0
  7  9  1  0
  8 11  2  0
  9 12  2  0
 10 13  1  0
 11 12  1  0
M  END
>  <PUBCHEM_COMPOUND_CID>  (1) 
29637

>  <PUBCHEM_CONFORMER_RMSD>  (1) 
0.6

>  <PUBCHEM_CONFORMER_DIVERSEORDER>  (1) 
1
5
6
3
2
4

>  <PUBCHEM_MMFF94_PARTIAL_CHARGES>  (1) 
15
1 -0.9
10 0.27
11 -0.15
12 -0.15
2 0.41
21 0.36
22 0.15
23 0.15
26 0.15
27 0.15
5 -0.14
6 0.14
7 -0.14
8 -0.15
9 -0.15

>  <PUBCHEM_EFFECTIVE_ROTOR_COUNT>  (1) 
2.8

>  <PUBCHEM_PHARMACOPHORE_FEATURES>  (1) 
4
1 1 cation
1 1 donor
6 2 3 4 5 6 7 rings
6 5 7 8 9 11 12 rings

>  <PUBCHEM_HEAVY_ATOM_COUNT>  (1) 
13

>  <PUBCHEM_ATOM_DEF_STEREO_COUNT>  (1) 
0

>  <PUBCHEM_ATOM_UDEF_STEREO_COUNT>  (1) 
1

>  <PUBCHEM_BOND_DEF_STEREO_COUNT>  (1) 
0

>  <PUBCHEM_BOND_UDEF_STEREO_COUNT>  (1) 
0

>  <PUBCHEM_ISOTOPIC_ATOM_COUNT>  (1) 
0

>  <PUBCHEM_COMPONENT_COUNT>  (1) 
1

>  <PUBCHEM_CACTVS_TAUTO_COUNT>  (1) 
1

>  <PUBCHEM_CONFORMER_ID>  (1) 
000073C500000001

>  <PUBCHEM_MMFF94_ENERGY>  (1) 
22.8901

>  <PUBCHEM_FEATURE_SELFOVERLAP>  (1) 
20.318

>  <PUBCHEM_SHAPE_FINGERPRINT>  (1) 
10219947 1 18412825823820432063
10967382 1 18339078318975510892
10980938 120 18267303321043286589
11471102 20 18410850005957506983
11471102 22 18338243759711995131
12032990 46 18411703145123438646
12251169 10 18272934955324133763
12346645 6 18267304424865816365
13140716 1 18051683644944359168
14251717 144 18340199816921034175
14252887 29 18272660038419839602
15501101 241 18334858367831601573
161256 15 18413105052650657180
16945 1 18342163505801154964
193761 8 18339359643739727140
20201158 50 18335137605061980507
20559304 39 18340492260880085401
20645477 70 18191296273186756831
20871998 184 18057597668560329230
20871998 22 18342184314717477967
21501502 16 18266183837780758352
2334 1 18340201878167401270
23463225 33 18410855460149345317
23552423 10 18118126875028875846
23559900 14 17046261200636221726
2748010 2 18198048193276742692
54173680 148 17834677093640828098
7364860 26 18268431411193766985
81228 2 18120102675659346809
8809292 202 17978231547876677654

>  <PUBCHEM_SHAPE_MULTIPOLES>  (1) 
262.55
5.38
2.51
0.7
4.81
1.06
0
-3.33
-0.95
-0.55
0.09
0.03
0
0.36

>  <PUBCHEM_SHAPE_SELFOVERLAP>  (1) 
545.121

>  <PUBCHEM_SHAPE_VOLUME>  (1) 
149.1

>  <PUBCHEM_COORDINATE_TYPE>  (1) 
2
5
10

$$$$
