29636
     RDKit          3D

 26 29  0  0  0  0  0  0  0  0999 V2000
    2.3619   -1.2703   -0.6811 O   0  0  0  0  0  0  0  0  0  0  0  0
    3.0293    1.0324    0.7177 O   0  0  0  0  0  0  0  0  0  0  0  0
   -2.7099   -1.1424   -0.9805 O   0  0  0  0  0  0  0  0  0  0  0  0
   -5.1235   -0.6414   -0.1138 O   0  0  0  0  0  0  0  0  0  0  0  0
   -5.6078    1.6219   -0.1575 O   0  0  0  0  0  0  0  0  0  0  0  0
   -1.6352    2.1919    1.0558 N   0  0  0  0  0  0  0  0  0  0  0  0
    3.6902   -3.1697   -0.1322 C   0  0  0  0  0  0  0  0  0  0  0  0
    4.9995    2.1190   -0.0642 C   0  0  0  0  0  0  0  0  0  0  0  0
    4.4996   -2.9967    1.1195 C   0  0  0  0  0  0  0  0  0  0  0  0
    3.9642   -4.3499    0.7531 C   0  0  0  0  0  0  0  0  0  0  0  0
    5.4586    1.4242   -1.3123 C   0  0  0  0  0  0  0  0  0  0  0  0
    5.6243    2.9094   -1.1763 C   0  0  0  0  0  0  0  0  0  0  0  0
    2.3111   -2.6084   -0.1907 C   0  0  0  0  0  0  0  0  0  0  0  0
    3.5389    2.2579    0.1962 C   0  0  0  0  0  0  0  0  0  0  0  0
    1.3896   -0.4168   -0.2523 C   0  0  0  0  0  0  0  0  0  0  0  0
    1.7251    0.7408    0.4504 C   0  0  0  0  0  0  0  0  0  0  0  0
    0.0536   -0.7116   -0.5227 C   0  0  0  0  0  0  0  0  0  0  0  0
    0.7261    1.6122    0.8882 C   0  0  0  0  0  0  0  0  0  0  0  0
   -0.9460    0.1612   -0.0847 C   0  0  0  0  0  0  0  0  0  0  0  0
   -0.6183    1.3315    0.6257 C   0  0  0  0  0  0  0  0  0  0  0  0
   -2.3784   -0.1371   -0.3648 C   0  0  0  0  0  0  0  0  0  0  0  0
   -3.3896    0.8397    0.1351 C   0  0  0  0  0  0  0  0  0  0  0  0
   -2.9496    1.9166    0.7989 C   0  0  0  0  0  0  0  0  0  0  0  0
   -4.8309    0.6834   -0.0613 C   0  0  0  0  0  0  0  0  0  0  0  0
   -6.5061   -0.9588   -0.3044 C   0  0  0  0  0  0  0  0  0  0  0  0
   -6.6766   -2.4387   -0.3418 C   0  0  0  0  0  0  0  0  0  0  0  0
  1 13  1  0
  1 15  1  0
  2 14  1  0
  2 16  1  0
  3 21  2  0
  4 24  1  0
  4 25  1  0
  5 24  2  0
  6 20  1  0
  6 23  1  0
  7  9  1  0
  7 10  1  0
  7 13  1  0
  8 11  1  0
  8 12  1  0
  8 14  1  0
  9 10  1  0
 11 12  1  0
 15 16  2  0
 15 17  1  0
 16 18  1  0
 17 19  2  0
 18 20  2  0
 19 20  1  0
 19 21  1  0
 21 22  1  0
 22 23  2  0
 22 24  1  0
 25 26  1  0
M  END
>  <PUBCHEM_COMPOUND_CID>  (1) 
29636

>  <PUBCHEM_CONFORMER_RMSD>  (1) 
1

>  <PUBCHEM_CONFORMER_DIVERSEORDER>  (1) 
1
4
7
8
5
11
3
2
12
10
9
6

>  <PUBCHEM_MMFF94_PARTIAL_CHARGES>  (1) 
39
1 -0.36
10 -0.2
11 -0.2
12 -0.2
13 0.38
14 0.38
15 0.08
16 0.08
17 -0.15
18 -0.15
19 0.09
2 -0.36
20 0.1
21 0.47
22 0.03
23 -0.05
24 0.71
25 0.28
27 0.1
28 0.1
29 0.1
3 -0.57
30 0.1
31 0.1
32 0.1
33 0.1
34 0.1
35 0.1
36 0.1
4 -0.43
41 0.15
42 0.15
43 0.4
44 0.15
5 -0.57
6 -0.6
7 -0.19
8 -0.19
9 -0.2

>  <PUBCHEM_EFFECTIVE_ROTOR_COUNT>  (1) 
10.2

>  <PUBCHEM_PHARMACOPHORE_FEATURES>  (1) 
9
1 1 acceptor
1 2 acceptor
1 22 anion
1 3 acceptor
1 5 acceptor
1 6 cation
1 6 donor
6 15 16 17 18 19 20 rings
6 6 19 20 21 22 23 rings

>  <PUBCHEM_HEAVY_ATOM_COUNT>  (1) 
26

>  <PUBCHEM_ATOM_DEF_STEREO_COUNT>  (1) 
0

>  <PUBCHEM_ATOM_UDEF_STEREO_COUNT>  (1) 
0

>  <PUBCHEM_BOND_DEF_STEREO_COUNT>  (1) 
0

>  <PUBCHEM_BOND_UDEF_STEREO_COUNT>  (1) 
0

>  <PUBCHEM_ISOTOPIC_ATOM_COUNT>  (1) 
0

>  <PUBCHEM_COMPONENT_COUNT>  (1) 
1

>  <PUBCHEM_CACTVS_TAUTO_COUNT>  (1) 
4

>  <PUBCHEM_CONFORMER_ID>  (1) 
000073C400000001

>  <PUBCHEM_MMFF94_ENERGY>  (1) 
88.5092

>  <PUBCHEM_FEATURE_SELFOVERLAP>  (1) 
45.7

>  <PUBCHEM_SHAPE_FINGERPRINT>  (1) 
10050765 1 18339361851463719529
10554248 39 18264753403539735453
10595046 47 18411421708949185069
11963148 33 18267574896390386311
12107183 9 17836933299917035865
12236239 1 18334011730693255189
12597179 24 18041566944274224362
12730499 353 18338523035733872392
12788726 201 17417820504358964065
13140716 1 17986388884672476697
13533116 47 18410853252525794306
13540713 5 18128266600977429168
13968360 50 18335137631390693488
15196674 1 18343581820520357489
15347591 1 18409166576768191013
15927050 60 18339922748460125494
17492 89 18340201891142363819
1813 80 17972874762282133210
18335252 98 18261397797505433035
19319366 153 18340204206367133006
20771845 171 17968100858634501916
21267235 1 18058736956708629005
21344244 246 18271822181649835798
21360443 120 18335144224503142140
23366157 5 18261962839049573704
23559900 14 18197484139506151017
25147074 1 18058177137037553560
4073 2 18260553359500540779
5104073 3 18059856134928175307
59554788 191 17981883043204000700
59755656 215 18339363088218660855
67856867 119 18339359669762160360
7970288 3 17906166261342216243

>  <PUBCHEM_SHAPE_MULTIPOLES>  (1) 
500.74
15.2
4.33
1.01
14.66
4.19
-0.01
1.61
-3.11
-7.62
0.63
-0.76
-0.16
-2.59

>  <PUBCHEM_SHAPE_SELFOVERLAP>  (1) 
1065.821

>  <PUBCHEM_SHAPE_VOLUME>  (1) 
279.8

>  <PUBCHEM_COORDINATE_TYPE>  (1) 
2
5
10

$$$$
