29643
     RDKit          3D

 23 24  0  0  0  0  0  0  0  0999 V2000
   -2.2521   -0.3955    0.0121 O   0  0  0  0  0  0  0  0  0  0  0  0
    2.2296    0.8849   -0.5662 O   0  0  0  0  0  0  0  0  0  0  0  0
    4.9358    1.1750   -0.1130 N   0  0  0  0  0  0  0  0  0  0  0  0
    2.4397   -1.4132   -0.1343 N   0  0  0  0  0  0  0  0  0  0  0  0
    4.4181   -0.1299   -0.5230 C   0  0  0  0  0  0  0  0  0  0  0  0
    6.3948    1.1992   -0.2090 C   0  0  0  0  0  0  0  0  0  0  0  0
    4.5078    1.4893    1.2498 C   0  0  0  0  0  0  0  0  0  0  0  0
    2.9030   -0.1293   -0.4144 C   0  0  0  0  0  0  0  0  0  0  0  0
    6.8558    0.9348   -1.6323 C   0  0  0  0  0  0  0  0  0  0  0  0
    5.0369    2.8428    1.6930 C   0  0  0  0  0  0  0  0  0  0  0  0
    1.0980   -1.8277    0.0416 C   0  0  0  0  0  0  0  0  0  0  0  0
    0.0812   -0.8932   -0.0634 C   0  0  0  0  0  0  0  0  0  0  0  0
   -1.2412   -1.3013    0.1117 C   0  0  0  0  0  0  0  0  0  0  0  0
    0.8305   -3.1585    0.3167 C   0  0  0  0  0  0  0  0  0  0  0  0
   -3.5803   -0.8811    0.2027 C   0  0  0  0  0  0  0  0  0  0  0  0
   -1.5276   -2.6381    0.3892 C   0  0  0  0  0  0  0  0  0  0  0  0
   -4.5465    0.2528    0.0235 C   0  0  0  0  0  0  0  0  0  0  0  0
   -0.4917   -3.5666    0.4918 C   0  0  0  0  0  0  0  0  0  0  0  0
   -4.9125    1.0253    1.1201 C   0  0  0  0  0  0  0  0  0  0  0  0
   -5.0670    0.5210   -1.2377 C   0  0  0  0  0  0  0  0  0  0  0  0
   -5.8106    2.0794    0.9536 C   0  0  0  0  0  0  0  0  0  0  0  0
   -5.9651    1.5754   -1.4042 C   0  0  0  0  0  0  0  0  0  0  0  0
   -6.3368    2.3546   -0.3084 C   0  0  0  0  0  0  0  0  0  0  0  0
  1 13  1  0
  1 15  1  0
  2  8  2  0
  3  5  1  0
  3  6  1  0
  3  7  1  0
  4  8  1  0
  4 11  1  0
  5  8  1  0
  6  9  1  0
  7 10  1  0
 11 12  2  0
 11 14  1  0
 12 13  1  0
 13 16  2  0
 14 18  2  0
 15 17  1  0
 16 18  1  0
 17 19  2  0
 17 20  1  0
 19 21  1  0
 20 22  2  0
 21 23  2  0
 22 23  1  0
M  END
>  <PUBCHEM_COMPOUND_CID>  (1) 
29643

>  <PUBCHEM_CONFORMER_RMSD>  (1) 
1

>  <PUBCHEM_CONFORMER_DIVERSEORDER>  (1) 
2
7
50
43
29
35
51
75
34
32
39
74
59
52
76
42
70
10
37
54
71
25
46
77
72
66
41
38
24
8
48
20
13
44
9
68
55
40
57
81
27
36
5
30
26
45
33
53
15
47
80
56
11
65
49
23
67
19
79
61
6
21
78
12
69
31
1
73
3
64
58
22
16
60
62
17
18
4
63
14
28

>  <PUBCHEM_MMFF94_PARTIAL_CHARGES>  (1) 
31
1 -0.36
11 0.12
12 -0.15
13 0.08
14 -0.15
15 0.42
16 -0.15
17 -0.14
18 -0.15
19 -0.15
2 -0.57
20 -0.15
21 -0.15
22 -0.15
23 -0.15
3 -0.81
36 0.37
37 0.15
38 0.15
4 -0.55
41 0.15
42 0.15
43 0.15
44 0.15
45 0.15
46 0.15
47 0.15
5 0.33
6 0.27
7 0.27
8 0.57

>  <PUBCHEM_EFFECTIVE_ROTOR_COUNT>  (1) 
9

>  <PUBCHEM_PHARMACOPHORE_FEATURES>  (1) 
6
1 1 acceptor
1 2 acceptor
1 3 cation
1 4 donor
6 11 12 13 14 16 18 rings
6 17 19 20 21 22 23 rings

>  <PUBCHEM_HEAVY_ATOM_COUNT>  (1) 
23

>  <PUBCHEM_ATOM_DEF_STEREO_COUNT>  (1) 
0

>  <PUBCHEM_ATOM_UDEF_STEREO_COUNT>  (1) 
0

>  <PUBCHEM_BOND_DEF_STEREO_COUNT>  (1) 
0

>  <PUBCHEM_BOND_UDEF_STEREO_COUNT>  (1) 
0

>  <PUBCHEM_ISOTOPIC_ATOM_COUNT>  (1) 
0

>  <PUBCHEM_COMPONENT_COUNT>  (1) 
1

>  <PUBCHEM_CACTVS_TAUTO_COUNT>  (1) 
2

>  <PUBCHEM_CONFORMER_ID>  (1) 
000073CB00000002

>  <PUBCHEM_MMFF94_ENERGY>  (1) 
68.4943

>  <PUBCHEM_FEATURE_SELFOVERLAP>  (1) 
30.446

>  <PUBCHEM_SHAPE_FINGERPRINT>  (1) 
10 15 17748835107399235633
11069576 57 14260528846180733716
12293681 160 18060422395705432395
12390115 104 18410301332349342099
12403259 118 17676778668417522335
12422481 6 17313377903241495901
12633257 1 16153712058845331403
12769317 202 18343294851615817857
13540713 4 18263385645176895059
13631057 29 18340481284036180951
13782708 43 7853589980601193132
13955234 65 18045220436645918867
14123256 34 9727631726175445997
14251740 57 8502363438702850639
14251764 30 8790890704495545145
14848178 96 18413103944680788561
14931854 50 18059860519293822488
14950920 106 15068630421920203229
15183329 4 16988565671342873437
15980000 95 17547010724274349378
1768 210 18270100418901242149
17780758 139 11963385242043850807
19784866 34 18410572856208464387
20567600 254 18409162208095244157
20715895 44 18413384354611449240
21033648 144 18261670381873441623
21033648 29 18336824294854277560
21033650 10 15410621324907968675
21279426 13 18130511924486567656
21298829 104 18337675213886445485
21315759 148 12613017397863985340
21401589 2 18187090550963401531
21774942 28 17560522790123639472
23559900 14 18200601405996429326
23929065 36 17980745345006730651
270888 7 18408604738667805047
2748736 6 18410283731277963897
2838139 119 18202843253326443421
2916195 48 18342174505207151347
312425 54 13045937984850325653
314194 84 9078817607116951311
376196 1 18413669132112561738
3862424 121 14619360127173695077
465052 167 8790592732644012907
5104073 3 18114183008440916083
5385378 56 18261392200683219290
53917941 68 18340193198302863991
543368 44 18343018862225109845
5718773 13 10591771944050895708
59682541 52 17489035860005819782
60123966 16 17489316356142046924
6327066 14 18334575750187888111
77188 2 17326891773047530699
7918774 8 9223234082684849529
7970288 3 9223229641731292081
9981440 41 18334015016860208675

>  <PUBCHEM_SHAPE_MULTIPOLES>  (1) 
451.63
18.39
3.6
1.25
2.17
2.22
0.02
-20.49
3.22
-0.31
-1.2
0.49
-0.85
1.15

>  <PUBCHEM_SHAPE_SELFOVERLAP>  (1) 
938.59

>  <PUBCHEM_SHAPE_VOLUME>  (1) 
258.2

>  <PUBCHEM_COORDINATE_TYPE>  (1) 
2
5
10

$$$$
