29659
     RDKit          3D

 21 23  0  0  0  0  0  0  0  0999 V2000
    0.0177    4.6821    0.0804 Cl  0  0  0  0  0  0  0  0  0  0  0  0
    4.3431   -2.8568   -0.0700 O   0  0  0  0  0  0  0  0  0  0  0  0
    5.3067   -0.8847   -0.0301 O   0  0  0  0  0  0  0  0  0  0  0  0
   -1.9529    0.1398   -0.0102 N   0  0  0  0  0  0  0  0  0  0  0  0
   -4.4775   -1.1941    0.0723 N   0  0  0  0  0  0  0  0  0  0  0  0
   -0.8876    2.2556    0.0321 N   0  0  0  0  0  0  0  0  0  0  0  0
    4.2787   -1.6039   -0.0444 N   0  0  0  0  0  0  0  0  0  0  0  0
   -2.9080    0.3072   -1.1097 C   0  0  0  0  0  0  0  0  0  0  0  0
   -2.5313   -0.2625    1.2782 C   0  0  0  0  0  0  0  0  0  0  0  0
   -3.8272   -0.9125   -1.2133 C   0  0  0  0  0  0  0  0  0  0  0  0
   -3.4615   -1.4641    1.0971 C   0  0  0  0  0  0  0  0  0  0  0  0
   -0.7732    0.8922    0.0050 C   0  0  0  0  0  0  0  0  0  0  0  0
   -5.3933   -2.3273   -0.0532 C   0  0  0  0  0  0  0  0  0  0  0  0
    0.4865    0.2494   -0.0074 C   0  0  0  0  0  0  0  0  0  0  0  0
    1.6527    1.0420    0.0086 C   0  0  0  0  0  0  0  0  0  0  0  0
    0.5939   -1.1508   -0.0356 C   0  0  0  0  0  0  0  0  0  0  0  0
    1.5244    2.4356    0.0362 C   0  0  0  0  0  0  0  0  0  0  0  0
    2.9077    0.4116   -0.0038 C   0  0  0  0  0  0  0  0  0  0  0  0
    0.2501    2.9820    0.0467 C   0  0  0  0  0  0  0  0  0  0  0  0
    1.8484   -1.7602   -0.0474 C   0  0  0  0  0  0  0  0  0  0  0  0
    3.0026   -0.9808   -0.0315 C   0  0  0  0  0  0  0  0  0  0  0  0
  1 19  1  0
  2  7  1  0
  3  7  2  0
  4  8  1  0
  4  9  1  0
  4 12  1  0
  5 10  1  0
  5 11  1  0
  5 13  1  0
  6 12  2  0
  6 19  1  0
  7 21  1  0
  8 10  1  0
  9 11  1  0
 12 14  1  0
 14 15  2  0
 14 16  1  0
 15 17  1  0
 15 18  1  0
 16 20  2  0
 17 19  2  0
 18 21  2  0
 20 21  1  0
M  CHG  2   2  -1   7   1
M  END
>  <PUBCHEM_COMPOUND_CID>  (1) 
29659

>  <PUBCHEM_CONFORMER_RMSD>  (1) 
0.6

>  <PUBCHEM_CONFORMER_DIVERSEORDER>  (1) 
1
2
5
3
4

>  <PUBCHEM_MMFF94_PARTIAL_CHARGES>  (1) 
23
1 -0.18
10 0.27
11 0.27
12 0.41
13 0.27
16 -0.15
17 -0.15
18 -0.15
19 0.49
2 -0.52
20 -0.15
21 0.13
3 -0.52
33 0.15
34 0.15
35 0.15
36 0.15
4 -0.84
5 -0.81
6 -0.62
7 0.91
8 0.37
9 0.37

>  <PUBCHEM_EFFECTIVE_ROTOR_COUNT>  (1) 
3.2

>  <PUBCHEM_PHARMACOPHORE_FEATURES>  (1) 
9
1 2 acceptor
1 2 anion
1 3 acceptor
1 4 cation
1 5 cation
1 6 acceptor
6 14 15 16 18 20 21 rings
6 4 5 8 9 10 11 rings
6 6 12 14 15 17 19 rings

>  <PUBCHEM_HEAVY_ATOM_COUNT>  (1) 
21

>  <PUBCHEM_ATOM_DEF_STEREO_COUNT>  (1) 
0

>  <PUBCHEM_ATOM_UDEF_STEREO_COUNT>  (1) 
0

>  <PUBCHEM_BOND_DEF_STEREO_COUNT>  (1) 
0

>  <PUBCHEM_BOND_UDEF_STEREO_COUNT>  (1) 
0

>  <PUBCHEM_ISOTOPIC_ATOM_COUNT>  (1) 
0

>  <PUBCHEM_COMPONENT_COUNT>  (1) 
1

>  <PUBCHEM_CACTVS_TAUTO_COUNT>  (1) 
1

>  <PUBCHEM_CONFORMER_ID>  (1) 
000073DB00000001

>  <PUBCHEM_MMFF94_ENERGY>  (1) 
74.7564

>  <PUBCHEM_FEATURE_SELFOVERLAP>  (1) 
45.782

>  <PUBCHEM_SHAPE_FINGERPRINT>  (1) 
10411042 1 18410856546987288586
10967382 1 18266741466412196180
11045515 52 18260266322013830045
11582403 64 16313798916531241965
11806522 49 18408885122897071198
12107183 9 18342189839089562211
12236239 1 17632020861702499155
12363563 72 18409454669466662898
12403259 226 18261949747630650541
12553582 1 18339096916152500866
12788726 201 17976246950947885321
13009979 54 17917446331751207713
13134695 92 18410575136355985885
13140716 1 18341897337903920784
13533116 47 18195251242497955347
13544592 145 18041275573898630443
13544653 18 18335144167692815974
13583140 156 14548166572585076186
138480 1 14663579756736492088
13862211 1 18410009936293615738
13955234 65 18052541268457016281
14767858 380 18263096538690866758
14787075 74 18259992595643209802
14790565 3 17544763781904911812
14866123 147 17979073773957354913
15042514 8 18195813959763649641
15352361 1 18410012126162414779
16087824 20 18050568448788361541
16945 1 18195529413679691400
17357779 13 18335690624813442044
17539 30 18194394494320454405
1813 80 18201734945679401276
18222031 100 18413383250367094866
19427546 20 18191594047522288148
200 152 18343580746430614235
20028762 73 18059292183747448327
20645477 70 18190454059905955611
20671657 53 18412267250596791521
21029758 11 18408603656135592906
21041028 32 18412550907454286057
21049683 271 18116725199214140092
21267235 1 18411989069544057542
21452121 199 18335415773030041368
221357 26 18333724737331974207
221490 88 18263084486290453595
22182313 1 18266433521468027604
2255824 54 18125728039161289301
23402539 116 18339642243929089714
23526113 38 18114463478204933409
23557571 272 17912927180432315060
23558518 356 17901118421186831850
23559900 14 17604988290259911815
2748010 2 18339346518356723756
283562 15 18263646173887103738
3091708 16 9066276568763817552
3286 77 18335139842897957127
3421961 26 18340204206002901929
458136 41 17759817226805654205
46194498 28 17459467930455111391
5104073 3 18126840505111940354
58779409 54 18119802521743544740
6443956 14 18409168835488679949
6669772 16 17835251412832183788
7364860 26 18194683889311615785
7471813 234 18060132198088161553
77188 2 18411138051865727284
7970288 3 18411698768367985703
81228 2 18121214281746639089
9709674 26 18189896607732622139

>  <PUBCHEM_SHAPE_MULTIPOLES>  (1) 
402.38
8.99
4.05
0.88
3.48
4.95
-0.02
-10.21
0.44
-2.44
-0.13
0.91
-0.1
0.27

>  <PUBCHEM_SHAPE_SELFOVERLAP>  (1) 
858.567

>  <PUBCHEM_SHAPE_VOLUME>  (1) 
226.2

>  <PUBCHEM_COORDINATE_TYPE>  (1) 
2
5
10

$$$$
