29658
     RDKit          3D

 13 12  0  0  0  0  0  0  0  0999 V2000
   -1.2629   -0.1405   -0.0127 O   0  0  0  0  0  0  0  0  0  0  0  0
   -0.1900    1.9017   -0.0025 O   0  0  0  0  0  0  0  0  0  0  0  0
    3.5691   -0.2908    0.0059 N   0  0  0  0  0  0  0  0  0  0  0  0
    2.3645    0.6385    0.0458 C   0  0  0  0  0  0  0  0  0  0  0  0
    4.8453    0.5264    0.1469 C   0  0  0  0  0  0  0  0  0  0  0  0
    3.4772   -1.2896    1.1507 C   0  0  0  0  0  0  0  0  0  0  0  0
    3.5895   -1.0386   -1.3194 C   0  0  0  0  0  0  0  0  0  0  0  0
    1.0809   -0.1743   -0.0296 C   0  0  0  0  0  0  0  0  0  0  0  0
   -0.1694    0.6787   -0.0173 C   0  0  0  0  0  0  0  0  0  0  0  0
   -3.6348   -0.5232    0.0141 C   0  0  0  0  0  0  0  0  0  0  0  0
   -2.5303    0.5241    0.0120 C   0  0  0  0  0  0  0  0  0  0  0  0
   -5.0195    0.1181    0.0239 C   0  0  0  0  0  0  0  0  0  0  0  0
   -6.1194   -0.9305   -0.0177 C   0  0  0  0  0  0  0  0  0  0  0  0
  1  9  1  0
  1 11  1  0
  2  9  2  0
  3  4  1  0
  3  5  1  0
  3  6  1  0
  3  7  1  0
  4  8  1  0
  8  9  1  0
 10 11  1  0
 10 12  1  0
 12 13  1  0
M  CHG  1   3   1
M  END
>  <PUBCHEM_COMPOUND_CID>  (1) 
29658

>  <PUBCHEM_CONFORMER_RMSD>  (1) 
0.8

>  <PUBCHEM_CONFORMER_DIVERSEORDER>  (1) 
1
39
6
31
38
30
27
37
18
22
21
35
15
13
28
8
11
19
25
20
34
29
24
10
23
14
5
9
4
32
2
16
26
33
3
7
12
17
36

>  <PUBCHEM_MMFF94_PARTIAL_CHARGES>  (1) 
10
1 -0.43
11 0.28
2 -0.57
3 -1.01
4 0.5
5 0.5
6 0.5
7 0.5
8 0.06
9 0.66

>  <PUBCHEM_EFFECTIVE_ROTOR_COUNT>  (1) 
7

>  <PUBCHEM_PHARMACOPHORE_FEATURES>  (1) 
3
1 13 hydrophobe
1 2 acceptor
1 3 cation

>  <PUBCHEM_HEAVY_ATOM_COUNT>  (1) 
13

>  <PUBCHEM_ATOM_DEF_STEREO_COUNT>  (1) 
0

>  <PUBCHEM_ATOM_UDEF_STEREO_COUNT>  (1) 
0

>  <PUBCHEM_BOND_DEF_STEREO_COUNT>  (1) 
0

>  <PUBCHEM_BOND_UDEF_STEREO_COUNT>  (1) 
0

>  <PUBCHEM_ISOTOPIC_ATOM_COUNT>  (1) 
0

>  <PUBCHEM_COMPONENT_COUNT>  (1) 
1

>  <PUBCHEM_CACTVS_TAUTO_COUNT>  (1) 
1

>  <PUBCHEM_CONFORMER_ID>  (1) 
000073DA00000001

>  <PUBCHEM_MMFF94_ENERGY>  (1) 
24.4136

>  <PUBCHEM_FEATURE_SELFOVERLAP>  (1) 
15.223

>  <PUBCHEM_SHAPE_FINGERPRINT>  (1) 
100836 57 9799692619075148963
10354089 29 14189573044366280498
11287383 113 14562822066208602057
114248 4 16008749117350231495
12032990 46 18342179942519742437
12815109 37 18409446998966035779
13533116 47 15625951897672110199
13690532 89 18410292523697906891
13955234 65 17346875642507008074
14123238 8 18343582949606015989
14251718 22 18335421291936052117
14252887 29 18202570566169311942
15242433 33 18187364341589523787
17834072 33 18200875179284524997
17834076 25 15770059440716305741
187816 3 17312823775145820185
20279233 1 17749115491227231104
20645477 70 18411139151329174366
20767249 13 18260828202451328827
212847 35 9079113362939068478
22485316 2 18334292076182620739
23402539 116 13758353359055963721
23402655 69 11746934295993170593
4047638 21 10953462933768300052
42 15 17275108314657926031
42788 4 18411699893959536177
449060 50 17203603805002015400
465052 167 18342179968173826646
522135 26 17603586326686913722
5374978 207 18411411809207576896
57483677 66 18335699464473568651

>  <PUBCHEM_SHAPE_MULTIPOLES>  (1) 
250.81
12.76
1.25
0.85
12.69
0.16
0.06
-3.78
-0.07
-0.4
-0.04
-0.89
-0.29
0.01

>  <PUBCHEM_SHAPE_SELFOVERLAP>  (1) 
458.027

>  <PUBCHEM_SHAPE_VOLUME>  (1) 
162.6

>  <PUBCHEM_COORDINATE_TYPE>  (1) 
2
5
10

$$$$
