29652
     RDKit          3D

 22 24  0  0  1  0  0  0  0  0999 V2000
   -5.7913   -1.4401    1.3744 Cl  0  0  0  0  0  0  0  0  0  0  0  0
   -0.6035   -0.0828    1.5276 S   0  0  0  0  0  0  0  0  0  0  0  0
    1.2457   -0.9597   -0.7191 O   0  0  0  0  0  0  0  0  0  0  0  0
    4.6303   -1.4947    0.6073 N   0  0  0  0  0  0  0  0  0  0  0  0
    0.5837    0.1117   -1.3861 C   0  0  0  0  0  0  0  0  0  0  0  0
   -0.8075   -0.3052   -1.8776 C   0  0  0  0  0  0  0  0  0  0  0  0
    0.5661    1.3664   -0.5461 C   0  0  0  0  0  0  0  0  0  0  0  0
   -1.9725   -0.5564   -0.9360 C   0  0  0  0  0  0  0  0  0  0  0  0
    0.0365    1.3876    0.7541 C   0  0  0  0  0  0  0  0  0  0  0  0
   -1.9876   -0.4809    0.4693 C   0  0  0  0  0  0  0  0  0  0  0  0
    2.5900   -0.6233   -0.4272 C   0  0  0  0  0  0  0  0  0  0  0  0
    3.2383   -1.7896    0.3016 C   0  0  0  0  0  0  0  0  0  0  0  0
    1.0703    2.5601   -1.0908 C   0  0  0  0  0  0  0  0  0  0  0  0
   -3.1777   -0.9078   -1.5915 C   0  0  0  0  0  0  0  0  0  0  0  0
    0.0357    2.5813    1.4903 C   0  0  0  0  0  0  0  0  0  0  0  0
   -3.1831   -0.7659    1.1633 C   0  0  0  0  0  0  0  0  0  0  0  0
    1.0596    3.7451   -0.3553 C   0  0  0  0  0  0  0  0  0  0  0  0
   -4.3523   -1.1792   -0.8923 C   0  0  0  0  0  0  0  0  0  0  0  0
    0.5434    3.7552    0.9358 C   0  0  0  0  0  0  0  0  0  0  0  0
   -4.3542   -1.1087    0.4905 C   0  0  0  0  0  0  0  0  0  0  0  0
    5.3791   -1.2023   -0.6174 C   0  0  0  0  0  0  0  0  0  0  0  0
    5.2511   -2.6108    1.3249 C   0  0  0  0  0  0  0  0  0  0  0  0
  1 20  1  0
  2  9  1  0
  2 10  1  0
  3  5  1  0
  3 11  1  0
  4 12  1  0
  4 21  1  0
  4 22  1  0
  5  6  1  0
  5  7  1  0
  6  8  1  0
  7  9  2  0
  7 13  1  0
  8 10  2  0
  8 14  1  0
  9 15  1  0
 10 16  1  0
 11 12  1  0
 13 17  2  0
 14 18  2  0
 15 19  2  0
 16 20  2  0
 17 19  1  0
 18 20  1  0
M  END
>  <PUBCHEM_COMPOUND_CID>  (1) 
29652

>  <PUBCHEM_CONFORMER_RMSD>  (1) 
0.8

>  <PUBCHEM_CONFORMER_DIVERSEORDER>  (1) 
1
8
5
15
6
23
7
21
13
14
24
3
22
20
18
2
12
25
19
16
9
10
4
17
11

>  <PUBCHEM_MMFF94_PARTIAL_CHARGES>  (1) 
29
1 -0.18
10 0.1
11 0.28
12 0.27
13 -0.15
14 -0.15
15 -0.15
16 -0.15
17 -0.15
18 -0.15
19 -0.15
2 -0.2
20 0.18
21 0.27
22 0.27
3 -0.56
30 0.15
31 0.15
32 0.15
33 0.15
34 0.15
35 0.15
36 0.15
4 -0.81
5 0.42
6 0.14
7 -0.14
8 -0.14
9 0.1

>  <PUBCHEM_EFFECTIVE_ROTOR_COUNT>  (1) 
4.6

>  <PUBCHEM_PHARMACOPHORE_FEATURES>  (1) 
5
1 3 acceptor
1 4 cation
6 7 9 13 15 17 19 rings
6 8 10 14 16 18 20 rings
7 2 5 6 7 8 9 10 rings

>  <PUBCHEM_HEAVY_ATOM_COUNT>  (1) 
22

>  <PUBCHEM_ATOM_DEF_STEREO_COUNT>  (1) 
0

>  <PUBCHEM_ATOM_UDEF_STEREO_COUNT>  (1) 
1

>  <PUBCHEM_BOND_DEF_STEREO_COUNT>  (1) 
0

>  <PUBCHEM_BOND_UDEF_STEREO_COUNT>  (1) 
0

>  <PUBCHEM_ISOTOPIC_ATOM_COUNT>  (1) 
0

>  <PUBCHEM_COMPONENT_COUNT>  (1) 
1

>  <PUBCHEM_CACTVS_TAUTO_COUNT>  (1) 
1

>  <PUBCHEM_CONFORMER_ID>  (1) 
000073D400000001

>  <PUBCHEM_MMFF94_ENERGY>  (1) 
71.1208

>  <PUBCHEM_FEATURE_SELFOVERLAP>  (1) 
25.384

>  <PUBCHEM_SHAPE_FINGERPRINT>  (1) 
10074138 170 17979905017327316568
10764073 3 15410344243138910928
11045515 52 18334851689115323324
11101153 10 18408889513139546844
11265709 11 18412551989579887656
12422481 6 17703517588297537961
12516196 113 18410293609940069706
12553582 1 18271814509772744934
12633257 1 18200325419619171247
12788726 201 17832120754659632120
12969540 114 9727342520310720394
13004483 165 18339635638464495938
13134695 92 18340483464824207485
133893 2 17909517865067157564
13533116 47 18122345937795940035
13540713 5 17558548269377773799
13544653 18 18408318878561257102
13955234 65 18048042053790872657
14251757 17 16370725924478608830
14466204 15 18268434542957908529
14840074 17 18131349752399492012
14955137 171 18201452405567093030
15475509 35 18043547203312928691
17876694 64 17846233145279062905
17980427 23 16487248902794434425
1813 80 18272938210872252502
18222031 100 18272929427664385494
18769570 83 18195523693284328621
18785283 64 17900257799608043972
200 152 18113898213533463182
20600515 1 17703791439760195278
20832881 197 18260267434684334915
21033648 29 16845017792981626611
21041028 32 18413392025159373309
21304303 282 17325456949211884380
21304303 94 12901539161408026273
21344244 78 17988933288113260475
23175994 123 18407758123251806095
23419403 2 17985799645208756240
23559900 14 17530962544839044855
3027735 51 17461153258237022650
3286 77 18260556657877096839
345986 75 18272091595662092040
394222 165 17556588960477700777
474 4 17693945498518953745
513202 73 17983592809729634878
58260988 587 17608391338661519749
59554788 62 17274256136916478847
6442390 28 17111295667606816553
6786 2 17252599374539003412
70251023 43 18266156479382642631
81228 2 17979931418564884188

>  <PUBCHEM_SHAPE_MULTIPOLES>  (1) 
447.62
9.71
3.66
1.75
0.5
4.55
-0.11
-12.16
2.6
3.84
1.05
-0.74
-0.07
-0.71

>  <PUBCHEM_SHAPE_SELFOVERLAP>  (1) 
927.945

>  <PUBCHEM_SHAPE_VOLUME>  (1) 
256.9

>  <PUBCHEM_COORDINATE_TYPE>  (1) 
2
5
10

$$$$
