29665
     RDKit          3D

 14 14  0  0  0  0  0  0  0  0999 V2000
   -5.2597   -0.4753    0.3557 Br  0  0  0  0  0  0  0  0  0  0  0  0
    0.6636    0.3888   -0.7007 N   0  0  0  0  0  0  0  0  0  0  0  0
    2.7822    0.7979   -0.0297 N   0  0  0  0  0  0  0  0  0  0  0  0
    1.1040    0.7038    1.6404 N   0  0  0  0  0  0  0  0  0  0  0  0
    4.8801   -0.1523   -0.3982 N   0  0  0  0  0  0  0  0  0  0  0  0
    3.1819   -1.5636    0.1849 N   0  0  0  0  0  0  0  0  0  0  0  0
   -0.7054    0.1890   -0.4570 C   0  0  0  0  0  0  0  0  0  0  0  0
   -1.5725    1.2777   -0.4499 C   0  0  0  0  0  0  0  0  0  0  0  0
   -1.1857   -1.0964   -0.2237 C   0  0  0  0  0  0  0  0  0  0  0  0
   -2.9317    1.0793   -0.2072 C   0  0  0  0  0  0  0  0  0  0  0  0
   -2.5450   -1.2949    0.0189 C   0  0  0  0  0  0  0  0  0  0  0  0
   -3.4180   -0.2069    0.0271 C   0  0  0  0  0  0  0  0  0  0  0  0
    1.4566    0.6140    0.3100 C   0  0  0  0  0  0  0  0  0  0  0  0
    3.5497   -0.2611   -0.0708 C   0  0  0  0  0  0  0  0  0  0  0  0
  1 12  1  0
  2  7  1  0
  2 13  2  0
  3 13  1  0
  3 14  2  0
  4 13  1  0
  5 14  1  0
  6 14  1  0
  7  8  2  0
  7  9  1  0
  8 10  1  0
  9 11  2  0
 10 12  2  0
 11 12  1  0
M  END
>  <PUBCHEM_COMPOUND_CID>  (1) 
29665

>  <PUBCHEM_CONFORMER_RMSD>  (1) 
0.6

>  <PUBCHEM_CONFORMER_DIVERSEORDER>  (1) 
1
2
3

>  <PUBCHEM_MMFF94_PARTIAL_CHARGES>  (1) 
24
1 -0.11
10 -0.15
11 -0.15
12 0.11
13 0.71
14 0.55
15 0.15
16 0.15
17 0.15
18 0.15
19 0.4
2 -0.63
20 0.4
21 0.4
22 0.4
23 0.4
24 0.4
3 -0.66
4 -0.85
5 -0.85
6 -0.85
7 0.18
8 -0.15
9 -0.15

>  <PUBCHEM_EFFECTIVE_ROTOR_COUNT>  (1) 
2

>  <PUBCHEM_PHARMACOPHORE_FEATURES>  (1) 
7
1 1 hydrophobe
1 4 donor
1 5 donor
1 6 donor
4 2 3 4 13 cation
4 3 5 6 14 cation
6 7 8 9 10 11 12 rings

>  <PUBCHEM_HEAVY_ATOM_COUNT>  (1) 
14

>  <PUBCHEM_ATOM_DEF_STEREO_COUNT>  (1) 
0

>  <PUBCHEM_ATOM_UDEF_STEREO_COUNT>  (1) 
0

>  <PUBCHEM_BOND_DEF_STEREO_COUNT>  (1) 
0

>  <PUBCHEM_BOND_UDEF_STEREO_COUNT>  (1) 
0

>  <PUBCHEM_ISOTOPIC_ATOM_COUNT>  (1) 
0

>  <PUBCHEM_COMPONENT_COUNT>  (1) 
1

>  <PUBCHEM_CACTVS_TAUTO_COUNT>  (1) 
5

>  <PUBCHEM_CONFORMER_ID>  (1) 
000073E100000001

>  <PUBCHEM_MMFF94_ENERGY>  (1) 
45.4301

>  <PUBCHEM_FEATURE_SELFOVERLAP>  (1) 
35.621

>  <PUBCHEM_SHAPE_FINGERPRINT>  (1) 
10130415 120 17632577154097896360
10465860 250 18060695066278656496
11062470 55 9079116661268054533
11401426 45 11024109837329247875
12032990 46 18334016107738929999
12119455 92 17274822450546444509
12186901 62 18113613448400411301
12251169 10 18342459265807385181
124424 183 17775002388359173873
12932764 1 17917700344522359020
13581323 91 18408039611039403141
13675066 3 13614526276937839645
13690532 89 18333450958820307999
14993402 34 17022619793002326279
15653759 3 18343014506088957297
17802600 8 9871750174284642142
17804303 29 18341897411165589301
17834072 33 17895481422143386765
17834074 16 18410294696397899510
17834076 25 11527948958550483008
19422 9 17822291236829511728
200 152 17132108057385032165
20645477 70 18337953390116957862
21267235 1 18335430062016800926
22485316 2 18410289220520020094
2297311 6 18341625797476235516
23175994 123 17489875937785618736
23402539 116 17775280565528982181
23559900 14 18339075011740300000
265663 24 16845289462800896063
3286 77 17131542959869042745
42 15 18409451388406924471
474 4 16734121217882093380
69090 78 18131064961555308031
7364860 26 18191589850880485716
77779 3 18408042905411239916

>  <PUBCHEM_SHAPE_MULTIPOLES>  (1) 
269.15
9.22
1.31
0.85
1.15
0.15
-0.24
2
-0.33
-0.22
0.03
0.1
-0.13
0.21

>  <PUBCHEM_SHAPE_SELFOVERLAP>  (1) 
544.136

>  <PUBCHEM_SHAPE_VOLUME>  (1) 
160.9

>  <PUBCHEM_COORDINATE_TYPE>  (1) 
2
5
10

$$$$
