29673
     RDKit          3D

 33 34  0  0  1  0  0  0  0  0999 V2000
    3.4085   -2.4411    0.1699 Cl  0  0  0  0  0  0  0  0  0  0  0  0
    5.4341    0.7453    0.3949 O   0  0  0  0  0  0  0  0  0  0  0  0
    5.7805    2.2862   -1.2797 O   0  0  0  0  0  0  0  0  0  0  0  0
   -0.2477   -4.1010    0.5048 N   0  0  0  0  0  0  0  0  0  0  0  0
   -2.7658    0.0142   -1.1586 N   0  0  0  0  0  0  0  0  0  0  0  0
   -4.6706    1.0923   -0.3217 N   0  0  0  0  0  0  0  0  0  0  0  0
   -1.0954    1.5626    0.4416 N   0  0  0  0  0  0  0  0  0  0  0  0
   -4.4397    2.8330    1.3287 N   0  0  0  0  0  0  0  0  0  0  0  0
   -2.2932    3.4623    2.1121 N   0  0  0  0  0  0  0  0  0  0  0  0
   -6.5549    2.1935    0.5395 N   0  0  0  0  0  0  0  0  0  0  0  0
   -0.5935    2.3170   -0.4239 N   0  0  0  0  0  0  0  0  0  0  0  0
   -1.3940   -4.0601   -1.6613 C   0  0  0  0  0  0  0  0  0  0  0  0
   -0.9945   -4.9067   -0.4539 C   0  0  0  0  0  0  0  0  0  0  0  0
   -2.2660   -2.8750   -1.2414 C   0  0  0  0  0  0  0  0  0  0  0  0
   -2.6986   -2.0455   -2.4511 C   0  0  0  0  0  0  0  0  0  0  0  0
    1.1327   -3.9126    0.0551 C   0  0  0  0  0  0  0  0  0  0  0  0
   -0.2694   -4.7243    1.8293 C   0  0  0  0  0  0  0  0  0  0  0  0
   -3.5356   -0.8419   -2.0292 C   0  0  0  0  0  0  0  0  0  0  0  0
    1.7360   -2.6886    0.7263 C   0  0  0  0  0  0  0  0  0  0  0  0
   -1.6911   -4.8694    2.3445 C   0  0  0  0  0  0  0  0  0  0  0  0
   -3.3276    0.9642   -0.3203 C   0  0  0  0  0  0  0  0  0  0  0  0
   -2.4857    1.7235    0.4664 C   0  0  0  0  0  0  0  0  0  0  0  0
   -3.1037    2.6514    1.2795 C   0  0  0  0  0  0  0  0  0  0  0  0
   -5.1525    2.0318    0.5141 C   0  0  0  0  0  0  0  0  0  0  0  0
    0.8025    2.1558   -0.4491 C   0  0  0  0  0  0  0  0  0  0  0  0
    1.5062    2.3533   -1.6370 C   0  0  0  0  0  0  0  0  0  0  0  0
    1.4840    1.7986    0.7144 C   0  0  0  0  0  0  0  0  0  0  0  0
    3.5733    1.8362   -0.4983 C   0  0  0  0  0  0  0  0  0  0  0  0
    2.8916    2.1934   -1.6617 C   0  0  0  0  0  0  0  0  0  0  0  0
    2.8694    1.6388    0.6898 C   0  0  0  0  0  0  0  0  0  0  0  0
    5.0177    1.6699   -0.5237 C   0  0  0  0  0  0  0  0  0  0  0  0
    6.8415    0.4931    0.4671 C   0  0  0  0  0  0  0  0  0  0  0  0
    7.1016   -0.5503    1.5326 C   0  0  0  0  0  0  0  0  0  0  0  0
  1 19  1  0
  2 31  1  0
  2 32  1  0
  3 31  2  0
  4 13  1  0
  4 16  1  0
  4 17  1  0
  5 18  1  0
  5 21  1  0
  6 21  2  0
  6 24  1  0
  7 11  2  0
  7 22  1  0
  8 23  1  0
  8 24  2  0
  9 23  1  0
 10 24  1  0
 11 25  1  0
 12 13  1  0
 12 14  1  0
 14 15  1  0
 15 18  1  0
 16 19  1  0
 17 20  1  0
 21 22  1  0
 22 23  2  0
 25 26  2  0
 25 27  1  0
 26 29  1  0
 27 30  2  0
 28 29  2  0
 28 30  1  0
 28 31  1  0
 32 33  1  0
M  END
>  <PUBCHEM_COMPOUND_CID>  (1) 
29673

>  <PUBCHEM_CONFORMER_RMSD>  (1) 
1.2

>  <PUBCHEM_CONFORMER_DIVERSEORDER>  (1) 
1
17
30
120
150
102
118
97
125
136
16
15
44
92
106
36
31
67
143
152
76
66
26
116
105
12
5
123
20
41
80
21
84
54
19
58
75
61
38
33
18
70
14
109
3
88
69
107
147
72
122
93
62
22
142
157
100
23
131
121
25
94
74
9
113
73
83
59
45
134
126
51
91
145
82
137
115
52
68
42
65
39
151
27
85
35
112
146
49
46
86
133
47
139
7
81
104
128
53
2
140
64
95
148
29
8
34
111
56
4
119
6
127
98
11
114
13
60
43
63
156
110
77
132
108
129
71
89
101
117
158
57
10
37
154
24
90
124
79
99
50
40
149
138
141
130
155
55
135
48
103
153
28
32
96
87
144
78

>  <PUBCHEM_MMFF94_PARTIAL_CHARGES>  (1) 
37
1 -0.29
10 -0.9
11 -0.18
13 0.27
16 0.27
17 0.27
18 0.37
19 0.29
2 -0.43
21 0.41
22 0.18
23 0.41
24 0.72
25 0.18
26 -0.15
27 -0.15
28 0.09
29 -0.15
3 -0.57
30 -0.15
31 0.63
32 0.28
4 -0.81
5 -0.87
53 0.4
54 0.4
55 0.4
56 0.4
57 0.4
58 0.15
59 0.15
6 -0.62
60 0.15
61 0.15
7 -0.18
8 -0.62
9 -0.9

>  <PUBCHEM_EFFECTIVE_ROTOR_COUNT>  (1) 
15

>  <PUBCHEM_PHARMACOPHORE_FEATURES>  (1) 
9
1 10 donor
1 3 acceptor
1 4 cation
1 5 donor
1 9 cation
1 9 donor
4 6 8 10 24 cation
6 25 26 27 28 29 30 rings
6 6 8 21 22 23 24 rings

>  <PUBCHEM_HEAVY_ATOM_COUNT>  (1) 
33

>  <PUBCHEM_ATOM_DEF_STEREO_COUNT>  (1) 
0

>  <PUBCHEM_ATOM_UDEF_STEREO_COUNT>  (1) 
0

>  <PUBCHEM_BOND_DEF_STEREO_COUNT>  (1) 
0

>  <PUBCHEM_BOND_UDEF_STEREO_COUNT>  (1) 
0

>  <PUBCHEM_ISOTOPIC_ATOM_COUNT>  (1) 
0

>  <PUBCHEM_COMPONENT_COUNT>  (1) 
1

>  <PUBCHEM_CACTVS_TAUTO_COUNT>  (1) 
33

>  <PUBCHEM_CONFORMER_ID>  (1) 
000073E900000001

>  <PUBCHEM_MMFF94_ENERGY>  (1) 
87.8089

>  <PUBCHEM_FEATURE_SELFOVERLAP>  (1) 
45.671

>  <PUBCHEM_SHAPE_FINGERPRINT>  (1) 
10305334 12 18412820274649268566
11211813 140 17753011048604523122
11513181 2 17917425389697102902
12788726 201 17689170319107481948
1361 2 18264493884303726010
14844126 61 17702939382804826605
15297060 5 17988637485157831306
16067690 210 16128094430208513010
16112460 7 18339920399307582802
16120349 306 18342172220068310905
19319366 153 18339364063218357241
21133410 62 17968642862012023063
463206 1 18409444821707962036
5309563 4 17544480751748600147
66674814 147 18189598575313983718

>  <PUBCHEM_SHAPE_MULTIPOLES>  (1) 
629.41
12.95
7.57
2.02
15.04
11.2
0.15
-10.65
-1.97
-5.27
-2.47
-1.26
0.97
-3.57

>  <PUBCHEM_SHAPE_SELFOVERLAP>  (1) 
1279.363

>  <PUBCHEM_SHAPE_VOLUME>  (1) 
367

>  <PUBCHEM_COORDINATE_TYPE>  (1) 
2
5
10

$$$$
