29671
     RDKit          3D

 16 16  0  0  0  0  0  0  0  0999 V2000
   -4.0063    0.5688    0.1711 O   0  0  0  0  0  0  0  0  0  0  0  0
    1.4395   -0.3126    0.7715 N   0  0  0  0  0  0  0  0  0  0  0  0
    3.4863   -0.8397   -0.0279 N   0  0  0  0  0  0  0  0  0  0  0  0
    1.6822   -0.8238   -1.5639 N   0  0  0  0  0  0  0  0  0  0  0  0
    5.6303    0.0698    0.0978 N   0  0  0  0  0  0  0  0  0  0  0  0
    3.9269    1.4840   -0.4627 N   0  0  0  0  0  0  0  0  0  0  0  0
   -2.6707    0.3527    0.3198 C   0  0  0  0  0  0  0  0  0  0  0  0
    0.0608   -0.0895    0.6203 C   0  0  0  0  0  0  0  0  0  0  0  0
   -2.1999   -0.9259    0.6182 C   0  0  0  0  0  0  0  0  0  0  0  0
   -1.7727    1.4098    0.1722 C   0  0  0  0  0  0  0  0  0  0  0  0
   -0.8310   -1.1475    0.7686 C   0  0  0  0  0  0  0  0  0  0  0  0
   -0.4039    1.1881    0.3227 C   0  0  0  0  0  0  0  0  0  0  0  0
   -4.7896   -0.5189   -0.3180 C   0  0  0  0  0  0  0  0  0  0  0  0
   -5.9759    0.0313   -1.0804 C   0  0  0  0  0  0  0  0  0  0  0  0
    2.1428   -0.6411   -0.2767 C   0  0  0  0  0  0  0  0  0  0  0  0
    4.2811    0.1945   -0.1325 C   0  0  0  0  0  0  0  0  0  0  0  0
  1  7  1  0
  1 13  1  0
  2  8  1  0
  2 15  2  0
  3 15  1  0
  3 16  2  0
  4 15  1  0
  5 16  1  0
  6 16  1  0
  7  9  2  0
  7 10  1  0
  8 11  2  0
  8 12  1  0
  9 11  1  0
 10 12  2  0
 13 14  1  0
M  END
>  <PUBCHEM_COMPOUND_CID>  (1) 
29671

>  <PUBCHEM_CONFORMER_RMSD>  (1) 
0.6

>  <PUBCHEM_CONFORMER_DIVERSEORDER>  (1) 
1
9
15
17
8
11
6
13
18
3
16
12
2
14
4
10
5
7

>  <PUBCHEM_MMFF94_PARTIAL_CHARGES>  (1) 
25
1 -0.36
10 -0.15
11 -0.15
12 -0.15
13 0.28
15 0.71
16 0.55
17 0.15
18 0.15
19 0.15
2 -0.63
20 0.15
26 0.4
27 0.4
28 0.4
29 0.4
3 -0.66
30 0.4
31 0.4
4 -0.85
5 -0.85
6 -0.85
7 0.08
8 0.18
9 -0.15

>  <PUBCHEM_EFFECTIVE_ROTOR_COUNT>  (1) 
4

>  <PUBCHEM_PHARMACOPHORE_FEATURES>  (1) 
7
1 1 acceptor
1 4 donor
1 5 donor
1 6 donor
4 2 3 4 15 cation
4 3 5 6 16 cation
6 7 8 9 10 11 12 rings

>  <PUBCHEM_HEAVY_ATOM_COUNT>  (1) 
16

>  <PUBCHEM_ATOM_DEF_STEREO_COUNT>  (1) 
0

>  <PUBCHEM_ATOM_UDEF_STEREO_COUNT>  (1) 
0

>  <PUBCHEM_BOND_DEF_STEREO_COUNT>  (1) 
0

>  <PUBCHEM_BOND_UDEF_STEREO_COUNT>  (1) 
0

>  <PUBCHEM_ISOTOPIC_ATOM_COUNT>  (1) 
0

>  <PUBCHEM_COMPONENT_COUNT>  (1) 
1

>  <PUBCHEM_CACTVS_TAUTO_COUNT>  (1) 
5

>  <PUBCHEM_CONFORMER_ID>  (1) 
000073E700000001

>  <PUBCHEM_MMFF94_ENERGY>  (1) 
56.8576

>  <PUBCHEM_FEATURE_SELFOVERLAP>  (1) 
35.621

>  <PUBCHEM_SHAPE_FINGERPRINT>  (1) 
10014705 185 17676772062646732875
11401426 45 17894348882523078707
114248 4 18131350812808020987
12236239 1 16950280715281838778
12616999 72 17203613657672875518
12670546 177 18411976988296406741
12714333 28 17603299345883837637
12815109 37 18343863320792020919
13288520 33 16774076285261303893
13533116 47 17822281341589190674
14123238 8 17989205945337462931
14251718 22 17275102847006315553
14911166 2 18334853927172930067
15048467 5 17095517375712242357
15295992 7 13046240389160075605
15375358 24 18410863161036438491
17834072 33 17704069625034549945
1813 80 14476971107200567144
187816 3 18334575737651028635
200 152 17489870423005100731
20279233 1 18341061756384888298
20300324 65 18272371949557152417
20344682 1 17988925556713204300
20645477 70 18129666288265252270
20871999 31 18341045238457606501
21029758 11 18412261748876093585
212847 35 11819279944544584255
21618674 57 11963390747500866629
23402539 116 18408317800302926343
23402655 69 18337101281800997957
23557571 272 18343306924811389964
23559900 14 18334861619528208474
2838139 119 15140950765141422823
351380 180 18408323285376985832
4325135 7 18272086101960810685
465052 167 13254790287550430181
58051976 378 18343588429958184918
69090 78 18409168809359978610

>  <PUBCHEM_SHAPE_MULTIPOLES>  (1) 
298.5
11.42
1.23
0.96
0.79
0.24
0.21
0.66
3.35
-0.11
-0.06
0.27
-0.15
0.01

>  <PUBCHEM_SHAPE_SELFOVERLAP>  (1) 
612.667

>  <PUBCHEM_SHAPE_VOLUME>  (1) 
169

>  <PUBCHEM_COORDINATE_TYPE>  (1) 
2
5
10

$$$$
