2968
     RDKit          3D

 18 17  0  0  0  0  0  0  0  0999 V2000
   -6.9484   -0.0231    0.0477 N   0  0  0  0  0  0  0  0  0  0  0  0
    6.9420    0.0073    0.0274 N   0  0  0  0  0  0  0  0  0  0  0  0
   -5.7026    0.7782   -0.0013 C   0  0  0  0  0  0  0  0  0  0  0  0
    5.6927   -0.7895    0.0171 C   0  0  0  0  0  0  0  0  0  0  0  0
   -4.4806   -0.1312   -0.0600 C   0  0  0  0  0  0  0  0  0  0  0  0
    4.4719    0.1223    0.0156 C   0  0  0  0  0  0  0  0  0  0  0  0
   -3.1545    0.6360   -0.0623 C   0  0  0  0  0  0  0  0  0  0  0  0
    3.1432   -0.6389   -0.0045 C   0  0  0  0  0  0  0  0  0  0  0  0
   -1.9270   -0.2798   -0.1322 C   0  0  0  0  0  0  0  0  0  0  0  0
    1.9529    0.3245   -0.0163 C   0  0  0  0  0  0  0  0  0  0  0  0
   -0.6011    0.4819   -0.0565 C   0  0  0  0  0  0  0  0  0  0  0  0
    0.6258   -0.4358   -0.0664 C   0  0  0  0  0  0  0  0  0  0  0  0
   -7.0683   -0.9246   -1.1897 C   0  0  0  0  0  0  0  0  0  0  0  0
   -6.9728   -0.9204    1.2937 C   0  0  0  0  0  0  0  0  0  0  0  0
   -8.1838    0.8879    0.0935 C   0  0  0  0  0  0  0  0  0  0  0  0
    7.0550    0.8648   -1.2416 C   0  0  0  0  0  0  0  0  0  0  0  0
    6.9814    0.9475    1.2412 C   0  0  0  0  0  0  0  0  0  0  0  0
    8.1741   -0.9069    0.0944 C   0  0  0  0  0  0  0  0  0  0  0  0
  1  3  1  0
  1 13  1  0
  1 14  1  0
  1 15  1  0
  2  4  1  0
  2 16  1  0
  2 17  1  0
  2 18  1  0
  3  5  1  0
  4  6  1  0
  5  7  1  0
  6  8  1  0
  7  9  1  0
  8 10  1  0
  9 11  1  0
 10 12  1  0
 11 12  1  0
M  CHG  2   1   1   2   1
M  END
>  <PUBCHEM_COMPOUND_CID>  (1) 
2968

>  <PUBCHEM_CONFORMER_RMSD>  (1) 
1

>  <PUBCHEM_CONFORMER_DIVERSEORDER>  (1) 
1
30
8
31
24
11
12
21
26
29
5
22
16
7
15
28
23
13
4
3
33
2
27
10
17
9
19
14
18
20
25
32
6

>  <PUBCHEM_MMFF94_PARTIAL_CHARGES>  (1) 
10
1 -1.01
13 0.5
14 0.5
15 0.5
16 0.5
17 0.5
18 0.5
2 -1.01
3 0.5
4 0.5

>  <PUBCHEM_EFFECTIVE_ROTOR_COUNT>  (1) 
11

>  <PUBCHEM_PHARMACOPHORE_FEATURES>  (1) 
2
1 1 cation
1 2 cation

>  <PUBCHEM_HEAVY_ATOM_COUNT>  (1) 
18

>  <PUBCHEM_ATOM_DEF_STEREO_COUNT>  (1) 
0

>  <PUBCHEM_ATOM_UDEF_STEREO_COUNT>  (1) 
0

>  <PUBCHEM_BOND_DEF_STEREO_COUNT>  (1) 
0

>  <PUBCHEM_BOND_UDEF_STEREO_COUNT>  (1) 
0

>  <PUBCHEM_ISOTOPIC_ATOM_COUNT>  (1) 
0

>  <PUBCHEM_COMPONENT_COUNT>  (1) 
1

>  <PUBCHEM_CACTVS_TAUTO_COUNT>  (1) 
1

>  <PUBCHEM_CONFORMER_ID>  (1) 
00000B9800000001

>  <PUBCHEM_MMFF94_ENERGY>  (1) 
43.1897

>  <PUBCHEM_FEATURE_SELFOVERLAP>  (1) 
10.149

>  <PUBCHEM_SHAPE_FINGERPRINT>  (1) 
10299344 5 18342738511548545046
11315181 36 18040438794205327793
11638347 137 17385720267292752386
12091667 2 18413670206649996245
13885169 127 17895193277536308125
14123256 10 18410293601101714922
14170010 4 18342736343260324464
14251764 18 18410855464423129119
14251764 46 18410293605391407463
15716309 27 18260547822564911895
17093844 174 18413108352108518361
18006028 8 18407759235659086621
20281389 69 18341609309323658680
20621476 8 10879996856365591224
21150785 3 18410012130419965064
21315763 28 18202563956525944912
22224240 67 18272366481895200342
23035841 295 17632576054401619599
23521765 1 18341894086539083781
33684 2 18410855447248547651
5758199 1 18412545401179501819
57583515 80 12179846096045732557
67123 10 18410855473013063693
8209 1 18410573980861765100

>  <PUBCHEM_SHAPE_MULTIPOLES>  (1) 
360.47
31.27
1.04
0.96
0.29
0.01
0.03
0.22
0.94
0
0.02
0.01
0
-0.01

>  <PUBCHEM_SHAPE_SELFOVERLAP>  (1) 
649.637

>  <PUBCHEM_SHAPE_VOLUME>  (1) 
236.4

>  <PUBCHEM_COORDINATE_TYPE>  (1) 
2
5
10

$$$$
