29686
     RDKit          3D

 21 23  0  0  0  0  0  0  0  0999 V2000
    1.2327   -0.7030    0.5649 O   0  0  0  0  0  0  0  0  0  0  0  0
    1.4297    0.0014   -1.6480 O   0  0  0  0  0  0  0  0  0  0  0  0
   -4.0666   -1.7767   -0.3419 N   0  0  0  0  0  0  0  0  0  0  0  0
   -3.9285    4.0640    0.0733 N   0  0  0  0  0  0  0  0  0  0  0  0
    5.9363    0.7618    0.4366 N   0  0  0  0  0  0  0  0  0  0  0  0
   -3.6471    0.2859    0.3631 C   0  0  0  0  0  0  0  0  0  0  0  0
   -2.4109   -0.4127    0.2705 C   0  0  0  0  0  0  0  0  0  0  0  0
   -2.7021   -1.7042   -0.1737 C   0  0  0  0  0  0  0  0  0  0  0  0
   -3.8354    1.6866    0.7909 C   0  0  0  0  0  0  0  0  0  0  0  0
   -4.6463   -0.5788   -0.0202 C   0  0  0  0  0  0  0  0  0  0  0  0
   -1.0678   -0.0691    0.5229 C   0  0  0  0  0  0  0  0  0  0  0  0
   -3.7686    2.6861   -0.3786 C   0  0  0  0  0  0  0  0  0  0  0  0
   -1.7136   -2.6733   -0.3789 C   0  0  0  0  0  0  0  0  0  0  0  0
   -0.0684   -1.0281    0.3221 C   0  0  0  0  0  0  0  0  0  0  0  0
   -0.3885   -2.3096   -0.1220 C   0  0  0  0  0  0  0  0  0  0  0  0
    1.9094   -0.1804   -0.5390 C   0  0  0  0  0  0  0  0  0  0  0  0
    3.3170    0.1488   -0.1981 C   0  0  0  0  0  0  0  0  0  0  0  0
    3.9367    1.1860   -0.8545 C   0  0  0  0  0  0  0  0  0  0  0  0
    3.9606   -0.5925    0.7646 C   0  0  0  0  0  0  0  0  0  0  0  0
    5.2493    1.4533   -0.5003 C   0  0  0  0  0  0  0  0  0  0  0  0
    5.2721   -0.2456    1.0463 C   0  0  0  0  0  0  0  0  0  0  0  0
  1 14  1  0
  1 16  1  0
  2 16  2  0
  3  8  1  0
  3 10  1  0
  4 12  1  0
  5 20  2  0
  5 21  1  0
  6  7  1  0
  6  9  1  0
  6 10  2  0
  7  8  2  0
  7 11  1  0
  8 13  1  0
  9 12  1  0
 11 14  2  0
 13 15  2  0
 14 15  1  0
 16 17  1  0
 17 18  2  0
 17 19  1  0
 18 20  1  0
 19 21  2  0
M  END
>  <PUBCHEM_COMPOUND_CID>  (1) 
29686

>  <PUBCHEM_CONFORMER_RMSD>  (1) 
0.8

>  <PUBCHEM_CONFORMER_DIVERSEORDER>  (1) 
1
50
75
59
83
60
22
37
63
44
68
57
82
39
79
5
49
12
47
31
25
29
24
40
62
56
27
42
45
66
61
26
67
16
19
28
81
41
80
48
46
73
15
70
54
6
13
52
43
76
77
74
21
51
10
3
78
11
17
38
53
30
23
7
34
36
64
2
20
35
8
32
14
69
9
33
55
65
18
4
71
72
58

>  <PUBCHEM_MMFF94_PARTIAL_CHARGES>  (1) 
31
1 -0.23
10 -0.3
11 -0.15
12 0.27
13 -0.15
14 0.08
15 -0.15
16 0.63
17 0.09
18 -0.15
19 -0.15
2 -0.57
20 0.16
21 0.16
24 0.15
25 0.27
26 0.15
29 0.15
3 0.03
30 0.15
31 0.36
32 0.36
33 0.15
34 0.15
35 0.15
36 0.15
4 -0.99
5 -0.62
6 -0.18
8 -0.15
9 0.18

>  <PUBCHEM_EFFECTIVE_ROTOR_COUNT>  (1) 
5

>  <PUBCHEM_PHARMACOPHORE_FEATURES>  (1) 
9
1 2 acceptor
1 3 cation
1 3 donor
1 4 cation
1 4 donor
1 5 acceptor
5 3 6 7 8 10 rings
6 5 17 18 19 20 21 rings
6 7 8 11 13 14 15 rings

>  <PUBCHEM_HEAVY_ATOM_COUNT>  (1) 
21

>  <PUBCHEM_ATOM_DEF_STEREO_COUNT>  (1) 
0

>  <PUBCHEM_ATOM_UDEF_STEREO_COUNT>  (1) 
0

>  <PUBCHEM_BOND_DEF_STEREO_COUNT>  (1) 
0

>  <PUBCHEM_BOND_UDEF_STEREO_COUNT>  (1) 
0

>  <PUBCHEM_ISOTOPIC_ATOM_COUNT>  (1) 
0

>  <PUBCHEM_COMPONENT_COUNT>  (1) 
1

>  <PUBCHEM_CACTVS_TAUTO_COUNT>  (1) 
1

>  <PUBCHEM_CONFORMER_ID>  (1) 
000073F600000001

>  <PUBCHEM_MMFF94_ENERGY>  (1) 
49.7581

>  <PUBCHEM_FEATURE_SELFOVERLAP>  (1) 
45.762

>  <PUBCHEM_SHAPE_FINGERPRINT>  (1) 
10087517 78 18337387240286352404
10411042 1 17907577283438824671
10595046 47 18335700602465679418
10937287 8 17339863871593345881
11552529 35 17024609999021758754
12107183 9 17974560308922253994
12236239 1 18114175380330889450
12390115 104 18129677309240582409
12422481 6 17678732332970776196
12596602 18 17313386776623012121
12670546 56 18186794803483071106
12916748 109 18410301332154013811
12969540 114 16272205297499645878
13103583 49 11459001806062761957
13167823 11 18334855060923503194
13583140 156 17632291337231483206
13911987 19 16055763229737516000
13965767 371 17680714718202694197
14142880 1 18260266318335826853
14251764 38 18409734001408336396
14251764 75 17839470990562163625
14294032 229 18271807892161635993
14466204 15 18410852149178200176
14508225 48 17912629500797646175
14739800 52 18123183769946101976
15209294 21 18261111850649959644
16988056 13 16247715514469891565
17357779 13 15985391092440645826
17818456 19 18265610979691180872
19489759 90 18202001062011537394
20645477 56 18202289121252279723
20645477 70 16199887093831946150
20715895 44 18050001091317000433
21033650 10 18266204806069495564
21315764 268 18339917212062209848
23175994 123 14923937977054397334
23402539 116 18272365416537439774
23557571 272 18059869379963854196
23559900 14 17988089877091289862
3268164 11 17988920098273942887
341906 21 18343862225738975440
34797466 226 17559688419880498660
350125 39 18412828001981067025
38570 142 16952849235243844484
4214541 1 18411701010645706498
469060 322 18267045975783637555
474 4 17676770993479593946
5104073 3 18114463357713643362
5283173 99 18343589508105719900
542803 24 18334858363784696834
573450 72 18337383937561808570
6327066 14 18191299382743599093
7808743 9 18411699842620778793
9862522 239 17823691967631176581
9981440 41 18335144155245972571

>  <PUBCHEM_SHAPE_MULTIPOLES>  (1) 
405.49
12.56
2.97
0.95
11.95
2.18
-0.08
6.22
1.24
-5.11
-0.29
0.62
0.05
-0.86

>  <PUBCHEM_SHAPE_SELFOVERLAP>  (1) 
889.553

>  <PUBCHEM_SHAPE_VOLUME>  (1) 
217.5

>  <PUBCHEM_COORDINATE_TYPE>  (1) 
2
5
10

$$$$
