29698
     RDKit          3D

 15 16  0  0  0  0  0  0  0  0999 V2000
   -2.6029   -1.1960   -0.4800 S   0  0  0  0  0  0  0  0  0  0  0  0
    4.4803   -0.4888   -0.0233 O   0  0  0  0  0  0  0  0  0  0  0  0
    3.5661    1.4943   -0.2500 O   0  0  0  0  0  0  0  0  0  0  0  0
    1.0170    0.3853   -0.0403 N   0  0  0  0  0  0  0  0  0  0  0  0
    0.4154   -1.7338    0.2424 N   0  0  0  0  0  0  0  0  0  0  0  0
    3.4517    0.2447   -0.0889 N   0  0  0  0  0  0  0  0  0  0  0  0
   -1.8203    1.0331    0.5118 N   0  0  0  0  0  0  0  0  0  0  0  0
   -3.1952    1.1389    0.3941 N   0  0  0  0  0  0  0  0  0  0  0  0
   -5.0516   -0.1426   -0.3403 N   0  0  0  0  0  0  0  0  0  0  0  0
   -0.0154   -0.5000    0.0997 C   0  0  0  0  0  0  0  0  0  0  0  0
    2.1802   -0.3294    0.0171 C   0  0  0  0  0  0  0  0  0  0  0  0
   -1.3843   -0.1341    0.0914 C   0  0  0  0  0  0  0  0  0  0  0  0
    0.9027    1.8170   -0.2165 C   0  0  0  0  0  0  0  0  0  0  0  0
    1.7833   -1.6343    0.1924 C   0  0  0  0  0  0  0  0  0  0  0  0
   -3.7270    0.0457   -0.1097 C   0  0  0  0  0  0  0  0  0  0  0  0
  1 12  1  0
  1 15  1  0
  2  6  1  0
  3  6  2  0
  4 10  1  0
  4 11  1  0
  4 13  1  0
  5 10  2  0
  5 14  1  0
  6 11  1  0
  7  8  1  0
  7 12  2  0
  8 15  2  0
  9 15  1  0
 10 12  1  0
 11 14  2  0
M  CHG  2   2  -1   6   1
M  END
>  <PUBCHEM_COMPOUND_CID>  (1) 
29698

>  <PUBCHEM_CONFORMER_RMSD>  (1) 
0.6

>  <PUBCHEM_CONFORMER_DIVERSEORDER>  (1) 
1
3
2

>  <PUBCHEM_MMFF94_PARTIAL_CHARGES>  (1) 
18
1 -0.08
10 0.19
11 -0.07
12 0.38
13 0.26
14 0.08
15 0.46
19 0.15
2 -0.52
20 0.4
21 0.4
3 -0.52
4 0.05
5 -0.57
6 0.96
7 -0.34
8 -0.34
9 -0.88

>  <PUBCHEM_EFFECTIVE_ROTOR_COUNT>  (1) 
2

>  <PUBCHEM_PHARMACOPHORE_FEATURES>  (1) 
9
1 2 acceptor
1 2 anion
1 3 acceptor
1 7 acceptor
1 9 donor
3 4 5 10 cation
3 8 9 15 cation
5 1 7 8 12 15 rings
5 4 5 10 11 14 rings

>  <PUBCHEM_HEAVY_ATOM_COUNT>  (1) 
15

>  <PUBCHEM_ATOM_DEF_STEREO_COUNT>  (1) 
0

>  <PUBCHEM_ATOM_UDEF_STEREO_COUNT>  (1) 
0

>  <PUBCHEM_BOND_DEF_STEREO_COUNT>  (1) 
0

>  <PUBCHEM_BOND_UDEF_STEREO_COUNT>  (1) 
0

>  <PUBCHEM_ISOTOPIC_ATOM_COUNT>  (1) 
0

>  <PUBCHEM_COMPONENT_COUNT>  (1) 
1

>  <PUBCHEM_CACTVS_TAUTO_COUNT>  (1) 
3

>  <PUBCHEM_CONFORMER_ID>  (1) 
0000740200000001

>  <PUBCHEM_MMFF94_ENERGY>  (1) 
29.5778

>  <PUBCHEM_FEATURE_SELFOVERLAP>  (1) 
45.752

>  <PUBCHEM_SHAPE_FINGERPRINT>  (1) 
10219947 1 18187367627397513844
10980938 120 18337111176646064090
11132069 177 18411693296937242416
11401426 45 18412257354955257266
11471102 20 18408319994994213308
11806522 49 18411416250040197879
13380535 76 18408888438158500419
14144814 61 18411419471360576475
14251717 144 18409166610278453974
14325111 11 18410857680837256930
14897335 6 18410573985241440251
14993402 34 18410294718030608326
15196674 1 18338236071493584189
15442244 35 18123753049799628410
15536298 74 18343865524163004140
15775835 57 18411703188146613847
16945 1 18337122223270320411
17802600 8 18410288112350171757
18186145 218 18334855026420807406
18522853 276 18342455949960926273
200 152 18343860035421594783
20279233 1 16660369156039706955
20645477 70 18337386024842269143
21119208 17 18343300375170503159
21267235 1 18412271618330988487
23402539 116 18272362096854715678
23402655 69 18340198601650784013
23463225 33 18336263457855895690
23559900 14 18130505340502071920
2748010 2 17976826706823115665
3312278 4 18412545444456202779
474 4 18114748251637626532
4990 188 18060427889147867062
5104073 3 18410293652699410683
528886 8 18410007745406179026
57096353 35 18342453772702463015
7364860 26 18270683039515007910

>  <PUBCHEM_SHAPE_MULTIPOLES>  (1) 
270.92
7.82
1.64
0.64
1.93
0.08
0.01
0.64
0.68
-0.57
-0.01
0.15
-0.01
-0.44

>  <PUBCHEM_SHAPE_SELFOVERLAP>  (1) 
572.382

>  <PUBCHEM_SHAPE_VOLUME>  (1) 
155.5

>  <PUBCHEM_COORDINATE_TYPE>  (1) 
2
5
10

$$$$
