29701
     RDKit          3D

 15 15  0  0  0  0  0  0  0  0999 V2000
    0.2466    0.8275    0.2288 O   0  0  0  0  0  0  0  0  0  0  0  0
   -1.2030    2.4962   -0.4137 O   0  0  0  0  0  0  0  0  0  0  0  0
    2.8652   -0.0572   -0.3728 N   0  0  0  0  0  0  0  0  0  0  0  0
    4.2428   -1.7956   -1.0403 N   0  0  0  0  0  0  0  0  0  0  0  0
    4.8916   -0.6078    0.7935 N   0  0  0  0  0  0  0  0  0  0  0  0
    1.3405    1.7502    0.1914 C   0  0  0  0  0  0  0  0  0  0  0  0
    2.6193    1.0302    0.5783 C   0  0  0  0  0  0  0  0  0  0  0  0
   -2.0112    0.2880   -0.0194 C   0  0  0  0  0  0  0  0  0  0  0  0
   -0.9884    1.3188   -0.0960 C   0  0  0  0  0  0  0  0  0  0  0  0
   -3.3385    0.5991   -0.3150 C   0  0  0  0  0  0  0  0  0  0  0  0
   -1.6652   -1.0122    0.3492 C   0  0  0  0  0  0  0  0  0  0  0  0
   -4.3197   -0.3896   -0.2418 C   0  0  0  0  0  0  0  0  0  0  0  0
   -2.6466   -2.0008    0.4222 C   0  0  0  0  0  0  0  0  0  0  0  0
   -3.9737   -1.6894    0.1266 C   0  0  0  0  0  0  0  0  0  0  0  0
    3.9404   -0.7574   -0.1910 C   0  0  0  0  0  0  0  0  0  0  0  0
  1  6  1  0
  1  9  1  0
  2  9  2  0
  3  7  1  0
  3 15  2  3
  4 15  1  0
  5 15  1  0
  6  7  1  0
  8  9  1  0
  8 10  2  0
  8 11  1  0
 10 12  1  0
 11 13  2  0
 12 14  2  0
 13 14  1  0
M  END
>  <PUBCHEM_COMPOUND_CID>  (1) 
29701

>  <PUBCHEM_CONFORMER_RMSD>  (1) 
0.6

>  <PUBCHEM_CONFORMER_DIVERSEORDER>  (1) 
1
57
53
176
145
14
174
38
82
169
127
132
72
27
121
140
89
167
135
6
166
73
93
66
20
123
143
139
26
175
163
115
62
108
65
59
146
84
152
147
77
5
161
21
156
94
74
44
155
164
58
116
88
128
157
104
13
133
95
46
8
43
99
159
124
117
113
12
11
37
17
171
120
158
75
80
153
47
138
97
3
112
141
100
78
76
54
125
107
16
4
19
96
131
105
35
55
130
51
92
83
109
60
103
71
40
50
32
33
168
42
24
91
98
45
170
30
102
160
49
118
119
39
64
22
81
41
90
31
136
68
101
126
173
122
137
10
162
25
67
142
2
148
85
150
29
61
7
86
56
129
69
18
149
151
144
106
52
9
134
70
154
110
34
48
79
15
28
36
87
114
23
63
165
172
111

>  <PUBCHEM_MMFF94_PARTIAL_CHARGES>  (1) 
24
1 -0.43
10 -0.15
11 -0.15
12 -0.15
13 -0.15
14 -0.15
15 0.55
2 -0.57
20 0.15
21 0.15
22 0.15
23 0.15
24 0.15
25 0.4
26 0.4
27 0.4
28 0.4
3 -0.7
4 -0.85
5 -0.85
6 0.28
7 0.25
8 0.09
9 0.63

>  <PUBCHEM_EFFECTIVE_ROTOR_COUNT>  (1) 
5

>  <PUBCHEM_PHARMACOPHORE_FEATURES>  (1) 
5
1 2 acceptor
1 4 donor
1 5 donor
4 3 4 5 15 cation
6 8 10 11 12 13 14 rings

>  <PUBCHEM_HEAVY_ATOM_COUNT>  (1) 
15

>  <PUBCHEM_ATOM_DEF_STEREO_COUNT>  (1) 
0

>  <PUBCHEM_ATOM_UDEF_STEREO_COUNT>  (1) 
0

>  <PUBCHEM_BOND_DEF_STEREO_COUNT>  (1) 
0

>  <PUBCHEM_BOND_UDEF_STEREO_COUNT>  (1) 
0

>  <PUBCHEM_ISOTOPIC_ATOM_COUNT>  (1) 
0

>  <PUBCHEM_COMPONENT_COUNT>  (1) 
1

>  <PUBCHEM_CACTVS_TAUTO_COUNT>  (1) 
2

>  <PUBCHEM_CONFORMER_ID>  (1) 
0000740500000001

>  <PUBCHEM_MMFF94_ENERGY>  (1) 
41.2661

>  <PUBCHEM_FEATURE_SELFOVERLAP>  (1) 
25.428

>  <PUBCHEM_SHAPE_FINGERPRINT>  (1) 
11458722 379 18260829289089046131
11543360 7 14056999464122297993
11715629 250 9367355824796312057
12006461 19 18413110571541116800
12032990 46 18336265751447468625
12555020 224 18337379509687916367
12596602 18 14979667832094194854
13296908 3 18337106890458697753
14251710 61 18411705408476121570
14252887 29 18266458891612693384
14386348 63 18343019986894501190
14866123 147 17767695961799172713
15196674 1 18409729603234386667
15352361 1 18411700976391761942
17804303 29 18410857672342488721
17834072 8 18187917383686045423
17834074 16 18412262835175440290
18186145 218 16733258062282785757
19107657 162 18342738503406892798
19141452 34 18272370914665375111
20281475 54 18411707616010437328
20374829 77 18335134301989302883
20403669 9 18412265017092952614
20645477 70 18339640147947885670
20871998 22 18338233889756219129
20871999 31 18114184111972918188
2215653 11 18342172254828826879
22926399 37 12829490341782223959
23402539 116 18343575244962467797
23403322 49 18410293605476089351
23559900 14 18410285956371762112
2871803 45 18335136479838564626
3004659 81 18187366532571139726
4416823 128 18411983572222879656
4921388 177 15864362388435903531
5104073 3 18412826914594582553
8809292 202 18334579057228348667
9709674 26 18118401980321400739

>  <PUBCHEM_SHAPE_MULTIPOLES>  (1) 
282.01
9.58
2.23
0.77
6.77
0.26
-0.02
-5.52
-0.36
-0.24
-0.14
0.39
-0.13
0.87

>  <PUBCHEM_SHAPE_SELFOVERLAP>  (1) 
577.147

>  <PUBCHEM_SHAPE_VOLUME>  (1) 
161.3

>  <PUBCHEM_COORDINATE_TYPE>  (1) 
2
5
10

$$$$
