29707
     RDKit          3D

 17 17  0  0  0  0  0  0  0  0999 V2000
    0.3412    1.2087   -0.4609 O   0  0  0  0  0  0  0  0  0  0  0  0
   -0.6799    2.4069    1.2186 O   0  0  0  0  0  0  0  0  0  0  0  0
    3.5688   -0.0201    0.1267 N   0  0  0  0  0  0  0  0  0  0  0  0
   -4.9976   -2.0721   -0.3085 N   0  0  0  0  0  0  0  0  0  0  0  0
    4.6281   -1.4114    1.6482 N   0  0  0  0  0  0  0  0  0  0  0  0
    3.9863   -2.3408   -0.3316 N   0  0  0  0  0  0  0  0  0  0  0  0
    2.5143    1.5677   -1.4022 C   0  0  0  0  0  0  0  0  0  0  0  0
    1.4906    2.0408   -0.3773 C   0  0  0  0  0  0  0  0  0  0  0  0
    2.9390    0.1218   -1.1868 C   0  0  0  0  0  0  0  0  0  0  0  0
   -1.8096    0.5645    0.2115 C   0  0  0  0  0  0  0  0  0  0  0  0
   -0.6742    1.5031    0.3973 C   0  0  0  0  0  0  0  0  0  0  0  0
   -3.0901    1.0068    0.4726 C   0  0  0  0  0  0  0  0  0  0  0  0
   -1.5486   -0.7213   -0.2160 C   0  0  0  0  0  0  0  0  0  0  0  0
   -3.9193   -1.1803   -0.1327 C   0  0  0  0  0  0  0  0  0  0  0  0
   -4.1565    0.1248    0.2987 C   0  0  0  0  0  0  0  0  0  0  0  0
   -2.6151   -1.6035   -0.3900 C   0  0  0  0  0  0  0  0  0  0  0  0
    4.0225   -1.1957    0.4326 C   0  0  0  0  0  0  0  0  0  0  0  0
  1  8  1  0
  1 11  1  0
  2 11  2  0
  3  9  1  0
  3 17  2  3
  4 14  1  0
  5 17  1  0
  6 17  1  0
  7  8  1  0
  7  9  1  0
 10 11  1  0
 10 12  2  0
 10 13  1  0
 12 15  1  0
 13 16  2  0
 14 15  2  0
 14 16  1  0
M  END
>  <PUBCHEM_COMPOUND_CID>  (1) 
29707

>  <PUBCHEM_CONFORMER_RMSD>  (1) 
0.8

>  <PUBCHEM_CONFORMER_DIVERSEORDER>  (1) 
2
98
76
70
7
56
9
30
64
41
20
12
34
45
80
57
54
13
103
84
91
43
102
10
73
19
63
11
69
62
90
28
26
71
36
51
68
77
104
21
97
60
99
65
3
1
23
40
67
95
88
25
32
16
101
37
87
47
59
39
85
27
6
79
92
66
38
4
61
55
106
24
49
42
81
93
22
94
33
18
82
78
31
89
83
74
35
5
100
17
8
48
72
46
75
53
14
52
50
44
96
29
15
58
86
105

>  <PUBCHEM_MMFF94_PARTIAL_CHARGES>  (1) 
26
1 -0.43
10 0.09
11 0.63
12 -0.15
13 -0.15
14 0.1
15 -0.15
16 -0.15
17 0.55
2 -0.57
24 0.15
25 0.15
26 0.15
27 0.15
28 0.4
29 0.4
3 -0.7
30 0.4
31 0.4
32 0.4
33 0.4
4 -0.9
5 -0.85
6 -0.85
8 0.28
9 0.25

>  <PUBCHEM_EFFECTIVE_ROTOR_COUNT>  (1) 
6

>  <PUBCHEM_PHARMACOPHORE_FEATURES>  (1) 
7
1 2 acceptor
1 4 cation
1 4 donor
1 5 donor
1 6 donor
4 3 5 6 17 cation
6 10 12 13 14 15 16 rings

>  <PUBCHEM_HEAVY_ATOM_COUNT>  (1) 
17

>  <PUBCHEM_ATOM_DEF_STEREO_COUNT>  (1) 
0

>  <PUBCHEM_ATOM_UDEF_STEREO_COUNT>  (1) 
0

>  <PUBCHEM_BOND_DEF_STEREO_COUNT>  (1) 
0

>  <PUBCHEM_BOND_UDEF_STEREO_COUNT>  (1) 
0

>  <PUBCHEM_ISOTOPIC_ATOM_COUNT>  (1) 
0

>  <PUBCHEM_COMPONENT_COUNT>  (1) 
1

>  <PUBCHEM_CACTVS_TAUTO_COUNT>  (1) 
4

>  <PUBCHEM_CONFORMER_ID>  (1) 
0000740B00000002

>  <PUBCHEM_MMFF94_ENERGY>  (1) 
54.4893

>  <PUBCHEM_FEATURE_SELFOVERLAP>  (1) 
35.576

>  <PUBCHEM_SHAPE_FINGERPRINT>  (1) 
10062212 137 18413109468098557631
11159736 12 18409164424192932223
12410352 35 18334853888070136834
12824470 246 18408321060383641984
14178342 30 18056769719462529804
1420 369 18411139125775927534
15342816 4 18268442384830012085
17977361 122 18409726240328053235
1798214 20 18260547839939797558
18186145 218 14923945673604188373
20281475 54 18410298029376910797
20291156 8 18335702698383170598
20369508 70 18057887033708759285
20626108 58 18409444808348312840
20645477 70 18113901606187907294
20671657 53 17822005398245240724
2255824 54 18118132587351840828
22646028 28 18335140882127035626
22959321 94 18343024380361188956
23366157 5 18052540168940737097
23557571 272 17775576320596907094
23559900 14 17702403770402971580
3004659 81 18408047316173776710
339767 52 18337379470674280338
5104073 3 18201166567588801715
573450 72 18341898476386219449
633830 44 16298389076078373453
76465 3 18335416876435404317
88748 71 18333739021844866819

>  <PUBCHEM_SHAPE_MULTIPOLES>  (1) 
318.19
10.01
2.54
1.09
1.43
0.04
-0.09
7.3
-0.77
0.75
-0.13
1.08
-0.14
-1.65

>  <PUBCHEM_SHAPE_SELFOVERLAP>  (1) 
651.172

>  <PUBCHEM_SHAPE_VOLUME>  (1) 
182.4

>  <PUBCHEM_COORDINATE_TYPE>  (1) 
2
5
10

$$$$
