29718
     RDKit          3D

 11 11  0  0  1  0  0  0  0  0999 V2000
   -2.5231    0.3861    0.4011 O   0  0  0  0  0  0  0  0  0  0  0  0
   -1.4104    2.2801   -0.2528 O   0  0  0  0  0  0  0  0  0  0  0  0
   -0.2969    0.1155   -0.3122 C   0  0  0  0  0  0  0  0  0  0  0  0
   -0.7188   -1.0866    0.5112 C   0  0  0  0  0  0  0  0  0  0  0  0
    1.0490    0.6736    0.1104 C   0  0  0  0  0  0  0  0  0  0  0  0
   -2.2312   -1.0181    0.4665 C   0  0  0  0  0  0  0  0  0  0  0  0
    2.1852   -0.3042   -0.1943 C   0  0  0  0  0  0  0  0  0  0  0  0
   -1.4316    1.0747   -0.0578 C   0  0  0  0  0  0  0  0  0  0  0  0
   -2.8412   -1.7161   -0.7406 C   0  0  0  0  0  0  0  0  0  0  0  0
    3.5428    0.2760    0.2009 C   0  0  0  0  0  0  0  0  0  0  0  0
    4.6761   -0.6811   -0.1323 C   0  0  0  0  0  0  0  0  0  0  0  0
  1  6  1  0
  1  8  1  0
  2  8  2  0
  3  4  1  0
  3  5  1  0
  3  8  1  0
  4  6  1  0
  5  7  1  0
  6  9  1  0
  7 10  1  0
 10 11  1  0
M  END
>  <PUBCHEM_COMPOUND_CID>  (1) 
29718

>  <PUBCHEM_CONFORMER_RMSD>  (1) 
0.6

>  <PUBCHEM_CONFORMER_DIVERSEORDER>  (1) 
1
33
11
32
21
9
8
29
24
31
7
23
5
13
27
18
4
26
15
6
12
14
19
25
28
16
20
3
30
17
10
22
2

>  <PUBCHEM_MMFF94_PARTIAL_CHARGES>  (1) 
5
1 -0.43
2 -0.57
3 0.06
6 0.28
8 0.66

>  <PUBCHEM_EFFECTIVE_ROTOR_COUNT>  (1) 
3.8

>  <PUBCHEM_PHARMACOPHORE_FEATURES>  (1) 
3
1 11 hydrophobe
1 2 acceptor
5 1 3 4 6 8 rings

>  <PUBCHEM_HEAVY_ATOM_COUNT>  (1) 
11

>  <PUBCHEM_ATOM_DEF_STEREO_COUNT>  (1) 
0

>  <PUBCHEM_ATOM_UDEF_STEREO_COUNT>  (1) 
2

>  <PUBCHEM_BOND_DEF_STEREO_COUNT>  (1) 
0

>  <PUBCHEM_BOND_UDEF_STEREO_COUNT>  (1) 
0

>  <PUBCHEM_ISOTOPIC_ATOM_COUNT>  (1) 
0

>  <PUBCHEM_COMPONENT_COUNT>  (1) 
1

>  <PUBCHEM_CACTVS_TAUTO_COUNT>  (1) 
2

>  <PUBCHEM_CONFORMER_ID>  (1) 
0000741600000001

>  <PUBCHEM_MMFF94_ENERGY>  (1) 
7.006

>  <PUBCHEM_FEATURE_SELFOVERLAP>  (1) 
15.223

>  <PUBCHEM_SHAPE_FINGERPRINT>  (1) 
12032990 46 18263367060884267683
12932764 1 17775277275362370166
13024252 1 17530967977597828643
14325111 11 18409449168225174624
1986462 14 18411985724370643342
20645464 45 18131358466360510830
20871998 184 18343025501363516663
21061003 4 17275107253637454512
23402539 116 18201714047059576717
23552423 10 18114746052387199169
3248919 1 17458069270197363954
369184 2 18060138742979666355
573450 72 18187915128912734658
6333449 129 18412824651173040997

>  <PUBCHEM_SHAPE_MULTIPOLES>  (1) 
214.64
6.53
1.67
0.73
8.33
0.5
-0.01
-2.25
-0.3
-1.44
-0.19
-0.2
-0.13
-0.06

>  <PUBCHEM_SHAPE_SELFOVERLAP>  (1) 
418.201

>  <PUBCHEM_SHAPE_VOLUME>  (1) 
132.2

>  <PUBCHEM_COORDINATE_TYPE>  (1) 
2
5
10

$$$$
