29713
     RDKit          3D

 17 18  0  0  0  0  0  0  0  0999 V2000
    2.3956   -0.2429    0.9490 O   0  0  0  0  0  0  0  0  0  0  0  0
    2.7173    0.5365   -1.2320 O   0  0  0  0  0  0  0  0  0  0  0  0
   -2.5506   -2.0763   -0.5447 N   0  0  0  0  0  0  0  0  0  0  0  0
   -3.3489    3.7057   -0.0580 N   0  0  0  0  0  0  0  0  0  0  0  0
   -2.5279    0.0064    0.2228 C   0  0  0  0  0  0  0  0  0  0  0  0
   -1.1971   -0.4957    0.2594 C   0  0  0  0  0  0  0  0  0  0  0  0
   -1.2390   -1.8040   -0.2271 C   0  0  0  0  0  0  0  0  0  0  0  0
   -2.9721    1.3510    0.6414 C   0  0  0  0  0  0  0  0  0  0  0  0
   -3.3370   -0.9882   -0.2766 C   0  0  0  0  0  0  0  0  0  0  0  0
    0.0432    0.0389    0.6611 C   0  0  0  0  0  0  0  0  0  0  0  0
   -2.9336    2.3800   -0.5035 C   0  0  0  0  0  0  0  0  0  0  0  0
   -0.0982   -2.6077   -0.3324 C   0  0  0  0  0  0  0  0  0  0  0  0
    1.1927   -0.7532    0.5616 C   0  0  0  0  0  0  0  0  0  0  0  0
    1.1209   -2.0560    0.0721 C   0  0  0  0  0  0  0  0  0  0  0  0
    3.1029    0.4095   -0.0779 C   0  0  0  0  0  0  0  0  0  0  0  0
    4.4126    0.9298    0.4699 C   0  0  0  0  0  0  0  0  0  0  0  0
    5.2194    1.6663   -0.5851 C   0  0  0  0  0  0  0  0  0  0  0  0
  1 13  1  0
  1 15  1  0
  2 15  2  0
  3  7  1  0
  3  9  1  0
  4 11  1  0
  5  6  1  0
  5  8  1  0
  5  9  2  0
  6  7  2  0
  6 10  1  0
  7 12  1  0
  8 11  1  0
 10 13  2  0
 12 14  2  0
 13 14  1  0
 15 16  1  0
 16 17  1  0
M  END
>  <PUBCHEM_COMPOUND_CID>  (1) 
29713

>  <PUBCHEM_CONFORMER_RMSD>  (1) 
0.6

>  <PUBCHEM_CONFORMER_DIVERSEORDER>  (1) 
1
114
196
125
186
138
195
149
109
73
112
111
63
24
74
151
96
157
86
7
181
162
192
188
159
30
133
193
108
141
39
4
85
100
65
155
171
122
189
164
120
42
129
23
134
58
110
88
91
32
185
167
84
9
163
89
131
146
165
115
17
71
72
153
82
132
174
105
54
33
90
194
172
168
97
182
5
119
147
130
150
117
126
48
87
83
25
127
34
57
128
81
44
124
8
2
27
37
41
56
68
169
46
38
49
28
75
40
161
191
121
52
92
101
156
22
6
176
190
139
118
137
55
160
53
135
94
166
13
35
21
107
79
76
36
19
184
187
45
177
62
148
144
170
80
154
15
50
66
98
60
136
77
123
180
29
152
3
18
93
47
67
142
70
116
140
14
20
16
10
78
179
106
95
158
26
102
113
178
43
69
104
11
183
145
143
64
12
61
173
59
103
51
175
31
99

>  <PUBCHEM_MMFF94_PARTIAL_CHARGES>  (1) 
22
1 -0.23
10 -0.15
11 0.27
12 -0.15
13 0.08
14 -0.15
15 0.66
16 0.06
2 -0.57
20 0.15
21 0.27
22 0.15
25 0.15
26 0.15
27 0.36
28 0.36
3 0.03
4 -0.99
5 -0.18
7 -0.15
8 0.18
9 -0.3

>  <PUBCHEM_EFFECTIVE_ROTOR_COUNT>  (1) 
5

>  <PUBCHEM_PHARMACOPHORE_FEATURES>  (1) 
8
1 17 hydrophobe
1 2 acceptor
1 3 cation
1 3 donor
1 4 cation
1 4 donor
5 3 5 6 7 9 rings
6 6 7 10 12 13 14 rings

>  <PUBCHEM_HEAVY_ATOM_COUNT>  (1) 
17

>  <PUBCHEM_ATOM_DEF_STEREO_COUNT>  (1) 
0

>  <PUBCHEM_ATOM_UDEF_STEREO_COUNT>  (1) 
0

>  <PUBCHEM_BOND_DEF_STEREO_COUNT>  (1) 
0

>  <PUBCHEM_BOND_UDEF_STEREO_COUNT>  (1) 
0

>  <PUBCHEM_ISOTOPIC_ATOM_COUNT>  (1) 
0

>  <PUBCHEM_COMPONENT_COUNT>  (1) 
1

>  <PUBCHEM_CACTVS_TAUTO_COUNT>  (1) 
1

>  <PUBCHEM_CONFORMER_ID>  (1) 
0000741100000001

>  <PUBCHEM_MMFF94_ENERGY>  (1) 
25.1356

>  <PUBCHEM_FEATURE_SELFOVERLAP>  (1) 
40.686

>  <PUBCHEM_SHAPE_FINGERPRINT>  (1) 
10498660 4 18411979139658731901
10670039 82 18262248793551087492
10871710 139 18336548312824480885
11206711 2 18201707492660141799
11715629 250 18409736122999945357
11769659 78 10231743492331821619
12107183 9 18118672224591460162
12173636 292 18411975883957191503
12346645 44 18408602573877960202
12390115 104 18271824392661265417
12916748 109 18337116773447490610
14123255 52 18338517439196722480
14142880 1 18187358835715815717
14251764 75 18197509428148158657
14508225 48 17695896018681413431
14739800 52 18050551135801215152
15342168 16 18122907530307632645
16945 1 18270389615944580523
17134986 127 18123471579228550911
1741750 31 18341611464938247025
17834072 32 18337671901907250449
18186145 218 17988373615193446754
20510252 161 18271811258482124899
20645477 56 18272097127220883264
20645477 70 16629984187056239094
20671657 1 18049445833565096935
21307412 95 12789537894512275324
21501502 16 18267574728806916835
21524375 3 18409448106893953754
23366157 5 18189334576617885250
23402539 116 18198899404002358734
23419403 2 15608154931850619043
23557571 272 18059022786296952580
23559900 14 17989212530345312462
23590187 32 18338234868987598537
27216 239 18260834782652774713
2748010 2 18127975209348440963
3268164 11 18059286673018329757
474 4 17603867844760938420
568465 68 13551192181989178728
6327066 14 18262512589915387077
7808743 9 18410856564141102544
8199 26 18337671914696979473

>  <PUBCHEM_SHAPE_MULTIPOLES>  (1) 
328.15
8.11
3.18
0.87
8.94
1.6
-0.02
6.51
-0.92
-3.26
-0.53
0.29
0.07
-0.47

>  <PUBCHEM_SHAPE_SELFOVERLAP>  (1) 
695.132

>  <PUBCHEM_SHAPE_VOLUME>  (1) 
184

>  <PUBCHEM_COORDINATE_TYPE>  (1) 
2
5
10

$$$$
