29711
     RDKit          3D

 20 22  0  0  1  0  0  0  0  0999 V2000
   -0.4219    0.0460    1.1690 O   0  0  0  0  0  0  0  0  0  0  0  0
   -2.2415    2.3082   -0.5523 N   0  0  0  0  0  0  0  0  0  0  0  0
    1.0979   -1.7843   -0.5803 N   0  0  0  0  0  0  0  0  0  0  0  0
    0.2032    0.9039    0.2041 C   0  0  0  0  0  0  0  0  0  0  0  0
   -0.1163    2.3327    0.6500 C   0  0  0  0  0  0  0  0  0  0  0  0
    1.6695    0.5378    0.1058 C   0  0  0  0  0  0  0  0  0  0  0  0
   -1.6206    2.5521    0.7441 C   0  0  0  0  0  0  0  0  0  0  0  0
    2.0311   -0.7575   -0.3224 C   0  0  0  0  0  0  0  0  0  0  0  0
   -0.9709   -1.0723    0.5995 C   0  0  0  0  0  0  0  0  0  0  0  0
   -0.2568   -1.9434   -0.2343 C   0  0  0  0  0  0  0  0  0  0  0  0
    2.6887    1.4686    0.3815 C   0  0  0  0  0  0  0  0  0  0  0  0
    3.3983   -1.0746   -0.4591 C   0  0  0  0  0  0  0  0  0  0  0  0
    4.0358    1.1332    0.2413 C   0  0  0  0  0  0  0  0  0  0  0  0
    4.3919   -0.1388   -0.1817 C   0  0  0  0  0  0  0  0  0  0  0  0
   -2.2991   -1.3389    0.9564 C   0  0  0  0  0  0  0  0  0  0  0  0
   -1.7227    3.2395   -1.5557 C   0  0  0  0  0  0  0  0  0  0  0  0
   -3.6977    2.4245   -0.4567 C   0  0  0  0  0  0  0  0  0  0  0  0
   -0.9422   -3.0632   -0.7436 C   0  0  0  0  0  0  0  0  0  0  0  0
   -2.9519   -2.4566    0.4455 C   0  0  0  0  0  0  0  0  0  0  0  0
   -2.2750   -3.3168   -0.4112 C   0  0  0  0  0  0  0  0  0  0  0  0
  1  4  1  0
  1  9  1  0
  2  7  1  0
  2 16  1  0
  2 17  1  0
  3  8  1  0
  3 10  1  0
  4  5  1  0
  4  6  1  0
  5  7  1  0
  6  8  2  0
  6 11  1  0
  8 12  1  0
  9 10  2  0
  9 15  1  0
 10 18  1  0
 11 13  2  0
 12 14  2  0
 13 14  1  0
 15 19  2  0
 18 20  2  0
 19 20  1  0
M  END
>  <PUBCHEM_COMPOUND_CID>  (1) 
29711

>  <PUBCHEM_CONFORMER_RMSD>  (1) 
0.6

>  <PUBCHEM_CONFORMER_DIVERSEORDER>  (1) 
8
7
18
11
6
4
14
17
9
3
15
12
1
5
13
10
2
16
19

>  <PUBCHEM_MMFF94_PARTIAL_CHARGES>  (1) 
28
1 -0.36
10 0.1
11 -0.15
12 -0.15
13 -0.15
14 -0.15
15 -0.15
16 0.27
17 0.27
18 -0.15
19 -0.15
2 -0.81
20 -0.15
26 0.15
27 0.4
28 0.15
29 0.15
3 -0.6
30 0.15
31 0.15
38 0.15
39 0.15
4 0.42
40 0.15
6 -0.14
7 0.27
8 0.1
9 0.08

>  <PUBCHEM_EFFECTIVE_ROTOR_COUNT>  (1) 
3.6

>  <PUBCHEM_PHARMACOPHORE_FEATURES>  (1) 
7
1 1 acceptor
1 2 cation
1 3 cation
1 3 donor
6 6 8 11 12 13 14 rings
6 9 10 15 18 19 20 rings
7 1 3 4 6 8 9 10 rings

>  <PUBCHEM_HEAVY_ATOM_COUNT>  (1) 
20

>  <PUBCHEM_ATOM_DEF_STEREO_COUNT>  (1) 
0

>  <PUBCHEM_ATOM_UDEF_STEREO_COUNT>  (1) 
1

>  <PUBCHEM_BOND_DEF_STEREO_COUNT>  (1) 
0

>  <PUBCHEM_BOND_UDEF_STEREO_COUNT>  (1) 
0

>  <PUBCHEM_ISOTOPIC_ATOM_COUNT>  (1) 
0

>  <PUBCHEM_COMPONENT_COUNT>  (1) 
1

>  <PUBCHEM_CACTVS_TAUTO_COUNT>  (1) 
1

>  <PUBCHEM_CONFORMER_ID>  (1) 
0000740F00000008

>  <PUBCHEM_MMFF94_ENERGY>  (1) 
78.4024

>  <PUBCHEM_FEATURE_SELFOVERLAP>  (1) 
35.537

>  <PUBCHEM_SHAPE_FINGERPRINT>  (1) 
104564 63 18337670926806593391
10688039 33 18115874169067002211
108634 29 18341895164660557551
10871710 139 17828228775930095876
10967382 1 18052263890620402354
1100329 8 17904759977648972250
11370993 70 18119804712240097853
11578080 2 17201902941991618337
116883 192 18266738159012909397
12553582 1 17979080701660702634
12643181 29 18051700946007376046
12730499 353 17758119198906643157
12788726 201 18262232352162687370
13140716 1 17837497710259311066
13583140 156 17313960610277100456
138480 1 16754096732528009431
13965767 371 17912121362546930787
14790565 3 16898212534584826609
16945 1 17405435880166792522
17357779 13 18197483224704438749
17492 54 18188192227286388477
19591789 44 18267870484480931699
20739085 24 17834709309995506051
21029758 27 17978523249049298370
21267235 1 17912381006532182438
21524375 3 18044661884247579248
21641784 216 18043825392539262460
22182313 1 18197236779185913150
22907989 373 18336842947528265300
23419403 2 17345174791632205697
23559900 14 18199750250894846490
238 59 17467886607616473005
2748010 2 18124898784102957034
3060560 45 17903912262599422068
350125 39 18197501938452655224
352729 6 18198065781188957698
4409770 3 18410565201943532470
58779409 54 18412538808488740980
6992083 37 18054812816430140771
7164475 11 18336266855417633196
7237137 82 18338254746882183172
81228 2 18262805192988227200
9709674 26 18271527507531345950

>  <PUBCHEM_SHAPE_MULTIPOLES>  (1) 
395.76
6.15
4.46
1.02
5.15
0.67
-0.09
0.22
-0.29
-5.25
-1.18
-0.44
0.36
0.95

>  <PUBCHEM_SHAPE_SELFOVERLAP>  (1) 
849.125

>  <PUBCHEM_SHAPE_VOLUME>  (1) 
218.2

>  <PUBCHEM_COORDINATE_TYPE>  (1) 
2
5
10

$$$$
