29725
     RDKit          3D

 21 22  0  0  0  0  0  0  0  0999 V2000
   -4.1272   -1.2213    0.3613 O   0  0  0  0  0  0  0  0  0  0  0  0
    2.2897   -1.7263    0.2472 O   0  0  0  0  0  0  0  0  0  0  0  0
    4.7260   -0.6047    0.1004 N   0  0  0  0  0  0  0  0  0  0  0  0
    1.1822    0.3430    0.1071 N   0  0  0  0  0  0  0  0  0  0  0  0
   -3.5478    1.4616    0.1384 N   0  0  0  0  0  0  0  0  0  0  0  0
    6.0114    0.0964    0.0487 C   0  0  0  0  0  0  0  0  0  0  0  0
   -0.1713   -0.0100    0.1684 C   0  0  0  0  0  0  0  0  0  0  0  0
   -1.1920    0.9546    0.1187 C   0  0  0  0  0  0  0  0  0  0  0  0
    3.5857    0.2993    0.0510 C   0  0  0  0  0  0  0  0  0  0  0  0
   -2.5456    0.5634    0.1834 C   0  0  0  0  0  0  0  0  0  0  0  0
    6.1554    0.8403   -1.2760 C   0  0  0  0  0  0  0  0  0  0  0  0
    7.1448   -0.9063    0.2402 C   0  0  0  0  0  0  0  0  0  0  0  0
    2.2999   -0.5037    0.1460 C   0  0  0  0  0  0  0  0  0  0  0  0
   -2.8301   -0.7947    0.2970 C   0  0  0  0  0  0  0  0  0  0  0  0
   -0.4844   -1.3615    0.2822 C   0  0  0  0  0  0  0  0  0  0  0  0
   -1.8157   -1.7539    0.3467 C   0  0  0  0  0  0  0  0  0  0  0  0
   -0.9050    2.3216    0.0047 C   0  0  0  0  0  0  0  0  0  0  0  0
   -1.9355    3.2494   -0.0419 C   0  0  0  0  0  0  0  0  0  0  0  0
   -3.2283    2.7713    0.0278 C   0  0  0  0  0  0  0  0  0  0  0  0
   -4.5642   -2.1086   -0.6633 C   0  0  0  0  0  0  0  0  0  0  0  0
   -6.0481   -1.9097   -0.8881 C   0  0  0  0  0  0  0  0  0  0  0  0
  1 14  1  0
  1 20  1  0
  2 13  2  0
  3  6  1  0
  3  9  1  0
  4  7  1  0
  4 13  1  0
  5 10  2  0
  5 19  1  0
  6 11  1  0
  6 12  1  0
  7  8  1  0
  7 15  2  0
  8 10  1  0
  8 17  2  0
  9 13  1  0
 10 14  1  0
 14 16  2  0
 15 16  1  0
 17 18  1  0
 18 19  2  0
 20 21  1  0
M  END
>  <PUBCHEM_COMPOUND_CID>  (1) 
29725

>  <PUBCHEM_CONFORMER_RMSD>  (1) 
0.8

>  <PUBCHEM_CONFORMER_DIVERSEORDER>  (1) 
1
21
19
4
8
13
12
5
3
16
14
7
17
10
11
6
2
15
22
9
18
20

>  <PUBCHEM_MMFF94_PARTIAL_CHARGES>  (1) 
24
1 -0.36
10 0.31
13 0.57
14 0.08
15 -0.15
16 -0.15
17 -0.15
18 -0.15
19 0.16
2 -0.57
20 0.28
25 0.36
3 -0.9
32 0.37
33 0.15
34 0.15
35 0.15
36 0.15
37 0.15
4 -0.55
5 -0.62
6 0.27
7 0.12
9 0.33

>  <PUBCHEM_EFFECTIVE_ROTOR_COUNT>  (1) 
7

>  <PUBCHEM_PHARMACOPHORE_FEATURES>  (1) 
9
1 1 acceptor
1 2 acceptor
1 3 cation
1 3 donor
1 4 donor
1 5 acceptor
3 6 11 12 hydrophobe
6 5 8 10 17 18 19 rings
6 7 8 10 14 15 16 rings

>  <PUBCHEM_HEAVY_ATOM_COUNT>  (1) 
21

>  <PUBCHEM_ATOM_DEF_STEREO_COUNT>  (1) 
0

>  <PUBCHEM_ATOM_UDEF_STEREO_COUNT>  (1) 
0

>  <PUBCHEM_BOND_DEF_STEREO_COUNT>  (1) 
0

>  <PUBCHEM_BOND_UDEF_STEREO_COUNT>  (1) 
0

>  <PUBCHEM_ISOTOPIC_ATOM_COUNT>  (1) 
0

>  <PUBCHEM_COMPONENT_COUNT>  (1) 
1

>  <PUBCHEM_CACTVS_TAUTO_COUNT>  (1) 
3

>  <PUBCHEM_CONFORMER_ID>  (1) 
0000741D00000001

>  <PUBCHEM_MMFF94_ENERGY>  (1) 
62.1617

>  <PUBCHEM_FEATURE_SELFOVERLAP>  (1) 
45.705

>  <PUBCHEM_SHAPE_FINGERPRINT>  (1) 
10366900 7 18335420201114768306
10411042 1 18266740363111970875
10595046 47 18335140882749456410
10670039 82 18334305258260270004
10912923 1 17967249772442319296
11101153 10 18336269058509710820
11265709 11 18339078298154763131
11315181 36 17603591854810964234
11524674 6 15985106340050928375
12107183 9 17612303053615088674
12166972 35 17749388225560522316
12236239 1 17894351081767893322
12390115 104 18055930804633145345
12788726 201 18334850619610711099
13288520 33 18413388752325416631
13631057 29 18413668010924831995
13862211 1 18339922713778068426
14508225 48 18337100268062616133
14790565 3 17548986559496154425
15196674 1 18337955584866130666
15778101 99 18269559338583850744
16087824 20 18339358566969097341
17844677 252 18411426116197482608
17980427 23 18114192929313794164
18927931 339 18410581690497236911
19427546 20 18334575729187967557
21029758 11 18338230587585173339
21065198 48 18187078409080357930
21236236 1 18411700967479749217
21267235 1 18338520845596411707
21315763 129 18411982451869405164
21424621 283 11819535010094634775
21426921 1 18411981325881384185
21792961 116 18113891672741506439
2297311 6 18343310275143986348
23081809 10 17967537848936633894
23402539 116 18410007740968722015
23557571 272 18272375273502941862
23559900 14 18192145112620556657
25147074 1 18042112181402741250
283562 15 18410011009987687971
335352 9 18411132555530584231
34797466 226 17774733064778828348
350125 39 18410578396125582016
3633792 109 17096350787661178595
4214541 1 18409168771385761432
5104073 3 18336264531829829226
5969126 39 18343292687326756205
6327066 14 17972031440705688741
7808743 9 18265332802843723856
9709674 26 18410019801511773762

>  <PUBCHEM_SHAPE_MULTIPOLES>  (1) 
405.49
14.73
2.91
0.77
24.04
2.03
-0.15
-5.97
-3.16
-4.76
-0.17
0.16
-0.08
-1.14

>  <PUBCHEM_SHAPE_SELFOVERLAP>  (1) 
847.917

>  <PUBCHEM_SHAPE_VOLUME>  (1) 
229.8

>  <PUBCHEM_COORDINATE_TYPE>  (1) 
2
5
10

$$$$
