29730
     RDKit          3D

 25 28  0  0  0  0  0  0  0  0999 V2000
   -0.8386   -0.6751   -1.9221 O   0  0  0  0  0  0  0  0  0  0  0  0
    3.7072   -1.1462    0.0920 N   0  0  0  0  0  0  0  0  0  0  0  0
   -1.1502   -0.3191   -0.5532 C   0  0  0  0  0  0  0  0  0  0  0  0
   -0.0770   -1.0438    0.2862 C   0  0  0  0  0  0  0  0  0  0  0  0
    1.3113   -0.7302   -0.2428 C   0  0  0  0  0  0  0  0  0  0  0  0
    2.3690   -1.4287    0.6101 C   0  0  0  0  0  0  0  0  0  0  0  0
    3.9841    0.2963    0.1428 C   0  0  0  0  0  0  0  0  0  0  0  0
    4.7188   -1.9078    0.8380 C   0  0  0  0  0  0  0  0  0  0  0  0
   -0.9222    1.1968   -0.4339 C   0  0  0  0  0  0  0  0  0  0  0  0
   -2.5399   -0.9200   -0.2551 C   0  0  0  0  0  0  0  0  0  0  0  0
    5.3613    0.6146   -0.4412 C   0  0  0  0  0  0  0  0  0  0  0  0
    6.1201   -1.6616    0.2766 C   0  0  0  0  0  0  0  0  0  0  0  0
    6.4586   -0.1754    0.2631 C   0  0  0  0  0  0  0  0  0  0  0  0
   -1.3132    1.9454    0.6914 C   0  0  0  0  0  0  0  0  0  0  0  0
   -3.5628   -0.3545    0.5336 C   0  0  0  0  0  0  0  0  0  0  0  0
   -2.1224    1.3388    1.8002 C   0  0  0  0  0  0  0  0  0  0  0  0
   -3.4944    0.9580    1.2745 C   0  0  0  0  0  0  0  0  0  0  0  0
   -0.1940    1.8817   -1.4370 C   0  0  0  0  0  0  0  0  0  0  0  0
   -2.7982   -2.2059   -0.8097 C   0  0  0  0  0  0  0  0  0  0  0  0
   -0.9962    3.3172    0.7809 C   0  0  0  0  0  0  0  0  0  0  0  0
   -4.8006   -1.0357    0.6579 C   0  0  0  0  0  0  0  0  0  0  0  0
    0.1108    3.2418   -1.3410 C   0  0  0  0  0  0  0  0  0  0  0  0
   -4.0146   -2.8714   -0.6552 C   0  0  0  0  0  0  0  0  0  0  0  0
   -0.2906    3.9616   -0.2285 C   0  0  0  0  0  0  0  0  0  0  0  0
   -5.0264   -2.2768    0.0725 C   0  0  0  0  0  0  0  0  0  0  0  0
  1  3  1  0
  2  6  1  0
  2  7  1  0
  2  8  1  0
  3  4  1  0
  3  9  1  0
  3 10  1  0
  4  5  1  0
  5  6  1  0
  7 11  1  0
  8 12  1  0
  9 14  2  0
  9 18  1  0
 10 15  2  0
 10 19  1  0
 11 13  1  0
 12 13  1  0
 14 16  1  0
 14 20  1  0
 15 17  1  0
 15 21  1  0
 16 17  1  0
 18 22  2  0
 19 23  2  0
 20 24  2  0
 21 25  2  0
 22 24  1  0
 23 25  1  0
M  END
>  <PUBCHEM_COMPOUND_CID>  (1) 
29730

>  <PUBCHEM_CONFORMER_RMSD>  (1) 
0.8

>  <PUBCHEM_CONFORMER_DIVERSEORDER>  (1) 
1
4
16
11
3
14
13
6
15
8
9
12
2
7
5
10

>  <PUBCHEM_MMFF94_PARTIAL_CHARGES>  (1) 
29
1 -0.68
10 -0.14
14 -0.14
15 -0.14
16 0.14
17 0.14
18 -0.15
19 -0.15
2 -0.81
20 -0.15
21 -0.15
22 -0.15
23 -0.15
24 -0.15
25 -0.15
3 0.57
46 0.15
47 0.15
48 0.4
49 0.15
50 0.15
51 0.15
52 0.15
53 0.15
54 0.15
6 0.27
7 0.27
8 0.27
9 -0.14

>  <PUBCHEM_EFFECTIVE_ROTOR_COUNT>  (1) 
5.8

>  <PUBCHEM_PHARMACOPHORE_FEATURES>  (1) 
7
1 1 acceptor
1 1 donor
1 2 cation
6 10 15 19 21 23 25 rings
6 2 7 8 11 12 13 rings
6 9 14 18 20 22 24 rings
7 3 9 10 14 15 16 17 rings

>  <PUBCHEM_HEAVY_ATOM_COUNT>  (1) 
25

>  <PUBCHEM_ATOM_DEF_STEREO_COUNT>  (1) 
0

>  <PUBCHEM_ATOM_UDEF_STEREO_COUNT>  (1) 
0

>  <PUBCHEM_BOND_DEF_STEREO_COUNT>  (1) 
0

>  <PUBCHEM_BOND_UDEF_STEREO_COUNT>  (1) 
0

>  <PUBCHEM_ISOTOPIC_ATOM_COUNT>  (1) 
0

>  <PUBCHEM_COMPONENT_COUNT>  (1) 
1

>  <PUBCHEM_CACTVS_TAUTO_COUNT>  (1) 
1

>  <PUBCHEM_CONFORMER_ID>  (1) 
0000742200000001

>  <PUBCHEM_MMFF94_ENERGY>  (1) 
75.2556

>  <PUBCHEM_FEATURE_SELFOVERLAP>  (1) 
35.534

>  <PUBCHEM_SHAPE_FINGERPRINT>  (1) 
10369192 42 17060336358277873916
10670039 82 18262533507407379804
1100329 8 18122628516014743263
11045515 52 18187076273827425597
11135609 187 17828206824315601980
11265709 11 18410013268855395351
11552529 35 18266456495590621664
11582403 64 15581172972513663597
12166972 35 17676206909723307454
12403814 3 18338238146095014560
12516196 113 18336262439600909147
13004483 165 18262791844794107195
13257819 101 13901642770738651987
13540713 5 17841440529772926647
14068700 675 17917134122553263023
14347332 77 18263357011135814962
14787075 74 18187085108822930050
14955137 171 18267872855282078883
15230672 131 17185047068415545590
17349148 13 17530687589501447714
17980427 23 17989213642472966205
1813 80 18190163754102191609
18336668 15 18261114122888294981
19377110 9 18334847308866178626
200 152 17603302639733792242
20197701 30 9511469926287457973
20600515 1 18201170870972257101
22950370 63 18410574024033451850
23402539 116 18409726261839916902
23419403 2 18056451020199729349
23559900 14 18194672899176166211
283562 15 18188203208974510162
376196 1 15221440221262563884
4015057 19 13984672438470764646
4409770 3 18117831110891702789
469060 322 18335424547690302032
497634 4 18201442441769915234
5104073 3 18199456694138469618
6009941 240 17313387786694382091
9996256 80 18411703150220337154

>  <PUBCHEM_SHAPE_MULTIPOLES>  (1) 
503.64
11.95
3.92
1.28
18.35
3.4
-0.09
-10.18
2.28
-2.39
-0.52
-0.7
0.47
-1.53

>  <PUBCHEM_SHAPE_SELFOVERLAP>  (1) 
1079.008

>  <PUBCHEM_SHAPE_VOLUME>  (1) 
275.9

>  <PUBCHEM_COORDINATE_TYPE>  (1) 
2
5
10

$$$$
