29734
     RDKit          3D

 19 20  0  0  0  0  0  0  0  0999 V2000
    5.7566    2.1506   -0.2886 F   0  0  0  0  0  0  0  0  0  0  0  0
   -5.2052    2.4884    0.9311 O   0  0  0  0  0  0  0  0  0  0  0  0
    1.6312   -2.4118    0.9442 O   0  0  0  0  0  0  0  0  0  0  0  0
   -2.7507   -0.5556   -0.5621 N   0  0  0  0  0  0  0  0  0  0  0  0
   -4.8356    1.1741    0.5338 C   0  0  0  0  0  0  0  0  0  0  0  0
   -3.0909   -0.6158    0.8668 C   0  0  0  0  0  0  0  0  0  0  0  0
   -3.9228   -0.1986   -1.3743 C   0  0  0  0  0  0  0  0  0  0  0  0
   -3.6340    0.7251    1.3592 C   0  0  0  0  0  0  0  0  0  0  0  0
   -4.4917    1.1556   -0.9529 C   0  0  0  0  0  0  0  0  0  0  0  0
   -2.1879   -1.8299   -1.0082 C   0  0  0  0  0  0  0  0  0  0  0  0
   -0.9073   -2.1429   -0.2316 C   0  0  0  0  0  0  0  0  0  0  0  0
    0.1652   -1.0670   -0.4221 C   0  0  0  0  0  0  0  0  0  0  0  0
    1.4778   -1.3916    0.2769 C   0  0  0  0  0  0  0  0  0  0  0  0
    2.6202   -0.4457    0.1260 C   0  0  0  0  0  0  0  0  0  0  0  0
    2.4452    0.6852   -0.6397 C   0  0  0  0  0  0  0  0  0  0  0  0
    3.8082   -0.7382    0.7579 C   0  0  0  0  0  0  0  0  0  0  0  0
    3.5142    1.5701   -0.7810 C   0  0  0  0  0  0  0  0  0  0  0  0
    4.8772    0.1468    0.6169 C   0  0  0  0  0  0  0  0  0  0  0  0
    4.7302    1.3010   -0.1526 C   0  0  0  0  0  0  0  0  0  0  0  0
  1 19  1  0
  2  5  1  0
  3 13  2  0
  4  6  1  0
  4  7  1  0
  4 10  1  0
  5  8  1  0
  5  9  1  0
  6  8  1  0
  7  9  1  0
 10 11  1  0
 11 12  1  0
 12 13  1  0
 13 14  1  0
 14 15  2  0
 14 16  1  0
 15 17  1  0
 16 18  2  0
 17 19  2  0
 18 19  1  0
M  END
>  <PUBCHEM_COMPOUND_CID>  (1) 
29734

>  <PUBCHEM_CONFORMER_RMSD>  (1) 
0.8

>  <PUBCHEM_CONFORMER_DIVERSEORDER>  (1) 
1
92
17
48
52
103
73
93
96
62
74
34
58
3
30
95
25
50
105
27
12
100
76
40
23
21
44
79
5
38
106
102
99
2
94
45
89
104
20
101
97
15
90
13
37
4
60
29
64
82
42
91
10
57
83
32
39
67
36
9
78
43
24
6
71
11
87
69
84
63
46
54
65
49
41
72
98
35
56
31
86
75
70
59
47
22
66
33
14
80
81
85
19
53
55
88
7
51
16
68
28
61
77
18
8
26

>  <PUBCHEM_MMFF94_PARTIAL_CHARGES>  (1) 
21
1 -0.19
10 0.27
12 0.06
13 0.42
14 0.09
15 -0.15
16 -0.15
17 -0.15
18 -0.15
19 0.19
2 -0.68
3 -0.57
35 0.4
36 0.15
37 0.15
38 0.15
39 0.15
4 -0.81
5 0.28
6 0.27
7 0.27

>  <PUBCHEM_EFFECTIVE_ROTOR_COUNT>  (1) 
6.2

>  <PUBCHEM_PHARMACOPHORE_FEATURES>  (1) 
6
1 2 acceptor
1 2 donor
1 3 acceptor
1 4 cation
6 14 15 16 17 18 19 rings
6 4 5 6 7 8 9 rings

>  <PUBCHEM_HEAVY_ATOM_COUNT>  (1) 
19

>  <PUBCHEM_ATOM_DEF_STEREO_COUNT>  (1) 
0

>  <PUBCHEM_ATOM_UDEF_STEREO_COUNT>  (1) 
0

>  <PUBCHEM_BOND_DEF_STEREO_COUNT>  (1) 
0

>  <PUBCHEM_BOND_UDEF_STEREO_COUNT>  (1) 
0

>  <PUBCHEM_ISOTOPIC_ATOM_COUNT>  (1) 
0

>  <PUBCHEM_COMPONENT_COUNT>  (1) 
1

>  <PUBCHEM_CACTVS_TAUTO_COUNT>  (1) 
2

>  <PUBCHEM_CONFORMER_ID>  (1) 
0000742600000001

>  <PUBCHEM_MMFF94_ENERGY>  (1) 
32.6412

>  <PUBCHEM_FEATURE_SELFOVERLAP>  (1) 
30.446

>  <PUBCHEM_SHAPE_FINGERPRINT>  (1) 
10382601 240 17895186680403458866
10498660 4 17275102812709887675
11046707 91 10953455237039524327
11089746 13 18131059459817953840
11370993 144 16877933893777455707
12107183 9 18265889164639099114
12390115 104 18262246624170537838
12596602 18 17967251996818712553
12633257 1 16081381790181616153
13103583 49 12252187325386651805
13583140 156 14924486667816414414
13887833 79 15769783428806282917
14123255 352 18410009957198207436
14123260 362 18202283606619688523
1420 369 7997966877570373289
14251764 38 17842546620510132392
14576447 43 10015862089858792354
14848178 5 9007060127981579644
15163728 17 17989218027033176391
15188451 53 14418422135060528577
15342168 16 18270402677387858079
15415430 10 9151183047214885206
15880784 105 11963394033198178212
17780758 139 12829478255907724957
17834072 32 18411983563458787341
18222031 100 10303819757125348166
193927 3 8718551648455206224
20621476 21 11747755571451121552
20739085 24 17821732719762342716
21033648 29 16733261236722365671
21503847 285 18335705992581220018
22393880 68 13326855496101020301
23402655 69 18341893030636544622
235170 7 14836404722442905913
270888 7 18342460301185134641
2838139 119 18202559583827309480
341906 21 17989197174982674266
3472631 163 18131071519938752949
4259306 186 10952045658795270739
44062 13 10231766556839178723
474 4 18409445847983846499
5104073 3 17968929916308909650
57724786 102 18195811773788482099
5924683 9 17023473061645070539
59682541 52 15338562592228823605
633830 44 18409448103005376398
636775 72 17834957847902790488
76465 3 8502652601771351847
7808743 9 18343301478866282977
7970288 3 8502651493670432745

>  <PUBCHEM_SHAPE_MULTIPOLES>  (1) 
367.02
13.15
2.38
1.19
1.5
0.03
-0.01
-9.78
-0.91
-0.19
-0.09
-1.06
-0.06
-1.65

>  <PUBCHEM_SHAPE_SELFOVERLAP>  (1) 
758.101

>  <PUBCHEM_SHAPE_VOLUME>  (1) 
210.9

>  <PUBCHEM_COORDINATE_TYPE>  (1) 
2
5
10

$$$$
