29742
     RDKit          3D

 16 17  0  0  0  0  0  0  0  0999 V2000
   -4.2086   -1.2440    0.0052 Cl  0  0  0  0  0  0  0  0  0  0  0  0
   -4.0666    1.9584   -0.0021 Cl  0  0  0  0  0  0  0  0  0  0  0  0
    3.8293   -1.2119    0.0033 F   0  0  0  0  0  0  0  0  0  0  0  0
    3.8289    0.6653   -1.0830 F   0  0  0  0  0  0  0  0  0  0  0  0
    3.8028    0.6706    1.0914 F   0  0  0  0  0  0  0  0  0  0  0  0
   -1.5525   -2.5431   -0.0006 O   0  0  0  0  0  0  0  0  0  0  0  0
    1.0778    1.2050   -0.0019 N   0  0  0  0  0  0  0  0  0  0  0  0
    1.0040   -1.0164   -0.0028 N   0  0  0  0  0  0  0  0  0  0  0  0
   -0.2551    0.8831   -0.0014 C   0  0  0  0  0  0  0  0  0  0  0  0
   -0.2750   -0.5089   -0.0021 C   0  0  0  0  0  0  0  0  0  0  0  0
    1.7891    0.0375   -0.0031 C   0  0  0  0  0  0  0  0  0  0  0  0
   -1.5116   -1.1762   -0.0017 C   0  0  0  0  0  0  0  0  0  0  0  0
   -1.4099    1.6662   -0.0004 C   0  0  0  0  0  0  0  0  0  0  0  0
   -2.6842   -0.4103   -0.0007 C   0  0  0  0  0  0  0  0  0  0  0  0
   -2.6320    0.9856   -0.0003 C   0  0  0  0  0  0  0  0  0  0  0  0
    3.2638    0.0390   -0.0001 C   0  0  0  0  0  0  0  0  0  0  0  0
  1 14  1  0
  2 15  1  0
  3 16  1  0
  4 16  1  0
  5 16  1  0
  6 12  1  0
  7  9  1  0
  7 11  1  0
  8 10  1  0
  8 11  2  0
  9 10  2  0
  9 13  1  0
 10 12  1  0
 11 16  1  0
 12 14  2  0
 13 15  2  0
 14 15  1  0
M  END
>  <PUBCHEM_COMPOUND_CID>  (1) 
29742

>  <PUBCHEM_CONFORMER_RMSD>  (1) 
0.6

>  <PUBCHEM_CONFORMER_DIVERSEORDER>  (1) 
1

>  <PUBCHEM_MMFF94_PARTIAL_CHARGES>  (1) 
19
1 -0.18
10 0.23
11 0.01
12 0.08
13 -0.15
14 0.18
15 0.18
16 1.2
17 0.27
18 0.15
19 0.45
2 -0.18
3 -0.34
4 -0.34
5 -0.34
6 -0.53
7 0.03
8 -0.57
9 -0.15

>  <PUBCHEM_EFFECTIVE_ROTOR_COUNT>  (1) 
1

>  <PUBCHEM_PHARMACOPHORE_FEATURES>  (1) 
5
1 6 donor
1 7 donor
3 7 8 11 cation
5 7 8 9 10 11 rings
6 9 10 12 13 14 15 rings

>  <PUBCHEM_HEAVY_ATOM_COUNT>  (1) 
16

>  <PUBCHEM_ATOM_DEF_STEREO_COUNT>  (1) 
0

>  <PUBCHEM_ATOM_UDEF_STEREO_COUNT>  (1) 
0

>  <PUBCHEM_BOND_DEF_STEREO_COUNT>  (1) 
0

>  <PUBCHEM_BOND_UDEF_STEREO_COUNT>  (1) 
0

>  <PUBCHEM_ISOTOPIC_ATOM_COUNT>  (1) 
0

>  <PUBCHEM_COMPONENT_COUNT>  (1) 
1

>  <PUBCHEM_CACTVS_TAUTO_COUNT>  (1) 
13

>  <PUBCHEM_CONFORMER_ID>  (1) 
0000742E00000001

>  <PUBCHEM_MMFF94_ENERGY>  (1) 
21.2173

>  <PUBCHEM_FEATURE_SELFOVERLAP>  (1) 
25.479

>  <PUBCHEM_SHAPE_FINGERPRINT>  (1) 
10608611 8 18342734135056212616
11132069 177 18410289185891457784
12032990 46 18410578426495957267
13140716 1 18049725419104532691
13380535 76 18341612555970677407
13581323 91 18408886260667622855
13862211 1 18339075008215797207
14144814 61 18410008831990641922
14325111 11 18410575063293919360
15196674 1 18410575067483216231
15219456 202 18131075883277210167
15309172 13 18339088081747456801
15669948 3 18410009978873757270
15775835 57 18261395490580376801
16945 1 18410574032638736487
17804303 29 18413673517073061184
18186145 218 18040432149157619918
19422 9 18186523198082750314
200 152 17203318988466921485
20279233 1 17989487420503999790
20510252 161 18272933817104988337
20645477 56 18410572877113634096
20645477 70 16845585197063787638
20871998 184 18273217529796654783
21029758 11 18272080647953867609
21029758 27 18115316699586763749
21267235 1 18409176527347813083
23402539 116 18342729754732720975
23402655 69 18198047085866803237
23463225 33 18334856070055843930
23557571 272 18272384086828698044
23559900 14 18271804589014955880
2748010 2 18267031561530623463
43471831 8 18334290921005827579
474 4 16807023262678063756
5104073 3 18410854343547448600
53812653 166 18342451504743732017
54173680 148 18192714660081821803
6333449 129 18412542098449643853
633830 44 17240773843371603216
69090 78 18341325613547876735
7364860 26 18124598840762053564
8809292 202 18189899892971250963
9709674 26 18341899584282482382

>  <PUBCHEM_SHAPE_MULTIPOLES>  (1) 
295.36
7.54
1.99
0.69
3.18
0.35
0
-0.66
0
-1.89
0
0.32
-0.09
0

>  <PUBCHEM_SHAPE_SELFOVERLAP>  (1) 
631.656

>  <PUBCHEM_SHAPE_VOLUME>  (1) 
168.4

>  <PUBCHEM_COORDINATE_TYPE>  (1) 
2
5
10

$$$$
