29757
     RDKit          3D

 12 13  0  0  0  0  0  0  0  0999 V2000
   -3.4627   -0.6723   -0.0165 O   0  0  0  0  0  0  0  0  0  0  0  0
   -2.9636    1.4654    0.0060 O   0  0  0  0  0  0  0  0  0  0  0  0
    2.1458    1.4755    0.0795 N   0  0  0  0  0  0  0  0  0  0  0  0
   -2.6215    0.2584   -0.0057 N   0  0  0  0  0  0  0  0  0  0  0  0
    2.9306   -0.8086    0.0890 C   0  0  0  0  0  0  0  0  0  0  0  0
    1.4412   -0.7270    0.0115 C   0  0  0  0  0  0  0  0  0  0  0  0
    3.3321    0.6618   -0.1573 C   0  0  0  0  0  0  0  0  0  0  0  0
    1.0522    0.6149    0.0039 C   0  0  0  0  0  0  0  0  0  0  0  0
    0.5126   -1.7524   -0.0018 C   0  0  0  0  0  0  0  0  0  0  0  0
   -0.2877    0.9599    0.0167 C   0  0  0  0  0  0  0  0  0  0  0  0
   -1.2382   -0.0645   -0.0063 C   0  0  0  0  0  0  0  0  0  0  0  0
   -0.8407   -1.4111   -0.0189 C   0  0  0  0  0  0  0  0  0  0  0  0
  1  4  1  0
  2  4  2  0
  3  7  1  0
  3  8  1  0
  4 11  1  0
  5  6  1  0
  5  7  1  0
  6  8  2  0
  6  9  1  0
  8 10  1  0
  9 12  2  0
 10 11  2  0
 11 12  1  0
M  CHG  2   1  -1   4   1
M  END
>  <PUBCHEM_COMPOUND_CID>  (1) 
29757

>  <PUBCHEM_CONFORMER_RMSD>  (1) 
0.4

>  <PUBCHEM_CONFORMER_DIVERSEORDER>  (1) 
1

>  <PUBCHEM_MMFF94_PARTIAL_CHARGES>  (1) 
16
1 -0.52
10 -0.15
11 0.13
12 -0.15
17 0.4
18 0.15
19 0.15
2 -0.52
20 0.15
3 -0.87
4 0.91
5 0.14
6 -0.14
7 0.37
8 0.1
9 -0.15

>  <PUBCHEM_EFFECTIVE_ROTOR_COUNT>  (1) 
1.6

>  <PUBCHEM_PHARMACOPHORE_FEATURES>  (1) 
7
1 1 acceptor
1 1 anion
1 2 acceptor
1 3 cation
1 3 donor
5 3 5 6 7 8 rings
6 6 8 9 10 11 12 rings

>  <PUBCHEM_HEAVY_ATOM_COUNT>  (1) 
12

>  <PUBCHEM_ATOM_DEF_STEREO_COUNT>  (1) 
0

>  <PUBCHEM_ATOM_UDEF_STEREO_COUNT>  (1) 
0

>  <PUBCHEM_BOND_DEF_STEREO_COUNT>  (1) 
0

>  <PUBCHEM_BOND_UDEF_STEREO_COUNT>  (1) 
0

>  <PUBCHEM_ISOTOPIC_ATOM_COUNT>  (1) 
0

>  <PUBCHEM_COMPONENT_COUNT>  (1) 
1

>  <PUBCHEM_CACTVS_TAUTO_COUNT>  (1) 
1

>  <PUBCHEM_CONFORMER_ID>  (1) 
0000743D00000001

>  <PUBCHEM_MMFF94_ENERGY>  (1) 
46.1867

>  <PUBCHEM_FEATURE_SELFOVERLAP>  (1) 
35.693

>  <PUBCHEM_SHAPE_FINGERPRINT>  (1) 
10219947 1 18187085052687635908
10608611 8 18410290324068444577
11471102 20 18338230475235645685
12032990 46 18410864256253183302
12932764 1 17346308319522135125
13380535 76 18410572920316501586
14144814 61 18410573980919865480
14325111 11 18410575084694857349
15775835 57 18410298007759383108
16945 1 18411700963264084998
17844478 74 18041005033354527013
18186145 218 18272657822253391240
193761 8 17618222149117858148
20645476 183 17896057575359519654
20645477 70 18339356362769698735
21028194 46 18410858775842914323
21040471 1 18338516451543797674
23235685 24 18411132550185947308
23402655 69 18268977701818471141
23463225 33 18335135350288429146
23552423 10 18336548192396441743
23559900 14 18271815636209054684
2748010 2 18266744760546506822
5084963 1 18273494563449880210
528886 8 18411132558797033026
53812653 166 18271521017814844640
63268167 104 18341616979570500200

>  <PUBCHEM_SHAPE_MULTIPOLES>  (1) 
225.25
5.03
1.64
0.59
1.32
0.17
0
-0.98
-0.07
-0.04
0.01
-0.07
0.02
-0.04

>  <PUBCHEM_SHAPE_SELFOVERLAP>  (1) 
488.733

>  <PUBCHEM_SHAPE_VOLUME>  (1) 
126.3

>  <PUBCHEM_COORDINATE_TYPE>  (1) 
2
5
10

$$$$
