29753
     RDKit          3D

 21 22  0  0  0  0  0  0  0  0999 V2000
    0.5114   -1.1782    1.0644 O   0  0  0  0  0  0  0  0  0  0  0  0
    1.1566   -0.3978   -1.0435 O   0  0  0  0  0  0  0  0  0  0  0  0
   -4.6524   -1.3030   -0.7736 N   0  0  0  0  0  0  0  0  0  0  0  0
   -3.6700    4.4058    0.0938 N   0  0  0  0  0  0  0  0  0  0  0  0
    5.2227    0.0272    0.4972 C   0  0  0  0  0  0  0  0  0  0  0  0
    3.8563   -0.0913   -0.1852 C   0  0  0  0  0  0  0  0  0  0  0  0
    6.2774    0.5766   -0.4655 C   0  0  0  0  0  0  0  0  0  0  0  0
   -2.9340   -0.2665    0.2012 C   0  0  0  0  0  0  0  0  0  0  0  0
   -4.0419    0.6246    0.1424 C   0  0  0  0  0  0  0  0  0  0  0  0
   -3.3437   -1.4686   -0.3799 C   0  0  0  0  0  0  0  0  0  0  0  0
    2.7876   -0.6647    0.7449 C   0  0  0  0  0  0  0  0  0  0  0  0
    7.6478    0.6685    0.2051 C   0  0  0  0  0  0  0  0  0  0  0  0
   -4.0785    2.0154    0.6372 C   0  0  0  0  0  0  0  0  0  0  0  0
   -5.0831   -0.0411   -0.4624 C   0  0  0  0  0  0  0  0  0  0  0  0
   -1.6181   -0.1656    0.6945 C   0  0  0  0  0  0  0  0  0  0  0  0
   -0.7943   -1.2705    0.5768 C   0  0  0  0  0  0  0  0  0  0  0  0
   -2.4997   -2.5791   -0.4928 C   0  0  0  0  0  0  0  0  0  0  0  0
   -3.6533    3.0432   -0.4275 C   0  0  0  0  0  0  0  0  0  0  0  0
    1.4160   -0.7240    0.1070 C   0  0  0  0  0  0  0  0  0  0  0  0
   -1.1987   -2.4556    0.0037 C   0  0  0  0  0  0  0  0  0  0  0  0
    8.6918    1.2447   -0.7378 C   0  0  0  0  0  0  0  0  0  0  0  0
  1 16  1  0
  1 19  1  0
  2 19  2  0
  3 10  1  0
  3 14  1  0
  4 18  1  0
  5  6  1  0
  5  7  1  0
  6 11  1  0
  7 12  1  0
  8  9  1  0
  8 10  2  0
  8 15  1  0
  9 13  1  0
  9 14  2  0
 10 17  1  0
 11 19  1  0
 12 21  1  0
 13 18  1  0
 15 16  2  0
 16 20  1  0
 17 20  2  0
M  END
>  <PUBCHEM_COMPOUND_CID>  (1) 
29753

>  <PUBCHEM_CONFORMER_RMSD>  (1) 
1

>  <PUBCHEM_CONFORMER_DIVERSEORDER>  (1) 
1
333
481
29
454
465
303
60
115
4
109
86
119
19
121
25
345
430
311
276
177
198
380
131
503
138
243
175
18
41
199
91
260
8
373
155
57
46
147
226
20
12
326
458
65
288
417
32
102
38
298
369
79
189
66
34
33
113
21
5
10
284
7
3
39
160
217
174
203
287
2
241
17
204
173
166
449
110
30
377
117
6
188

>  <PUBCHEM_MMFF94_PARTIAL_CHARGES>  (1) 
22
1 -0.23
10 -0.15
11 0.06
13 0.18
14 -0.3
15 -0.15
16 0.08
17 -0.15
18 0.27
19 0.66
2 -0.57
20 -0.15
3 0.03
34 0.15
35 0.15
36 0.27
37 0.15
4 -0.99
40 0.15
44 0.36
45 0.36
9 -0.18

>  <PUBCHEM_EFFECTIVE_ROTOR_COUNT>  (1) 
9

>  <PUBCHEM_PHARMACOPHORE_FEATURES>  (1) 
9
1 2 acceptor
1 21 hydrophobe
1 3 cation
1 3 donor
1 4 cation
1 4 donor
5 3 8 9 10 14 rings
5 5 6 7 11 12 hydrophobe
6 8 10 15 16 17 20 rings

>  <PUBCHEM_HEAVY_ATOM_COUNT>  (1) 
21

>  <PUBCHEM_ATOM_DEF_STEREO_COUNT>  (1) 
0

>  <PUBCHEM_ATOM_UDEF_STEREO_COUNT>  (1) 
0

>  <PUBCHEM_BOND_DEF_STEREO_COUNT>  (1) 
0

>  <PUBCHEM_BOND_UDEF_STEREO_COUNT>  (1) 
0

>  <PUBCHEM_ISOTOPIC_ATOM_COUNT>  (1) 
0

>  <PUBCHEM_COMPONENT_COUNT>  (1) 
1

>  <PUBCHEM_CACTVS_TAUTO_COUNT>  (1) 
1

>  <PUBCHEM_CONFORMER_ID>  (1) 
0000743900000001

>  <PUBCHEM_MMFF94_ENERGY>  (1) 
23.9529

>  <PUBCHEM_FEATURE_SELFOVERLAP>  (1) 
45.764

>  <PUBCHEM_SHAPE_FINGERPRINT>  (1) 
10087517 78 18335137587950949644
10411042 1 17979073014218635479
10595046 47 18408599249721271562
10670039 82 18410851066419212416
10730089 173 18411700989155149712
11089746 13 18334012839585361292
11315181 36 18115026419695072054
12091667 2 18337393841925191610
12107183 9 17831005841559032938
12236239 1 18040989648523664914
12390115 104 18200601276778334153
13167372 99 18333731313311928576
13885169 127 18411981365443041894
14251764 75 17838061399338302993
14508225 48 17983840445207302367
15183329 4 18411699898808372210
15348495 7 11314316065993826014
155225 5 18268148660944968944
15716309 27 11095891475650521162
16126227 98 18199474264549516657
17093844 174 13118274906259762822
18336668 15 18040720281091663892
18643901 69 16845287311159873303
19489759 90 18273215330783987410
200 152 14189580736294381762
20281389 69 18408319987100637080
20645477 56 18272934916738052139
20771845 165 18200604587786734582
21315763 191 9871746914472536448
21623969 137 13767920214082278224
23035841 295 10231761097798387182
23198884 109 18412263947798920682
23559900 14 17917425480101983330
2838139 119 18410856581832466548
397830 11 11386662857691822950
4073 2 18113904905615075098
44555599 121 18041285456893010412
445580 37 18410863170502079460
5283173 99 18343019969735659808
59567204 34 18411420609722816240
6327066 14 18191580853335606725
6328613 192 18114187497193306460
636775 72 18337670927925860920
7062679 6 18334861610695511644
7808743 9 18339638920020067761

>  <PUBCHEM_SHAPE_MULTIPOLES>  (1) 
410.47
18.44
3.14
0.89
49.62
3.44
0.01
10.48
-3.35
-6.49
-0.2
0.13
-0.07
-0.96

>  <PUBCHEM_SHAPE_SELFOVERLAP>  (1) 
847.465

>  <PUBCHEM_SHAPE_VOLUME>  (1) 
235.7

>  <PUBCHEM_COORDINATE_TYPE>  (1) 
2
5
10

$$$$
