29754
     RDKit          3D

 19 19  0  0  0  0  0  0  0  0999 V2000
    1.5319    2.8984   -0.9812 I   0  0  0  0  0  0  0  0  0  0  0  0
    1.3795   -3.1338   -0.0530 I   0  0  0  0  0  0  0  0  0  0  0  0
   -3.8126    0.0820   -0.1022 I   0  0  0  0  0  0  0  0  0  0  0  0
   -1.9477   -2.6853    1.4365 O   0  0  0  0  0  0  0  0  0  0  0  0
   -2.2385   -3.1865   -0.7613 O   0  0  0  0  0  0  0  0  0  0  0  0
    3.2260    0.1620    1.6161 O   0  0  0  0  0  0  0  0  0  0  0  0
   -1.7216    3.2499    1.5657 O   0  0  0  0  0  0  0  0  0  0  0  0
    2.4858   -0.1569   -0.5977 N   0  0  0  0  0  0  0  0  0  0  0  0
   -1.6332    2.3937   -0.6373 N   0  0  0  0  0  0  0  0  0  0  0  0
    1.0887   -0.1047   -0.4878 C   0  0  0  0  0  0  0  0  0  0  0  0
   -0.9654    1.1672   -0.5074 C   0  0  0  0  0  0  0  0  0  0  0  0
   -1.0264   -1.2197   -0.1399 C   0  0  0  0  0  0  0  0  0  0  0  0
    0.4242    1.1151   -0.6168 C   0  0  0  0  0  0  0  0  0  0  0  0
    0.3633   -1.2721   -0.2494 C   0  0  0  0  0  0  0  0  0  0  0  0
   -1.6907   -0.0001   -0.2689 C   0  0  0  0  0  0  0  0  0  0  0  0
   -1.7875   -2.4448    0.1099 C   0  0  0  0  0  0  0  0  0  0  0  0
    3.4320   -0.0238    0.4211 C   0  0  0  0  0  0  0  0  0  0  0  0
    4.8383   -0.1413   -0.1109 C   0  0  0  0  0  0  0  0  0  0  0  0
   -1.9460    3.3006    0.3645 C   0  0  0  0  0  0  0  0  0  0  0  0
  1 13  1  0
  2 14  1  0
  3 15  1  0
  4 16  1  0
  5 16  2  0
  6 17  2  0
  7 19  2  0
  8 10  1  0
  8 17  1  0
  9 11  1  0
  9 19  1  0
 10 13  2  0
 10 14  1  0
 11 13  1  0
 11 15  2  0
 12 14  2  0
 12 15  1  0
 12 16  1  0
 17 18  1  0
M  END
>  <PUBCHEM_COMPOUND_CID>  (1) 
29754

>  <PUBCHEM_CONFORMER_RMSD>  (1) 
0.6

>  <PUBCHEM_CONFORMER_DIVERSEORDER>  (1) 
1
4
3
2

>  <PUBCHEM_MMFF94_PARTIAL_CHARGES>  (1) 
23
1 -0.08
10 0.12
11 0.12
12 0.09
13 0.08
14 0.08
15 0.08
16 0.63
17 0.57
18 0.06
19 0.57
2 -0.08
20 0.37
21 0.37
25 0.06
26 0.5
3 -0.08
4 -0.65
5 -0.57
6 -0.57
7 -0.57
8 -0.55
9 -0.55

>  <PUBCHEM_EFFECTIVE_ROTOR_COUNT>  (1) 
5

>  <PUBCHEM_PHARMACOPHORE_FEATURES>  (1) 
11
1 1 hydrophobe
1 2 hydrophobe
1 3 hydrophobe
1 4 acceptor
1 5 acceptor
1 6 acceptor
1 7 acceptor
1 8 donor
1 9 donor
3 4 5 16 anion
6 10 11 12 13 14 15 rings

>  <PUBCHEM_HEAVY_ATOM_COUNT>  (1) 
19

>  <PUBCHEM_ATOM_DEF_STEREO_COUNT>  (1) 
0

>  <PUBCHEM_ATOM_UDEF_STEREO_COUNT>  (1) 
0

>  <PUBCHEM_BOND_DEF_STEREO_COUNT>  (1) 
0

>  <PUBCHEM_BOND_UDEF_STEREO_COUNT>  (1) 
0

>  <PUBCHEM_ISOTOPIC_ATOM_COUNT>  (1) 
0

>  <PUBCHEM_COMPONENT_COUNT>  (1) 
1

>  <PUBCHEM_CACTVS_TAUTO_COUNT>  (1) 
4

>  <PUBCHEM_CONFORMER_ID>  (1) 
0000743A00000001

>  <PUBCHEM_MMFF94_ENERGY>  (1) 
106.7655

>  <PUBCHEM_FEATURE_SELFOVERLAP>  (1) 
55.879

>  <PUBCHEM_SHAPE_FINGERPRINT>  (1) 
10366900 7 18201991132099623744
10967382 1 18408604725545669447
1100329 8 18337393845987757805
12553582 1 18261384576868089014
12788726 201 18408882953490057656
13140716 1 18265340684150182235
14081887 123 18341878702087731066
14178342 30 18410006603324731802
15042514 8 18409451422666955767
16945 1 18409174302702063863
19591789 44 17977389334685943774
20510252 161 18342453690839952521
20739085 24 17759548580722131397
21041028 32 18120389884591380155
21501502 16 18119811571407844951
21524375 3 17839166420901879236
21731228 192 18049728416558876689
22112679 90 18124328343594546871
23184049 29 18264208183016067692
2334 1 17976827806519340487
23402539 116 18340757183284757973
23419403 2 17039734949645234453
23558518 356 18193002517279395727
23559900 14 18340203085696939260
2748010 2 18120939665990299815
31174 14 16825318706424913353
350125 39 18051417266572173119
352729 6 18409454721169560767
57003041 12 18125446302418336161
7364860 26 17402330872219616492
81228 2 18408326570589123951

>  <PUBCHEM_SHAPE_MULTIPOLES>  (1) 
393.38
5.92
4.61
1.1
3.73
0.09
0.33
0.18
0.89
-1.98
0.17
0.05
0.33
-0.58

>  <PUBCHEM_SHAPE_SELFOVERLAP>  (1) 
758.185

>  <PUBCHEM_SHAPE_VOLUME>  (1) 
247.1

>  <PUBCHEM_COORDINATE_TYPE>  (1) 
2
5
10

$$$$
