29767
     RDKit          3D

 21 22  0  0  1  0  0  0  0  0999 V2000
   -3.7345    2.2986   -0.0362 F   0  0  0  0  0  0  0  0  0  0  0  0
   -4.4491    0.9400   -1.5885 F   0  0  0  0  0  0  0  0  0  0  0  0
   -5.4221    0.9734    0.3655 F   0  0  0  0  0  0  0  0  0  0  0  0
    1.6343    0.3822    0.7255 N   0  0  0  0  0  0  0  0  0  0  0  0
    5.8523    0.1228   -0.3109 N   0  0  0  0  0  0  0  0  0  0  0  0
   -0.8996   -0.9647   -0.0711 C   0  0  0  0  0  0  0  0  0  0  0  0
   -1.9180    0.1382   -0.4701 C   0  0  0  0  0  0  0  0  0  0  0  0
   -1.5615   -2.3494   -0.2830 C   0  0  0  0  0  0  0  0  0  0  0  0
    0.3560   -0.8775   -0.9749 C   0  0  0  0  0  0  0  0  0  0  0  0
   -0.4257   -0.8161    1.3970 C   0  0  0  0  0  0  0  0  0  0  0  0
   -3.2820    0.0043    0.2284 C   0  0  0  0  0  0  0  0  0  0  0  0
   -2.9093   -2.4923    0.4208 C   0  0  0  0  0  0  0  0  0  0  0  0
   -3.8773   -1.3900    0.0068 C   0  0  0  0  0  0  0  0  0  0  0  0
    1.2251    0.3490   -0.6829 C   0  0  0  0  0  0  0  0  0  0  0  0
    0.4719    0.4058    1.6205 C   0  0  0  0  0  0  0  0  0  0  0  0
   -4.2463    1.0814   -0.2704 C   0  0  0  0  0  0  0  0  0  0  0  0
    2.5024    1.5314    0.9809 C   0  0  0  0  0  0  0  0  0  0  0  0
    3.7978    1.4196    0.1777 C   0  0  0  0  0  0  0  0  0  0  0  0
    4.6081    0.1482    0.4485 C   0  0  0  0  0  0  0  0  0  0  0  0
    5.5989    0.1117   -1.7765 C   0  0  0  0  0  0  0  0  0  0  0  0
    6.6785   -1.0167    0.0930 C   0  0  0  0  0  0  0  0  0  0  0  0
  1 16  1  0
  2 16  1  0
  3 16  1  0
  4 14  1  0
  4 15  1  0
  4 17  1  0
  5 19  1  0
  5 20  1  0
  5 21  1  0
  6  7  1  0
  6  8  1  0
  6  9  1  0
  6 10  1  0
  7 11  1  0
  8 12  1  0
  9 14  1  0
 10 15  1  0
 11 13  1  0
 11 16  1  0
 12 13  1  0
 17 18  1  0
 18 19  1  0
M  END
>  <PUBCHEM_COMPOUND_CID>  (1) 
29767

>  <PUBCHEM_CONFORMER_RMSD>  (1) 
0.8

>  <PUBCHEM_CONFORMER_DIVERSEORDER>  (1) 
8
57
93
64
82
111
99
15
26
48
85
30
86
104
50
67
32
113
83
38
69
77
29
107
31
73
110
46
76
59
43
112
40
97
37
1
28
103
114
70
24
11
116
72
27
100
35
81
68
102
42
92
12
101
106
118
47
6
55
88
4
98
61
51
109
52
23
60
117
54
71
80
17
10
39
22
16
89
2
34
75
90
49
19
65
95
108
63
96
105
3
62
78
14
25
94
115
13
18
41
56
84
45
91
74
79
58
66
21
87
53
36
33
44
5
9
7
20

>  <PUBCHEM_MMFF94_PARTIAL_CHARGES>  (1) 
12
1 -0.34
14 0.27
15 0.27
16 1.02
17 0.27
19 0.27
2 -0.34
20 0.27
21 0.27
3 -0.34
4 -0.81
5 -0.81

>  <PUBCHEM_EFFECTIVE_ROTOR_COUNT>  (1) 
7

>  <PUBCHEM_PHARMACOPHORE_FEATURES>  (1) 
4
1 4 cation
1 5 cation
6 4 6 9 10 14 15 rings
6 6 7 8 11 12 13 rings

>  <PUBCHEM_HEAVY_ATOM_COUNT>  (1) 
21

>  <PUBCHEM_ATOM_DEF_STEREO_COUNT>  (1) 
0

>  <PUBCHEM_ATOM_UDEF_STEREO_COUNT>  (1) 
1

>  <PUBCHEM_BOND_DEF_STEREO_COUNT>  (1) 
0

>  <PUBCHEM_BOND_UDEF_STEREO_COUNT>  (1) 
0

>  <PUBCHEM_ISOTOPIC_ATOM_COUNT>  (1) 
0

>  <PUBCHEM_COMPONENT_COUNT>  (1) 
1

>  <PUBCHEM_CACTVS_TAUTO_COUNT>  (1) 
1

>  <PUBCHEM_CONFORMER_ID>  (1) 
0000744700000008

>  <PUBCHEM_MMFF94_ENERGY>  (1) 
38.4065

>  <PUBCHEM_FEATURE_SELFOVERLAP>  (1) 
20.299

>  <PUBCHEM_SHAPE_FINGERPRINT>  (1) 
10613725 11 18259704485068348088
10835480 77 18201713007794120528
11128504 68 16660362628090317630
11405975 8 18338513140377298288
11796584 16 18343867736530513254
12236239 1 17312823792188305468
12403259 415 18130226076731879408
124424 183 17775566472273528322
12507560 40 18199463445235876824
12596602 18 15719399433819167453
12616971 3 14692298399073956842
12788726 201 17844808088299865224
13533116 47 15123516874685565206
13675066 3 17917425501560618498
13782708 43 17773598411059158783
14251731 8 18341896299001174638
14251752 14 18334012766602617770
14573314 32 18412827993032020478
14787075 74 7997963575109911260
15042514 8 18047193239821577579
15099037 51 18060137643884886828
15183329 4 18412263917934343440
15531645 54 18272369763534726092
15788980 27 17632577179925637676
17349148 13 15554456227395945504
17834072 8 18272651247032806072
17844677 252 18336834211833602040
19489759 90 17917992763286691000
200 152 15339123433326512608
20621476 91 8574419898822284164
20645477 56 18408606955155818287
20645477 70 17560528412546597972
21065201 7 18265605653657466482
21279426 13 18128824032240201220
21521239 73 17131818876910094733
22079108 93 11746942014418919872
2215653 11 17989491810145244966
22224240 67 14345799348848649169
23175994 123 17489313026513075624
23402539 116 17917708006818095385
23493267 7 18341043094962873787
23536379 177 18260267456428001498
23557571 272 18341055228430009851
23559900 14 18201996677351082152
23590187 130 18408888459907201646
3004659 81 18334014970269312018
3009799 131 16559028273066682944
32948 21 18409167727677001464
3298306 158 18201723951012159630
347723 3 16343985797395876113
3545911 37 18408884036238482393
4214541 1 18410572915831214578
4325135 7 9655573015894121744
44062 13 18270963552508663174
5104073 3 18337948008533050968
532947 4 17988088781516219494
542803 24 17458063785571554326
543368 44 16733556060309739316
5486654 2 8430308057016510240
559249 180 18411697682363082962
56616090 163 18412545401348150691
56616090 46 18411983529030509823
59755656 215 18341896255529269014
59755656 520 18410852162384874767
633830 44 17604142748638185384
8988823 20 15626215815687138602
90127 26 18262240044396568312

>  <PUBCHEM_SHAPE_MULTIPOLES>  (1) 
400.39
13.32
2
1.27
14.95
0.43
0.08
-1.23
2.95
-2.12
-0.11
0.59
-0.11
0.73

>  <PUBCHEM_SHAPE_SELFOVERLAP>  (1) 
803.552

>  <PUBCHEM_SHAPE_VOLUME>  (1) 
237.3

>  <PUBCHEM_COORDINATE_TYPE>  (1) 
2
5
10

$$$$
