29779
     RDKit          3D

 10 10  0  0  0  0  0  0  0  0999 V2000
   -0.9967   -2.0225   -0.3275 O   0  0  0  0  0  0  0  0  0  0  0  0
   -0.7131    0.2607   -0.0127 N   0  0  0  0  0  0  0  0  0  0  0  0
    1.3213    1.6497   -0.3234 C   0  0  0  0  0  0  0  0  0  0  0  0
    2.4787    0.7008   -0.0192 C   0  0  0  0  0  0  0  0  0  0  0  0
    0.0785    1.3731    0.5158 C   0  0  0  0  0  0  0  0  0  0  0  0
    2.1719   -0.7733   -0.2720 C   0  0  0  0  0  0  0  0  0  0  0  0
    1.0703   -1.3280    0.6245 C   0  0  0  0  0  0  0  0  0  0  0  0
   -0.3106   -1.0709    0.0532 C   0  0  0  0  0  0  0  0  0  0  0  0
   -1.9884    0.6050   -0.6273 C   0  0  0  0  0  0  0  0  0  0  0  0
   -3.1119    0.6053    0.3886 C   0  0  0  0  0  0  0  0  0  0  0  0
  1  8  2  0
  2  5  1  0
  2  8  1  0
  2  9  1  0
  3  4  1  0
  3  5  1  0
  4  6  1  0
  6  7  1  0
  7  8  1  0
  9 10  1  0
M  END
>  <PUBCHEM_COMPOUND_CID>  (1) 
29779

>  <PUBCHEM_CONFORMER_RMSD>  (1) 
0.4

>  <PUBCHEM_CONFORMER_DIVERSEORDER>  (1) 
2
1
3
4
5
6
7
8

>  <PUBCHEM_MMFF94_PARTIAL_CHARGES>  (1) 
6
1 -0.57
2 -0.66
5 0.3
7 0.06
8 0.57
9 0.3

>  <PUBCHEM_EFFECTIVE_ROTOR_COUNT>  (1) 
2.2

>  <PUBCHEM_PHARMACOPHORE_FEATURES>  (1) 
2
1 1 acceptor
7 2 3 4 5 6 7 8 rings

>  <PUBCHEM_HEAVY_ATOM_COUNT>  (1) 
10

>  <PUBCHEM_ATOM_DEF_STEREO_COUNT>  (1) 
0

>  <PUBCHEM_ATOM_UDEF_STEREO_COUNT>  (1) 
0

>  <PUBCHEM_BOND_DEF_STEREO_COUNT>  (1) 
0

>  <PUBCHEM_BOND_UDEF_STEREO_COUNT>  (1) 
0

>  <PUBCHEM_ISOTOPIC_ATOM_COUNT>  (1) 
0

>  <PUBCHEM_COMPONENT_COUNT>  (1) 
1

>  <PUBCHEM_CACTVS_TAUTO_COUNT>  (1) 
1

>  <PUBCHEM_CONFORMER_ID>  (1) 
0000745300000002

>  <PUBCHEM_MMFF94_ENERGY>  (1) 
11.6535

>  <PUBCHEM_FEATURE_SELFOVERLAP>  (1) 
10.148

>  <PUBCHEM_SHAPE_FINGERPRINT>  (1) 
14325111 11 18410576188860310949
15310529 11 17022901220639594020
15775835 57 18335145305663925269
16945 1 18408598150008670380
18185500 45 18408879608027064362
21040471 1 18410851100842007344
23235685 24 18411979165602388096
23552423 10 18189894408160409006
241688 4 17403180292196908746
2748010 2 18267024053743011196
5084963 1 17844242921874273578
528862 383 18261387815230979009
528886 8 18411978048631128080
66348 1 18193275183051198920

>  <PUBCHEM_SHAPE_MULTIPOLES>  (1) 
194.94
3.62
1.89
0.75
1.52
0.34
0.02
-0.72
-0.03
-0.34
-0.02
0.06
-0.02
-0.15

>  <PUBCHEM_SHAPE_SELFOVERLAP>  (1) 
375.355

>  <PUBCHEM_SHAPE_VOLUME>  (1) 
118.1

>  <PUBCHEM_COORDINATE_TYPE>  (1) 
2
5
10

$$$$
