29771
     RDKit          3D

 13 12  0  0  0  0  0  0  0  0999 V2000
   -1.7633   -1.3731    0.0515 O   0  0  0  0  0  0  0  0  0  0  0  0
    2.0768    0.5282    0.0281 C   0  0  0  0  0  0  0  0  0  0  0  0
    0.7684   -0.2663    0.0611 C   0  0  0  0  0  0  0  0  0  0  0  0
    3.2904   -0.4035   -0.0283 C   0  0  0  0  0  0  0  0  0  0  0  0
   -0.4628    0.6338    0.0899 C   0  0  0  0  0  0  0  0  0  0  0  0
    4.5982    0.3911   -0.0294 C   0  0  0  0  0  0  0  0  0  0  0  0
   -3.0508    0.6705    0.0135 C   0  0  0  0  0  0  0  0  0  0  0  0
   -1.7668   -0.1419    0.0560 C   0  0  0  0  0  0  0  0  0  0  0  0
    5.8458   -0.4945   -0.0537 C   0  0  0  0  0  0  0  0  0  0  0  0
   -4.2959   -0.2123   -0.0443 C   0  0  0  0  0  0  0  0  0  0  0  0
   -5.5729    0.6268   -0.0481 C   0  0  0  0  0  0  0  0  0  0  0  0
    7.1483    0.2904   -0.0292 C   0  0  0  0  0  0  0  0  0  0  0  0
   -6.8154   -0.2494   -0.0674 C   0  0  0  0  0  0  0  0  0  0  0  0
  1  8  2  0
  2  3  1  0
  2  4  1  0
  3  5  1  0
  4  6  1  0
  5  8  1  0
  6  9  1  0
  7  8  1  0
  7 10  1  0
  9 12  1  0
 10 11  1  0
 11 13  1  0
M  END
>  <PUBCHEM_COMPOUND_CID>  (1) 
29771

>  <PUBCHEM_CONFORMER_RMSD>  (1) 
1

>  <PUBCHEM_CONFORMER_DIVERSEORDER>  (1) 
1
29
136
95
15
182
172
13
104
25
61
155
134
68
96
137
72
122
39
73
28
184
116
145
117
82
105
91
19
75
4
50
140
42
165
43
169
69
5
60
23
126
129
180
22
147
173
80
131
27
6
175
24
133
35
20
7
31
125
146
113
65
176
171
157
76
16
177
37
32
12
63
99
64
57
109
48
110
98
88
56
102
77
92
128
107
100
47
101
119
83
150
66
8
10
138
2
49
183
30
118
40
124
11
127
115
153
33
93
178
164
18
141
85
168
3
62
87
167
111
112
174
161
59
170
144
89
149
38
162
52
158
46
44
114
45
67
21
17
84
132
36
78
41
179
94
121
160
54
74
14
163
55
135
120
108
34
152
151
106
154
58
139
103
71
53
159
26
166
81
9
156
70
79
123
51
142
90
148
181
130
97
143
86

>  <PUBCHEM_MMFF94_PARTIAL_CHARGES>  (1) 
4
1 -0.57
5 0.06
7 0.06
8 0.45

>  <PUBCHEM_EFFECTIVE_ROTOR_COUNT>  (1) 
9

>  <PUBCHEM_PHARMACOPHORE_FEATURES>  (1) 
5
1 1 acceptor
1 12 hydrophobe
1 13 hydrophobe
3 2 3 5 hydrophobe
3 4 6 9 hydrophobe

>  <PUBCHEM_HEAVY_ATOM_COUNT>  (1) 
13

>  <PUBCHEM_ATOM_DEF_STEREO_COUNT>  (1) 
0

>  <PUBCHEM_ATOM_UDEF_STEREO_COUNT>  (1) 
0

>  <PUBCHEM_BOND_DEF_STEREO_COUNT>  (1) 
0

>  <PUBCHEM_BOND_UDEF_STEREO_COUNT>  (1) 
0

>  <PUBCHEM_ISOTOPIC_ATOM_COUNT>  (1) 
0

>  <PUBCHEM_COMPONENT_COUNT>  (1) 
1

>  <PUBCHEM_CACTVS_TAUTO_COUNT>  (1) 
3

>  <PUBCHEM_CONFORMER_ID>  (1) 
0000744B00000001

>  <PUBCHEM_MMFF94_ENERGY>  (1) 
-1.8025

>  <PUBCHEM_FEATURE_SELFOVERLAP>  (1) 
25.385

>  <PUBCHEM_SHAPE_FINGERPRINT>  (1) 
10968037 39 18410575093253020021
12091667 2 18410293610577898817
12815109 37 18342739615724203732
13533116 47 13542191541661196108
14123238 8 18113617876179305705
14251718 22 18413388726370853609
14251764 18 18341894086565490106
14251764 46 18410573985151451141
17834072 8 18409729568811266756
17834076 25 18273214196680207316
18006028 8 17846778507367929728
187816 3 17489870436407077803
20281389 69 18113615681831254508
20645477 70 18059017164475166350
20767249 213 18408886243593268156
22224240 67 16343978114121467854
23402539 116 18202558484663691957
23521765 1 18341894090834070564
23559900 14 18130217263406273064
33684 2 18410572877049895274
3545911 37 18410292510433320266
366044 4 18410292510850344083
42788 4 18411136935337123937
4463277 17 18335138691715132036
57583515 80 11600005457704001519
59755656 520 16588021342303212963
8209 1 18410012135200294044

>  <PUBCHEM_SHAPE_MULTIPOLES>  (1) 
261.66
18.93
0.9
0.61
5.76
0.08
0
-0.32
0.7
-0.22
-0.01
0.01
-0.01
0.01

>  <PUBCHEM_SHAPE_SELFOVERLAP>  (1) 
470.877

>  <PUBCHEM_SHAPE_VOLUME>  (1) 
169

>  <PUBCHEM_COORDINATE_TYPE>  (1) 
2
5
10

$$$$
