29788
     RDKit          3D

 14 14  0  0  0  0  0  0  0  0999 V2000
   -4.2208   -1.4876   -0.2785 O   0  0  0  0  0  0  0  0  0  0  0  0
    4.1775   -1.5429   -0.3227 O   0  0  0  0  0  0  0  0  0  0  0  0
   -2.4490   -1.3452    1.1337 O   0  0  0  0  0  0  0  0  0  0  0  0
    2.4958   -1.2733    1.1784 O   0  0  0  0  0  0  0  0  0  0  0  0
   -1.2084    0.6707   -0.4339 C   0  0  0  0  0  0  0  0  0  0  0  0
    1.2076    0.6763   -0.4342 C   0  0  0  0  0  0  0  0  0  0  0  0
    0.0009    0.0994   -0.8300 C   0  0  0  0  0  0  0  0  0  0  0  0
   -2.4989    0.0551   -0.8579 C   0  0  0  0  0  0  0  0  0  0  0  0
    2.5005    0.0645   -0.8564 C   0  0  0  0  0  0  0  0  0  0  0  0
   -1.2110    1.8190    0.3580 C   0  0  0  0  0  0  0  0  0  0  0  0
    1.2050    1.8244    0.3578 C   0  0  0  0  0  0  0  0  0  0  0  0
   -0.0043    2.3958    0.7539 C   0  0  0  0  0  0  0  0  0  0  0  0
   -3.0207   -0.9847    0.1141 C   0  0  0  0  0  0  0  0  0  0  0  0
    3.0257   -0.9715    0.1179 C   0  0  0  0  0  0  0  0  0  0  0  0
  1 13  1  0
  2 14  1  0
  3 13  2  0
  4 14  2  0
  5  7  2  0
  5  8  1  0
  5 10  1  0
  6  7  1  0
  6  9  1  0
  6 11  2  0
  8 13  1  0
  9 14  1  0
 10 12  2  0
 11 12  1  0
M  END
>  <PUBCHEM_COMPOUND_CID>  (1) 
29788

>  <PUBCHEM_CONFORMER_RMSD>  (1) 
0.6

>  <PUBCHEM_CONFORMER_DIVERSEORDER>  (1) 
1
24
33
5
7
15
37
2
35
9
6
31
3
17
20
22
29
19
21
8
14
32
18
16
27
4
28
13
11
34
12
10
30
25
26
23
36

>  <PUBCHEM_MMFF94_PARTIAL_CHARGES>  (1) 
20
1 -0.65
10 -0.15
11 -0.15
12 -0.15
13 0.66
14 0.66
15 0.15
2 -0.65
20 0.15
21 0.15
22 0.15
23 0.5
24 0.5
3 -0.57
4 -0.57
5 -0.14
6 -0.14
7 -0.15
8 0.2
9 0.2

>  <PUBCHEM_EFFECTIVE_ROTOR_COUNT>  (1) 
4

>  <PUBCHEM_PHARMACOPHORE_FEATURES>  (1) 
7
1 1 acceptor
1 2 acceptor
1 3 acceptor
1 4 acceptor
3 1 3 13 anion
3 2 4 14 anion
6 5 6 7 10 11 12 rings

>  <PUBCHEM_HEAVY_ATOM_COUNT>  (1) 
14

>  <PUBCHEM_ATOM_DEF_STEREO_COUNT>  (1) 
0

>  <PUBCHEM_ATOM_UDEF_STEREO_COUNT>  (1) 
0

>  <PUBCHEM_BOND_DEF_STEREO_COUNT>  (1) 
0

>  <PUBCHEM_BOND_UDEF_STEREO_COUNT>  (1) 
0

>  <PUBCHEM_ISOTOPIC_ATOM_COUNT>  (1) 
0

>  <PUBCHEM_COMPONENT_COUNT>  (1) 
1

>  <PUBCHEM_CACTVS_TAUTO_COUNT>  (1) 
1

>  <PUBCHEM_CONFORMER_ID>  (1) 
0000745C00000001

>  <PUBCHEM_MMFF94_ENERGY>  (1) 
24.5011

>  <PUBCHEM_FEATURE_SELFOVERLAP>  (1) 
35.639

>  <PUBCHEM_SHAPE_FINGERPRINT>  (1) 
10130415 120 18412829083917004485
11769659 78 18260827089965134940
12202030 40 18042112323236576575
12824470 246 18114176385236912898
14252887 29 18060145370494122782
14350558 41 18040999569897579446
15375462 189 18334022674337880451
16945 1 18055361227560860804
17841504 4 18342175621935779329
19766037 51 18335148612783455354
20645477 70 18267578182060668095
20671657 53 17821446846280327966
20871998 184 17845087381406854340
20871998 22 18343581867079390392
21061003 4 18060135427291378493
21296965 67 18413668019578154397
23500284 5 18338235951245134042
23559900 14 18196078959846686394
2748010 2 18201707453615539804
3071541 236 17908983205863464889
3312278 4 18265050241387272044
5493415 88 18412539916258175877
5902787 121 18411696599408318844
76465 3 18270673281560171879
81228 2 17914058590176179857

>  <PUBCHEM_SHAPE_MULTIPOLES>  (1) 
264.64
6.08
2.2
1.01
0.07
0.88
-0.07
-5.28
0.07
-0.01
-0.64
-0.02
-0.1
0.02

>  <PUBCHEM_SHAPE_SELFOVERLAP>  (1) 
548.634

>  <PUBCHEM_SHAPE_VOLUME>  (1) 
150.2

>  <PUBCHEM_COORDINATE_TYPE>  (1) 
2
5
10

$$$$
