29802
     RDKit          3D

 22 24  0  0  0  0  0  0  0  0999 V2000
   -3.1793   -1.8092   -0.1528 N   0  0  0  0  0  0  0  0  0  0  0  0
    1.1229   -0.2139    0.2044 N   0  0  0  0  0  0  0  0  0  0  0  0
    1.3422   -2.0598   -1.0140 N   0  0  0  0  0  0  0  0  0  0  0  0
   -0.1316    4.5212   -0.2280 N   0  0  0  0  0  0  0  0  0  0  0  0
   -3.7195   -0.4509   -0.1023 C   0  0  0  0  0  0  0  0  0  0  0  0
   -3.9851   -2.5739    0.7986 C   0  0  0  0  0  0  0  0  0  0  0  0
   -5.2228   -0.6836   -0.0689 C   0  0  0  0  0  0  0  0  0  0  0  0
   -5.3975   -2.0774    0.5264 C   0  0  0  0  0  0  0  0  0  0  0  0
   -1.7587   -1.8541    0.1599 C   0  0  0  0  0  0  0  0  0  0  0  0
   -0.9424   -1.0849   -0.8806 C   0  0  0  0  0  0  0  0  0  0  0  0
    0.5341   -1.1459   -0.5761 C   0  0  0  0  0  0  0  0  0  0  0  0
    0.4958    0.9237    0.8389 C   0  0  0  0  0  0  0  0  0  0  0  0
    2.4496   -0.5505    0.2858 C   0  0  0  0  0  0  0  0  0  0  0  0
    0.5163    2.1642   -0.0538 C   0  0  0  0  0  0  0  0  0  0  0  0
    2.5612   -1.7059   -0.4829 C   0  0  0  0  0  0  0  0  0  0  0  0
   -0.1408    3.3529    0.6443 C   0  0  0  0  0  0  0  0  0  0  0  0
    3.5289    0.0384    0.9454 C   0  0  0  0  0  0  0  0  0  0  0  0
    3.8165   -2.3240   -0.6119 C   0  0  0  0  0  0  0  0  0  0  0  0
    4.7709   -0.5899    0.8060 C   0  0  0  0  0  0  0  0  0  0  0  0
    4.9142   -1.7502    0.0418 C   0  0  0  0  0  0  0  0  0  0  0  0
   -0.7899    5.6555    0.4226 C   0  0  0  0  0  0  0  0  0  0  0  0
   -0.7849    4.2181   -1.5027 C   0  0  0  0  0  0  0  0  0  0  0  0
  1  5  1  0
  1  6  1  0
  1  9  1  0
  2 11  1  0
  2 12  1  0
  2 13  1  0
  3 11  2  0
  3 15  1  0
  4 16  1  0
  4 21  1  0
  4 22  1  0
  5  7  1  0
  6  8  1  0
  7  8  1  0
  9 10  1  0
 10 11  1  0
 12 14  1  0
 13 15  2  0
 13 17  1  0
 14 16  1  0
 15 18  1  0
 17 19  2  0
 18 20  2  0
 19 20  1  0
M  END
>  <PUBCHEM_COMPOUND_CID>  (1) 
29802

>  <PUBCHEM_CONFORMER_RMSD>  (1) 
0.8

>  <PUBCHEM_CONFORMER_DIVERSEORDER>  (1) 
1
115
86
104
48
79
88
54
21
78
87
5
109
108
91
97
95
75
110
59
24
61
47
112
35
103
96
100
106
15
70
56
76
82
3
44
114
111
30
36
18
27
58
53
74
40
7
43
9
107
62
77
4
45
14
12
84
71
93
42
65
57
46
60
22
33
23
17
94
34
51
99
6
10
67
98
113
16
69
31
20
89
32
81
11
66
92
2
64
41
29
52
83
13
63
37
50
80
28
49
68
38
19
8
73
105
101
72
90
39
102
85
26
25
55

>  <PUBCHEM_MMFF94_PARTIAL_CHARGES>  (1) 
23
1 -0.81
10 0.18
11 0.01
12 0.26
13 -0.15
15 0.23
16 0.27
17 -0.15
18 -0.15
19 -0.15
2 0.05
20 -0.15
21 0.27
22 0.27
3 -0.57
4 -0.81
41 0.15
42 0.15
43 0.15
44 0.15
5 0.27
6 0.27
9 0.27

>  <PUBCHEM_EFFECTIVE_ROTOR_COUNT>  (1) 
8

>  <PUBCHEM_PHARMACOPHORE_FEATURES>  (1) 
6
1 1 cation
1 4 cation
3 2 3 11 cation
5 1 5 6 7 8 rings
5 2 3 11 13 15 rings
6 13 15 17 18 19 20 rings

>  <PUBCHEM_HEAVY_ATOM_COUNT>  (1) 
22

>  <PUBCHEM_ATOM_DEF_STEREO_COUNT>  (1) 
0

>  <PUBCHEM_ATOM_UDEF_STEREO_COUNT>  (1) 
0

>  <PUBCHEM_BOND_DEF_STEREO_COUNT>  (1) 
0

>  <PUBCHEM_BOND_UDEF_STEREO_COUNT>  (1) 
0

>  <PUBCHEM_ISOTOPIC_ATOM_COUNT>  (1) 
0

>  <PUBCHEM_COMPONENT_COUNT>  (1) 
1

>  <PUBCHEM_CACTVS_TAUTO_COUNT>  (1) 
2

>  <PUBCHEM_CONFORMER_ID>  (1) 
0000746A00000001

>  <PUBCHEM_MMFF94_ENERGY>  (1) 
34.5746

>  <PUBCHEM_FEATURE_SELFOVERLAP>  (1) 
30.558

>  <PUBCHEM_SHAPE_FINGERPRINT>  (1) 
10050765 1 18122908621698811238
10688039 33 18410012113340426674
10937287 8 16969702772412130373
12166972 35 18130224977811322763
12516196 113 18410011060994870066
12788726 201 18261389997380580746
13052359 8 17833546795634402120
13134695 92 18338232781675450671
13540713 4 17843397376971098878
138480 1 14952093820079020569
13955234 65 17977112584674276003
14363568 33 18193559101796301037
14790565 3 17546444935152139408
14955137 171 18122347041285413368
15664445 248 18126022674403137596
15885798 251 18411136930984478834
18785283 64 17976822308966534707
20600515 1 18272664458109862319
20739085 24 18269271447004789992
21033648 29 17703495645753215507
21041028 32 18410571799039718421
21049683 271 18044386147326369804
21285901 2 18059584533585886542
21641784 216 18336846216383376108
22182313 1 17702093670091796374
23366157 5 17902225951217745615
23558518 356 17974296426057877026
23559900 14 18265046015725612987
23845131 108 17400640424727243485
4409770 3 18118676617910688173
6086070 43 18117532164330987999
6442390 28 17545890321418756300
68521 5 18339082584094541118
7164475 11 18336835174096024806
79837 15 17691118241253076760
9777508 108 17980478958186404880

>  <PUBCHEM_SHAPE_MULTIPOLES>  (1) 
432.83
9.57
6.18
1.02
4.01
14.51
0.12
-11.68
-1.84
3.06
0.52
-0.15
0.28
1.11

>  <PUBCHEM_SHAPE_SELFOVERLAP>  (1) 
902.436

>  <PUBCHEM_SHAPE_VOLUME>  (1) 
247.8

>  <PUBCHEM_COORDINATE_TYPE>  (1) 
2
5
10

$$$$
