29800
     RDKit          3D

 25 27  0  0  0  0  0  0  0  0999 V2000
   -6.0591    0.8458   -0.3387 O   0  0  0  0  0  0  0  0  0  0  0  0
   -5.5251   -1.2268   -0.8270 O   0  0  0  0  0  0  0  0  0  0  0  0
    0.1182    0.7084    0.7193 N   0  0  0  0  0  0  0  0  0  0  0  0
   -0.4508   -1.3316    0.0450 N   0  0  0  0  0  0  0  0  0  0  0  0
    2.9113    4.5314   -0.6083 N   0  0  0  0  0  0  0  0  0  0  0  0
   -5.2123   -0.0733   -0.4466 N   0  0  0  0  0  0  0  0  0  0  0  0
    0.9466    1.8031    1.1719 C   0  0  0  0  0  0  0  0  0  0  0  0
    1.5148    2.6142    0.0078 C   0  0  0  0  0  0  0  0  0  0  0  0
    0.5392   -0.5614    0.4373 C   0  0  0  0  0  0  0  0  0  0  0  0
   -1.2336    0.7610    0.4943 C   0  0  0  0  0  0  0  0  0  0  0  0
    2.3947    3.7557    0.5128 C   0  0  0  0  0  0  0  0  0  0  0  0
   -1.5647   -0.5243    0.0742 C   0  0  0  0  0  0  0  0  0  0  0  0
    1.9528   -0.9690    0.5722 C   0  0  0  0  0  0  0  0  0  0  0  0
   -2.1666    1.7910    0.6183 C   0  0  0  0  0  0  0  0  0  0  0  0
   -2.9012   -0.8173   -0.2455 C   0  0  0  0  0  0  0  0  0  0  0  0
    2.2129   -2.4244    0.2076 C   0  0  0  0  0  0  0  0  0  0  0  0
   -3.8550    0.2014   -0.1282 C   0  0  0  0  0  0  0  0  0  0  0  0
   -3.4922    1.4817    0.2963 C   0  0  0  0  0  0  0  0  0  0  0  0
    3.7577    3.6999   -1.5052 C   0  0  0  0  0  0  0  0  0  0  0  0
    3.6424    5.7057   -0.1280 C   0  0  0  0  0  0  0  0  0  0  0  0
    2.5293   -2.7377   -1.0981 C   0  0  0  0  0  0  0  0  0  0  0  0
    2.1246   -3.3845    1.1942 C   0  0  0  0  0  0  0  0  0  0  0  0
    2.7679   -4.0707   -1.4322 C   0  0  0  0  0  0  0  0  0  0  0  0
    2.3633   -4.7176    0.8601 C   0  0  0  0  0  0  0  0  0  0  0  0
    2.6849   -5.0606   -0.4532 C   0  0  0  0  0  0  0  0  0  0  0  0
  1  6  1  0
  2  6  2  0
  3  7  1  0
  3  9  1  0
  3 10  1  0
  4  9  2  0
  4 12  1  0
  5 11  1  0
  5 19  1  0
  5 20  1  0
  6 17  1  0
  7  8  1  0
  8 11  1  0
  9 13  1  0
 10 12  2  0
 10 14  1  0
 12 15  1  0
 13 16  1  0
 14 18  2  0
 15 17  2  0
 16 21  2  0
 16 22  1  0
 17 18  1  0
 21 23  1  0
 22 24  2  0
 23 25  2  0
 24 25  1  0
M  CHG  2   1  -1   6   1
M  END
>  <PUBCHEM_COMPOUND_CID>  (1) 
29800

>  <PUBCHEM_CONFORMER_RMSD>  (1) 
0.8

>  <PUBCHEM_CONFORMER_DIVERSEORDER>  (1) 
1
22
37
33
30
44
42
36
40
47
23
38
39
17
34
5
3
41
28
45
7
16
4
35
24
14
6
29
10
2
9
8
11
31
26
25
43
46
12
27
21
15
32
13
20
18
19

>  <PUBCHEM_MMFF94_PARTIAL_CHARGES>  (1) 
32
1 -0.52
10 -0.15
11 0.27
12 0.23
13 0.32
14 -0.15
15 -0.15
16 -0.14
17 0.13
18 -0.15
19 0.27
2 -0.52
20 0.27
21 -0.15
22 -0.15
23 -0.15
24 -0.15
25 -0.15
3 0.05
34 0.15
35 0.15
36 0.15
4 -0.57
43 0.15
44 0.15
45 0.15
46 0.15
47 0.15
5 -0.81
6 0.91
7 0.26
9 0.01

>  <PUBCHEM_EFFECTIVE_ROTOR_COUNT>  (1) 
7

>  <PUBCHEM_PHARMACOPHORE_FEATURES>  (1) 
8
1 1 acceptor
1 1 anion
1 2 acceptor
1 5 cation
3 3 4 9 cation
5 3 4 9 10 12 rings
6 10 12 14 15 17 18 rings
6 16 21 22 23 24 25 rings

>  <PUBCHEM_HEAVY_ATOM_COUNT>  (1) 
25

>  <PUBCHEM_ATOM_DEF_STEREO_COUNT>  (1) 
0

>  <PUBCHEM_ATOM_UDEF_STEREO_COUNT>  (1) 
0

>  <PUBCHEM_BOND_DEF_STEREO_COUNT>  (1) 
0

>  <PUBCHEM_BOND_UDEF_STEREO_COUNT>  (1) 
0

>  <PUBCHEM_ISOTOPIC_ATOM_COUNT>  (1) 
0

>  <PUBCHEM_COMPONENT_COUNT>  (1) 
1

>  <PUBCHEM_CACTVS_TAUTO_COUNT>  (1) 
1

>  <PUBCHEM_CONFORMER_ID>  (1) 
0000746800000001

>  <PUBCHEM_MMFF94_ENERGY>  (1) 
57.4537

>  <PUBCHEM_FEATURE_SELFOVERLAP>  (1) 
40.784

>  <PUBCHEM_SHAPE_FINGERPRINT>  (1) 
10254770 206 18336256917765474768
10554248 39 18268127835539302317
10721379 63 18341062838716809317
10794284 68 11662126915253756679
107951 10 17909556395097613132
10815517 723 16828702504888621995
11045515 52 17975420105239579388
11763715 3 17761801488769209246
11833330 49 17688308989138736248
11991303 11 17685213172559451596
12788726 201 17108194503566220171
13540713 5 18059581252948335953
138480 1 18338516314083907728
13955234 65 18410016546110673385
14508225 48 17907851812740455956
14790565 3 18050565441444993361
15042514 8 16896528083044321618
15664445 248 18339929221333614118
15961568 22 18266455400759180482
16752209 62 17041191343196589986
17539 30 17402605247636596300
1813 80 18126284138662926919
19301676 85 18268170789622917036
21304303 282 17691958680521630110
22849339 104 17545623591507943500
22907989 373 17398677796581647718
23366157 5 18409728443804246009
23559900 14 18340758274370163147
3057174 1 18265895954744530140
3103668 31 17040066014457516511
38695281 34 18120652689282185184
4409770 3 16968011138969875593
6058803 2 18202282486213603185
6700243 42 17051357492442825102
7164475 11 17616538359199255950
77188 2 18194117408984442600
9981440 41 18119808272841800721

>  <PUBCHEM_SHAPE_MULTIPOLES>  (1) 
482.83
8.99
8.5
1.12
9.76
18.38
0.13
-13.69
2.19
-10.15
2.02
-0.85
-0.04
-1.28

>  <PUBCHEM_SHAPE_SELFOVERLAP>  (1) 
1033.376

>  <PUBCHEM_SHAPE_VOLUME>  (1) 
270.5

>  <PUBCHEM_COORDINATE_TYPE>  (1) 
2
5
10

$$$$
