2980
     RDKit          3D

 12 11  0  0  1  0  0  0  0  0999 V2000
   -1.8389   -0.2937   -0.1870 N   0  0  0  0  0  0  0  0  0  0  0  0
    1.8415    0.2903   -0.1889 N   0  0  0  0  0  0  0  0  0  0  0  0
   -5.4271    0.7867   -0.2189 N   0  0  0  0  0  0  0  0  0  0  0  0
    5.4274   -0.7841   -0.2163 N   0  0  0  0  0  0  0  0  0  0  0  0
   -0.5995    0.4693   -0.1784 C   0  0  0  0  0  0  0  0  0  0  0  0
    0.5993   -0.4746   -0.1795 C   0  0  0  0  0  0  0  0  0  0  0  0
   -2.9962    0.5964   -0.1806 C   0  0  0  0  0  0  0  0  0  0  0  0
    2.9963   -0.5960   -0.1800 C   0  0  0  0  0  0  0  0  0  0  0  0
   -4.3230   -0.1770   -0.2140 C   0  0  0  0  0  0  0  0  0  0  0  0
    4.3225    0.1785   -0.2141 C   0  0  0  0  0  0  0  0  0  0  0  0
   -4.5001   -1.1150    0.9799 C   0  0  0  0  0  0  0  0  0  0  0  0
    4.4978    1.1192    0.9779 C   0  0  0  0  0  0  0  0  0  0  0  0
  1  5  1  0
  1  7  1  0
  2  6  1  0
  2  8  1  0
  3  9  1  0
  4 10  1  0
  5  6  1  0
  7  9  1  0
  8 10  1  0
  9 11  1  0
 10 12  1  0
M  END
>  <PUBCHEM_COMPOUND_CID>  (1) 
2980

>  <PUBCHEM_CONFORMER_RMSD>  (1) 
0.8

>  <PUBCHEM_CONFORMER_DIVERSEORDER>  (1) 
1
101
55
31
114
12
36
79
63
103
15
77
49
70
6
78
94
73
28
99
98
4
104
105
69
109
2
10
19
118
32
116
35
83
76
85
45
84
18
65
11
66
38
110
54
39
25
21
82
86
61
13
102
95
5
72
52
47
80
113
34
27
111
106
7
68
108
71
8
51
22
92
74
91
3
48
50
23
57
37
96
59
93
42
87
56
9
40
16
81
115
44
41
43
88
67
33
20
100
62
26
30
75
60
97
90
89
107
112
17
64
14
29
24
117
53
46
58

>  <PUBCHEM_MMFF94_PARTIAL_CHARGES>  (1) 
16
1 -0.9
10 0.27
2 -0.9
23 0.36
24 0.36
3 -0.99
31 0.36
32 0.36
33 0.36
34 0.36
4 -0.99
5 0.27
6 0.27
7 0.27
8 0.27
9 0.27

>  <PUBCHEM_EFFECTIVE_ROTOR_COUNT>  (1) 
7

>  <PUBCHEM_PHARMACOPHORE_FEATURES>  (1) 
8
1 1 cation
1 1 donor
1 2 cation
1 2 donor
1 3 cation
1 3 donor
1 4 cation
1 4 donor

>  <PUBCHEM_HEAVY_ATOM_COUNT>  (1) 
12

>  <PUBCHEM_ATOM_DEF_STEREO_COUNT>  (1) 
0

>  <PUBCHEM_ATOM_UDEF_STEREO_COUNT>  (1) 
2

>  <PUBCHEM_BOND_DEF_STEREO_COUNT>  (1) 
0

>  <PUBCHEM_BOND_UDEF_STEREO_COUNT>  (1) 
0

>  <PUBCHEM_ISOTOPIC_ATOM_COUNT>  (1) 
0

>  <PUBCHEM_COMPONENT_COUNT>  (1) 
1

>  <PUBCHEM_CACTVS_TAUTO_COUNT>  (1) 
1

>  <PUBCHEM_CONFORMER_ID>  (1) 
00000BA400000001

>  <PUBCHEM_MMFF94_ENERGY>  (1) 
-12.2569

>  <PUBCHEM_FEATURE_SELFOVERLAP>  (1) 
40.6

>  <PUBCHEM_SHAPE_FINGERPRINT>  (1) 
11287383 113 18410856598494974952
13237642 15 18410575119022817643
14123238 8 18410575097547980895
1420 363 18409454686630662378
17834072 33 16558741360466216037
17834076 25 16443348662971126653
20645477 70 17774726346954255086
20719005 15 18411700980602008462
20828058 44 18040718082384217243
220451 1 15719395022776367722
22485316 2 18113616776984338555
23402539 116 15574709205820520247
23557571 272 18114747014470644677
42788 4 18272651242505704293
449060 50 17989208161282053614
522135 26 17060338522651110700
57483677 66 17894629244955943722

>  <PUBCHEM_SHAPE_MULTIPOLES>  (1) 
227.03
13.85
1.02
0.79
0.01
0
-0.17
0.01
-1.39
0
-0.15
0
0
1.02

>  <PUBCHEM_SHAPE_SELFOVERLAP>  (1) 
405.94

>  <PUBCHEM_SHAPE_VOLUME>  (1) 
145.1

>  <PUBCHEM_COORDINATE_TYPE>  (1) 
2
5
10

$$$$
