29804
     RDKit          3D

 22 24  0  0  0  0  0  0  0  0999 V2000
    0.7072    0.6816    0.5826 N   0  0  0  0  0  0  0  0  0  0  0  0
   -1.3131    1.2481   -0.1508 N   0  0  0  0  0  0  0  0  0  0  0  0
    4.4470   -2.3386   -0.4535 N   0  0  0  0  0  0  0  0  0  0  0  0
    1.7747   -0.1332    1.1177 C   0  0  0  0  0  0  0  0  0  0  0  0
    2.5716   -0.8329    0.0170 C   0  0  0  0  0  0  0  0  0  0  0  0
   -0.5748    0.2758    0.3360 C   0  0  0  0  0  0  0  0  0  0  0  0
    0.8026    2.0039    0.2318 C   0  0  0  0  0  0  0  0  0  0  0  0
    3.6841   -1.6953    0.6094 C   0  0  0  0  0  0  0  0  0  0  0  0
   -0.4711    2.3340   -0.2229 C   0  0  0  0  0  0  0  0  0  0  0  0
   -1.0265   -1.1057    0.6013 C   0  0  0  0  0  0  0  0  0  0  0  0
    1.8613    2.9119    0.2721 C   0  0  0  0  0  0  0  0  0  0  0  0
   -2.4890   -1.3536    0.2566 C   0  0  0  0  0  0  0  0  0  0  0  0
   -0.7215    3.6431   -0.6678 C   0  0  0  0  0  0  0  0  0  0  0  0
    1.5943    4.2103   -0.1742 C   0  0  0  0  0  0  0  0  0  0  0  0
    0.3266    4.5714   -0.6364 C   0  0  0  0  0  0  0  0  0  0  0  0
    3.5866   -3.2201   -1.2447 C   0  0  0  0  0  0  0  0  0  0  0  0
    5.5716   -3.0929    0.1029 C   0  0  0  0  0  0  0  0  0  0  0  0
   -2.8103   -1.7815   -1.0150 C   0  0  0  0  0  0  0  0  0  0  0  0
   -3.4472   -1.1432    1.2265 C   0  0  0  0  0  0  0  0  0  0  0  0
   -4.1497   -2.0088   -1.3309 C   0  0  0  0  0  0  0  0  0  0  0  0
   -4.7866   -1.3708    0.9105 C   0  0  0  0  0  0  0  0  0  0  0  0
   -5.1378   -1.8035   -0.3682 C   0  0  0  0  0  0  0  0  0  0  0  0
  1  4  1  0
  1  6  1  0
  1  7  1  0
  2  6  2  0
  2  9  1  0
  3  8  1  0
  3 16  1  0
  3 17  1  0
  4  5  1  0
  5  8  1  0
  6 10  1  0
  7  9  2  0
  7 11  1  0
  9 13  1  0
 10 12  1  0
 11 14  2  0
 12 18  2  0
 12 19  1  0
 13 15  2  0
 14 15  1  0
 18 20  1  0
 19 21  2  0
 20 22  2  0
 21 22  1  0
M  END
>  <PUBCHEM_COMPOUND_CID>  (1) 
29804

>  <PUBCHEM_CONFORMER_RMSD>  (1) 
0.8

>  <PUBCHEM_CONFORMER_DIVERSEORDER>  (1) 
1
50
45
42
35
39
48
8
9
2
52
19
4
17
31
23
22
53
10
41
51
56
38
44
30
34
49
3
11
37
43
54
40
46
25
32
12
5
26
47
7
36
13
24
55
28
27
6
33
18
15
16
14
29
21
20

>  <PUBCHEM_MMFF94_PARTIAL_CHARGES>  (1) 
30
1 0.05
10 0.32
11 -0.15
12 -0.14
13 -0.15
14 -0.15
15 -0.15
16 0.27
17 0.27
18 -0.15
19 -0.15
2 -0.57
20 -0.15
21 -0.15
22 -0.15
3 -0.81
31 0.15
32 0.15
33 0.15
34 0.15
4 0.26
41 0.15
42 0.15
43 0.15
44 0.15
45 0.15
6 0.01
7 -0.15
8 0.27
9 0.23

>  <PUBCHEM_EFFECTIVE_ROTOR_COUNT>  (1) 
6

>  <PUBCHEM_PHARMACOPHORE_FEATURES>  (1) 
5
1 3 cation
3 1 2 6 cation
5 1 2 6 7 9 rings
6 12 18 19 20 21 22 rings
6 7 9 11 13 14 15 rings

>  <PUBCHEM_HEAVY_ATOM_COUNT>  (1) 
22

>  <PUBCHEM_ATOM_DEF_STEREO_COUNT>  (1) 
0

>  <PUBCHEM_ATOM_UDEF_STEREO_COUNT>  (1) 
0

>  <PUBCHEM_BOND_DEF_STEREO_COUNT>  (1) 
0

>  <PUBCHEM_BOND_UDEF_STEREO_COUNT>  (1) 
0

>  <PUBCHEM_ISOTOPIC_ATOM_COUNT>  (1) 
0

>  <PUBCHEM_COMPONENT_COUNT>  (1) 
1

>  <PUBCHEM_CACTVS_TAUTO_COUNT>  (1) 
1

>  <PUBCHEM_CONFORMER_ID>  (1) 
0000746C00000001

>  <PUBCHEM_MMFF94_ENERGY>  (1) 
45.4141

>  <PUBCHEM_FEATURE_SELFOVERLAP>  (1) 
25.479

>  <PUBCHEM_SHAPE_FINGERPRINT>  (1) 
10254770 206 15740218304292927450
10411042 1 18409449163424344514
11809386 21 18046345220024911530
12107183 9 18342469110605729091
12553582 1 18410294726647494826
12788726 201 17900255312711015435
13009979 54 18059587913935976259
13533116 47 18127408080766614547
13690498 29 17982752783273425246
13757389 114 17908441155637741452
138480 1 14519180886149525410
13899415 180 18338504287991167998
14508225 48 18338227185232700740
14556957 393 18044403589984975566
15042514 8 18121786027808309264
15081414 286 18336827605714757249
15842332 3 17772202053146137939
16087824 20 18048878490778783141
17492 89 18195527211137221019
17539 30 18193832639820596020
17818456 19 17845952761888612185
1813 80 18342187651896712334
20101258 96 18337118847800494480
204376 136 9871747996662396203
20645477 70 18119235406083049459
21478907 32 18337952277392938770
2255824 54 18123753316071743859
22849339 104 17621334437583058894
22849341 161 18266199300016342089
23175994 123 18334013904489844091
23559900 14 18121494914935477633
24771750 20 17465960653901906532
3057174 1 17542794556436465212
3091708 16 9426844884305978080
3421961 26 18339924921406810266
38695281 34 17689997156057196676
44062 13 17835525917008459078
4409770 3 17903074434870931773
474 4 17687180207562344241
57262259 84 18267304231486630670
59025328 239 17769332249965856175
5969126 39 18338511938045262266
7164475 11 18264498282735612070
77188 2 18409731763777354116
8272917 22 18048875488089351101
9841814 1 18042106795307718658

>  <PUBCHEM_SHAPE_MULTIPOLES>  (1) 
437.81
9.32
6.04
1.1
2.09
6.78
0.07
-14.81
0.51
-6.43
1.92
0.51
-0.51
0.31

>  <PUBCHEM_SHAPE_SELFOVERLAP>  (1) 
934.919

>  <PUBCHEM_SHAPE_VOLUME>  (1) 
244.5

>  <PUBCHEM_COORDINATE_TYPE>  (1) 
2
5
10

$$$$
