29811
     RDKit          3D

 16 16  0  0  0  0  0  0  0  0999 V2000
    1.6658    0.0775   -1.0475 O   0  0  0  0  0  0  0  0  0  0  0  0
    2.1871    0.4210    1.1928 O   0  0  0  0  0  0  0  0  0  0  0  0
    5.7702   -0.8521    0.4535 O   0  0  0  0  0  0  0  0  0  0  0  0
   -3.7300    0.2707    0.2922 N   0  0  0  0  0  0  0  0  0  0  0  0
    3.8627    0.1885   -0.3928 N   0  0  0  0  0  0  0  0  0  0  0  0
   -2.3602    0.2074   -0.0453 C   0  0  0  0  0  0  0  0  0  0  0  0
   -1.6776   -1.0090   -0.0335 C   0  0  0  0  0  0  0  0  0  0  0  0
   -1.6900    1.3800   -0.3939 C   0  0  0  0  0  0  0  0  0  0  0  0
   -0.3246   -1.0529   -0.3702 C   0  0  0  0  0  0  0  0  0  0  0  0
    0.3456    0.1198   -0.7189 C   0  0  0  0  0  0  0  0  0  0  0  0
   -0.3372    1.3361   -0.7307 C   0  0  0  0  0  0  0  0  0  0  0  0
   -2.3708   -2.2801    0.3356 C   0  0  0  0  0  0  0  0  0  0  0  0
   -4.1721    1.0793    1.4097 C   0  0  0  0  0  0  0  0  0  0  0  0
   -4.7098   -0.4612   -0.4840 C   0  0  0  0  0  0  0  0  0  0  0  0
    2.5514    0.2456    0.0338 C   0  0  0  0  0  0  0  0  0  0  0  0
    4.9894    0.3294    0.4993 C   0  0  0  0  0  0  0  0  0  0  0  0
  1 10  1  0
  1 15  1  0
  2 15  2  0
  3 16  1  0
  4  6  1  0
  4 13  1  0
  4 14  1  0
  5 15  1  0
  5 16  1  0
  6  7  2  0
  6  8  1  0
  7  9  1  0
  7 12  1  0
  8 11  2  0
  9 10  2  0
 10 11  1  0
M  END
>  <PUBCHEM_COMPOUND_CID>  (1) 
29811

>  <PUBCHEM_CONFORMER_RMSD>  (1) 
0.6

>  <PUBCHEM_CONFORMER_DIVERSEORDER>  (1) 
3
35
19
69
55
67
62
66
58
48
64
49
36
74
25
46
75
44
73
51
23
50
54
37
40
59
15
17
13
72
5
39
41
43
7
8
57
26
31
29
47
68
30
42
28
65
22
53
70
14
61
52
11
1
56
24
4
38
21
32
2
34
6
45
71
63
9
20
60
16
18
10
27
33
12

>  <PUBCHEM_MMFF94_PARTIAL_CHARGES>  (1) 
21
1 -0.23
10 0.08
11 -0.15
12 0.14
13 0.37
14 0.37
15 0.78
16 0.58
17 0.15
18 0.15
19 0.15
2 -0.57
29 0.37
3 -0.68
32 0.4
4 -0.84
5 -0.73
6 0.1
7 -0.14
8 -0.15
9 -0.15

>  <PUBCHEM_EFFECTIVE_ROTOR_COUNT>  (1) 
5

>  <PUBCHEM_PHARMACOPHORE_FEATURES>  (1) 
6
1 2 acceptor
1 3 acceptor
1 3 donor
1 4 cation
1 5 donor
6 6 7 8 9 10 11 rings

>  <PUBCHEM_HEAVY_ATOM_COUNT>  (1) 
16

>  <PUBCHEM_ATOM_DEF_STEREO_COUNT>  (1) 
0

>  <PUBCHEM_ATOM_UDEF_STEREO_COUNT>  (1) 
0

>  <PUBCHEM_BOND_DEF_STEREO_COUNT>  (1) 
0

>  <PUBCHEM_BOND_UDEF_STEREO_COUNT>  (1) 
0

>  <PUBCHEM_ISOTOPIC_ATOM_COUNT>  (1) 
0

>  <PUBCHEM_COMPONENT_COUNT>  (1) 
1

>  <PUBCHEM_CACTVS_TAUTO_COUNT>  (1) 
2

>  <PUBCHEM_CONFORMER_ID>  (1) 
0000747300000003

>  <PUBCHEM_MMFF94_ENERGY>  (1) 
61.4107

>  <PUBCHEM_FEATURE_SELFOVERLAP>  (1) 
30.49

>  <PUBCHEM_SHAPE_FINGERPRINT>  (1) 
11132069 177 18408606967528965509
11401426 45 18410290311890093509
12119455 92 17418372484654382516
12236239 1 17458063772438726204
12251169 10 18407761443055777996
124424 183 17988924491793390890
12507557 5 15410892981003423315
12916748 109 11455895792898052964
13140716 1 18191598638641581225
13214271 11 17203608181600239213
13551218 46 18261388880599802466
13675066 3 17385444336190314564
15209294 21 18058460820065180705
15295992 7 17489582402693494728
15375462 189 17458621237671593680
16945 1 18334307465572610509
17804303 29 18411420647902079628
1813 80 16805610222779911734
200 152 14562530678183758044
20279233 1 17846788424642374238
20510252 161 18341050701192056265
20600515 1 18339938072697313277
20645477 70 12829754191046998128
21339142 126 17894906326159699989
21618674 57 18131632266462934946
21637258 2 15285644356246486489
2297311 6 18410864226990064556
23175994 123 17489874843106969968
23402539 116 18342168969284470397
23402655 69 8934734270555381915
23559900 14 18336261349333025340
2838139 119 16199867246466714425
351380 180 17489586761847987905
42 15 18334858303591695270
5104073 3 18337953501901678496

>  <PUBCHEM_SHAPE_MULTIPOLES>  (1) 
301.7
10.05
1.5
1
10.62
0.52
-0.16
0.49
-2.71
-1.27
-0.09
-0.25
-0.21
-0.37

>  <PUBCHEM_SHAPE_SELFOVERLAP>  (1) 
614.582

>  <PUBCHEM_SHAPE_VOLUME>  (1) 
174.9

>  <PUBCHEM_COORDINATE_TYPE>  (1) 
2
5
10

$$$$
