29810
     RDKit          3D

 24 26  0  0  0  0  0  0  0  0999 V2000
   -5.7101   -0.7092    0.2898 O   0  0  0  0  0  0  0  0  0  0  0  0
   -3.0507   -1.5921   -0.2098 N   0  0  0  0  0  0  0  0  0  0  0  0
    1.3700   -0.3401    0.1402 N   0  0  0  0  0  0  0  0  0  0  0  0
    0.4012    3.2645    0.1941 N   0  0  0  0  0  0  0  0  0  0  0  0
    1.4570   -2.3015   -0.9018 N   0  0  0  0  0  0  0  0  0  0  0  0
   -1.6412   -1.7286    0.1515 C   0  0  0  0  0  0  0  0  0  0  0  0
   -0.7369   -1.1291   -0.9272 C   0  0  0  0  0  0  0  0  0  0  0  0
    0.7211   -1.2866   -0.5723 C   0  0  0  0  0  0  0  0  0  0  0  0
    0.8294    0.8995    0.6512 C   0  0  0  0  0  0  0  0  0  0  0  0
   -3.9096   -2.2602    0.7777 C   0  0  0  0  0  0  0  0  0  0  0  0
   -3.4248   -0.1757   -0.3262 C   0  0  0  0  0  0  0  0  0  0  0  0
    0.9804    2.0422   -0.3487 C   0  0  0  0  0  0  0  0  0  0  0  0
    2.6603   -0.7787    0.2927 C   0  0  0  0  0  0  0  0  0  0  0  0
   -5.3750   -2.0941    0.3857 C   0  0  0  0  0  0  0  0  0  0  0  0
   -4.9019   -0.0582   -0.6912 C   0  0  0  0  0  0  0  0  0  0  0  0
    2.6892   -2.0047   -0.3663 C   0  0  0  0  0  0  0  0  0  0  0  0
    0.5928    4.3822   -0.7322 C   0  0  0  0  0  0  0  0  0  0  0  0
   -1.0235    3.0790    0.4769 C   0  0  0  0  0  0  0  0  0  0  0  0
    3.7708   -0.2252    0.9309 C   0  0  0  0  0  0  0  0  0  0  0  0
    3.8887   -2.7357   -0.4005 C   0  0  0  0  0  0  0  0  0  0  0  0
    4.9564   -0.9662    0.8868 C   0  0  0  0  0  0  0  0  0  0  0  0
    5.0164   -2.1993    0.2336 C   0  0  0  0  0  0  0  0  0  0  0  0
    2.0654    4.5934   -1.0403 C   0  0  0  0  0  0  0  0  0  0  0  0
   -1.6252    4.3245    1.1054 C   0  0  0  0  0  0  0  0  0  0  0  0
  1 14  1  0
  1 15  1  0
  2  6  1  0
  2 10  1  0
  2 11  1  0
  3  8  1  0
  3  9  1  0
  3 13  1  0
  4 12  1  0
  4 17  1  0
  4 18  1  0
  5  8  2  0
  5 16  1  0
  6  7  1  0
  7  8  1  0
  9 12  1  0
 10 14  1  0
 11 15  1  0
 13 16  2  0
 13 19  1  0
 16 20  1  0
 17 23  1  0
 18 24  1  0
 19 21  2  0
 20 22  2  0
 21 22  1  0
M  END
>  <PUBCHEM_COMPOUND_CID>  (1) 
29810

>  <PUBCHEM_CONFORMER_RMSD>  (1) 
1

>  <PUBCHEM_CONFORMER_DIVERSEORDER>  (1) 
1
41
32
26
10
6
18
21
31
27
9
7
24
38
43
28
25
13
35
42
3
23
16
14
29
39
2
17
33
19
12
40
15
34
4
36
22
5
37
30
20
11
8

>  <PUBCHEM_MMFF94_PARTIAL_CHARGES>  (1) 
26
1 -0.56
10 0.27
11 0.27
12 0.27
13 -0.15
14 0.28
15 0.28
16 0.23
17 0.27
18 0.27
19 -0.15
2 -0.81
20 -0.15
21 -0.15
22 -0.15
3 0.05
4 -0.81
45 0.15
46 0.15
47 0.15
48 0.15
5 -0.57
6 0.27
7 0.18
8 0.01
9 0.26

>  <PUBCHEM_EFFECTIVE_ROTOR_COUNT>  (1) 
9.2

>  <PUBCHEM_PHARMACOPHORE_FEATURES>  (1) 
7
1 1 acceptor
1 2 cation
1 4 cation
3 3 5 8 cation
5 3 5 8 13 16 rings
6 1 2 10 11 14 15 rings
6 13 16 19 20 21 22 rings

>  <PUBCHEM_HEAVY_ATOM_COUNT>  (1) 
24

>  <PUBCHEM_ATOM_DEF_STEREO_COUNT>  (1) 
0

>  <PUBCHEM_ATOM_UDEF_STEREO_COUNT>  (1) 
0

>  <PUBCHEM_BOND_DEF_STEREO_COUNT>  (1) 
0

>  <PUBCHEM_BOND_UDEF_STEREO_COUNT>  (1) 
0

>  <PUBCHEM_ISOTOPIC_ATOM_COUNT>  (1) 
0

>  <PUBCHEM_COMPONENT_COUNT>  (1) 
1

>  <PUBCHEM_CACTVS_TAUTO_COUNT>  (1) 
2

>  <PUBCHEM_CONFORMER_ID>  (1) 
0000747200000001

>  <PUBCHEM_MMFF94_ENERGY>  (1) 
37.1518

>  <PUBCHEM_FEATURE_SELFOVERLAP>  (1) 
35.632

>  <PUBCHEM_SHAPE_FINGERPRINT>  (1) 
10050765 1 18051131385940978126
10688039 33 18410291367819103762
11646440 116 18408892815247140195
12166972 35 18130785711466699771
12293681 4 18334863809386822187
12516196 113 18410009940024294946
12788726 201 18188768319597142506
13540713 4 17771336467250209806
138480 1 14591804733102879885
14028597 1 17677598788380980354
140371 6 18411427193427132827
14790565 3 17617096245217599100
14866123 147 17256242644846283499
14955137 171 18194966464358688274
15042514 8 18194681458607682408
15081414 286 18411417340903875236
15238133 3 18335147457875141927
15927050 60 17619072067959982708
17357779 13 18199168629710923733
18785283 64 18118683455118607316
20642791 178 17831574654538373640
20739085 24 18341046428052524554
21033648 29 17774422920267942675
21041028 32 18411697686082621685
21641784 216 18337688412341363564
23559900 14 18335975463509635643
23845131 108 17330841219199091473
350125 39 18272364245013428058
3886686 26 16966577402236963170
4015057 19 18267293417666873223
5283268 108 18411699876763894970
5385378 56 18122635121705911457
6442390 28 17329998988944298596
7164475 11 18265056834600233366
81228 2 18266750073283752720
9777508 108 17908419152361469880
9925002 15 18118987801176614356
9981440 41 17400637620054863009

>  <PUBCHEM_SHAPE_MULTIPOLES>  (1) 
468.12
10.29
5.93
0.99
6.81
10.52
-0.01
-10.96
-1.65
-0.99
0.53
-0.14
0.33
-0.35

>  <PUBCHEM_SHAPE_SELFOVERLAP>  (1) 
970.217

>  <PUBCHEM_SHAPE_VOLUME>  (1) 
270.4

>  <PUBCHEM_COORDINATE_TYPE>  (1) 
2
5
10

$$$$
