29817
     RDKit          3D

 21 23  0  0  0  0  0  0  0  0999 V2000
    4.8538   -1.6994   -1.3596 O   0  0  0  0  0  0  0  0  0  0  0  0
   -0.6933    1.6092   -0.5325 N   0  0  0  0  0  0  0  0  0  0  0  0
    1.3662    1.5641   -0.1080 C   0  0  0  0  0  0  0  0  0  0  0  0
    0.4890    1.1346   -1.2925 C   0  0  0  0  0  0  0  0  0  0  0  0
    0.0807    1.4111    0.7174 C   0  0  0  0  0  0  0  0  0  0  0  0
    2.5474    0.6337    0.2598 C   0  0  0  0  0  0  0  0  0  0  0  0
    1.9153    2.9740   -0.1893 C   0  0  0  0  0  0  0  0  0  0  0  0
   -1.7746    0.6376   -0.6191 C   0  0  0  0  0  0  0  0  0  0  0  0
   -2.9872    1.0887    0.1989 C   0  0  0  0  0  0  0  0  0  0  0  0
    3.1753   -0.1241   -0.7289 C   0  0  0  0  0  0  0  0  0  0  0  0
    2.9851    0.5555    1.5820 C   0  0  0  0  0  0  0  0  0  0  0  0
   -4.1079    0.0924    0.1454 C   0  0  0  0  0  0  0  0  0  0  0  0
    4.2410   -0.9600   -0.3952 C   0  0  0  0  0  0  0  0  0  0  0  0
    4.0506   -0.2804    1.9155 C   0  0  0  0  0  0  0  0  0  0  0  0
    4.6787   -1.0380    0.9270 C   0  0  0  0  0  0  0  0  0  0  0  0
   -5.0709    0.1924   -0.8526 C   0  0  0  0  0  0  0  0  0  0  0  0
   -4.1733   -0.9222    1.0940 C   0  0  0  0  0  0  0  0  0  0  0  0
   -6.1128   -0.7337   -0.9026 C   0  0  0  0  0  0  0  0  0  0  0  0
   -5.2151   -1.8485    1.0438 C   0  0  0  0  0  0  0  0  0  0  0  0
   -6.1848   -1.7541    0.0455 C   0  0  0  0  0  0  0  0  0  0  0  0
    5.9369   -2.5327   -0.9489 C   0  0  0  0  0  0  0  0  0  0  0  0
  1 13  1  0
  1 21  1  0
  2  4  1  0
  2  5  1  0
  2  8  1  0
  3  4  1  0
  3  5  1  0
  3  6  1  0
  3  7  1  0
  6 10  2  0
  6 11  1  0
  8  9  1  0
  9 12  1  0
 10 13  1  0
 11 14  2  0
 12 16  2  0
 12 17  1  0
 13 15  2  0
 14 15  1  0
 16 18  1  0
 17 19  2  0
 18 20  2  0
 19 20  1  0
M  END
>  <PUBCHEM_COMPOUND_CID>  (1) 
29817

>  <PUBCHEM_CONFORMER_RMSD>  (1) 
0.8

>  <PUBCHEM_CONFORMER_DIVERSEORDER>  (1) 
1
27
21
29
34
19
9
35
28
3
33
22
30
10
16
23
4
7
32
24
13
18
25
6
15
8
31
20
17
12
5
11
14
26
2

>  <PUBCHEM_MMFF94_PARTIAL_CHARGES>  (1) 
29
1 -0.36
10 -0.15
11 -0.15
12 -0.14
13 0.08
14 -0.15
15 -0.15
16 -0.15
17 -0.15
18 -0.15
19 -0.15
2 -0.69
20 -0.15
21 0.28
3 0.11
33 0.15
34 0.15
35 0.15
36 0.15
37 0.15
38 0.15
39 0.15
4 0.21
40 0.15
41 0.15
5 0.21
6 -0.11
8 0.27
9 0.14

>  <PUBCHEM_EFFECTIVE_ROTOR_COUNT>  (1) 
5.8

>  <PUBCHEM_PHARMACOPHORE_FEATURES>  (1) 
5
1 1 acceptor
1 2 cation
4 2 3 4 5 rings
6 12 16 17 18 19 20 rings
6 6 10 11 13 14 15 rings

>  <PUBCHEM_HEAVY_ATOM_COUNT>  (1) 
21

>  <PUBCHEM_ATOM_DEF_STEREO_COUNT>  (1) 
0

>  <PUBCHEM_ATOM_UDEF_STEREO_COUNT>  (1) 
0

>  <PUBCHEM_BOND_DEF_STEREO_COUNT>  (1) 
0

>  <PUBCHEM_BOND_UDEF_STEREO_COUNT>  (1) 
0

>  <PUBCHEM_ISOTOPIC_ATOM_COUNT>  (1) 
0

>  <PUBCHEM_COMPONENT_COUNT>  (1) 
1

>  <PUBCHEM_CACTVS_TAUTO_COUNT>  (1) 
1

>  <PUBCHEM_CONFORMER_ID>  (1) 
0000747900000001

>  <PUBCHEM_MMFF94_ENERGY>  (1) 
70.162

>  <PUBCHEM_FEATURE_SELFOVERLAP>  (1) 
25.373

>  <PUBCHEM_SHAPE_FINGERPRINT>  (1) 
10076449 9 17632025157266258534
10378564 45 10881665876773495056
10498660 4 8070026679126467996
10692045 39 12175350150092561700
11069576 57 16226591976138670562
11128504 68 13840261485818838675
11545043 162 18059853909386334577
11796584 16 18187358835820953241
11858739 19 18410569609307854901
12596602 18 16487251084527376083
12633257 1 15410885250283855692
12892183 10 17346314856520772072
12969540 114 11530484436738327217
13533116 47 18270682086211239657
13673619 4 17917152694117996550
13911852 28 18199469874543846094
13914758 101 18060415795342984837
13955234 65 18128536157657484512
14123256 34 18408893927253214191
1420 369 18411418423346280329
14211702 104 18127689538389597439
14251740 57 18411701031877858946
14251764 30 18339082588505825846
14251764 75 12749801127941940938
14341114 328 14548731828740379745
14366163 111 12612750202989064428
14528608 73 11386363751410189985
14848178 5 18411698798874803163
15061688 2 8502357928877222252
15183329 4 17458337525491441559
15188451 53 17917986183813498855
15210252 30 9871745819283152358
15238133 3 12103552096781088538
15537594 2 17530685381777111771
17857418 61 17967805055430704825
17870717 6 17748826333065879839
1813 80 18334573525622071748
18222031 100 18408322176901052564
19377110 9 13326847838754931421
193927 3 18408888438379689217
19784866 240 18411143523970008257
19784866 34 8718824275725810917
20028762 73 18272649086575488935
20403669 9 18333448751038540139
20645477 70 18261390104480579389
21150785 3 12973889243362084107
21637258 2 18337670819986344502
21682296 61 18130230358967670135
2215653 11 18040707091942682575
23016692 55 18040998418793550959
23559900 14 18042116713105148749
239999 70 18260545675603620456
25122255 55 18410295826507093707
2838139 119 8502371096835436666
2916195 48 9871746888866249845
29717793 49 18334006229520183037
3004659 81 17894632556174917990
3089732 80 18410016528678226343
312423 11 18337121141435148469
312425 54 17489592272882249123
3472631 163 10665241357830712386
38570 142 15767796775210992904
44062 13 17822288042123287243
465052 167 18343025505610836078
5104073 3 17703794691045235433
543368 44 11169913888419658951
5718773 13 18265330613075222786
59755656 215 18188763947662936573
636775 8 17843134611135986566
7808743 9 11383819498250946761
7918774 8 18339651048754406646
7970288 3 18337110051750429958
8863177 126 18202562874046844150
960060 61 16298383565212852089

>  <PUBCHEM_SHAPE_MULTIPOLES>  (1) 
421.32
15.99
2.43
1.42
11.92
0.19
-0.3
-13.68
1
-1.79
0.38
-1.14
-0.32
1.59

>  <PUBCHEM_SHAPE_SELFOVERLAP>  (1) 
896.428

>  <PUBCHEM_SHAPE_VOLUME>  (1) 
237.5

>  <PUBCHEM_COORDINATE_TYPE>  (1) 
2
5
10

$$$$
