29818
     RDKit          3D

 15 16  0  0  0  0  0  0  0  0999 V2000
   -3.3115   -0.9776   -0.9493 O   0  0  0  0  0  0  0  0  0  0  0  0
    3.3029   -0.7884   -0.0387 N   0  0  0  0  0  0  0  0  0  0  0  0
    1.4540    0.1659   -0.3462 C   0  0  0  0  0  0  0  0  0  0  0  0
    2.5278    0.1999    0.7505 C   0  0  0  0  0  0  0  0  0  0  0  0
    2.0327   -1.2180   -0.6732 C   0  0  0  0  0  0  0  0  0  0  0  0
    1.6132    1.2047   -1.4378 C   0  0  0  0  0  0  0  0  0  0  0  0
   -0.0214    0.2140    0.1193 C   0  0  0  0  0  0  0  0  0  0  0  0
    3.8172   -1.8386    0.8292 C   0  0  0  0  0  0  0  0  0  0  0  0
    1.3125    2.6041   -0.9269 C   0  0  0  0  0  0  0  0  0  0  0  0
   -1.0141   -0.4109   -0.6356 C   0  0  0  0  0  0  0  0  0  0  0  0
   -0.3574    0.8819    1.2968 C   0  0  0  0  0  0  0  0  0  0  0  0
   -2.3427   -0.3679   -0.2130 C   0  0  0  0  0  0  0  0  0  0  0  0
   -1.6860    0.9250    1.7194 C   0  0  0  0  0  0  0  0  0  0  0  0
   -2.6786    0.3002    0.9645 C   0  0  0  0  0  0  0  0  0  0  0  0
   -4.6488   -0.8943   -0.4591 C   0  0  0  0  0  0  0  0  0  0  0  0
  1 12  1  0
  1 15  1  0
  2  4  1  0
  2  5  1  0
  2  8  1  0
  3  4  1  0
  3  5  1  0
  3  6  1  0
  3  7  1  0
  6  9  1  0
  7 10  2  0
  7 11  1  0
 10 12  1  0
 11 13  2  0
 12 14  2  0
 13 14  1  0
M  END
>  <PUBCHEM_COMPOUND_CID>  (1) 
29818

>  <PUBCHEM_CONFORMER_RMSD>  (1) 
0.6

>  <PUBCHEM_CONFORMER_DIVERSEORDER>  (1) 
2
28
16
25
13
23
22
21
11
14
26
19
24
20
12
6
17
27
15
10
8
18
3
5
9
4
7
1

>  <PUBCHEM_MMFF94_PARTIAL_CHARGES>  (1) 
17
1 -0.36
10 -0.15
11 -0.15
12 0.08
13 -0.15
14 -0.15
15 0.28
2 -0.69
28 0.15
29 0.15
3 0.11
30 0.15
31 0.15
4 0.21
5 0.21
7 -0.11
8 0.27

>  <PUBCHEM_EFFECTIVE_ROTOR_COUNT>  (1) 
3.8

>  <PUBCHEM_PHARMACOPHORE_FEATURES>  (1) 
5
1 1 acceptor
1 2 cation
1 9 hydrophobe
4 2 3 4 5 rings
6 7 10 11 12 13 14 rings

>  <PUBCHEM_HEAVY_ATOM_COUNT>  (1) 
15

>  <PUBCHEM_ATOM_DEF_STEREO_COUNT>  (1) 
0

>  <PUBCHEM_ATOM_UDEF_STEREO_COUNT>  (1) 
0

>  <PUBCHEM_BOND_DEF_STEREO_COUNT>  (1) 
0

>  <PUBCHEM_BOND_UDEF_STEREO_COUNT>  (1) 
0

>  <PUBCHEM_ISOTOPIC_ATOM_COUNT>  (1) 
0

>  <PUBCHEM_COMPONENT_COUNT>  (1) 
1

>  <PUBCHEM_CACTVS_TAUTO_COUNT>  (1) 
1

>  <PUBCHEM_CONFORMER_ID>  (1) 
0000747A00000002

>  <PUBCHEM_MMFF94_ENERGY>  (1) 
55.8093

>  <PUBCHEM_FEATURE_SELFOVERLAP>  (1) 
25.371

>  <PUBCHEM_SHAPE_FINGERPRINT>  (1) 
11132069 177 14836110079027601551
11578080 2 18198036167094897376
11769659 78 18342451521765286986
12251169 10 16200138911558388706
13134695 92 18040151825253360956
13296909 8 17703221802421218616
13581323 91 17489588948044350606
13705890 14 18187644755930741379
14115302 16 18270961353432380847
14178342 30 17702675319425274619
14181834 199 18335709376973212660
14350558 41 18343864432946093919
15219456 202 16298961977228049644
15375462 478 17775278352850554926
16945 1 18260558834866119176
1813 80 18265628593484080262
18186145 218 16660636384820776413
18380122 1 15123795058678258936
19010151 120 18334851680535918474
19765921 60 17479176813384683797
19784866 240 18408324358739443519
200 152 18334855000329438451
20279233 1 16588026839760604688
20361792 2 18115317674264589582
20559304 39 17918000502596257652
20645476 183 18197786711394043759
20645477 70 17821728359722112627
20671657 53 18260825981884710655
20711985 327 18409451354178931612
20715346 28 14692303810964851473
21069387 34 18334014973387977355
21296965 67 18187919535169339300
21501925 9 17489582372607650083
21947302 44 17241607401976837613
22112679 90 18129686134865872280
22802520 49 16081378444222757644
232386 152 17704354389660608967
23402539 116 18188767232954397018
23419403 2 17912889929722644440
23526113 38 16950278490673323936
23557571 272 16343434946275767185
23598291 2 18268731466177881844
2748010 2 17048271150197013785
298252 57 12179850468048217680
3286 77 17822010925810173927
449060 50 12247679400679916567
4990 188 16660637471389765619
5374978 207 17418091040122413339
5902787 121 17345183601037579015
6049 1 16081670966135149089
633830 44 16009019631992714799
6992083 37 18196948668442616697
7364860 26 18337110193457580916
74978 22 18041288745792895235
7615 1 18342189872653260697
77492 1 18270696314952522944
8030462 33 18129115552813230813
81228 2 17461720585147084284
88987 49 17130732499150241937

>  <PUBCHEM_SHAPE_MULTIPOLES>  (1) 
297.84
6.54
1.79
1.41
3.39
0.75
-0.31
-3.87
0.3
-1.5
0.37
0.28
0.36
-1.22

>  <PUBCHEM_SHAPE_SELFOVERLAP>  (1) 
620.523

>  <PUBCHEM_SHAPE_VOLUME>  (1) 
173.2

>  <PUBCHEM_COORDINATE_TYPE>  (1) 
2
5
10

$$$$
