29821
     RDKit          3D

 26 28  0  0  0  0  0  0  0  0999 V2000
    5.8027    1.8961    1.3860 O   0  0  0  0  0  0  0  0  0  0  0  0
   -8.0489   -0.8762   -0.2674 O   0  0  0  0  0  0  0  0  0  0  0  0
   -8.0242    0.8228    1.1225 O   0  0  0  0  0  0  0  0  0  0  0  0
    0.3956    0.2003    0.0359 N   0  0  0  0  0  0  0  0  0  0  0  0
   -7.4434    0.0529    0.3197 N   0  0  0  0  0  0  0  0  0  0  0  0
    2.1106   -1.0035   -0.1471 C   0  0  0  0  0  0  0  0  0  0  0  0
    1.2144   -0.5547    1.0158 C   0  0  0  0  0  0  0  0  0  0  0  0
    0.8784   -0.7241   -1.0191 C   0  0  0  0  0  0  0  0  0  0  0  0
    2.5331   -2.4658   -0.0964 C   0  0  0  0  0  0  0  0  0  0  0  0
    3.3749   -0.1719   -0.4249 C   0  0  0  0  0  0  0  0  0  0  0  0
   -1.0225   -0.0144    0.2885 C   0  0  0  0  0  0  0  0  0  0  0  0
    3.5366   -2.6868    1.0328 C   0  0  0  0  0  0  0  0  0  0  0  0
   -1.8807    0.7950   -0.6843 C   0  0  0  0  0  0  0  0  0  0  0  0
    4.0282    0.4962    0.6186 C   0  0  0  0  0  0  0  0  0  0  0  0
    3.8864   -0.0735   -1.7251 C   0  0  0  0  0  0  0  0  0  0  0  0
    4.0057   -4.1313    1.0888 C   0  0  0  0  0  0  0  0  0  0  0  0
    5.1742    1.2502    0.3660 C   0  0  0  0  0  0  0  0  0  0  0  0
   -3.3522    0.5990   -0.4189 C   0  0  0  0  0  0  0  0  0  0  0  0
    5.0325    0.6806   -1.9776 C   0  0  0  0  0  0  0  0  0  0  0  0
    5.6762    1.3425   -0.9321 C   0  0  0  0  0  0  0  0  0  0  0  0
   -4.0299   -0.4238   -1.0649 C   0  0  0  0  0  0  0  0  0  0  0  0
   -4.0033    1.4447    0.4663 C   0  0  0  0  0  0  0  0  0  0  0  0
   -5.3910   -0.6053   -0.8198 C   0  0  0  0  0  0  0  0  0  0  0  0
   -5.3644    1.2633    0.7113 C   0  0  0  0  0  0  0  0  0  0  0  0
   -6.0583    0.2384    0.0683 C   0  0  0  0  0  0  0  0  0  0  0  0
    6.9690    2.6491    1.0569 C   0  0  0  0  0  0  0  0  0  0  0  0
  1 17  1  0
  1 26  1  0
  2  5  1  0
  3  5  2  0
  4  7  1  0
  4  8  1  0
  4 11  1  0
  5 25  1  0
  6  7  1  0
  6  8  1  0
  6  9  1  0
  6 10  1  0
  9 12  1  0
 10 14  2  0
 10 15  1  0
 11 13  1  0
 12 16  1  0
 13 18  1  0
 14 17  1  0
 15 19  2  0
 17 20  2  0
 18 21  2  0
 18 22  1  0
 19 20  1  0
 21 23  1  0
 22 24  2  0
 23 25  2  0
 24 25  1  0
M  CHG  2   2  -1   5   1
M  END
>  <PUBCHEM_COMPOUND_CID>  (1) 
29821

>  <PUBCHEM_CONFORMER_RMSD>  (1) 
1

>  <PUBCHEM_CONFORMER_DIVERSEORDER>  (1) 
1
16
4
6
25
13
24
11
19
22
20
18
17
15
3
12
5
9
8
23
2
21
10
14
7

>  <PUBCHEM_MMFF94_PARTIAL_CHARGES>  (1) 
31
1 -0.36
10 -0.11
11 0.27
13 0.14
14 -0.15
15 -0.15
17 0.08
18 -0.14
19 -0.15
2 -0.52
20 -0.15
21 -0.15
22 -0.15
23 -0.15
24 -0.15
25 0.13
26 0.28
3 -0.52
39 0.15
4 -0.69
40 0.15
44 0.15
45 0.15
46 0.15
47 0.15
48 0.15
49 0.15
5 0.91
6 0.11
7 0.21
8 0.21

>  <PUBCHEM_EFFECTIVE_ROTOR_COUNT>  (1) 
8.8

>  <PUBCHEM_PHARMACOPHORE_FEATURES>  (1) 
9
1 1 acceptor
1 16 hydrophobe
1 2 acceptor
1 2 anion
1 3 acceptor
1 4 cation
4 4 6 7 8 rings
6 10 14 15 17 19 20 rings
6 18 21 22 23 24 25 rings

>  <PUBCHEM_HEAVY_ATOM_COUNT>  (1) 
26

>  <PUBCHEM_ATOM_DEF_STEREO_COUNT>  (1) 
0

>  <PUBCHEM_ATOM_UDEF_STEREO_COUNT>  (1) 
0

>  <PUBCHEM_BOND_DEF_STEREO_COUNT>  (1) 
0

>  <PUBCHEM_BOND_UDEF_STEREO_COUNT>  (1) 
0

>  <PUBCHEM_ISOTOPIC_ATOM_COUNT>  (1) 
0

>  <PUBCHEM_COMPONENT_COUNT>  (1) 
1

>  <PUBCHEM_CACTVS_TAUTO_COUNT>  (1) 
1

>  <PUBCHEM_CONFORMER_ID>  (1) 
0000747D00000001

>  <PUBCHEM_MMFF94_ENERGY>  (1) 
85.1271

>  <PUBCHEM_FEATURE_SELFOVERLAP>  (1) 
45.753

>  <PUBCHEM_SHAPE_FINGERPRINT>  (1) 
10165383 225 18260834822082791164
10554248 39 18057031412094124173
10595046 47 18410013200278395397
10816530 90 16343692266656937032
11719270 70 13479131293975553873
12236239 1 18335141947948825117
12516196 113 18040719160843203445
12596602 18 18337110073667553561
12730499 353 18408327679086481098
13073987 5 18335984169249731697
13533116 47 18262238815635215602
13540713 4 17533760634253599500
13835254 42 18188209784417018693
13914758 101 8574440811903778007
13955234 65 18335414613795222450
14118638 360 18336549331037580989
14251757 52 17561366183960835625
14251764 18 18202845457799837111
14461889 52 18113341946137484123
14565420 104 18411412952006494328
146900 427 18343298171704515882
14933364 13 17418098719603241445
15183329 4 10807941470199511229
15188451 53 12901536949510365804
1577012 14 18272652317101979577
17844677 252 17969507004930678605
19377110 9 18410849941216544993
1979834 28 17894351077552080428
20567600 234 16877662396241927908
21033648 29 18194953266415435224
21049683 271 17970349214518288670
21130935 74 18334860468656600851
220451 1 18413672401077929215
22149856 69 17823435829151724665
22224240 67 18261388987667464409
23081809 10 18341611469955608231
23522609 53 18197805257437913073
23559900 14 17822303331953848242
24771750 20 17244166013296453557
3004659 81 18269840817686853654
34797466 226 17489875946333530732
3663271 9 18341052930938920659
4073 2 18338237171232520267
4325135 7 18260270754562108085
4340502 62 18113615690357820658
5104073 3 18264487287239370457
5372103 7 15122369122286275984
5385378 56 18335415760740965578
54076057 127 18272376360552277914
54076057 255 16845570945940455984
57527295 17 17697351463756386966
5758199 1 18412261774492701952
57634706 280 18199742708536435152
9658208 31 14907883999034195159
9849439 229 18263928916375467476
9962374 69 18261944150978118962

>  <PUBCHEM_SHAPE_MULTIPOLES>  (1) 
507.5
21.59
2.72
1.39
33.59
2.84
-0.3
-8.42
3.3
-6.63
1.37
-1.63
-0.19
-0.76

>  <PUBCHEM_SHAPE_SELFOVERLAP>  (1) 
1074.356

>  <PUBCHEM_SHAPE_VOLUME>  (1) 
287.3

>  <PUBCHEM_COORDINATE_TYPE>  (1) 
2
5
10

$$$$
