2982
     RDKit          3D

 28 30  0  0  1  0  0  0  0  0999 V2000
    3.8955    3.6541    0.7732 Br  0  0  0  0  0  0  0  0  0  0  0  0
    4.1925    1.9109   -1.8574 Br  0  0  0  0  0  0  0  0  0  0  0  0
    0.0782   -1.7039    0.5568 O   0  0  0  0  0  0  0  0  0  0  0  0
    1.4473   -3.5651    0.6549 O   0  0  0  0  0  0  0  0  0  0  0  0
   -3.3707    1.6199   -0.7953 O   0  0  0  0  0  0  0  0  0  0  0  0
   -0.6704   -3.9033   -1.9214 N   0  0  0  0  0  0  0  0  0  0  0  0
    3.5805   -1.4150    0.0826 C   0  0  0  0  0  0  0  0  0  0  0  0
    2.5907   -0.2906   -0.0021 C   0  0  0  0  0  0  0  0  0  0  0  0
    2.3743   -1.4095    0.9660 C   0  0  0  0  0  0  0  0  0  0  0  0
    3.6420   -2.3611   -1.0693 C   0  0  0  0  0  0  0  0  0  0  0  0
    4.9021   -1.1892    0.7385 C   0  0  0  0  0  0  0  0  0  0  0  0
    2.9224    1.0242    0.5264 C   0  0  0  0  0  0  0  0  0  0  0  0
    1.2605   -2.3580    0.7099 C   0  0  0  0  0  0  0  0  0  0  0  0
    3.5668    2.0257   -0.0968 C   0  0  0  0  0  0  0  0  0  0  0  0
   -1.0576   -2.5420    0.3045 C   0  0  0  0  0  0  0  0  0  0  0  0
   -2.2984   -1.7163    0.2562 C   0  0  0  0  0  0  0  0  0  0  0  0
   -0.8351   -3.3062   -0.9400 C   0  0  0  0  0  0  0  0  0  0  0  0
   -2.2535   -0.4185   -0.2531 C   0  0  0  0  0  0  0  0  0  0  0  0
   -3.5043   -2.2421    0.7201 C   0  0  0  0  0  0  0  0  0  0  0  0
   -3.4143    0.3534   -0.2985 C   0  0  0  0  0  0  0  0  0  0  0  0
   -4.6650   -1.4700    0.6748 C   0  0  0  0  0  0  0  0  0  0  0  0
   -4.6201   -0.1723    0.1655 C   0  0  0  0  0  0  0  0  0  0  0  0
   -2.3287    2.4357   -0.3875 C   0  0  0  0  0  0  0  0  0  0  0  0
   -1.9869    2.4732    0.9523 C   0  0  0  0  0  0  0  0  0  0  0  0
   -1.6566    3.1921   -1.3305 C   0  0  0  0  0  0  0  0  0  0  0  0
   -0.9372    3.2949    1.3629 C   0  0  0  0  0  0  0  0  0  0  0  0
   -0.6069    4.0139   -0.9198 C   0  0  0  0  0  0  0  0  0  0  0  0
   -0.2472    4.0652    0.4270 C   0  0  0  0  0  0  0  0  0  0  0  0
  1 14  1  0
  2 14  1  0
  3 13  1  0
  3 15  1  0
  4 13  2  0
  5 20  1  0
  5 23  1  0
  6 17  3  0
  7  8  1  0
  7  9  1  0
  7 10  1  0
  7 11  1  0
  8  9  1  0
  8 12  1  0
  9 13  1  0
 12 14  2  3
 15 16  1  0
 15 17  1  0
 16 18  2  0
 16 19  1  0
 18 20  1  0
 19 21  2  0
 20 22  2  0
 21 22  1  0
 23 24  2  0
 23 25  1  0
 24 26  1  0
 25 27  2  0
 26 28  2  0
 27 28  1  0
M  END
>  <PUBCHEM_COMPOUND_CID>  (1) 
2982

>  <PUBCHEM_CONFORMER_RMSD>  (1) 
1.4

>  <PUBCHEM_CONFORMER_DIVERSEORDER>  (1) 
1
30
55
36
10
196
78
65
46
57
184
157
125
123
106
90
28
97
98
72
119
81
99
136
33
175
7
35
25
161
3
167
118
86
75
58
37
44
26
124
130
13
77
221
54
94
20
233
79
11
18
101
142
85
239
197
160
218
116
186
41
169
140
156
29
92
47
82
168
16
219
102
56
114
110
39
62
145
166
42
220
104
135
84
158
180
150
34
171
133
200
73
181
173
207
155
49
52
128
108
2
151
93
137
100
88
103
183
237
63
147
193
199
111
129
117
50
80
51
148
240
191
17
213
190
222
141
139
9
83
224
12
14
64
188
178
126
206
67
177
165
122
105
223
19
164
68
70
230
189
22
154
66
38
74
170
32
31
149
208
43
4
143
138
6
238
40
229
134
15
179
162
109
209
204
95
5
192
163
107
227
195
216
115
59
152
234
27
127
53
226
214
24
212
61
215
198
91
48
60
187
120
205
172
211
76
96
231
121
21
8
235
159
153
228
225
146
217
112
185
87
176
113
132
45
210
23
144
174
71
203
182
236
69
201
89
194
131
232
202

>  <PUBCHEM_MMFF94_PARTIAL_CHARGES>  (1) 
40
1 -0.11
10 0.09
11 0.09
12 -0.19
13 0.72
14 0.22
15 0.62
16 -0.14
17 0.36
18 -0.15
19 -0.15
2 -0.11
20 0.08
21 -0.15
22 -0.15
23 0.08
24 -0.15
25 -0.15
26 -0.15
27 -0.15
28 -0.15
29 0.1
3 -0.43
30 0.1
37 0.15
39 0.15
4 -0.57
40 0.15
41 0.15
42 0.15
43 0.15
44 0.15
45 0.15
46 0.15
47 0.15
5 -0.17
6 -0.56
7 -0.19
8 -0.06
9 -0.1

>  <PUBCHEM_EFFECTIVE_ROTOR_COUNT>  (1) 
7.6

>  <PUBCHEM_PHARMACOPHORE_FEATURES>  (1) 
9
1 1 hydrophobe
1 2 hydrophobe
1 4 acceptor
1 5 acceptor
1 6 acceptor
3 1 2 14 hydrophobe
3 7 10 11 hydrophobe
6 16 18 19 20 21 22 rings
6 23 24 25 26 27 28 rings

>  <PUBCHEM_HEAVY_ATOM_COUNT>  (1) 
28

>  <PUBCHEM_ATOM_DEF_STEREO_COUNT>  (1) 
0

>  <PUBCHEM_ATOM_UDEF_STEREO_COUNT>  (1) 
3

>  <PUBCHEM_BOND_DEF_STEREO_COUNT>  (1) 
0

>  <PUBCHEM_BOND_UDEF_STEREO_COUNT>  (1) 
0

>  <PUBCHEM_ISOTOPIC_ATOM_COUNT>  (1) 
0

>  <PUBCHEM_COMPONENT_COUNT>  (1) 
1

>  <PUBCHEM_CACTVS_TAUTO_COUNT>  (1) 
1

>  <PUBCHEM_CONFORMER_ID>  (1) 
00000BA600000001

>  <PUBCHEM_MMFF94_ENERGY>  (1) 
75.6768

>  <PUBCHEM_FEATURE_SELFOVERLAP>  (1) 
47.147

>  <PUBCHEM_SHAPE_FINGERPRINT>  (1) 
10439779 11 17975958883444061440
10670039 82 18264501585396722878
11112241 14 16697789049705748769
11513181 2 18201725071649899455
12038231 1 18337105765103705464
12539773 59 15971554537184904941
12978246 48 18409727327207590616
13122387 1 17546722656168638400
13140716 1 18409732833239853433
13402501 40 18123469650936610368
14114211 80 18053127251871353961
14725015 67 18263068951388027891
15210252 30 17900549174816850284
19930381 70 18336825415576893817
20764821 26 17254558716822790124
20775438 99 16976686754371126663
22113638 7 18266735955784350885
23559900 14 18266165158762227488
25265897 201 17267546045111809174
350125 39 18408041823491002944
463206 1 17619070976622142337
469060 322 18335998471332364915
6433294 58 18411133679810494672

>  <PUBCHEM_SHAPE_MULTIPOLES>  (1) 
565.52
9.02
6.45
1.35
1.9
2.25
-0.43
-0.28
0.18
0.84
-0.6
0.6
0.16
0.05

>  <PUBCHEM_SHAPE_SELFOVERLAP>  (1) 
1181.147

>  <PUBCHEM_SHAPE_VOLUME>  (1) 
327.6

>  <PUBCHEM_COORDINATE_TYPE>  (1) 
2
5
10

$$$$
