29820
     RDKit          3D

 23 25  0  0  0  0  0  0  0  0999 V2000
    4.8205   -1.8491   -1.3610 O   0  0  0  0  0  0  0  0  0  0  0  0
   -0.6241   -0.1983   -0.1095 N   0  0  0  0  0  0  0  0  0  0  0  0
    1.0846    0.9971    0.1643 C   0  0  0  0  0  0  0  0  0  0  0  0
   -0.1722    0.6887    0.9902 C   0  0  0  0  0  0  0  0  0  0  0  0
    0.2224    0.5894   -1.0388 C   0  0  0  0  0  0  0  0  0  0  0  0
    1.5081    2.4599    0.1762 C   0  0  0  0  0  0  0  0  0  0  0  0
    2.3405    0.1554    0.4495 C   0  0  0  0  0  0  0  0  0  0  0  0
   -2.0344    0.0260   -0.3953 C   0  0  0  0  0  0  0  0  0  0  0  0
    2.5437    2.7190   -0.9153 C   0  0  0  0  0  0  0  0  0  0  0  0
   -2.9220   -0.8161    0.5234 C   0  0  0  0  0  0  0  0  0  0  0  0
    3.0236   -0.4765   -0.5971 C   0  0  0  0  0  0  0  0  0  0  0  0
    2.8142    0.0120    1.7597 C   0  0  0  0  0  0  0  0  0  0  0  0
    3.0138    4.1642   -0.9079 C   0  0  0  0  0  0  0  0  0  0  0  0
    4.1621   -1.2395   -0.3379 C   0  0  0  0  0  0  0  0  0  0  0  0
   -4.3846   -0.6067    0.2182 C   0  0  0  0  0  0  0  0  0  0  0  0
    3.9527   -0.7510    2.0191 C   0  0  0  0  0  0  0  0  0  0  0  0
    4.6266   -1.3768    0.9702 C   0  0  0  0  0  0  0  0  0  0  0  0
   -5.0805    0.3948    0.8775 C   0  0  0  0  0  0  0  0  0  0  0  0
   -5.0077   -1.4196   -0.7161 C   0  0  0  0  0  0  0  0  0  0  0  0
   -6.4328    0.5882    0.5957 C   0  0  0  0  0  0  0  0  0  0  0  0
   -6.3600   -1.2261   -0.9980 C   0  0  0  0  0  0  0  0  0  0  0  0
   -7.0726   -0.2222   -0.3420 C   0  0  0  0  0  0  0  0  0  0  0  0
    5.9780   -2.6129   -1.0250 C   0  0  0  0  0  0  0  0  0  0  0  0
  1 14  1  0
  1 23  1  0
  2  4  1  0
  2  5  1  0
  2  8  1  0
  3  4  1  0
  3  5  1  0
  3  6  1  0
  3  7  1  0
  6  9  1  0
  7 11  2  0
  7 12  1  0
  8 10  1  0
  9 13  1  0
 10 15  1  0
 11 14  1  0
 12 16  2  0
 14 17  2  0
 15 18  2  0
 15 19  1  0
 16 17  1  0
 18 20  1  0
 19 21  2  0
 20 22  2  0
 21 22  1  0
M  END
>  <PUBCHEM_COMPOUND_CID>  (1) 
29820

>  <PUBCHEM_CONFORMER_RMSD>  (1) 
0.8

>  <PUBCHEM_CONFORMER_DIVERSEORDER>  (1) 
1
59
44
52
14
41
60
37
63
26
64
19
46
56
58
16
3
49
34
61
13
17
22
35
45
31
28
47
23
7
66
57
33
30
18
40
65
29
43
51
55
24
4
12
20
48
25
32
10
36
62
53
8
50
27
38
6
54
9
39
42
15
21
11
2
5

>  <PUBCHEM_MMFF94_PARTIAL_CHARGES>  (1) 
29
1 -0.36
10 0.14
11 -0.15
12 -0.15
14 0.08
15 -0.14
16 -0.15
17 -0.15
18 -0.15
19 -0.15
2 -0.69
20 -0.15
21 -0.15
22 -0.15
23 0.28
3 0.11
36 0.15
37 0.15
4 0.21
41 0.15
42 0.15
43 0.15
44 0.15
45 0.15
46 0.15
47 0.15
5 0.21
7 -0.11
8 0.27

>  <PUBCHEM_EFFECTIVE_ROTOR_COUNT>  (1) 
7.8

>  <PUBCHEM_PHARMACOPHORE_FEATURES>  (1) 
6
1 1 acceptor
1 13 hydrophobe
1 2 cation
4 2 3 4 5 rings
6 15 18 19 20 21 22 rings
6 7 11 12 14 16 17 rings

>  <PUBCHEM_HEAVY_ATOM_COUNT>  (1) 
23

>  <PUBCHEM_ATOM_DEF_STEREO_COUNT>  (1) 
0

>  <PUBCHEM_ATOM_UDEF_STEREO_COUNT>  (1) 
0

>  <PUBCHEM_BOND_DEF_STEREO_COUNT>  (1) 
0

>  <PUBCHEM_BOND_UDEF_STEREO_COUNT>  (1) 
0

>  <PUBCHEM_ISOTOPIC_ATOM_COUNT>  (1) 
0

>  <PUBCHEM_COMPONENT_COUNT>  (1) 
1

>  <PUBCHEM_CACTVS_TAUTO_COUNT>  (1) 
1

>  <PUBCHEM_CONFORMER_ID>  (1) 
0000747C00000001

>  <PUBCHEM_MMFF94_ENERGY>  (1) 
72.9735

>  <PUBCHEM_FEATURE_SELFOVERLAP>  (1) 
30.447

>  <PUBCHEM_SHAPE_FINGERPRINT>  (1) 
10554248 39 18341883130953504749
10721379 63 18335150833988936140
10912923 1 18270120240417737217
11135609 187 17975711790224803228
11405975 8 18260829354051268675
11796584 16 18259704523201496747
12166972 35 18202566172449612177
12596602 18 17131826569165477259
12616971 3 18341336660884374209
13533116 47 17775563152111172250
13540713 4 17606137305242781842
1361 4 18050004691238501303
13914758 101 18339913841588386357
14211702 104 18129658737992678167
14366163 111 13045942395501974986
14739800 52 17844239846852647193
14848160 23 17275099527429463451
15183329 4 18040997315641395371
15475509 35 18058158424699150634
1577012 14 18271811272358978621
15788980 27 18272934947203528819
17844677 252 18113891668140434941
1813 80 18410571756659614472
18222031 100 18411702062976121034
19489759 90 17775282760415565091
20369508 70 17967805063946766880
20388580 30 18411707582320332772
20645477 70 18334574697783652591
20771845 65 18202567255161295760
23016692 55 18260268516778969654
23081809 10 17988364871225542429
23559900 14 18412263977594465323
23569943 247 18124598574601358011
29717793 49 18411695509182906063
3004659 81 18413671322545018737
338550 245 18060133288672531103
3411729 13 18189051078880168664
34797466 226 13407079172000247611
4073 2 17751363004616101771
465052 167 18342744026239340415
5104073 3 18261958565588860969
54076057 127 18191319358124205185
543368 44 11169917186991588751
59755656 215 18337668616879585999
633830 44 18188483692225114963
6913067 236 12535343472513985019
90127 26 17749103418475523597
960060 61 16950280706518103514
9841814 1 18114454626504287008
9971528 1 18343861130037050697

>  <PUBCHEM_SHAPE_MULTIPOLES>  (1) 
462.48
16.77
2.89
1.42
24.99
3.19
-0.35
-9.33
1.98
-5.88
1.37
-1.41
-0.28
-0.63

>  <PUBCHEM_SHAPE_SELFOVERLAP>  (1) 
975.041

>  <PUBCHEM_SHAPE_VOLUME>  (1) 
262.7

>  <PUBCHEM_COORDINATE_TYPE>  (1) 
2
5
10

$$$$
