29838
     RDKit          3D

 10  9  0  0  0  0  0  0  0  0999 V2000
    0.0338   -0.1401    1.5314 O   0  0  0  0  0  0  0  0  0  0  0  0
    2.3934   -0.7761   -0.0071 C   0  0  0  0  0  0  0  0  0  0  0  0
    1.0257   -1.4067   -0.2664 C   0  0  0  0  0  0  0  0  0  0  0  0
    2.4850    0.6552   -0.5415 C   0  0  0  0  0  0  0  0  0  0  0  0
   -0.1073   -0.6818    0.4387 C   0  0  0  0  0  0  0  0  0  0  0  0
    3.8764    1.2347   -0.3403 C   0  0  0  0  0  0  0  0  0  0  0  0
   -1.4294   -0.7266   -0.2495 C   0  0  0  0  0  0  0  0  0  0  0  0
   -2.3652    0.2372   -0.1893 C   0  0  0  0  0  0  0  0  0  0  0  0
   -3.6784    0.0527   -0.9041 C   0  0  0  0  0  0  0  0  0  0  0  0
   -2.2339    1.5515    0.5282 C   0  0  0  0  0  0  0  0  0  0  0  0
  1  5  2  0
  2  3  1  0
  2  4  1  0
  3  5  1  0
  4  6  1  0
  5  7  1  0
  7  8  2  3
  8  9  1  0
  8 10  1  0
M  END
>  <PUBCHEM_COMPOUND_CID>  (1) 
29838

>  <PUBCHEM_CONFORMER_RMSD>  (1) 
0.6

>  <PUBCHEM_CONFORMER_DIVERSEORDER>  (1) 
1
64
7
18
49
63
13
27
2
35
61
25
65
59
37
31
53
48
58
42
14
52
11
55
23
50
40
54
38
17
6
19
56
57
34
39
47
43
66
4
41
5
67
9
45
22
30
10
62
36
12
3
16
44
28
46
21
51
8
15
60
29
26
32
20
24
33

>  <PUBCHEM_MMFF94_PARTIAL_CHARGES>  (1) 
8
1 -0.57
10 0.14
20 0.15
3 0.06
5 0.49
7 -0.14
8 -0.28
9 0.14

>  <PUBCHEM_EFFECTIVE_ROTOR_COUNT>  (1) 
4

>  <PUBCHEM_PHARMACOPHORE_FEATURES>  (1) 
3
1 1 acceptor
1 6 hydrophobe
3 8 9 10 hydrophobe

>  <PUBCHEM_HEAVY_ATOM_COUNT>  (1) 
10

>  <PUBCHEM_ATOM_DEF_STEREO_COUNT>  (1) 
0

>  <PUBCHEM_ATOM_UDEF_STEREO_COUNT>  (1) 
0

>  <PUBCHEM_BOND_DEF_STEREO_COUNT>  (1) 
0

>  <PUBCHEM_BOND_UDEF_STEREO_COUNT>  (1) 
0

>  <PUBCHEM_ISOTOPIC_ATOM_COUNT>  (1) 
0

>  <PUBCHEM_COMPONENT_COUNT>  (1) 
1

>  <PUBCHEM_CACTVS_TAUTO_COUNT>  (1) 
5

>  <PUBCHEM_CONFORMER_ID>  (1) 
0000748E00000001

>  <PUBCHEM_MMFF94_ENERGY>  (1) 
8.7717

>  <PUBCHEM_FEATURE_SELFOVERLAP>  (1) 
15.223

>  <PUBCHEM_SHAPE_FINGERPRINT>  (1) 
10149128 111 18259993694833077900
10857977 72 14924243589926275711
12162725 195 18410573946681374836
12251169 10 11386365937110680791
12897270 3 18273213114211305223
12932764 1 16988552486025357071
14390081 3 18408326579163162806
14897335 6 18335416893989943286
15310529 11 18131348575167067711
15775835 57 18411989048190351988
170605 34 18113897152148714994
18186145 218 18114188484096475542
20653085 51 18268446641110609098
20711983 171 17988083279525397477
20711985 344 14116692916519591434
21293036 1 16988842808523758870
22169311 14 13479132414856262868
22485316 2 10231761063406883452
230 275 17385732356966144774
23552423 10 17913773812722851671
305870 269 17603578600077762738
3248919 1 18339637841661418931

>  <PUBCHEM_SHAPE_MULTIPOLES>  (1) 
199.93
6.18
1.43
0.97
1.18
0.2
0.19
2.52
-1.85
0.41
0.03
-0.25
0.03
-0.41

>  <PUBCHEM_SHAPE_SELFOVERLAP>  (1) 
367.874

>  <PUBCHEM_SHAPE_VOLUME>  (1) 
127

>  <PUBCHEM_COORDINATE_TYPE>  (1) 
2
5
10

$$$$
