29846
     RDKit          3D

  9  8  0  0  0  0  0  0  0  0999 V2000
    0.0528    1.6697   -1.1543 O   0  0  0  0  0  0  0  0  0  0  0  0
   -0.0346    1.7594    1.0980 O   0  0  0  0  0  0  0  0  0  0  0  0
   -0.0004   -0.4490    0.0354 C   0  0  0  0  0  0  0  0  0  0  0  0
    1.2801   -0.9578   -0.6920 C   0  0  0  0  0  0  0  0  0  0  0  0
   -1.2641   -0.9498   -0.7202 C   0  0  0  0  0  0  0  0  0  0  0  0
   -0.0360   -1.0031    1.4745 C   0  0  0  0  0  0  0  0  0  0  0  0
   -0.0059    1.0895    0.0719 C   0  0  0  0  0  0  0  0  0  0  0  0
    2.6056   -0.5846   -0.0320 C   0  0  0  0  0  0  0  0  0  0  0  0
   -2.5974   -0.5742   -0.0813 C   0  0  0  0  0  0  0  0  0  0  0  0
  1  7  1  0
  2  7  2  0
  3  4  1  0
  3  5  1  0
  3  6  1  0
  3  7  1  0
  4  8  1  0
  5  9  1  0
M  END
>  <PUBCHEM_COMPOUND_CID>  (1) 
29846

>  <PUBCHEM_CONFORMER_RMSD>  (1) 
0.6

>  <PUBCHEM_CONFORMER_DIVERSEORDER>  (1) 
1
5
6
2
4
7
3

>  <PUBCHEM_MMFF94_PARTIAL_CHARGES>  (1) 
5
1 -0.65
2 -0.57
23 0.5
3 0.06
7 0.66

>  <PUBCHEM_EFFECTIVE_ROTOR_COUNT>  (1) 
3

>  <PUBCHEM_PHARMACOPHORE_FEATURES>  (1) 
6
1 1 acceptor
1 2 acceptor
1 6 hydrophobe
1 8 hydrophobe
1 9 hydrophobe
3 1 2 7 anion

>  <PUBCHEM_HEAVY_ATOM_COUNT>  (1) 
9

>  <PUBCHEM_ATOM_DEF_STEREO_COUNT>  (1) 
0

>  <PUBCHEM_ATOM_UDEF_STEREO_COUNT>  (1) 
0

>  <PUBCHEM_BOND_DEF_STEREO_COUNT>  (1) 
0

>  <PUBCHEM_BOND_UDEF_STEREO_COUNT>  (1) 
0

>  <PUBCHEM_ISOTOPIC_ATOM_COUNT>  (1) 
0

>  <PUBCHEM_COMPONENT_COUNT>  (1) 
1

>  <PUBCHEM_CACTVS_TAUTO_COUNT>  (1) 
1

>  <PUBCHEM_CONFORMER_ID>  (1) 
0000749600000001

>  <PUBCHEM_MMFF94_ENERGY>  (1) 
15.3102

>  <PUBCHEM_FEATURE_SELFOVERLAP>  (1) 
30.51

>  <PUBCHEM_SHAPE_FINGERPRINT>  (1) 
12423570 1 15654127153737518379
13024252 1 16951427437295698574
137420 1 11116943381730521199
14128692 85 17701820105526888719
16945 1 18343865515182737991
20653085 51 15285927905386647246
20653091 64 18263646341169398947
21040471 1 17259617574296132613
29004967 10 18343024410262676514
5084963 1 17179436303115778190
5943 1 12905729580288209979

>  <PUBCHEM_SHAPE_MULTIPOLES>  (1) 
173.48
2.59
1.66
1.19
0.03
0.88
0.28
-1.1
-0.36
0
0.04
-0.01
0.03
-0.02

>  <PUBCHEM_SHAPE_SELFOVERLAP>  (1) 
322.379

>  <PUBCHEM_SHAPE_VOLUME>  (1) 
109.7

>  <PUBCHEM_COORDINATE_TYPE>  (1) 
2
5
10

$$$$
