2984
     RDKit          3D

 23 24  0  0  0  0  0  0  0  0999 V2000
    2.3600   -1.6986    0.9316 O   0  0  0  0  0  0  0  0  0  0  0  0
   -2.2864   -1.0811    0.7249 O   0  0  0  0  0  0  0  0  0  0  0  0
   -2.9256    1.6528   -1.9233 O   0  0  0  0  0  0  0  0  0  0  0  0
    1.5495    0.4743    0.7421 N   0  0  0  0  0  0  0  0  0  0  0  0
    0.0370   -1.4154    0.8311 N   0  0  0  0  0  0  0  0  0  0  0  0
   -1.6693    1.8393    0.5285 N   0  0  0  0  0  0  0  0  0  0  0  0
    0.4091    2.6460    0.5404 N   0  0  0  0  0  0  0  0  0  0  0  0
   -0.8410    0.7594    0.6373 C   0  0  0  0  0  0  0  0  0  0  0  0
    0.4241    1.2807    0.6425 C   0  0  0  0  0  0  0  0  0  0  0  0
    2.8768    1.0767    0.7430 C   0  0  0  0  0  0  0  0  0  0  0  0
   -0.1430   -2.8599    0.9339 C   0  0  0  0  0  0  0  0  0  0  0  0
    1.3950   -0.9311    0.8414 C   0  0  0  0  0  0  0  0  0  0  0  0
   -1.1435   -0.6321    0.7312 C   0  0  0  0  0  0  0  0  0  0  0  0
    3.4553    1.2118   -0.6616 C   0  0  0  0  0  0  0  0  0  0  0  0
   -0.1663   -3.5419   -0.4300 C   0  0  0  0  0  0  0  0  0  0  0  0
    4.8603    1.8187   -0.6629 C   0  0  0  0  0  0  0  0  0  0  0  0
   -3.1118    1.8392    0.4786 C   0  0  0  0  0  0  0  0  0  0  0  0
   -0.8702    2.9521    0.4734 C   0  0  0  0  0  0  0  0  0  0  0  0
   -0.3826   -5.0534   -0.3279 C   0  0  0  0  0  0  0  0  0  0  0  0
    5.4349    1.8854   -2.0694 C   0  0  0  0  0  0  0  0  0  0  0  0
   -0.4613   -5.6971   -1.7035 C   0  0  0  0  0  0  0  0  0  0  0  0
   -3.6503    1.7358   -0.9326 C   0  0  0  0  0  0  0  0  0  0  0  0
   -5.1507    1.7382   -1.0687 C   0  0  0  0  0  0  0  0  0  0  0  0
  1 12  2  0
  2 13  2  0
  3 22  2  0
  4  9  1  0
  4 10  1  0
  4 12  1  0
  5 11  1  0
  5 12  1  0
  5 13  1  0
  6  8  1  0
  6 17  1  0
  6 18  1  0
  7  9  1  0
  7 18  2  0
  8  9  2  0
  8 13  1  0
 10 14  1  0
 11 15  1  0
 14 16  1  0
 15 19  1  0
 16 20  1  0
 17 22  1  0
 19 21  1  0
 22 23  1  0
M  END
>  <PUBCHEM_COMPOUND_CID>  (1) 
2984

>  <PUBCHEM_CONFORMER_RMSD>  (1) 
0.8

>  <PUBCHEM_CONFORMER_DIVERSEORDER>  (1) 
1
196
206
131
74
223
176
232
238
83
136
236
255
254
222
228
100
102
234
256
242
213
185
202
214
148
194
179
207
80
166
59
233
226
243
211
29
107
246
168
127
174
34
205
249
181
129
186
103
81
143
231
251
58
216
164
76
104
210
245
3
175
221
118
253
217
116
177
48
259
124
192
108
13
208
257
31
56
117
182
180
96
155
227
197
123
170
47
60
37
153
247
201
79
121
169
188
53
150
10
225
184
241
230
183
142
41
252
78
219
54
157
130
71
239
220
204
141
199
212
144
111
167
115
88
27
191
69
187
28
193
235
42
151
73
99
171
178
4
203
165
45
162
89
244
190
113
90
152
209
114
105
229
132
57
95
240
93
119
98
258
94
20
163
195
77
237
138
215
109
250
149
159
125
40
248
110
137
101
9
7
224
154
134
26
50
70
140
120
91
133
161
128
160
52
218
200
23
106
146
75
5
145
36
68
11
61
32
66
173
30
82
63
126
85
8
16
62
92
18
189
72
156
22
14
139
24
172
84
44
6
97
198
135
2
86
112
147
25
87
49
64
46
35
158
12
15
39
122
33
38
67
55
17
65
21
51
43
19

>  <PUBCHEM_MMFF94_PARTIAL_CHARGES>  (1) 
18
1 -0.57
10 0.3
11 0.3
12 0.69
13 0.71
17 0.32
18 0.04
2 -0.57
22 0.45
23 0.06
3 -0.57
36 0.15
4 -0.42
5 -0.42
6 0.05
7 -0.57
8 -0.24
9 0.29

>  <PUBCHEM_EFFECTIVE_ROTOR_COUNT>  (1) 
8

>  <PUBCHEM_PHARMACOPHORE_FEATURES>  (1) 
8
1 1 acceptor
1 2 acceptor
1 20 hydrophobe
1 21 hydrophobe
1 3 acceptor
3 6 7 18 cation
5 6 7 8 9 18 rings
6 4 5 8 9 12 13 rings

>  <PUBCHEM_HEAVY_ATOM_COUNT>  (1) 
23

>  <PUBCHEM_ATOM_DEF_STEREO_COUNT>  (1) 
0

>  <PUBCHEM_ATOM_UDEF_STEREO_COUNT>  (1) 
0

>  <PUBCHEM_BOND_DEF_STEREO_COUNT>  (1) 
0

>  <PUBCHEM_BOND_UDEF_STEREO_COUNT>  (1) 
0

>  <PUBCHEM_ISOTOPIC_ATOM_COUNT>  (1) 
0

>  <PUBCHEM_COMPONENT_COUNT>  (1) 
1

>  <PUBCHEM_CACTVS_TAUTO_COUNT>  (1) 
3

>  <PUBCHEM_CONFORMER_ID>  (1) 
00000BA800000001

>  <PUBCHEM_MMFF94_ENERGY>  (1) 
20.8647

>  <PUBCHEM_FEATURE_SELFOVERLAP>  (1) 
40.711

>  <PUBCHEM_SHAPE_FINGERPRINT>  (1) 
11069576 57 17765681695589532751
11477941 20 16684020458650232606
13140716 1 18337384933624586443
13257819 37 18335150816180624527
13583140 156 16588589673623991224
13899415 180 17332234811553405022
13911987 19 18335424564670334485
14251757 5 18194966480937638918
14863182 85 18125700332168760595
16945 1 18193550301333900320
17539 30 18051412069851655590
20602899 9 18343590637529229272
21344244 181 18200888317468314214
22849339 104 18196673967135526692
23114952 82 17828194407501423277
2334 1 18409444799636851707
23558518 356 17829611660609401545
23559900 14 18050271588166768696
23566358 27 17836092173959591153
23598288 3 18189051057325945130
2748010 2 18409451370926258587
3057174 1 18337951190718916006
352729 6 18337388223527531866
394222 165 17822282432146984560
46194498 28 17754158801025438533
58779409 8 18338516468665651124

>  <PUBCHEM_SHAPE_MULTIPOLES>  (1) 
435.8
7.5
6.45
1.5
7.38
13.21
0.73
-8.9
5.38
-4.86
2.67
0.33
0.1
-0.36

>  <PUBCHEM_SHAPE_SELFOVERLAP>  (1) 
892.644

>  <PUBCHEM_SHAPE_VOLUME>  (1) 
252.5

>  <PUBCHEM_COORDINATE_TYPE>  (1) 
2
5
10

$$$$
