29842
     RDKit          3D

 18 18  0  0  0  0  0  0  0  0999 V2000
    3.1090    0.1980   -0.4430 O   0  0  0  0  0  0  0  0  0  0  0  0
    0.9813    0.5879   -0.9870 O   0  0  0  0  0  0  0  0  0  0  0  0
    1.4805   -0.3223    1.1032 O   0  0  0  0  0  0  0  0  0  0  0  0
   -5.0803   -1.7192   -0.3131 O   0  0  0  0  0  0  0  0  0  0  0  0
   -4.3800    0.4090    0.4209 N   0  0  0  0  0  0  0  0  0  0  0  0
    5.4753   -0.0819   -0.2083 C   0  0  0  0  0  0  0  0  0  0  0  0
    6.6063   -0.5637    0.6959 C   0  0  0  0  0  0  0  0  0  0  0  0
    4.1152   -0.2533    0.4530 C   0  0  0  0  0  0  0  0  0  0  0  0
    7.9590   -0.4307    0.0151 C   0  0  0  0  0  0  0  0  0  0  0  0
   -3.0311    0.4538    0.0672 C   0  0  0  0  0  0  0  0  0  0  0  0
   -0.3693    0.5423   -0.6311 C   0  0  0  0  0  0  0  0  0  0  0  0
   -2.4415   -0.6362   -0.5729 C   0  0  0  0  0  0  0  0  0  0  0  0
   -2.2723    1.5887    0.3537 C   0  0  0  0  0  0  0  0  0  0  0  0
   -1.0930   -0.5913   -0.9267 C   0  0  0  0  0  0  0  0  0  0  0  0
   -0.9238    1.6335   -0.0001 C   0  0  0  0  0  0  0  0  0  0  0  0
    1.8212    0.1085    0.0087 C   0  0  0  0  0  0  0  0  0  0  0  0
   -5.2936   -0.6339    0.2173 C   0  0  0  0  0  0  0  0  0  0  0  0
   -6.6629   -0.2891    0.7471 C   0  0  0  0  0  0  0  0  0  0  0  0
  1  8  1  0
  1 16  1  0
  2 11  1  0
  2 16  1  0
  3 16  2  0
  4 17  2  0
  5 10  1  0
  5 17  1  0
  6  7  1  0
  6  8  1  0
  7  9  1  0
 10 12  2  0
 10 13  1  0
 11 14  2  0
 11 15  1  0
 12 14  1  0
 13 15  2  0
 17 18  1  0
M  END
>  <PUBCHEM_COMPOUND_CID>  (1) 
29842

>  <PUBCHEM_CONFORMER_RMSD>  (1) 
0.8

>  <PUBCHEM_CONFORMER_DIVERSEORDER>  (1) 
1
39
104
36
26
70
79
75
74
90
55
76
67
10
16
63
35
109
100
92
91
94
9
65
93
61
47
96
12
52
68
108
80
72
82
83
13
58
40
78
87
28
46
18
37
24
56
38
6
51
60
99
101
59
66
57
22
84
19
95
105
34
17
85
106
4
11
29
64
49
33
107
2
86
53
8
42
32
69
7
45
98
73
102
30
21
27
54
14
77
25
81
62
5
48
97
71
41
31
15
89
44
43
20
88
23
103
3
50

>  <PUBCHEM_MMFF94_PARTIAL_CHARGES>  (1) 
20
1 -0.43
10 0.12
11 0.08
12 -0.15
13 -0.15
14 -0.15
15 -0.15
16 0.87
17 0.57
18 0.06
2 -0.23
28 0.15
29 0.15
3 -0.57
30 0.15
31 0.15
32 0.37
4 -0.57
5 -0.55
8 0.28

>  <PUBCHEM_EFFECTIVE_ROTOR_COUNT>  (1) 
8

>  <PUBCHEM_PHARMACOPHORE_FEATURES>  (1) 
4
1 4 acceptor
1 5 donor
1 9 hydrophobe
6 10 11 12 13 14 15 rings

>  <PUBCHEM_HEAVY_ATOM_COUNT>  (1) 
18

>  <PUBCHEM_ATOM_DEF_STEREO_COUNT>  (1) 
0

>  <PUBCHEM_ATOM_UDEF_STEREO_COUNT>  (1) 
0

>  <PUBCHEM_BOND_DEF_STEREO_COUNT>  (1) 
0

>  <PUBCHEM_BOND_UDEF_STEREO_COUNT>  (1) 
0

>  <PUBCHEM_ISOTOPIC_ATOM_COUNT>  (1) 
0

>  <PUBCHEM_COMPONENT_COUNT>  (1) 
1

>  <PUBCHEM_CACTVS_TAUTO_COUNT>  (1) 
2

>  <PUBCHEM_CONFORMER_ID>  (1) 
0000749200000001

>  <PUBCHEM_MMFF94_ENERGY>  (1) 
43.5577

>  <PUBCHEM_FEATURE_SELFOVERLAP>  (1) 
20.297

>  <PUBCHEM_SHAPE_FINGERPRINT>  (1) 
106641 1 17775566472489923123
10968037 39 18259703401966540530
11089746 13 10303806584355286226
11315181 36 18334296465565623473
12091667 2 17095525071819188197
12236239 1 18187086152484288844
12670543 26 12324231759112118968
12714333 28 9151173155941924334
13073987 5 18200312101104382234
13288520 33 18334857221128061437
13533116 47 17458335305135878962
13668630 136 16877662349250527674
13862211 1 18411981399280787935
13964095 4 10737284641232600408
13968360 50 13767919110138702488
14123256 10 15285357319139304130
1420 363 18410576184660094314
14251764 18 15626219130647666244
14251764 46 18411138030321552447
14350574 20 17821445764370471308
14729087 3 9799690390098119398
14911166 2 11746937607697863901
15048467 5 10807934860323671490
15183329 4 8070032164052951550
15716309 27 18410855464797798886
17834072 8 11169914991434709654
18006028 8 18411980269635843061
187816 3 12612752419561369989
200 152 17095239216028511677
20281389 69 12463572859405882994
20735858 18 17989491827177596247
21150785 3 15647055971849089230
21267235 1 18408327683333871636
21304253 13 17632859732997838337
22224240 67 16845569820722236487
2297311 6 18130512959589581500
23035841 295 18260830409969807371
23402539 116 18202560696745734437
23559900 14 16588597537777571093
34797466 226 17918001598958033468
3545911 37 17489586745511935964
4325135 7 17313104146822448202
5104073 3 17773605914118676226
57583515 80 10953459622459290960

>  <PUBCHEM_SHAPE_MULTIPOLES>  (1) 
341.97
18.3
1.2
0.89
21.29
0.21
0
-6.25
4.13
-1.33
-0.03
-0.01
-0.04
-0.37

>  <PUBCHEM_SHAPE_SELFOVERLAP>  (1) 
691.625

>  <PUBCHEM_SHAPE_VOLUME>  (1) 
196.9

>  <PUBCHEM_COORDINATE_TYPE>  (1) 
2
5
10

$$$$
