29840
     RDKit          3D

 12 13  0  0  1  0  0  0  0  0999 V2000
    1.1830   -1.3242   -0.0502 O   0  0  0  0  0  0  0  0  0  0  0  0
    4.1538    0.9044    0.0468 N   0  0  0  0  0  0  0  0  0  0  0  0
    1.9851   -0.1626   -0.3907 C   0  0  0  0  0  0  0  0  0  0  0  0
    1.1924    1.1063   -0.0406 C   0  0  0  0  0  0  0  0  0  0  0  0
   -0.1746    0.5395   -0.0493 C   0  0  0  0  0  0  0  0  0  0  0  0
   -0.1016   -0.8447   -0.0288 C   0  0  0  0  0  0  0  0  0  0  0  0
    3.3103   -0.2449    0.3490 C   0  0  0  0  0  0  0  0  0  0  0  0
   -1.3965    1.1861   -0.0150 C   0  0  0  0  0  0  0  0  0  0  0  0
   -1.2322   -1.6363    0.0295 C   0  0  0  0  0  0  0  0  0  0  0  0
   -2.5547    0.4056    0.0309 C   0  0  0  0  0  0  0  0  0  0  0  0
   -2.4729   -0.9967    0.0545 C   0  0  0  0  0  0  0  0  0  0  0  0
   -3.8922    1.0677    0.0639 C   0  0  0  0  0  0  0  0  0  0  0  0
  1  3  1  0
  1  6  1  0
  2  7  1  0
  3  4  1  0
  3  7  1  0
  4  5  1  0
  5  6  2  0
  5  8  1  0
  6  9  1  0
  8 10  2  0
  9 11  2  0
 10 11  1  0
 10 12  1  0
M  END
>  <PUBCHEM_COMPOUND_CID>  (1) 
29840

>  <PUBCHEM_CONFORMER_RMSD>  (1) 
0.4

>  <PUBCHEM_CONFORMER_DIVERSEORDER>  (1) 
1
4
3
2
5

>  <PUBCHEM_MMFF94_PARTIAL_CHARGES>  (1) 
17
1 -0.36
10 -0.14
11 -0.15
12 0.14
18 0.15
19 0.15
2 -0.99
20 0.15
21 0.36
22 0.36
3 0.28
4 0.14
5 -0.14
6 0.08
7 0.27
8 -0.15
9 -0.15

>  <PUBCHEM_EFFECTIVE_ROTOR_COUNT>  (1) 
1.6

>  <PUBCHEM_PHARMACOPHORE_FEATURES>  (1) 
5
1 1 acceptor
1 2 cation
1 2 donor
5 1 3 4 5 6 rings
6 5 6 8 9 10 11 rings

>  <PUBCHEM_HEAVY_ATOM_COUNT>  (1) 
12

>  <PUBCHEM_ATOM_DEF_STEREO_COUNT>  (1) 
0

>  <PUBCHEM_ATOM_UDEF_STEREO_COUNT>  (1) 
1

>  <PUBCHEM_BOND_DEF_STEREO_COUNT>  (1) 
0

>  <PUBCHEM_BOND_UDEF_STEREO_COUNT>  (1) 
0

>  <PUBCHEM_ISOTOPIC_ATOM_COUNT>  (1) 
0

>  <PUBCHEM_COMPONENT_COUNT>  (1) 
1

>  <PUBCHEM_CACTVS_TAUTO_COUNT>  (1) 
1

>  <PUBCHEM_CONFORMER_ID>  (1) 
0000749000000001

>  <PUBCHEM_MMFF94_ENERGY>  (1) 
28.8917

>  <PUBCHEM_FEATURE_SELFOVERLAP>  (1) 
25.474

>  <PUBCHEM_SHAPE_FINGERPRINT>  (1) 
10608611 8 18341890831165318376
11062470 55 18060137626298881201
11132069 177 18411415120479655744
11543360 7 15769762585340726605
12932764 1 17167852076196598884
13024252 1 14201110219902706319
13380535 76 18411699868089798015
14144814 61 18408322181238029530
14325111 11 18410575084837230196
14897335 6 18411697660476367519
15219456 202 18202009806628288286
15775835 57 18335422348250074201
16945 1 18410301289283078903
17846911 113 18341888567532670769
193761 8 17834396005110667997
20201158 50 18343865502318941591
20528008 55 18342451543282275992
20871998 184 18201162173283967111
21501502 16 18265616674253462188
23235685 24 18411975832628495725
23402539 116 18343573045706954317
23402655 69 18270387284367942533
23463225 33 18334010571468180082
23552423 10 18116153457340759423
23559900 14 18343586235915341620
2748010 2 18196090164799313053
369184 2 18408319986335745818
528886 8 18411413999392847835
53812653 166 18342172263012702808
6333449 129 18341891917823341879
69090 78 18343014484967503223
7364860 26 18197215845832174254

>  <PUBCHEM_SHAPE_MULTIPOLES>  (1) 
236.1
5.97
1.52
0.63
2.24
0.27
0
-1.81
-0.38
-0.5
-0.01
0.02
0
-0.01

>  <PUBCHEM_SHAPE_SELFOVERLAP>  (1) 
503.478

>  <PUBCHEM_SHAPE_VOLUME>  (1) 
133.7

>  <PUBCHEM_COORDINATE_TYPE>  (1) 
2
5
10

$$$$
