29852
     RDKit          3D

 13 13  0  0  0  0  0  0  0  0999 V2000
   -1.0082    1.4072   -0.3004 O   0  0  0  0  0  0  0  0  0  0  0  0
   -2.2500   -0.5200   -0.0203 N   0  0  0  0  0  0  0  0  0  0  0  0
    0.0220   -0.6722    0.0547 N   0  0  0  0  0  0  0  0  0  0  0  0
   -3.5603    0.1157   -0.1508 C   0  0  0  0  0  0  0  0  0  0  0  0
   -4.0563    0.5903    1.2122 C   0  0  0  0  0  0  0  0  0  0  0  0
   -4.5420   -0.8687   -0.7787 C   0  0  0  0  0  0  0  0  0  0  0  0
   -1.0621    0.1948   -0.1078 C   0  0  0  0  0  0  0  0  0  0  0  0
    1.3997   -0.3526    0.0343 C   0  0  0  0  0  0  0  0  0  0  0  0
    2.3324   -1.3609    0.2150 C   0  0  0  0  0  0  0  0  0  0  0  0
    1.7883    0.9620   -0.1651 C   0  0  0  0  0  0  0  0  0  0  0  0
    3.6910   -1.0459    0.1956 C   0  0  0  0  0  0  0  0  0  0  0  0
    3.1470    1.2770   -0.1844 C   0  0  0  0  0  0  0  0  0  0  0  0
    4.0985    0.2732   -0.0042 C   0  0  0  0  0  0  0  0  0  0  0  0
  1  7  2  0
  2  4  1  0
  2  7  1  0
  3  7  1  0
  3  8  1  0
  4  5  1  0
  4  6  1  0
  8  9  2  0
  8 10  1  0
  9 11  1  0
 10 12  2  0
 11 13  2  0
 12 13  1  0
M  END
>  <PUBCHEM_COMPOUND_CID>  (1) 
29852

>  <PUBCHEM_CONFORMER_RMSD>  (1) 
0.6

>  <PUBCHEM_CONFORMER_DIVERSEORDER>  (1) 
1
5
3
4
6
2

>  <PUBCHEM_MMFF94_PARTIAL_CHARGES>  (1) 
18
1 -0.57
10 -0.15
11 -0.15
12 -0.15
13 -0.15
15 0.37
2 -0.73
22 0.37
23 0.15
24 0.15
25 0.15
26 0.15
27 0.15
3 -0.55
4 0.3
7 0.69
8 0.12
9 -0.15

>  <PUBCHEM_EFFECTIVE_ROTOR_COUNT>  (1) 
4

>  <PUBCHEM_PHARMACOPHORE_FEATURES>  (1) 
5
1 1 acceptor
1 2 donor
1 3 donor
3 4 5 6 hydrophobe
6 8 9 10 11 12 13 rings

>  <PUBCHEM_HEAVY_ATOM_COUNT>  (1) 
13

>  <PUBCHEM_ATOM_DEF_STEREO_COUNT>  (1) 
0

>  <PUBCHEM_ATOM_UDEF_STEREO_COUNT>  (1) 
0

>  <PUBCHEM_BOND_DEF_STEREO_COUNT>  (1) 
0

>  <PUBCHEM_BOND_UDEF_STEREO_COUNT>  (1) 
0

>  <PUBCHEM_ISOTOPIC_ATOM_COUNT>  (1) 
0

>  <PUBCHEM_COMPONENT_COUNT>  (1) 
1

>  <PUBCHEM_CACTVS_TAUTO_COUNT>  (1) 
3

>  <PUBCHEM_CONFORMER_ID>  (1) 
0000749C00000001

>  <PUBCHEM_MMFF94_ENERGY>  (1) 
28.7459

>  <PUBCHEM_FEATURE_SELFOVERLAP>  (1) 
25.428

>  <PUBCHEM_SHAPE_FINGERPRINT>  (1) 
11062470 55 11963388539808411966
11471102 20 18335136509971628212
11615757 297 18272936024470193409
13760787 5 18334018297750400845
14251717 144 18409163328960596958
14325111 11 18410011035198036349
14445660 50 18273221880661543163
17834072 33 18272085041573256895
18186145 218 17313103042725378041
190213 19 14908183053422511803
19026448 5 18131634482576258515
19050596 39 18342740702118827771
19422 9 18273496771353285535
200 152 18413101758363028063
20279233 1 17240202140470063659
20281475 54 18272647931096734887
20645477 70 18260821558037312191
20828058 21 16702303459764847431
22485316 2 18410569587495375719
23402539 116 18341887476595081917
23402655 69 18409726240280366340
26918003 58 17749107794313598649
449060 62 18409452522452493916
5104073 3 18411136930889053387
581208 293 18335135410375591310
69090 78 18335979839358493779
77779 3 18413390929889517035

>  <PUBCHEM_SHAPE_MULTIPOLES>  (1) 
251.7
9.29
1.32
0.79
5.35
0.05
-0.1
-0.69
-0.2
-0.67
0.03
0.66
0.03
-0.69

>  <PUBCHEM_SHAPE_SELFOVERLAP>  (1) 
508.318

>  <PUBCHEM_SHAPE_VOLUME>  (1) 
147.3

>  <PUBCHEM_COORDINATE_TYPE>  (1) 
2
5
10

$$$$
