29859
     RDKit          3D

 11 12  0  0  0  0  0  0  0  0999 V2000
    3.9022   -0.9149    0.0007 Br  0  0  0  0  0  0  0  0  0  0  0  0
   -1.4064   -1.2526   -0.0001 O   0  0  0  0  0  0  0  0  0  0  0  0
   -3.5689   -0.4324    0.0004 O   0  0  0  0  0  0  0  0  0  0  0  0
   -1.7466    1.0204    0.0003 N   0  0  0  0  0  0  0  0  0  0  0  0
   -0.3931    0.8113   -0.0002 C   0  0  0  0  0  0  0  0  0  0  0  0
   -0.2086   -0.5545   -0.0003 C   0  0  0  0  0  0  0  0  0  0  0  0
    0.6509    1.7082   -0.0001 C   0  0  0  0  0  0  0  0  0  0  0  0
    1.0534   -1.1078   -0.0005 C   0  0  0  0  0  0  0  0  0  0  0  0
    1.9398    1.1696   -0.0001 C   0  0  0  0  0  0  0  0  0  0  0  0
    2.1397   -0.2265   -0.0001 C   0  0  0  0  0  0  0  0  0  0  0  0
   -2.3625   -0.2208    0.0001 C   0  0  0  0  0  0  0  0  0  0  0  0
  1 10  1  0
  2  6  1  0
  2 11  1  0
  3 11  2  0
  4  5  1  0
  4 11  1  0
  5  6  2  0
  5  7  1  0
  6  8  1  0
  7  9  2  0
  8 10  2  0
  9 10  1  0
M  END
>  <PUBCHEM_COMPOUND_CID>  (1) 
29859

>  <PUBCHEM_CONFORMER_RMSD>  (1) 
0.4

>  <PUBCHEM_CONFORMER_DIVERSEORDER>  (1) 
1

>  <PUBCHEM_MMFF94_PARTIAL_CHARGES>  (1) 
15
1 -0.11
10 0.11
11 0.78
12 0.37
13 0.15
14 0.15
15 0.15
2 -0.23
3 -0.57
4 -0.55
5 0.12
6 0.08
7 -0.15
8 -0.15
9 -0.15

>  <PUBCHEM_EFFECTIVE_ROTOR_COUNT>  (1) 
0

>  <PUBCHEM_PHARMACOPHORE_FEATURES>  (1) 
5
1 1 hydrophobe
1 3 acceptor
1 4 donor
5 2 4 5 6 11 rings
6 5 6 7 8 9 10 rings

>  <PUBCHEM_HEAVY_ATOM_COUNT>  (1) 
11

>  <PUBCHEM_ATOM_DEF_STEREO_COUNT>  (1) 
0

>  <PUBCHEM_ATOM_UDEF_STEREO_COUNT>  (1) 
0

>  <PUBCHEM_BOND_DEF_STEREO_COUNT>  (1) 
0

>  <PUBCHEM_BOND_UDEF_STEREO_COUNT>  (1) 
0

>  <PUBCHEM_ISOTOPIC_ATOM_COUNT>  (1) 
0

>  <PUBCHEM_COMPONENT_COUNT>  (1) 
1

>  <PUBCHEM_CACTVS_TAUTO_COUNT>  (1) 
2

>  <PUBCHEM_CONFORMER_ID>  (1) 
000074A300000001

>  <PUBCHEM_MMFF94_ENERGY>  (1) 
30.4716

>  <PUBCHEM_FEATURE_SELFOVERLAP>  (1) 
25.487

>  <PUBCHEM_SHAPE_FINGERPRINT>  (1) 
10130415 120 18408603656299077866
10219947 1 18272370875646490662
12032990 46 18410860940796841670
14128692 85 18411421721823206236
14325111 11 18410574015285021345
16945 1 18410573985188380900
193761 8 17834396001005669702
20201158 50 18410012117609266982
20871998 22 18200040521215610310
21040471 1 17978511163048062148
21501925 9 18411128148055439690
23402539 116 18201145573013347767
23402655 69 18122887765131692893
23463225 33 18408886200965458982
23552423 10 18189335847689911988
2748010 2 18193277626813789350
369184 2 15123504783503319822
5084963 1 18341894095171346488
7364860 26 18270400628520159352
8809292 202 18187089493779233523

>  <PUBCHEM_SHAPE_MULTIPOLES>  (1) 
215.6
5.12
1.53
0.61
0.83
0.41
0
-1.78
0
0.29
0
0.11
0
0

>  <PUBCHEM_SHAPE_SELFOVERLAP>  (1) 
460.257

>  <PUBCHEM_SHAPE_VOLUME>  (1) 
123.8

>  <PUBCHEM_COORDINATE_TYPE>  (1) 
2
5
10

$$$$
