29854
     RDKit          3D

 10 10  0  0  1  0  0  0  0  0999 V2000
    2.8899    0.0437    0.9239 O   0  0  0  0  0  0  0  0  0  0  0  0
   -0.3938   -0.2017   -0.1554 O   0  0  0  0  0  0  0  0  0  0  0  0
   -1.9388    1.3766    0.5238 O   0  0  0  0  0  0  0  0  0  0  0  0
    1.9937    0.0256   -0.1786 C   0  0  0  0  0  0  0  0  0  0  0  0
    2.3466   -1.2259    0.5396 C   0  0  0  0  0  0  0  0  0  0  0  0
    0.6771    0.7003    0.1422 C   0  0  0  0  0  0  0  0  0  0  0  0
    2.5939    0.3691   -1.4730 C   0  0  0  0  0  0  0  0  0  0  0  0
   -1.6444    0.2755    0.0863 C   0  0  0  0  0  0  0  0  0  0  0  0
   -2.6062   -0.7861   -0.2756 C   0  0  0  0  0  0  0  0  0  0  0  0
   -3.9182   -0.5771   -0.1333 C   0  0  0  0  0  0  0  0  0  0  0  0
  1  4  1  0
  1  5  1  0
  2  6  1  0
  2  8  1  0
  3  8  2  0
  4  5  1  0
  4  6  1  0
  4  7  1  0
  8  9  1  0
  9 10  2  0
M  END
>  <PUBCHEM_COMPOUND_CID>  (1) 
29854

>  <PUBCHEM_CONFORMER_RMSD>  (1) 
0.6

>  <PUBCHEM_CONFORMER_DIVERSEORDER>  (1) 
1
47
51
38
7
59
42
61
53
57
24
43
48
56
4
55
50
30
54
12
26
6
39
11
58
35
22
16
19
23
18
31
20
21
17
13
41
36
40
8
27
2
44
45
14
10
3
52
34
60
5
37
46
15
62
29
33
32
9
49
28
25

>  <PUBCHEM_MMFF94_PARTIAL_CHARGES>  (1) 
15
1 -0.3
10 -0.3
11 0.1
12 0.1
18 0.15
19 0.15
2 -0.43
20 0.15
3 -0.57
4 -0.04
5 -0.05
6 0.38
7 0.09
8 0.71
9 -0.14

>  <PUBCHEM_EFFECTIVE_ROTOR_COUNT>  (1) 
4.6

>  <PUBCHEM_PHARMACOPHORE_FEATURES>  (1) 
3
1 1 acceptor
1 10 hydrophobe
1 3 acceptor

>  <PUBCHEM_HEAVY_ATOM_COUNT>  (1) 
10

>  <PUBCHEM_ATOM_DEF_STEREO_COUNT>  (1) 
0

>  <PUBCHEM_ATOM_UDEF_STEREO_COUNT>  (1) 
1

>  <PUBCHEM_BOND_DEF_STEREO_COUNT>  (1) 
0

>  <PUBCHEM_BOND_UDEF_STEREO_COUNT>  (1) 
0

>  <PUBCHEM_ISOTOPIC_ATOM_COUNT>  (1) 
0

>  <PUBCHEM_COMPONENT_COUNT>  (1) 
1

>  <PUBCHEM_CACTVS_TAUTO_COUNT>  (1) 
1

>  <PUBCHEM_CONFORMER_ID>  (1) 
0000749E00000001

>  <PUBCHEM_MMFF94_ENERGY>  (1) 
17.8401

>  <PUBCHEM_FEATURE_SELFOVERLAP>  (1) 
15.223

>  <PUBCHEM_SHAPE_FINGERPRINT>  (1) 
10857977 72 17560795546041964385
11062470 55 17240480329712292799
12932764 1 18343869900481510281
14325111 11 18411980239238444297
177051 138 18412822469308795919
18186145 218 14562801158434464351
20279233 1 17346596357224705063
20281407 28 18202567306457978355
20645477 70 17167856457132267667
20715346 28 16845291605356762148
23552423 10 18115592526027501810
3248919 1 17748832903410982896
8030462 33 18334022687159458940

>  <PUBCHEM_SHAPE_MULTIPOLES>  (1) 
188.19
6.09
1.09
0.96
3.24
0.08
-0.17
1.11
-0.57
-0.13
0.1
-0.57
-0.14
-0.66

>  <PUBCHEM_SHAPE_SELFOVERLAP>  (1) 
366.876

>  <PUBCHEM_SHAPE_VOLUME>  (1) 
114.6

>  <PUBCHEM_COORDINATE_TYPE>  (1) 
2
5
10

$$$$
