29855
     RDKit          3D

 21 22  0  0  0  0  0  0  0  0999 V2000
   -4.7450   -0.6354    1.4330 N   0  0  0  0  0  0  0  0  0  0  0  0
    4.7442   -0.6347    1.4327 N   0  0  0  0  0  0  0  0  0  0  0  0
   -3.5894    1.7088    0.1984 C   0  0  0  0  0  0  0  0  0  0  0  0
    3.5879    1.7094    0.1985 C   0  0  0  0  0  0  0  0  0  0  0  0
   -0.0005   -1.2127   -1.6603 C   0  0  0  0  0  0  0  0  0  0  0  0
   -2.9875    0.3488    0.0552 C   0  0  0  0  0  0  0  0  0  0  0  0
    2.9864    0.3493    0.0551 C   0  0  0  0  0  0  0  0  0  0  0  0
   -1.2433   -1.0561   -0.8511 C   0  0  0  0  0  0  0  0  0  0  0  0
    1.2546   -1.0543   -0.8431 C   0  0  0  0  0  0  0  0  0  0  0  0
   -1.8250    0.2028   -0.7018 C   0  0  0  0  0  0  0  0  0  0  0  0
    1.8239    0.2031   -0.7018 C   0  0  0  0  0  0  0  0  0  0  0  0
   -3.5684   -0.7643    0.6628 C   0  0  0  0  0  0  0  0  0  0  0  0
    3.5673   -0.7636    0.6629 C   0  0  0  0  0  0  0  0  0  0  0  0
   -1.8242   -2.1691   -0.2433 C   0  0  0  0  0  0  0  0  0  0  0  0
    1.8234   -2.1688   -0.2433 C   0  0  0  0  0  0  0  0  0  0  0  0
   -4.0395    2.2956   -1.1518 C   0  0  0  0  0  0  0  0  0  0  0  0
   -2.6466    2.6951    0.9110 C   0  0  0  0  0  0  0  0  0  0  0  0
    2.6445    2.6954    0.9110 C   0  0  0  0  0  0  0  0  0  0  0  0
    4.0382    2.2966   -1.1514 C   0  0  0  0  0  0  0  0  0  0  0  0
   -2.9866   -2.0231    0.5137 C   0  0  0  0  0  0  0  0  0  0  0  0
    2.9858   -2.0227    0.5137 C   0  0  0  0  0  0  0  0  0  0  0  0
  1 12  1  0
  2 13  1  0
  3  6  1  0
  3 16  1  0
  3 17  1  0
  4  7  1  0
  4 18  1  0
  4 19  1  0
  5  8  1  0
  5  9  1  0
  6 10  2  0
  6 12  1  0
  7 11  2  0
  7 13  1  0
  8 10  1  0
  8 14  2  0
  9 11  1  0
  9 15  2  0
 12 20  2  0
 13 21  2  0
 14 20  1  0
 15 21  1  0
M  END
>  <PUBCHEM_COMPOUND_CID>  (1) 
29855

>  <PUBCHEM_CONFORMER_RMSD>  (1) 
0.6

>  <PUBCHEM_CONFORMER_DIVERSEORDER>  (1) 
1
14
7
17
3
10
6
2
15
11
16
9
8
19
20
5
18
21
4
12
13

>  <PUBCHEM_MMFF94_PARTIAL_CHARGES>  (1) 
27
1 -0.9
10 -0.15
11 -0.15
12 0.1
13 0.1
14 -0.15
15 -0.15
2 -0.9
20 -0.15
21 -0.15
26 0.15
27 0.15
28 0.15
29 0.15
3 0.14
4 0.14
42 0.15
43 0.15
44 0.4
45 0.4
46 0.4
47 0.4
5 0.29
6 -0.14
7 -0.14
8 -0.14
9 -0.14

>  <PUBCHEM_EFFECTIVE_ROTOR_COUNT>  (1) 
4

>  <PUBCHEM_PHARMACOPHORE_FEATURES>  (1) 
8
1 1 cation
1 1 donor
1 2 cation
1 2 donor
3 3 16 17 hydrophobe
3 4 18 19 hydrophobe
6 6 8 10 12 14 20 rings
6 7 9 11 13 15 21 rings

>  <PUBCHEM_HEAVY_ATOM_COUNT>  (1) 
21

>  <PUBCHEM_ATOM_DEF_STEREO_COUNT>  (1) 
0

>  <PUBCHEM_ATOM_UDEF_STEREO_COUNT>  (1) 
0

>  <PUBCHEM_BOND_DEF_STEREO_COUNT>  (1) 
0

>  <PUBCHEM_BOND_UDEF_STEREO_COUNT>  (1) 
0

>  <PUBCHEM_ISOTOPIC_ATOM_COUNT>  (1) 
0

>  <PUBCHEM_COMPONENT_COUNT>  (1) 
1

>  <PUBCHEM_CACTVS_TAUTO_COUNT>  (1) 
1

>  <PUBCHEM_CONFORMER_ID>  (1) 
0000749F00000001

>  <PUBCHEM_MMFF94_ENERGY>  (1) 
82.504

>  <PUBCHEM_FEATURE_SELFOVERLAP>  (1) 
40.596

>  <PUBCHEM_SHAPE_FINGERPRINT>  (1) 
10366900 7 18265899248820915403
10670039 82 18193850451377521052
10759866 29 18409455803818180880
1100329 8 15742465706063816863
12363563 72 14562524119689822823
12403259 118 18411689985216724840
12403260 363 18270109094682101167
12507557 5 18411974732990306624
12596599 1 14996580520005159369
12633257 1 18115577154676847850
12892183 10 18041002868596265723
12978246 48 18413107272916745024
13140716 1 18337379496639184964
13583140 156 18261949657304637303
14223421 5 18410299124593402439
14251764 30 12030919505496502917
14251764 38 18340767014613188757
14289901 80 18114184201982290034
14341114 176 18334582360274418594
14341114 328 18339651147375150099
14466204 15 17470436344525851357
14790565 3 18337672040263991340
14866123 147 15816787194560062571
14957384 54 18189041023981277553
15238133 3 18264211310057869964
15848702 68 18340195281377501964
1601671 61 18411700942564656894
19078846 21 18409724033358181462
192875 21 17914602874444098497
20681677 76 18411698760214783815
20715895 44 17978223864586951645
20739085 24 18113052745226790132
21033648 29 17416664883389352442
21065198 57 18335138648491353827
21065199 12 18260832591971559675
21475661 188 18120086187491037205
21503847 285 18409450272095300678
21652331 79 18341054132859986457
21756936 100 18125441067232828660
21864079 5 18200869694748607148
22749437 52 18200594683470901537
235170 7 13326273845791933833
23559900 14 18198627631362245750
2637199 183 18194694876544568220
351380 180 18268984302760867237
474 4 18055631720817547757
5081480 168 16770733653331830020
5104073 3 18259987063065846241
7097593 13 18263354798768669722
7808743 9 17907582780906838188

>  <PUBCHEM_SHAPE_MULTIPOLES>  (1) 
422.21
9.58
3.26
1.3
0.01
1.42
0.1
3.28
-2.56
0
-0.13
0
0.09
0

>  <PUBCHEM_SHAPE_SELFOVERLAP>  (1) 
888.88

>  <PUBCHEM_SHAPE_VOLUME>  (1) 
239.2

>  <PUBCHEM_COORDINATE_TYPE>  (1) 
2
5
10

$$$$
