2985
     RDKit          3D

 19 18  0  0  1  0  0  0  0  0999 V2000
    0.8173   -4.1866    0.1576 O   0  0  0  0  0  0  0  0  0  0  0  0
   -4.4340    1.9855    0.8195 O   0  0  0  0  0  0  0  0  0  0  0  0
    3.3956    1.2096   -0.4308 C   0  0  0  0  0  0  0  0  0  0  0  0
    4.6004    0.2659   -0.3531 C   0  0  0  0  0  0  0  0  0  0  0  0
    3.7360    2.6590   -0.0674 C   0  0  0  0  0  0  0  0  0  0  0  0
    4.2792   -1.1648   -0.7924 C   0  0  0  0  0  0  0  0  0  0  0  0
    2.5406    3.6073   -0.2120 C   0  0  0  0  0  0  0  0  0  0  0  0
    3.2571   -1.7918    0.1118 C   0  0  0  0  0  0  0  0  0  0  0  0
    1.3741    3.2162    0.6472 C   0  0  0  0  0  0  0  0  0  0  0  0
    2.0576   -2.2259   -0.3045 C   0  0  0  0  0  0  0  0  0  0  0  0
    1.0397   -2.8508    0.6019 C   0  0  0  0  0  0  0  0  0  0  0  0
    0.1449    2.9788    0.1760 C   0  0  0  0  0  0  0  0  0  0  0  0
   -5.2748    0.7113   -1.0387 C   0  0  0  0  0  0  0  0  0  0  0  0
   -4.6798    0.6529    0.3709 C   0  0  0  0  0  0  0  0  0  0  0  0
   -5.5728   -0.6620   -1.6229 C   0  0  0  0  0  0  0  0  0  0  0  0
   -0.2134   -2.0879    0.5479 C   0  0  0  0  0  0  0  0  0  0  0  0
   -3.4271   -0.1146    0.4196 C   0  0  0  0  0  0  0  0  0  0  0  0
   -1.2361   -1.4598    0.5079 C   0  0  0  0  0  0  0  0  0  0  0  0
   -2.4045   -0.7423    0.4615 C   0  0  0  0  0  0  0  0  0  0  0  0
  1 11  1  0
  2 14  1  0
  3  4  1  0
  3  5  1  0
  4  6  1  0
  5  7  1  0
  6  8  1  0
  7  9  1  0
  8 10  2  0
  9 12  2  0
 10 11  1  0
 11 16  1  0
 13 14  1  0
 13 15  1  0
 14 17  1  0
 16 18  3  0
 17 19  3  0
 18 19  1  0
M  END
>  <PUBCHEM_COMPOUND_CID>  (1) 
2985

>  <PUBCHEM_CONFORMER_RMSD>  (1) 
1

>  <PUBCHEM_CONFORMER_DIVERSEORDER>  (1) 
1
254
238
228
242
108
82
271
26
133
75
158
138
220
126
107
191
187
152
11
29
147
270
251
131
202
16
22
193
273
91
199
44
159
30
274
161
243
233
64
172
211
76
61
170
207
94
18
116
246
33
189
45
196
41
215
128
182
67
155
203
280
169
2
81
100
74
268
77
112
188
219
176
173
167
57
43
70
272
65
114
56
120
13
80
121
40
123
225
224
206
118
258
90
106
160
17
54
247
234
277
282
89
111
53
146
42
250
10
130
279
232
101
236
86
88
28
122
7
140
49
201
208
190
9
278
72
171
36
109
21
266
245
237
259
73
143
166
115
150
168
141
204
235
184
137
6
85
263
174
66
105
34
60
104
262
257
163
63
260
27
261
221
286
217
142
37
139
178
14
79
241
197
180
69
39
183
231
25
8
253
96
154
223
181
194
165
210
164
12
200
20
129
62
35
98
151
213
48
95
144
19
135
156
214
4
15
78
71
175
227
205
229
195
136
50
230
32
177
275
124
87
285
99
216
226
38
287
113
3
132
84
23
148
59
249
267
127
192
93
102
179
153
162
149
47
186
209
157
218
31
5
119
24
256
46
255
58
269
198
264
239
185
92
83
55
103
252
283
125
52
222
110
212
68
248
281
240
284
51
265
276
134
117
97
145
244

>  <PUBCHEM_MMFF94_PARTIAL_CHARGES>  (1) 
19
1 -0.68
10 -0.29
11 0.62
12 -0.3
14 0.48
16 -0.2
17 -0.2
2 -0.68
30 0.15
31 0.15
32 0.15
36 0.15
37 0.15
42 0.4
43 0.4
6 0.14
7 0.14
8 -0.29
9 -0.29

>  <PUBCHEM_EFFECTIVE_ROTOR_COUNT>  (1) 
8

>  <PUBCHEM_PHARMACOPHORE_FEATURES>  (1) 
6
1 1 acceptor
1 1 donor
1 12 hydrophobe
1 15 hydrophobe
1 2 acceptor
1 2 donor

>  <PUBCHEM_HEAVY_ATOM_COUNT>  (1) 
19

>  <PUBCHEM_ATOM_DEF_STEREO_COUNT>  (1) 
0

>  <PUBCHEM_ATOM_UDEF_STEREO_COUNT>  (1) 
2

>  <PUBCHEM_BOND_DEF_STEREO_COUNT>  (1) 
0

>  <PUBCHEM_BOND_UDEF_STEREO_COUNT>  (1) 
1

>  <PUBCHEM_ISOTOPIC_ATOM_COUNT>  (1) 
0

>  <PUBCHEM_COMPONENT_COUNT>  (1) 
1

>  <PUBCHEM_CACTVS_TAUTO_COUNT>  (1) 
1

>  <PUBCHEM_CONFORMER_ID>  (1) 
00000BA900000001

>  <PUBCHEM_MMFF94_ENERGY>  (1) 
3.9382

>  <PUBCHEM_FEATURE_SELFOVERLAP>  (1) 
30.446

>  <PUBCHEM_SHAPE_FINGERPRINT>  (1) 
12769317 202 18334288738840297790
12839892 36 13432681948656463106
13402501 40 18334858329182404452
14428016 6 18337093645280684821
14528608 73 18410571769365636247
14681490 219 18412539886747793077
14848178 96 18335702783881706980
14931854 50 18337964402502477364
15003188 100 18410011069621409879
15322535 138 17403732740924435400
15322687 12 18410292557535620464
16760501 71 18267040392363270737
17093844 170 18340486763992340632
1768 85 18266755756021552777
20621476 13 18410860992410237384
21315763 76 18410285896072862777
21344244 78 17754994442431264130
21860390 5 18343311348922883854
3014063 31 18338521833217304664
3117164 225 8213328263564845415
3524813 1 18113614565081319894
474 4 18410571794792425131
5312510 48 18408882915431801573
5312625 73 18409448129007165003
532947 4 18410571825120771229
54672768 99 18193282025288075008
574716 61 18129928083722223519

>  <PUBCHEM_SHAPE_MULTIPOLES>  (1) 
379.27
11.66
5.06
1
12.96
0.57
0.23
3.8
4.06
-5.06
-0.81
1.02
-0.03
-0.16

>  <PUBCHEM_SHAPE_SELFOVERLAP>  (1) 
718.314

>  <PUBCHEM_SHAPE_VOLUME>  (1) 
231.9

>  <PUBCHEM_COORDINATE_TYPE>  (1) 
2
5
10

$$$$
