29862
     RDKit          3D

 11 10  0  0  0  0  0  0  0  0999 V2000
    1.8202   -0.1197   -0.0530 O   0  0  0  0  0  0  0  0  0  0  0  0
    0.5963    1.7454    0.4612 O   0  0  0  0  0  0  0  0  0  0  0  0
   -1.2782   -2.4339    0.0629 O   0  0  0  0  0  0  0  0  0  0  0  0
   -0.4503   -0.3185    0.2847 N   0  0  0  0  0  0  0  0  0  0  0  0
   -0.2402   -1.7657    0.0060 N   0  0  0  0  0  0  0  0  0  0  0  0
   -1.7907    0.1613    0.5838 C   0  0  0  0  0  0  0  0  0  0  0  0
   -2.5492    0.5834   -0.6690 C   0  0  0  0  0  0  0  0  0  0  0  0
   -3.9451    1.1074   -0.3629 C   0  0  0  0  0  0  0  0  0  0  0  0
    0.6527    0.5354    0.2486 C   0  0  0  0  0  0  0  0  0  0  0  0
    2.9996    0.6911   -0.1102 C   0  0  0  0  0  0  0  0  0  0  0  0
    4.1849   -0.1862   -0.4520 C   0  0  0  0  0  0  0  0  0  0  0  0
  1  9  1  0
  1 10  1  0
  2  9  2  0
  3  5  2  0
  4  5  1  0
  4  6  1  0
  4  9  1  0
  6  7  1  0
  7  8  1  0
 10 11  1  0
M  END
>  <PUBCHEM_COMPOUND_CID>  (1) 
29862

>  <PUBCHEM_CONFORMER_RMSD>  (1) 
0.6

>  <PUBCHEM_CONFORMER_DIVERSEORDER>  (1) 
1
126
90
40
44
158
75
69
88
115
11
183
60
117
30
63
93
168
78
55
131
22
67
187
135
143
2
185
180
188
119
46
19
139
148
154
110
172
137
38
13
138
107
176
84
89
53
141
106
153
79
24
101
163
64
161
33
173
149
73
23
97
142
162
104
145
147
92
87
59
83
52
62
184
76
10
122
32
164
182
49
80
37
42
105
127
41
160
170
152
167
116
108
61
27
146
68
57
16
47
66
94
74
28
178
150
56
26
120
4
96
3
7
169
111
136
123
166
155
103
54
186
50
34
177
140
6
171
31
86
174
130
18
21
91
134
102
121
5
29
25
109
77
20
113
36
125
156
8
65
144
132
128
9
151
12
99
157
72
17
71
181
51
112
35
43
133
98
70
48
129
85
82
45
81
14
15
179
159
95
118
124
39
100
175
114
165
58

>  <PUBCHEM_MMFF94_PARTIAL_CHARGES>  (1) 
8
1 -0.43
10 0.28
2 -0.57
3 -0.16
4 -0.18
5 -0.02
6 0.3
9 0.78

>  <PUBCHEM_EFFECTIVE_ROTOR_COUNT>  (1) 
6

>  <PUBCHEM_PHARMACOPHORE_FEATURES>  (1) 
2
1 2 acceptor
1 8 hydrophobe

>  <PUBCHEM_HEAVY_ATOM_COUNT>  (1) 
11

>  <PUBCHEM_ATOM_DEF_STEREO_COUNT>  (1) 
0

>  <PUBCHEM_ATOM_UDEF_STEREO_COUNT>  (1) 
0

>  <PUBCHEM_BOND_DEF_STEREO_COUNT>  (1) 
0

>  <PUBCHEM_BOND_UDEF_STEREO_COUNT>  (1) 
0

>  <PUBCHEM_ISOTOPIC_ATOM_COUNT>  (1) 
0

>  <PUBCHEM_COMPONENT_COUNT>  (1) 
1

>  <PUBCHEM_CACTVS_TAUTO_COUNT>  (1) 
1

>  <PUBCHEM_CONFORMER_ID>  (1) 
000074A600000001

>  <PUBCHEM_MMFF94_ENERGY>  (1) 
9.3906

>  <PUBCHEM_FEATURE_SELFOVERLAP>  (1) 
10.148

>  <PUBCHEM_SHAPE_FINGERPRINT>  (1) 
10726558 24 18337955588933874413
11062470 55 17561362872525174012
12716758 59 18339357569264651018
12932764 1 17531515577438601136
14325111 11 18409165510988482601
14911166 2 18413389826109529740
14993402 34 18410291397810112748
15775835 57 18260263032168614021
18511873 20 18260266352299750532
187816 3 18202283576154049360
20201158 50 18131075913695259638
20645476 183 17822868553612445302
20645477 56 18335700593638666708
20653085 51 18187649158066627945
20711985 327 7925620138050079611
20871999 31 18263932197091834006
21293036 1 18412261726968408925
23235685 24 18410286991469053105
23402539 116 18271517624342476268
23402655 69 18268416946577598149
23552423 10 18045784747965880432
23559900 14 18343020004728413704
2748010 2 18126848433009449904
3248919 1 17560255699060629952
3250762 1 17910102852445293065
366044 4 18408322168390083315

>  <PUBCHEM_SHAPE_MULTIPOLES>  (1) 
198.8
6.39
1.73
0.72
2.15
1.15
0.02
-1.98
1.61
-0.74
-0.08
-0.13
-0.09
0.27

>  <PUBCHEM_SHAPE_SELFOVERLAP>  (1) 
363.906

>  <PUBCHEM_SHAPE_VOLUME>  (1) 
126.4

>  <PUBCHEM_COORDINATE_TYPE>  (1) 
2
5
10

$$$$
