29864
     RDKit          3D

 11 10  0  0  0  0  0  0  0  0999 V2000
   -3.9582    1.0139   -0.0330 S   0  0  0  0  0  0  0  0  0  0  0  0
   -6.0614   -0.9094   -0.0029 N   0  0  0  0  0  0  0  0  0  0  0  0
    1.2869    0.4582    0.0715 C   0  0  0  0  0  0  0  0  0  0  0  0
    2.5199   -0.4501    0.0632 C   0  0  0  0  0  0  0  0  0  0  0  0
   -0.0353   -0.3103    0.0123 C   0  0  0  0  0  0  0  0  0  0  0  0
    3.8425    0.3192    0.0479 C   0  0  0  0  0  0  0  0  0  0  0  0
   -1.2324    0.6454    0.0000 C   0  0  0  0  0  0  0  0  0  0  0  0
    5.0358   -0.6339   -0.0332 C   0  0  0  0  0  0  0  0  0  0  0  0
   -2.5474   -0.1282   -0.0233 C   0  0  0  0  0  0  0  0  0  0  0  0
    6.3522    0.1250   -0.0873 C   0  0  0  0  0  0  0  0  0  0  0  0
   -5.2026   -0.1297   -0.0152 C   0  0  0  0  0  0  0  0  0  0  0  0
  1  9  1  0
  1 11  1  0
  2 11  3  0
  3  4  1  0
  3  5  1  0
  4  6  1  0
  5  7  1  0
  6  8  1  0
  7  9  1  0
  8 10  1  0
M  END
>  <PUBCHEM_COMPOUND_CID>  (1) 
29864

>  <PUBCHEM_CONFORMER_RMSD>  (1) 
0.6

>  <PUBCHEM_CONFORMER_DIVERSEORDER>  (1) 
1
372
169
237
367
95
200
7
150
263
51
338
172
37
272
161
43
310
255
126
198
146
368
11
340
302
34
236
52
245
29
100
218
77
185
312
366
231
257
99
111
31
305
74
66
373
144
286
6
76
235
24
64
206
124
270
290
318
3
134
256
88
326
142
238
108
44
352
120
374
345
164
60
344
224
57
294
2
129
91
170
151
32
149
123
163
230
55
128
370
157
180
107
18
301
188
204
217
127
168
5
281
13
81
213
227
147
130
232
30
323
371
94
115
9
102
167
314
354
148
106
25
4
350
375
16
67
132
251
22
125
328
28
278
73
361
274
47
65
360
50
343
275
369
56
216
40
133
197
223
179
317
8
79
61
212
306
321
208
334
26
189
240
166
225
347
335
175
103
363
322
54
329
105
260
70
85
259
21
353
20
239
58
342
121
19
122
152
135
183
214
355
38
320
10
98
162
176
248
190
293
211
83
273
68
154
69
332
42
220
174
194
158
178
349
324
131
247
331
14
276
59
86
184
45
261
358
295
71
191
192
33
269
46
313
292
114
304
39
97
330
303
84
205
141
233
49
90
356
297
177
160
210
181
201
78
219
193
53
41
336
264
265
12
118
15
249
241
299
173
215
140
196
137
228
253
35
271
300
63
234
48
308
87
75
82
284
62
207
156
226
145
315
258
80
182
351
110
287
333
36
262
117
153
195
171
101
165
279
143
346
268
222
362
243
244
221
348
27
155
96
109
138
341
246
327
104
254
17
250
296
267
311
113
112
23
337
199
242
202
285
365
282
277
280
307
72
116
93
283
203
92
325
136
159
252
319
186
291
89
187
289
119
209
357
359
266
316
139
229
288
298
309
339
364

>  <PUBCHEM_MMFF94_PARTIAL_CHARGES>  (1) 
4
1 -0.27
11 0.59
2 -0.56
9 0.23

>  <PUBCHEM_EFFECTIVE_ROTOR_COUNT>  (1) 
7

>  <PUBCHEM_PHARMACOPHORE_FEATURES>  (1) 
2
1 10 hydrophobe
1 2 acceptor

>  <PUBCHEM_HEAVY_ATOM_COUNT>  (1) 
11

>  <PUBCHEM_ATOM_DEF_STEREO_COUNT>  (1) 
0

>  <PUBCHEM_ATOM_UDEF_STEREO_COUNT>  (1) 
0

>  <PUBCHEM_BOND_DEF_STEREO_COUNT>  (1) 
0

>  <PUBCHEM_BOND_UDEF_STEREO_COUNT>  (1) 
0

>  <PUBCHEM_ISOTOPIC_ATOM_COUNT>  (1) 
0

>  <PUBCHEM_COMPONENT_COUNT>  (1) 
1

>  <PUBCHEM_CACTVS_TAUTO_COUNT>  (1) 
1

>  <PUBCHEM_CONFORMER_ID>  (1) 
000074A800000001

>  <PUBCHEM_MMFF94_ENERGY>  (1) 
-1.1414

>  <PUBCHEM_FEATURE_SELFOVERLAP>  (1) 
10.148

>  <PUBCHEM_SHAPE_FINGERPRINT>  (1) 
12091667 2 17530966869691646401
12714333 28 13479132397544297142
13533116 47 16370995275216330824
14123238 8 17749108880887544233
1420 363 18202567280292464279
14251718 22 18410011030903062536
14251732 16 18411699932424409344
14251764 46 18060136539824967238
15242439 84 12612756821712931237
17834072 33 18410293639788212188
17834076 25 18113054935216661162
187816 3 16081088173543583585
20621476 66 8790614727863099719
20621476 8 10231768785388849115
20645477 70 18269838623433338510
20719005 15 18410855455833207489
20767249 13 18040716960996741857
20767249 213 16443349784342667428
220451 1 14692568814879138972
22896161 15 18410293652646642702
23402539 116 18187079538482507965
366044 4 18260267443063519746
42788 4 18410573976936153856
57483677 66 18412260618903945191
57583515 80 12035446134083729797
8209 1 18334575741465980333

>  <PUBCHEM_SHAPE_MULTIPOLES>  (1) 
225.24
16.15
0.92
0.62
2.26
0.05
0
-2.17
-0.4
-0.6
0
0.02
0.02
0.01

>  <PUBCHEM_SHAPE_SELFOVERLAP>  (1) 
390.702

>  <PUBCHEM_SHAPE_VOLUME>  (1) 
147.7

>  <PUBCHEM_COORDINATE_TYPE>  (1) 
2
5
10

$$$$
