29863
     RDKit          3D

 15 15  0  0  0  0  0  0  0  0999 V2000
    3.3059    2.2643   -0.1019 Cl  0  0  0  0  0  0  0  0  0  0  0  0
    3.9287   -0.6704   -0.2972 O   0  0  0  0  0  0  0  0  0  0  0  0
   -2.4190   -1.6293   -0.0885 O   0  0  0  0  0  0  0  0  0  0  0  0
   -1.4856    0.4994    0.0112 N   0  0  0  0  0  0  0  0  0  0  0  0
   -3.8216    0.2027    0.0986 N   0  0  0  0  0  0  0  0  0  0  0  0
   -0.1009    0.2085   -0.0672 C   0  0  0  0  0  0  0  0  0  0  0  0
    0.8107    1.2498   -0.0486 C   0  0  0  0  0  0  0  0  0  0  0  0
    0.3076   -1.1107   -0.1607 C   0  0  0  0  0  0  0  0  0  0  0  0
   -2.5488   -0.4070    0.0070 C   0  0  0  0  0  0  0  0  0  0  0  0
    2.6034   -0.3607   -0.2207 C   0  0  0  0  0  0  0  0  0  0  0  0
    2.1736    0.9630   -0.1259 C   0  0  0  0  0  0  0  0  0  0  0  0
    1.6704   -1.3973   -0.2380 C   0  0  0  0  0  0  0  0  0  0  0  0
   -5.0553   -0.5732    0.0858 C   0  0  0  0  0  0  0  0  0  0  0  0
   -3.9833    1.6508    0.2122 C   0  0  0  0  0  0  0  0  0  0  0  0
    4.6141   -0.8900    0.9338 C   0  0  0  0  0  0  0  0  0  0  0  0
  1 11  1  0
  2 10  1  0
  2 15  1  0
  3  9  2  0
  4  6  1  0
  4  9  1  0
  5  9  1  0
  5 13  1  0
  5 14  1  0
  6  7  2  0
  6  8  1  0
  7 11  1  0
  8 12  2  0
 10 11  2  0
 10 12  1  0
M  END
>  <PUBCHEM_COMPOUND_CID>  (1) 
29863

>  <PUBCHEM_CONFORMER_RMSD>  (1) 
0.6

>  <PUBCHEM_CONFORMER_DIVERSEORDER>  (1) 
1
11
15
14
21
20
23
18
2
22
17
3
4
19
5
12
9
13
6
8
16
7
10

>  <PUBCHEM_MMFF94_PARTIAL_CHARGES>  (1) 
19
1 -0.18
10 0.08
11 0.18
12 -0.15
13 0.3
14 0.3
15 0.28
16 0.37
17 0.15
18 0.15
19 0.15
2 -0.36
3 -0.57
4 -0.55
5 -0.66
6 0.12
7 -0.15
8 -0.15
9 0.69

>  <PUBCHEM_EFFECTIVE_ROTOR_COUNT>  (1) 
4

>  <PUBCHEM_PHARMACOPHORE_FEATURES>  (1) 
4
1 2 acceptor
1 3 acceptor
1 4 donor
6 6 7 8 10 11 12 rings

>  <PUBCHEM_HEAVY_ATOM_COUNT>  (1) 
15

>  <PUBCHEM_ATOM_DEF_STEREO_COUNT>  (1) 
0

>  <PUBCHEM_ATOM_UDEF_STEREO_COUNT>  (1) 
0

>  <PUBCHEM_BOND_DEF_STEREO_COUNT>  (1) 
0

>  <PUBCHEM_BOND_UDEF_STEREO_COUNT>  (1) 
0

>  <PUBCHEM_ISOTOPIC_ATOM_COUNT>  (1) 
0

>  <PUBCHEM_COMPONENT_COUNT>  (1) 
1

>  <PUBCHEM_CACTVS_TAUTO_COUNT>  (1) 
2

>  <PUBCHEM_CONFORMER_ID>  (1) 
000074A700000001

>  <PUBCHEM_MMFF94_ENERGY>  (1) 
54.8015

>  <PUBCHEM_FEATURE_SELFOVERLAP>  (1) 
20.297

>  <PUBCHEM_SHAPE_FINGERPRINT>  (1) 
10608611 8 18410292519160697301
11132069 177 18272087184419234418
11401426 45 18343577421724766602
11471102 20 18411136956669568284
12251169 10 18411417297695810854
12932764 1 17385711504678350479
13675066 3 17989202638059690182
13922767 16 18342736308499263072
14144814 61 18411422795802426569
14252887 29 17988932128277197070
14325111 11 18339363070912197557
14415576 193 18411705395533243157
15196674 1 18410857672500828733
15442244 35 18196376913985313713
15536298 74 18342177799505173956
16945 1 18340212890864468342
17802600 8 18410570678411950005
17834072 33 18342737459740344207
18186145 218 17894344497034415446
18522853 276 18343864398496554880
200 152 18131066026574951479
20645477 70 18412266142279256918
20871998 22 18269840805286891118
21267235 1 18411709780979773199
21452121 103 18342730862860942984
21501502 16 18267018543273804638
21501925 9 18412541003306726058
23402539 116 18272362058627206453
23402655 69 18343299254516517365
23557571 272 13542474141518716762
23559900 14 18201158724556999574
42 15 18335143089887873379
4214541 1 18410575068005644045
5104073 3 18410296934444879857
6430166 295 18411135797197125309
69090 78 18341611534180040983
77779 3 18410859880055743277
8809292 202 18259990400392831723
9709674 26 18341339924521916607

>  <PUBCHEM_SHAPE_MULTIPOLES>  (1) 
288.86
9.43
1.87
0.68
5.62
0.69
-0.05
-0.06
-1.31
-0.84
0.02
-0.32
-0.05
-0.36

>  <PUBCHEM_SHAPE_SELFOVERLAP>  (1) 
581.045

>  <PUBCHEM_SHAPE_VOLUME>  (1) 
172

>  <PUBCHEM_COORDINATE_TYPE>  (1) 
2
5
10

$$$$
