29870
     RDKit          3D

 27 28  0  0  0  0  0  0  0  0999 V2000
    2.6087   -3.7140   -1.5563 N   0  0  0  0  0  0  0  0  0  0  0  0
   -4.7773    1.4430   -1.8253 N   0  0  0  0  0  0  0  0  0  0  0  0
   -1.2336   -0.7006   -0.2350 C   0  0  0  0  0  0  0  0  0  0  0  0
   -0.7433   -1.9236   -1.0476 C   0  0  0  0  0  0  0  0  0  0  0  0
   -2.6833   -0.3486   -0.6523 C   0  0  0  0  0  0  0  0  0  0  0  0
   -1.1115   -0.9233    1.2643 C   0  0  0  0  0  0  0  0  0  0  0  0
    0.7401   -2.2834   -0.8747 C   0  0  0  0  0  0  0  0  0  0  0  0
   -3.2095    0.9280    0.0212 C   0  0  0  0  0  0  0  0  0  0  0  0
   -0.3056   -0.0965    2.0218 C   0  0  0  0  0  0  0  0  0  0  0  0
    1.1896   -3.4437   -1.7621 C   0  0  0  0  0  0  0  0  0  0  0  0
   -4.6455    1.2682   -0.3841 C   0  0  0  0  0  0  0  0  0  0  0  0
    0.4651    1.0290    1.4135 C   0  0  0  0  0  0  0  0  0  0  0  0
   -1.8247   -1.9649    1.8267 C   0  0  0  0  0  0  0  0  0  0  0  0
   -0.2083   -0.3190    3.3954 C   0  0  0  0  0  0  0  0  0  0  0  0
    1.8782    0.6367    0.9413 C   0  0  0  0  0  0  0  0  0  0  0  0
   -1.7275   -2.1875    3.2003 C   0  0  0  0  0  0  0  0  0  0  0  0
   -0.9193   -1.3646    3.9845 C   0  0  0  0  0  0  0  0  0  0  0  0
    2.6546    1.7941    0.3616 C   0  0  0  0  0  0  0  0  0  0  0  0
    3.0425   -4.8422   -2.3817 C   0  0  0  0  0  0  0  0  0  0  0  0
    3.4078   -2.5258   -1.8590 C   0  0  0  0  0  0  0  0  0  0  0  0
   -6.1779    1.6587   -2.1929 C   0  0  0  0  0  0  0  0  0  0  0  0
   -3.9536    2.5620   -2.2866 C   0  0  0  0  0  0  0  0  0  0  0  0
    2.5672    2.0592   -0.9961 C   0  0  0  0  0  0  0  0  0  0  0  0
    3.4416    2.5709    1.1971 C   0  0  0  0  0  0  0  0  0  0  0  0
    3.2850    3.1285   -1.5319 C   0  0  0  0  0  0  0  0  0  0  0  0
    4.1595    3.6403    0.6614 C   0  0  0  0  0  0  0  0  0  0  0  0
    4.0811    3.9190   -0.7032 C   0  0  0  0  0  0  0  0  0  0  0  0
  1 10  1  0
  1 19  1  0
  1 20  1  0
  2 11  1  0
  2 21  1  0
  2 22  1  0
  3  4  1  0
  3  5  1  0
  3  6  1  0
  4  7  1  0
  5  8  1  0
  6  9  2  0
  6 13  1  0
  7 10  1  0
  8 11  1  0
  9 12  1  0
  9 14  1  0
 12 15  1  0
 13 16  2  0
 14 17  2  0
 15 18  1  0
 16 17  1  0
 18 23  2  0
 18 24  1  0
 23 25  1  0
 24 26  2  0
 25 27  2  0
 26 27  1  0
M  END
>  <PUBCHEM_COMPOUND_CID>  (1) 
29870

>  <PUBCHEM_CONFORMER_RMSD>  (1) 
1

>  <PUBCHEM_CONFORMER_DIVERSEORDER>  (1) 
3
177
183
61
219
208
45
94
194
48
115
25
181
49
135
71
130
76
170
41
200
42
122
44
228
126
86
35
195
59
123
199
203
143
98
13
165
212
82
142
131
190
100
220
78
189
47
146
2
156
40
29
168
193
88
137
112
216
81
152
57
103
204
109
180
129
50
185
187
159
174
51
62
121
52
55
209
60
191
151
163
171
167
196
113
89
179
153
125
90
64
68
91
22
154
157
150
21
72
197
120
69
75
173
144
10
23
184
178
114
198
43
202
14
227
92
116
138
58
205
172
80
127
97
20
162
225
210
85
207
105
215
83
11
206
132
160
36
124
74
30
102
218
38
141
54
63
101
79
117
223
110
226
221
8
166
12
73
34
67
134
15
9
213
149
96
70
18
93
4
1
26
31
222
111
161
211
188
6
17
99
175
140
33
182
104
201
46
87
53
119
214
133
108
217
5
77
192
19
107
65
118
37
139
224
56
155
66
136
95
27
24
164
186
148
32
106
176
145
128
7
16
169
158
147
84
28
39

>  <PUBCHEM_MMFF94_PARTIAL_CHARGES>  (1) 
32
1 -0.81
10 0.27
11 0.27
12 0.14
13 -0.15
14 -0.15
15 0.14
16 -0.15
17 -0.15
18 -0.14
19 0.27
2 -0.81
20 0.27
21 0.27
22 0.27
23 -0.15
24 -0.15
25 -0.15
26 -0.15
27 -0.15
3 0.14
43 0.15
44 0.15
47 0.15
48 0.15
6 -0.14
61 0.15
62 0.15
63 0.15
64 0.15
65 0.15
9 -0.14

>  <PUBCHEM_EFFECTIVE_ROTOR_COUNT>  (1) 
12

>  <PUBCHEM_PHARMACOPHORE_FEATURES>  (1) 
5
1 1 cation
1 2 cation
5 3 4 5 7 8 hydrophobe
6 18 23 24 25 26 27 rings
6 6 9 13 14 16 17 rings

>  <PUBCHEM_HEAVY_ATOM_COUNT>  (1) 
27

>  <PUBCHEM_ATOM_DEF_STEREO_COUNT>  (1) 
0

>  <PUBCHEM_ATOM_UDEF_STEREO_COUNT>  (1) 
0

>  <PUBCHEM_BOND_DEF_STEREO_COUNT>  (1) 
0

>  <PUBCHEM_BOND_UDEF_STEREO_COUNT>  (1) 
0

>  <PUBCHEM_ISOTOPIC_ATOM_COUNT>  (1) 
0

>  <PUBCHEM_COMPONENT_COUNT>  (1) 
1

>  <PUBCHEM_CACTVS_TAUTO_COUNT>  (1) 
1

>  <PUBCHEM_CONFORMER_ID>  (1) 
000074AE00000003

>  <PUBCHEM_MMFF94_ENERGY>  (1) 
70.5631

>  <PUBCHEM_FEATURE_SELFOVERLAP>  (1) 
25.371

>  <PUBCHEM_SHAPE_FINGERPRINT>  (1) 
10721379 63 17774999047032834373
11045515 52 17551518742889493006
11443803 9 17977910756954092193
11578080 2 17831909837811757979
12058002 1 18127969707073414331
12107183 9 17024840819724600680
12156800 1 17037239711607574506
12160290 23 16911163601092082142
12293681 160 17393622280350287399
133893 2 17915765122659056646
14068700 675 16843030902176476302
14468879 13 18263367056325231309
14955137 171 16954189345811086537
15878777 1 15984825874407187123
20554085 129 16951129448449134687
21716022 299 17202752701097142655
23419403 2 17903962982168868675
376196 1 18262499490296457505
44802255 64 17979082901164182156
46194498 28 18268132181397112509
469060 322 17183355452410875338
5080951 261 17481430796012063368
550186 7 17824833475127308444
6438718 38 17899123090802574196
9981440 41 18267582592474960237

>  <PUBCHEM_SHAPE_MULTIPOLES>  (1) 
545.69
9.02
5.9
3.8
6.56
3.34
3.16
-11.11
-7.19
-8.03
-5.01
2.03
2.65
5.79

>  <PUBCHEM_SHAPE_SELFOVERLAP>  (1) 
1105.847

>  <PUBCHEM_SHAPE_VOLUME>  (1) 
318.4

>  <PUBCHEM_COORDINATE_TYPE>  (1) 
2
5
10

$$$$
