29876
     RDKit          3D

 19 19  0  0  0  0  0  0  0  0999 V2000
   -3.3683    0.0095    0.2709 O   0  0  0  0  0  0  0  0  0  0  0  0
    3.6162   -0.1503    0.8983 O   0  0  0  0  0  0  0  0  0  0  0  0
   -5.4201   -1.7762   -0.4098 O   0  0  0  0  0  0  0  0  0  0  0  0
   -2.5181    1.9849   -0.5071 O   0  0  0  0  0  0  0  0  0  0  0  0
    3.7481   -1.0405   -1.2456 O   0  0  0  0  0  0  0  0  0  0  0  0
   -1.1334    0.2877    0.3314 N   0  0  0  0  0  0  0  0  0  0  0  0
    5.2566   -1.6743    0.3990 N   0  0  0  0  0  0  0  0  0  0  0  0
    0.1539    0.8119    0.2103 C   0  0  0  0  0  0  0  0  0  0  0  0
    1.2548    0.0598    0.6204 C   0  0  0  0  0  0  0  0  0  0  0  0
    2.5418    0.5836    0.4983 C   0  0  0  0  0  0  0  0  0  0  0  0
    0.3400    2.0877   -0.3218 C   0  0  0  0  0  0  0  0  0  0  0  0
   -4.6894    0.4721   -0.0329 C   0  0  0  0  0  0  0  0  0  0  0  0
   -5.6896   -0.6025    0.3473 C   0  0  0  0  0  0  0  0  0  0  0  0
    2.7279    1.8595   -0.0336 C   0  0  0  0  0  0  0  0  0  0  0  0
    1.6270    2.6116   -0.4438 C   0  0  0  0  0  0  0  0  0  0  0  0
   -2.3470    0.8749   -0.0180 C   0  0  0  0  0  0  0  0  0  0  0  0
    4.1779   -0.9722   -0.0979 C   0  0  0  0  0  0  0  0  0  0  0  0
   -6.3164   -2.8273   -0.0775 C   0  0  0  0  0  0  0  0  0  0  0  0
    6.0380   -2.5999   -0.3880 C   0  0  0  0  0  0  0  0  0  0  0  0
  1 12  1  0
  1 16  1  0
  2 10  1  0
  2 17  1  0
  3 13  1  0
  3 18  1  0
  4 16  2  0
  5 17  2  0
  6  8  1  0
  6 16  1  0
  7 17  1  0
  7 19  1  0
  8  9  2  0
  8 11  1  0
  9 10  1  0
 10 14  2  0
 11 15  2  0
 12 13  1  0
 14 15  1  0
M  END
>  <PUBCHEM_COMPOUND_CID>  (1) 
29876

>  <PUBCHEM_CONFORMER_RMSD>  (1) 
0.8

>  <PUBCHEM_CONFORMER_DIVERSEORDER>  (1) 
2
149
36
76
47
170
189
190
261
57
91
108
171
56
37
172
156
214
207
20
23
144
65
252
155
70
259
52
19
225
251
173
194
77
242
210
55
135
148
204
150
128
132
71
64
238
213
129
199
133
230
84
43
191
212
78
143
253
44
54
218
35
184
121
178
152
226
141
239
219
176
92
241
167
220
81
185
232
208
216
201
87
247
107
130
82
123
140
139
222
245
179
223
63
21
166
89
27
237
188
192
96
164
211
68
15
160
187
120
69
244
31
235
39
161
158
231
153
104
203
159
105
186
67
154
196
22
93
233
206
227
142
11
98
116
215
66
127
74
117
124
254
181
183
102
157
51
14
16
80
137
33
122
83
26
197
30
145
243
119
95
41
38
110
255
249
257
134
112
62
18
258
111
50
256
138
224
131
250
25
13
32
28
118
180
193
101
73
217
45
221
200
229
151
195
113
48
125
165
46
100
79
17
24
86
42
162
40
248
146
115
106
209
246
234
114
90
49
168
260
136
53
9
103
99
97
59
61
8
169
34
7
94
182
75
126
5
29
205
109
85
198
236
72
60
175
202
3
10
147
1
58
6
88
228
4
12
240
177
174
163

>  <PUBCHEM_MMFF94_PARTIAL_CHARGES>  (1) 
25
1 -0.43
10 0.08
11 -0.15
12 0.28
13 0.28
14 -0.15
15 -0.15
16 0.78
17 0.78
18 0.28
19 0.3
2 -0.23
20 0.15
21 0.15
24 0.37
27 0.15
28 0.15
3 -0.56
32 0.37
4 -0.57
5 -0.57
6 -0.55
7 -0.73
8 0.12
9 -0.15

>  <PUBCHEM_EFFECTIVE_ROTOR_COUNT>  (1) 
9

>  <PUBCHEM_PHARMACOPHORE_FEATURES>  (1) 
6
1 3 acceptor
1 4 acceptor
1 5 acceptor
1 6 donor
1 7 donor
6 8 9 10 11 14 15 rings

>  <PUBCHEM_HEAVY_ATOM_COUNT>  (1) 
19

>  <PUBCHEM_ATOM_DEF_STEREO_COUNT>  (1) 
0

>  <PUBCHEM_ATOM_UDEF_STEREO_COUNT>  (1) 
0

>  <PUBCHEM_BOND_DEF_STEREO_COUNT>  (1) 
0

>  <PUBCHEM_BOND_UDEF_STEREO_COUNT>  (1) 
0

>  <PUBCHEM_ISOTOPIC_ATOM_COUNT>  (1) 
0

>  <PUBCHEM_COMPONENT_COUNT>  (1) 
1

>  <PUBCHEM_CACTVS_TAUTO_COUNT>  (1) 
4

>  <PUBCHEM_CONFORMER_ID>  (1) 
000074B400000002

>  <PUBCHEM_MMFF94_ENERGY>  (1) 
48.51

>  <PUBCHEM_FEATURE_SELFOVERLAP>  (1) 
30.447

>  <PUBCHEM_SHAPE_FINGERPRINT>  (1) 
11089746 13 10953732330938466593
117890 112 9511461125936671115
12032990 46 18337108973623675616
12916754 54 18410575098107676345
13167823 11 18338514248726643851
13533116 47 18341613784494796113
13740256 8 18410576150194867412
13862211 1 18261671472520964458
13955234 65 18199184182014947392
14123256 34 18410017619409794635
14178000 29 18408324367598241084
14251740 57 18340482360885321496
14251751 18 18413671305360160743
14251764 30 18337390435773506910
14528608 73 11097854107857963081
17492 89 18411698820286517853
17959699 21 8214150655080009855
18222031 100 18334854996255972040
193927 3 18341623593894047297
19784866 240 18341899558417297761
19784866 34 9511460017824682629
20028762 73 18343017822089397471
20374829 77 18264206907721828520
20388580 30 18333737914075607316
20398071 356 18410300246176530883
20621476 30 18264771129228994251
20645477 70 18262234525041800113
21267235 1 18336271158341809025
23522609 53 18121535450858929317
23559900 14 18335977662332314281
2838139 119 11026096689084729242
29717793 49 18410850002084714869
338550 245 18271242832593627167
34797466 226 12540695895239187921
465052 167 18272374165797239526
5104073 3 18060142054958926841
5718773 13 18337948987902313810
59682541 35 18201142293009144834
636775 8 17914063006769196014
77188 2 18412545397191249560
7970288 3 18410854317836458646
9709674 26 18188776175081497785

>  <PUBCHEM_SHAPE_MULTIPOLES>  (1) 
351.7
15.03
2.96
0.79
11.85
0.77
-0.03
16.69
-0.75
-0.73
-0.6
-0.42
0.05
0.2

>  <PUBCHEM_SHAPE_SELFOVERLAP>  (1) 
712.26

>  <PUBCHEM_SHAPE_VOLUME>  (1) 
202.7

>  <PUBCHEM_COORDINATE_TYPE>  (1) 
2
5
10

$$$$
