29875
     RDKit          3D

 18 18  0  0  0  0  0  0  0  0999 V2000
   -2.1102   -0.3656    0.7355 O   0  0  0  0  0  0  0  0  0  0  0  0
    3.9956    1.5471    0.0687 O   0  0  0  0  0  0  0  0  0  0  0  0
    1.7566    1.8030   -0.2235 O   0  0  0  0  0  0  0  0  0  0  0  0
   -2.3373    0.3857   -1.4412 O   0  0  0  0  0  0  0  0  0  0  0  0
    2.6573   -0.3407    0.1529 N   0  0  0  0  0  0  0  0  0  0  0  0
   -3.9413    0.9901    0.1309 N   0  0  0  0  0  0  0  0  0  0  0  0
    1.3844   -1.0245    0.0643 C   0  0  0  0  0  0  0  0  0  0  0  0
    0.2592   -0.3448    0.4479 C   0  0  0  0  0  0  0  0  0  0  0  0
   -0.9672   -1.0042    0.3643 C   0  0  0  0  0  0  0  0  0  0  0  0
    1.3755   -2.3141   -0.3965 C   0  0  0  0  0  0  0  0  0  0  0  0
   -1.0220   -2.3185   -0.0999 C   0  0  0  0  0  0  0  0  0  0  0  0
    0.1493   -2.9734   -0.4801 C   0  0  0  0  0  0  0  0  0  0  0  0
    3.8835   -1.1108    0.4088 C   0  0  0  0  0  0  0  0  0  0  0  0
    2.7128    1.0623   -0.0072 C   0  0  0  0  0  0  0  0  0  0  0  0
   -2.7715    0.3481   -0.2904 C   0  0  0  0  0  0  0  0  0  0  0  0
   -4.7316    1.7653   -0.8145 C   0  0  0  0  0  0  0  0  0  0  0  0
   -4.4497    0.9361    1.4978 C   0  0  0  0  0  0  0  0  0  0  0  0
    4.1566    2.9587   -0.1176 C   0  0  0  0  0  0  0  0  0  0  0  0
  1  9  1  0
  1 15  1  0
  2 14  1  0
  2 18  1  0
  3 14  2  0
  4 15  2  0
  5  7  1  0
  5 13  1  0
  5 14  1  0
  6 15  1  0
  6 16  1  0
  6 17  1  0
  7  8  2  0
  7 10  1  0
  8  9  1  0
  9 11  2  0
 10 12  2  0
 11 12  1  0
M  END
>  <PUBCHEM_COMPOUND_CID>  (1) 
29875

>  <PUBCHEM_CONFORMER_RMSD>  (1) 
0.8

>  <PUBCHEM_CONFORMER_DIVERSEORDER>  (1) 
1
79
29
69
90
61
16
100
80
27
56
37
99
34
107
26
94
10
14
85
77
31
11
60
46
20
103
32
67
49
24
47
73
30
59
41
64
81
17
22
91
66
18
89
28
5
35
106
98
97
53
108
101
9
44
92
15
48
7
74
93
62
36
57
42
86
84
102
76
95
105
33
8
70
52
104
82
3
71
6
51
4
58
68
13
25
12
88
87
63
45
39
50
40
75
83
21
2
72
55
78
23
54
43
96
65
38
19

>  <PUBCHEM_MMFF94_PARTIAL_CHARGES>  (1) 
22
1 -0.23
10 -0.15
11 -0.15
12 -0.15
13 0.3
14 0.78
15 0.78
16 0.3
17 0.3
18 0.28
19 0.15
2 -0.43
20 0.15
21 0.15
22 0.15
3 -0.57
4 -0.57
5 -0.48
6 -0.66
7 0.12
8 -0.15
9 0.08

>  <PUBCHEM_EFFECTIVE_ROTOR_COUNT>  (1) 
6

>  <PUBCHEM_PHARMACOPHORE_FEATURES>  (1) 
3
1 3 acceptor
1 4 acceptor
6 7 8 9 10 11 12 rings

>  <PUBCHEM_HEAVY_ATOM_COUNT>  (1) 
18

>  <PUBCHEM_ATOM_DEF_STEREO_COUNT>  (1) 
0

>  <PUBCHEM_ATOM_UDEF_STEREO_COUNT>  (1) 
0

>  <PUBCHEM_BOND_DEF_STEREO_COUNT>  (1) 
0

>  <PUBCHEM_BOND_UDEF_STEREO_COUNT>  (1) 
0

>  <PUBCHEM_ISOTOPIC_ATOM_COUNT>  (1) 
0

>  <PUBCHEM_COMPONENT_COUNT>  (1) 
1

>  <PUBCHEM_CACTVS_TAUTO_COUNT>  (1) 
1

>  <PUBCHEM_CONFORMER_ID>  (1) 
000074B300000001

>  <PUBCHEM_MMFF94_ENERGY>  (1) 
66.4944

>  <PUBCHEM_FEATURE_SELFOVERLAP>  (1) 
15.223

>  <PUBCHEM_SHAPE_FINGERPRINT>  (1) 
10411042 1 17546445574833318919
10681291 71 18339092565355969868
11471102 20 18267863870152440855
11796584 16 12607403243863078477
12173636 292 18197212766118687534
122479 349 18261674860727713450
12390115 104 18196672888782360024
12500047 106 18198057174211821976
12788726 201 17904465656309164882
13134695 92 17831290610501573471
13140716 1 18408321112086909930
13583140 156 17241030042434219691
14123255 52 18411418440157241533
14251764 75 18339374074650857648
15342168 16 18411423908098943829
17134986 127 18411984658928934918
1741750 31 18269837673949497872
17834072 32 18339364166424412980
1798214 55 18410576218698384624
18186145 218 18271812263673426295
18785283 64 18335709308222164866
19784866 34 18272371992142932633
204376 136 18411703201073791699
21499 59 18413668011220289391
21524375 3 18409724092870863467
22182937 141 18268154347190433737
23532345 1 18339079264432772905
23558518 356 18116433841771089890
25 1 18412825754958653931
27216 239 18116434936749626585
2748010 2 18340498875488729198
3060560 45 18199748042448596838
335352 9 18410855448187609814
350125 39 18123755515390275377
474 4 18341329994467344211
5104073 3 18335138725926944418
6327066 14 18335696208239979988
633830 44 18059590039802115429
7832392 63 18337672039846733756

>  <PUBCHEM_SHAPE_MULTIPOLES>  (1) 
336.99
8.73
3.15
0.94
3.99
0.28
0.04
-8.03
0.59
-2.51
-0.53
1.02
-0.14
0

>  <PUBCHEM_SHAPE_SELFOVERLAP>  (1) 
689.648

>  <PUBCHEM_SHAPE_VOLUME>  (1) 
194.3

>  <PUBCHEM_COORDINATE_TYPE>  (1) 
2
5
10

$$$$
