29879
     RDKit          3D

 15 16  0  0  0  0  0  0  0  0999 V2000
    5.7828    0.5858    0.0511 Cl  0  0  0  0  0  0  0  0  0  0  0  0
   -0.8266    0.3940   -0.0277 O   0  0  0  0  0  0  0  0  0  0  0  0
    1.3947   -0.4554   -0.0290 C   0  0  0  0  0  0  0  0  0  0  0  0
   -0.0560   -0.8011   -0.0554 C   0  0  0  0  0  0  0  0  0  0  0  0
    2.0866   -0.2583   -1.2239 C   0  0  0  0  0  0  0  0  0  0  0  0
    2.0597   -0.3305    1.1908 C   0  0  0  0  0  0  0  0  0  0  0  0
   -2.1890    0.2496   -0.0089 C   0  0  0  0  0  0  0  0  0  0  0  0
    3.4435    0.0637   -1.1992 C   0  0  0  0  0  0  0  0  0  0  0  0
    3.4167   -0.0084    1.2157 C   0  0  0  0  0  0  0  0  0  0  0  0
    4.1087    0.1888    0.0206 C   0  0  0  0  0  0  0  0  0  0  0  0
   -2.7464   -1.0240   -0.0176 C   0  0  0  0  0  0  0  0  0  0  0  0
   -3.0002    1.3784    0.0181 C   0  0  0  0  0  0  0  0  0  0  0  0
   -4.1335   -1.1709    0.0009 C   0  0  0  0  0  0  0  0  0  0  0  0
   -4.3873    1.2315    0.0366 C   0  0  0  0  0  0  0  0  0  0  0  0
   -4.9538   -0.0433    0.0279 C   0  0  0  0  0  0  0  0  0  0  0  0
  1 10  1  0
  2  4  1  0
  2  7  1  0
  3  4  1  0
  3  5  2  0
  3  6  1  0
  5  8  1  0
  6  9  2  0
  7 11  2  0
  7 12  1  0
  8 10  2  0
  9 10  1  0
 11 13  1  0
 12 14  2  0
 13 15  2  0
 14 15  1  0
M  END
>  <PUBCHEM_COMPOUND_CID>  (1) 
29879

>  <PUBCHEM_CONFORMER_RMSD>  (1) 
0.6

>  <PUBCHEM_CONFORMER_DIVERSEORDER>  (1) 
1
14
12
3
8
13
9
11
10
2
4
5
7
6
16
15

>  <PUBCHEM_MMFF94_PARTIAL_CHARGES>  (1) 
24
1 -0.18
10 0.18
11 -0.15
12 -0.15
13 -0.15
14 -0.15
15 -0.15
18 0.15
19 0.15
2 -0.36
20 0.15
21 0.15
22 0.15
23 0.15
24 0.15
25 0.15
26 0.15
3 -0.14
4 0.42
5 -0.15
6 -0.15
7 0.08
8 -0.15
9 -0.15

>  <PUBCHEM_EFFECTIVE_ROTOR_COUNT>  (1) 
3

>  <PUBCHEM_PHARMACOPHORE_FEATURES>  (1) 
3
1 2 acceptor
6 3 5 6 8 9 10 rings
6 7 11 12 13 14 15 rings

>  <PUBCHEM_HEAVY_ATOM_COUNT>  (1) 
15

>  <PUBCHEM_ATOM_DEF_STEREO_COUNT>  (1) 
0

>  <PUBCHEM_ATOM_UDEF_STEREO_COUNT>  (1) 
0

>  <PUBCHEM_BOND_DEF_STEREO_COUNT>  (1) 
0

>  <PUBCHEM_BOND_UDEF_STEREO_COUNT>  (1) 
0

>  <PUBCHEM_ISOTOPIC_ATOM_COUNT>  (1) 
0

>  <PUBCHEM_COMPONENT_COUNT>  (1) 
1

>  <PUBCHEM_CACTVS_TAUTO_COUNT>  (1) 
1

>  <PUBCHEM_CONFORMER_ID>  (1) 
000074B700000001

>  <PUBCHEM_MMFF94_ENERGY>  (1) 
45.0394

>  <PUBCHEM_FEATURE_SELFOVERLAP>  (1) 
15.223

>  <PUBCHEM_SHAPE_FINGERPRINT>  (1) 
10354089 29 17095527288212035000
10680689 15 17703788141631272623
10912923 1 17821727242988047617
11287383 113 17989488554290930848
11471102 20 15913327996623431362
12107183 9 17320686176674624376
12236239 1 17821727243241306938
12251169 10 16081090381066869122
13897977 58 18407760335328729377
14123238 8 17775284971337090245
14386348 63 17632580461022208415
15242439 84 17489869332041248331
15375358 24 17917992771913672279
18186145 218 15626216922902704614
19050596 39 17603307054922898409
200 152 16443339888574578063
20279233 1 17847063281037577775
20612939 158 14836398173086979666
20645477 56 18272652329554429769
20645477 70 16486982743523350614
21641784 216 16773536437890334128
2297311 6 18202009832514006389
23048698 100 16950283996467943561
23402539 116 18412821404446693382
23402655 69 15985106288553024064
23557571 272 18273500052428997617
23559900 14 18271812259246603550
2916195 48 18271800268146357976
300161 21 17894623747497615597
3060560 45 15410895163411409452
3268164 11 18341602716627792621
3545911 37 18201721743023753415
42788 4 18411700993592398784
474 4 17024321931581562700
4990 188 17846502517291036446
5104073 3 18339086969409255227
522135 26 14979958055939944646
5281201 14 17131841940821468824
542803 24 18040155119234521300
573450 72 18114454596344264875
9971528 1 17530685377624757182

>  <PUBCHEM_SHAPE_MULTIPOLES>  (1) 
304.69
12.1
1.12
1.01
1.43
0.11
0
2.09
0.2
-1.24
0.01
1.08
-0.05
-0.03

>  <PUBCHEM_SHAPE_SELFOVERLAP>  (1) 
641.664

>  <PUBCHEM_SHAPE_VOLUME>  (1) 
172.1

>  <PUBCHEM_COORDINATE_TYPE>  (1) 
2
5
10

$$$$
