29886
     RDKit          3D

 16 18  0  0  0  0  0  0  0  0999 V2000
    0.1090   -1.6657    0.0311 S   0  0  0  0  0  0  0  0  0  0  0  0
   -4.2079   -0.7009    0.5880 O   0  0  0  0  0  0  0  0  0  0  0  0
   -2.8385   -2.1553   -0.4965 O   0  0  0  0  0  0  0  0  0  0  0  0
    0.2162    0.9086   -0.0253 C   0  0  0  0  0  0  0  0  0  0  0  0
    1.5905    0.4428    0.0012 C   0  0  0  0  0  0  0  0  0  0  0  0
   -0.6931   -0.1503   -0.0125 C   0  0  0  0  0  0  0  0  0  0  0  0
    1.6680   -0.9503    0.0331 C   0  0  0  0  0  0  0  0  0  0  0  0
   -2.0855    0.0680   -0.0339 C   0  0  0  0  0  0  0  0  0  0  0  0
   -0.3072    2.2277   -0.0611 C   0  0  0  0  0  0  0  0  0  0  0  0
    2.8087    1.1717   -0.0010 C   0  0  0  0  0  0  0  0  0  0  0  0
    2.9061   -1.6235    0.0623 C   0  0  0  0  0  0  0  0  0  0  0  0
   -2.5658    1.3776   -0.0693 C   0  0  0  0  0  0  0  0  0  0  0  0
   -1.6866    2.4492   -0.0825 C   0  0  0  0  0  0  0  0  0  0  0  0
    4.0384    0.5090    0.0280 C   0  0  0  0  0  0  0  0  0  0  0  0
    4.0842   -0.8760    0.0589 C   0  0  0  0  0  0  0  0  0  0  0  0
   -3.0364   -1.0327   -0.0207 C   0  0  0  0  0  0  0  0  0  0  0  0
  1  6  1  0
  1  7  1  0
  2 16  1  0
  3 16  2  0
  4  5  1  0
  4  6  2  0
  4  9  1  0
  5  7  2  0
  5 10  1  0
  6  8  1  0
  7 11  1  0
  8 12  2  0
  8 16  1  0
  9 13  2  0
 10 14  2  0
 11 15  2  0
 12 13  1  0
 14 15  1  0
M  END
>  <PUBCHEM_COMPOUND_CID>  (1) 
29886

>  <PUBCHEM_CONFORMER_RMSD>  (1) 
0.6

>  <PUBCHEM_CONFORMER_DIVERSEORDER>  (1) 
1

>  <PUBCHEM_MMFF94_PARTIAL_CHARGES>  (1) 
22
1 -0.08
10 -0.15
11 -0.15
12 -0.15
13 -0.15
14 -0.15
15 -0.15
16 0.63
17 0.15
18 0.15
19 0.15
2 -0.65
20 0.15
21 0.15
22 0.15
23 0.15
24 0.5
3 -0.57
6 0.04
7 0.04
8 0.09
9 -0.15

>  <PUBCHEM_EFFECTIVE_ROTOR_COUNT>  (1) 
1

>  <PUBCHEM_PHARMACOPHORE_FEATURES>  (1) 
6
1 2 acceptor
1 3 acceptor
3 2 3 16 anion
5 1 4 5 6 7 rings
6 4 6 8 9 12 13 rings
6 5 7 10 11 14 15 rings

>  <PUBCHEM_HEAVY_ATOM_COUNT>  (1) 
16

>  <PUBCHEM_ATOM_DEF_STEREO_COUNT>  (1) 
0

>  <PUBCHEM_ATOM_UDEF_STEREO_COUNT>  (1) 
0

>  <PUBCHEM_BOND_DEF_STEREO_COUNT>  (1) 
0

>  <PUBCHEM_BOND_UDEF_STEREO_COUNT>  (1) 
0

>  <PUBCHEM_ISOTOPIC_ATOM_COUNT>  (1) 
0

>  <PUBCHEM_COMPONENT_COUNT>  (1) 
1

>  <PUBCHEM_CACTVS_TAUTO_COUNT>  (1) 
1

>  <PUBCHEM_CONFORMER_ID>  (1) 
000074BE00000001

>  <PUBCHEM_MMFF94_ENERGY>  (1) 
47.1202

>  <PUBCHEM_FEATURE_SELFOVERLAP>  (1) 
30.62

>  <PUBCHEM_SHAPE_FINGERPRINT>  (1) 
10062212 137 18262790766351302802
10608611 8 18339637850478232720
10616163 171 18411702045569736294
10618630 7 18408886256277651558
108231 29 18342737459355579680
10967382 1 17978227484710703302
11132069 177 18341607126984107842
11769659 78 18335697217873051642
11806522 49 18336825411039378687
12032990 46 18409733975542794434
12553582 1 18339357582176309719
13140716 1 18266736875039357672
13296908 3 18411699855252031070
14144814 61 18410291368156558024
14178342 30 18192699052254518888
14325111 11 18410292471963328356
14614273 12 18042399145373867365
15196674 1 18410012117540350920
15375462 6 18411418410429885798
15442244 35 18192708947827909770
15536298 74 18341894082824371686
16945 1 18339635771370929724
17492 89 18336263427575717522
17804303 29 18341335479219585486
18186145 218 18263363599298434420
19141452 34 18202004356715781095
200 152 18201145612200796853
20510252 161 18342739594006923960
20871998 184 18272651208172275021
21029758 27 18261120719994841749
21267235 1 18410020935156065650
21501502 16 18336829689169547424
221490 88 18338241470921927794
22213442 358 18411416254192753293
2334 1 18410009935813145532
23388829 49 18337392746154409365
23402539 116 18411973689344993174
23463225 33 18409450284489429732
23557571 272 18272662216284315316
23559900 14 18198616637031516066
25610 137 18408887355916048724
2748010 2 18411131407524394540
2871803 45 18335133189672004887
3312278 4 18338797818851115296
335352 9 17977945683490610334
34934 24 18410566301919240759
43471831 8 18261388893379163890
5104073 3 18339077091105521048
57096353 35 18334861653576444436
69090 78 18266173925149395421
7097593 13 17610327247920413530
7364860 26 18124595550595337961
83771 10 18410857689522176137
8809292 202 18260270793037829323
9709674 26 18198623229104799694

>  <PUBCHEM_SHAPE_MULTIPOLES>  (1) 
321.38
6.79
2.39
0.64
1.81
0.44
0
-1.7
0.35
-1.15
-0.13
-0.06
-0.03
-0.04

>  <PUBCHEM_SHAPE_SELFOVERLAP>  (1) 
711.538

>  <PUBCHEM_SHAPE_VOLUME>  (1) 
173

>  <PUBCHEM_COORDINATE_TYPE>  (1) 
2
5
10

$$$$
