2988
     RDKit          3D

 29 32  0  0  1  0  0  0  0  0999 V2000
    4.9114   -0.9532    0.1507 O   0  0  0  0  0  0  0  0  0  0  0  0
    4.2420   -1.9153   -1.8182 O   0  0  0  0  0  0  0  0  0  0  0  0
   -1.2746    2.4791   -2.1074 O   0  0  0  0  0  0  0  0  0  0  0  0
   -2.1632    3.7090   -0.2351 O   0  0  0  0  0  0  0  0  0  0  0  0
   -2.1510   -0.8430    2.5959 O   0  0  0  0  0  0  0  0  0  0  0  0
   -2.5227   -2.4469   -1.9017 O   0  0  0  0  0  0  0  0  0  0  0  0
   -3.7158   -1.4616    0.3954 O   0  0  0  0  0  0  0  0  0  0  0  0
    2.8916    0.0434    0.8032 C   0  0  0  0  0  0  0  0  0  0  0  0
    2.5979   -0.9641   -0.3031 C   0  0  0  0  0  0  0  0  0  0  0  0
    4.2558   -0.3976    1.2959 C   0  0  0  0  0  0  0  0  0  0  0  0
    2.9434    1.4715    0.2529 C   0  0  0  0  0  0  0  0  0  0  0  0
    1.8761   -2.2066    0.1995 C   0  0  0  0  0  0  0  0  0  0  0  0
    3.9809   -1.3346   -0.7755 C   0  0  0  0  0  0  0  0  0  0  0  0
    1.5712    2.0872    0.1564 C   0  0  0  0  0  0  0  0  0  0  0  0
    0.3831   -2.0076    0.2517 C   0  0  0  0  0  0  0  0  0  0  0  0
    0.8395    1.9340   -1.0150 C   0  0  0  0  0  0  0  0  0  0  0  0
    1.0662    2.7989    1.2495 C   0  0  0  0  0  0  0  0  0  0  0  0
   -0.3860   -2.3219   -0.8590 C   0  0  0  0  0  0  0  0  0  0  0  0
   -0.1987   -1.5132    1.4098 C   0  0  0  0  0  0  0  0  0  0  0  0
   -0.4112    2.5155   -1.0561 C   0  0  0  0  0  0  0  0  0  0  0  0
   -0.2034    3.3778    1.1820 C   0  0  0  0  0  0  0  0  0  0  0  0
   -0.9186    3.2179    0.0129 C   0  0  0  0  0  0  0  0  0  0  0  0
   -1.5804   -1.3292    1.4582 C   0  0  0  0  0  0  0  0  0  0  0  0
   -1.7679   -2.1379   -0.8106 C   0  0  0  0  0  0  0  0  0  0  0  0
   -2.3651   -1.6416    0.3482 C   0  0  0  0  0  0  0  0  0  0  0  0
   -2.3828    3.2366   -1.5799 C   0  0  0  0  0  0  0  0  0  0  0  0
   -2.2791    0.5735    2.7024 C   0  0  0  0  0  0  0  0  0  0  0  0
   -2.7392   -1.4086   -2.8551 C   0  0  0  0  0  0  0  0  0  0  0  0
   -4.4994   -2.5615    0.8523 C   0  0  0  0  0  0  0  0  0  0  0  0
  1 10  1  0
  1 13  1  0
  2 13  2  0
  3 20  1  0
  3 26  1  0
  4 22  1  0
  4 26  1  0
  5 23  1  0
  5 27  1  0
  6 24  1  0
  6 28  1  0
  7 25  1  0
  7 29  1  0
  8  9  1  0
  8 10  1  0
  8 11  1  0
  9 12  1  0
  9 13  1  0
 11 14  1  0
 12 15  1  0
 14 16  1  0
 14 17  2  0
 15 18  2  0
 15 19  1  0
 16 20  2  0
 17 21  1  0
 18 24  1  0
 19 23  2  0
 20 22  1  0
 21 22  2  0
 23 25  1  0
 24 25  2  0
M  END
>  <PUBCHEM_COMPOUND_CID>  (1) 
2988

>  <PUBCHEM_CONFORMER_RMSD>  (1) 
1

>  <PUBCHEM_CONFORMER_DIVERSEORDER>  (1) 
1
4
94
37
127
153
91
29
122
175
25
96
150
114
45
149
95
47
6
8
5
72
35
155
139
156
137
41
98
81
178
22
117
177
129
61
167
13
16
173
79
51
133
142
116
24
115
126
170
148
152
121
65
77
80
147
64
73
169
2
144
66
160
165
103
30
93
119
20
110
180
104
134
31
3
145
27
90
118
62
143
52
60
138
159
176
161
87
101
63
68
54
49
23
59
70
163
86
18
141
67
107
174
162
105
57
28
99
132
140
164
131
38
120
40
111
71
58
136
88
76
151
69
146
92
78
108
55
100
12
19
168
154
14
44
113
82
158
32
128
157
75
36
15
34
42
171
39
97
125
9
112
166
89
33
83
102
48
130
43
172
53
46
179
85
124
109
7
10
84
50
74
11
106
17
56
181
135
26
123
21

>  <PUBCHEM_MMFF94_PARTIAL_CHARGES>  (1) 
33
1 -0.43
10 0.28
11 0.14
12 0.14
13 0.66
14 -0.14
15 -0.14
16 -0.15
17 -0.15
18 -0.15
19 -0.15
2 -0.57
20 0.08
21 -0.15
22 0.08
23 0.08
24 0.08
25 0.08
26 0.56
27 0.28
28 0.28
29 0.28
3 -0.36
38 0.15
39 0.15
4 -0.36
40 0.15
41 0.15
42 0.15
5 -0.36
6 -0.36
7 -0.36
9 0.06

>  <PUBCHEM_EFFECTIVE_ROTOR_COUNT>  (1) 
8.4

>  <PUBCHEM_PHARMACOPHORE_FEATURES>  (1) 
10
1 2 acceptor
1 3 acceptor
1 4 acceptor
1 5 acceptor
1 6 acceptor
1 7 acceptor
5 1 8 9 10 13 rings
5 3 4 20 22 26 rings
6 14 16 17 20 21 22 rings
6 15 18 19 23 24 25 rings

>  <PUBCHEM_HEAVY_ATOM_COUNT>  (1) 
29

>  <PUBCHEM_ATOM_DEF_STEREO_COUNT>  (1) 
0

>  <PUBCHEM_ATOM_UDEF_STEREO_COUNT>  (1) 
2

>  <PUBCHEM_BOND_DEF_STEREO_COUNT>  (1) 
0

>  <PUBCHEM_BOND_UDEF_STEREO_COUNT>  (1) 
0

>  <PUBCHEM_ISOTOPIC_ATOM_COUNT>  (1) 
0

>  <PUBCHEM_COMPONENT_COUNT>  (1) 
1

>  <PUBCHEM_CACTVS_TAUTO_COUNT>  (1) 
2

>  <PUBCHEM_CONFORMER_ID>  (1) 
00000BAC00000001

>  <PUBCHEM_MMFF94_ENERGY>  (1) 
104.0686

>  <PUBCHEM_FEATURE_SELFOVERLAP>  (1) 
50.916

>  <PUBCHEM_SHAPE_FINGERPRINT>  (1) 
10119406 146 16827849786878204214
104564 63 18334577923699737328
11244481 83 15722492549106343305
11578080 2 17487306404802039864
12156800 1 17544417173521739481
12422481 6 18198369324129505785
12553582 1 18194396929925321452
12655364 131 16402497695985806464
12788726 201 18335139813023024888
13965767 371 17769407961464980571
15420108 30 17409074147479900208
17138139 8 17763416761623970861
17357779 13 18409439315248483318
17492 54 17973710390655214221
17980427 23 17415552379516952722
18603816 31 14330038743387151790
19930381 70 17326886778516620711
23419403 2 17056921308714605904
3052486 1 18042122068707197184
35225 105 17898293792472321764
469060 322 17895769412612034384
5171179 24 18128797807486955128
7237137 82 18193584198244649958

>  <PUBCHEM_SHAPE_MULTIPOLES>  (1) 
555.72
6.86
4.95
2.29
3.55
4.63
-0.11
-5.49
-0.04
-2.2
-1.14
-1.95
-0.12
1

>  <PUBCHEM_SHAPE_SELFOVERLAP>  (1) 
1208.573

>  <PUBCHEM_SHAPE_VOLUME>  (1) 
306.3

>  <PUBCHEM_COORDINATE_TYPE>  (1) 
2
5
10

$$$$
