29888
     RDKit          3D

 18 19  0  0  0  0  0  0  0  0999 V2000
    1.0478   -0.2381   -0.0006 O   0  0  0  0  0  0  0  0  0  0  0  0
   -5.5266    2.1863    0.0004 O   0  0  0  0  0  0  0  0  0  0  0  0
   -0.3934   -2.0137    0.0019 O   0  0  0  0  0  0  0  0  0  0  0  0
   -1.1533    0.2006   -0.0016 N   0  0  0  0  0  0  0  0  0  0  0  0
    3.4228   -0.3633    0.0010 C   0  0  0  0  0  0  0  0  0  0  0  0
    2.1487   -1.1386    0.0017 C   0  0  0  0  0  0  0  0  0  0  0  0
   -2.5605    0.0681   -0.0019 C   0  0  0  0  0  0  0  0  0  0  0  0
    4.0189   -0.0025   -1.2075 C   0  0  0  0  0  0  0  0  0  0  0  0
    4.0181    0.0016    1.2086 C   0  0  0  0  0  0  0  0  0  0  0  0
   -3.3497    1.2074   -0.0017 C   0  0  0  0  0  0  0  0  0  0  0  0
   -3.1237   -1.1981   -0.0005 C   0  0  0  0  0  0  0  0  0  0  0  0
    5.2105    0.7228   -1.2084 C   0  0  0  0  0  0  0  0  0  0  0  0
    5.2096    0.7269    1.2077 C   0  0  0  0  0  0  0  0  0  0  0  0
   -4.7386    1.0768    0.0000 C   0  0  0  0  0  0  0  0  0  0  0  0
   -0.2044   -0.8034   -0.0002 C   0  0  0  0  0  0  0  0  0  0  0  0
   -4.5123   -1.3287    0.0010 C   0  0  0  0  0  0  0  0  0  0  0  0
    5.8057    1.0875   -0.0009 C   0  0  0  0  0  0  0  0  0  0  0  0
   -5.3198   -0.1914    0.0012 C   0  0  0  0  0  0  0  0  0  0  0  0
  1  6  1  0
  1 15  1  0
  2 14  1  0
  3 15  2  0
  4  7  1  0
  4 15  1  0
  5  6  1  0
  5  8  2  0
  5  9  1  0
  7 10  2  0
  7 11  1  0
  8 12  1  0
  9 13  2  0
 10 14  1  0
 11 16  2  0
 12 17  2  0
 13 17  1  0
 14 18  2  0
 16 18  1  0
M  END
>  <PUBCHEM_COMPOUND_CID>  (1) 
29888

>  <PUBCHEM_CONFORMER_RMSD>  (1) 
0.6

>  <PUBCHEM_CONFORMER_DIVERSEORDER>  (1) 
1
65
7
64
6
61
40
26
4
63
38
62
25
3
58
41
39
50
36
45
2
57
51
60
10
44
18
24
17
46
56
47
19
34
23
59
43
9
37
49
22
5
42
48
8
32
28
55
31
66
52
27
67
16
35
69
54
30
21
33
53
29
14
20
71
12
11
68
70
13
15

>  <PUBCHEM_MMFF94_PARTIAL_CHARGES>  (1) 
29
1 -0.43
10 -0.15
11 -0.15
12 -0.15
13 -0.15
14 0.08
15 0.78
16 -0.15
17 -0.15
18 -0.15
2 -0.53
21 0.15
22 0.15
23 0.15
24 0.37
25 0.15
26 0.15
27 0.15
28 0.15
29 0.15
3 -0.57
30 0.15
31 0.45
4 -0.55
5 -0.14
6 0.42
7 0.12
8 -0.15
9 -0.15

>  <PUBCHEM_EFFECTIVE_ROTOR_COUNT>  (1) 
5

>  <PUBCHEM_PHARMACOPHORE_FEATURES>  (1) 
5
1 2 donor
1 3 acceptor
1 4 donor
6 5 8 9 12 13 17 rings
6 7 10 11 14 16 18 rings

>  <PUBCHEM_HEAVY_ATOM_COUNT>  (1) 
18

>  <PUBCHEM_ATOM_DEF_STEREO_COUNT>  (1) 
0

>  <PUBCHEM_ATOM_UDEF_STEREO_COUNT>  (1) 
0

>  <PUBCHEM_BOND_DEF_STEREO_COUNT>  (1) 
0

>  <PUBCHEM_BOND_UDEF_STEREO_COUNT>  (1) 
0

>  <PUBCHEM_ISOTOPIC_ATOM_COUNT>  (1) 
0

>  <PUBCHEM_COMPONENT_COUNT>  (1) 
1

>  <PUBCHEM_CACTVS_TAUTO_COUNT>  (1) 
13

>  <PUBCHEM_CONFORMER_ID>  (1) 
000074C000000001

>  <PUBCHEM_MMFF94_ENERGY>  (1) 
47.2396

>  <PUBCHEM_FEATURE_SELFOVERLAP>  (1) 
25.372

>  <PUBCHEM_SHAPE_FINGERPRINT>  (1) 
10014705 185 18335983082675629917
10354089 29 17167582705044389908
10378564 45 17917437463186982382
10670039 82 18338812113304461364
10688039 33 15213012752661375790
10912923 1 17603584153275317018
11128504 68 14189573057277406810
11287383 113 17346598607819411414
117890 112 18335138678524060648
12107183 9 17247219021614782928
12236239 1 17967249814917277266
12390115 104 18201731604854260321
12596602 18 16805324409300721545
12616971 3 16805605875623901502
12730499 353 17632303393257327078
12916748 109 18343024393235346586
14251764 75 17481438075803243833
14341114 328 17603584144938499074
14528608 73 18201998837107448518
14573314 32 17846786191206554556
15183329 4 11240004451211408849
15348495 7 13334747850710835893
15788980 27 12685092600587448770
17844677 252 16845580815601176440
18222031 100 10447926174572277386
200 152 13686306776818498766
20281389 69 18334575703312752889
20645477 56 18201999958025594303
20645477 70 16343436042099148150
21150785 3 16845281761866726541
212847 35 18410853244652979090
220451 1 16008753515454999122
22061861 79 16559039272398832844
221357 26 16486975076890812584
22289505 5 17632858621007100288
23272321 79 18335421304567811445
23402539 116 18413101783885035679
23559900 14 17983854480453985143
26918003 58 12829487051721256374
2767999 5 18260543428834460836
2916195 48 18272926159088550656
29717793 49 12895083933532256464
300161 21 18261106357624125903
3472631 163 18337114583351942668
34797466 226 17846224396451759924
3545911 37 18272654549398530518
441001 317 18342176652912423377
465052 167 8502368953899950768
5104073 3 18262803956602109779
5374978 207 16225763021843917244
542803 24 18040154024049502766
5924683 9 14563110181294625337
59682541 52 16629966503800506388
7062679 6 18335987488953723853
960060 61 13542463185521023538

>  <PUBCHEM_SHAPE_MULTIPOLES>  (1) 
347.84
15.92
1.57
0.94
1.95
0.11
0
6.3
0
-1.87
0
1.59
0.1
0

>  <PUBCHEM_SHAPE_SELFOVERLAP>  (1) 
741.779

>  <PUBCHEM_SHAPE_VOLUME>  (1) 
191.8

>  <PUBCHEM_COORDINATE_TYPE>  (1) 
2
5
10

$$$$
