29882
     RDKit          3D

 10  9  0  0  0  0  0  0  0  0999 V2000
    2.1949   -0.5580   -0.7387 S   0  0  0  0  0  0  0  0  0  0  0  0
   -1.6203   -2.1418   -0.4450 S   0  0  0  0  0  0  0  0  0  0  0  0
   -0.1129    1.6681   -0.2110 N   0  0  0  0  0  0  0  0  0  0  0  0
   -0.3508    0.2772    0.1992 C   0  0  0  0  0  0  0  0  0  0  0  0
    0.9848   -0.3703    0.6099 C   0  0  0  0  0  0  0  0  0  0  0  0
   -1.1431   -0.4469   -0.9033 C   0  0  0  0  0  0  0  0  0  0  0  0
    0.5675    2.3984    0.8546 C   0  0  0  0  0  0  0  0  0  0  0  0
   -1.3754    2.3149   -0.5563 C   0  0  0  0  0  0  0  0  0  0  0  0
    3.4926   -1.3978    0.1963 C   0  0  0  0  0  0  0  0  0  0  0  0
   -2.6373   -1.7438    0.9944 C   0  0  0  0  0  0  0  0  0  0  0  0
  1  5  1  0
  1  9  1  0
  2  6  1  0
  2 10  1  0
  3  4  1  0
  3  7  1  0
  3  8  1  0
  4  5  1  0
  4  6  1  0
M  END
>  <PUBCHEM_COMPOUND_CID>  (1) 
29882

>  <PUBCHEM_CONFORMER_RMSD>  (1) 
0.6

>  <PUBCHEM_CONFORMER_DIVERSEORDER>  (1) 
15
7
6
23
19
5
12
1
13
2
21
3
18
4
8
22
17
20
10
11
16
14
9

>  <PUBCHEM_MMFF94_PARTIAL_CHARGES>  (1) 
10
1 -0.46
10 0.23
2 -0.46
3 -0.81
4 0.27
5 0.23
6 0.23
7 0.27
8 0.27
9 0.23

>  <PUBCHEM_EFFECTIVE_ROTOR_COUNT>  (1) 
5

>  <PUBCHEM_PHARMACOPHORE_FEATURES>  (1) 
3
1 10 hydrophobe
1 3 cation
1 9 hydrophobe

>  <PUBCHEM_HEAVY_ATOM_COUNT>  (1) 
10

>  <PUBCHEM_ATOM_DEF_STEREO_COUNT>  (1) 
0

>  <PUBCHEM_ATOM_UDEF_STEREO_COUNT>  (1) 
0

>  <PUBCHEM_BOND_DEF_STEREO_COUNT>  (1) 
0

>  <PUBCHEM_BOND_UDEF_STEREO_COUNT>  (1) 
0

>  <PUBCHEM_ISOTOPIC_ATOM_COUNT>  (1) 
0

>  <PUBCHEM_COMPONENT_COUNT>  (1) 
1

>  <PUBCHEM_CACTVS_TAUTO_COUNT>  (1) 
1

>  <PUBCHEM_CONFORMER_ID>  (1) 
000074BA0000000F

>  <PUBCHEM_MMFF94_ENERGY>  (1) 
28.7435

>  <PUBCHEM_FEATURE_SELFOVERLAP>  (1) 
15.223

>  <PUBCHEM_SHAPE_FINGERPRINT>  (1) 
1 1 17040916460909821270
100427 49 18268425900803181550
12423570 1 8089685281374508061
12716758 59 17983005649161031970
161256 15 18266740379532230269
18534176 82 18128251182434713182
19021347 4 17618792357703218378
20379382 53 17831869323279908815
20645476 183 17901106317731179750
20711978 78 17980189017913348423
20711985 344 18265596732799415083
20871998 184 18271247114586116270
20871998 22 18265893738319910883
21061003 4 18341331205558775602
23552423 10 17620763116474723983
23552449 1 18342173320033430924
23598294 1 18339365154462161122
2748010 2 18193256701880770997
305870 269 17479180112209139337
528862 383 17766842006205001718
81228 2 18339646624705710170

>  <PUBCHEM_SHAPE_MULTIPOLES>  (1) 
208.51
3.85
3.03
1.04
2.15
1.7
0.03
-3.45
0.41
-0.88
0.15
-0.22
-0.05
0.49

>  <PUBCHEM_SHAPE_SELFOVERLAP>  (1) 
349.857

>  <PUBCHEM_SHAPE_VOLUME>  (1) 
145.7

>  <PUBCHEM_COORDINATE_TYPE>  (1) 
2
5
10

$$$$
