29887
     RDKit          3D

 17 18  0  0  0  0  0  0  0  0999 V2000
   -1.4726    0.7029   -0.7956 O   0  0  0  0  0  0  0  0  0  0  0  0
   -0.4315   -1.3261   -0.9679 O   0  0  0  0  0  0  0  0  0  0  0  0
    5.3022    1.4992    0.8023 O   0  0  0  0  0  0  0  0  0  0  0  0
    0.7228    0.6126   -0.3436 N   0  0  0  0  0  0  0  0  0  0  0  0
   -2.7367    0.1099   -0.5181 C   0  0  0  0  0  0  0  0  0  0  0  0
   -2.7251   -0.4879    0.8882 C   0  0  0  0  0  0  0  0  0  0  0  0
   -3.8395    1.1556   -0.6760 C   0  0  0  0  0  0  0  0  0  0  0  0
   -4.0904   -1.0503    1.2702 C   0  0  0  0  0  0  0  0  0  0  0  0
   -5.2048    0.5934   -0.2942 C   0  0  0  0  0  0  0  0  0  0  0  0
   -5.1929   -0.0061    1.1102 C   0  0  0  0  0  0  0  0  0  0  0  0
   -0.3805   -0.1269   -0.7232 C   0  0  0  0  0  0  0  0  0  0  0  0
    2.0478    0.1610   -0.1480 C   0  0  0  0  0  0  0  0  0  0  0  0
    3.0243    1.0667    0.2350 C   0  0  0  0  0  0  0  0  0  0  0  0
    2.3451   -1.1783   -0.3446 C   0  0  0  0  0  0  0  0  0  0  0  0
    4.3324    0.6215    0.4264 C   0  0  0  0  0  0  0  0  0  0  0  0
    3.6529   -1.6235   -0.1533 C   0  0  0  0  0  0  0  0  0  0  0  0
    4.6465   -0.7237    0.2323 C   0  0  0  0  0  0  0  0  0  0  0  0
  1  5  1  0
  1 11  1  0
  2 11  2  0
  3 15  1  0
  4 11  1  0
  4 12  1  0
  5  6  1  0
  5  7  1  0
  6  8  1  0
  7  9  1  0
  8 10  1  0
  9 10  1  0
 12 13  2  0
 12 14  1  0
 13 15  1  0
 14 16  2  0
 15 17  2  0
 16 17  1  0
M  END
>  <PUBCHEM_COMPOUND_CID>  (1) 
29887

>  <PUBCHEM_CONFORMER_RMSD>  (1) 
0.6

>  <PUBCHEM_CONFORMER_DIVERSEORDER>  (1) 
1
61
91
71
27
76
63
12
72
23
53
64
26
15
30
37
74
2
36
21
31
14
51
55
28
29
41
50
90
9
88
62
52
80
54
42
66
75
18
85
11
56
4
65
3
35
87
22
57
89
86
19
34
93
78
38
16
82
49
73
44
33
83
92
81
77
32
59
17
6
47
40
45
10
48
8
39
84
79
13
46
43
70
20
58
69
60
68
5
67
24
7
25

>  <PUBCHEM_MMFF94_PARTIAL_CHARGES>  (1) 
18
1 -0.43
11 0.78
12 0.12
13 -0.15
14 -0.15
15 0.08
16 -0.15
17 -0.15
2 -0.57
29 0.37
3 -0.53
30 0.15
31 0.15
32 0.15
33 0.15
34 0.45
4 -0.55
5 0.28

>  <PUBCHEM_EFFECTIVE_ROTOR_COUNT>  (1) 
5.2

>  <PUBCHEM_PHARMACOPHORE_FEATURES>  (1) 
5
1 2 acceptor
1 3 donor
1 4 donor
6 12 13 14 15 16 17 rings
6 5 6 7 8 9 10 rings

>  <PUBCHEM_HEAVY_ATOM_COUNT>  (1) 
17

>  <PUBCHEM_ATOM_DEF_STEREO_COUNT>  (1) 
0

>  <PUBCHEM_ATOM_UDEF_STEREO_COUNT>  (1) 
0

>  <PUBCHEM_BOND_DEF_STEREO_COUNT>  (1) 
0

>  <PUBCHEM_BOND_UDEF_STEREO_COUNT>  (1) 
0

>  <PUBCHEM_ISOTOPIC_ATOM_COUNT>  (1) 
0

>  <PUBCHEM_COMPONENT_COUNT>  (1) 
1

>  <PUBCHEM_CACTVS_TAUTO_COUNT>  (1) 
13

>  <PUBCHEM_CONFORMER_ID>  (1) 
000074BF00000001

>  <PUBCHEM_MMFF94_ENERGY>  (1) 
36.582

>  <PUBCHEM_FEATURE_SELFOVERLAP>  (1) 
25.372

>  <PUBCHEM_SHAPE_FINGERPRINT>  (1) 
10 15 18262510503246557240
10354089 29 18060140959562735744
10498660 4 13398357824114498707
10912923 1 17275378802881589751
11045977 3 18261114075432476091
11046707 91 15936411156642870637
11089746 13 16630519661798035856
12236239 1 16845572006876232157
12507560 40 18408040688902186133
12596602 18 17846502551656290219
12916748 109 13686296881292762327
13675066 3 18334575737202635749
13760787 5 17703788098217389020
13955234 65 18201997695432722474
14252887 29 18334580118443934226
14341114 176 18335989709113978400
14386348 63 18114184120404376115
15188451 53 17241046625862307315
15375358 24 18261110763981113635
17834072 33 17846490465438665735
17844677 252 18410297981968870149
1813 80 15213023730171015919
18785283 64 17970913490762114324
19489759 90 17676485034741603645
200 152 18130782352886195815
20279233 1 18260552207953277015
204376 136 17846499231709867423
20645477 70 18200306615898681526
21033648 29 18341313531636730801
21065199 12 18334576815186672809
212847 35 17203888552801711194
22854114 59 18412546509090887079
23402539 116 13045935798627205495
23557571 272 17677051218272545780
23559900 14 17750240201075367302
239999 70 18186524285363831338
26918003 58 18334575728639159313
351380 180 18410009931892763593
351380 3 14634869760283713393
4028521 119 12175628347750670947
42 15 18260269633285506111
4214541 1 17967814916707485685
449060 50 18412543236642377204
5104073 3 18263078825365153112
542803 24 16559031588517645489
573450 72 15936405628824970389
5924683 9 18338799043713808411
602551 16 17095528426077799114
90127 26 18200602401400258973

>  <PUBCHEM_SHAPE_MULTIPOLES>  (1) 
327.26
12.87
1.39
1.04
1.52
0.13
0.11
-1.28
3.66
-0.84
0.03
0.65
0.08
1.36

>  <PUBCHEM_SHAPE_SELFOVERLAP>  (1) 
681.749

>  <PUBCHEM_SHAPE_VOLUME>  (1) 
183.8

>  <PUBCHEM_COORDINATE_TYPE>  (1) 
2
5
10

$$$$
