29895
     RDKit          3D

 15 16  0  0  0  0  0  0  0  0999 V2000
   -3.2149   -2.5425   -0.2278 Cl  0  0  0  0  0  0  0  0  0  0  0  0
   -0.1668    2.4384    0.1755 O   0  0  0  0  0  0  0  0  0  0  0  0
    2.1108    2.5769   -0.1654 O   0  0  0  0  0  0  0  0  0  0  0  0
    0.9941    0.5303   -0.3535 N   0  0  0  0  0  0  0  0  0  0  0  0
    1.9971   -1.5865    0.1036 N   0  0  0  0  0  0  0  0  0  0  0  0
    2.0800   -0.3564   -0.6873 C   0  0  0  0  0  0  0  0  0  0  0  0
   -0.3284    0.1729   -0.2050 C   0  0  0  0  0  0  0  0  0  0  0  0
   -1.0035    1.3340    0.1118 C   0  0  0  0  0  0  0  0  0  0  0  0
    1.0951    1.8931   -0.1251 C   0  0  0  0  0  0  0  0  0  0  0  0
   -0.9681   -1.0436   -0.3205 C   0  0  0  0  0  0  0  0  0  0  0  0
   -2.3645    1.3433    0.3325 C   0  0  0  0  0  0  0  0  0  0  0  0
    2.1011   -1.3128    1.5399 C   0  0  0  0  0  0  0  0  0  0  0  0
    3.0568   -2.5134   -0.3003 C   0  0  0  0  0  0  0  0  0  0  0  0
   -2.3481   -1.0586   -0.1011 C   0  0  0  0  0  0  0  0  0  0  0  0
   -3.0407    0.1249    0.2227 C   0  0  0  0  0  0  0  0  0  0  0  0
  1 14  1  0
  2  8  1  0
  2  9  1  0
  3  9  2  0
  4  6  1  0
  4  7  1  0
  4  9  1  0
  5  6  1  0
  5 12  1  0
  5 13  1  0
  7  8  2  0
  7 10  1  0
  8 11  1  0
 10 14  2  0
 11 15  2  0
 14 15  1  0
M  END
>  <PUBCHEM_COMPOUND_CID>  (1) 
29895

>  <PUBCHEM_CONFORMER_RMSD>  (1) 
0.6

>  <PUBCHEM_CONFORMER_DIVERSEORDER>  (1) 
1
2
4
3

>  <PUBCHEM_MMFF94_PARTIAL_CHARGES>  (1) 
18
1 -0.18
10 -0.15
11 -0.15
12 0.27
13 0.27
14 0.18
15 -0.15
18 0.15
19 0.15
2 -0.23
26 0.15
3 -0.57
4 -0.48
5 -0.81
6 0.57
7 0.12
8 0.08
9 0.78

>  <PUBCHEM_EFFECTIVE_ROTOR_COUNT>  (1) 
2

>  <PUBCHEM_PHARMACOPHORE_FEATURES>  (1) 
4
1 3 acceptor
1 5 cation
5 2 4 7 8 9 rings
6 7 8 10 11 14 15 rings

>  <PUBCHEM_HEAVY_ATOM_COUNT>  (1) 
15

>  <PUBCHEM_ATOM_DEF_STEREO_COUNT>  (1) 
0

>  <PUBCHEM_ATOM_UDEF_STEREO_COUNT>  (1) 
0

>  <PUBCHEM_BOND_DEF_STEREO_COUNT>  (1) 
0

>  <PUBCHEM_BOND_UDEF_STEREO_COUNT>  (1) 
0

>  <PUBCHEM_ISOTOPIC_ATOM_COUNT>  (1) 
0

>  <PUBCHEM_COMPONENT_COUNT>  (1) 
1

>  <PUBCHEM_CACTVS_TAUTO_COUNT>  (1) 
1

>  <PUBCHEM_CONFORMER_ID>  (1) 
000074C700000001

>  <PUBCHEM_MMFF94_ENERGY>  (1) 
44.894

>  <PUBCHEM_FEATURE_SELFOVERLAP>  (1) 
20.41

>  <PUBCHEM_SHAPE_FINGERPRINT>  (1) 
10967382 1 17979356687574159591
11578080 2 17459452382853062420
12202030 40 16515695471759504425
12553582 1 18337391517715069963
13140716 1 18413112749363738819
15001771 113 18410296899731686747
15375462 189 18187373081874241226
15442244 35 18412831265865626065
16752209 62 17829884339492433341
16945 1 18267869389211556125
17804303 29 17984141448756729150
17990270 104 18411138056165560030
193761 8 18411420639491616541
20510252 161 17551227372645579904
20559304 39 18340485689659204803
20645477 70 18193266615103776775
20871998 184 17911514303315983910
21501502 16 18340772641025062549
21650355 55 18048580535436759082
22344851 341 18198070363697769792
23184049 29 18410569591626929563
232386 152 18337115544807425318
2334 1 18339924938892419999
23388829 49 18054765519981049974
23402539 116 17838884950409962165
23419403 2 16827481759123197817
23552423 10 18264213671926145669
23557571 272 17914058591077902910
23559900 14 18053377696564542838
23598294 1 17759523270479427786
2748010 2 18411981390427011741
2871803 45 18051131694444556295
33824 294 17833830852145453155
34934 24 18410573968124855236
43471831 8 18122340443936136792
57177213 63 18118973734852524157
5902787 121 18335414647458446418
6338986 31 18199167629342655743
7364860 26 18341332279337210984
74978 22 18410292489079686303
81228 2 18052241913014233962

>  <PUBCHEM_SHAPE_MULTIPOLES>  (1) 
288.86
4.85
3.13
0.84
0.8
0.17
-0.23
-3.21
-0.09
-0.75
0.09
-0.4
-0.25
-0.46

>  <PUBCHEM_SHAPE_SELFOVERLAP>  (1) 
607.799

>  <PUBCHEM_SHAPE_VOLUME>  (1) 
167.1

>  <PUBCHEM_COORDINATE_TYPE>  (1) 
2
5
10

$$$$
