29906
     RDKit          3D

 14 14  0  0  0  0  0  0  0  0999 V2000
   -2.1344   -0.2169    0.0033 O   0  0  0  0  0  0  0  0  0  0  0  0
    1.3209    0.5895    0.0002 O   0  0  0  0  0  0  0  0  0  0  0  0
   -1.1099    1.8446    0.0028 O   0  0  0  0  0  0  0  0  0  0  0  0
    4.6124   -0.5846   -0.0020 O   0  0  0  0  0  0  0  0  0  0  0  0
    3.7849    1.4533   -0.0033 O   0  0  0  0  0  0  0  0  0  0  0  0
    3.6179    0.1985   -0.0018 N   0  0  0  0  0  0  0  0  0  0  0  0
   -4.4826   -0.6814    0.0035 C   0  0  0  0  0  0  0  0  0  0  0  0
   -3.4139    0.4010    0.0032 C   0  0  0  0  0  0  0  0  0  0  0  0
   -5.8820   -0.0933   -0.0117 C   0  0  0  0  0  0  0  0  0  0  0  0
    0.2086   -0.1420    0.0017 C   0  0  0  0  0  0  0  0  0  0  0  0
   -1.0631    0.6243    0.0031 C   0  0  0  0  0  0  0  0  0  0  0  0
    0.4044   -1.4629    0.0018 C   0  0  0  0  0  0  0  0  0  0  0  0
    2.3243   -0.3266   -0.0009 C   0  0  0  0  0  0  0  0  0  0  0  0
    1.8127   -1.6035    0.0000 C   0  0  0  0  0  0  0  0  0  0  0  0
  1  8  1  0
  1 11  1  0
  2 10  1  0
  2 13  1  0
  3 11  2  0
  4  6  1  0
  5  6  2  0
  6 13  1  0
  7  8  1  0
  7  9  1  0
 10 11  1  0
 10 12  2  0
 12 14  1  0
 13 14  2  0
M  CHG  2   4  -1   6   1
M  END
>  <PUBCHEM_COMPOUND_CID>  (1) 
29906

>  <PUBCHEM_CONFORMER_RMSD>  (1) 
0.6

>  <PUBCHEM_CONFORMER_DIVERSEORDER>  (1) 
1
26
17
33
27
14
40
28
30
8
10
41
22
12
42
29
35
43
2
16
32
38
21
7
9
11
18
15
31
4
25
13
19
5
20
36
34
6
3
24
39
23
37

>  <PUBCHEM_MMFF94_PARTIAL_CHARGES>  (1) 
14
1 -0.43
10 0.05
11 0.81
12 -0.15
13 0.22
14 -0.15
2 -0.28
22 0.15
23 0.15
3 -0.57
4 -0.52
5 -0.52
6 0.96
8 0.28

>  <PUBCHEM_EFFECTIVE_ROTOR_COUNT>  (1) 
5

>  <PUBCHEM_PHARMACOPHORE_FEATURES>  (1) 
7
1 2 acceptor
1 3 acceptor
1 4 acceptor
1 4 anion
1 5 acceptor
1 9 hydrophobe
5 2 10 12 13 14 rings

>  <PUBCHEM_HEAVY_ATOM_COUNT>  (1) 
14

>  <PUBCHEM_ATOM_DEF_STEREO_COUNT>  (1) 
0

>  <PUBCHEM_ATOM_UDEF_STEREO_COUNT>  (1) 
0

>  <PUBCHEM_BOND_DEF_STEREO_COUNT>  (1) 
0

>  <PUBCHEM_BOND_UDEF_STEREO_COUNT>  (1) 
0

>  <PUBCHEM_ISOTOPIC_ATOM_COUNT>  (1) 
0

>  <PUBCHEM_COMPONENT_COUNT>  (1) 
1

>  <PUBCHEM_CACTVS_TAUTO_COUNT>  (1) 
1

>  <PUBCHEM_CONFORMER_ID>  (1) 
000074D200000001

>  <PUBCHEM_MMFF94_ENERGY>  (1) 
17.3782

>  <PUBCHEM_FEATURE_SELFOVERLAP>  (1) 
35.618

>  <PUBCHEM_SHAPE_FINGERPRINT>  (1) 
11062470 55 17094961043844559363
11401426 45 18334573555913163059
11471102 20 18410855473028933453
11806522 49 18410574020086170007
12815109 37 18408885136098282727
13380535 76 18409169913356815602
14123238 8 17458062668869514295
14252887 29 18130799940593013855
15242433 33 18342175566549610471
15375358 24 18259706701060723251
17834072 33 17917708046005252261
17834076 25 15719392832353680395
187816 3 17240204326745515385
200 152 18342736299998908281
20279233 1 17749117677460796603
20645477 70 18338232648774570631
21267235 1 18411708659703171623
22485316 2 18408882928432546447
23402539 116 12468637253240048795
23402655 69 18340762664074438543
23557571 272 17168422667144753813
25610 137 18411699868189901301
26918003 58 18040718069552017667
2871803 45 18335138653060315911
33824 294 18334857195237484179
42788 4 18410292515107965767
4990 188 17846506915379654838
5104073 3 18338234843528583833
522135 26 10735878374218539834
5374978 207 18334850619562919688
537710 114 18410016567163860717

>  <PUBCHEM_SHAPE_MULTIPOLES>  (1) 
253.79
10.02
1.41
0.57
8.36
0.08
0
-0.18
0.03
-0.67
0
0.08
-0.03
0

>  <PUBCHEM_SHAPE_SELFOVERLAP>  (1) 
521.953

>  <PUBCHEM_SHAPE_VOLUME>  (1) 
147

>  <PUBCHEM_COORDINATE_TYPE>  (1) 
2
5
10

$$$$
