29900
     RDKit          3D

 22 24  0  0  1  0  0  0  0  0999 V2000
    0.7957   -2.2579   -0.8410 O   0  0  0  0  0  0  0  0  0  0  0  0
   -4.2424   -1.3489   -0.0515 N   0  0  0  0  0  0  0  0  0  0  0  0
   -0.7774   -0.5321   -0.4444 N   0  0  0  0  0  0  0  0  0  0  0  0
    1.5251   -0.0610   -0.6400 N   0  0  0  0  0  0  0  0  0  0  0  0
   -1.9422   -1.3735   -0.4232 C   0  0  0  0  0  0  0  0  0  0  0  0
   -2.2218   -1.9689    0.9587 C   0  0  0  0  0  0  0  0  0  0  0  0
   -3.2132   -0.6117   -0.7852 C   0  0  0  0  0  0  0  0  0  0  0  0
   -3.6636   -1.5859    1.2712 C   0  0  0  0  0  0  0  0  0  0  0  0
   -5.5026   -0.6236    0.0163 C   0  0  0  0  0  0  0  0  0  0  0  0
   -0.9340    0.8974   -0.1539 C   0  0  0  0  0  0  0  0  0  0  0  0
    0.5485   -1.0646   -0.6601 C   0  0  0  0  0  0  0  0  0  0  0  0
   -1.1010    1.7361   -1.2120 C   0  0  0  0  0  0  0  0  0  0  0  0
   -0.9013    1.2779    1.1519 C   0  0  0  0  0  0  0  0  0  0  0  0
   -1.2503    3.0952   -0.9360 C   0  0  0  0  0  0  0  0  0  0  0  0
   -1.0507    2.6371    1.4277 C   0  0  0  0  0  0  0  0  0  0  0  0
    2.8773   -0.1791   -0.2366 C   0  0  0  0  0  0  0  0  0  0  0  0
   -1.2253    3.5456    0.3837 C   0  0  0  0  0  0  0  0  0  0  0  0
    3.6982    0.9349   -0.2872 C   0  0  0  0  0  0  0  0  0  0  0  0
    3.3488   -1.4055    0.2001 C   0  0  0  0  0  0  0  0  0  0  0  0
    5.0301    0.8190    0.1105 C   0  0  0  0  0  0  0  0  0  0  0  0
    4.6808   -1.5214    0.5979 C   0  0  0  0  0  0  0  0  0  0  0  0
    5.5213   -0.4091    0.5531 C   0  0  0  0  0  0  0  0  0  0  0  0
  1 11  2  0
  2  7  1  0
  2  8  1  0
  2  9  1  0
  3  5  1  0
  3 10  1  0
  3 11  1  0
  4 11  1  0
  4 16  1  0
  5  6  1  0
  5  7  1  0
  6  8  1  0
 10 12  2  0
 10 13  1  0
 12 14  1  0
 13 15  2  0
 14 17  2  0
 15 17  1  0
 16 18  2  0
 16 19  1  0
 18 20  1  0
 19 21  2  0
 20 22  2  0
 21 22  1  0
M  END
>  <PUBCHEM_COMPOUND_CID>  (1) 
29900

>  <PUBCHEM_CONFORMER_RMSD>  (1) 
0.8

>  <PUBCHEM_CONFORMER_DIVERSEORDER>  (1) 
3
51
63
68
75
29
67
50
24
84
42
26
32
8
55
74
46
70
37
62
72
30
58
78
49
52
64
71
79
44
41
31
48
34
54
17
18
40
1
56
82
39
65
33
27
66
80
59
7
77
23
21
45
53
2
43
83
61
85
22
12
69
36
25
73
57
6
81
38
19
20
47
5
60
4
11
76
28
13
9
10
15
14
35
16

>  <PUBCHEM_MMFF94_PARTIAL_CHARGES>  (1) 
32
1 -0.57
10 0.12
11 0.69
12 -0.15
13 -0.15
14 -0.15
15 -0.15
16 0.12
17 -0.15
18 -0.15
19 -0.15
2 -0.81
20 -0.15
21 -0.15
22 -0.15
3 -0.48
33 0.15
34 0.15
35 0.37
36 0.15
37 0.15
38 0.15
39 0.15
4 -0.55
40 0.15
41 0.15
42 0.15
43 0.15
5 0.3
7 0.27
8 0.27
9 0.27

>  <PUBCHEM_EFFECTIVE_ROTOR_COUNT>  (1) 
6

>  <PUBCHEM_PHARMACOPHORE_FEATURES>  (1) 
6
1 1 acceptor
1 2 cation
1 4 donor
5 2 5 6 7 8 rings
6 10 12 13 14 15 17 rings
6 16 18 19 20 21 22 rings

>  <PUBCHEM_HEAVY_ATOM_COUNT>  (1) 
22

>  <PUBCHEM_ATOM_DEF_STEREO_COUNT>  (1) 
0

>  <PUBCHEM_ATOM_UDEF_STEREO_COUNT>  (1) 
1

>  <PUBCHEM_BOND_DEF_STEREO_COUNT>  (1) 
0

>  <PUBCHEM_BOND_UDEF_STEREO_COUNT>  (1) 
0

>  <PUBCHEM_ISOTOPIC_ATOM_COUNT>  (1) 
0

>  <PUBCHEM_COMPONENT_COUNT>  (1) 
1

>  <PUBCHEM_CACTVS_TAUTO_COUNT>  (1) 
2

>  <PUBCHEM_CONFORMER_ID>  (1) 
000074CC00000003

>  <PUBCHEM_MMFF94_ENERGY>  (1) 
96.4804

>  <PUBCHEM_FEATURE_SELFOVERLAP>  (1) 
30.447

>  <PUBCHEM_SHAPE_FINGERPRINT>  (1) 
10366900 7 18334585667874003426
10670039 82 18338815459389699980
10688039 33 18260829314980097685
10906281 52 18339663190879873919
11045515 52 17749385992125209621
11578080 2 13324648776912888475
12107183 9 17614272266034616442
12403814 3 18272367576863726455
12422481 6 18197242281487295921
12516196 113 18339642347240445907
12760667 363 18410852157356697298
12788726 201 18410304604992764576
13004483 165 18408598171388522273
13140716 1 18197213878874127366
13257819 101 13757530881218655099
13533116 47 18187077331001680482
13544653 18 18335986462324333511
13583140 156 17315647196673742448
14170010 4 18270677710098318827
14223421 5 18340492140816310054
14341114 176 18333732425423738478
14955137 171 17840615860943309071
15131766 46 15553013724228067634
15163728 17 11814526820307927979
17492 89 18266455417475248066
17980427 23 17489322901418453193
18769570 83 18334861589526708361
19315092 285 17187323551210745595
200 152 18335135410254525406
20510252 161 18412542081148429434
20600515 1 18187941602743260415
21339142 126 18343295959717594623
22182313 1 17916311533025770222
22182937 141 18127131866533757456
23175994 123 18335142033473793655
23402539 116 18412820309251619135
23419403 2 18198603579962184357
23557571 272 18412831257165090940
23558518 356 18120664526148626055
23559900 14 18113615737781425494
23845131 108 17547019524709643233
26918003 58 18113335344746570650
283562 15 18409444748255856571
312423 11 18261687995428534838
350125 39 18412826880925835720
4340502 62 17982461391000826345
5104073 3 18267009584768448482
5171179 24 17844504765147019865
5283173 99 18114452367283028021
59755656 215 18201729418690072358
69474 34 18130786814856335961
7226269 152 18334292029486639049
81228 2 18193019048671535669
9709674 26 18196933275659649166
9981440 41 17699544971451250682

>  <PUBCHEM_SHAPE_MULTIPOLES>  (1) 
431.94
10
3.27
1.15
7.88
2.88
0.17
-4.9
1.55
-2.18
0.34
-0.56
0.26
0.11

>  <PUBCHEM_SHAPE_SELFOVERLAP>  (1) 
924.848

>  <PUBCHEM_SHAPE_VOLUME>  (1) 
238.3

>  <PUBCHEM_COORDINATE_TYPE>  (1) 
2
5
10

$$$$
