29908
     RDKit          3D

 16 17  0  0  0  0  0  0  0  0999 V2000
   -1.6617    3.9924    0.3894 O   0  0  0  0  0  0  0  0  0  0  0  0
    0.0171    0.7034   -0.5048 C   0  0  0  0  0  0  0  0  0  0  0  0
   -0.2230    2.0864    0.1775 C   0  0  0  0  0  0  0  0  0  0  0  0
   -1.0649   -0.2984   -0.2799 C   0  0  0  0  0  0  0  0  0  0  0  0
    1.4105    0.1416   -0.1790 C   0  0  0  0  0  0  0  0  0  0  0  0
   -1.5133    2.7540   -0.2934 C   0  0  0  0  0  0  0  0  0  0  0  0
   -1.3290   -1.2685   -1.2467 C   0  0  0  0  0  0  0  0  0  0  0  0
    2.4531    0.4612   -1.0126 C   0  0  0  0  0  0  0  0  0  0  0  0
   -1.8129   -0.2650    0.8970 C   0  0  0  0  0  0  0  0  0  0  0  0
    1.5493   -0.6543    0.9305 C   0  0  0  0  0  0  0  0  0  0  0  0
   -2.3408   -2.2053   -1.0366 C   0  0  0  0  0  0  0  0  0  0  0  0
    3.7174   -0.0486   -0.7171 C   0  0  0  0  0  0  0  0  0  0  0  0
   -2.8247   -1.2019    1.1071 C   0  0  0  0  0  0  0  0  0  0  0  0
    2.8137   -1.1640    1.2260 C   0  0  0  0  0  0  0  0  0  0  0  0
   -3.0887   -2.1720    0.1403 C   0  0  0  0  0  0  0  0  0  0  0  0
    3.8978   -0.8611    0.4021 C   0  0  0  0  0  0  0  0  0  0  0  0
  1  6  1  0
  2  3  1  0
  2  4  1  0
  2  5  1  0
  3  6  1  0
  4  7  2  0
  4  9  1  0
  5  8  2  0
  5 10  1  0
  7 11  1  0
  8 12  1  0
  9 13  2  0
 10 14  2  0
 11 15  2  0
 12 16  2  0
 13 15  1  0
 14 16  1  0
M  END
>  <PUBCHEM_COMPOUND_CID>  (1) 
29908

>  <PUBCHEM_CONFORMER_RMSD>  (1) 
0.6

>  <PUBCHEM_CONFORMER_DIVERSEORDER>  (1) 
1
9
11
8
6
4
10
2
3
5
7

>  <PUBCHEM_MMFF94_PARTIAL_CHARGES>  (1) 
26
1 -0.68
10 -0.15
11 -0.15
12 -0.15
13 -0.15
14 -0.15
15 -0.15
16 -0.15
2 0.29
22 0.15
23 0.15
24 0.15
25 0.15
26 0.15
27 0.15
28 0.15
29 0.15
30 0.15
31 0.15
32 0.4
4 -0.14
5 -0.14
6 0.28
7 -0.15
8 -0.15
9 -0.15

>  <PUBCHEM_EFFECTIVE_ROTOR_COUNT>  (1) 
4

>  <PUBCHEM_PHARMACOPHORE_FEATURES>  (1) 
4
1 1 acceptor
1 1 donor
6 4 7 9 11 13 15 rings
6 5 8 10 12 14 16 rings

>  <PUBCHEM_HEAVY_ATOM_COUNT>  (1) 
16

>  <PUBCHEM_ATOM_DEF_STEREO_COUNT>  (1) 
0

>  <PUBCHEM_ATOM_UDEF_STEREO_COUNT>  (1) 
0

>  <PUBCHEM_BOND_DEF_STEREO_COUNT>  (1) 
0

>  <PUBCHEM_BOND_UDEF_STEREO_COUNT>  (1) 
0

>  <PUBCHEM_ISOTOPIC_ATOM_COUNT>  (1) 
0

>  <PUBCHEM_COMPONENT_COUNT>  (1) 
1

>  <PUBCHEM_CACTVS_TAUTO_COUNT>  (1) 
1

>  <PUBCHEM_CONFORMER_ID>  (1) 
000074D400000001

>  <PUBCHEM_MMFF94_ENERGY>  (1) 
47.6978

>  <PUBCHEM_FEATURE_SELFOVERLAP>  (1) 
20.297

>  <PUBCHEM_SHAPE_FINGERPRINT>  (1) 
11357001 24 18336828593710287457
11578080 2 17987501766808122281
12553582 1 18338517559424314214
12788726 201 18335976480973208131
13538477 17 18261109613104036132
14178342 30 18117543051740365090
14617773 55 18186522072912127736
14787075 74 17900825160935743100
15375462 189 18189059848601649834
15490181 8 17762340210695997533
15653759 3 16200163130842391858
15852999 172 17699279963326139276
15906896 17 18264767649719181257
16752209 62 18339071571671624709
16945 1 18341329998424655869
19049666 15 15624288319388833278
200 152 17968089863233848362
20361792 2 18268985560801423039
20671657 53 18197488743785334943
20871998 184 18341616966722534437
21296965 67 18338232781749154063
21524375 3 17833258727804316493
21731228 192 17834113039659467297
21731516 1 18339356478248310838
22112679 90 18198359518107400805
2255824 54 17691411127888892231
23402539 116 18334012822300198566
23419403 2 13572185196332451123
23557571 272 18202275871731735288
23598288 3 18337673005919034830
23598291 2 17984153822757650655
23598294 1 18411424968765844976
23728640 28 18049989017978990546
3091708 16 9134123037572717721
34934 24 18267591380157642637
4175511 71 18197230349951875101
474229 33 18193840328313845825
6049 1 17846775196570298912
6992083 37 18058186075207140563
7364860 26 17693660728753207285
81228 2 18337941308041417297
81539 233 17400071972968188973
90316 7 18341619226091694425

>  <PUBCHEM_SHAPE_MULTIPOLES>  (1) 
323.4
5.76
3.11
1.2
3.76
4.03
0
-3.54
0.34
-3.1
0.16
-0.01
-0.43
-0.72

>  <PUBCHEM_SHAPE_SELFOVERLAP>  (1) 
686.027

>  <PUBCHEM_SHAPE_VOLUME>  (1) 
180.5

>  <PUBCHEM_COORDINATE_TYPE>  (1) 
2
5
10

$$$$
