29901
     RDKit          3D

 24 26  0  0  1  0  0  0  0  0999 V2000
    0.1434    2.2639    0.9223 O   0  0  0  0  0  0  0  0  0  0  0  0
    6.2470    0.5634   -0.6040 O   0  0  0  0  0  0  0  0  0  0  0  0
   -4.8525    1.3281   -0.0758 N   0  0  0  0  0  0  0  0  0  0  0  0
   -1.4026    0.5297    0.4613 N   0  0  0  0  0  0  0  0  0  0  0  0
    0.8922    0.0709    0.7527 N   0  0  0  0  0  0  0  0  0  0  0  0
   -2.5700    1.3649    0.3913 C   0  0  0  0  0  0  0  0  0  0  0  0
   -2.7950    1.9587   -1.0013 C   0  0  0  0  0  0  0  0  0  0  0  0
   -3.8509    0.5965    0.7004 C   0  0  0  0  0  0  0  0  0  0  0  0
   -4.2205    1.5679   -1.3734 C   0  0  0  0  0  0  0  0  0  0  0  0
   -6.1050    0.5961   -0.1958 C   0  0  0  0  0  0  0  0  0  0  0  0
   -1.5394   -0.9006    0.1650 C   0  0  0  0  0  0  0  0  0  0  0  0
   -0.0897    1.0693    0.7317 C   0  0  0  0  0  0  0  0  0  0  0  0
   -1.7459   -1.7400    1.2155 C   0  0  0  0  0  0  0  0  0  0  0  0
   -1.4504   -1.2812   -1.1381 C   0  0  0  0  0  0  0  0  0  0  0  0
   -1.8764   -3.0999    0.9341 C   0  0  0  0  0  0  0  0  0  0  0  0
   -1.5810   -2.6412   -1.4194 C   0  0  0  0  0  0  0  0  0  0  0  0
    2.2594    0.1961    0.4059 C   0  0  0  0  0  0  0  0  0  0  0  0
   -1.7940   -3.5504   -0.3832 C   0  0  0  0  0  0  0  0  0  0  0  0
    3.0836   -0.9130    0.4907 C   0  0  0  0  0  0  0  0  0  0  0  0
    2.7417    1.4258   -0.0092 C   0  0  0  0  0  0  0  0  0  0  0  0
    4.4306   -0.7888    0.1505 C   0  0  0  0  0  0  0  0  0  0  0  0
    4.0887    1.5501   -0.3496 C   0  0  0  0  0  0  0  0  0  0  0  0
    4.9332    0.4427   -0.2699 C   0  0  0  0  0  0  0  0  0  0  0  0
    7.0536   -0.6091   -0.5015 C   0  0  0  0  0  0  0  0  0  0  0  0
  1 12  2  0
  2 23  1  0
  2 24  1  0
  3  8  1  0
  3  9  1  0
  3 10  1  0
  4  6  1  0
  4 11  1  0
  4 12  1  0
  5 12  1  0
  5 17  1  0
  6  7  1  0
  6  8  1  0
  7  9  1  0
 11 13  2  0
 11 14  1  0
 13 15  1  0
 14 16  2  0
 15 18  2  0
 16 18  1  0
 17 19  2  0
 17 20  1  0
 19 21  1  0
 20 22  2  0
 21 23  2  0
 22 23  1  0
M  END
>  <PUBCHEM_COMPOUND_CID>  (1) 
29901

>  <PUBCHEM_CONFORMER_RMSD>  (1) 
0.8

>  <PUBCHEM_CONFORMER_DIVERSEORDER>  (1) 
23
20
77
69
74
41
21
13
32
62
75
120
119
53
48
26
9
109
102
112
95
88
110
90
89
14
55
100
37
16
19
80
11
44
81
7
116
103
36
83
58
115
42
57
87
73
35
117
66
91
2
54
78
6
114
60
113
108
34
99
15
86
71
93
1
27
33
17
107
56
63
92
76
31
105
97
104
84
68
47
45
3
106
49
59
101
25
40
82
30
22
67
24
10
98
4
5
96
94
18
70
8
52
79
50
51
64
85
28
72
46
12
39
111
61
29
65
118
43
38

>  <PUBCHEM_MMFF94_PARTIAL_CHARGES>  (1) 
33
1 -0.57
10 0.27
11 0.12
12 0.69
13 -0.15
14 -0.15
15 -0.15
16 -0.15
17 0.12
18 -0.15
19 -0.15
2 -0.36
20 -0.15
21 -0.15
22 -0.15
23 0.08
24 0.28
3 -0.81
35 0.15
36 0.15
37 0.37
38 0.15
39 0.15
4 -0.48
40 0.15
41 0.15
42 0.15
43 0.15
44 0.15
5 -0.55
6 0.3
8 0.27
9 0.27

>  <PUBCHEM_EFFECTIVE_ROTOR_COUNT>  (1) 
7

>  <PUBCHEM_PHARMACOPHORE_FEATURES>  (1) 
7
1 1 acceptor
1 2 acceptor
1 3 cation
1 5 donor
5 3 6 7 8 9 rings
6 11 13 14 15 16 18 rings
6 17 19 20 21 22 23 rings

>  <PUBCHEM_HEAVY_ATOM_COUNT>  (1) 
24

>  <PUBCHEM_ATOM_DEF_STEREO_COUNT>  (1) 
0

>  <PUBCHEM_ATOM_UDEF_STEREO_COUNT>  (1) 
1

>  <PUBCHEM_BOND_DEF_STEREO_COUNT>  (1) 
0

>  <PUBCHEM_BOND_UDEF_STEREO_COUNT>  (1) 
0

>  <PUBCHEM_ISOTOPIC_ATOM_COUNT>  (1) 
0

>  <PUBCHEM_COMPONENT_COUNT>  (1) 
1

>  <PUBCHEM_CACTVS_TAUTO_COUNT>  (1) 
2

>  <PUBCHEM_CONFORMER_ID>  (1) 
000074CD00000017

>  <PUBCHEM_MMFF94_ENERGY>  (1) 
110.9026

>  <PUBCHEM_FEATURE_SELFOVERLAP>  (1) 
35.522

>  <PUBCHEM_SHAPE_FINGERPRINT>  (1) 
10366900 7 17346597444294510306
10616163 171 18341054111738993566
107951 10 18186524297552895035
11315181 36 17418376909209221040
11405975 8 18341331184553301472
11578080 2 17129005364183143009
12555020 224 18343299245288175308
12616971 3 17385718115571970504
12643181 29 18341335522781597598
12788726 201 17988078860088563392
12969540 114 18115007642235256485
13149001 5 18058433456723185817
13257819 101 16951673702641947557
13583140 156 17821739324762914497
14251757 5 18410574015321736906
14790565 3 18340772520766862097
15099037 51 18341892978611705257
15131766 46 15576145258290185886
15849732 13 17894633647487034149
200 152 10303809873867705225
20602899 9 16343984727986254815
20681677 155 18410853270159025872
20721686 146 16298937629743959549
20871999 31 18339354261976523431
21033648 29 18335686227015759865
21033650 10 16915408548809108656
21344244 246 18130503025225004391
21709351 56 18260832644291739876
22393880 68 18409728500271784426
22849339 104 18269853028357945950
23227448 37 18260551164123282477
23559900 14 18272364317764615376
249057 3 18408605860118700980
283562 15 18128821837539053465
3383291 50 18273495680258097299
340366 18 18261398874898847916
34934 24 18407757032556680562
3545911 37 18408044000886519128
3759504 43 18259702294334626203
4015057 19 17489293235420333656
44062 13 18339364162308715934
469060 322 13623811704074075187
5104073 3 18341894151907911200
559249 180 18411135836100036634
58051976 100 18410292553393542812
58260988 521 18262536848596887619
59755656 215 18341338791172419822
59755656 520 18334289864522701735
6138700 20 18270117886084874239
6669772 16 18341334375202877695
70251023 43 17695336371478818447
81228 2 17832962203952621761

>  <PUBCHEM_SHAPE_MULTIPOLES>  (1) 
467.23
13
3.09
1.14
16.12
2.68
0.16
-4.12
2.95
-3.09
0.28
-0.72
0.23
0.3

>  <PUBCHEM_SHAPE_SELFOVERLAP>  (1) 
997.362

>  <PUBCHEM_SHAPE_VOLUME>  (1) 
259.4

>  <PUBCHEM_COORDINATE_TYPE>  (1) 
2
5
10

$$$$
