29918
     RDKit          3D

 12 12  0  0  0  0  0  0  0  0999 V2000
   -2.2997    2.6470   -0.0002 Br  0  0  0  0  0  0  0  0  0  0  0  0
    0.7627    2.1551    0.0001 O   0  0  0  0  0  0  0  0  0  0  0  0
    2.7227   -1.3930   -0.0002 O   0  0  0  0  0  0  0  0  0  0  0  0
    2.7929    0.8011   -0.0002 O   0  0  0  0  0  0  0  0  0  0  0  0
    2.1525   -0.2765    0.0001 N   0  0  0  0  0  0  0  0  0  0  0  0
   -1.3810   -1.4047    0.0000 C   0  0  0  0  0  0  0  0  0  0  0  0
    0.7308   -0.2311    0.0002 C   0  0  0  0  0  0  0  0  0  0  0  0
    0.0136   -1.4275    0.0001 C   0  0  0  0  0  0  0  0  0  0  0  0
    0.0532    0.9881    0.0003 C   0  0  0  0  0  0  0  0  0  0  0  0
   -2.0585   -0.1854   -0.0001 C   0  0  0  0  0  0  0  0  0  0  0  0
   -1.3414    1.0110    0.0001 C   0  0  0  0  0  0  0  0  0  0  0  0
   -2.1477   -2.6840    0.0000 C   0  0  0  0  0  0  0  0  0  0  0  0
  1 11  1  0
  2  9  1  0
  3  5  1  0
  4  5  2  0
  5  7  1  0
  6  8  2  0
  6 10  1  0
  6 12  1  0
  7  8  1  0
  7  9  2  0
  9 11  1  0
 10 11  2  0
M  CHG  2   3  -1   5   1
M  END
>  <PUBCHEM_COMPOUND_CID>  (1) 
29918

>  <PUBCHEM_CONFORMER_RMSD>  (1) 
0.4

>  <PUBCHEM_CONFORMER_DIVERSEORDER>  (1) 
1

>  <PUBCHEM_MMFF94_PARTIAL_CHARGES>  (1) 
15
1 -0.11
10 -0.15
11 0.11
12 0.14
13 0.15
14 0.15
18 0.45
2 -0.53
3 -0.52
4 -0.52
5 0.91
6 -0.14
7 0.13
8 -0.15
9 0.08

>  <PUBCHEM_EFFECTIVE_ROTOR_COUNT>  (1) 
1

>  <PUBCHEM_PHARMACOPHORE_FEATURES>  (1) 
6
1 1 hydrophobe
1 2 donor
1 3 acceptor
1 3 anion
1 4 acceptor
6 6 7 8 9 10 11 rings

>  <PUBCHEM_HEAVY_ATOM_COUNT>  (1) 
12

>  <PUBCHEM_ATOM_DEF_STEREO_COUNT>  (1) 
0

>  <PUBCHEM_ATOM_UDEF_STEREO_COUNT>  (1) 
0

>  <PUBCHEM_BOND_DEF_STEREO_COUNT>  (1) 
0

>  <PUBCHEM_BOND_UDEF_STEREO_COUNT>  (1) 
0

>  <PUBCHEM_ISOTOPIC_ATOM_COUNT>  (1) 
0

>  <PUBCHEM_COMPONENT_COUNT>  (1) 
1

>  <PUBCHEM_CACTVS_TAUTO_COUNT>  (1) 
4

>  <PUBCHEM_CONFORMER_ID>  (1) 
000074DE00000001

>  <PUBCHEM_MMFF94_ENERGY>  (1) 
35.2317

>  <PUBCHEM_FEATURE_SELFOVERLAP>  (1) 
30.528

>  <PUBCHEM_SHAPE_FINGERPRINT>  (1) 
1 1 17761209912842623829
10967382 1 17474106497349045125
13380535 76 17976819779473429345
161256 15 18052541267929378109
16945 1 18410575119144175557
193761 8 18338516455744124741
20645476 183 17826260422176829974
20645477 70 17185305449579296013
20871998 184 18201161039354370791
21040471 1 18266458702686632485
2334 1 17906171007638598375
23552423 10 18117841229174827022
23559900 14 18127131875946754894
241688 4 18265895954839222129
2748010 2 18122634842500881775
528886 8 18050561842215043449
81228 2 18336540603463263697

>  <PUBCHEM_SHAPE_MULTIPOLES>  (1) 
230.31
3.66
3.03
0.6
1.59
1.11
0
-1.36
0
-1.96
0
-0.1
0
0

>  <PUBCHEM_SHAPE_SELFOVERLAP>  (1) 
470.83

>  <PUBCHEM_SHAPE_VOLUME>  (1) 
138.2

>  <PUBCHEM_COORDINATE_TYPE>  (1) 
2
5
10

$$$$
