29910
     RDKit          3D

 14 15  0  0  0  0  0  0  0  0999 V2000
   -0.5170    3.1438    0.0003 Cl  0  0  0  0  0  0  0  0  0  0  0  0
   -0.5140   -3.1444   -0.0005 Cl  0  0  0  0  0  0  0  0  0  0  0  0
   -3.2040    1.5632    0.0000 Cl  0  0  0  0  0  0  0  0  0  0  0  0
   -3.2026   -1.5648    0.0013 Cl  0  0  0  0  0  0  0  0  0  0  0  0
    0.7436    0.7079   -0.0002 C   0  0  0  0  0  0  0  0  0  0  0  0
    0.7439   -0.7074   -0.0001 C   0  0  0  0  0  0  0  0  0  0  0  0
   -0.4817    1.3944   -0.0004 C   0  0  0  0  0  0  0  0  0  0  0  0
   -0.4808   -1.3945   -0.0003 C   0  0  0  0  0  0  0  0  0  0  0  0
    1.9684    1.3949    0.0001 C   0  0  0  0  0  0  0  0  0  0  0  0
    1.9691   -1.3939    0.0002 C   0  0  0  0  0  0  0  0  0  0  0  0
   -1.6891    0.6954   -0.0006 C   0  0  0  0  0  0  0  0  0  0  0  0
   -1.6886   -0.6963   -0.0005 C   0  0  0  0  0  0  0  0  0  0  0  0
    3.1762    0.6967    0.0002 C   0  0  0  0  0  0  0  0  0  0  0  0
    3.1767   -0.6950    0.0003 C   0  0  0  0  0  0  0  0  0  0  0  0
  1  7  1  0
  2  8  1  0
  3 11  1  0
  4 12  1  0
  5  6  1  0
  5  7  2  0
  5  9  1  0
  6  8  2  0
  6 10  1  0
  7 11  1  0
  8 12  1  0
  9 13  2  0
 10 14  2  0
 11 12  2  0
 13 14  1  0
M  END
>  <PUBCHEM_COMPOUND_CID>  (1) 
29910

>  <PUBCHEM_CONFORMER_RMSD>  (1) 
0.4

>  <PUBCHEM_CONFORMER_DIVERSEORDER>  (1) 
1

>  <PUBCHEM_MMFF94_PARTIAL_CHARGES>  (1) 
16
1 -0.18
10 -0.15
11 0.18
12 0.18
13 -0.15
14 -0.15
15 0.15
16 0.15
17 0.15
18 0.15
2 -0.18
3 -0.18
4 -0.18
7 0.18
8 0.18
9 -0.15

>  <PUBCHEM_EFFECTIVE_ROTOR_COUNT>  (1) 
0

>  <PUBCHEM_PHARMACOPHORE_FEATURES>  (1) 
2
6 5 6 7 8 11 12 rings
6 5 6 9 10 13 14 rings

>  <PUBCHEM_HEAVY_ATOM_COUNT>  (1) 
14

>  <PUBCHEM_ATOM_DEF_STEREO_COUNT>  (1) 
0

>  <PUBCHEM_ATOM_UDEF_STEREO_COUNT>  (1) 
0

>  <PUBCHEM_BOND_DEF_STEREO_COUNT>  (1) 
0

>  <PUBCHEM_BOND_UDEF_STEREO_COUNT>  (1) 
0

>  <PUBCHEM_ISOTOPIC_ATOM_COUNT>  (1) 
0

>  <PUBCHEM_COMPONENT_COUNT>  (1) 
1

>  <PUBCHEM_CACTVS_TAUTO_COUNT>  (1) 
1

>  <PUBCHEM_CONFORMER_ID>  (1) 
000074D600000001

>  <PUBCHEM_MMFF94_ENERGY>  (1) 
45.5268

>  <PUBCHEM_FEATURE_SELFOVERLAP>  (1) 
10.175

>  <PUBCHEM_SHAPE_FINGERPRINT>  (1) 
10967382 1 18194682566461318311
11132069 177 18341326704274488688
12032990 46 18338523035454635175
12382932 28 18411980260639668336
13140716 1 18410573942433867715
13380535 76 18265892458714886695
13897977 150 18338795611454118509
14325111 11 18410573985177922336
16945 1 18122626046154632385
193761 8 17618222806321674977
20510252 161 18343585156945140336
20588541 1 18267024947080455909
20645476 183 17969243225045271198
20871998 184 18273215304702726703
21501502 16 18409730664085943020
2334 1 18410575119239082119
23402539 116 18271232919523959270
23419403 2 15898048224960200431
23463225 33 18408604759852504080
23557571 272 18200325436846227532
23559900 14 18343026571838787740
2748010 2 18410856564119379783
335352 9 18050285869033241567
528886 8 18339074900091911617
7364860 26 17764305042058732399
81228 2 18194955468672971283
8809292 202 18335145237050021490

>  <PUBCHEM_SHAPE_MULTIPOLES>  (1) 
295.59
4.68
3.25
0.63
0.39
0
0
0
0
-1.31
0
-0.02
0
0

>  <PUBCHEM_SHAPE_SELFOVERLAP>  (1) 
610.963

>  <PUBCHEM_SHAPE_VOLUME>  (1) 
164.1

>  <PUBCHEM_COORDINATE_TYPE>  (1) 
2
5
10

$$$$
