29928
     RDKit          3D

 15 16  0  0  0  0  0  0  0  0999 V2000
   -0.3647   -0.4976   -0.0111 O   0  0  0  0  0  0  0  0  0  0  0  0
    0.8782   -2.4302   -0.1493 O   0  0  0  0  0  0  0  0  0  0  0  0
   -2.9434    0.6336   -0.9214 N   0  0  0  0  0  0  0  0  0  0  0  0
   -4.6075    0.7955    0.5403 N   0  0  0  0  0  0  0  0  0  0  0  0
    4.1774    1.3897    0.1105 N   0  0  0  0  0  0  0  0  0  0  0  0
   -2.7467   -0.3264    0.0077 C   0  0  0  0  0  0  0  0  0  0  0  0
   -1.5748   -1.2610   -0.0609 C   0  0  0  0  0  0  0  0  0  0  0  0
   -3.7628   -0.2253    0.8982 C   0  0  0  0  0  0  0  0  0  0  0  0
    1.9625   -0.3118   -0.0036 C   0  0  0  0  0  0  0  0  0  0  0  0
    0.8105   -1.1967   -0.0633 C   0  0  0  0  0  0  0  0  0  0  0  0
   -4.0853    1.2922   -0.5591 C   0  0  0  0  0  0  0  0  0  0  0  0
    3.2492   -0.8374   -0.0426 C   0  0  0  0  0  0  0  0  0  0  0  0
    1.7819    1.0636    0.0922 C   0  0  0  0  0  0  0  0  0  0  0  0
    4.3135    0.0478    0.0169 C   0  0  0  0  0  0  0  0  0  0  0  0
    2.9119    1.8639    0.1456 C   0  0  0  0  0  0  0  0  0  0  0  0
  1  7  1  0
  1 10  1  0
  2 10  2  0
  3  6  1  0
  3 11  1  0
  4  8  1  0
  4 11  2  0
  5 14  2  0
  5 15  1  0
  6  7  1  0
  6  8  2  0
  9 10  1  0
  9 12  2  0
  9 13  1  0
 12 14  1  0
 13 15  2  0
M  END
>  <PUBCHEM_COMPOUND_CID>  (1) 
29928

>  <PUBCHEM_CONFORMER_RMSD>  (1) 
0.6

>  <PUBCHEM_CONFORMER_DIVERSEORDER>  (1) 
1
22
12
36
32
30
2
23
35
31
3
7
33
38
40
11
6
29
34
4
25
27
13
5
16
20
9
37
28
26
14
24
10
17
18
8
39
19
15
21

>  <PUBCHEM_MMFF94_PARTIAL_CHARGES>  (1) 
22
1 -0.43
10 0.63
11 0.04
12 -0.15
13 -0.15
14 0.16
15 0.16
18 0.27
19 0.15
2 -0.57
20 0.15
21 0.15
22 0.15
23 0.15
24 0.15
3 0.03
4 -0.57
5 -0.62
6 -0.33
7 0.46
8 0.08
9 0.09

>  <PUBCHEM_EFFECTIVE_ROTOR_COUNT>  (1) 
4

>  <PUBCHEM_PHARMACOPHORE_FEATURES>  (1) 
6
1 2 acceptor
1 3 donor
1 5 acceptor
3 3 4 11 cation
5 3 4 6 8 11 rings
6 5 9 12 13 14 15 rings

>  <PUBCHEM_HEAVY_ATOM_COUNT>  (1) 
15

>  <PUBCHEM_ATOM_DEF_STEREO_COUNT>  (1) 
0

>  <PUBCHEM_ATOM_UDEF_STEREO_COUNT>  (1) 
0

>  <PUBCHEM_BOND_DEF_STEREO_COUNT>  (1) 
0

>  <PUBCHEM_BOND_UDEF_STEREO_COUNT>  (1) 
0

>  <PUBCHEM_ISOTOPIC_ATOM_COUNT>  (1) 
0

>  <PUBCHEM_COMPONENT_COUNT>  (1) 
1

>  <PUBCHEM_CACTVS_TAUTO_COUNT>  (1) 
2

>  <PUBCHEM_CONFORMER_ID>  (1) 
000074E800000001

>  <PUBCHEM_MMFF94_ENERGY>  (1) 
30.0997

>  <PUBCHEM_FEATURE_SELFOVERLAP>  (1) 
30.446

>  <PUBCHEM_SHAPE_FINGERPRINT>  (1) 
10608611 8 18335419045720864941
11471102 20 18413105035444251886
11543360 7 14836117810084824504
122479 349 18335423520887188658
13081056 2 18409168805249497717
13705890 14 10592043561650094758
13922767 16 18413385445474710546
14123255 52 18411134740513981127
14252887 29 12540690401838885568
14415576 193 18410858750146963724
15196674 1 18410855485898140968
17834072 8 18201728340584046414
18186145 218 18272658969241598998
20432913 95 10737285740375183989
20645477 56 18114747028209847805
20645477 70 18060145297490709254
212847 35 18334860515531611708
21524375 3 18339640152127172182
21652331 79 18408040710730723197
22485316 2 8718828682493683587
22854114 59 18334577949453658313
231179 274 18335700520439145174
23402539 116 17561079215905355220
23402655 69 18130788984078518844
23559900 14 17846217804678994568
25 1 18412262839554855562
27216 239 18260832609715554545
293599 30 18337957887269119300
449060 50 18410016516146161191
5104073 3 18408603677494548067
633830 44 18343866619200349574
6430166 295 18410007754228111608
83771 10 8214147351896841614

>  <PUBCHEM_SHAPE_MULTIPOLES>  (1) 
282.01
9.54
1.82
0.74
3.46
0.21
0.01
-4
0.59
-0.83
-0.08
0.5
-0.06
0.4

>  <PUBCHEM_SHAPE_SELFOVERLAP>  (1) 
605.796

>  <PUBCHEM_SHAPE_VOLUME>  (1) 
156.4

>  <PUBCHEM_COORDINATE_TYPE>  (1) 
2
5
10

$$$$
