29925
     RDKit          3D

 13 12  0  0  0  0  0  0  0  0999 V2000
   -3.6832   -3.2644    0.1905 O   0  0  0  0  0  0  0  0  0  0  0  0
   -1.8880    1.2136   -1.0122 C   0  0  0  0  0  0  0  0  0  0  0  0
   -1.5567    2.6491   -0.5851 C   0  0  0  0  0  0  0  0  0  0  0  0
   -2.4761    0.3131    0.0787 C   0  0  0  0  0  0  0  0  0  0  0  0
   -0.4828    2.7805    0.4999 C   0  0  0  0  0  0  0  0  0  0  0  0
   -2.8031   -1.1008   -0.4114 C   0  0  0  0  0  0  0  0  0  0  0  0
    2.8556    0.7540    0.3204 C   0  0  0  0  0  0  0  0  0  0  0  0
    2.7974   -0.7625    0.1261 C   0  0  0  0  0  0  0  0  0  0  0  0
    0.8501    2.2388    0.0720 C   0  0  0  0  0  0  0  0  0  0  0  0
   -3.4162   -1.9612    0.6879 C   0  0  0  0  0  0  0  0  0  0  0  0
    1.5235    1.2964    0.7481 C   0  0  0  0  0  0  0  0  0  0  0  0
    4.1614   -1.3226   -0.2777 C   0  0  0  0  0  0  0  0  0  0  0  0
    4.1182   -2.8339   -0.4370 C   0  0  0  0  0  0  0  0  0  0  0  0
  1 10  1  0
  2  3  1  0
  2  4  1  0
  3  5  1  0
  4  6  1  0
  5  9  1  0
  6 10  1  0
  7  8  1  0
  7 11  1  0
  8 12  1  0
  9 11  2  0
 12 13  1  0
M  END
>  <PUBCHEM_COMPOUND_CID>  (1) 
29925

>  <PUBCHEM_CONFORMER_RMSD>  (1) 
1

>  <PUBCHEM_CONFORMER_DIVERSEORDER>  (1) 
1
92
101
122
131
3
623
12
608
13
39
83
510
267
426
528
99
427
2
324
499
664
50
665
10
76
247
439
496
251
398
428
48
201
9
198
436
658
6
105
119
602
120
688
42
23
586
444
685
127
508
37
562
350
5
451
323
117
555
204
477
110
24
492
455
244
130
230
46
433
29
168
652
442
520
4
489
98
152
465
55
577
107
60
282
71
484
226
415
14
557
18
184
58
191
663
358
292
325
655
164
460

>  <PUBCHEM_MMFF94_PARTIAL_CHARGES>  (1) 
9
1 -0.68
10 0.28
11 -0.29
28 0.15
31 0.15
37 0.4
5 0.14
7 0.14
9 -0.29

>  <PUBCHEM_EFFECTIVE_ROTOR_COUNT>  (1) 
9

>  <PUBCHEM_PHARMACOPHORE_FEATURES>  (1) 
6
1 1 acceptor
1 1 donor
1 13 hydrophobe
3 2 4 6 hydrophobe
3 3 5 9 hydrophobe
4 7 8 11 12 hydrophobe

>  <PUBCHEM_HEAVY_ATOM_COUNT>  (1) 
13

>  <PUBCHEM_ATOM_DEF_STEREO_COUNT>  (1) 
0

>  <PUBCHEM_ATOM_UDEF_STEREO_COUNT>  (1) 
0

>  <PUBCHEM_BOND_DEF_STEREO_COUNT>  (1) 
0

>  <PUBCHEM_BOND_UDEF_STEREO_COUNT>  (1) 
1

>  <PUBCHEM_ISOTOPIC_ATOM_COUNT>  (1) 
0

>  <PUBCHEM_COMPONENT_COUNT>  (1) 
1

>  <PUBCHEM_CACTVS_TAUTO_COUNT>  (1) 
1

>  <PUBCHEM_CONFORMER_ID>  (1) 
000074E500000001

>  <PUBCHEM_MMFF94_ENERGY>  (1) 
-1.1252

>  <PUBCHEM_FEATURE_SELFOVERLAP>  (1) 
30.448

>  <PUBCHEM_SHAPE_FINGERPRINT>  (1) 
11127187 94 18189610557972293037
117890 22 18341335590620054151
12757275 245 18123751950836509772
12990986 174 18336820901740852282
13533116 47 17909272717699861315
14251705 54 18411417353699125822
14251710 61 18411702067234106434
14251731 5 18410579512801183115
14863182 85 17686905324806681476
14916288 52 18411698768488453974
15352361 1 18411135865668987499
15422964 175 18267293412511867969
17859628 97 17186159765006012648
20621476 30 17980206280094617926
20645477 70 17540801125181735743
20871998 22 18265894833842675737
21354914 83 18410854326584005676
21665056 4 17977380530082374469
221490 88 18341611482867007344
23466295 7 18194697981189062898
23530152 11 16678662070104074037
4416823 128 18410292544645385089
5207 123 18338226189575936575
5365585 94 17626115144253269046
57583515 52 17979070484255291358
7987 15 18058744506744366062
8809292 202 18196931072219950812

>  <PUBCHEM_SHAPE_MULTIPOLES>  (1) 
261.66
8.08
4.25
0.86
5.58
1.4
0.04
9.01
0.5
-2.42
-0.2
-0.21
-0.13
1.38

>  <PUBCHEM_SHAPE_SELFOVERLAP>  (1) 
469.019

>  <PUBCHEM_SHAPE_VOLUME>  (1) 
169

>  <PUBCHEM_COORDINATE_TYPE>  (1) 
2
5
10

$$$$
