29922
     RDKit          3D

 41 47  0  0  1  0  0  0  0  0999 V2000
    4.2420   -2.8164   -1.1184 O   0  0  0  0  0  0  0  0  0  0  0  0
   -0.0993   -3.5234    0.2228 O   0  0  0  0  0  0  0  0  0  0  0  0
    0.6779   -3.1421    2.4647 O   0  0  0  0  0  0  0  0  0  0  0  0
   -3.6215   -0.2799    0.4281 O   0  0  0  0  0  0  0  0  0  0  0  0
    6.8392    3.3362    1.1271 O   0  0  0  0  0  0  0  0  0  0  0  0
   -4.6872    1.8451    0.6603 O   0  0  0  0  0  0  0  0  0  0  0  0
    8.8049    3.4381   -0.0651 O   0  0  0  0  0  0  0  0  0  0  0  0
   -7.6716   -0.1443   -1.2594 O   0  0  0  0  0  0  0  0  0  0  0  0
   -7.6880    1.8465   -0.0230 O   0  0  0  0  0  0  0  0  0  0  0  0
    2.4269   -1.2069   -0.8432 C   0  0  0  0  0  0  0  0  0  0  0  0
    3.9534   -1.4200   -1.1366 C   0  0  0  0  0  0  0  0  0  0  0  0
    2.0696   -1.4529    0.6502 C   0  0  0  0  0  0  0  0  0  0  0  0
    4.9009   -0.6794   -0.1446 C   0  0  0  0  0  0  0  0  0  0  0  0
    0.5228   -1.2830    0.9719 C   0  0  0  0  0  0  0  0  0  0  0  0
   -0.3365   -2.1301   -0.0332 C   0  0  0  0  0  0  0  0  0  0  0  0
    2.9686   -0.5807    1.5492 C   0  0  0  0  0  0  0  0  0  0  0  0
    4.4492   -0.8497    1.3153 C   0  0  0  0  0  0  0  0  0  0  0  0
    4.8102    0.7820   -0.6712 C   0  0  0  0  0  0  0  0  0  0  0  0
    1.5474   -2.1000   -1.7392 C   0  0  0  0  0  0  0  0  0  0  0  0
    4.3596   -0.8074   -2.4945 C   0  0  0  0  0  0  0  0  0  0  0  0
    0.0639   -1.8591   -1.4958 C   0  0  0  0  0  0  0  0  0  0  0  0
    4.8147    0.6273   -2.2018 C   0  0  0  0  0  0  0  0  0  0  0  0
    0.0798    0.2086    0.9003 C   0  0  0  0  0  0  0  0  0  0  0  0
   -1.8513   -1.8904    0.1398 C   0  0  0  0  0  0  0  0  0  0  0  0
    0.2827   -1.7934    2.4242 C   0  0  0  0  0  0  0  0  0  0  0  0
    6.3588   -1.2137   -0.2277 C   0  0  0  0  0  0  0  0  0  0  0  0
   -1.4253    0.4118    1.0782 C   0  0  0  0  0  0  0  0  0  0  0  0
   -2.2425   -0.4162    0.0956 C   0  0  0  0  0  0  0  0  0  0  0  0
    5.8491    1.7404   -0.1821 C   0  0  0  0  0  0  0  0  0  0  0  0
    5.6268    2.5842    1.0096 C   0  0  0  0  0  0  0  0  0  0  0  0
    7.0490    1.9625   -0.7118 C   0  0  0  0  0  0  0  0  0  0  0  0
   -4.2054    0.8375   -0.2290 C   0  0  0  0  0  0  0  0  0  0  0  0
    7.6894    2.9828    0.1196 C   0  0  0  0  0  0  0  0  0  0  0  0
   -5.3138    0.3711   -1.1592 C   0  0  0  0  0  0  0  0  0  0  0  0
   -6.5382   -0.1077   -0.3809 C   0  0  0  0  0  0  0  0  0  0  0  0
   -6.9499    0.8575    0.7099 C   0  0  0  0  0  0  0  0  0  0  0  0
   -5.8007    1.4938    1.4876 C   0  0  0  0  0  0  0  0  0  0  0  0
   -8.3771    1.0884   -1.0311 C   0  0  0  0  0  0  0  0  0  0  0  0
   -5.3548    0.6244    2.6618 C   0  0  0  0  0  0  0  0  0  0  0  0
   -9.7891    0.7563   -0.5507 C   0  0  0  0  0  0  0  0  0  0  0  0
   -8.4343    1.9021   -2.3178 C   0  0  0  0  0  0  0  0  0  0  0  0
  1 11  1  0
  2 15  1  0
  3 25  1  0
  4 28  1  0
  4 32  1  0
  5 30  1  0
  5 33  1  0
  6 32  1  0
  6 37  1  0
  7 33  2  0
  8 35  1  0
  8 38  1  0
  9 36  1  0
  9 38  1  0
 10 11  1  0
 10 12  1  0
 10 19  1  0
 11 13  1  0
 11 20  1  0
 12 14  1  0
 12 16  1  0
 13 17  1  0
 13 18  1  0
 13 26  1  0
 14 15  1  0
 14 23  1  0
 14 25  1  0
 15 21  1  0
 15 24  1  0
 16 17  1  0
 18 22  1  0
 18 29  1  0
 19 21  1  0
 20 22  1  0
 23 27  1  0
 24 28  1  0
 27 28  1  0
 29 30  1  0
 29 31  2  0
 31 33  1  0
 32 34  1  0
 34 35  1  0
 35 36  1  0
 36 37  1  0
 37 39  1  0
 38 40  1  0
 38 41  1  0
M  END
>  <PUBCHEM_COMPOUND_CID>  (1) 
29922

>  <PUBCHEM_CONFORMER_RMSD>  (1) 
1

>  <PUBCHEM_CONFORMER_DIVERSEORDER>  (1) 
1
187
71
255
88
236
199
228
271
167
178
58
261
225
174
260
248
26
207
220
240
98
221
140
263
206
254
242
163
151
183
117
73
113
42
126
193
138
162
89
208
86
101
210
246
136
213
24
274
79
262
172
275
133
201
217
141
249
47
190
116
192
119
110
196
166
143
33
90
70
67
238
125
237
205
232
182
77
276
60
27
132
120
191
108
202
96
121
28
209
81
92
194
118
95
128
106
211
135
267
112
241
158
200
25
223
45
148
269
31
235
97
129
137
38
216
188
245
157
268
9
104
49
84
219
165
111
266
124
169
43
30
69
123
265
224
229
44
12
156
256
80
139
19
179
144
122
14
2
76
94
55
244
239
3
247
152
259
32
212
13
40
61
184
270
85
253
227
114
4
204
18
54
103
66
153
197
230
250
177
107
233
198
168
41
258
243
214
189
51
10
185
273
34
134
83
171
29
56
155
226
175
50
154
109
145
218
272
146
39
161
82
63
234
131
91
251
23
176
48
74
180
21
78
215
159
130
231
15
149
102
203
181
150
8
170
186
164
72
20
257
115
147
173
127
52
252
222
68
7
93
160
87
65
75
37
62
264
100
64
46
16
195
59
36
11
105
17
57
6
142
99
53
35
22
5

>  <PUBCHEM_MMFF94_PARTIAL_CHARGES>  (1) 
27
1 -0.68
11 0.28
15 0.28
18 0.14
2 -0.68
25 0.28
28 0.28
29 -0.28
3 -0.68
30 0.42
31 -0.14
32 0.56
33 0.71
35 0.28
36 0.28
37 0.28
38 0.56
4 -0.56
5 -0.43
6 -0.56
69 0.4
7 -0.57
70 0.4
73 0.4
74 0.15
8 -0.56
9 -0.56

>  <PUBCHEM_EFFECTIVE_ROTOR_COUNT>  (1) 
8

>  <PUBCHEM_PHARMACOPHORE_FEATURES>  (1) 
19
1 1 acceptor
1 1 donor
1 2 acceptor
1 2 donor
1 3 acceptor
1 3 donor
1 4 acceptor
1 6 acceptor
1 7 acceptor
1 8 acceptor
1 9 acceptor
3 38 40 41 hydrophobe
5 11 13 18 20 22 rings
5 5 29 30 31 33 rings
5 8 9 35 36 38 rings
6 10 11 12 13 16 17 rings
6 10 12 14 15 19 21 rings
6 14 15 23 24 27 28 rings
6 6 32 34 35 36 37 rings

>  <PUBCHEM_HEAVY_ATOM_COUNT>  (1) 
41

>  <PUBCHEM_ATOM_DEF_STEREO_COUNT>  (1) 
8

>  <PUBCHEM_ATOM_UDEF_STEREO_COUNT>  (1) 
4

>  <PUBCHEM_BOND_DEF_STEREO_COUNT>  (1) 
0

>  <PUBCHEM_BOND_UDEF_STEREO_COUNT>  (1) 
0

>  <PUBCHEM_ISOTOPIC_ATOM_COUNT>  (1) 
0

>  <PUBCHEM_COMPONENT_COUNT>  (1) 
1

>  <PUBCHEM_CACTVS_TAUTO_COUNT>  (1) 
1

>  <PUBCHEM_CONFORMER_ID>  (1) 
000074E200000001

>  <PUBCHEM_MMFF94_ENERGY>  (1) 
150.9884

>  <PUBCHEM_FEATURE_SELFOVERLAP>  (1) 
97.007

>  <PUBCHEM_SHAPE_FINGERPRINT>  (1) 
10280341 67 18128245891563513112
10533779 1 18269829973638742848
10554248 39 17774738467441719126
10673678 19 18059863878363988494
10675989 125 18342747274099643042
10835480 77 18342179998612708616
11135609 127 18130500912433013704
11409948 41 16271386119416468404
11456790 92 12901541334481948029
117089 54 9726266099071349388
12522641 24 18042116566812621306
13150687 139 18343591741689141958
13617811 41 17917988360840133713
13782708 43 12894771642275986157
13811026 1 18413110579983293382
14117953 113 18059583499400808844
14359421 15 12823030711360346828
14675020 138 16298103172757772216
14747282 305 8862404049041933533
15064986 96 14201935940313854288
15082195 135 17489591169191185522
15183329 4 16988849367139488025
15276724 80 18200880573874757741
15351339 4 18343862191074055808
15352257 5 13829837020993562613
15361156 5 17775278384023277783
15510800 12 10231758894280172388
15840311 113 18040713645451028438
16096371 109 17386009407847187410
16994733 274 18335416894053123471
17686467 74 17894912950191604405
19301679 30 8935010286270054298
19438510 23 18337673118004896730
20105231 36 15697997449570903463
2026 5 10231494998974324004
20554085 129 17749106698996802553
20737093 193 12961726578753409578
21033648 29 17676491683266711914
21057603 130 10087378750673788652
21344244 181 11527945664506233980
21792965 106 18042119869716740541
23191077 185 18411973633595048035
23522609 53 16915684517837485299
23576562 1 17487892517614756405
24771293 8 18260827145847611837
25269216 80 17702373130565244231
27425 322 18409164446027023522
2838139 119 18340489976136695558
3504750 166 11674877823458749827
3918712 181 18411414008246961605
397638 26 16588025714626924977
4112364 45 18187353317004652210
439807 62 8646772201284990340
4403749 210 17968382346596945915
45377200 153 13685719693924221701
5372103 7 18271525398866570556
5776283 40 17703785972430149905
6201320 77 8285936652186252585
6523845 18 17676770856146811334
6695519 79 17896909615245387683
6712543 237 14562526293127989153
9555976 147 14779555569320415789

>  <PUBCHEM_SHAPE_MULTIPOLES>  (1) 
790.94
27.14
3.36
2.15
34.86
0.54
-0.16
27.74
7.83
-6.69
-0.47
0.78
-0.47
1.47

>  <PUBCHEM_SHAPE_SELFOVERLAP>  (1) 
1713.897

>  <PUBCHEM_SHAPE_VOLUME>  (1) 
428.9

>  <PUBCHEM_COORDINATE_TYPE>  (1) 
2
5
10

$$$$
