29932
     RDKit          3D

 12 13  0  0  0  0  0  0  0  0999 V2000
    0.6534    1.7706    0.2948 S   0  0  0  0  0  0  0  0  0  0  0  0
    3.2686    0.2460    0.5522 S   0  0  0  0  0  0  0  0  0  0  0  0
    0.7462   -0.7344    0.2119 N   0  0  0  0  0  0  0  0  0  0  0  0
   -0.5893   -0.4360    0.0619 C   0  0  0  0  0  0  0  0  0  0  0  0
   -0.8406    0.9303    0.0829 C   0  0  0  0  0  0  0  0  0  0  0  0
    1.5368    0.3079    0.3463 C   0  0  0  0  0  0  0  0  0  0  0  0
   -1.6332   -1.3582   -0.0986 C   0  0  0  0  0  0  0  0  0  0  0  0
    1.2346   -2.0980    0.2202 C   0  0  0  0  0  0  0  0  0  0  0  0
   -2.1430    1.4300   -0.0556 C   0  0  0  0  0  0  0  0  0  0  0  0
   -2.9339   -0.8641   -0.2372 C   0  0  0  0  0  0  0  0  0  0  0  0
   -3.1834    0.5079   -0.2158 C   0  0  0  0  0  0  0  0  0  0  0  0
    3.8837    0.2980   -1.1630 C   0  0  0  0  0  0  0  0  0  0  0  0
  1  5  1  0
  1  6  1  0
  2  6  1  0
  2 12  1  0
  3  4  1  0
  3  6  2  0
  3  8  1  0
  4  5  2  0
  4  7  1  0
  5  9  1  0
  7 10  2  0
  9 11  2  0
 10 11  1  0
M  CHG  1   3   1
M  END
>  <PUBCHEM_COMPOUND_CID>  (1) 
29932

>  <PUBCHEM_CONFORMER_RMSD>  (1) 
0.4

>  <PUBCHEM_CONFORMER_DIVERSEORDER>  (1) 
2
5
3
4
1

>  <PUBCHEM_MMFF94_PARTIAL_CHARGES>  (1) 
16
1 -0.08
10 -0.15
11 -0.15
12 0.23
13 0.15
17 0.15
18 0.15
19 0.15
2 -0.29
3 -0.18
4 0.33
5 0.04
6 0.43
7 -0.15
8 0.51
9 -0.15

>  <PUBCHEM_EFFECTIVE_ROTOR_COUNT>  (1) 
1

>  <PUBCHEM_PHARMACOPHORE_FEATURES>  (1) 
3
1 12 hydrophobe
5 1 3 4 5 6 rings
6 4 5 7 9 10 11 rings

>  <PUBCHEM_HEAVY_ATOM_COUNT>  (1) 
12

>  <PUBCHEM_ATOM_DEF_STEREO_COUNT>  (1) 
0

>  <PUBCHEM_ATOM_UDEF_STEREO_COUNT>  (1) 
0

>  <PUBCHEM_BOND_DEF_STEREO_COUNT>  (1) 
0

>  <PUBCHEM_BOND_UDEF_STEREO_COUNT>  (1) 
0

>  <PUBCHEM_ISOTOPIC_ATOM_COUNT>  (1) 
0

>  <PUBCHEM_COMPONENT_COUNT>  (1) 
1

>  <PUBCHEM_CACTVS_TAUTO_COUNT>  (1) 
1

>  <PUBCHEM_CONFORMER_ID>  (1) 
000074EC00000002

>  <PUBCHEM_MMFF94_ENERGY>  (1) 
27.6917

>  <PUBCHEM_FEATURE_SELFOVERLAP>  (1) 
15.293

>  <PUBCHEM_SHAPE_FINGERPRINT>  (1) 
10465860 71 18341066184881305740
11132069 177 18410565197943964216
11206711 2 18409440410322829669
12032990 46 18342461481852338690
12423570 1 11829213899083921096
12897270 3 18411415128758256481
12932764 1 17917418830933192595
13380535 21 18339651031395039739
13380535 76 18409160000419153267
14144814 61 18410849949716789321
14325111 11 18410851075272696200
14911166 2 18412259545256891549
14993402 34 18113338643523774476
15775835 57 18336549326304620733
16945 1 18411129251672228049
18186145 218 18342741831932986568
193761 8 17835235645347031544
20201158 50 18410847768142532027
20645476 183 17822299049718200358
21501502 16 18266735783885510139
2334 1 17834107928758615505
23402539 116 18341607140644515364
23402655 69 18196914618880936749
23463225 33 18262227829567444586
23552423 10 18117837707328303939
23559900 14 18343868832068693420
2748010 2 18195241114242020893
3312278 4 18411418410376982411
369184 2 15429751774330754025
5084963 1 18058731445405537577
528886 8 18410846668330113640
53812653 166 18343011194669139816
57177213 63 18187647959944624218
63268167 104 18338794507768810497
7364860 26 18198617727457739778

>  <PUBCHEM_SHAPE_MULTIPOLES>  (1) 
249.67
5.54
1.84
0.8
2.16
0.28
0.11
-0.32
1.19
-0.24
-0.14
0.56
-0.05
-0.08

>  <PUBCHEM_SHAPE_SELFOVERLAP>  (1) 
506.223

>  <PUBCHEM_SHAPE_VOLUME>  (1) 
149.3

>  <PUBCHEM_COORDINATE_TYPE>  (1) 
2
5
10

$$$$
