2993
     RDKit          3D

 34 37  0  0  0  0  0  0  0  0999 V2000
    6.9190   -0.5312    0.6500 N   0  0  0  0  0  0  0  0  0  0  0  0
   -6.8995   -0.4892   -0.6655 N   0  0  0  0  0  0  0  0  0  0  0  0
   10.6087   -0.5436   -1.2485 N   0  0  0  0  0  0  0  0  0  0  0  0
  -10.5758   -0.7075    1.2462 N   0  0  0  0  0  0  0  0  0  0  0  0
    0.5659   -0.7320    0.5069 C   0  0  0  0  0  0  0  0  0  0  0  0
   -0.5434   -0.6609   -0.5450 C   0  0  0  0  0  0  0  0  0  0  0  0
    1.9749   -0.7220   -0.0931 C   0  0  0  0  0  0  0  0  0  0  0  0
   -1.9283   -0.7077    0.1063 C   0  0  0  0  0  0  0  0  0  0  0  0
    3.0833   -0.7192    0.9628 C   0  0  0  0  0  0  0  0  0  0  0  0
   -3.0358   -0.5911   -0.9432 C   0  0  0  0  0  0  0  0  0  0  0  0
    4.4689   -0.6843    0.3120 C   0  0  0  0  0  0  0  0  0  0  0  0
   -4.4426   -0.5356   -0.3394 C   0  0  0  0  0  0  0  0  0  0  0  0
    5.6051   -0.6002    1.3281 C   0  0  0  0  0  0  0  0  0  0  0  0
   -5.5865   -0.4850   -1.3500 C   0  0  0  0  0  0  0  0  0  0  0  0
    7.4475    0.6635    0.3234 C   0  0  0  0  0  0  0  0  0  0  0  0
   -7.4809    0.6734   -0.3144 C   0  0  0  0  0  0  0  0  0  0  0  0
    7.5292   -1.6948    0.3894 C   0  0  0  0  0  0  0  0  0  0  0  0
   -7.4543   -1.6845   -0.4249 C   0  0  0  0  0  0  0  0  0  0  0  0
    8.7023    0.7031   -0.3239 C   0  0  0  0  0  0  0  0  0  0  0  0
   -8.7331    0.6430    0.3384 C   0  0  0  0  0  0  0  0  0  0  0  0
    8.7610   -1.7149   -0.2434 C   0  0  0  0  0  0  0  0  0  0  0  0
   -8.6810   -1.7733    0.2120 C   0  0  0  0  0  0  0  0  0  0  0  0
    9.3508   -0.5078   -0.6020 C   0  0  0  0  0  0  0  0  0  0  0  0
   -9.3240   -0.6015    0.5958 C   0  0  0  0  0  0  0  0  0  0  0  0
    6.7659    1.8479    0.6200 C   0  0  0  0  0  0  0  0  0  0  0  0
   -6.8558    1.8934   -0.5908 C   0  0  0  0  0  0  0  0  0  0  0  0
    6.8799   -2.9805    0.7821 C   0  0  0  0  0  0  0  0  0  0  0  0
   -6.7485   -2.9312   -0.8445 C   0  0  0  0  0  0  0  0  0  0  0  0
    9.2503    1.9502   -0.6629 C   0  0  0  0  0  0  0  0  0  0  0  0
   -9.3365    1.8569    0.7031 C   0  0  0  0  0  0  0  0  0  0  0  0
    7.3257    3.0774    0.2756 C   0  0  0  0  0  0  0  0  0  0  0  0
   -7.4699    3.0892   -0.2210 C   0  0  0  0  0  0  0  0  0  0  0  0
    8.5639    3.1289   -0.3637 C   0  0  0  0  0  0  0  0  0  0  0  0
   -8.7063    3.0714    0.4239 C   0  0  0  0  0  0  0  0  0  0  0  0
  1 13  1  0
  1 15  1  0
  1 17  2  0
  2 14  1  0
  2 16  1  0
  2 18  2  0
  3 23  1  0
  4 24  1  0
  5  6  1  0
  5  7  1  0
  6  8  1  0
  7  9  1  0
  8 10  1  0
  9 11  1  0
 10 12  1  0
 11 13  1  0
 12 14  1  0
 15 19  2  0
 15 25  1  0
 16 20  2  0
 16 26  1  0
 17 21  1  0
 17 27  1  0
 18 22  1  0
 18 28  1  0
 19 23  1  0
 19 29  1  0
 20 24  1  0
 20 30  1  0
 21 23  2  0
 22 24  2  0
 25 31  2  0
 26 32  2  0
 29 33  2  0
 30 34  2  0
 31 33  1  0
 32 34  1  0
M  CHG  2   1   1   2   1
M  END
>  <PUBCHEM_COMPOUND_CID>  (1) 
2993

>  <PUBCHEM_CONFORMER_RMSD>  (1) 
1

>  <PUBCHEM_CONFORMER_DIVERSEORDER>  (1) 
1
48
365
331
328
8
121
154
149
123
127
141
311
82
2
17
282
246
367
76
294
39
247
101
12
291
262
342
88
10
173
108
360
238
110
32
15
158
355
201
225
34
233
314
16
312
321
37
292
18
159
73
243
24
204
346
181
36
279
351
5
275
6
182
326
320
336
63
130
42
307
25
67
259
284
38
75
256
122
118
348
66
98
40
281
340
4
57
318
319
133
285
178
228
227
162
28
255
305
334
13
156
200
260
239
203
221
185
104
144
132
33
272
363
179
64
7
155
126
153
11
3
335
276
103
287
140
23
366
90
79
347
186
337
226
324
50
332
229
163
99
105
308
49
345
59
237
53
51
47
100
252
341
245
289
343
97
352
364
58
114
84
180
71
230
106
206
143
22
189
197
31
358
92
157
277
128
69
119
338
95
117
184
152
60
296
273
190
195
304
120
134
138
124
302
192
299
339
270
89
290
344
359
145
357
329
78
74
168
196
44
56
236
94
80
171
55
113
301
264
231
242
212
300
177
208
258
222
250
278
309
161
62
361
175
266
43
267
109
213
214
315
274
174
87
19
27
234
115
29
354
21
297
194
286
131
148
218
298
160
83
111
72
224
205
169
96
295
135
202
209
166
129
188
147
325
150
41
251
137
333
271
353
112
30
219
61
187
9
268
198
210
165
280
167
322
261
269
85
306
35
293
362
77
316
139
350
254
220
215
20
54
207
142
232
263
265
240
241
164
52
327
146
216
253
70
26
288
330
283
136
102
303
193
170
248
93
183
223
172
45
249
125
68
235
244
65
176
257
14
199
211
317
91
46
107
349
356
313
86
191
310
151
81
323
116
217

>  <PUBCHEM_MMFF94_PARTIAL_CHARGES>  (1) 
38
1 -0.21
13 0.49
14 0.49
15 0.36
16 0.36
17 0.22
18 0.22
2 -0.21
21 -0.15
22 -0.15
23 0.1
24 0.1
25 -0.15
26 -0.15
27 0.14
28 0.14
29 -0.15
3 -0.9
30 -0.15
31 -0.15
32 -0.15
33 -0.15
34 -0.15
4 -0.9
55 0.15
56 0.15
57 0.15
58 0.15
65 0.15
66 0.15
67 0.15
68 0.15
69 0.15
70 0.15
71 0.4
72 0.4
73 0.4
74 0.4

>  <PUBCHEM_EFFECTIVE_ROTOR_COUNT>  (1) 
11

>  <PUBCHEM_PHARMACOPHORE_FEATURES>  (1) 
8
1 3 cation
1 3 donor
1 4 cation
1 4 donor
6 1 15 17 19 21 23 rings
6 15 19 25 29 31 33 rings
6 16 20 26 30 32 34 rings
6 2 16 18 20 22 24 rings

>  <PUBCHEM_HEAVY_ATOM_COUNT>  (1) 
34

>  <PUBCHEM_ATOM_DEF_STEREO_COUNT>  (1) 
0

>  <PUBCHEM_ATOM_UDEF_STEREO_COUNT>  (1) 
0

>  <PUBCHEM_BOND_DEF_STEREO_COUNT>  (1) 
0

>  <PUBCHEM_BOND_UDEF_STEREO_COUNT>  (1) 
0

>  <PUBCHEM_ISOTOPIC_ATOM_COUNT>  (1) 
0

>  <PUBCHEM_COMPONENT_COUNT>  (1) 
1

>  <PUBCHEM_CACTVS_TAUTO_COUNT>  (1) 
2

>  <PUBCHEM_CONFORMER_ID>  (1) 
00000BB100000001

>  <PUBCHEM_MMFF94_ENERGY>  (1) 
128.1444

>  <PUBCHEM_FEATURE_SELFOVERLAP>  (1) 
40.657

>  <PUBCHEM_SHAPE_FINGERPRINT>  (1) 
10162869 55 8862937295745125830
11061554 47 18114456834228630044
11181472 205 18271528585541873858
11966995 178 18409451385050785382
12013929 94 18337109081594535283
12082328 90 18411412921883993191
12089408 11 18410289211708883687
12144603 126 18410573985151490119
12522641 33 18412543197645826223
12539765 74 18343301453260861046
12559415 86 17988093196657443196
13947947 74 18333729122672840834
14118638 360 15769785614902763142
14428016 248 18408042918079974365
15145343 6 18202562895257534427
15530121 191 18114453509560303948
15840311 113 18334296496627368660
1754911 235 18410009944682551190
17686467 74 17894910741987745973
21772524 286 18268710498786820737
22164985 6 17418369220516108643
232437 2 18410575084674219554
437795 160 7925911469560191911
45270241 37 18413109464421061454
4625314 4 18343582958375760070
67123 10 18334575750109019667
9962374 69 14851892499520183055

>  <PUBCHEM_SHAPE_MULTIPOLES>  (1) 
679.78
51.8
3.31
1.04
0.89
2.02
0
12.25
-0.19
-0.12
-0.03
0.04
-0.17
-1.67

>  <PUBCHEM_SHAPE_SELFOVERLAP>  (1) 
1448.415

>  <PUBCHEM_SHAPE_VOLUME>  (1) 
374.8

>  <PUBCHEM_COORDINATE_TYPE>  (1) 
2
5
10

$$$$
