2994
     RDKit          3D

 28 28  0  0  1  0  0  0  0  0999 V2000
   -0.4667    0.6632   -2.1077 O   0  0  0  0  0  0  0  0  0  0  0  0
    2.0361    4.1172   -0.0787 O   0  0  0  0  0  0  0  0  0  0  0  0
    0.5496    5.5556   -0.9917 O   0  0  0  0  0  0  0  0  0  0  0  0
   -1.0404   -1.1879    1.3614 O   0  0  0  0  0  0  0  0  0  0  0  0
   -3.9049   -2.0698   -1.3240 O   0  0  0  0  0  0  0  0  0  0  0  0
    0.5225    1.9736   -0.4640 N   0  0  0  0  0  0  0  0  0  0  0  0
    0.1479   -1.5404   -0.6033 N   0  0  0  0  0  0  0  0  0  0  0  0
   -2.9150   -3.0281    0.5439 N   0  0  0  0  0  0  0  0  0  0  0  0
   -6.3810   -2.6465   -0.2728 N   0  0  0  0  0  0  0  0  0  0  0  0
   -1.4576    3.4200   -0.1540 C   0  0  0  0  0  0  0  0  0  0  0  0
   -1.5594    3.1532    1.3651 C   0  0  0  0  0  0  0  0  0  0  0  0
   -0.0880    3.2275   -0.8223 C   0  0  0  0  0  0  0  0  0  0  0  0
    1.0181   -0.3952   -0.5108 C   0  0  0  0  0  0  0  0  0  0  0  0
    2.3578   -0.6271   -1.2191 C   0  0  0  0  0  0  0  0  0  0  0  0
    0.2825    0.7822   -1.1406 C   0  0  0  0  0  0  0  0  0  0  0  0
   -2.9709    3.3096    1.9261 C   0  0  0  0  0  0  0  0  0  0  0  0
   -0.6079    4.0983    2.1085 C   0  0  0  0  0  0  0  0  0  0  0  0
    0.8372    4.4191   -0.6317 C   0  0  0  0  0  0  0  0  0  0  0  0
    3.3191   -1.4486   -0.3953 C   0  0  0  0  0  0  0  0  0  0  0  0
   -0.8180   -1.8462    0.3476 C   0  0  0  0  0  0  0  0  0  0  0  0
    4.2006   -0.8177    0.4827 C   0  0  0  0  0  0  0  0  0  0  0  0
    3.3258   -2.8388   -0.5112 C   0  0  0  0  0  0  0  0  0  0  0  0
   -1.5634   -3.1214    0.0110 C   0  0  0  0  0  0  0  0  0  0  0  0
    5.0890   -1.5769    1.2444 C   0  0  0  0  0  0  0  0  0  0  0  0
    4.2141   -3.5977    0.2507 C   0  0  0  0  0  0  0  0  0  0  0  0
    5.0957   -2.9667    1.1284 C   0  0  0  0  0  0  0  0  0  0  0  0
   -3.9719   -2.5067   -0.1772 C   0  0  0  0  0  0  0  0  0  0  0  0
   -5.2511   -2.5039    0.6343 C   0  0  0  0  0  0  0  0  0  0  0  0
  1 15  2  0
  2 18  1  0
  3 18  2  0
  4 20  2  0
  5 27  2  0
  6 12  1  0
  6 15  1  0
  7 13  1  0
  7 20  1  0
  8 23  1  0
  8 27  1  0
  9 28  1  0
 10 11  1  0
 10 12  1  0
 11 16  1  0
 11 17  1  0
 12 18  1  0
 13 14  1  0
 13 15  1  0
 14 19  1  0
 19 21  2  0
 19 22  1  0
 20 23  1  0
 21 24  1  0
 22 25  2  0
 24 26  2  0
 25 26  1  0
 27 28  1  0
M  END
>  <PUBCHEM_COMPOUND_CID>  (1) 
2994

>  <PUBCHEM_CONFORMER_RMSD>  (1) 
1.2

>  <PUBCHEM_CONFORMER_DIVERSEORDER>  (1) 
2
59
8
75
17
28
64
72
34
9
22
85
77
15
58
32
45
86
37
66
14
60
41
36
49
43
83
39
67
69
13
79
56
18
21
38
62
57
6
48
76
70
74
40
30
19
73
84
50
52
35
55
71
68
16
82
1
11
25
4
3
33
44
53
27
80
78
5
51
12
24
31
46
65
61
7
63
54
29
10
26
20
47
23
81
42

>  <PUBCHEM_MMFF94_PARTIAL_CHARGES>  (1) 
35
1 -0.57
12 0.36
13 0.36
14 0.14
15 0.57
18 0.66
19 -0.14
2 -0.65
20 0.57
21 -0.15
22 -0.15
23 0.36
24 -0.15
25 -0.15
26 -0.15
27 0.57
28 0.33
3 -0.57
34 0.37
4 -0.57
43 0.37
44 0.15
45 0.15
48 0.5
49 0.15
5 -0.57
50 0.15
51 0.15
52 0.37
55 0.36
56 0.36
6 -0.73
7 -0.73
8 -0.73
9 -0.99

>  <PUBCHEM_EFFECTIVE_ROTOR_COUNT>  (1) 
14

>  <PUBCHEM_PHARMACOPHORE_FEATURES>  (1) 
13
1 1 acceptor
1 2 acceptor
1 3 acceptor
1 4 acceptor
1 5 acceptor
1 6 donor
1 7 donor
1 8 donor
1 9 cation
1 9 donor
3 11 16 17 hydrophobe
3 2 3 18 anion
6 19 21 22 24 25 26 rings

>  <PUBCHEM_HEAVY_ATOM_COUNT>  (1) 
28

>  <PUBCHEM_ATOM_DEF_STEREO_COUNT>  (1) 
0

>  <PUBCHEM_ATOM_UDEF_STEREO_COUNT>  (1) 
2

>  <PUBCHEM_BOND_DEF_STEREO_COUNT>  (1) 
0

>  <PUBCHEM_BOND_UDEF_STEREO_COUNT>  (1) 
0

>  <PUBCHEM_ISOTOPIC_ATOM_COUNT>  (1) 
0

>  <PUBCHEM_COMPONENT_COUNT>  (1) 
1

>  <PUBCHEM_CACTVS_TAUTO_COUNT>  (1) 
8

>  <PUBCHEM_CONFORMER_ID>  (1) 
00000BB200000002

>  <PUBCHEM_MMFF94_ENERGY>  (1) 
55.615

>  <PUBCHEM_FEATURE_SELFOVERLAP>  (1) 
66.033

>  <PUBCHEM_SHAPE_FINGERPRINT>  (1) 
10074138 170 18121764050608641442
1100329 8 18410295770698918821
12788726 201 18260272910937091726
12930653 34 17110450688789934004
13004483 165 18411693296779701370
13692114 37 17398385330725714121
14150022 121 18342448219768893394
14866123 147 17760081822355683034
17980427 26 17834389407909455830
21304303 172 18341338816029827478
21344244 78 18270959180126506683
21968339 14 17909818075250505847
23845131 108 17474103207393715833
345986 75 17896299381570320658
4058900 60 17471307617412751101
6004065 56 18193262216398252627
653340 110 18194677060583121402
79837 15 17834109741214131114
9777508 108 17907016171192848682

>  <PUBCHEM_SHAPE_MULTIPOLES>  (1) 
526.96
9.7
8.11
1.58
10.73
3.18
0.3
-9.74
3.91
-13.08
-0.25
-0.6
1.1
-1.35

>  <PUBCHEM_SHAPE_SELFOVERLAP>  (1) 
1060.569

>  <PUBCHEM_SHAPE_VOLUME>  (1) 
305.9

>  <PUBCHEM_COORDINATE_TYPE>  (1) 
2
5
10

$$$$
