29949
     RDKit          3D

 10 10  0  0  0  0  0  0  0  0999 V2000
    2.8243   -1.3310   -0.0003 Cl  0  0  0  0  0  0  0  0  0  0  0  0
   -2.8242    1.3311   -0.0003 Cl  0  0  0  0  0  0  0  0  0  0  0  0
    2.2646    1.6601    0.0001 N   0  0  0  0  0  0  0  0  0  0  0  0
   -2.2646   -1.6600    0.0003 N   0  0  0  0  0  0  0  0  0  0  0  0
    1.1343    0.8117    0.0001 C   0  0  0  0  0  0  0  0  0  0  0  0
   -1.1344   -0.8118   -0.0001 C   0  0  0  0  0  0  0  0  0  0  0  0
    1.2702   -0.5766    0.0001 C   0  0  0  0  0  0  0  0  0  0  0  0
   -1.2701    0.5765    0.0000 C   0  0  0  0  0  0  0  0  0  0  0  0
   -0.1358    1.3883    0.0001 C   0  0  0  0  0  0  0  0  0  0  0  0
    0.1358   -1.3884    0.0000 C   0  0  0  0  0  0  0  0  0  0  0  0
  1  7  1  0
  2  8  1  0
  3  5  1  0
  4  6  1  0
  5  7  2  0
  5  9  1  0
  6  8  1  0
  6 10  2  0
  7 10  1  0
  8  9  2  0
M  END
>  <PUBCHEM_COMPOUND_CID>  (1) 
29949

>  <PUBCHEM_CONFORMER_RMSD>  (1) 
0.4

>  <PUBCHEM_CONFORMER_DIVERSEORDER>  (1) 
1

>  <PUBCHEM_MMFF94_PARTIAL_CHARGES>  (1) 
16
1 -0.18
10 -0.15
11 0.15
12 0.15
13 0.4
14 0.4
15 0.4
16 0.4
2 -0.18
3 -0.9
4 -0.9
5 0.1
6 0.1
7 0.18
8 0.18
9 -0.15

>  <PUBCHEM_EFFECTIVE_ROTOR_COUNT>  (1) 
0

>  <PUBCHEM_PHARMACOPHORE_FEATURES>  (1) 
5
1 3 cation
1 3 donor
1 4 cation
1 4 donor
6 5 6 7 8 9 10 rings

>  <PUBCHEM_HEAVY_ATOM_COUNT>  (1) 
10

>  <PUBCHEM_ATOM_DEF_STEREO_COUNT>  (1) 
0

>  <PUBCHEM_ATOM_UDEF_STEREO_COUNT>  (1) 
0

>  <PUBCHEM_BOND_DEF_STEREO_COUNT>  (1) 
0

>  <PUBCHEM_BOND_UDEF_STEREO_COUNT>  (1) 
0

>  <PUBCHEM_ISOTOPIC_ATOM_COUNT>  (1) 
0

>  <PUBCHEM_COMPONENT_COUNT>  (1) 
1

>  <PUBCHEM_CACTVS_TAUTO_COUNT>  (1) 
1

>  <PUBCHEM_CONFORMER_ID>  (1) 
000074FD00000001

>  <PUBCHEM_MMFF94_ENERGY>  (1) 
42.8941

>  <PUBCHEM_FEATURE_SELFOVERLAP>  (1) 
25.371

>  <PUBCHEM_SHAPE_FINGERPRINT>  (1) 
12423570 1 17967248723647820869
13380535 21 18337967760581326620
14325111 11 18410855464481463169
14911166 2 18266741268484719006
16945 1 18266740173268058118
193761 8 18410855507372802055
19973954 147 18410292544539760097
21040471 1 18410574002394896673
21501502 16 18410856585414868151
23235685 24 18196646294165261713
23402655 69 17689979156398503165
23552423 10 18261394476820343390
241688 4 18407758127325084448
2748010 2 18410855485897965719
5084963 1 18272932730156541259
68250623 7 18410296938307329550

>  <PUBCHEM_SHAPE_MULTIPOLES>  (1) 
199.57
3.84
2
0.61
0
0
0
0
0
0
0
0
0
0

>  <PUBCHEM_SHAPE_SELFOVERLAP>  (1) 
398.991

>  <PUBCHEM_SHAPE_VOLUME>  (1) 
117.4

>  <PUBCHEM_COORDINATE_TYPE>  (1) 
2
5
10

$$$$
