29959
     RDKit          3D

 13 12  0  0  0  0  0  0  0  0999 V2000
   -2.2252   -0.1093    0.4834 P   0  0  0  0  0  0  0  0  0  0  0  0
   -3.3392    0.4498   -0.5388 O   0  0  0  0  0  0  0  0  0  0  0  0
   -2.2129   -1.7015    0.2312 O   0  0  0  0  0  0  0  0  0  0  0  0
   -2.4199    0.3131    1.9005 O   0  0  0  0  0  0  0  0  0  0  0  0
    1.9495    1.1643   -0.9983 O   0  0  0  0  0  0  0  0  0  0  0  0
    4.8115   -0.7355   -0.5542 O   0  0  0  0  0  0  0  0  0  0  0  0
    2.9536   -0.0761    0.6885 N   0  0  0  0  0  0  0  0  0  0  0  0
   -0.6537    0.4590   -0.2093 C   0  0  0  0  0  0  0  0  0  0  0  0
    0.5534   -0.0672    0.5503 C   0  0  0  0  0  0  0  0  0  0  0  0
    1.8715    0.4199   -0.0247 C   0  0  0  0  0  0  0  0  0  0  0  0
   -3.4867    1.8371   -0.7842 C   0  0  0  0  0  0  0  0  0  0  0  0
   -2.1246   -2.1942   -1.0941 C   0  0  0  0  0  0  0  0  0  0  0  0
    4.3227    0.2406    0.3498 C   0  0  0  0  0  0  0  0  0  0  0  0
  1  2  1  0
  1  3  1  0
  1  4  2  0
  1  8  1  0
  2 11  1  0
  3 12  1  0
  5 10  2  0
  6 13  1  0
  7 10  1  0
  7 13  1  0
  8  9  1  0
  9 10  1  0
M  END
>  <PUBCHEM_COMPOUND_CID>  (1) 
29959

>  <PUBCHEM_CONFORMER_RMSD>  (1) 
0.8

>  <PUBCHEM_CONFORMER_DIVERSEORDER>  (1) 
1
11
27
2
40
45
35
32
36
17
47
56
8
51
30
49
28
5
41
21
26
39
44
43
34
6
33
46
52
7
42
29
20
14
9
3
15
48
55
13
53
22
37
31
38
18
57
54
10
16
50
19
12
23
25
24
4

>  <PUBCHEM_MMFF94_PARTIAL_CHARGES>  (1) 
14
1 1.24
10 0.57
11 0.28
12 0.28
13 0.58
18 0.37
2 -0.55
27 0.4
3 -0.55
4 -0.7
5 -0.57
6 -0.68
7 -0.73
9 0.06

>  <PUBCHEM_EFFECTIVE_ROTOR_COUNT>  (1) 
7

>  <PUBCHEM_PHARMACOPHORE_FEATURES>  (1) 
5
1 4 acceptor
1 5 acceptor
1 6 acceptor
1 6 donor
1 7 donor

>  <PUBCHEM_HEAVY_ATOM_COUNT>  (1) 
13

>  <PUBCHEM_ATOM_DEF_STEREO_COUNT>  (1) 
0

>  <PUBCHEM_ATOM_UDEF_STEREO_COUNT>  (1) 
0

>  <PUBCHEM_BOND_DEF_STEREO_COUNT>  (1) 
0

>  <PUBCHEM_BOND_UDEF_STEREO_COUNT>  (1) 
0

>  <PUBCHEM_ISOTOPIC_ATOM_COUNT>  (1) 
0

>  <PUBCHEM_COMPONENT_COUNT>  (1) 
1

>  <PUBCHEM_CACTVS_TAUTO_COUNT>  (1) 
2

>  <PUBCHEM_CONFORMER_ID>  (1) 
0000750700000001

>  <PUBCHEM_MMFF94_ENERGY>  (1) 
11.356

>  <PUBCHEM_FEATURE_SELFOVERLAP>  (1) 
25.416

>  <PUBCHEM_SHAPE_FINGERPRINT>  (1) 
10680689 15 18334018302293203512
12346177 29 18272081721025687887
124424 183 17275101717625069776
12500047 106 18341884178102305470
12932764 1 18264500635623277000
14577589 140 18261111867951109075
187816 3 17632005391404411249
200 152 11167931451389833097
20279233 1 17060627714977281150
20645477 56 18410854348169852297
20645477 70 18265891359409442086
22169311 21 18059849584686420642
22485316 2 18410289208072942146
22959321 105 18270958063402938400
2306618 200 18343587343621570625
23402539 116 17132111321486609785
23402655 69 18186522094819636780
23559900 14 18131626786617265664
3248919 1 17489599986115712432
58051976 100 18334010618507222127
633830 44 17385446527288221686

>  <PUBCHEM_SHAPE_MULTIPOLES>  (1) 
237.06
8.13
1.65
1.16
8.54
0.7
-0.28
-0.51
0.83
-1.97
0.67
-0.67
-0.06
0.07

>  <PUBCHEM_SHAPE_SELFOVERLAP>  (1) 
426.298

>  <PUBCHEM_SHAPE_VOLUME>  (1) 
152.8

>  <PUBCHEM_COORDINATE_TYPE>  (1) 
2
5
10

$$$$
