29958
     RDKit          3D

 21 21  0  0  0  0  0  0  0  0999 V2000
    5.5885   -2.3170    0.9923 Cl  0  0  0  0  0  0  0  0  0  0  0  0
    3.5992    4.6457    0.7690 Cl  0  0  0  0  0  0  0  0  0  0  0  0
   -6.3541    0.6670    1.0892 Cl  0  0  0  0  0  0  0  0  0  0  0  0
    1.3857   -3.3918    0.0490 O   0  0  0  0  0  0  0  0  0  0  0  0
   -0.5175    3.2908   -0.1910 O   0  0  0  0  0  0  0  0  0  0  0  0
   -3.0604   -2.2193    0.3595 O   0  0  0  0  0  0  0  0  0  0  0  0
    0.7593   -1.2556   -0.6228 N   0  0  0  0  0  0  0  0  0  0  0  0
    0.0847    1.1024   -0.6993 N   0  0  0  0  0  0  0  0  0  0  0  0
   -1.6050   -0.6592   -0.5635 N   0  0  0  0  0  0  0  0  0  0  0  0
    1.1169    0.1101   -1.0235 C   0  0  0  0  0  0  0  0  0  0  0  0
   -0.6103   -1.6656   -0.9247 C   0  0  0  0  0  0  0  0  0  0  0  0
   -1.2949    0.7077   -0.9877 C   0  0  0  0  0  0  0  0  0  0  0  0
    1.6642   -2.2052   -0.1430 C   0  0  0  0  0  0  0  0  0  0  0  0
    0.3470    2.4188   -0.3110 C   0  0  0  0  0  0  0  0  0  0  0  0
   -2.8134   -1.0631    0.0067 C   0  0  0  0  0  0  0  0  0  0  0  0
    3.0604   -1.7184    0.1556 C   0  0  0  0  0  0  0  0  0  0  0  0
    1.7865    2.7644   -0.0212 C   0  0  0  0  0  0  0  0  0  0  0  0
   -3.8615    0.0050    0.1954 C   0  0  0  0  0  0  0  0  0  0  0  0
    3.9219   -2.8545    0.6649 C   0  0  0  0  0  0  0  0  0  0  0  0
    1.9130    4.2174    0.3852 C   0  0  0  0  0  0  0  0  0  0  0  0
   -5.1102   -0.5799    0.8209 C   0  0  0  0  0  0  0  0  0  0  0  0
  1 19  1  0
  2 20  1  0
  3 21  1  0
  4 13  2  0
  5 14  2  0
  6 15  2  0
  7 10  1  0
  7 11  1  0
  7 13  1  0
  8 10  1  0
  8 12  1  0
  8 14  1  0
  9 11  1  0
  9 12  1  0
  9 15  1  0
 13 16  1  0
 14 17  1  0
 15 18  1  0
 16 19  1  0
 17 20  1  0
 18 21  1  0
M  END
>  <PUBCHEM_COMPOUND_CID>  (1) 
29958

>  <PUBCHEM_CONFORMER_RMSD>  (1) 
1

>  <PUBCHEM_CONFORMER_DIVERSEORDER>  (1) 
1
43
47
69
61
45
67
72
13
42
31
65
44
52
59
46
50
41
63
6
10
68
25
55
73
53
48
11
32
75
49
22
62
20
26
58
38
36
28
70
54
18
39
21
66
34
33
3
29
24
56
60
17
15
9
4
27
7
37
14
71
19
57
74
30
64
40
12
23
8
5
16
2
51
35

>  <PUBCHEM_MMFF94_PARTIAL_CHARGES>  (1) 
21
1 -0.29
10 0.6
11 0.6
12 0.6
13 0.57
14 0.57
15 0.57
16 0.06
17 0.06
18 0.06
19 0.29
2 -0.29
20 0.29
21 0.29
3 -0.29
4 -0.57
5 -0.57
6 -0.57
7 -0.66
8 -0.66
9 -0.66

>  <PUBCHEM_EFFECTIVE_ROTOR_COUNT>  (1) 
10.2

>  <PUBCHEM_PHARMACOPHORE_FEATURES>  (1) 
4
1 4 acceptor
1 5 acceptor
1 6 acceptor
6 7 8 9 10 11 12 rings

>  <PUBCHEM_HEAVY_ATOM_COUNT>  (1) 
21

>  <PUBCHEM_ATOM_DEF_STEREO_COUNT>  (1) 
0

>  <PUBCHEM_ATOM_UDEF_STEREO_COUNT>  (1) 
0

>  <PUBCHEM_BOND_DEF_STEREO_COUNT>  (1) 
0

>  <PUBCHEM_BOND_UDEF_STEREO_COUNT>  (1) 
0

>  <PUBCHEM_ISOTOPIC_ATOM_COUNT>  (1) 
0

>  <PUBCHEM_COMPONENT_COUNT>  (1) 
1

>  <PUBCHEM_CACTVS_TAUTO_COUNT>  (1) 
1

>  <PUBCHEM_CONFORMER_ID>  (1) 
0000750600000001

>  <PUBCHEM_MMFF94_ENERGY>  (1) 
41.6509

>  <PUBCHEM_FEATURE_SELFOVERLAP>  (1) 
20.297

>  <PUBCHEM_SHAPE_FINGERPRINT>  (1) 
11036077 51 17330549259995675296
12553582 1 18339081484430387671
12788726 201 18046081375519230690
12930653 34 17977957009752152547
13140716 1 18338239374735229335
13257819 101 14260780621415965227
13540713 5 18058161903474285423
13899415 154 18337408062060690302
14178342 30 17829338226412406807
14466204 15 18121225269142926769
14787075 74 18113059329063858586
14790565 3 17976826707035041372
14866123 147 17329422261078085616
15042514 8 17904765479427595094
15420108 30 18058447780206580719
15475509 35 17312828173741049315
15927050 60 17980203307712640990
17980427 23 17774712109174429471
17980427 26 18197493132835652300
20510252 161 17619900669692629542
20642791 268 18059301955065986555
20642791 35 18270975647342089492
20739085 24 18189336947033611796
21041028 32 18337390426813852398
212916 134 17769367567392740657
21304253 13 18340770321484318529
21524375 3 17480592976192720381
2297311 6 18194691371672614742
23419403 2 18114723976281750325
23557571 272 18123760746914442382
3091708 16 8998143114381470477
43471831 8 17905044012267383575
5104073 3 17905032661339448362
5385378 56 18267029530006200993
57672749 33 18411418414387119410
58807428 26 17905887337786192232
67856867 119 18341896320887584779
69474 34 18410855421821849659
79837 15 17545321242514731816
9981440 41 17978232987159909193

>  <PUBCHEM_SHAPE_MULTIPOLES>  (1) 
405.23
10.22
5.87
1.02
9.98
6.92
-0.02
-4.09
-6.2
-10
-1.32
0.14
-0.04
-0.34

>  <PUBCHEM_SHAPE_SELFOVERLAP>  (1) 
771.945

>  <PUBCHEM_SHAPE_VOLUME>  (1) 
250.8

>  <PUBCHEM_COORDINATE_TYPE>  (1) 
2
5
10

$$$$
