29951
     RDKit          3D

 20 21  0  0  0  0  0  0  0  0999 V2000
    4.8201   -2.6327    0.6868 Cl  0  0  0  0  0  0  0  0  0  0  0  0
    0.4351    0.8379   -1.1107 O   0  0  0  0  0  0  0  0  0  0  0  0
    3.4964    2.3852    1.0945 O   0  0  0  0  0  0  0  0  0  0  0  0
    1.5965    2.6876    0.0283 O   0  0  0  0  0  0  0  0  0  0  0  0
   -4.8933   -0.7586    1.7849 O   0  0  0  0  0  0  0  0  0  0  0  0
   -5.6420   -0.4562   -0.2611 O   0  0  0  0  0  0  0  0  0  0  0  0
    2.5357    1.9537    0.4154 N   0  0  0  0  0  0  0  0  0  0  0  0
   -4.7105   -0.4672    0.5787 N   0  0  0  0  0  0  0  0  0  0  0  0
    1.4781    0.0358   -0.6787 C   0  0  0  0  0  0  0  0  0  0  0  0
   -0.8219    0.5176   -0.6981 C   0  0  0  0  0  0  0  0  0  0  0  0
    2.5105    0.5747    0.0689 C   0  0  0  0  0  0  0  0  0  0  0  0
    1.4529   -1.3068   -1.0162 C   0  0  0  0  0  0  0  0  0  0  0  0
   -1.0551    0.1875    0.6369 C   0  0  0  0  0  0  0  0  0  0  0  0
   -1.8771    0.5208   -1.6104 C   0  0  0  0  0  0  0  0  0  0  0  0
    3.5498   -0.2537    0.4924 C   0  0  0  0  0  0  0  0  0  0  0  0
   -3.3987   -0.1362    0.1476 C   0  0  0  0  0  0  0  0  0  0  0  0
   -2.3435   -0.1394    1.0597 C   0  0  0  0  0  0  0  0  0  0  0  0
   -3.1655    0.1939   -1.1875 C   0  0  0  0  0  0  0  0  0  0  0  0
    2.4921   -2.1353   -0.5929 C   0  0  0  0  0  0  0  0  0  0  0  0
    3.5406   -1.6087    0.1615 C   0  0  0  0  0  0  0  0  0  0  0  0
  1 20  1  0
  2  9  1  0
  2 10  1  0
  3  7  1  0
  4  7  2  0
  5  8  1  0
  6  8  2  0
  7 11  1  0
  8 16  1  0
  9 11  2  0
  9 12  1  0
 10 13  2  0
 10 14  1  0
 11 15  1  0
 12 19  2  0
 13 17  1  0
 14 18  2  0
 15 20  2  0
 16 17  2  0
 16 18  1  0
 19 20  1  0
M  CHG  4   3  -1   5  -1   7   1   8   1
M  END
>  <PUBCHEM_COMPOUND_CID>  (1) 
29951

>  <PUBCHEM_CONFORMER_RMSD>  (1) 
0.6

>  <PUBCHEM_CONFORMER_DIVERSEORDER>  (1) 
1
2
3
5
4

>  <PUBCHEM_MMFF94_PARTIAL_CHARGES>  (1) 
27
1 -0.18
10 0.08
11 0.13
12 -0.15
13 -0.15
14 -0.15
15 -0.15
16 0.13
17 -0.15
18 -0.15
19 -0.15
2 -0.17
20 0.18
21 0.15
22 0.15
23 0.15
24 0.15
25 0.15
26 0.15
27 0.15
3 -0.52
4 -0.52
5 -0.52
6 -0.52
7 0.91
8 0.91
9 0.08

>  <PUBCHEM_EFFECTIVE_ROTOR_COUNT>  (1) 
4

>  <PUBCHEM_PHARMACOPHORE_FEATURES>  (1) 
9
1 2 acceptor
1 3 acceptor
1 3 anion
1 4 acceptor
1 5 acceptor
1 5 anion
1 6 acceptor
6 10 13 14 16 17 18 rings
6 9 11 12 15 19 20 rings

>  <PUBCHEM_HEAVY_ATOM_COUNT>  (1) 
20

>  <PUBCHEM_ATOM_DEF_STEREO_COUNT>  (1) 
0

>  <PUBCHEM_ATOM_UDEF_STEREO_COUNT>  (1) 
0

>  <PUBCHEM_BOND_DEF_STEREO_COUNT>  (1) 
0

>  <PUBCHEM_BOND_UDEF_STEREO_COUNT>  (1) 
0

>  <PUBCHEM_ISOTOPIC_ATOM_COUNT>  (1) 
0

>  <PUBCHEM_COMPONENT_COUNT>  (1) 
1

>  <PUBCHEM_CACTVS_TAUTO_COUNT>  (1) 
1

>  <PUBCHEM_CONFORMER_ID>  (1) 
000074FF00000001

>  <PUBCHEM_MMFF94_ENERGY>  (1) 
72.7805

>  <PUBCHEM_FEATURE_SELFOVERLAP>  (1) 
45.857

>  <PUBCHEM_SHAPE_FINGERPRINT>  (1) 
10498660 4 13254807806585127603
11405975 8 18337956688815092089
11582403 64 16167979338907800964
11796584 16 17097763570341015890
12236239 1 17275386525143097508
12251169 10 18202844340074592822
12363563 72 18263086513731152118
12403259 118 17418097573031362961
12553582 1 18200873964114885302
12633257 1 18273213092721222799
12644460 14 18342738542035172768
13134695 92 18410566263417743516
13296908 3 17967249784572808133
13533116 47 18410578392347261235
13544592 145 17967814938250796515
13675066 3 18186803608482532573
13955234 65 18188499081066666576
14251764 30 18057617460524789574
14252887 29 18187085082831703617
14289901 80 18272933851728308065
14341114 328 17418373610131284799
14386348 63 17894634746708660411
16752209 62 15791726391415869125
1813 80 17844822390999922598
19050596 39 17418369199178662423
19141452 34 18260554446338464259
19862831 5 13984672442338106007
200 152 18342168930424075167
20028762 73 18131060541665598823
20645477 70 18338221722155626215
20715895 44 17199687168976152433
21041028 32 18200872864534789296
21065201 7 17168136806864047541
21344244 78 17703500026149761544
23503953 91 17775563135131821439
23557571 272 17531238453026534517
23559900 14 17240490220811089599
26918003 58 18341611482418835307
31174 14 18410009944577218524
316301 35 17967254208474260034
3286 77 18335704909869374038
3421961 26 18410008815201110938
474 4 17986391302654940889
5104073 3 18341624719908715683
6049 1 18114456777760779845
7495541 125 18334016081848196626
77492 1 17275094059339905940
8988823 20 18341330067771795655

>  <PUBCHEM_SHAPE_MULTIPOLES>  (1) 
374.15
10.05
2.24
1.3
7.54
0.76
0.02
-5.21
-3.17
-3.86
-0.45
0.92
-0.04
0.9

>  <PUBCHEM_SHAPE_SELFOVERLAP>  (1) 
805.494

>  <PUBCHEM_SHAPE_VOLUME>  (1) 
207.4

>  <PUBCHEM_COORDINATE_TYPE>  (1) 
2
5
10

$$$$
