29955
     RDKit          3D

 23 23  0  0  1  0  0  0  0  0999 V2000
   -4.8870   -1.5431    0.0406 Si  0  0  0  0  0  4  0  0  0  0  0  0
    0.0060    3.1625    1.1801 O   0  0  0  0  0  0  0  0  0  0  0  0
    2.5258    0.1198   -0.3031 O   0  0  0  0  0  0  0  0  0  0  0  0
    1.5114    0.6236    1.7036 O   0  0  0  0  0  0  0  0  0  0  0  0
    5.6363   -1.8288    0.0556 N   0  0  0  0  0  0  0  0  0  0  0  0
    0.5108    1.3599   -0.4027 C   0  0  0  0  0  0  0  0  0  0  0  0
    0.4844    2.8979   -0.1403 C   0  0  0  0  0  0  0  0  0  0  0  0
   -0.8294    0.6395   -0.2930 C   0  0  0  0  0  0  0  0  0  0  0  0
   -3.2496   -0.6633   -0.0939 C   0  0  0  0  0  0  0  0  0  0  0  0
    1.8823    3.5201   -0.2763 C   0  0  0  0  0  0  0  0  0  0  0  0
   -0.4665    3.6051   -1.1199 C   0  0  0  0  0  0  0  0  0  0  0  0
   -1.4879    0.6444    0.9177 C   0  0  0  0  0  0  0  0  0  0  0  0
   -1.3361    0.0073   -1.4078 C   0  0  0  0  0  0  0  0  0  0  0  0
   -2.7129   -0.0150    1.0184 C   0  0  0  0  0  0  0  0  0  0  0  0
   -2.5611   -0.6521   -1.3071 C   0  0  0  0  0  0  0  0  0  0  0  0
   -5.6336   -1.4135    1.7719 C   0  0  0  0  0  0  0  0  0  0  0  0
   -6.1221   -0.7996   -1.1845 C   0  0  0  0  0  0  0  0  0  0  0  0
   -4.6684   -3.3771   -0.3672 C   0  0  0  0  0  0  0  0  0  0  0  0
    1.5544    0.6764    0.4811 C   0  0  0  0  0  0  0  0  0  0  0  0
    3.5624   -0.5744    0.3981 C   0  0  0  0  0  0  0  0  0  0  0  0
    4.5519   -1.1273   -0.6152 C   0  0  0  0  0  0  0  0  0  0  0  0
    6.6121   -2.3258   -0.9174 C   0  0  0  0  0  0  0  0  0  0  0  0
    5.1170   -2.9366    0.8613 C   0  0  0  0  0  0  0  0  0  0  0  0
  1  9  1  0
  1 16  1  0
  1 17  1  0
  1 18  1  0
  2  7  1  0
  3 19  1  0
  3 20  1  0
  4 19  2  0
  5 21  1  0
  5 22  1  0
  5 23  1  0
  6  7  1  0
  6  8  1  0
  6 19  1  0
  7 10  1  0
  7 11  1  0
  8 12  2  0
  8 13  1  0
  9 14  2  0
  9 15  1  0
 12 14  1  0
 13 15  2  0
 20 21  1  0
M  END
>  <PUBCHEM_COMPOUND_CID>  (1) 
29955

>  <PUBCHEM_CONFORMER_RMSD>  (1) 
0.8

>  <PUBCHEM_CONFORMER_DIVERSEORDER>  (1) 
1
193
272
180
100
178
22
279
145
250
171
102
251
192
185
198
176
144
161
209
94
76
7
262
130
208
212
249
184
175
77
55
270
203
258
202
188
113
126
115
172
211
163
220
13
90
244
20
173
107
205
165
267
239
69
152
16
108
106
135
234
99
95
66
37
238
23
50
224
240
127
228
213
215
105
19
122
269
257
227
191
154
134
81
194
241
174
125
280
10
232
153
206
229
230
210
260
245
35
268
49
195
92
53
48
46
199
146
80
214
131
221
246
82
129
47
63
237
119
217
15
248
118
276
111
104
43
170
263
79
85
190
247
62
160
162
168
159
70
226
273
65
222
218
166
256
167
96
147
274
182
275
8
29
89
114
25
93
74
30
187
75
67
33
200
72
271
223
109
137
103
204
231
4
5
87
34
216
264
86
124
61
26
158
140
254
138
21
236
183
38
128
252
278
151
120
97
32
18
57
41
196
116
149
181
88
36
6
58
9
123
133
266
148
101
59
54
139
24
28
177
14
225
117
27
64
169
233
17
265
155
121
84
141
156
98
243
261
3
83
112
186
91
78
39
235
52
11
56
242
179
189
40
142
68
71
277
207
132
253
150
197
31
51
201
12
259
44
42
164
60
219
136
143
2
110
73
157
45
255

>  <PUBCHEM_MMFF94_PARTIAL_CHARGES>  (1) 
26
1 0.46
12 -0.15
13 -0.15
14 -0.15
15 -0.15
16 -0.08
17 -0.08
18 -0.08
19 0.66
2 -0.68
20 0.28
21 0.27
22 0.27
23 0.27
3 -0.43
31 0.15
32 0.15
33 0.15
34 0.15
4 -0.57
44 0.4
5 -0.81
6 0.2
7 0.28
8 -0.14
9 -0.22

>  <PUBCHEM_EFFECTIVE_ROTOR_COUNT>  (1) 
8

>  <PUBCHEM_PHARMACOPHORE_FEATURES>  (1) 
6
1 2 acceptor
1 2 donor
1 4 acceptor
1 5 cation
3 7 10 11 hydrophobe
6 8 9 12 13 14 15 rings

>  <PUBCHEM_HEAVY_ATOM_COUNT>  (1) 
23

>  <PUBCHEM_ATOM_DEF_STEREO_COUNT>  (1) 
0

>  <PUBCHEM_ATOM_UDEF_STEREO_COUNT>  (1) 
1

>  <PUBCHEM_BOND_DEF_STEREO_COUNT>  (1) 
0

>  <PUBCHEM_BOND_UDEF_STEREO_COUNT>  (1) 
0

>  <PUBCHEM_ISOTOPIC_ATOM_COUNT>  (1) 
0

>  <PUBCHEM_COMPONENT_COUNT>  (1) 
1

>  <PUBCHEM_CACTVS_TAUTO_COUNT>  (1) 
1

>  <PUBCHEM_CONFORMER_ID>  (1) 
0000750300000001

>  <PUBCHEM_MMFF94_ENERGY>  (1) 
53.3779

>  <PUBCHEM_FEATURE_SELFOVERLAP>  (1) 
30.447

>  <PUBCHEM_SHAPE_FINGERPRINT>  (1) 
10622 236 17606387753941060642
10692045 39 10447662253559461668
11135609 201 8502652615041473711
11809386 21 18118960283663922930
12107183 9 18341624694212680227
12293681 160 12612752410797440758
12633257 1 15554440842453982058
12760667 363 18412543180702567167
13009979 54 18202295696551947585
13103583 49 18059305300555639523
13631057 29 18338234844088167970
13673619 4 17967256416472051727
13911852 28 18411415094393763191
13955234 65 18124316274620823209
14251764 30 18409449180715009266
14289901 80 17755855669905706105
14866123 147 18193838146338103665
17349148 13 17059502984182394167
17492 89 18194401332699706199
17980427 23 13110665177778361065
1813 80 18342468031978223868
18222031 100 18411132550133303938
19784866 240 18411703192457652367
20388580 30 18335142020409712748
20645477 70 18117829126568832079
20832881 197 18334295370818195371
22950370 63 18410298007996831382
23559900 14 18339072822013503563
2838139 119 11097854120601174018
3004659 81 18040433283293022470
314194 84 18336273443328051786
3421961 26 18339640156606437432
437815 12 18410570674127298695
4409770 3 18046341929789604629
463206 1 18260830422881901786
5104073 3 17631181960327482163
621550 5 17894629279500298877
77188 2 18412262852493219532
7970288 3 18410854352280800922

>  <PUBCHEM_SHAPE_MULTIPOLES>  (1) 
468.95
13.96
4.2
1.39
5.73
2.58
0.19
-18.97
-0.86
3.83
-0.3
-0.95
-0.03
0.22

>  <PUBCHEM_SHAPE_SELFOVERLAP>  (1) 
920.74

>  <PUBCHEM_SHAPE_VOLUME>  (1) 
286.2

>  <PUBCHEM_COORDINATE_TYPE>  (1) 
2
5
10

$$$$
