29960
     RDKit          3D

 12 12  0  0  0  0  0  0  0  0999 V2000
    1.1747    0.0002    0.9542 O   0  0  0  0  0  0  0  0  0  0  0  0
    1.7769   -0.0018   -1.2915 O   0  0  0  0  0  0  0  0  0  0  0  0
   -4.1685   -0.0003   -0.5874 N   0  0  0  0  0  0  0  0  0  0  0  0
    3.3941    0.0002    0.3719 N   0  0  0  0  0  0  0  0  0  0  0  0
   -0.1326    0.0003    0.5760 C   0  0  0  0  0  0  0  0  0  0  0  0
   -2.8134    0.0001   -0.1961 C   0  0  0  0  0  0  0  0  0  0  0  0
   -0.8029    1.2082    0.3823 C   0  0  0  0  0  0  0  0  0  0  0  0
   -0.8029   -1.2079    0.3835 C   0  0  0  0  0  0  0  0  0  0  0  0
   -2.1433    1.2082   -0.0037 C   0  0  0  0  0  0  0  0  0  0  0  0
   -2.1433   -1.2079   -0.0026 C   0  0  0  0  0  0  0  0  0  0  0  0
    2.1003    0.0003   -0.1074 C   0  0  0  0  0  0  0  0  0  0  0  0
    4.5610    0.0003   -0.4792 C   0  0  0  0  0  0  0  0  0  0  0  0
  1  5  1  0
  1 11  1  0
  2 11  2  0
  3  6  1  0
  4 11  1  0
  4 12  1  0
  5  7  2  0
  5  8  1  0
  6  9  2  0
  6 10  1  0
  7  9  1  0
  8 10  2  0
M  END
>  <PUBCHEM_COMPOUND_CID>  (1) 
29960

>  <PUBCHEM_CONFORMER_RMSD>  (1) 
0.6

>  <PUBCHEM_CONFORMER_DIVERSEORDER>  (1) 
1
11
5
3
8
7
6
10
4
9
2

>  <PUBCHEM_MMFF94_PARTIAL_CHARGES>  (1) 
19
1 -0.23
10 -0.15
11 0.78
12 0.3
13 0.15
14 0.15
15 0.15
16 0.15
17 0.4
18 0.4
19 0.37
2 -0.57
3 -0.9
4 -0.73
5 0.08
6 0.1
7 -0.15
8 -0.15
9 -0.15

>  <PUBCHEM_EFFECTIVE_ROTOR_COUNT>  (1) 
3

>  <PUBCHEM_PHARMACOPHORE_FEATURES>  (1) 
5
1 2 acceptor
1 3 cation
1 3 donor
1 4 donor
6 5 6 7 8 9 10 rings

>  <PUBCHEM_HEAVY_ATOM_COUNT>  (1) 
12

>  <PUBCHEM_ATOM_DEF_STEREO_COUNT>  (1) 
0

>  <PUBCHEM_ATOM_UDEF_STEREO_COUNT>  (1) 
0

>  <PUBCHEM_BOND_DEF_STEREO_COUNT>  (1) 
0

>  <PUBCHEM_BOND_UDEF_STEREO_COUNT>  (1) 
0

>  <PUBCHEM_ISOTOPIC_ATOM_COUNT>  (1) 
0

>  <PUBCHEM_COMPONENT_COUNT>  (1) 
1

>  <PUBCHEM_CACTVS_TAUTO_COUNT>  (1) 
2

>  <PUBCHEM_CONFORMER_ID>  (1) 
0000750800000001

>  <PUBCHEM_MMFF94_ENERGY>  (1) 
39.6695

>  <PUBCHEM_FEATURE_SELFOVERLAP>  (1) 
25.371

>  <PUBCHEM_SHAPE_FINGERPRINT>  (1) 
11031198 65 14707206595915416474
11062470 55 18343301478834601838
12119455 92 13840258204363643587
13024252 1 17676210182308999483
14911166 2 18411128152561410053
14993402 34 17967249797357496101
15775835 57 17530683199390444796
16945 1 18410569591953756529
20201158 50 17847064380433102502
20279233 1 17775571944135859414
20645476 183 17749104517501919835
20653085 51 16298673883579901365
21061003 4 16702025300529269922
21119208 17 17967812747347847158
21293036 1 18409726266371793261
23402539 116 18342449322778941933
23559900 14 18412542137673906104
2748010 2 18049708918061318059
57812782 119 18201719552927984110

>  <PUBCHEM_SHAPE_MULTIPOLES>  (1) 
225.25
6.87
1.12
0.87
4.86
0
-0.07
0
-1.69
-0.77
0.09
0.23
0
0

>  <PUBCHEM_SHAPE_SELFOVERLAP>  (1) 
463.577

>  <PUBCHEM_SHAPE_VOLUME>  (1) 
127.7

>  <PUBCHEM_COORDINATE_TYPE>  (1) 
2
5
10

$$$$
