29962
     RDKit          3D

 14 15  0  0  1  0  0  0  0  0999 V2000
   -0.4675   -0.8584    1.8612 O   0  0  0  0  0  0  0  0  0  0  0  0
   -2.6735   -0.5483    0.0346 N   0  0  0  0  0  0  0  0  0  0  0  0
    3.2969    2.3949    0.2189 N   0  0  0  0  0  0  0  0  0  0  0  0
   -3.6416    0.2794   -0.6686 C   0  0  0  0  0  0  0  0  0  0  0  0
   -5.1170    0.0580   -0.4686 C   0  0  0  0  0  0  0  0  0  0  0  0
   -4.4642    1.2912    0.0836 C   0  0  0  0  0  0  0  0  0  0  0  0
   -1.3087   -0.1540   -0.3072 C   0  0  0  0  0  0  0  0  0  0  0  0
   -0.2671   -1.0029    0.4487 C   0  0  0  0  0  0  0  0  0  0  0  0
    1.1317   -0.6102    0.1133 C   0  0  0  0  0  0  0  0  0  0  0  0
    1.5578    0.7015    0.3228 C   0  0  0  0  0  0  0  0  0  0  0  0
    2.0145   -1.5549   -0.4099 C   0  0  0  0  0  0  0  0  0  0  0  0
    2.8664    1.0682    0.0092 C   0  0  0  0  0  0  0  0  0  0  0  0
    3.3231   -1.1881   -0.7238 C   0  0  0  0  0  0  0  0  0  0  0  0
    3.7491    0.1235   -0.5142 C   0  0  0  0  0  0  0  0  0  0  0  0
  1  8  1  0
  2  4  1  0
  2  7  1  0
  3 12  1  0
  4  5  1  0
  4  6  1  0
  5  6  1  0
  7  8  1  0
  8  9  1  0
  9 10  2  0
  9 11  1  0
 10 12  1  0
 11 13  2  0
 12 14  2  0
 13 14  1  0
M  END
>  <PUBCHEM_COMPOUND_CID>  (1) 
29962

>  <PUBCHEM_CONFORMER_RMSD>  (1) 
0.6

>  <PUBCHEM_CONFORMER_DIVERSEORDER>  (1) 
1
15
57
37
21
29
66
47
18
39
28
6
55
67
46
64
14
16
62
22
7
25
38
52
17
40
27
59
2
19
31
61
9
65
44
20
26
58
60
32
54
43
13
42
24
35
45
30
36
41
12
56
5
51
34
33
68
53
63
48
8
50
11
3
49
4
23
10

>  <PUBCHEM_MMFF94_PARTIAL_CHARGES>  (1) 
27
1 -0.68
10 -0.15
11 -0.15
12 0.1
13 -0.15
14 -0.15
15 0.1
16 0.1
17 0.1
18 0.1
19 0.1
2 -0.79
20 0.36
24 0.15
25 0.15
26 0.4
27 0.15
28 0.15
29 0.4
3 -0.9
30 0.4
4 0.06
5 -0.2
6 -0.2
7 0.27
8 0.42
9 -0.14

>  <PUBCHEM_EFFECTIVE_ROTOR_COUNT>  (1) 
4.6

>  <PUBCHEM_PHARMACOPHORE_FEATURES>  (1) 
7
1 1 acceptor
1 1 donor
1 2 cation
1 2 donor
1 3 cation
1 3 donor
6 9 10 11 12 13 14 rings

>  <PUBCHEM_HEAVY_ATOM_COUNT>  (1) 
14

>  <PUBCHEM_ATOM_DEF_STEREO_COUNT>  (1) 
0

>  <PUBCHEM_ATOM_UDEF_STEREO_COUNT>  (1) 
1

>  <PUBCHEM_BOND_DEF_STEREO_COUNT>  (1) 
0

>  <PUBCHEM_BOND_UDEF_STEREO_COUNT>  (1) 
0

>  <PUBCHEM_ISOTOPIC_ATOM_COUNT>  (1) 
0

>  <PUBCHEM_COMPONENT_COUNT>  (1) 
1

>  <PUBCHEM_CACTVS_TAUTO_COUNT>  (1) 
1

>  <PUBCHEM_CONFORMER_ID>  (1) 
0000750A00000001

>  <PUBCHEM_MMFF94_ENERGY>  (1) 
41.3133

>  <PUBCHEM_FEATURE_SELFOVERLAP>  (1) 
35.524

>  <PUBCHEM_SHAPE_FINGERPRINT>  (1) 
10498660 4 17969209063303082573
10608611 8 18336828696620586904
10751810 167 16343704326988387139
11287383 113 18412265064669726747
11471102 20 18413109446502265494
11543360 7 18202277039725423983
11715629 250 18260256435230839869
122479 349 18041562567058724072
12616999 72 16559034899847754085
12730499 353 18335148591657057979
13081056 2 18408040702288338925
14115302 16 16988839484182421678
14252887 29 10735875084031024286
14415576 193 18342177769160730837
17834072 33 18343577461070465271
18186145 218 18113897143759136671
200 152 17632297847858104290
20432913 95 9295286157942866853
20606313 2 18413107264621994796
20645477 70 18201723916235507870
21119208 17 17989487402965506079
212847 35 17967532346387260580
22485316 2 8358254843934479141
22892500 29 18410013243317622516
231179 274 17967523554547124645
23402539 116 18114174259312542862
23402655 69 18272371970688987076
23557571 272 17970082220968143499
25 1 18335421253144436750
276578 36 16443061686225855754
3060560 45 18202285775673320686
4028521 119 18260543390802273405
4047638 21 18334012795981632042
4072396 5 18411689981924148994
474 4 18187365488340653637
4990 188 18410295778887835855
522135 26 18343582910693029599
5281201 14 18342741771613300389
633830 44 18334009489052058151
77779 3 18342738512075929407
94968 8 10663828494100429988

>  <PUBCHEM_SHAPE_MULTIPOLES>  (1) 
272.28
9.37
1.63
0.94
10.35
0.67
-0.31
2.71
2.27
-1.62
-0.06
0.08
-0.21
0.37

>  <PUBCHEM_SHAPE_SELFOVERLAP>  (1) 
557.756

>  <PUBCHEM_SHAPE_VOLUME>  (1) 
158.1

>  <PUBCHEM_COORDINATE_TYPE>  (1) 
2
5
10

$$$$
