29964
     RDKit          3D

 20 21  0  0  0  0  0  0  0  0999 V2000
    1.5990    2.1550   -0.3184 O   0  0  0  0  0  0  0  0  0  0  0  0
    1.5989   -2.1551    0.3185 O   0  0  0  0  0  0  0  0  0  0  0  0
    3.4571    2.7806    0.9035 O   0  0  0  0  0  0  0  0  0  0  0  0
    3.4570   -2.7805   -0.9036 O   0  0  0  0  0  0  0  0  0  0  0  0
   -1.2181    1.2079    0.6861 N   0  0  0  0  0  0  0  0  0  0  0  0
   -1.2181   -1.2079   -0.6860 N   0  0  0  0  0  0  0  0  0  0  0  0
   -0.0721    0.5954    0.3382 C   0  0  0  0  0  0  0  0  0  0  0  0
   -0.0721   -0.5954   -0.3382 C   0  0  0  0  0  0  0  0  0  0  0  0
   -2.3747    0.6117    0.3475 C   0  0  0  0  0  0  0  0  0  0  0  0
   -2.3747   -0.6116   -0.3474 C   0  0  0  0  0  0  0  0  0  0  0  0
    1.1957    1.2760    0.7250 C   0  0  0  0  0  0  0  0  0  0  0  0
    1.1955   -1.2760   -0.7250 C   0  0  0  0  0  0  0  0  0  0  0  0
   -3.5918    1.2007    0.6821 C   0  0  0  0  0  0  0  0  0  0  0  0
   -3.5917   -1.2007   -0.6822 C   0  0  0  0  0  0  0  0  0  0  0  0
   -4.8042    0.6029    0.3425 C   0  0  0  0  0  0  0  0  0  0  0  0
   -4.8041   -0.6029   -0.3426 C   0  0  0  0  0  0  0  0  0  0  0  0
    2.7551    2.8498   -0.0963 C   0  0  0  0  0  0  0  0  0  0  0  0
    2.7551   -2.8499    0.0963 C   0  0  0  0  0  0  0  0  0  0  0  0
    3.0542    3.7293   -1.2724 C   0  0  0  0  0  0  0  0  0  0  0  0
    3.0542   -3.7294    1.2723 C   0  0  0  0  0  0  0  0  0  0  0  0
  1 11  1  0
  1 17  1  0
  2 12  1  0
  2 18  1  0
  3 17  2  0
  4 18  2  0
  5  7  2  0
  5  9  1  0
  6  8  2  0
  6 10  1  0
  7  8  1  0
  7 11  1  0
  8 12  1  0
  9 10  2  0
  9 13  1  0
 10 14  1  0
 13 15  2  0
 14 16  2  0
 15 16  1  0
 17 19  1  0
 18 20  1  0
M  END
>  <PUBCHEM_COMPOUND_CID>  (1) 
29964

>  <PUBCHEM_CONFORMER_RMSD>  (1) 
0.8

>  <PUBCHEM_CONFORMER_DIVERSEORDER>  (1) 
2
29
35
5
14
36
6
23
3
13
1
24
18
30
31
12
28
26
27
38
16
4
37
41
39
21
22
10
17
9
11
15
19
7
32
20
33
25
40
34
8

>  <PUBCHEM_MMFF94_PARTIAL_CHARGES>  (1) 
24
1 -0.43
10 0.31
11 0.42
12 0.42
13 -0.15
14 -0.15
15 -0.15
16 -0.15
17 0.66
18 0.66
19 0.06
2 -0.43
20 0.06
25 0.15
26 0.15
27 0.15
28 0.15
3 -0.57
4 -0.57
5 -0.62
6 -0.62
7 0.17
8 0.17
9 0.31

>  <PUBCHEM_EFFECTIVE_ROTOR_COUNT>  (1) 
6

>  <PUBCHEM_PHARMACOPHORE_FEATURES>  (1) 
6
1 3 acceptor
1 4 acceptor
1 5 acceptor
1 6 acceptor
6 5 6 7 8 9 10 rings
6 9 10 13 14 15 16 rings

>  <PUBCHEM_HEAVY_ATOM_COUNT>  (1) 
20

>  <PUBCHEM_ATOM_DEF_STEREO_COUNT>  (1) 
0

>  <PUBCHEM_ATOM_UDEF_STEREO_COUNT>  (1) 
0

>  <PUBCHEM_BOND_DEF_STEREO_COUNT>  (1) 
0

>  <PUBCHEM_BOND_UDEF_STEREO_COUNT>  (1) 
0

>  <PUBCHEM_ISOTOPIC_ATOM_COUNT>  (1) 
0

>  <PUBCHEM_COMPONENT_COUNT>  (1) 
1

>  <PUBCHEM_CACTVS_TAUTO_COUNT>  (1) 
1

>  <PUBCHEM_CONFORMER_ID>  (1) 
0000750C00000002

>  <PUBCHEM_MMFF94_ENERGY>  (1) 
45.0555

>  <PUBCHEM_FEATURE_SELFOVERLAP>  (1) 
30.489

>  <PUBCHEM_SHAPE_FINGERPRINT>  (1) 
107951 10 17978528742823881268
11045515 52 17972886852198138462
11578080 2 17823124632236383116
12173636 292 17762898066654890116
12553582 1 18122903135949427391
12592029 89 18338800129685900224
12644460 14 18411430500683579697
12788726 201 17541392236956577586
13540713 5 18202563978253715943
13955234 65 18409735083760330465
15475509 35 17678483916853417547
1813 80 18196653995226662094
18785283 64 18261113014902568944
20600515 1 17626947469864336664
20645476 183 17686902026598703020
20671657 1 18413394232640240021
21501502 16 18273496776043703265
21524375 3 18127695043856655820
2255824 54 18411139121248955686
23366157 5 18334576845325342374
23419403 2 18043231466927904068
23559900 14 18271239435253130107
23566358 27 18410860983804511151
25147074 1 18060138739549745283
3071541 37 18339926021039796117
3091708 16 9432730587466513994
312423 11 18201721760842186015
3759504 43 17831019387817097740
394222 165 18341897445372529074
43471831 8 18267861877002415146
4409770 3 17036688855891740028
458136 41 18265624345281369657
474 4 18263644124718445212
5104073 3 18343312449083221763
59554788 191 18127121984130085429
6138700 20 18412834586450417660
67856867 119 18342168981989880875
7364860 26 18342458144847255554
81228 2 17480598048132638226
81539 233 18263921201579969101
90316 7 17762336912134643146
9841814 1 18335136432472813314
9981440 41 18121214543749596569

>  <PUBCHEM_SHAPE_MULTIPOLES>  (1) 
378.15
8.35
4.52
1.02
6.84
0
0
0
0
-9.44
0
-0.47
0
-1.33

>  <PUBCHEM_SHAPE_SELFOVERLAP>  (1) 
803.2

>  <PUBCHEM_SHAPE_VOLUME>  (1) 
210.4

>  <PUBCHEM_COORDINATE_TYPE>  (1) 
2
5
10

$$$$
