29984
     RDKit          3D

 22 24  0  0  1  0  0  0  0  0999 V2000
    3.2703    0.1389   -2.8240 Cl  0  0  0  0  0  0  0  0  0  0  0  0
   -0.5633   -0.0530    0.1402 O   0  0  0  0  0  0  0  0  0  0  0  0
    0.8354   -0.4738    1.9000 O   0  0  0  0  0  0  0  0  0  0  0  0
   -3.3335   -0.5946   -0.2891 N   0  0  0  0  0  0  0  0  0  0  0  0
    1.6354   -0.1627   -0.2780 N   0  0  0  0  0  0  0  0  0  0  0  0
   -2.8717    0.6956    0.2010 C   0  0  0  0  0  0  0  0  0  0  0  0
   -1.5566    0.5352    0.9808 C   0  0  0  0  0  0  0  0  0  0  0  0
   -2.7197    1.6868   -0.9615 C   0  0  0  0  0  0  0  0  0  0  0  0
   -1.0502    1.8949    1.4719 C   0  0  0  0  0  0  0  0  0  0  0  0
   -2.2057    3.0388   -0.4677 C   0  0  0  0  0  0  0  0  0  0  0  0
   -4.6292   -0.5052   -0.9616 C   0  0  0  0  0  0  0  0  0  0  0  0
   -3.5314   -1.5632    0.7890 C   0  0  0  0  0  0  0  0  0  0  0  0
   -0.9104    2.9010    0.3280 C   0  0  0  0  0  0  0  0  0  0  0  0
   -5.0777   -1.9575   -1.0308 C   0  0  0  0  0  0  0  0  0  0  0  0
   -4.3590   -2.6521    0.1219 C   0  0  0  0  0  0  0  0  0  0  0  0
    0.6705   -0.2530    0.7064 C   0  0  0  0  0  0  0  0  0  0  0  0
    3.0353   -0.3025   -0.1400 C   0  0  0  0  0  0  0  0  0  0  0  0
    3.8745   -0.1835   -1.2379 C   0  0  0  0  0  0  0  0  0  0  0  0
    3.5425   -0.5631    1.1250 C   0  0  0  0  0  0  0  0  0  0  0  0
    5.2514   -0.3283   -1.0676 C   0  0  0  0  0  0  0  0  0  0  0  0
    4.9194   -0.7080    1.2951 C   0  0  0  0  0  0  0  0  0  0  0  0
    5.7738   -0.5906    0.1989 C   0  0  0  0  0  0  0  0  0  0  0  0
  1 18  1  0
  2  7  1  0
  2 16  1  0
  3 16  2  0
  4  6  1  0
  4 11  1  0
  4 12  1  0
  5 16  1  0
  5 17  1  0
  6  7  1  0
  6  8  1  0
  7  9  1  0
  8 10  1  0
  9 13  1  0
 10 13  1  0
 11 14  1  0
 12 15  1  0
 14 15  1  0
 17 18  2  0
 17 19  1  0
 18 20  1  0
 19 21  2  0
 20 22  2  0
 21 22  1  0
M  END
>  <PUBCHEM_COMPOUND_CID>  (1) 
29984

>  <PUBCHEM_CONFORMER_RMSD>  (1) 
0.8

>  <PUBCHEM_CONFORMER_DIVERSEORDER>  (1) 
1
73
26
46
35
23
16
78
24
65
41
29
34
36
8
40
43
71
66
32
14
50
11
80
68
63
56
49
70
74
6
61
19
27
44
33
22
9
67
69
48
39
28
52
72
76
75
79
17
37
45
30
77
4
62
20
58
55
60
47
25
38
15
18
54
64
51
12
42
3
13
10
21
7
2
31
59
57
5
53

>  <PUBCHEM_MMFF94_PARTIAL_CHARGES>  (1) 
21
1 -0.18
11 0.27
12 0.27
16 0.78
17 0.12
18 0.18
19 -0.15
2 -0.43
20 -0.15
21 -0.15
22 -0.15
3 -0.57
4 -0.81
41 0.37
42 0.15
43 0.15
44 0.15
45 0.15
5 -0.55
6 0.27
7 0.28

>  <PUBCHEM_EFFECTIVE_ROTOR_COUNT>  (1) 
7.2

>  <PUBCHEM_PHARMACOPHORE_FEATURES>  (1) 
6
1 3 acceptor
1 4 cation
1 5 donor
5 4 11 12 14 15 rings
6 17 18 19 20 21 22 rings
6 6 7 8 9 10 13 rings

>  <PUBCHEM_HEAVY_ATOM_COUNT>  (1) 
22

>  <PUBCHEM_ATOM_DEF_STEREO_COUNT>  (1) 
0

>  <PUBCHEM_ATOM_UDEF_STEREO_COUNT>  (1) 
2

>  <PUBCHEM_BOND_DEF_STEREO_COUNT>  (1) 
0

>  <PUBCHEM_BOND_UDEF_STEREO_COUNT>  (1) 
0

>  <PUBCHEM_ISOTOPIC_ATOM_COUNT>  (1) 
0

>  <PUBCHEM_COMPONENT_COUNT>  (1) 
1

>  <PUBCHEM_CACTVS_TAUTO_COUNT>  (1) 
2

>  <PUBCHEM_CONFORMER_ID>  (1) 
0000752000000001

>  <PUBCHEM_MMFF94_ENERGY>  (1) 
48.3533

>  <PUBCHEM_FEATURE_SELFOVERLAP>  (1) 
30.446

>  <PUBCHEM_SHAPE_FINGERPRINT>  (1) 
10764073 3 14688681946959548665
11045515 52 17967531289841708589
11089746 13 14634864284522164038
11370993 144 15769232547906226483
12166972 35 17821728347412074636
12236239 1 17821726117706752306
12553582 1 18335693975684699931
12616971 3 17677061161011292780
12788726 201 18261382301094422929
13544653 18 17274824674928021027
13583140 156 17987784204178701142
13782708 43 17703519783922956854
14251757 5 18042691778423217587
14910302 57 18128829550788068575
15003188 100 14851606630317220663
17349148 13 17894636937537477490
1813 80 17988089992701530573
18785283 64 16772653598550387576
192875 21 17749112192560803668
200 152 17821728338220597203
20300324 65 18261394425127936884
20567600 254 8574444110433743627
20871999 31 18337101294585776933
21033648 144 15936705851407833406
21033650 10 18120118112330873988
21065201 7 18200314295642740354
21623969 137 16272209700010260878
21728266 224 18335408037640785226
23402539 116 18335419053978548570
235170 7 17917717847068205932
23557571 272 18131073684127561628
23559900 14 18336815493996965201
266924 1 17822842070643378819
2838139 119 14273721980501735055
314173 85 18060143158696748131
3268164 11 18411418371585425468
329604 57 18336265738071988862
3388396 114 17533238554835402196
4015057 19 15791740719284565244
4280585 95 18337096973437071153
4921388 177 18059020453866103225
495365 180 13262666067659884856
5104073 3 15913055240684228082
5326457 24 17969490529420930602
5352402 22 16343712044464609926
7471813 234 18113899390254074612
7495541 125 17988920102700694664

>  <PUBCHEM_SHAPE_MULTIPOLES>  (1) 
432.92
12.43
2.52
1.77
7.79
1.49
-0.71
-7.56
-2.84
-4.61
0.06
1.7
0.01
-0.51

>  <PUBCHEM_SHAPE_SELFOVERLAP>  (1) 
901.195

>  <PUBCHEM_SHAPE_VOLUME>  (1) 
246.4

>  <PUBCHEM_COORDINATE_TYPE>  (1) 
2
5
10

$$$$
