29986
     RDKit          3D

 23 24  0  0  1  0  0  0  0  0999 V2000
    2.9140   -2.4684    0.1282 Cl  0  0  0  0  0  0  0  0  0  0  0  0
    2.6809    2.9746    0.5108 Cl  0  0  0  0  0  0  0  0  0  0  0  0
   -0.6732    0.1293   -0.0020 O   0  0  0  0  0  0  0  0  0  0  0  0
    0.7606    0.3159   -1.7739 O   0  0  0  0  0  0  0  0  0  0  0  0
   -3.4253    0.8300    0.3324 N   0  0  0  0  0  0  0  0  0  0  0  0
    1.5236    0.1913    0.4357 N   0  0  0  0  0  0  0  0  0  0  0  0
   -3.0100   -0.5278   -0.0227 C   0  0  0  0  0  0  0  0  0  0  0  0
   -1.6810   -0.4991   -0.7949 C   0  0  0  0  0  0  0  0  0  0  0  0
   -2.9119   -1.4036    1.2344 C   0  0  0  0  0  0  0  0  0  0  0  0
   -1.2264   -1.9204   -1.1414 C   0  0  0  0  0  0  0  0  0  0  0  0
   -2.4494   -2.8177    0.8848 C   0  0  0  0  0  0  0  0  0  0  0  0
   -1.1410   -2.8122    0.0986 C   0  0  0  0  0  0  0  0  0  0  0  0
   -3.4615    1.6798   -0.8571 C   0  0  0  0  0  0  0  0  0  0  0  0
   -4.7326    0.8092    0.9866 C   0  0  0  0  0  0  0  0  0  0  0  0
   -4.4138    1.1222   -1.9013 C   0  0  0  0  0  0  0  0  0  0  0  0
   -5.1651    2.2075    1.3939 C   0  0  0  0  0  0  0  0  0  0  0  0
    0.5739    0.2219   -0.5669 C   0  0  0  0  0  0  0  0  0  0  0  0
    2.9293    0.2600    0.3054 C   0  0  0  0  0  0  0  0  0  0  0  0
    3.6624   -0.9104    0.1571 C   0  0  0  0  0  0  0  0  0  0  0  0
    3.5593    1.4975    0.3255 C   0  0  0  0  0  0  0  0  0  0  0  0
    5.0495   -0.8418    0.0265 C   0  0  0  0  0  0  0  0  0  0  0  0
    4.9463    1.5660    0.1950 C   0  0  0  0  0  0  0  0  0  0  0  0
    5.6915    0.3963    0.0454 C   0  0  0  0  0  0  0  0  0  0  0  0
  1 19  1  0
  2 20  1  0
  3  8  1  0
  3 17  1  0
  4 17  2  0
  5  7  1  0
  5 13  1  0
  5 14  1  0
  6 17  1  0
  6 18  1  0
  7  8  1  0
  7  9  1  0
  8 10  1  0
  9 11  1  0
 10 12  1  0
 11 12  1  0
 13 15  1  0
 14 16  1  0
 18 19  2  0
 18 20  1  0
 19 21  1  0
 20 22  2  0
 21 23  2  0
 22 23  1  0
M  END
>  <PUBCHEM_COMPOUND_CID>  (1) 
29986

>  <PUBCHEM_CONFORMER_RMSD>  (1) 
0.8

>  <PUBCHEM_CONFORMER_DIVERSEORDER>  (1) 
1
62
76
59
85
74
8
73
29
75
37
42
20
81
77
64
87
40
30
71
22
39
72
61
17
35
34
55
27
56
82
5
46
84
58
28
12
25
83
32
79
10
89
68
31
88
78
57
67
7
19
51
50
21
18
70
47
91
33
80
52
16
53
66
41
63
60
24
54
11
14
69
86
26
3
44
13
38
9
45
4
6
65
15
49
43
36
90
23
2
48

>  <PUBCHEM_MMFF94_PARTIAL_CHARGES>  (1) 
21
1 -0.18
13 0.27
14 0.27
17 0.78
18 0.12
19 0.18
2 -0.18
20 0.18
21 -0.15
22 -0.15
23 -0.15
3 -0.43
4 -0.57
44 0.37
45 0.15
46 0.15
47 0.15
5 -0.81
6 -0.55
7 0.27
8 0.28

>  <PUBCHEM_EFFECTIVE_ROTOR_COUNT>  (1) 
8.2

>  <PUBCHEM_PHARMACOPHORE_FEATURES>  (1) 
5
1 4 acceptor
1 5 cation
1 6 donor
6 18 19 20 21 22 23 rings
6 7 8 9 10 11 12 rings

>  <PUBCHEM_HEAVY_ATOM_COUNT>  (1) 
23

>  <PUBCHEM_ATOM_DEF_STEREO_COUNT>  (1) 
0

>  <PUBCHEM_ATOM_UDEF_STEREO_COUNT>  (1) 
2

>  <PUBCHEM_BOND_DEF_STEREO_COUNT>  (1) 
0

>  <PUBCHEM_BOND_UDEF_STEREO_COUNT>  (1) 
0

>  <PUBCHEM_ISOTOPIC_ATOM_COUNT>  (1) 
0

>  <PUBCHEM_COMPONENT_COUNT>  (1) 
1

>  <PUBCHEM_CACTVS_TAUTO_COUNT>  (1) 
2

>  <PUBCHEM_CONFORMER_ID>  (1) 
0000752200000001

>  <PUBCHEM_MMFF94_ENERGY>  (1) 
73.6054

>  <PUBCHEM_FEATURE_SELFOVERLAP>  (1) 
25.371

>  <PUBCHEM_SHAPE_FINGERPRINT>  (1) 
11089746 13 17417801851642901912
11370993 144 18411421713169948564
11405975 8 18410007775792755664
11552529 35 18269271446730677915
12107183 9 18268993072894493842
12166972 35 15051440652456576562
12500047 106 18336258020184718870
12633257 1 18263064583812800786
12788726 201 17345762862812665288
128620 24 12612749112531425882
13583140 156 18339076094135004997
13675066 3 17894352163693587085
14178342 30 18042405897020609074
14341114 176 18409174315819502920
17349148 13 15985101937719439950
17844677 252 18267311005035425176
1813 80 16515407373969804934
20645477 56 18186798076184944757
20645477 70 18131631167151936174
21033648 144 18270387399562309292
21033648 29 18188191131611402557
21065198 57 18339361980391236258
21421861 104 18115863015316497074
21709351 56 18340763858017467588
23402539 116 17703786994611572209
23559900 14 18413669111148564298
23622692 88 17530687615170700215
2838139 119 17274536517410193697
4214541 1 18410292549014082106
474 4 18130228134416703395
5104073 3 18335976562936289962
543358 83 18413388714171806010
57724786 102 18343028765417653860
5924683 9 18267021833366842531
59755656 520 18341891875533058623
6287921 2 17899981835411802660
633830 44 18059016064757244951
8272917 22 18201442424553447590
9709674 26 18412262856819543302

>  <PUBCHEM_SHAPE_MULTIPOLES>  (1) 
455.37
12.15
3.09
1.28
4.43
0.73
0.33
-5.79
-1.91
-0.67
-0.68
-1.77
-0.23
0.35

>  <PUBCHEM_SHAPE_SELFOVERLAP>  (1) 
920.238

>  <PUBCHEM_SHAPE_VOLUME>  (1) 
267.7

>  <PUBCHEM_COORDINATE_TYPE>  (1) 
2
5
10

$$$$
