29992
     RDKit          3D

 23 24  0  0  1  0  0  0  0  0999 V2000
   -0.6811    0.1296   -0.0010 O   0  0  0  0  0  0  0  0  0  0  0  0
    0.7522    0.3220   -1.7728 O   0  0  0  0  0  0  0  0  0  0  0  0
   -3.4325    0.8311    0.3370 N   0  0  0  0  0  0  0  0  0  0  0  0
    1.5159    0.1882    0.4361 N   0  0  0  0  0  0  0  0  0  0  0  0
   -3.0184   -0.5257   -0.0234 C   0  0  0  0  0  0  0  0  0  0  0  0
   -1.6897   -0.4950   -0.7960 C   0  0  0  0  0  0  0  0  0  0  0  0
   -2.9205   -1.4065    1.2302 C   0  0  0  0  0  0  0  0  0  0  0  0
   -1.2363   -1.9152   -1.1481 C   0  0  0  0  0  0  0  0  0  0  0  0
   -2.4592   -2.8195    0.8749 C   0  0  0  0  0  0  0  0  0  0  0  0
   -1.1511   -2.8120    0.0883 C   0  0  0  0  0  0  0  0  0  0  0  0
   -3.4686    1.6854   -0.8491 C   0  0  0  0  0  0  0  0  0  0  0  0
   -4.7397    0.8087    0.9917 C   0  0  0  0  0  0  0  0  0  0  0  0
   -4.4216    1.1326   -1.8951 C   0  0  0  0  0  0  0  0  0  0  0  0
   -5.1709    2.2057    1.4045 C   0  0  0  0  0  0  0  0  0  0  0  0
    0.5658    0.2235   -0.5660 C   0  0  0  0  0  0  0  0  0  0  0  0
    2.9216    0.2564    0.3056 C   0  0  0  0  0  0  0  0  0  0  0  0
    3.6512   -0.9143    0.1527 C   0  0  0  0  0  0  0  0  0  0  0  0
    3.5512    1.4928    0.3330 C   0  0  0  0  0  0  0  0  0  0  0  0
    5.0385   -0.8471    0.0246 C   0  0  0  0  0  0  0  0  0  0  0  0
    4.9385    1.5600    0.2047 C   0  0  0  0  0  0  0  0  0  0  0  0
    2.9905   -2.2545    0.1211 C   0  0  0  0  0  0  0  0  0  0  0  0
    2.7821    2.7638    0.4964 C   0  0  0  0  0  0  0  0  0  0  0  0
    5.6822    0.3900    0.0505 C   0  0  0  0  0  0  0  0  0  0  0  0
  1  6  1  0
  1 15  1  0
  2 15  2  0
  3  5  1  0
  3 11  1  0
  3 12  1  0
  4 15  1  0
  4 16  1  0
  5  6  1  0
  5  7  1  0
  6  8  1  0
  7  9  1  0
  8 10  1  0
  9 10  1  0
 11 13  1  0
 12 14  1  0
 16 17  2  0
 16 18  1  0
 17 19  1  0
 17 21  1  0
 18 20  2  0
 18 22  1  0
 19 23  2  0
 20 23  1  0
M  END
>  <PUBCHEM_COMPOUND_CID>  (1) 
29992

>  <PUBCHEM_CONFORMER_RMSD>  (1) 
0.8

>  <PUBCHEM_CONFORMER_DIVERSEORDER>  (1) 
1
12
73
97
41
78
93
53
29
91
88
4
81
52
85
69
80
68
92
79
65
24
46
27
84
44
99
76
72
56
90
100
51
87
45
17
61
75
23
14
31
34
96
58
86
40
25
74
66
77
10
67
8
6
55
54
82
16
62
59
98
19
83
9
26
15
13
36
22
42
94
95
89
71
49
18
5
43
21
63
70
20
28
30
47
32
37
33
2
11
48
38
7
35
39
60
3
64
57
50

>  <PUBCHEM_MMFF94_PARTIAL_CHARGES>  (1) 
21
1 -0.43
11 0.27
12 0.27
15 0.78
16 0.12
17 -0.14
18 -0.14
19 -0.15
2 -0.57
20 -0.15
21 0.14
22 0.14
23 -0.15
3 -0.81
4 -0.55
44 0.37
45 0.15
46 0.15
5 0.27
53 0.15
6 0.28

>  <PUBCHEM_EFFECTIVE_ROTOR_COUNT>  (1) 
8.2

>  <PUBCHEM_PHARMACOPHORE_FEATURES>  (1) 
5
1 2 acceptor
1 3 cation
1 4 donor
6 16 17 18 19 20 23 rings
6 5 6 7 8 9 10 rings

>  <PUBCHEM_HEAVY_ATOM_COUNT>  (1) 
23

>  <PUBCHEM_ATOM_DEF_STEREO_COUNT>  (1) 
0

>  <PUBCHEM_ATOM_UDEF_STEREO_COUNT>  (1) 
2

>  <PUBCHEM_BOND_DEF_STEREO_COUNT>  (1) 
0

>  <PUBCHEM_BOND_UDEF_STEREO_COUNT>  (1) 
0

>  <PUBCHEM_ISOTOPIC_ATOM_COUNT>  (1) 
0

>  <PUBCHEM_COMPONENT_COUNT>  (1) 
1

>  <PUBCHEM_CACTVS_TAUTO_COUNT>  (1) 
2

>  <PUBCHEM_CONFORMER_ID>  (1) 
0000752800000001

>  <PUBCHEM_MMFF94_ENERGY>  (1) 
76.9482

>  <PUBCHEM_FEATURE_SELFOVERLAP>  (1) 
25.372

>  <PUBCHEM_SHAPE_FINGERPRINT>  (1) 
11089746 13 17418083330919880600
11370993 144 18411421708874929310
11405975 8 18410007771508285904
11552529 35 18269552921712669819
12107183 9 18196935474540525594
12166972 35 15051440652467119562
12500047 106 18408597089209900470
12633257 1 18263064583807552018
12788726 201 17346045441601284744
128620 24 12612749112520882890
13583140 156 18339357573401427677
13675066 3 17894633638670304237
14178342 30 18042404801825021642
14341114 176 18409174311524522616
17349148 13 15913325814363274870
17844677 252 18267029530058727496
1813 80 16515406278758373734
20645477 56 18187079551151112405
20645477 70 18131632270958511750
21033648 144 18270668874539013452
21033648 29 18188472606609199205
21065198 57 18339080501135395514
21065199 12 18265897032907817698
21403212 168 18263078830250612913
21421861 104 18115298970151664074
21709351 56 18340200908079896516
23402539 116 17704067370087204609
23559900 14 18341894087319935650
23622692 88 17530969090157947383
2838139 119 17202760394059283897
4214541 1 18410574023985530994
474 4 18130509609388158787
5104073 3 18336538417678286578
543358 83 18413388718482545586
57724786 102 18342465819759264820
5924683 9 18267303308359377443
59755656 520 18341891875533058623
6287921 2 17899980735910750380
633830 44 18059297544023609175
8272917 22 18202005374496312934
9709674 26 18412545431318424758

>  <PUBCHEM_SHAPE_MULTIPOLES>  (1) 
451.63
12.23
2.95
1.28
4.95
0.85
0.33
-5.87
-2
-1.06
-0.62
-1.78
-0.24
0.33

>  <PUBCHEM_SHAPE_SELFOVERLAP>  (1) 
927.103

>  <PUBCHEM_SHAPE_VOLUME>  (1) 
260.2

>  <PUBCHEM_COORDINATE_TYPE>  (1) 
2
5
10

$$$$
