29994
     RDKit          3D

 24 25  0  0  1  0  0  0  0  0999 V2000
    0.9781   -0.1225    0.0009 O   0  0  0  0  0  0  0  0  0  0  0  0
   -0.4613   -0.2991   -1.7675 O   0  0  0  0  0  0  0  0  0  0  0  0
    3.7215   -0.8576    0.3337 N   0  0  0  0  0  0  0  0  0  0  0  0
   -1.2184   -0.1535    0.4429 N   0  0  0  0  0  0  0  0  0  0  0  0
    3.3234    0.5038   -0.0273 C   0  0  0  0  0  0  0  0  0  0  0  0
    1.9927    0.4887   -0.7969 C   0  0  0  0  0  0  0  0  0  0  0  0
    3.2391    1.3870    1.2255 C   0  0  0  0  0  0  0  0  0  0  0  0
    1.5561    1.9141   -1.1497 C   0  0  0  0  0  0  0  0  0  0  0  0
    2.7945    2.8053    0.8698 C   0  0  0  0  0  0  0  0  0  0  0  0
    1.4847    2.8131    0.0860 C   0  0  0  0  0  0  0  0  0  0  0  0
    5.0302   -0.8507    0.9855 C   0  0  0  0  0  0  0  0  0  0  0  0
    3.7443   -1.7136   -0.8516 C   0  0  0  0  0  0  0  0  0  0  0  0
    5.4451   -2.2525    1.3989 C   0  0  0  0  0  0  0  0  0  0  0  0
    4.7018   -1.1738   -1.9002 C   0  0  0  0  0  0  0  0  0  0  0  0
   -0.2711   -0.2016   -0.5613 C   0  0  0  0  0  0  0  0  0  0  0  0
   -2.6252   -0.2044    0.3155 C   0  0  0  0  0  0  0  0  0  0  0  0
   -3.3402    0.9752    0.1630 C   0  0  0  0  0  0  0  0  0  0  0  0
   -3.2701   -1.4329    0.3447 C   0  0  0  0  0  0  0  0  0  0  0  0
   -4.7285    0.9254    0.0370 C   0  0  0  0  0  0  0  0  0  0  0  0
   -4.6583   -1.4827    0.2187 C   0  0  0  0  0  0  0  0  0  0  0  0
   -5.3875   -0.3036    0.0649 C   0  0  0  0  0  0  0  0  0  0  0  0
   -2.6626    2.3068    0.1295 C   0  0  0  0  0  0  0  0  0  0  0  0
   -2.5164   -2.7130    0.5090 C   0  0  0  0  0  0  0  0  0  0  0  0
   -6.8717   -0.3578   -0.0710 C   0  0  0  0  0  0  0  0  0  0  0  0
  1  6  1  0
  1 15  1  0
  2 15  2  0
  3  5  1  0
  3 11  1  0
  3 12  1  0
  4 15  1  0
  4 16  1  0
  5  6  1  0
  5  7  1  0
  6  8  1  0
  7  9  1  0
  8 10  1  0
  9 10  1  0
 11 13  1  0
 12 14  1  0
 16 17  2  0
 16 18  1  0
 17 19  1  0
 17 22  1  0
 18 20  2  0
 18 23  1  0
 19 21  2  0
 20 21  1  0
 21 24  1  0
M  END
>  <PUBCHEM_COMPOUND_CID>  (1) 
29994

>  <PUBCHEM_CONFORMER_RMSD>  (1) 
0.8

>  <PUBCHEM_CONFORMER_DIVERSEORDER>  (1) 
1
12
36
90
66
49
42
47
86
73
83
76
75
68
48
79
26
56
80
81
67
96
14
31
89
15
78
77
88
50
71
22
93
84
29
55
41
40
60
58
24
65
23
95
4
52
10
18
37
39
8
69
45
54
57
63
85
17
82
25
33
5
16
21
61
9
94
62
32
87
74
6
64
51
91
38
92
70
19
34
72
43
13
30
44
7
11
20
28
35
2
27
53
3
59
46

>  <PUBCHEM_MMFF94_PARTIAL_CHARGES>  (1) 
21
1 -0.43
11 0.27
12 0.27
15 0.78
16 0.12
17 -0.14
18 -0.14
19 -0.15
2 -0.57
20 -0.15
21 -0.14
22 0.14
23 0.14
24 0.14
3 -0.81
4 -0.55
45 0.37
46 0.15
47 0.15
5 0.27
6 0.28

>  <PUBCHEM_EFFECTIVE_ROTOR_COUNT>  (1) 
8.2

>  <PUBCHEM_PHARMACOPHORE_FEATURES>  (1) 
5
1 2 acceptor
1 3 cation
1 4 donor
6 16 17 18 19 20 21 rings
6 5 6 7 8 9 10 rings

>  <PUBCHEM_HEAVY_ATOM_COUNT>  (1) 
24

>  <PUBCHEM_ATOM_DEF_STEREO_COUNT>  (1) 
0

>  <PUBCHEM_ATOM_UDEF_STEREO_COUNT>  (1) 
2

>  <PUBCHEM_BOND_DEF_STEREO_COUNT>  (1) 
0

>  <PUBCHEM_BOND_UDEF_STEREO_COUNT>  (1) 
0

>  <PUBCHEM_ISOTOPIC_ATOM_COUNT>  (1) 
0

>  <PUBCHEM_COMPONENT_COUNT>  (1) 
1

>  <PUBCHEM_CACTVS_TAUTO_COUNT>  (1) 
2

>  <PUBCHEM_CONFORMER_ID>  (1) 
0000752A00000001

>  <PUBCHEM_MMFF94_ENERGY>  (1) 
79.544

>  <PUBCHEM_FEATURE_SELFOVERLAP>  (1) 
25.371

>  <PUBCHEM_SHAPE_FINGERPRINT>  (1) 
11405975 8 18410578422206245603
12107183 9 18192149295982175793
12166972 35 17346605157449281296
12236239 1 17675927603842282619
12403260 363 18412825789819604193
12616971 3 17703506675445008917
12633257 1 18270135542943348169
13533116 47 18335980943275501571
13583140 156 17986674981049509947
13675066 3 17917990560089884846
13911852 28 18191859033813814962
14341114 176 18409732884663396889
14420673 8 18261954025176199058
14528608 73 9367338241289937946
15527383 91 18411132550586886928
15788980 27 17632579335951721711
17349148 13 17560812017267885751
17492 89 18116998994937050867
17857418 61 18408319982114897939
1813 80 17022617572652174588
18222031 100 18342747282372884566
19784866 140 13912602719518139054
1979834 28 17632574929790354470
20832881 197 18187364311593253458
21033648 29 17059479730549140898
21065198 57 18337953505890560121
21792934 111 18413108356403771849
21859007 373 17896579744688292477
23402539 116 18413384346416750655
23559900 14 18339082691373595945
23622692 88 17632573860232390348
3004659 81 18334021579506283358
3411729 13 18267862960305377912
351380 180 18341894108589063133
3680242 22 18410583907343979225
4073 2 18042408109044447842
4325135 7 11024105447313794698
5104073 3 18340777039250955011
559249 180 18115301177400921739
59755656 215 18336266752243849287
8509985 295 17918274272475681032
960060 61 17458072555821205646
9709674 26 18265901430907109267
9971528 1 18040431126797375372
9981440 41 17323244087297787672

>  <PUBCHEM_SHAPE_MULTIPOLES>  (1) 
472.21
13.85
2.85
1.25
8.46
0.88
0.32
-6.13
-1.79
-1.82
-0.59
-1.88
-0.24
0.31

>  <PUBCHEM_SHAPE_SELFOVERLAP>  (1) 
969.16

>  <PUBCHEM_SHAPE_VOLUME>  (1) 
272.9

>  <PUBCHEM_COORDINATE_TYPE>  (1) 
2
5
10

$$$$
