29999
     RDKit          3D

 18 19  0  0  0  0  0  0  0  0999 V2000
   -0.2925    0.8707   -1.5229 O   0  0  0  0  0  0  0  0  0  0  0  0
    4.3036    2.0046    0.2582 O   0  0  0  0  0  0  0  0  0  0  0  0
    5.4310   -0.4936    0.7170 O   0  0  0  0  0  0  0  0  0  0  0  0
   -2.2459   -0.5368   -0.1859 N   0  0  0  0  0  0  0  0  0  0  0  0
   -2.2343    0.5624    0.7804 C   0  0  0  0  0  0  0  0  0  0  0  0
   -3.2327   -1.5833    0.1020 C   0  0  0  0  0  0  0  0  0  0  0  0
   -3.1773    1.6830    0.3331 C   0  0  0  0  0  0  0  0  0  0  0  0
   -4.6267   -1.1310    0.5471 C   0  0  0  0  0  0  0  0  0  0  0  0
   -4.6687    1.3989    0.4840 C   0  0  0  0  0  0  0  0  0  0  0  0
   -5.1549    0.1075   -0.1693 C   0  0  0  0  0  0  0  0  0  0  0  0
   -0.9166   -1.1335   -0.3307 C   0  0  0  0  0  0  0  0  0  0  0  0
    0.0542   -0.0710   -0.8129 C   0  0  0  0  0  0  0  0  0  0  0  0
    1.4866   -0.1800   -0.4048 C   0  0  0  0  0  0  0  0  0  0  0  0
    2.2213    0.9748   -0.2648 C   0  0  0  0  0  0  0  0  0  0  0  0
    2.0151   -1.4311   -0.1858 C   0  0  0  0  0  0  0  0  0  0  0  0
    3.5593    0.8727    0.1156 C   0  0  0  0  0  0  0  0  0  0  0  0
    3.3532   -1.5332    0.1945 C   0  0  0  0  0  0  0  0  0  0  0  0
    4.1253   -0.3813    0.3452 C   0  0  0  0  0  0  0  0  0  0  0  0
  1 12  2  0
  2 16  1  0
  3 18  1  0
  4  5  1  0
  4  6  1  0
  4 11  1  0
  5  7  1  0
  6  8  1  0
  7  9  1  0
  8 10  1  0
  9 10  1  0
 11 12  1  0
 12 13  1  0
 13 14  2  0
 13 15  1  0
 14 16  1  0
 15 17  2  0
 16 18  2  0
 17 18  1  0
M  END
>  <PUBCHEM_COMPOUND_CID>  (1) 
29999

>  <PUBCHEM_CONFORMER_RMSD>  (1) 
0.6

>  <PUBCHEM_CONFORMER_DIVERSEORDER>  (1) 
1
87
146
111
167
102
129
161
73
76
89
65
169
100
154
128
168
162
160
159
144
49
15
8
69
145
108
60
152
163
97
122
18
141
139
66
143
78
30
85
118
48
36
82
117
88
157
148
99
9
19
68
153
156
158
125
21
149
10
151
137
166
124
96
140
105
31
109
114
20
126
53
58
150
123
127
34
147
37
120
119
107
92
93
45
35
52
133
16
63
2
164
170
23
110
121
46
51
77
70
72
17
12
104
81
136
80
142
44
165
3
39
22
67
64
83
95
155
135
55
94
132
134
28
75
25
6
32
79
115
5
90
101
54
26
98
14
113
40
103
62
84
116
74
91
4
57
13
11
7
27
71
50
38
29
47
59
61
138
43
33
56
131
42
130
112
41
86
24
106

>  <PUBCHEM_MMFF94_PARTIAL_CHARGES>  (1) 
19
1 -0.57
11 0.33
12 0.42
13 0.09
14 -0.15
15 -0.15
16 0.08
17 -0.15
18 0.08
2 -0.53
3 -0.53
33 0.15
34 0.15
35 0.15
36 0.45
37 0.45
4 -0.81
5 0.27
6 0.27

>  <PUBCHEM_EFFECTIVE_ROTOR_COUNT>  (1) 
4.4

>  <PUBCHEM_PHARMACOPHORE_FEATURES>  (1) 
6
1 1 acceptor
1 2 donor
1 3 donor
1 4 cation
6 13 14 15 16 17 18 rings
7 4 5 6 7 8 9 10 rings

>  <PUBCHEM_HEAVY_ATOM_COUNT>  (1) 
18

>  <PUBCHEM_ATOM_DEF_STEREO_COUNT>  (1) 
0

>  <PUBCHEM_ATOM_UDEF_STEREO_COUNT>  (1) 
0

>  <PUBCHEM_BOND_DEF_STEREO_COUNT>  (1) 
0

>  <PUBCHEM_BOND_UDEF_STEREO_COUNT>  (1) 
0

>  <PUBCHEM_ISOTOPIC_ATOM_COUNT>  (1) 
0

>  <PUBCHEM_COMPONENT_COUNT>  (1) 
1

>  <PUBCHEM_CACTVS_TAUTO_COUNT>  (1) 
22

>  <PUBCHEM_CONFORMER_ID>  (1) 
0000752F00000001

>  <PUBCHEM_MMFF94_ENERGY>  (1) 
43.6453

>  <PUBCHEM_FEATURE_SELFOVERLAP>  (1) 
30.45

>  <PUBCHEM_SHAPE_FINGERPRINT>  (1) 
11089746 13 18059847368277567572
11370993 70 18412263917655262355
12107183 9 17762055441310274091
12236239 1 18187365445928699883
12251169 10 18410856559761323438
12507557 5 18060418014801931761
12507560 40 18271812297874863767
12596602 18 17894912970627204737
12670546 56 18409444782820946339
128620 24 14189575217593202425
12892183 10 18408889563613654363
13167823 11 18410292506122821187
13533116 47 18335701607282675355
13583140 156 17060327544034765887
13675066 3 17967540055980098831
14341114 176 18410299133088242040
15196674 1 18411983567727504337
15527383 91 18261110747407769540
17834072 33 18412262856528827630
17980427 23 18342462547827609773
1813 80 16805327677786404902
19050596 39 18410576188480236486
19489759 90 18341610408882460387
200 152 18341607140449472903
21065198 48 18410293614007806891
21065198 57 18411421674346639211
21065199 12 18409733958473708171
21267235 1 18411709780837406830
22854114 59 18413389830177526638
23402539 116 18343576348721330351
23559900 14 18058454192413847038
26918003 58 18334856130122147683
314173 85 16515401871815972724
3268164 11 14117522000301088043
351380 180 18343582919615260465
3545911 37 18342178847255531131
42 15 18260831492306736623
4214541 1 18410575067863063425
474 4 18042127712046681068
5104073 3 18409167722685546904
5374978 207 18413392046596890411
542803 24 17775289361025814313
7495541 125 17417525925605734195
77779 3 18411984658680839507
9709674 26 18340778078317197927
9971528 1 17821731636876800132
9981440 41 17178570351931787393

>  <PUBCHEM_SHAPE_MULTIPOLES>  (1) 
347.84
11.62
1.79
0.87
0.6
0.2
0.13
1.05
-2.79
0.12
-0.14
0.04
0.08
-0.17

>  <PUBCHEM_SHAPE_SELFOVERLAP>  (1) 
724.087

>  <PUBCHEM_SHAPE_VOLUME>  (1) 
197

>  <PUBCHEM_COORDINATE_TYPE>  (1) 
2
5
10

$$$$
