29990
     RDKit          3D

 23 25  0  0  1  0  0  0  0  0999 V2000
   -0.3536    0.1042    0.1749 O   0  0  0  0  0  0  0  0  0  0  0  0
    1.0545   -0.2913    1.9331 O   0  0  0  0  0  0  0  0  0  0  0  0
   -3.1612   -0.3066   -0.1755 N   0  0  0  0  0  0  0  0  0  0  0  0
    1.8262   -0.1579   -0.2730 N   0  0  0  0  0  0  0  0  0  0  0  0
   -2.6139    0.9880    0.2294 C   0  0  0  0  0  0  0  0  0  0  0  0
   -1.2944    0.7982    0.9950 C   0  0  0  0  0  0  0  0  0  0  0  0
   -2.4295    1.8975   -0.9935 C   0  0  0  0  0  0  0  0  0  0  0  0
   -0.7014    2.1532    1.3940 C   0  0  0  0  0  0  0  0  0  0  0  0
   -1.8292    3.2444   -0.5917 C   0  0  0  0  0  0  0  0  0  0  0  0
   -0.5279    3.0793    0.1888 C   0  0  0  0  0  0  0  0  0  0  0  0
   -3.3383   -1.1783    0.9945 C   0  0  0  0  0  0  0  0  0  0  0  0
   -4.4272   -0.1258   -0.8997 C   0  0  0  0  0  0  0  0  0  0  0  0
   -3.8640   -2.5542    0.5827 C   0  0  0  0  0  0  0  0  0  0  0  0
   -4.9885   -1.4675   -1.3735 C   0  0  0  0  0  0  0  0  0  0  0  0
   -5.1606   -2.4380   -0.2107 C   0  0  0  0  0  0  0  0  0  0  0  0
    0.8781   -0.1330    0.7312 C   0  0  0  0  0  0  0  0  0  0  0  0
    3.2184   -0.3704   -0.1507 C   0  0  0  0  0  0  0  0  0  0  0  0
    4.0285   -0.3624   -1.2760 C   0  0  0  0  0  0  0  0  0  0  0  0
    3.7476   -0.5852    1.1133 C   0  0  0  0  0  0  0  0  0  0  0  0
    5.4000   -0.5740   -1.1345 C   0  0  0  0  0  0  0  0  0  0  0  0
    3.4720   -0.1322   -2.6438 C   0  0  0  0  0  0  0  0  0  0  0  0
    5.1191   -0.7967    1.2547 C   0  0  0  0  0  0  0  0  0  0  0  0
    5.9452   -0.7912    0.1310 C   0  0  0  0  0  0  0  0  0  0  0  0
  1  6  1  0
  1 16  1  0
  2 16  2  0
  3  5  1  0
  3 11  1  0
  3 12  1  0
  4 16  1  0
  4 17  1  0
  5  6  1  0
  5  7  1  0
  6  8  1  0
  7  9  1  0
  8 10  1  0
  9 10  1  0
 11 13  1  0
 12 14  1  0
 13 15  1  0
 14 15  1  0
 17 18  2  0
 17 19  1  0
 18 20  1  0
 18 21  1  0
 19 22  2  0
 20 23  2  0
 22 23  1  0
M  END
>  <PUBCHEM_COMPOUND_CID>  (1) 
29990

>  <PUBCHEM_CONFORMER_RMSD>  (1) 
0.8

>  <PUBCHEM_CONFORMER_DIVERSEORDER>  (1) 
1
103
51
70
28
112
21
64
126
130
105
38
24
27
15
45
124
37
115
57
75
26
46
66
8
41
123
118
61
71
111
6
117
134
78
109
138
14
18
53
58
107
96
88
60
30
128
68
93
7
131
47
86
142
67
34
76
56
48
73
44
108
127
52
139
106
91
90
72
12
35
69
98
79
120
122
39
83
92
141
36
59
136
104
55
49
140
77
81
99
80
17
129
22
116
31
135
113
65
125
9
100
62
42
23
16
33
132
121
10
119
94
74
84
63
11
25
101
110
87
97
3
114
95
82
5
19
13
32
20
2
43
85
89
133
54
40
29
137
50
102
4

>  <PUBCHEM_MMFF94_PARTIAL_CHARGES>  (1) 
21
1 -0.43
11 0.27
12 0.27
16 0.78
17 0.12
18 -0.14
19 -0.15
2 -0.57
20 -0.15
21 0.14
22 -0.15
23 -0.15
3 -0.81
4 -0.55
44 0.37
45 0.15
46 0.15
5 0.27
50 0.15
51 0.15
6 0.28

>  <PUBCHEM_EFFECTIVE_ROTOR_COUNT>  (1) 
7.4

>  <PUBCHEM_PHARMACOPHORE_FEATURES>  (1) 
6
1 2 acceptor
1 3 cation
1 4 donor
6 17 18 19 20 22 23 rings
6 3 11 12 13 14 15 rings
6 5 6 7 8 9 10 rings

>  <PUBCHEM_HEAVY_ATOM_COUNT>  (1) 
23

>  <PUBCHEM_ATOM_DEF_STEREO_COUNT>  (1) 
0

>  <PUBCHEM_ATOM_UDEF_STEREO_COUNT>  (1) 
2

>  <PUBCHEM_BOND_DEF_STEREO_COUNT>  (1) 
0

>  <PUBCHEM_BOND_UDEF_STEREO_COUNT>  (1) 
0

>  <PUBCHEM_ISOTOPIC_ATOM_COUNT>  (1) 
0

>  <PUBCHEM_COMPONENT_COUNT>  (1) 
1

>  <PUBCHEM_CACTVS_TAUTO_COUNT>  (1) 
2

>  <PUBCHEM_CONFORMER_ID>  (1) 
0000752600000001

>  <PUBCHEM_MMFF94_ENERGY>  (1) 
50.0607

>  <PUBCHEM_FEATURE_SELFOVERLAP>  (1) 
30.447

>  <PUBCHEM_SHAPE_FINGERPRINT>  (1) 
10692045 39 8573894354071625964
10764073 3 14688961222818162009
11045515 52 17894912931814698189
11056379 131 18338803299334795540
11089746 13 14273732988924576174
11370993 144 15912503298029872523
12166972 35 17749107803362631764
12236239 1 17676487220273360890
12553582 1 18334570266126652355
12616971 3 17604160233086251820
12788726 201 18259698991024988106
12892183 10 14764360344230253275
13103583 49 14979964709050430255
13544653 18 17704355489356846561
13583140 156 18058152939850800642
13782708 43 17846225389560175870
14251757 5 18042128815563743411
14849402 71 13398044545665188522
14910302 57 18199477558145068534
15003188 100 14490476429872989767
15461852 350 18335422353737362718
17349148 13 17822018584074394754
17980427 26 9150083510239741049
1813 80 18130796702002855085
18222031 100 18201999984016866135
192875 21 17676211260361946404
193927 3 18130511928554622867
200 152 17676489440655297946
20567600 254 8862673382689131139
20775438 99 17110711827323975283
20871999 31 18335132073470949373
21033648 144 15719973413659672062
21033650 10 18046934605569740852
21623969 137 16559031593287652630
21728266 224 18262225639023412458
23402539 116 18335139773751192714
23557571 272 18201441316082814748
23559900 14 18262788678896989721
266924 1 17677319507520413395
2838139 119 14273725261740646199
314173 85 18131074844137639579
3268164 11 18338518538908771508
329604 57 18335422408421846918
4280585 95 18335690685053779657
437815 12 17988918990531219233
4921388 177 18057613070287178768
495365 180 12901534767846483448
5104073 3 15984547677187173586
5326457 24 17896026655789936938
5352402 22 16559039293657456166
7495541 125 17988638614902411568

>  <PUBCHEM_SHAPE_MULTIPOLES>  (1) 
451.63
12.94
2.8
1.72
8.62
1.97
-0.52
-9.73
-3.1
-4.58
0.07
1.36
-0.1
-0.06

>  <PUBCHEM_SHAPE_SELFOVERLAP>  (1) 
942.182

>  <PUBCHEM_SHAPE_VOLUME>  (1) 
254.2

>  <PUBCHEM_COORDINATE_TYPE>  (1) 
2
5
10

$$$$
