30002
     RDKit          3D

 18 18  0  0  0  0  0  0  0  0999 V2000
   -1.6496   -0.0230   -0.0026 O   0  0  0  0  0  0  0  0  0  0  0  0
    3.4282    0.2975   -0.0218 O   0  0  0  0  0  0  0  0  0  0  0  0
    3.0679   -1.9775    0.0422 O   0  0  0  0  0  0  0  0  0  0  0  0
    0.6226    1.5855   -1.1001 O   0  0  0  0  0  0  0  0  0  0  0  0
   -5.0335    0.8588   -0.0416 O   0  0  0  0  0  0  0  0  0  0  0  0
   -3.2083    2.0785   -0.0316 O   0  0  0  0  0  0  0  0  0  0  0  0
   -3.7699    0.9432   -0.0300 N   0  0  0  0  0  0  0  0  0  0  0  0
   -1.0934   -1.2541    0.0113 C   0  0  0  0  0  0  0  0  0  0  0  0
    1.2219   -0.4310    0.0076 C   0  0  0  0  0  0  0  0  0  0  0  0
    0.3240   -1.4347    0.0262 C   0  0  0  0  0  0  0  0  0  0  0  0
   -2.0439   -2.2357    0.0080 C   0  0  0  0  0  0  0  0  0  0  0  0
   -2.9943   -0.2176   -0.0148 C   0  0  0  0  0  0  0  0  0  0  0  0
   -3.2881   -1.5614   -0.0089 C   0  0  0  0  0  0  0  0  0  0  0  0
    2.6604   -0.8252    0.0182 C   0  0  0  0  0  0  0  0  0  0  0  0
    0.7884    1.0004   -0.0317 C   0  0  0  0  0  0  0  0  0  0  0  0
    4.8428    0.0800   -0.0365 C   0  0  0  0  0  0  0  0  0  0  0  0
    0.5777    1.6971    1.2872 C   0  0  0  0  0  0  0  0  0  0  0  0
    5.5471    1.4192   -0.0813 C   0  0  0  0  0  0  0  0  0  0  0  0
  1  8  1  0
  1 12  1  0
  2 14  1  0
  2 16  1  0
  3 14  2  0
  4 15  2  0
  5  7  1  0
  6  7  2  0
  7 12  1  0
  8 10  1  0
  8 11  2  0
  9 10  2  0
  9 14  1  0
  9 15  1  0
 11 13  1  0
 12 13  2  0
 15 17  1  0
 16 18  1  0
M  CHG  2   5  -1   7   1
M  END
>  <PUBCHEM_COMPOUND_CID>  (1) 
30002

>  <PUBCHEM_CONFORMER_RMSD>  (1) 
0.8

>  <PUBCHEM_CONFORMER_DIVERSEORDER>  (1) 
1
43
20
40
5
2
37
34
29
25
30
18
46
24
32
31
47
14
28
15
44
23
26
13
6
19
7
11
27
4
21
41
10
42
35
36
8
9
3
33
39
38
16
45
12
17
22

>  <PUBCHEM_MMFF94_PARTIAL_CHARGES>  (1) 
20
1 -0.28
10 -0.11
11 -0.15
12 0.22
13 -0.15
14 0.71
15 0.49
16 0.28
17 0.06
19 0.15
2 -0.43
20 0.15
21 0.15
3 -0.57
4 -0.57
5 -0.52
6 -0.52
7 0.96
8 0.09
9 0.03

>  <PUBCHEM_EFFECTIVE_ROTOR_COUNT>  (1) 
6

>  <PUBCHEM_PHARMACOPHORE_FEATURES>  (1) 
8
1 1 acceptor
1 3 acceptor
1 4 acceptor
1 5 acceptor
1 5 anion
1 6 acceptor
1 9 anion
5 1 8 11 12 13 rings

>  <PUBCHEM_HEAVY_ATOM_COUNT>  (1) 
18

>  <PUBCHEM_ATOM_DEF_STEREO_COUNT>  (1) 
0

>  <PUBCHEM_ATOM_UDEF_STEREO_COUNT>  (1) 
0

>  <PUBCHEM_BOND_DEF_STEREO_COUNT>  (1) 
0

>  <PUBCHEM_BOND_UDEF_STEREO_COUNT>  (1) 
1

>  <PUBCHEM_ISOTOPIC_ATOM_COUNT>  (1) 
0

>  <PUBCHEM_COMPONENT_COUNT>  (1) 
1

>  <PUBCHEM_CACTVS_TAUTO_COUNT>  (1) 
2

>  <PUBCHEM_CONFORMER_ID>  (1) 
0000753200000001

>  <PUBCHEM_MMFF94_ENERGY>  (1) 
37.2906

>  <PUBCHEM_FEATURE_SELFOVERLAP>  (1) 
40.692

>  <PUBCHEM_SHAPE_FINGERPRINT>  (1) 
10014705 185 18408321094600760567
12500047 106 18341608243633685963
13132413 78 18411983580791806372
15048467 5 18408603677948338300
15196674 1 18410575085016870574
15375358 24 18343585131449753334
1601671 61 18411136952849393448
17804303 29 18340769337931402873
20233049 118 18413388730702900272
20645477 56 18410012139368660803
20645477 70 17274831194873500014
21267235 1 18337400446962517390
21304253 335 18334020497111617716
21421861 104 17750784455621465346
23402539 116 18342733039728516166
23557571 272 17987804132315563551
23559900 14 18271526404141904278
293599 30 18410294696318381900
296302 2 18413109463508191118
3312278 4 18341617035721787474
34934 24 18410852166215618194
350125 39 18338802342052941307
5104073 3 18408040701993122402

>  <PUBCHEM_SHAPE_MULTIPOLES>  (1) 
330.23
9.47
2.23
0.74
5.43
0.07
-0.07
-2.72
0.53
-0.92
-0.09
0.13
-0.24
0.03

>  <PUBCHEM_SHAPE_SELFOVERLAP>  (1) 
685.896

>  <PUBCHEM_SHAPE_VOLUME>  (1) 
189.1

>  <PUBCHEM_COORDINATE_TYPE>  (1) 
2
5
10

$$$$
