30004
     RDKit          3D

 29 32  0  0  0  0  0  0  0  0999 V2000
    6.0447    0.8696    0.7645 O   0  0  0  0  0  0  0  0  0  0  0  0
    5.8280   -1.1712   -0.0266 O   0  0  0  0  0  0  0  0  0  0  0  0
   -0.2106    0.1433    1.2937 N   0  0  0  0  0  0  0  0  0  0  0  0
    5.3407   -0.1222    0.4583 N   0  0  0  0  0  0  0  0  0  0  0  0
   -1.1865    0.0014    0.1735 C   0  0  0  0  0  0  0  0  0  0  0  0
   -1.5850   -1.4199   -0.0401 C   0  0  0  0  0  0  0  0  0  0  0  0
   -0.3644    0.6881   -0.9876 C   0  0  0  0  0  0  0  0  0  0  0  0
   -2.4699    0.8258    0.5550 C   0  0  0  0  0  0  0  0  0  0  0  0
    1.1321    0.0790    1.0918 C   0  0  0  0  0  0  0  0  0  0  0  0
   -2.3932   -1.7622   -1.1243 C   0  0  0  0  0  0  0  0  0  0  0  0
   -0.0934   -0.0716   -2.0737 C   0  0  0  0  0  0  0  0  0  0  0  0
   -2.7745    0.9177    1.8735 C   0  0  0  0  0  0  0  0  0  0  0  0
   -1.1493   -2.4071    0.8440 C   0  0  0  0  0  0  0  0  0  0  0  0
   -0.0018    1.9776   -0.7971 C   0  0  0  0  0  0  0  0  0  0  0  0
   -3.1717    1.3811   -0.4642 C   0  0  0  0  0  0  0  0  0  0  0  0
   -2.7658   -3.0914   -1.3244 C   0  0  0  0  0  0  0  0  0  0  0  0
    0.6321    0.5347   -3.0992 C   0  0  0  0  0  0  0  0  0  0  0  0
   -3.9128    1.6493    2.2120 C   0  0  0  0  0  0  0  0  0  0  0  0
   -1.5219   -3.7363    0.6437 C   0  0  0  0  0  0  0  0  0  0  0  0
    0.7237    2.5838   -1.8227 C   0  0  0  0  0  0  0  0  0  0  0  0
   -4.3100    2.1128   -0.1256 C   0  0  0  0  0  0  0  0  0  0  0  0
    1.9903    1.1642    1.4156 C   0  0  0  0  0  0  0  0  0  0  0  0
    1.7524   -1.0771    0.5456 C   0  0  0  0  0  0  0  0  0  0  0  0
   -2.3301   -4.0784   -0.4405 C   0  0  0  0  0  0  0  0  0  0  0  0
    1.0408    1.8623   -2.9737 C   0  0  0  0  0  0  0  0  0  0  0  0
   -4.6805    2.2468    1.2126 C   0  0  0  0  0  0  0  0  0  0  0  0
    3.3682    1.0983    1.2081 C   0  0  0  0  0  0  0  0  0  0  0  0
    3.1302   -1.1430    0.3381 C   0  0  0  0  0  0  0  0  0  0  0  0
    3.9381   -0.0553    0.6696 C   0  0  0  0  0  0  0  0  0  0  0  0
  1  4  1  0
  2  4  2  0
  3  5  1  0
  3  9  1  0
  4 29  1  0
  5  6  1  0
  5  7  1  0
  5  8  1  0
  6 10  2  0
  6 13  1  0
  7 11  2  0
  7 14  1  0
  8 12  2  0
  8 15  1  0
  9 22  2  0
  9 23  1  0
 10 16  1  0
 11 17  1  0
 12 18  1  0
 13 19  2  0
 14 20  2  0
 15 21  2  0
 16 24  2  0
 17 25  2  0
 18 26  2  0
 19 24  1  0
 20 25  1  0
 21 26  1  0
 22 27  1  0
 23 28  2  0
 27 29  2  0
 28 29  1  0
M  CHG  2   1  -1   4   1
M  END
>  <PUBCHEM_COMPOUND_CID>  (1) 
30004

>  <PUBCHEM_CONFORMER_RMSD>  (1) 
0.8

>  <PUBCHEM_CONFORMER_DIVERSEORDER>  (1) 
1
3
5
2
4

>  <PUBCHEM_MMFF94_PARTIAL_CHARGES>  (1) 
49
1 -0.52
10 -0.15
11 -0.15
12 -0.15
13 -0.15
14 -0.15
15 -0.15
16 -0.15
17 -0.15
18 -0.15
19 -0.15
2 -0.52
20 -0.15
21 -0.15
22 -0.15
23 -0.15
24 -0.15
25 -0.15
26 -0.15
27 -0.15
28 -0.15
29 0.13
3 -0.87
30 0.4
31 0.15
32 0.15
33 0.15
34 0.15
35 0.15
36 0.15
37 0.15
38 0.15
39 0.15
4 0.91
40 0.15
41 0.15
42 0.15
43 0.15
44 0.15
45 0.15
46 0.15
47 0.15
48 0.15
49 0.15
5 0.8
6 -0.14
7 -0.14
8 -0.14
9 0.1

>  <PUBCHEM_EFFECTIVE_ROTOR_COUNT>  (1) 
6

>  <PUBCHEM_PHARMACOPHORE_FEATURES>  (1) 
9
1 1 acceptor
1 1 anion
1 2 acceptor
1 3 cation
1 3 donor
6 6 10 13 16 19 24 rings
6 7 11 14 17 20 25 rings
6 8 12 15 18 21 26 rings
6 9 22 23 27 28 29 rings

>  <PUBCHEM_HEAVY_ATOM_COUNT>  (1) 
29

>  <PUBCHEM_ATOM_DEF_STEREO_COUNT>  (1) 
0

>  <PUBCHEM_ATOM_UDEF_STEREO_COUNT>  (1) 
0

>  <PUBCHEM_BOND_DEF_STEREO_COUNT>  (1) 
0

>  <PUBCHEM_BOND_UDEF_STEREO_COUNT>  (1) 
0

>  <PUBCHEM_ISOTOPIC_ATOM_COUNT>  (1) 
0

>  <PUBCHEM_COMPONENT_COUNT>  (1) 
1

>  <PUBCHEM_CACTVS_TAUTO_COUNT>  (1) 
1

>  <PUBCHEM_CONFORMER_ID>  (1) 
0000753400000001

>  <PUBCHEM_MMFF94_ENERGY>  (1) 
150.2839

>  <PUBCHEM_FEATURE_SELFOVERLAP>  (1) 
45.751

>  <PUBCHEM_SHAPE_FINGERPRINT>  (1) 
10006869 2 16953638469148415621
10165383 225 18338233739606125552
10756046 70 17967829270345608381
10906281 52 16844746251900411552
11115154 58 17839716482587594951
11135609 99 16444783599456313873
11445158 3 15719976720252096839
11578080 2 16268594561469984449
11763715 3 17482822764024986718
12160290 23 18056506026162160299
12597179 24 17560526109906291359
12633257 1 18340475661263996970
12788726 201 18124614225835665015
12977781 61 17059793151561450855
13009979 54 18046347701966849403
133893 2 16662616725025801732
13583140 156 17274531161421815080
140371 6 18117279378918546466
14068700 675 18049988184760908535
14713325 29 15841547479721444417
14790565 3 18054229825953802432
14910302 57 18336818694623482174
14955137 171 17750252355848437664
15219462 58 17910389820543016616
15849732 13 18186523181261629325
16090146 7 18261107513345543943
16114785 44 18050251866031347564
17980427 26 17270608950053393677
1813 80 17385732374272659980
18365409 1 18410845578463832623
19141452 34 18410009918965462432
20691752 17 17271759116372569137
20723712 36 18042420044721970829
21033648 29 18338785707218109545
23419403 2 15961377930410008835
23559900 14 18127110090759026936
244849 19 16700367185861287647
2818148 4 16807885257675441499
3380486 145 17749654238892363396
376196 1 16701166461773756881
463206 1 17475783729223787662
5080951 261 17980158069075709538
57527573 199 17559693745044230641
59755656 520 18200871786655863745
6669772 16 17845660222781104815
9981440 41 16487258737989844125

>  <PUBCHEM_SHAPE_MULTIPOLES>  (1) 
575.11
8.64
3.76
2.39
10.6
3.93
1.59
-2.25
-4.38
-4.44
0.69
-0.17
-1.37
-1.68

>  <PUBCHEM_SHAPE_SELFOVERLAP>  (1) 
1285.485

>  <PUBCHEM_SHAPE_VOLUME>  (1) 
301.7

>  <PUBCHEM_COORDINATE_TYPE>  (1) 
2
5
10

$$$$
