30001
     RDKit          3D

 13 14  0  0  0  0  0  0  0  0999 V2000
   -2.9288   -0.5278   -0.0010 O   0  0  0  0  0  0  0  0  0  0  0  0
   -0.7085   -1.3234    0.0005 N   0  0  0  0  0  0  0  0  0  0  0  0
   -1.0222    1.0312    0.0002 C   0  0  0  0  0  0  0  0  0  0  0  0
    0.4379    0.6512   -0.0001 C   0  0  0  0  0  0  0  0  0  0  0  0
   -1.7185   -0.3511    0.0002 C   0  0  0  0  0  0  0  0  0  0  0  0
    0.5644   -0.7388    0.0002 C   0  0  0  0  0  0  0  0  0  0  0  0
   -1.4093    1.8004    1.2632 C   0  0  0  0  0  0  0  0  0  0  0  0
   -1.4097    1.8004   -1.2624 C   0  0  0  0  0  0  0  0  0  0  0  0
    1.5613    1.4622   -0.0004 C   0  0  0  0  0  0  0  0  0  0  0  0
    1.8021   -1.3595    0.0001 C   0  0  0  0  0  0  0  0  0  0  0  0
   -0.9248   -2.7508    0.0000 C   0  0  0  0  0  0  0  0  0  0  0  0
    2.8185    0.8528   -0.0005 C   0  0  0  0  0  0  0  0  0  0  0  0
    2.9376   -0.5468    0.0000 C   0  0  0  0  0  0  0  0  0  0  0  0
  1  5  2  0
  2  5  1  0
  2  6  1  0
  2 11  1  0
  3  4  1  0
  3  5  1  0
  3  7  1  0
  3  8  1  0
  4  6  2  0
  4  9  1  0
  6 10  1  0
  9 12  2  0
 10 13  2  0
 12 13  1  0
M  END
>  <PUBCHEM_COMPOUND_CID>  (1) 
30001

>  <PUBCHEM_CONFORMER_RMSD>  (1) 
0.4

>  <PUBCHEM_CONFORMER_DIVERSEORDER>  (1) 
1

>  <PUBCHEM_MMFF94_PARTIAL_CHARGES>  (1) 
15
1 -0.57
10 -0.15
11 0.3
12 -0.15
13 -0.15
2 -0.48
20 0.15
21 0.15
25 0.15
26 0.15
3 0.2
4 -0.14
5 0.57
6 0.12
9 -0.15

>  <PUBCHEM_EFFECTIVE_ROTOR_COUNT>  (1) 
0.4

>  <PUBCHEM_PHARMACOPHORE_FEATURES>  (1) 
4
1 1 acceptor
3 3 7 8 hydrophobe
5 2 3 4 5 6 rings
6 4 6 9 10 12 13 rings

>  <PUBCHEM_HEAVY_ATOM_COUNT>  (1) 
13

>  <PUBCHEM_ATOM_DEF_STEREO_COUNT>  (1) 
0

>  <PUBCHEM_ATOM_UDEF_STEREO_COUNT>  (1) 
0

>  <PUBCHEM_BOND_DEF_STEREO_COUNT>  (1) 
0

>  <PUBCHEM_BOND_UDEF_STEREO_COUNT>  (1) 
0

>  <PUBCHEM_ISOTOPIC_ATOM_COUNT>  (1) 
0

>  <PUBCHEM_COMPONENT_COUNT>  (1) 
1

>  <PUBCHEM_CACTVS_TAUTO_COUNT>  (1) 
1

>  <PUBCHEM_CONFORMER_ID>  (1) 
0000753100000001

>  <PUBCHEM_MMFF94_ENERGY>  (1) 
40.0468

>  <PUBCHEM_FEATURE_SELFOVERLAP>  (1) 
20.383

>  <PUBCHEM_SHAPE_FINGERPRINT>  (1) 
10967382 1 18338797943468346886
11206711 2 18336263453159891796
12423570 1 10827182708678542890
12524768 44 18338803423841530310
13024252 1 15140960660017831265
14614273 12 18335412513033695708
15775835 57 18189060806548025332
16945 1 18338517550855017348
17844478 74 18114189648222373929
193761 8 17329711436282538651
20588541 1 18267021833012946943
21040471 1 18338797819251814468
21501502 16 18411423877875715724
2334 1 18266458715719409318
23419403 2 16684788428534146244
23552423 10 18044938119569904046
23559900 14 18199196084408437742
241688 4 18047467008913802322
25 1 17613424554747952373
2748010 2 18193838145942321766
369184 2 18410853239788481256
5084963 1 18335421244601871008
5255222 1 18338791333635108096
528886 8 18266735968669311186
63268167 104 18194117409063622472
81228 2 18337113483085986082

>  <PUBCHEM_SHAPE_MULTIPOLES>  (1) 
256.68
3.65
2.42
0.86
1.48
1
0
-0.22
0
-0.77
0
-0.38
-0.45
0

>  <PUBCHEM_SHAPE_SELFOVERLAP>  (1) 
553.081

>  <PUBCHEM_SHAPE_VOLUME>  (1) 
146.4

>  <PUBCHEM_COORDINATE_TYPE>  (1) 
2
5
10

$$$$
