30016
     RDKit          3D

 19 19  0  0  0  0  0  0  0  0999 V2000
    5.8530    2.0362    0.5731 Cl  0  0  0  0  0  0  0  0  0  0  0  0
   -1.2387    0.4258    0.0451 O   0  0  0  0  0  0  0  0  0  0  0  0
   -0.0815   -1.4852   -0.4436 O   0  0  0  0  0  0  0  0  0  0  0  0
   -4.8982    0.0237   -0.1354 N   0  0  0  0  0  0  0  0  0  0  0  0
    1.0038    0.5159    0.1022 N   0  0  0  0  0  0  0  0  0  0  0  0
   -3.6155    0.6926    0.0796 C   0  0  0  0  0  0  0  0  0  0  0  0
   -5.0378   -1.1170    0.7690 C   0  0  0  0  0  0  0  0  0  0  0  0
   -6.0026    0.9636    0.0531 C   0  0  0  0  0  0  0  0  0  0  0  0
   -2.4622   -0.2692   -0.1577 C   0  0  0  0  0  0  0  0  0  0  0  0
   -6.3384   -1.8609    0.5177 C   0  0  0  0  0  0  0  0  0  0  0  0
   -5.8738    2.1562   -0.8794 C   0  0  0  0  0  0  0  0  0  0  0  0
    2.3747    0.1791    0.0335 C   0  0  0  0  0  0  0  0  0  0  0  0
   -0.0857   -0.3011   -0.1300 C   0  0  0  0  0  0  0  0  0  0  0  0
    5.0626   -0.4824   -0.1029 C   0  0  0  0  0  0  0  0  0  0  0  0
    3.3273    1.1488    0.3032 C   0  0  0  0  0  0  0  0  0  0  0  0
    2.7396   -1.1149   -0.3031 C   0  0  0  0  0  0  0  0  0  0  0  0
    4.6801    0.8158    0.2346 C   0  0  0  0  0  0  0  0  0  0  0  0
    4.0923   -1.4478   -0.3718 C   0  0  0  0  0  0  0  0  0  0  0  0
    6.5010   -0.8792   -0.1871 C   0  0  0  0  0  0  0  0  0  0  0  0
  1 17  1  0
  2  9  1  0
  2 13  1  0
  3 13  2  0
  4  6  1  0
  4  7  1  0
  4  8  1  0
  5 12  1  0
  5 13  1  0
  6  9  1  0
  7 10  1  0
  8 11  1  0
 12 15  2  0
 12 16  1  0
 14 17  2  0
 14 18  1  0
 14 19  1  0
 15 17  1  0
 16 18  2  0
M  END
>  <PUBCHEM_COMPOUND_CID>  (1) 
30016

>  <PUBCHEM_CONFORMER_RMSD>  (1) 
0.8

>  <PUBCHEM_CONFORMER_DIVERSEORDER>  (1) 
1
182
59
155
168
185
154
126
120
78
131
181
30
112
25
183
104
124
54
46
163
149
148
72
92
32
83
141
178
82
76
111
150
17
135
177
191
51
136
28
190
132
170
156
207
169
5
113
11
77
60
9
206
165
68
159
193
108
85
180
153
97
186
18
19
115
62
74
91
188
144
205
29
95
107
43
53
189
102
67
122
21
119
93
198
203
13
152
142
187
116
26
197
7
98
50
167
109
23
33
195
65
133
121
4
140
38
58
15
145
27
172
48
6
179
24
79
138
184
118
41
105
86
61
151
39
35
81
176
44
110
199
20
201
47
45
101
49
158
196
31
127
114
70
146
171
3
12
204
200
22
40
2
73
202
173
75
36
160
71
16
69
143
55
90
139
137
8
42
129
10
100
37
96
117
103
166
194
52
80
34
123
175
162
157
87
192
56
14
147
161
164
88
106
130
89
99
174
64
128
63
66
94
84
57
125
134

>  <PUBCHEM_MMFF94_PARTIAL_CHARGES>  (1) 
21
1 -0.18
12 0.12
13 0.78
14 -0.14
15 -0.15
16 -0.15
17 0.18
18 -0.15
19 0.14
2 -0.43
3 -0.57
34 0.37
35 0.15
36 0.15
37 0.15
4 -0.81
5 -0.55
6 0.27
7 0.27
8 0.27
9 0.28

>  <PUBCHEM_EFFECTIVE_ROTOR_COUNT>  (1) 
8

>  <PUBCHEM_PHARMACOPHORE_FEATURES>  (1) 
4
1 3 acceptor
1 4 cation
1 5 donor
6 12 14 15 16 17 18 rings

>  <PUBCHEM_HEAVY_ATOM_COUNT>  (1) 
19

>  <PUBCHEM_ATOM_DEF_STEREO_COUNT>  (1) 
0

>  <PUBCHEM_ATOM_UDEF_STEREO_COUNT>  (1) 
0

>  <PUBCHEM_BOND_DEF_STEREO_COUNT>  (1) 
0

>  <PUBCHEM_BOND_UDEF_STEREO_COUNT>  (1) 
0

>  <PUBCHEM_ISOTOPIC_ATOM_COUNT>  (1) 
0

>  <PUBCHEM_COMPONENT_COUNT>  (1) 
1

>  <PUBCHEM_CACTVS_TAUTO_COUNT>  (1) 
2

>  <PUBCHEM_CONFORMER_ID>  (1) 
0000754000000001

>  <PUBCHEM_MMFF94_ENERGY>  (1) 
40.7508

>  <PUBCHEM_FEATURE_SELFOVERLAP>  (1) 
20.297

>  <PUBCHEM_SHAPE_FINGERPRINT>  (1) 
10 15 18335696213294082864
10638233 991 16271927155154008457
10835480 77 18411976962353172361
11287383 113 18409731776445608026
11315181 36 18343585149357401929
12091667 2 17748831804595576841
12236239 1 17846498140429126884
12596602 18 18334856129874065921
12616971 3 17846770815571703980
12730499 353 18342744035520273658
13167372 99 18130229259292486032
13533116 47 13973698183070200740
1420 363 18409735075281392523
14251732 16 18339361967168756691
14461889 52 18336543945111643218
14933364 13 18410576188633470641
15475509 35 17168969120925454658
15716309 27 18201721782274889335
16079462 125 18337098017014416941
17834072 33 18273214218165710270
17844677 252 18408611374582519141
19489759 90 17822012008695586449
20281389 69 18407758127731649361
20645477 70 18272374131617076486
21267235 1 18273222972089800854
21623969 137 18130796667511702591
21709351 56 18260826012635277773
220451 1 17095241397771541659
23081809 10 16660363675328965171
23402539 116 18113335306603028821
23536379 177 18408323267864697051
23559900 14 18411133628444531873
2916195 48 18408881871232346873
29717793 49 17275107198277854076
300161 21 17917703621830247716
335352 9 18344148082273379118
3545911 37 18342740741111110830
4073 2 18114187461973582243
4214541 1 18408605851417814437
42788 4 18411138034627049731
5104073 3 18408887300429491371
542803 24 16008750203655223581
59755656 215 18338237055268247478

>  <PUBCHEM_SHAPE_MULTIPOLES>  (1) 
371.18
19.63
1.91
0.75
10.62
0.35
-0.01
1.88
-0.99
0.73
0.03
0.27
0.05
1.93

>  <PUBCHEM_SHAPE_SELFOVERLAP>  (1) 
736.696

>  <PUBCHEM_SHAPE_VOLUME>  (1) 
222.2

>  <PUBCHEM_COORDINATE_TYPE>  (1) 
2
5
10

$$$$
