30014
     RDKit          3D

 20 21  0  0  0  0  0  0  0  0999 V2000
    5.2390   -2.9301   -0.2515 Cl  0  0  0  0  0  0  0  0  0  0  0  0
   -0.5386    0.6413   -0.0987 O   0  0  0  0  0  0  0  0  0  0  0  0
    0.6307   -1.3164   -0.2723 O   0  0  0  0  0  0  0  0  0  0  0  0
   -4.1913    0.2059   -0.3318 N   0  0  0  0  0  0  0  0  0  0  0  0
    1.7012    0.7458    0.0136 N   0  0  0  0  0  0  0  0  0  0  0  0
   -4.3882   -0.7568    0.7611 C   0  0  0  0  0  0  0  0  0  0  0  0
   -5.2989    1.1698   -0.3966 C   0  0  0  0  0  0  0  0  0  0  0  0
   -5.6963   -1.5297    0.5867 C   0  0  0  0  0  0  0  0  0  0  0  0
   -6.6369    0.4597   -0.6092 C   0  0  0  0  0  0  0  0  0  0  0  0
   -6.8876   -0.5853    0.4719 C   0  0  0  0  0  0  0  0  0  0  0  0
   -2.9149    0.9028   -0.1758 C   0  0  0  0  0  0  0  0  0  0  0  0
   -1.7560   -0.0794   -0.2370 C   0  0  0  0  0  0  0  0  0  0  0  0
    0.6185   -0.0996   -0.1322 C   0  0  0  0  0  0  0  0  0  0  0  0
    3.0733    0.4069    0.0361 C   0  0  0  0  0  0  0  0  0  0  0  0
    4.0341    1.3942    0.1921 C   0  0  0  0  0  0  0  0  0  0  0  0
    3.4297   -0.9265   -0.1014 C   0  0  0  0  0  0  0  0  0  0  0  0
    5.3832    1.0403    0.2114 C   0  0  0  0  0  0  0  0  0  0  0  0
    3.6646    2.8344    0.3413 C   0  0  0  0  0  0  0  0  0  0  0  0
    4.7787   -1.2803   -0.0821 C   0  0  0  0  0  0  0  0  0  0  0  0
    5.7556   -0.2969    0.0744 C   0  0  0  0  0  0  0  0  0  0  0  0
  1 19  1  0
  2 12  1  0
  2 13  1  0
  3 13  2  0
  4  6  1  0
  4  7  1  0
  4 11  1  0
  5 13  1  0
  5 14  1  0
  6  8  1  0
  7  9  1  0
  8 10  1  0
  9 10  1  0
 11 12  1  0
 14 15  2  0
 14 16  1  0
 15 17  1  0
 15 18  1  0
 16 19  2  0
 17 20  2  0
 19 20  1  0
M  END
>  <PUBCHEM_COMPOUND_CID>  (1) 
30014

>  <PUBCHEM_CONFORMER_RMSD>  (1) 
0.8

>  <PUBCHEM_CONFORMER_DIVERSEORDER>  (1) 
1
52
34
100
108
41
71
110
95
126
25
50
59
14
104
123
93
28
119
35
45
130
98
58
120
87
22
11
74
88
128
56
21
3
79
47
43
75
111
38
18
114
61
72
83
33
118
117
82
24
101
86
116
48
113
16
96
10
64
42
36
32
26
8
127
103
37
60
89
23
9
76
91
92
121
132
54
78
105
30
12
109
94
85
77
68
65
102
17
81
13
6
20
106
53
90
62
19
73
122
84
46
67
15
39
44
4
51
40
131
66
115
107
63
80
133
31
55
57
2
69
5
49
29
124
125
112
7
70
27
99
129
97

>  <PUBCHEM_MMFF94_PARTIAL_CHARGES>  (1) 
21
1 -0.18
11 0.27
12 0.28
13 0.78
14 0.12
15 -0.14
16 -0.15
17 -0.15
18 0.14
19 0.18
2 -0.43
20 -0.15
3 -0.57
35 0.37
36 0.15
37 0.15
4 -0.81
41 0.15
5 -0.55
6 0.27
7 0.27

>  <PUBCHEM_EFFECTIVE_ROTOR_COUNT>  (1) 
7.2

>  <PUBCHEM_PHARMACOPHORE_FEATURES>  (1) 
5
1 3 acceptor
1 4 cation
1 5 donor
6 14 15 16 17 19 20 rings
6 4 6 7 8 9 10 rings

>  <PUBCHEM_HEAVY_ATOM_COUNT>  (1) 
20

>  <PUBCHEM_ATOM_DEF_STEREO_COUNT>  (1) 
0

>  <PUBCHEM_ATOM_UDEF_STEREO_COUNT>  (1) 
0

>  <PUBCHEM_BOND_DEF_STEREO_COUNT>  (1) 
0

>  <PUBCHEM_BOND_UDEF_STEREO_COUNT>  (1) 
0

>  <PUBCHEM_ISOTOPIC_ATOM_COUNT>  (1) 
0

>  <PUBCHEM_COMPONENT_COUNT>  (1) 
1

>  <PUBCHEM_CACTVS_TAUTO_COUNT>  (1) 
2

>  <PUBCHEM_CONFORMER_ID>  (1) 
0000753E00000001

>  <PUBCHEM_MMFF94_ENERGY>  (1) 
36.634

>  <PUBCHEM_FEATURE_SELFOVERLAP>  (1) 
25.372

>  <PUBCHEM_SHAPE_FINGERPRINT>  (1) 
10411042 1 18124314905744840062
11045977 3 18261113006117377809
11287383 113 18408886260857611369
11315181 36 18408606972757927577
11719270 70 18131066000584323159
12166972 35 18335424581797384477
12236239 1 17918273138846777721
12616971 3 17846771914661384125
12730499 353 18411422847600399544
13073987 5 18272369733380544448
13167372 99 18131074779660831049
13533116 47 18343582932605618522
13955234 65 18271519884344327392
14170010 4 18342453756145326056
1420 363 18334579049049740583
14341114 176 18408889542328760909
14461889 52 18263640839374159794
14848160 23 18333733524666022635
14933364 13 18408042914054142837
15348495 7 18335423525482524809
15475509 35 17168686563379491616
15716309 27 18272651260366191959
17844677 252 18411143523943920345
18222031 100 16660364779061766188
18335252 98 18335145340181925731
19427546 62 18263926717235725448
19489759 90 17458061569574313673
20157964 124 18341613737413659896
20645477 70 18410856526040037814
21150785 3 17386014974699698526
21267235 1 18343024351208956582
21315759 40 17060615595054475095
21315763 129 18340205193977534597
21315763 28 18413387623360869573
21623969 137 18273219694375970775
220451 1 17989207079066417631
2303208 19 18186810170855087219
23081809 10 17704070703335013761
23402539 116 17676202490217757677
23536379 177 18412262822538354505
23559900 14 18335697282793790713
239999 70 18408605855623364386
3004659 81 18259985955370348306
3014965 18 18411416172551626950
34797466 226 17022628593284801710
3545911 37 18411699911355774164
4073 2 18041565844250997474
465052 167 18342741776330546622
5104073 3 18272368616477979920
59755656 215 17822009774759289403

>  <PUBCHEM_SHAPE_MULTIPOLES>  (1) 
391.76
19.77
2.22
0.72
20.01
0.25
0.03
3.49
0.73
-3.9
0.08
0.43
0.03
1.34

>  <PUBCHEM_SHAPE_SELFOVERLAP>  (1) 
795.547

>  <PUBCHEM_SHAPE_VOLUME>  (1) 
228.6

>  <PUBCHEM_COORDINATE_TYPE>  (1) 
2
5
10

$$$$
