30029
     RDKit          3D

 20 21  0  0  0  0  0  0  0  0999 V2000
    3.6521    3.0476    0.3490 Cl  0  0  0  0  0  0  0  0  0  0  0  0
    5.2064   -2.9649   -0.2400 Cl  0  0  0  0  0  0  0  0  0  0  0  0
   -0.5344    0.6355   -0.1028 O   0  0  0  0  0  0  0  0  0  0  0  0
    0.6327   -1.3244   -0.2656 O   0  0  0  0  0  0  0  0  0  0  0  0
   -4.1877    0.2028   -0.3331 N   0  0  0  0  0  0  0  0  0  0  0  0
    1.7054    0.7381    0.0088 N   0  0  0  0  0  0  0  0  0  0  0  0
   -4.3856   -0.7535    0.7651 C   0  0  0  0  0  0  0  0  0  0  0  0
   -5.2942    1.1675   -0.4032 C   0  0  0  0  0  0  0  0  0  0  0  0
   -5.6945   -1.5260    0.5949 C   0  0  0  0  0  0  0  0  0  0  0  0
   -6.6329    0.4578   -0.6117 C   0  0  0  0  0  0  0  0  0  0  0  0
   -6.8848   -0.5810    0.4751 C   0  0  0  0  0  0  0  0  0  0  0  0
   -2.9105    0.8992   -0.1811 C   0  0  0  0  0  0  0  0  0  0  0  0
   -1.7528   -0.0847   -0.2370 C   0  0  0  0  0  0  0  0  0  0  0  0
    0.6217   -0.1068   -0.1322 C   0  0  0  0  0  0  0  0  0  0  0  0
    3.0770    0.3978    0.0330 C   0  0  0  0  0  0  0  0  0  0  0  0
    4.0501    1.3747    0.1831 C   0  0  0  0  0  0  0  0  0  0  0  0
    3.4197   -0.9405   -0.0980 C   0  0  0  0  0  0  0  0  0  0  0  0
    4.7647   -1.3093   -0.0785 C   0  0  0  0  0  0  0  0  0  0  0  0
    5.3952    1.0060    0.2025 C   0  0  0  0  0  0  0  0  0  0  0  0
    5.7524   -0.3359    0.0718 C   0  0  0  0  0  0  0  0  0  0  0  0
  1 16  1  0
  2 18  1  0
  3 13  1  0
  3 14  1  0
  4 14  2  0
  5  7  1  0
  5  8  1  0
  5 12  1  0
  6 14  1  0
  6 15  1  0
  7  9  1  0
  8 10  1  0
  9 11  1  0
 10 11  1  0
 12 13  1  0
 15 16  2  0
 15 17  1  0
 16 19  1  0
 17 18  2  0
 18 20  1  0
 19 20  2  0
M  END
>  <PUBCHEM_COMPOUND_CID>  (1) 
30029

>  <PUBCHEM_CONFORMER_RMSD>  (1) 
0.8

>  <PUBCHEM_CONFORMER_DIVERSEORDER>  (1) 
1
48
94
35
16
56
92
80
43
76
106
28
79
34
42
110
14
71
85
13
102
73
65
32
46
53
128
66
37
75
54
18
100
38
90
87
60
29
109
15
17
126
45
82
118
93
52
69
20
108
116
25
31
26
112
78
12
63
121
23
30
97
124
91
131
51
67
103
33
62
104
129
21
105
50
68
77
114
84
72
111
10
74
11
99
7
27
130
123
19
57
4
39
113
88
70
47
81
64
55
95
5
83
89
115
59
8
98
117
58
96
49
122
61
40
9
86
41
120
125
119
36
101
24
44
107
2
22
3
127
6

>  <PUBCHEM_MMFF94_PARTIAL_CHARGES>  (1) 
21
1 -0.18
12 0.27
13 0.28
14 0.78
15 0.12
16 0.18
17 -0.15
18 0.18
19 -0.15
2 -0.18
20 -0.15
3 -0.43
35 0.37
36 0.15
37 0.15
38 0.15
4 -0.57
5 -0.81
6 -0.55
7 0.27
8 0.27

>  <PUBCHEM_EFFECTIVE_ROTOR_COUNT>  (1) 
7.2

>  <PUBCHEM_PHARMACOPHORE_FEATURES>  (1) 
5
1 4 acceptor
1 5 cation
1 6 donor
6 15 16 17 18 19 20 rings
6 5 7 8 9 10 11 rings

>  <PUBCHEM_HEAVY_ATOM_COUNT>  (1) 
20

>  <PUBCHEM_ATOM_DEF_STEREO_COUNT>  (1) 
0

>  <PUBCHEM_ATOM_UDEF_STEREO_COUNT>  (1) 
0

>  <PUBCHEM_BOND_DEF_STEREO_COUNT>  (1) 
0

>  <PUBCHEM_BOND_UDEF_STEREO_COUNT>  (1) 
0

>  <PUBCHEM_ISOTOPIC_ATOM_COUNT>  (1) 
0

>  <PUBCHEM_COMPONENT_COUNT>  (1) 
1

>  <PUBCHEM_CACTVS_TAUTO_COUNT>  (1) 
2

>  <PUBCHEM_CONFORMER_ID>  (1) 
0000754D00000001

>  <PUBCHEM_MMFF94_ENERGY>  (1) 
34.6209

>  <PUBCHEM_FEATURE_SELFOVERLAP>  (1) 
25.371

>  <PUBCHEM_SHAPE_FINGERPRINT>  (1) 
10411042 1 18124314905728989814
10835480 77 18409161092026759205
11045977 3 18261113006106847793
11287383 113 18408886260847061865
11315181 36 18408888447739906497
11719270 70 18202279169628861007
12166972 35 18335706056774095133
12236239 1 17917991659590917529
12616971 3 17774996899491248861
12730499 353 18411141372618407648
13073987 5 18272369729085564152
13167372 99 18131074783961086089
13533116 47 18343301457618364858
13955234 65 18343296003395027640
14170010 4 18342735231111519696
1420 363 18334579044749518031
14341114 176 18408889542297099413
14461889 52 18263640839358335530
14848160 23 18333733524666035627
14933364 13 18408042918338560629
15348495 7 18335703900947594697
15475509 35 17096346394842740704
15716309 27 18272651256050132151
17844677 252 18411424998915356265
18222031 100 16660365878578655732
19427546 62 18264208192207115880
19489759 90 17458344139767665313
20157964 124 18341613737413698872
20645477 70 18410856521750371262
21150785 3 17385734599239916390
21267235 1 18343024351203701326
21315759 40 17060615599354684679
21315763 129 18340205193966998077
21315763 28 18413387623355620797
21623969 137 18273219694370715519
220451 1 17989488549737643967
2303208 19 18186528695883664299
23081809 10 17704070703361381033
23402539 116 17676202485922770901
23536379 177 18411981347556349601
23559900 14 18335415803500974785
239999 70 18408887326299852474
3004659 81 18259704480409507370
3014965 18 18411415068739776614
34797466 226 17022911167773153134
3545911 37 18411699911361022940
4073 2 18041565844240441474
465052 167 18342741776320029598
5104073 3 18272087137206288976
59755656 215 17822009770485434115

>  <PUBCHEM_SHAPE_MULTIPOLES>  (1) 
393.63
19.71
2.33
0.72
20.72
0.02
-0.03
-3.48
-0.75
-4.33
-0.11
0.44
-0.02
1.34

>  <PUBCHEM_SHAPE_SELFOVERLAP>  (1) 
792.19

>  <PUBCHEM_SHAPE_VOLUME>  (1) 
231.5

>  <PUBCHEM_COORDINATE_TYPE>  (1) 
2
5
10

$$$$
