30033
     RDKit          3D

 19 19  0  0  0  0  0  0  0  0999 V2000
    2.6040   -2.4559    1.2332 Cl  0  0  0  0  0  0  0  0  0  0  0  0
    2.6968    2.6832   -0.6124 Cl  0  0  0  0  0  0  0  0  0  0  0  0
   -0.8388    0.2081    0.3950 O   0  0  0  0  0  0  0  0  0  0  0  0
    0.3722   -0.4666   -1.4238 O   0  0  0  0  0  0  0  0  0  0  0  0
   -4.4847    0.1043   -0.1368 N   0  0  0  0  0  0  0  0  0  0  0  0
    1.3999    0.2271    0.5619 N   0  0  0  0  0  0  0  0  0  0  0  0
   -3.2219    0.3154    0.5702 C   0  0  0  0  0  0  0  0  0  0  0  0
   -5.6149    0.4753    0.7140 C   0  0  0  0  0  0  0  0  0  0  0  0
   -4.6036   -1.2887   -0.5659 C   0  0  0  0  0  0  0  0  0  0  0  0
   -2.0418   -0.0275   -0.3249 C   0  0  0  0  0  0  0  0  0  0  0  0
   -5.5078    1.9207    1.1695 C   0  0  0  0  0  0  0  0  0  0  0  0
   -5.8820   -1.5127   -1.3557 C   0  0  0  0  0  0  0  0  0  0  0  0
    0.3343   -0.0527   -0.2715 C   0  0  0  0  0  0  0  0  0  0  0  0
    2.7798    0.1015    0.2826 C   0  0  0  0  0  0  0  0  0  0  0  0
    3.4282   -1.0960    0.5553 C   0  0  0  0  0  0  0  0  0  0  0  0
    3.4691    1.1770   -0.2621 C   0  0  0  0  0  0  0  0  0  0  0  0
    4.7898   -1.2201    0.2787 C   0  0  0  0  0  0  0  0  0  0  0  0
    4.8306    1.0531   -0.5389 C   0  0  0  0  0  0  0  0  0  0  0  0
    5.4908   -0.1455   -0.2686 C   0  0  0  0  0  0  0  0  0  0  0  0
  1 15  1  0
  2 16  1  0
  3 10  1  0
  3 13  1  0
  4 13  2  0
  5  7  1  0
  5  8  1  0
  5  9  1  0
  6 13  1  0
  6 14  1  0
  7 10  1  0
  8 11  1  0
  9 12  1  0
 14 15  2  0
 14 16  1  0
 15 17  1  0
 16 18  2  0
 17 19  2  0
 18 19  1  0
M  END
>  <PUBCHEM_COMPOUND_CID>  (1) 
30033

>  <PUBCHEM_CONFORMER_RMSD>  (1) 
0.8

>  <PUBCHEM_CONFORMER_DIVERSEORDER>  (1) 
1
48
25
39
68
26
73
21
43
22
83
38
20
61
59
55
84
11
75
63
74
98
70
78
23
40
5
82
64
29
87
34
72
7
88
52
33
53
24
80
50
14
76
18
96
16
35
94
17
86
54
69
66
49
89
93
67
28
12
46
97
56
44
15
13
85
57
58
3
32
79
27
10
51
6
4
42
2
37
91
95
45
31
60
65
19
36
47
77
92
81
30
8
90
9
41
71
62
99

>  <PUBCHEM_MMFF94_PARTIAL_CHARGES>  (1) 
21
1 -0.18
10 0.28
13 0.78
14 0.12
15 0.18
16 0.18
17 -0.15
18 -0.15
19 -0.15
2 -0.18
3 -0.43
34 0.37
35 0.15
36 0.15
37 0.15
4 -0.57
5 -0.81
6 -0.55
7 0.27
8 0.27
9 0.27

>  <PUBCHEM_EFFECTIVE_ROTOR_COUNT>  (1) 
8

>  <PUBCHEM_PHARMACOPHORE_FEATURES>  (1) 
4
1 4 acceptor
1 5 cation
1 6 donor
6 14 15 16 17 18 19 rings

>  <PUBCHEM_HEAVY_ATOM_COUNT>  (1) 
19

>  <PUBCHEM_ATOM_DEF_STEREO_COUNT>  (1) 
0

>  <PUBCHEM_ATOM_UDEF_STEREO_COUNT>  (1) 
0

>  <PUBCHEM_BOND_DEF_STEREO_COUNT>  (1) 
0

>  <PUBCHEM_BOND_UDEF_STEREO_COUNT>  (1) 
0

>  <PUBCHEM_ISOTOPIC_ATOM_COUNT>  (1) 
0

>  <PUBCHEM_COMPONENT_COUNT>  (1) 
1

>  <PUBCHEM_CACTVS_TAUTO_COUNT>  (1) 
2

>  <PUBCHEM_CONFORMER_ID>  (1) 
0000755100000001

>  <PUBCHEM_MMFF94_ENERGY>  (1) 
57.0756

>  <PUBCHEM_FEATURE_SELFOVERLAP>  (1) 
20.297

>  <PUBCHEM_SHAPE_FINGERPRINT>  (1) 
10354089 29 18408610253427210984
10366900 7 17821449062504648880
10595046 47 18340768230062059465
10693767 8 18340210666652652014
10912923 1 18412260636484396907
12107183 9 17689716359621723713
12236239 1 18201720656666072352
12596602 18 17917708024118985570
12616971 3 18411707595157898233
12730499 353 17748834012061223762
13167823 11 18412542132867677383
13533116 47 18260547783957737923
13785724 45 17765158267725663158
13836976 161 18333170583540276750
14341114 176 18334583412346513033
14528608 73 18408602595204882726
14573314 32 17240756259743812887
15250474 111 18339911667555167611
17834072 33 18410572902904257491
17844677 252 18334017177196778061
18681886 176 17846495971955978128
19489759 90 17561081402470866395
20645477 70 18334573512884843050
21033648 29 17095792300505695845
21065198 48 18412542094307800315
21267235 1 18335145233583112186
21709351 56 18342171172555421861
220451 1 18412548695508926059
23081809 10 18411138043222278561
23402539 116 18272930518775780933
23557571 272 16558480673195002673
23559900 14 18040715925946767896
300161 21 18411415099136525745
465052 167 18343866636522935774
5104073 3 18408884066013155963
542803 24 18344148085740047489
57091435 61 18056753463312840072
7495541 125 17846494885028533145
8272917 22 18337115575104298194

>  <PUBCHEM_SHAPE_MULTIPOLES>  (1) 
373.05
15.65
2.14
1.11
15.52
0.31
0.06
-0.2
0.32
-1.04
-0.22
0.99
-0.19
-2.73

>  <PUBCHEM_SHAPE_SELFOVERLAP>  (1) 
732.868

>  <PUBCHEM_SHAPE_VOLUME>  (1) 
225.9

>  <PUBCHEM_COORDINATE_TYPE>  (1) 
2
5
10

$$$$
