30045
     RDKit          3D

 19 20  0  0  0  0  0  0  0  0999 V2000
    4.0723    2.6712    0.4304 Cl  0  0  0  0  0  0  0  0  0  0  0  0
   -0.2359    0.4968   -0.0946 O   0  0  0  0  0  0  0  0  0  0  0  0
    0.8287   -1.5119   -0.3436 O   0  0  0  0  0  0  0  0  0  0  0  0
   -3.9074    0.2607   -0.3206 N   0  0  0  0  0  0  0  0  0  0  0  0
    2.0066    0.4803    0.0077 N   0  0  0  0  0  0  0  0  0  0  0  0
   -4.1497   -0.7282    0.7392 C   0  0  0  0  0  0  0  0  0  0  0  0
   -4.9633    1.2827   -0.3449 C   0  0  0  0  0  0  0  0  0  0  0  0
   -5.4972   -1.4254    0.5457 C   0  0  0  0  0  0  0  0  0  0  0  0
   -6.3374    0.6513   -0.5741 C   0  0  0  0  0  0  0  0  0  0  0  0
   -6.6379   -0.4168    0.4713 C   0  0  0  0  0  0  0  0  0  0  0  0
   -2.5956    0.8843   -0.1481 C   0  0  0  0  0  0  0  0  0  0  0  0
   -1.4900   -0.1542   -0.2506 C   0  0  0  0  0  0  0  0  0  0  0  0
    0.8806   -0.3017   -0.1609 C   0  0  0  0  0  0  0  0  0  0  0  0
    3.3592    0.0699    0.0099 C   0  0  0  0  0  0  0  0  0  0  0  0
    4.3820    0.9881    0.1945 C   0  0  0  0  0  0  0  0  0  0  0  0
    3.6311   -1.2779   -0.1773 C   0  0  0  0  0  0  0  0  0  0  0  0
    5.7062    0.5497    0.1916 C   0  0  0  0  0  0  0  0  0  0  0  0
    4.9552   -1.7163   -0.1800 C   0  0  0  0  0  0  0  0  0  0  0  0
    5.9927   -0.8025    0.0045 C   0  0  0  0  0  0  0  0  0  0  0  0
  1 15  1  0
  2 12  1  0
  2 13  1  0
  3 13  2  0
  4  6  1  0
  4  7  1  0
  4 11  1  0
  5 13  1  0
  5 14  1  0
  6  8  1  0
  7  9  1  0
  8 10  1  0
  9 10  1  0
 11 12  1  0
 14 15  2  0
 14 16  1  0
 15 17  1  0
 16 18  2  0
 17 19  2  0
 18 19  1  0
M  END
>  <PUBCHEM_COMPOUND_CID>  (1) 
30045

>  <PUBCHEM_CONFORMER_RMSD>  (1) 
0.8

>  <PUBCHEM_CONFORMER_DIVERSEORDER>  (1) 
1
74
92
37
77
30
58
115
64
93
67
15
48
101
73
19
91
8
121
86
66
51
55
100
65
90
45
9
71
97
61
96
32
56
22
52
2
119
110
16
11
13
79
23
28
98
49
47
24
31
104
62
88
46
29
33
43
117
87
63
20
34
60
106
95
69
38
18
53
116
78
27
14
112
76
94
82
118
89
83
114
68
41
12
120
54
105
35
17
107
70
99
10
113
103
39
111
21
36
81
85
75
42
7
108
44
80
26
6
59
50
72
40
109
57
25
84
102
3
4
5

>  <PUBCHEM_MMFF94_PARTIAL_CHARGES>  (1) 
21
1 -0.18
11 0.27
12 0.28
13 0.78
14 0.12
15 0.18
16 -0.15
17 -0.15
18 -0.15
19 -0.15
2 -0.43
3 -0.57
34 0.37
35 0.15
36 0.15
37 0.15
38 0.15
4 -0.81
5 -0.55
6 0.27
7 0.27

>  <PUBCHEM_EFFECTIVE_ROTOR_COUNT>  (1) 
7.2

>  <PUBCHEM_PHARMACOPHORE_FEATURES>  (1) 
5
1 3 acceptor
1 4 cation
1 5 donor
6 14 15 16 17 18 19 rings
6 4 6 7 8 9 10 rings

>  <PUBCHEM_HEAVY_ATOM_COUNT>  (1) 
19

>  <PUBCHEM_ATOM_DEF_STEREO_COUNT>  (1) 
0

>  <PUBCHEM_ATOM_UDEF_STEREO_COUNT>  (1) 
0

>  <PUBCHEM_BOND_DEF_STEREO_COUNT>  (1) 
0

>  <PUBCHEM_BOND_UDEF_STEREO_COUNT>  (1) 
0

>  <PUBCHEM_ISOTOPIC_ATOM_COUNT>  (1) 
0

>  <PUBCHEM_COMPONENT_COUNT>  (1) 
1

>  <PUBCHEM_CACTVS_TAUTO_COUNT>  (1) 
2

>  <PUBCHEM_CONFORMER_ID>  (1) 
0000755D00000001

>  <PUBCHEM_MMFF94_ENERGY>  (1) 
33.7287

>  <PUBCHEM_FEATURE_SELFOVERLAP>  (1) 
25.371

>  <PUBCHEM_SHAPE_FINGERPRINT>  (1) 
10 15 18335975463525174432
10411042 1 18052821348313576062
10638233 991 16486971838279762721
10835480 77 18337666430714839189
11045977 3 18333734645124933979
11287383 113 18409449197736135793
11315181 36 18408889534266366617
12091667 2 17846495916422109645
12166972 35 18408045125635746364
12236239 1 17561361772918334413
12516196 113 18411136939795777505
12616971 3 17846491551970537204
12730499 353 18410858772323634490
13167372 99 18131356258753180449
13533116 47 14261362306312092022
14170010 4 18343861131118537176
1420 363 18408045104445077351
14251732 16 18409449232417692475
14251764 18 18334009506674941370
14341114 176 18410015446419794553
14848160 23 18261112980558648371
14933364 13 18408887334488821445
15348495 7 18335985371471089019
15475509 35 17096347490159543536
15716309 27 18272932739585148383
17834072 33 18343018908425043919
17834076 25 15285360608947031179
17844677 252 18411424994488500673
18222031 100 16660364783478033292
19433438 28 18333447638235964957
19489759 90 17530965774580416009
20157964 124 18343021103754653888
20645477 70 18342177718328375246
21150785 3 17603877706338354862
21267235 1 18271529702861183150
21315759 40 16630522925625125215
21315763 129 18410573959498257181
21315763 28 18413387627413113821
21623969 137 18201726145407956311
220451 1 16845570915870299303
23035841 295 17967250884406267179
23081809 10 17561363993875505201
23402539 116 17749106695202825999
23536379 177 18410293592749150889
23557571 272 17386005014417175845
23559900 14 18335696187608837193
239999 70 18410858742132464190
3545911 37 18411982472943211100
4073 2 18040721410873381746
42630746 31 17846502500369903358
42788 4 18409729551874088197
465052 167 18341614781259790942
5104073 3 18340202986216528608
542803 24 15554447400874181314
54446538 1 18201719543879614024
59755656 215 18114463370530446875

>  <PUBCHEM_SHAPE_MULTIPOLES>  (1) 
371.18
19.23
1.82
0.72
13.07
0.57
-0.03
-0.78
-1.1
-1.98
-0.14
0.37
0
1.23

>  <PUBCHEM_SHAPE_SELFOVERLAP>  (1) 
753.216

>  <PUBCHEM_SHAPE_VOLUME>  (1) 
215.5

>  <PUBCHEM_COORDINATE_TYPE>  (1) 
2
5
10

$$$$
