30059
     RDKit          3D

 24 27  0  0  0  0  0  0  0  0999 V2000
   -5.1085   -2.0581    0.4204 O   0  0  0  0  0  0  0  0  0  0  0  0
   -5.8550   -0.4152   -1.1757 O   0  0  0  0  0  0  0  0  0  0  0  0
    4.0905   -2.1596    0.6140 O   0  0  0  0  0  0  0  0  0  0  0  0
    5.4374   -0.7123   -1.3389 O   0  0  0  0  0  0  0  0  0  0  0  0
   -0.5583    2.3831   -0.0361 N   0  0  0  0  0  0  0  0  0  0  0  0
   -2.1696    0.1565    0.5868 C   0  0  0  0  0  0  0  0  0  0  0  0
   -2.6137    1.1234   -0.3551 C   0  0  0  0  0  0  0  0  0  0  0  0
    1.1639    1.6463    1.4929 C   0  0  0  0  0  0  0  0  0  0  0  0
   -0.1694    1.4445    0.8535 C   0  0  0  0  0  0  0  0  0  0  0  0
   -0.9226    0.3315    1.1956 C   0  0  0  0  0  0  0  0  0  0  0  0
   -4.2032   -1.0565    0.2469 C   0  0  0  0  0  0  0  0  0  0  0  0
   -4.6293   -0.1195   -0.6634 C   0  0  0  0  0  0  0  0  0  0  0  0
    2.3108    1.0103    0.7343 C   0  0  0  0  0  0  0  0  0  0  0  0
   -2.9847   -0.9491    0.8870 C   0  0  0  0  0  0  0  0  0  0  0  0
   -3.8616    0.9800   -0.9872 C   0  0  0  0  0  0  0  0  0  0  0  0
   -1.7660    2.2005   -0.6166 C   0  0  0  0  0  0  0  0  0  0  0  0
    2.6728   -0.2919    1.0284 C   0  0  0  0  0  0  0  0  0  0  0  0
    2.9691    1.7470   -0.2338 C   0  0  0  0  0  0  0  0  0  0  0  0
   -6.1530   -1.6450   -0.4840 C   0  0  0  0  0  0  0  0  0  0  0  0
    3.7291   -0.8773    0.3303 C   0  0  0  0  0  0  0  0  0  0  0  0
    4.4052   -0.1506   -0.6498 C   0  0  0  0  0  0  0  0  0  0  0  0
    4.0252    1.1615   -0.9317 C   0  0  0  0  0  0  0  0  0  0  0  0
    3.4468   -3.1938   -0.1279 C   0  0  0  0  0  0  0  0  0  0  0  0
    6.7444   -0.5559   -0.7899 C   0  0  0  0  0  0  0  0  0  0  0  0
  1 11  1  0
  1 19  1  0
  2 12  1  0
  2 19  1  0
  3 20  1  0
  3 23  1  0
  4 21  1  0
  4 24  1  0
  5  9  1  0
  5 16  2  0
  6  7  1  0
  6 10  1  0
  6 14  2  0
  7 15  2  0
  7 16  1  0
  8  9  1  0
  8 13  1  0
  9 10  2  0
 11 12  2  0
 11 14  1  0
 12 15  1  0
 13 17  2  0
 13 18  1  0
 17 20  1  0
 18 22  2  0
 20 21  2  0
 21 22  1  0
M  END
>  <PUBCHEM_COMPOUND_CID>  (1) 
30059

>  <PUBCHEM_CONFORMER_RMSD>  (1) 
0.8

>  <PUBCHEM_CONFORMER_DIVERSEORDER>  (1) 
1
24
19
7
18
25
17
27
23
26
20
15
10
16
13
22
9
21
2
28
12
14
11
6
4
3
5
8

>  <PUBCHEM_MMFF94_PARTIAL_CHARGES>  (1) 
29
1 -0.36
10 -0.15
11 0.08
12 0.08
13 -0.14
14 -0.15
15 -0.15
16 0.16
17 -0.15
18 -0.15
19 0.56
2 -0.36
20 0.08
21 0.08
22 -0.15
23 0.28
24 0.28
27 0.15
28 0.15
29 0.15
3 -0.36
30 0.15
31 0.15
32 0.15
35 0.15
4 -0.36
5 -0.62
8 0.29
9 0.17

>  <PUBCHEM_EFFECTIVE_ROTOR_COUNT>  (1) 
4.6

>  <PUBCHEM_PHARMACOPHORE_FEATURES>  (1) 
9
1 1 acceptor
1 2 acceptor
1 3 acceptor
1 4 acceptor
1 5 acceptor
5 1 2 11 12 19 rings
6 13 17 18 20 21 22 rings
6 5 6 7 9 10 16 rings
6 6 7 11 12 14 15 rings

>  <PUBCHEM_HEAVY_ATOM_COUNT>  (1) 
24

>  <PUBCHEM_ATOM_DEF_STEREO_COUNT>  (1) 
0

>  <PUBCHEM_ATOM_UDEF_STEREO_COUNT>  (1) 
0

>  <PUBCHEM_BOND_DEF_STEREO_COUNT>  (1) 
0

>  <PUBCHEM_BOND_UDEF_STEREO_COUNT>  (1) 
0

>  <PUBCHEM_ISOTOPIC_ATOM_COUNT>  (1) 
0

>  <PUBCHEM_COMPONENT_COUNT>  (1) 
1

>  <PUBCHEM_CACTVS_TAUTO_COUNT>  (1) 
1

>  <PUBCHEM_CONFORMER_ID>  (1) 
0000756B00000001

>  <PUBCHEM_MMFF94_ENERGY>  (1) 
88.3557

>  <PUBCHEM_FEATURE_SELFOVERLAP>  (1) 
45.861

>  <PUBCHEM_SHAPE_FINGERPRINT>  (1) 
10319926 262 11312057681552560284
10498660 4 14418142807124548652
10692045 39 9006518077703700092
10928967 22 17988635298491892278
11796584 16 18201160953301992140
12596602 18 15625936577597643891
12670546 177 17894629253392728412
12760667 363 18131636686042206929
13402501 40 18341614840703745031
13533116 47 17773875479636261577
13631057 29 18342745075070891664
13668630 136 17988929980535028038
13955234 65 17843675805840207256
14123256 34 17988651800035421766
14251764 75 8862068689511456970
14576447 43 18410296878984707608
14790565 3 17545033802631118337
14849402 71 12031202032940771042
14866123 147 18054225432782468273
14931854 50 18261396611678072198
15183329 4 18408318866014004245
15188451 53 14836112287274080781
15238133 3 10159693612793674610
15348495 7 11383829394134990109
15475509 8 18260261929095865925
15537594 2 18059853999643964478
15575132 122 15430299314685530959
16110190 28 10879696681666296146
17349148 13 16916791833441877749
17870717 6 18260265270358219741
1813 80 16630536158245797608
193927 3 17989494021362558880
19784866 240 18059862769961933689
20281475 54 18341051830631130081
20645477 70 18409443717357924832
20871999 31 18040154006996643601
21033650 10 17240758441814695341
21054139 6 18336552634305209998
21307412 95 18410011083276867319
21315764 268 10951779568697740099
21637258 2 17561365092885979617
21703447 108 18059565923487617352
21756936 100 9293842491150171490
221357 26 18408039615160361977
2215653 11 18338786906219950565
22393880 68 18261673684450103636
22950370 63 18410857676954116737
23227448 37 8358247155853504705
23522609 53 18055949625243399937
23559900 14 18262234529273788672
239999 70 18202565107767064620
2838139 119 13551463774346485495
2871803 45 18334858337729959232
2916195 48 8646500613396653293
3004659 81 18259981583003970200
345986 75 17418094308576565507
3472631 163 14129348420141355398
34797466 226 17023186071898287079
351380 3 17704072901751601614
3737641 26 15553342297895390596
392239 28 10015587233479543143
4259306 186 18412257346397010221
439807 62 18334013874150746955
44062 13 18196088850444491965
46194498 28 17822854306820874620
463206 1 18270396208355395935
465052 167 17846222210424072229
474 4 10809335633673854785
58807428 26 12895082824951146653
59682541 35 17917981803532348610
6669772 16 18056757865949431168
7808743 9 9078241467492992058
7970288 3 17489875920869559158
960060 61 18334293201427122449

>  <PUBCHEM_SHAPE_MULTIPOLES>  (1) 
465.45
14.85
2.57
1.22
0.61
0.87
0.08
8.99
-5.81
-0.74
0.04
-0.23
-0.19
0.34

>  <PUBCHEM_SHAPE_SELFOVERLAP>  (1) 
1035.703

>  <PUBCHEM_SHAPE_VOLUME>  (1) 
248.8

>  <PUBCHEM_COORDINATE_TYPE>  (1) 
2
5
10

$$$$
