30053
     RDKit          3D

 20 21  0  0  0  0  0  0  0  0999 V2000
    3.5299   -2.9977    0.0285 Br  0  0  0  0  0  0  0  0  0  0  0  0
    2.5893    2.6654   -0.5671 Br  0  0  0  0  0  0  0  0  0  0  0  0
   -0.3614   -0.4171   -0.3676 O   0  0  0  0  0  0  0  0  0  0  0  0
    0.7776    0.7701    1.2209 O   0  0  0  0  0  0  0  0  0  0  0  0
   -4.0211   -0.3284    0.0637 N   0  0  0  0  0  0  0  0  0  0  0  0
    1.8800   -0.3853   -0.4909 N   0  0  0  0  0  0  0  0  0  0  0  0
   -5.0504   -1.2966   -0.3401 C   0  0  0  0  0  0  0  0  0  0  0  0
   -4.4120    1.0425   -0.2937 C   0  0  0  0  0  0  0  0  0  0  0  0
   -6.3923   -0.9848    0.3245 C   0  0  0  0  0  0  0  0  0  0  0  0
   -5.7330    1.4307    0.3720 C   0  0  0  0  0  0  0  0  0  0  0  0
   -6.8402    0.4414    0.0265 C   0  0  0  0  0  0  0  0  0  0  0  0
   -2.7338   -0.6677   -0.5423 C   0  0  0  0  0  0  0  0  0  0  0  0
   -1.5901   -0.0483    0.2450 C   0  0  0  0  0  0  0  0  0  0  0  0
    0.7841    0.0619    0.2215 C   0  0  0  0  0  0  0  0  0  0  0  0
    3.2468   -0.1315   -0.2354 C   0  0  0  0  0  0  0  0  0  0  0  0
    4.1180   -1.1915    0.0148 C   0  0  0  0  0  0  0  0  0  0  0  0
    3.7243    1.1791   -0.2336 C   0  0  0  0  0  0  0  0  0  0  0  0
    5.4669   -0.9411    0.2667 C   0  0  0  0  0  0  0  0  0  0  0  0
    5.0731    1.4295    0.0183 C   0  0  0  0  0  0  0  0  0  0  0  0
    5.9445    0.3694    0.2685 C   0  0  0  0  0  0  0  0  0  0  0  0
  1 16  1  0
  2 17  1  0
  3 13  1  0
  3 14  1  0
  4 14  2  0
  5  7  1  0
  5  8  1  0
  5 12  1  0
  6 14  1  0
  6 15  1  0
  7  9  1  0
  8 10  1  0
  9 11  1  0
 10 11  1  0
 12 13  1  0
 15 16  2  0
 15 17  1  0
 16 18  1  0
 17 19  2  0
 18 20  2  0
 19 20  1  0
M  END
>  <PUBCHEM_COMPOUND_CID>  (1) 
30053

>  <PUBCHEM_CONFORMER_RMSD>  (1) 
0.8

>  <PUBCHEM_CONFORMER_DIVERSEORDER>  (1) 
1
11
47
42
63
14
55
5
31
54
107
22
102
30
92
81
77
70
74
4
86
35
19
94
37
110
108
26
2
24
67
79
51
104
23
59
29
82
40
34
116
84
17
44
16
45
56
95
109
36
103
115
32
68
87
6
83
20
62
91
85
58
72
99
57
43
112
8
28
49
73
50
48
100
101
7
93
53
75
38
9
65
111
10
98
113
66
27
61
46
12
39
88
114
33
69
18
25
78
21
64
3
15
90
80
96
41
60
89
13
105
106
76
97
71
52

>  <PUBCHEM_MMFF94_PARTIAL_CHARGES>  (1) 
21
1 -0.11
12 0.27
13 0.28
14 0.78
15 0.12
16 0.11
17 0.11
18 -0.15
19 -0.15
2 -0.11
20 -0.15
3 -0.43
35 0.37
36 0.15
37 0.15
38 0.15
4 -0.57
5 -0.81
6 -0.55
7 0.27
8 0.27

>  <PUBCHEM_EFFECTIVE_ROTOR_COUNT>  (1) 
7.2

>  <PUBCHEM_PHARMACOPHORE_FEATURES>  (1) 
7
1 1 hydrophobe
1 2 hydrophobe
1 4 acceptor
1 5 cation
1 6 donor
6 15 16 17 18 19 20 rings
6 5 7 8 9 10 11 rings

>  <PUBCHEM_HEAVY_ATOM_COUNT>  (1) 
20

>  <PUBCHEM_ATOM_DEF_STEREO_COUNT>  (1) 
0

>  <PUBCHEM_ATOM_UDEF_STEREO_COUNT>  (1) 
0

>  <PUBCHEM_BOND_DEF_STEREO_COUNT>  (1) 
0

>  <PUBCHEM_BOND_UDEF_STEREO_COUNT>  (1) 
0

>  <PUBCHEM_ISOTOPIC_ATOM_COUNT>  (1) 
0

>  <PUBCHEM_COMPONENT_COUNT>  (1) 
1

>  <PUBCHEM_CACTVS_TAUTO_COUNT>  (1) 
2

>  <PUBCHEM_CONFORMER_ID>  (1) 
0000756500000001

>  <PUBCHEM_MMFF94_ENERGY>  (1) 
46.4471

>  <PUBCHEM_FEATURE_SELFOVERLAP>  (1) 
35.52

>  <PUBCHEM_SHAPE_FINGERPRINT>  (1) 
10411042 1 18049722920209500218
10595046 47 18412544336190804701
10688039 33 17822007588821675636
11287383 113 18335139812485032667
12107183 9 17692818090334279219
12236239 1 18273495680088648998
12516196 113 13470688152917896179
12616971 3 18201715197599193885
12788726 201 17274829008418485779
12916748 109 15719390620825311892
13073987 5 18412829053957559771
13167372 99 18413110532955385745
13533116 47 18343301431717062570
13785724 45 17838623249516319790
1420 363 15647053763771519481
14251732 16 18410293648821297267
14251752 14 18343864403255791305
14251764 18 18410291432185513045
14341114 176 18410296895721575645
14933364 13 18409168809708053741
15183329 4 18411138013463638137
15250474 111 18200299039682418719
17492 89 18126003763535701046
17834072 33 18412544327448006195
17844677 252 18409455773742736917
19427546 62 18263364858093240494
20157964 124 18410577288192428274
20281389 69 18409166602242900913
20645477 70 18411702054581735558
21267235 1 18412547575155490582
21315763 178 18059847385494529238
220451 1 17988925582889482255
23081809 10 17917707985944398815
23402539 116 18411696595503800373
23536379 177 18410011026935156051
23559900 14 18409444829675248729
239999 70 18273220768571605614
29717793 49 17704078374167599868
300161 21 17846493746751598638
3004659 81 18341615889065856494
3545911 37 18410293622724354980
4073 2 18113904908865310123
4214541 1 18410855469303639429
4340502 62 18260546727781183986
5104073 3 18337398145519144579
54446538 1 18409449202590681541
59755656 520 17603301583715228403
7495541 125 17988079006074967177
8272917 22 18411420601211574390
9996256 80 18412261766340565287

>  <PUBCHEM_SHAPE_MULTIPOLES>  (1) 
401.77
18.46
2.35
0.76
21.84
0.32
0.04
0.31
1.11
-2.86
-0.22
-0.02
-0.07
-0.39

>  <PUBCHEM_SHAPE_SELFOVERLAP>  (1) 
796.914

>  <PUBCHEM_SHAPE_VOLUME>  (1) 
243.2

>  <PUBCHEM_COORDINATE_TYPE>  (1) 
2
5
10

$$$$
