30051
     RDKit          3D

 19 19  0  0  0  0  0  0  0  0999 V2000
   -2.5214   -2.7272    1.2636 Br  0  0  0  0  0  0  0  0  0  0  0  0
   -2.4286    2.7873   -0.4367 Br  0  0  0  0  0  0  0  0  0  0  0  0
    0.8296    0.5474    1.1804 O   0  0  0  0  0  0  0  0  0  0  0  0
   -0.0321    0.7654   -0.9267 O   0  0  0  0  0  0  0  0  0  0  0  0
    4.1598   -0.0633   -0.2767 N   0  0  0  0  0  0  0  0  0  0  0  0
   -1.3643    0.1616    0.9011 N   0  0  0  0  0  0  0  0  0  0  0  0
    2.8345   -0.3749    0.2577 C   0  0  0  0  0  0  0  0  0  0  0  0
    4.8299   -1.2835   -0.7247 C   0  0  0  0  0  0  0  0  0  0  0  0
    4.9682    0.6238    0.7297 C   0  0  0  0  0  0  0  0  0  0  0  0
    2.1159    0.8950    0.6849 C   0  0  0  0  0  0  0  0  0  0  0  0
    4.0035   -2.0110   -1.7716 C   0  0  0  0  0  0  0  0  0  0  0  0
    6.3276    1.0099    0.1719 C   0  0  0  0  0  0  0  0  0  0  0  0
   -0.1917    0.5139    0.2615 C   0  0  0  0  0  0  0  0  0  0  0  0
   -2.6515    0.0095    0.3372 C   0  0  0  0  0  0  0  0  0  0  0  0
   -3.3061   -1.2197    0.4153 C   0  0  0  0  0  0  0  0  0  0  0  0
   -3.2671    1.0885   -0.2972 C   0  0  0  0  0  0  0  0  0  0  0  0
   -4.5765   -1.3699   -0.1409 C   0  0  0  0  0  0  0  0  0  0  0  0
   -4.5375    0.9381   -0.8534 C   0  0  0  0  0  0  0  0  0  0  0  0
   -5.1922   -0.2909   -0.7753 C   0  0  0  0  0  0  0  0  0  0  0  0
  1 15  1  0
  2 16  1  0
  3 10  1  0
  3 13  1  0
  4 13  2  0
  5  7  1  0
  5  8  1  0
  5  9  1  0
  6 13  1  0
  6 14  1  0
  7 10  1  0
  8 11  1  0
  9 12  1  0
 14 15  2  0
 14 16  1  0
 15 17  1  0
 16 18  2  0
 17 19  2  0
 18 19  1  0
M  END
>  <PUBCHEM_COMPOUND_CID>  (1) 
30051

>  <PUBCHEM_CONFORMER_RMSD>  (1) 
0.8

>  <PUBCHEM_CONFORMER_DIVERSEORDER>  (1) 
6
15
68
81
74
138
125
76
65
12
47
36
26
126
39
113
99
45
51
24
55
29
49
133
16
140
20
58
87
61
2
30
70
116
67
141
73
3
21
71
91
10
1
111
142
101
56
7
86
131
35
66
137
25
120
4
40
52
38
27
43
79
122
18
11
83
8
13
37
90
9
80
103
42
82
114
54
17
78
127
72
5
102
77
33
44
22
53
48
143
59
41
97
96
31
132
134
85
98
88
64
28
46
60
115
94
110
107
63
130
124
95
84
128
14
23
112
89
109
19
118
34
93
92
57
100
123
117
50
32
62
121
119
129
108
106
69
105
104
135
139
136
75

>  <PUBCHEM_MMFF94_PARTIAL_CHARGES>  (1) 
21
1 -0.11
10 0.28
13 0.78
14 0.12
15 0.11
16 0.11
17 -0.15
18 -0.15
19 -0.15
2 -0.11
3 -0.43
34 0.37
35 0.15
36 0.15
37 0.15
4 -0.57
5 -0.81
6 -0.55
7 0.27
8 0.27
9 0.27

>  <PUBCHEM_EFFECTIVE_ROTOR_COUNT>  (1) 
8

>  <PUBCHEM_PHARMACOPHORE_FEATURES>  (1) 
6
1 1 hydrophobe
1 2 hydrophobe
1 4 acceptor
1 5 cation
1 6 donor
6 14 15 16 17 18 19 rings

>  <PUBCHEM_HEAVY_ATOM_COUNT>  (1) 
19

>  <PUBCHEM_ATOM_DEF_STEREO_COUNT>  (1) 
0

>  <PUBCHEM_ATOM_UDEF_STEREO_COUNT>  (1) 
0

>  <PUBCHEM_BOND_DEF_STEREO_COUNT>  (1) 
0

>  <PUBCHEM_BOND_UDEF_STEREO_COUNT>  (1) 
0

>  <PUBCHEM_ISOTOPIC_ATOM_COUNT>  (1) 
0

>  <PUBCHEM_COMPONENT_COUNT>  (1) 
1

>  <PUBCHEM_CACTVS_TAUTO_COUNT>  (1) 
2

>  <PUBCHEM_CONFORMER_ID>  (1) 
0000756300000006

>  <PUBCHEM_MMFF94_ENERGY>  (1) 
52.4204

>  <PUBCHEM_FEATURE_SELFOVERLAP>  (1) 
30.446

>  <PUBCHEM_SHAPE_FINGERPRINT>  (1) 
11315181 36 18130788992183293513
12236239 1 16660636358539399728
12616971 3 14490473101647491690
13288520 33 18409726296816385453
13533116 47 17203609259536914262
14251718 22 18410570708328982552
14251740 79 18339084791855314211
14251757 17 18341900658198340714
14386348 63 18272091616894185658
14573314 32 18412262813679466020
14910302 57 18188489060696904030
15537594 2 16773792610997698132
15961568 22 18041279976203887892
17844677 252 18342462513061636888
17870717 6 18409174290107572031
19489759 90 18260544515608905584
200 152 17275101734820763193
20645477 70 17703792471169440310
20681677 155 18040994038333136777
20871999 31 18408884014468571769
21033650 10 17751373785264076476
21267235 1 18187365484920905371
21623969 137 17846780707013567246
22224240 67 8646492960271509893
22849339 104 18041575718618778755
2297311 6 18408042922912946813
23402539 116 18041272235833146725
23557571 272 18409727357262364100
23559900 14 18337944701049913113
239999 70 18342177757220321182
3004659 81 18334575695092187474
314194 84 17275101730547096230
34797466 226 18409453613136894916
351380 3 15339117940216399748
4325135 7 18261392287046483596
5104073 3 17846217692477199402
5283173 99 18338232665885718592
59755656 215 18335135376617811407
9709674 26 18411703205089430955

>  <PUBCHEM_SHAPE_MULTIPOLES>  (1) 
381.2
13.8
2.46
1.21
14.55
0.35
0.22
0.97
2.63
-2.01
-0.01
0.59
0.5
2.16

>  <PUBCHEM_SHAPE_SELFOVERLAP>  (1) 
739.392

>  <PUBCHEM_SHAPE_VOLUME>  (1) 
236.6

>  <PUBCHEM_COORDINATE_TYPE>  (1) 
2
5
10

$$$$
