30069
     RDKit          3D

 36 41  0  0  1  0  0  0  0  0999 V2000
    5.8725    3.9413    1.2886 O   0  0  0  0  0  0  0  0  0  0  0  0
   -5.9613    3.8884   -1.2945 O   0  0  0  0  0  0  0  0  0  0  0  0
    4.3523    4.0157   -0.5792 O   0  0  0  0  0  0  0  0  0  0  0  0
   -4.4469    4.0000    0.5760 O   0  0  0  0  0  0  0  0  0  0  0  0
    4.6929   -2.1250   -0.3981 N   0  0  0  0  0  0  0  0  0  0  0  0
   -4.6435   -2.1471    0.4005 N   0  0  0  0  0  0  0  0  0  0  0  0
    6.0668   -2.1540    0.1309 C   0  0  0  0  0  0  0  0  0  0  0  0
   -6.0152   -2.2087   -0.1313 C   0  0  0  0  0  0  0  0  0  0  0  0
    6.2230   -1.0002    1.1426 C   0  0  0  0  0  0  0  0  0  0  0  0
   -6.1964   -1.0599   -1.1443 C   0  0  0  0  0  0  0  0  0  0  0  0
    4.4022   -0.9057   -1.1652 C   0  0  0  0  0  0  0  0  0  0  0  0
   -4.3828   -0.9206    1.1669 C   0  0  0  0  0  0  0  0  0  0  0  0
    4.3489   -3.3202   -1.1633 C   0  0  0  0  0  0  0  0  0  0  0  0
   -4.2731   -3.3333    1.1674 C   0  0  0  0  0  0  0  0  0  0  0  0
    5.7180    0.3260    0.6297 C   0  0  0  0  0  0  0  0  0  0  0  0
   -5.7235    0.2782   -0.6317 C   0  0  0  0  0  0  0  0  0  0  0  0
    4.8072    0.3666   -0.4551 C   0  0  0  0  0  0  0  0  0  0  0  0
   -4.8161    0.3412    0.4548 C   0  0  0  0  0  0  0  0  0  0  0  0
    2.8554   -3.3814   -1.4885 C   0  0  0  0  0  0  0  0  0  0  0  0
   -2.7793   -3.3588    1.4957 C   0  0  0  0  0  0  0  0  0  0  0  0
    1.9669   -3.3619   -0.2409 C   0  0  0  0  0  0  0  0  0  0  0  0
   -1.8892   -3.3197    0.2496 C   0  0  0  0  0  0  0  0  0  0  0  0
    0.4837   -3.3525   -0.6176 C   0  0  0  0  0  0  0  0  0  0  0  0
   -0.4066   -3.3622    0.6262 C   0  0  0  0  0  0  0  0  0  0  0  0
    7.1844   -2.1235   -0.9238 C   0  0  0  0  0  0  0  0  0  0  0  0
   -7.1353   -2.2034    0.9213 C   0  0  0  0  0  0  0  0  0  0  0  0
    6.1075    1.5124    1.2700 C   0  0  0  0  0  0  0  0  0  0  0  0
   -6.1394    1.4545   -1.2740 C   0  0  0  0  0  0  0  0  0  0  0  0
    4.3177    1.5989   -0.9166 C   0  0  0  0  0  0  0  0  0  0  0  0
   -4.3564    1.5851    0.9160 C   0  0  0  0  0  0  0  0  0  0  0  0
    5.5988    2.7031    0.7945 C   0  0  0  0  0  0  0  0  0  0  0  0
   -5.6596    2.6573   -0.7987 C   0  0  0  0  0  0  0  0  0  0  0  0
    4.7301    2.7454   -0.2695 C   0  0  0  0  0  0  0  0  0  0  0  0
   -4.7942    2.7209    0.2670 C   0  0  0  0  0  0  0  0  0  0  0  0
    5.0796    4.7685    0.4129 C   0  0  0  0  0  0  0  0  0  0  0  0
   -5.1896    4.7346   -0.4181 C   0  0  0  0  0  0  0  0  0  0  0  0
  1 31  1  0
  1 35  1  0
  2 32  1  0
  2 36  1  0
  3 33  1  0
  3 35  1  0
  4 34  1  0
  4 36  1  0
  5  7  1  0
  5 11  1  0
  5 13  1  0
  6  8  1  0
  6 12  1  0
  6 14  1  0
  7  9  1  0
  7 25  1  0
  8 10  1  0
  8 26  1  0
  9 15  1  0
 10 16  1  0
 11 17  1  0
 12 18  1  0
 13 19  1  0
 14 20  1  0
 15 17  2  0
 15 27  1  0
 16 18  2  0
 16 28  1  0
 17 29  1  0
 18 30  1  0
 19 21  1  0
 20 22  1  0
 21 23  1  0
 22 24  1  0
 23 24  1  0
 27 31  2  0
 28 32  2  0
 29 33  2  0
 30 34  2  0
 31 33  1  0
 32 34  1  0
M  END
>  <PUBCHEM_COMPOUND_CID>  (1) 
30069

>  <PUBCHEM_CONFORMER_RMSD>  (1) 
1.6

>  <PUBCHEM_CONFORMER_DIVERSEORDER>  (1) 
2
65
101
154
12
50
74
25
3
117
11
159
37
34
88
104
5
119
138
14
76
24
9
136
15
6
87
121
109
129
57
150
7
140
82
131
93
4
79
103
83
66
35
141
142
128
36
39
102
19
112
60
137
80
58
64
148
116
22
42
49
127
75
40
56
27
139
68
38
124
156
134
146
1
32
86
47
51
33
132
81
115
153
16
107
21
13
43
10
118
20
89
158
8
149
84
114
110
147
130
67
30
90
41
59
78
45
62
46
152
85
135
144
100
122
126
48
99
145
133
105
54
52
120
143
77
26
28
53
92
155
70
23
125
157
108
111
97
91
17
94
55
96
113
98
71
106
72
123
18
29
63
31
44
95
69
151
73
61

>  <PUBCHEM_MMFF94_PARTIAL_CHARGES>  (1) 
32
1 -0.36
10 0.14
11 0.41
12 0.41
13 0.27
14 0.27
15 -0.14
16 -0.14
17 -0.14
18 -0.14
2 -0.36
27 -0.15
28 -0.15
29 -0.15
3 -0.36
30 -0.15
31 0.08
32 0.08
33 0.08
34 0.08
35 0.56
36 0.56
4 -0.36
5 -0.81
6 -0.81
69 0.15
7 0.27
70 0.15
71 0.15
72 0.15
8 0.27
9 0.14

>  <PUBCHEM_EFFECTIVE_ROTOR_COUNT>  (1) 
11.8

>  <PUBCHEM_PHARMACOPHORE_FEATURES>  (1) 
14
1 1 acceptor
1 2 acceptor
1 3 acceptor
1 4 acceptor
1 5 cation
1 6 cation
3 19 21 23 hydrophobe
3 20 22 24 hydrophobe
5 1 3 31 33 35 rings
5 2 4 32 34 36 rings
6 15 17 27 29 31 33 rings
6 16 18 28 30 32 34 rings
6 5 7 9 11 15 17 rings
6 6 8 10 12 16 18 rings

>  <PUBCHEM_HEAVY_ATOM_COUNT>  (1) 
36

>  <PUBCHEM_ATOM_DEF_STEREO_COUNT>  (1) 
0

>  <PUBCHEM_ATOM_UDEF_STEREO_COUNT>  (1) 
2

>  <PUBCHEM_BOND_DEF_STEREO_COUNT>  (1) 
0

>  <PUBCHEM_BOND_UDEF_STEREO_COUNT>  (1) 
0

>  <PUBCHEM_ISOTOPIC_ATOM_COUNT>  (1) 
0

>  <PUBCHEM_COMPONENT_COUNT>  (1) 
1

>  <PUBCHEM_CACTVS_TAUTO_COUNT>  (1) 
1

>  <PUBCHEM_CONFORMER_ID>  (1) 
0000757500000002

>  <PUBCHEM_MMFF94_ENERGY>  (1) 
73.2718

>  <PUBCHEM_FEATURE_SELFOVERLAP>  (1) 
71.401

>  <PUBCHEM_SHAPE_FINGERPRINT>  (1) 
10864689 126 17903926551871259038
11050421 43 18337101277801404112
11476731 118 18124032592341879031
11479125 193 18200867508557388886
11621639 148 18192722366108284803
12128747 34 18340769333552371069
12728209 76 18409158939646400682
14556957 393 16845298176941952419
15320295 198 18339369573914975886
16067689 134 17693666913475205689
16708801 149 18411127026673401739
16992828 155 17839463632628505679
20058555 10 18410857697848756287
21136928 126 16462485336657814265
21353434 59 18186798054568028332
21599406 157 18342742926849194625
23516275 100 18194964269341113733
241686 156 18336835203755048916
2838139 119 18411138021943614991
354706 109 18337092515087022793
373842 8 18410858801755181966
4144715 1 18260561042870869258
437795 171 18339640174050570608
44575985 347 17768524242707973152
550186 72 17907019826226335567
57366028 249 18339077078991408021
6677587 24 17489587870741043238
99344 41 18339636750950793832

>  <PUBCHEM_SHAPE_MULTIPOLES>  (1) 
707.42
25.29
7.82
1.36
0.36
5.78
0
10.85
0.13
-0.03
-0.02
0.01
-0.28
4.95

>  <PUBCHEM_SHAPE_SELFOVERLAP>  (1) 
1520.512

>  <PUBCHEM_SHAPE_VOLUME>  (1) 
391.5

>  <PUBCHEM_COORDINATE_TYPE>  (1) 
2
5
10

$$$$
