30062
     RDKit          3D

 19 20  0  0  0  0  0  0  0  0999 V2000
   -1.9038   -2.5514   -0.4733 O   0  0  0  0  0  0  0  0  0  0  0  0
   -4.0145   -1.0169    0.4769 O   0  0  0  0  0  0  0  0  0  0  0  0
    1.1449    2.6915   -0.2049 N   0  0  0  0  0  0  0  0  0  0  0  0
    2.9944    0.0211    0.1627 C   0  0  0  0  0  0  0  0  0  0  0  0
    2.1099    0.6274   -0.9394 C   0  0  0  0  0  0  0  0  0  0  0  0
    4.2391   -0.6796   -0.3909 C   0  0  0  0  0  0  0  0  0  0  0  0
    0.9201    1.3772   -0.4290 C   0  0  0  0  0  0  0  0  0  0  0  0
   -0.3021    0.7368   -0.2150 C   0  0  0  0  0  0  0  0  0  0  0  0
    5.1034   -1.2451    0.7368 C   0  0  0  0  0  0  0  0  0  0  0  0
   -1.3713    1.5197    0.2676 C   0  0  0  0  0  0  0  0  0  0  0  0
   -0.4945   -0.6328   -0.4603 C   0  0  0  0  0  0  0  0  0  0  0  0
   -2.6160    0.9104    0.4952 C   0  0  0  0  0  0  0  0  0  0  0  0
    6.3602   -1.9082    0.1960 C   0  0  0  0  0  0  0  0  0  0  0  0
   -1.1591    2.8826    0.5060 C   0  0  0  0  0  0  0  0  0  0  0  0
   -1.7375   -1.2214   -0.2290 C   0  0  0  0  0  0  0  0  0  0  0  0
   -2.7959   -0.4515    0.2478 C   0  0  0  0  0  0  0  0  0  0  0  0
    0.0989    3.4095    0.2567 C   0  0  0  0  0  0  0  0  0  0  0  0
   -1.6362   -3.4466    0.6042 C   0  0  0  0  0  0  0  0  0  0  0  0
   -4.9400   -1.0227   -0.6080 C   0  0  0  0  0  0  0  0  0  0  0  0
  1 15  1  0
  1 18  1  0
  2 16  1  0
  2 19  1  0
  3  7  2  0
  3 17  1  0
  4  5  1  0
  4  6  1  0
  5  7  1  0
  6  9  1  0
  7  8  1  0
  8 10  2  0
  8 11  1  0
  9 13  1  0
 10 12  1  0
 10 14  1  0
 11 15  2  0
 12 16  2  0
 14 17  2  0
 15 16  1  0
M  END
>  <PUBCHEM_COMPOUND_CID>  (1) 
30062

>  <PUBCHEM_CONFORMER_RMSD>  (1) 
0.8

>  <PUBCHEM_CONFORMER_DIVERSEORDER>  (1) 
1
19
29
15
27
11
20
14
4
28
2
7
24
5
6
22
13
26
18
3
25
10
21
12
9
16
23
8
17

>  <PUBCHEM_MMFF94_PARTIAL_CHARGES>  (1) 
17
1 -0.36
11 -0.15
12 -0.15
14 -0.15
15 0.08
16 0.08
17 0.16
18 0.28
19 0.28
2 -0.36
28 0.15
29 0.15
3 -0.62
33 0.15
34 0.15
5 0.14
7 0.17

>  <PUBCHEM_EFFECTIVE_ROTOR_COUNT>  (1) 
6

>  <PUBCHEM_PHARMACOPHORE_FEATURES>  (1) 
7
1 1 acceptor
1 13 hydrophobe
1 2 acceptor
1 3 acceptor
4 4 5 6 9 hydrophobe
6 3 7 8 10 14 17 rings
6 8 10 11 12 15 16 rings

>  <PUBCHEM_HEAVY_ATOM_COUNT>  (1) 
19

>  <PUBCHEM_ATOM_DEF_STEREO_COUNT>  (1) 
0

>  <PUBCHEM_ATOM_UDEF_STEREO_COUNT>  (1) 
0

>  <PUBCHEM_BOND_DEF_STEREO_COUNT>  (1) 
0

>  <PUBCHEM_BOND_UDEF_STEREO_COUNT>  (1) 
0

>  <PUBCHEM_ISOTOPIC_ATOM_COUNT>  (1) 
0

>  <PUBCHEM_COMPONENT_COUNT>  (1) 
1

>  <PUBCHEM_CACTVS_TAUTO_COUNT>  (1) 
2

>  <PUBCHEM_CONFORMER_ID>  (1) 
0000756E00000001

>  <PUBCHEM_MMFF94_ENERGY>  (1) 
64.7572

>  <PUBCHEM_FEATURE_SELFOVERLAP>  (1) 
35.552

>  <PUBCHEM_SHAPE_FINGERPRINT>  (1) 
10319926 262 18125985085403251074
10967382 1 18197223761461850813
1100329 8 18337392750750440347
11056379 131 18267314123577230308
11265709 11 18410855469087452540
11578080 2 17895175724116519652
11680986 33 18053666064462291833
12507560 14 18272091642785088021
12523318 42 18266723698665015976
12553582 1 18268730422590298406
12555020 224 18335692880141361959
12760667 363 18410571773528565734
12788726 201 18338251396459181252
13004483 165 18411972572985727452
13140716 1 18197224847930184803
13583140 156 13181089911150000733
13862211 1 18413106178080028807
14420673 8 17619631281583013286
14866123 147 18267870475769593681
15042514 8 18339365145661171168
15442244 35 18269562813417841977
15927050 60 17693095163164735301
16752209 62 18334849490065661221
16945 1 18197514019884026053
17492 89 17979070810314759255
17804303 29 18343304743279025552
17977361 122 18408602543818600146
1813 80 17749101206446124924
19784866 135 18411415081914497864
21267235 1 18409174302681334834
21650355 55 18340486673439148976
2297311 6 18271816670921503142
2334 1 17621608636795147941
23366157 5 17974573807509014964
23402539 116 18272645723583466517
23557571 272 18201730501163618830
23559900 14 18268144443080498344
23728640 28 18337395916072304642
2748010 2 17909010715503217605
335352 9 18411138031070743053
5104073 3 18271536376306795697
559249 180 18115302255400815570
58807428 26 17980496558798756273
6138700 20 18410291376731207471
7364860 26 18055075629383910368
7970288 3 18409728482396550962
81228 2 18128561317301103725

>  <PUBCHEM_SHAPE_MULTIPOLES>  (1) 
374.29
9.52
3.76
0.82
14.19
0.81
-0.02
-8.54
0.72
-1.45
0.6
0.06
-0.05
-0.62

>  <PUBCHEM_SHAPE_SELFOVERLAP>  (1) 
780.72

>  <PUBCHEM_SHAPE_VOLUME>  (1) 
214.7

>  <PUBCHEM_COORDINATE_TYPE>  (1) 
2
5
10

$$$$
