30075
     RDKit          3D

 21 23  0  0  1  0  0  0  0  0999 V2000
   -2.2514    2.8108   -0.3662 O   0  0  0  0  0  0  0  0  0  0  0  0
   -4.1116    1.5181    0.4539 O   0  0  0  0  0  0  0  0  0  0  0  0
    1.0036   -2.2657    0.2941 N   0  0  0  0  0  0  0  0  0  0  0  0
    1.8972   -0.4305   -1.0206 C   0  0  0  0  0  0  0  0  0  0  0  0
    0.6470   -1.2687   -0.7302 C   0  0  0  0  0  0  0  0  0  0  0  0
    2.2457    0.3890    0.2539 C   0  0  0  0  0  0  0  0  0  0  0  0
   -0.5971   -0.4728   -0.3732 C   0  0  0  0  0  0  0  0  0  0  0  0
   -0.1252   -2.9603    0.9340 C   0  0  0  0  0  0  0  0  0  0  0  0
   -1.4966   -2.7071    0.2860 C   0  0  0  0  0  0  0  0  0  0  0  0
   -1.7000   -1.2243    0.1154 C   0  0  0  0  0  0  0  0  0  0  0  0
    1.6033    0.5010   -2.2111 C   0  0  0  0  0  0  0  0  0  0  0  0
    3.0510   -1.3777   -1.3991 C   0  0  0  0  0  0  0  0  0  0  0  0
    3.4426    1.3408    0.1366 C   0  0  0  0  0  0  0  0  0  0  0  0
   -0.7336    0.9090   -0.5583 C   0  0  0  0  0  0  0  0  0  0  0  0
    0.1867   -4.4537    0.9794 C   0  0  0  0  0  0  0  0  0  0  0  0
   -2.9235   -0.6112    0.4080 C   0  0  0  0  0  0  0  0  0  0  0  0
    3.6422    2.1337    1.4306 C   0  0  0  0  0  0  0  0  0  0  0  0
   -1.9493    1.4882   -0.2476 C   0  0  0  0  0  0  0  0  0  0  0  0
   -3.0123    0.7508    0.2195 C   0  0  0  0  0  0  0  0  0  0  0  0
    4.8032    3.1085    1.3137 C   0  0  0  0  0  0  0  0  0  0  0  0
   -3.6220    2.8222    0.0813 C   0  0  0  0  0  0  0  0  0  0  0  0
  1 18  1  0
  1 21  1  0
  2 19  1  0
  2 21  1  0
  3  5  1  0
  3  8  1  0
  4  5  1  0
  4  6  1  0
  4 11  1  0
  4 12  1  0
  5  7  1  0
  6 13  1  0
  7 10  2  0
  7 14  1  0
  8  9  1  0
  8 15  1  0
  9 10  1  0
 10 16  1  0
 13 17  1  0
 14 18  2  0
 16 19  2  0
 17 20  1  0
 18 19  1  0
M  END
>  <PUBCHEM_COMPOUND_CID>  (1) 
30075

>  <PUBCHEM_CONFORMER_RMSD>  (1) 
0.8

>  <PUBCHEM_CONFORMER_DIVERSEORDER>  (1) 
2
7
13
12
6
10
5
8
3
9
4
11
1

>  <PUBCHEM_MMFF94_PARTIAL_CHARGES>  (1) 
16
1 -0.36
10 -0.14
14 -0.15
16 -0.15
18 0.08
19 0.08
2 -0.36
21 0.56
26 0.36
3 -0.9
37 0.15
41 0.15
5 0.41
7 -0.14
8 0.27
9 0.14

>  <PUBCHEM_EFFECTIVE_ROTOR_COUNT>  (1) 
5.4

>  <PUBCHEM_PHARMACOPHORE_FEATURES>  (1) 
10
1 1 acceptor
1 2 acceptor
1 20 hydrophobe
1 3 cation
1 3 donor
3 4 11 12 hydrophobe
4 4 6 13 17 hydrophobe
5 1 2 18 19 21 rings
6 3 5 7 8 9 10 rings
6 7 10 14 16 18 19 rings

>  <PUBCHEM_HEAVY_ATOM_COUNT>  (1) 
21

>  <PUBCHEM_ATOM_DEF_STEREO_COUNT>  (1) 
0

>  <PUBCHEM_ATOM_UDEF_STEREO_COUNT>  (1) 
2

>  <PUBCHEM_BOND_DEF_STEREO_COUNT>  (1) 
0

>  <PUBCHEM_BOND_UDEF_STEREO_COUNT>  (1) 
0

>  <PUBCHEM_ISOTOPIC_ATOM_COUNT>  (1) 
0

>  <PUBCHEM_COMPONENT_COUNT>  (1) 
1

>  <PUBCHEM_CACTVS_TAUTO_COUNT>  (1) 
1

>  <PUBCHEM_CONFORMER_ID>  (1) 
0000757B00000002

>  <PUBCHEM_MMFF94_ENERGY>  (1) 
67.3504

>  <PUBCHEM_FEATURE_SELFOVERLAP>  (1) 
50.987

>  <PUBCHEM_SHAPE_FINGERPRINT>  (1) 
10319926 262 18267857458626007560
10906281 52 17907026423448264711
10967382 1 17828216393517911743
11221954 11 18202282532851692200
11725454 13 17774713277289235688
12293681 160 17835832719501954886
12403259 226 17323518488985003501
12507560 14 17184464318487691959
12553582 1 17615714141779060823
12633257 1 18263903515658836784
12788726 201 17464834740973037522
13134695 92 17329127093059930671
13140716 1 18337389344524272272
13294875 104 18194679259590006850
13878862 14 17468190047357395045
13965767 371 17896590696290348708
14081887 123 18122345941557468826
14178342 30 18187368722672222571
14466204 15 18122057594938884050
14787075 74 18130499838385383945
14955137 171 17904198131549658058
15295992 7 18268445558757738738
16945 1 18119548753753633567
17980427 23 17693342600636791111
17980427 26 18268692932079130934
20510252 161 18340495559625829179
20600515 1 17682672183512082270
20642791 13 18126849524305877887
20671657 1 18049724018871197915
21041028 32 16897081639588002071
21524375 3 18267318538175999543
21650355 55 17759515969072278946
21731228 192 18408880746087883498
21756936 100 17984125227351327432
23419403 2 17054476025277990212
23557571 272 18052275160720069374
23558518 356 18338514256757786342
23559900 14 18200318719675684142
27216 239 17841703303776150616
2748010 2 18189917356418942351
3187 122 17403153289785219264
495365 180 18046616816291420045
58807428 26 18335138687303750321
633830 44 18129659678231410373
7097593 13 18042666456039020336
7364860 26 17831586375045305327
7808743 9 18191038982991932052
81228 2 18122080950560147899
84936 182 18123193402649774840
90316 7 17689718988258071266
9981440 41 18334849533089064553

>  <PUBCHEM_SHAPE_MULTIPOLES>  (1) 
415.45
6.87
4.59
1.36
4.74
2.55
0.41
-7.99
-2.32
-1.32
-1.89
1.44
0.05
1.84

>  <PUBCHEM_SHAPE_SELFOVERLAP>  (1) 
877.193

>  <PUBCHEM_SHAPE_VOLUME>  (1) 
234.3

>  <PUBCHEM_COORDINATE_TYPE>  (1) 
2
5
10

$$$$
