30076
     RDKit          3D

  7  6  0  0  1  0  0  0  0  0999 V2000
   -1.5771    0.0359    0.3414 N   0  0  0  0  0  0  0  0  0  0  0  0
   -1.6646    1.3432   -0.2482 N   0  0  0  0  0  0  0  0  0  0  0  0
    0.8681    0.1723    0.2427 C   0  0  0  0  0  0  0  0  0  0  0  0
   -0.3755   -0.6143   -0.1678 C   0  0  0  0  0  0  0  0  0  0  0  0
    2.1424   -0.5047   -0.2636 C   0  0  0  0  0  0  0  0  0  0  0  0
    3.3828    0.2911    0.1106 C   0  0  0  0  0  0  0  0  0  0  0  0
   -2.7761   -0.7235   -0.0152 C   0  0  0  0  0  0  0  0  0  0  0  0
  1  2  1  0
  1  4  1  0
  1  7  1  0
  3  4  1  0
  3  5  1  0
  5  6  1  0
M  END
>  <PUBCHEM_COMPOUND_CID>  (1) 
30076

>  <PUBCHEM_CONFORMER_RMSD>  (1) 
0.4

>  <PUBCHEM_CONFORMER_DIVERSEORDER>  (1) 
6
29
17
8
16
19
28
27
3
20
4
7
2
21
15
14
23
9
11
13
12
22
5
1
26
18
10
25
24

>  <PUBCHEM_MMFF94_PARTIAL_CHARGES>  (1) 
6
1 -0.54
2 -0.72
20 0.36
21 0.36
4 0.27
7 0.27

>  <PUBCHEM_EFFECTIVE_ROTOR_COUNT>  (1) 
3

>  <PUBCHEM_PHARMACOPHORE_FEATURES>  (1) 
2
1 2 donor
1 6 hydrophobe

>  <PUBCHEM_HEAVY_ATOM_COUNT>  (1) 
7

>  <PUBCHEM_ATOM_DEF_STEREO_COUNT>  (1) 
0

>  <PUBCHEM_ATOM_UDEF_STEREO_COUNT>  (1) 
0

>  <PUBCHEM_BOND_DEF_STEREO_COUNT>  (1) 
0

>  <PUBCHEM_BOND_UDEF_STEREO_COUNT>  (1) 
0

>  <PUBCHEM_ISOTOPIC_ATOM_COUNT>  (1) 
0

>  <PUBCHEM_COMPONENT_COUNT>  (1) 
1

>  <PUBCHEM_CACTVS_TAUTO_COUNT>  (1) 
1

>  <PUBCHEM_CONFORMER_ID>  (1) 
0000757C00000006

>  <PUBCHEM_MMFF94_ENERGY>  (1) 
3.3172

>  <PUBCHEM_FEATURE_SELFOVERLAP>  (1) 
10.148

>  <PUBCHEM_SHAPE_FINGERPRINT>  (1) 
11062470 55 15936404554909066551
12932764 1 17632286878812304166
14325111 11 18411700963416981346
14390081 3 18411135818724767800
15310529 11 18343017774733142814
16714656 1 18412545426848864231
23552423 10 18189058590334578418
29004967 10 16774083959713974434
3248919 1 17023192612790730218
5460574 1 8286203842323275290

>  <PUBCHEM_SHAPE_MULTIPOLES>  (1) 
134.09
4.97
0.99
0.64
1.8
0.2
0
-0.13
0.05
-0.44
-0.08
0.03
-0.01
0.13

>  <PUBCHEM_SHAPE_SELFOVERLAP>  (1) 
230.353

>  <PUBCHEM_SHAPE_VOLUME>  (1) 
90.1

>  <PUBCHEM_COORDINATE_TYPE>  (1) 
2
5
10

$$$$
