30094
     RDKit          3D

 33 38  0  0  1  0  0  0  0  0999 V2000
   -0.6808    1.3716   -0.8795 O   0  0  0  0  0  0  0  0  0  0  0  0
    1.1208    0.3117    0.7541 O   0  0  0  0  0  0  0  0  0  0  0  0
   -1.1900    4.0535    0.0944 O   0  0  0  0  0  0  0  0  0  0  0  0
    3.1541   -0.8275    0.6494 O   0  0  0  0  0  0  0  0  0  0  0  0
    2.1764    2.3141   -0.9372 O   0  0  0  0  0  0  0  0  0  0  0  0
    5.1078    2.5107   -0.7334 O   0  0  0  0  0  0  0  0  0  0  0  0
    6.2992   -0.1180   -1.0777 O   0  0  0  0  0  0  0  0  0  0  0  0
    6.1978   -2.5094    0.1659 O   0  0  0  0  0  0  0  0  0  0  0  0
    4.6542   -2.5140    1.8432 O   0  0  0  0  0  0  0  0  0  0  0  0
   -4.7227   -2.3184   -0.9316 N   0  0  0  0  0  0  0  0  0  0  0  0
   -2.2076   -0.5172   -0.7587 C   0  0  0  0  0  0  0  0  0  0  0  0
   -2.6259   -1.6072    0.2151 C   0  0  0  0  0  0  0  0  0  0  0  0
   -0.7265   -0.0956   -0.8055 C   0  0  0  0  0  0  0  0  0  0  0  0
   -4.1919   -1.4366    0.1106 C   0  0  0  0  0  0  0  0  0  0  0  0
   -2.8384   -0.9121   -2.1585 C   0  0  0  0  0  0  0  0  0  0  0  0
   -2.7445    0.7681   -0.1120 C   0  0  0  0  0  0  0  0  0  0  0  0
   -4.7139   -0.3560    1.0808 C   0  0  0  0  0  0  0  0  0  0  0  0
   -3.7776   -2.2247   -2.1106 C   0  0  0  0  0  0  0  0  0  0  0  0
    0.1034   -0.6205    0.4002 C   0  0  0  0  0  0  0  0  0  0  0  0
   -3.8671    0.8976    0.7489 C   0  0  0  0  0  0  0  0  0  0  0  0
   -1.9366   -1.4916    1.5498 C   0  0  0  0  0  0  0  0  0  0  0  0
   -1.8358    1.7863   -0.2725 C   0  0  0  0  0  0  0  0  0  0  0  0
   -0.6809   -1.0214    1.6259 C   0  0  0  0  0  0  0  0  0  0  0  0
   -4.9235   -3.6835   -0.4750 C   0  0  0  0  0  0  0  0  0  0  0  0
   -4.1120    2.1515    1.3035 C   0  0  0  0  0  0  0  0  0  0  0  0
   -2.0726    3.0364    0.2605 C   0  0  0  0  0  0  0  0  0  0  0  0
   -3.2289    3.2172    1.0374 C   0  0  0  0  0  0  0  0  0  0  0  0
    2.3058    0.1062   -0.0142 C   0  0  0  0  0  0  0  0  0  0  0  0
    3.0116    1.4543   -0.1620 C   0  0  0  0  0  0  0  0  0  0  0  0
    4.3635    1.2980   -0.8588 C   0  0  0  0  0  0  0  0  0  0  0  0
    5.1864    0.1713   -0.2333 C   0  0  0  0  0  0  0  0  0  0  0  0
    4.3464   -1.0907   -0.0813 C   0  0  0  0  0  0  0  0  0  0  0  0
    5.0501   -2.1038    0.7622 C   0  0  0  0  0  0  0  0  0  0  0  0
  1 13  1  0
  1 22  1  0
  2 19  1  0
  2 28  1  0
  3 26  1  0
  4 28  1  0
  4 32  1  0
  5 29  1  0
  6 30  1  0
  7 31  1  0
  8 33  1  0
  9 33  2  0
 10 14  1  0
 10 18  1  0
 10 24  1  0
 11 12  1  0
 11 13  1  0
 11 15  1  0
 11 16  1  0
 12 14  1  0
 12 21  1  0
 13 19  1  0
 14 17  1  0
 15 18  1  0
 16 20  2  0
 16 22  1  0
 17 20  1  0
 19 23  1  0
 20 25  1  0
 21 23  2  0
 22 26  2  0
 25 27  2  0
 26 27  1  0
 28 29  1  0
 29 30  1  0
 30 31  1  0
 31 32  1  0
 32 33  1  0
M  END
>  <PUBCHEM_COMPOUND_CID>  (1) 
30094

>  <PUBCHEM_CONFORMER_RMSD>  (1) 
0.8

>  <PUBCHEM_CONFORMER_DIVERSEORDER>  (1) 
1
23
13
12
9
3
7
18
19
24
2
14
22
21
15
16
25
4
20
17
5
11
6
10
8

>  <PUBCHEM_MMFF94_PARTIAL_CHARGES>  (1) 
41
1 -0.36
10 -0.81
11 0.14
12 0.14
13 0.28
14 0.27
16 -0.14
17 0.14
18 0.27
19 0.42
2 -0.56
20 -0.14
21 -0.29
22 0.08
23 -0.29
24 0.27
25 -0.15
26 0.08
27 -0.15
28 0.56
29 0.28
3 -0.53
30 0.28
31 0.28
32 0.34
33 0.66
4 -0.56
44 0.15
45 0.15
49 0.15
5 -0.68
50 0.15
54 0.45
57 0.4
58 0.4
59 0.4
6 -0.68
60 0.5
7 -0.68
8 -0.65
9 -0.57

>  <PUBCHEM_EFFECTIVE_ROTOR_COUNT>  (1) 
5.4

>  <PUBCHEM_PHARMACOPHORE_FEATURES>  (1) 
20
1 1 acceptor
1 10 cation
1 2 acceptor
1 3 donor
1 4 acceptor
1 5 acceptor
1 5 donor
1 6 acceptor
1 6 donor
1 7 acceptor
1 7 donor
1 8 acceptor
1 9 acceptor
3 8 9 33 anion
5 1 11 13 16 22 rings
6 10 11 12 14 15 18 rings
6 11 12 13 19 21 23 rings
6 11 12 14 16 17 20 rings
6 16 20 22 25 26 27 rings
6 4 28 29 30 31 32 rings

>  <PUBCHEM_HEAVY_ATOM_COUNT>  (1) 
33

>  <PUBCHEM_ATOM_DEF_STEREO_COUNT>  (1) 
10

>  <PUBCHEM_ATOM_UDEF_STEREO_COUNT>  (1) 
0

>  <PUBCHEM_BOND_DEF_STEREO_COUNT>  (1) 
0

>  <PUBCHEM_BOND_UDEF_STEREO_COUNT>  (1) 
0

>  <PUBCHEM_ISOTOPIC_ATOM_COUNT>  (1) 
0

>  <PUBCHEM_COMPONENT_COUNT>  (1) 
1

>  <PUBCHEM_CACTVS_TAUTO_COUNT>  (1) 
3

>  <PUBCHEM_CONFORMER_ID>  (1) 
0000758E00000001

>  <PUBCHEM_MMFF94_ENERGY>  (1) 
168.6737

>  <PUBCHEM_FEATURE_SELFOVERLAP>  (1) 
103.095

>  <PUBCHEM_SHAPE_FINGERPRINT>  (1) 
10165383 225 17489036946843574481
10369192 42 16124125442435686840
10595046 47 18411140281433145764
11578080 2 16985786106401744277
11763715 3 18267314307649095917
12107183 9 17976541611637445864
12788726 201 18271242819645096423
13004483 165 18130216190234291111
13583140 156 16844996945015056082
13782708 43 16845002511514341831
13911987 19 17612041768921550884
14347332 77 18410006637246743646
14713325 29 18202004292085263911
15131766 46 16301240156731127877
15183329 4 17894631436138363826
15250474 111 18409159996467395602
15361156 5 18263099746794436366
17349148 13 18113897190961494462
17492 89 18411981352010079190
17818456 19 18199188382735263392
17844677 252 18409737227360454354
1813 80 17772476930904999455
18393751 57 17264660991415892416
19301679 30 18342748442183535215
19377110 9 18411129277827179960
20775438 99 16973055166317849607
21033648 29 16226041189315963142
21703447 108 18199176481259690424
23522609 53 18118433712099472684
23559900 14 17896038913752608592
23598288 3 18343295947011936957
312423 11 18408882945200842142
3504750 166 18268416967409037906
3610482 184 18117019735634394532
392239 28 18043559169223411665
44062 13 18201720605000065798
460360 51 16806711894670482552
463206 1 18049719916909015766
497634 4 18260828215573854887
508706 21 18059577936305000158
5104073 3 18411416185948115408
6700243 42 17558582258989514053
70251023 43 17693075772121214815
7970288 3 18053940929617002119
9896288 288 18196667202957655001

>  <PUBCHEM_SHAPE_MULTIPOLES>  (1) 
621.32
13.28
3.95
1.52
18.8
1.51
-0.14
-6.52
-0.46
-2.82
0.14
-0.78
-0.65
-3.19

>  <PUBCHEM_SHAPE_SELFOVERLAP>  (1) 
1377.855

>  <PUBCHEM_SHAPE_VOLUME>  (1) 
326.8

>  <PUBCHEM_COORDINATE_TYPE>  (1) 
2
5
10

$$$$
