30107
     RDKit          3D

 23 25  0  0  1  0  0  0  0  0999 V2000
    3.0169    2.4232   -0.1339 Cl  0  0  0  0  0  0  0  0  0  0  0  0
    2.5469   -3.0052   -0.5020 Cl  0  0  0  0  0  0  0  0  0  0  0  0
   -0.6738   -0.0178    0.0639 O   0  0  0  0  0  0  0  0  0  0  0  0
    0.7826   -0.2618    1.8103 O   0  0  0  0  0  0  0  0  0  0  0  0
   -3.4562   -0.5932   -0.2170 N   0  0  0  0  0  0  0  0  0  0  0  0
    1.5101   -0.1748   -0.4131 N   0  0  0  0  0  0  0  0  0  0  0  0
   -2.9796    0.7388    0.1246 C   0  0  0  0  0  0  0  0  0  0  0  0
   -1.6393    0.6549    0.8729 C   0  0  0  0  0  0  0  0  0  0  0  0
   -2.8669    1.6069   -1.1367 C   0  0  0  0  0  0  0  0  0  0  0  0
   -1.1182    2.0561    1.2069 C   0  0  0  0  0  0  0  0  0  0  0  0
   -2.3380    3.0007   -0.7995 C   0  0  0  0  0  0  0  0  0  0  0  0
   -4.7734   -0.5691   -0.8520 C   0  0  0  0  0  0  0  0  0  0  0  0
   -3.6175   -1.4473    0.9596 C   0  0  0  0  0  0  0  0  0  0  0  0
   -1.0170    2.9408   -0.0370 C   0  0  0  0  0  0  0  0  0  0  0  0
   -5.2227   -2.0198   -0.7590 C   0  0  0  0  0  0  0  0  0  0  0  0
   -4.4658   -2.5959    0.4338 C   0  0  0  0  0  0  0  0  0  0  0  0
    0.5782   -0.1626    0.6066 C   0  0  0  0  0  0  0  0  0  0  0  0
    2.9138   -0.3034   -0.3079 C   0  0  0  0  0  0  0  0  0  0  0  0
    3.6980    0.8353   -0.1763 C   0  0  0  0  0  0  0  0  0  0  0  0
    3.4907   -1.5664   -0.3374 C   0  0  0  0  0  0  0  0  0  0  0  0
    5.0832    0.7089   -0.0724 C   0  0  0  0  0  0  0  0  0  0  0  0
    4.8759   -1.6929   -0.2334 C   0  0  0  0  0  0  0  0  0  0  0  0
    5.6721   -0.5553   -0.1008 C   0  0  0  0  0  0  0  0  0  0  0  0
  1 19  1  0
  2 20  1  0
  3  8  1  0
  3 17  1  0
  4 17  2  0
  5  7  1  0
  5 12  1  0
  5 13  1  0
  6 17  1  0
  6 18  1  0
  7  8  1  0
  7  9  1  0
  8 10  1  0
  9 11  1  0
 10 14  1  0
 11 14  1  0
 12 15  1  0
 13 16  1  0
 15 16  1  0
 18 19  2  0
 18 20  1  0
 19 21  1  0
 20 22  2  0
 21 23  2  0
 22 23  1  0
M  END
>  <PUBCHEM_COMPOUND_CID>  (1) 
30107

>  <PUBCHEM_CONFORMER_RMSD>  (1) 
0.8

>  <PUBCHEM_CONFORMER_DIVERSEORDER>  (1) 
1
9
57
54
45
23
34
38
41
46
4
17
21
18
31
7
50
42
8
56
29
51
40
6
28
44
36
13
33
55
32
35
20
25
49
15
52
27
30
43
26
39
11
24
47
16
10
14
19
12
53
3
48
2
5
37
22

>  <PUBCHEM_MMFF94_PARTIAL_CHARGES>  (1) 
21
1 -0.18
12 0.27
13 0.27
17 0.78
18 0.12
19 0.18
2 -0.18
20 0.18
21 -0.15
22 -0.15
23 -0.15
3 -0.43
4 -0.57
42 0.37
43 0.15
44 0.15
45 0.15
5 -0.81
6 -0.55
7 0.27
8 0.28

>  <PUBCHEM_EFFECTIVE_ROTOR_COUNT>  (1) 
7.2

>  <PUBCHEM_PHARMACOPHORE_FEATURES>  (1) 
6
1 4 acceptor
1 5 cation
1 6 donor
5 5 12 13 15 16 rings
6 18 19 20 21 22 23 rings
6 7 8 9 10 11 14 rings

>  <PUBCHEM_HEAVY_ATOM_COUNT>  (1) 
23

>  <PUBCHEM_ATOM_DEF_STEREO_COUNT>  (1) 
0

>  <PUBCHEM_ATOM_UDEF_STEREO_COUNT>  (1) 
2

>  <PUBCHEM_BOND_DEF_STEREO_COUNT>  (1) 
0

>  <PUBCHEM_BOND_UDEF_STEREO_COUNT>  (1) 
0

>  <PUBCHEM_ISOTOPIC_ATOM_COUNT>  (1) 
0

>  <PUBCHEM_COMPONENT_COUNT>  (1) 
1

>  <PUBCHEM_CACTVS_TAUTO_COUNT>  (1) 
2

>  <PUBCHEM_CONFORMER_ID>  (1) 
0000759B00000001

>  <PUBCHEM_MMFF94_ENERGY>  (1) 
66.5986

>  <PUBCHEM_FEATURE_SELFOVERLAP>  (1) 
30.446

>  <PUBCHEM_SHAPE_FINGERPRINT>  (1) 
10366900 7 18261406571880681256
11045515 52 18187083962135818821
11089746 13 13768207242166872214
12403259 226 18410291402569634968
12403260 363 18333732412391033144
12670546 177 18334574637654077999
12916754 54 18413112749094986088
13103583 49 16629977632736334451
13544653 18 18341619256356821481
13583140 156 18201147759547418260
13631057 29 18413670205780006418
15352361 1 18410856589973644591
17349148 13 17821454560194422514
17492 89 18340770330169828766
200 152 18342458144604636488
20871999 31 18335974303794203437
221490 88 18411703175451804292
22393880 68 18040703745488075237
23402539 116 18408323280591362631
23557571 272 18341614776352900301
23559900 14 18410284805030149113
23598288 3 17417537886773486697
2838139 119 13840251616111080775
3004659 81 18260824916833353059
314194 84 18127693936272109951
329604 57 18411419539758364726
3380486 145 17756730863047994259
4214541 1 18337955584586282956
463206 1 18268431419936955375
5104073 3 18271806779258380114
5283173 99 18187636986577717309
6669772 16 17697307778937916528
6913067 236 18341038722612111874
7495541 125 17917989512144102240
9709674 26 18338525127372987046

>  <PUBCHEM_SHAPE_MULTIPOLES>  (1) 
455.37
12.16
3.42
1.06
3.6
0.58
0.21
-6.81
-2.18
-1.55
-0.44
-0.69
0.11
0.56

>  <PUBCHEM_SHAPE_SELFOVERLAP>  (1) 
939.78

>  <PUBCHEM_SHAPE_VOLUME>  (1) 
262.5

>  <PUBCHEM_COORDINATE_TYPE>  (1) 
2
5
10

$$$$
