3010
     RDKit          3D

 22 23  0  0  0  0  0  0  0  0999 V2000
   -6.4236    2.5455   -0.9026 O   0  0  0  0  0  0  0  0  0  0  0  0
   -1.3337    0.8546    0.1335 N   0  0  0  0  0  0  0  0  0  0  0  0
   -4.8845   -2.5258   -0.1457 N   0  0  0  0  0  0  0  0  0  0  0  0
    4.8740   -0.3879   -0.0230 C   0  0  0  0  0  0  0  0  0  0  0  0
    3.6586    0.5414    0.0232 C   0  0  0  0  0  0  0  0  0  0  0  0
    6.2104    0.3572    0.0626 C   0  0  0  0  0  0  0  0  0  0  0  0
    2.3234   -0.2044   -0.0746 C   0  0  0  0  0  0  0  0  0  0  0  0
    7.4663   -0.5177   -0.0007 C   0  0  0  0  0  0  0  0  0  0  0  0
    1.1054    0.7174    0.0514 C   0  0  0  0  0  0  0  0  0  0  0  0
    8.7693    0.2833    0.0326 C   0  0  0  0  0  0  0  0  0  0  0  0
   -0.2152   -0.0484    0.0067 C   0  0  0  0  0  0  0  0  0  0  0  0
    9.9850   -0.6309   -0.1241 C   0  0  0  0  0  0  0  0  0  0  0  0
   -2.6581    0.4459    0.1225 C   0  0  0  0  0  0  0  0  0  0  0  0
   -5.3410   -0.3562    0.1032 C   0  0  0  0  0  0  0  0  0  0  0  0
   -4.3043   -1.2833   -0.0246 C   0  0  0  0  0  0  0  0  0  0  0  0
   -5.0174    1.0078    0.2440 C   0  0  0  0  0  0  0  0  0  0  0  0
   -2.9549   -0.9127   -0.0184 C   0  0  0  0  0  0  0  0  0  0  0  0
   -3.6719    1.3931    0.2516 C   0  0  0  0  0  0  0  0  0  0  0  0
   11.2851    0.1549   -0.0595 C   0  0  0  0  0  0  0  0  0  0  0  0
   -6.5618   -1.0857    0.0545 C   0  0  0  0  0  0  0  0  0  0  0  0
   -6.0626    2.0685    0.3862 C   0  0  0  0  0  0  0  0  0  0  0  0
   -6.2485   -2.4166   -0.0989 C   0  0  0  0  0  0  0  0  0  0  0  0
  1 21  1  0
  2 11  1  0
  2 13  1  0
  3 15  1  0
  3 22  1  0
  4  5  1  0
  4  6  1  0
  5  7  1  0
  6  8  1  0
  7  9  1  0
  8 10  1  0
  9 11  1  0
 10 12  1  0
 12 19  1  0
 13 17  2  0
 13 18  1  0
 14 15  2  0
 14 16  1  0
 14 20  1  0
 15 17  1  0
 16 18  2  0
 16 21  1  0
 20 22  2  0
M  END
>  <PUBCHEM_COMPOUND_CID>  (1) 
3010

>  <PUBCHEM_CONFORMER_RMSD>  (1) 
1.2

>  <PUBCHEM_CONFORMER_DIVERSEORDER>  (1) 
1
75
21
31
24
64
56
25
39
76
57
60
35
91
38
40
26
44
84
80
37
66
88
52
61
89
55
9
67
8
48
62
92
53
83
96
6
42
51
11
68
81
46
58
69
87
82
72
54
63
33
3
19
10
65
94
93
32
43
34
45
30
17
97
50
27
77
36
14
13
15
29
95
18
73
49
12
74
70
7
79
59
20
85
4
5
86
78
16
47
28
22
41
90
2
71
23

>  <PUBCHEM_MMFF94_PARTIAL_CHARGES>  (1) 
19
1 -0.68
11 0.37
13 0.1
15 -0.15
16 -0.14
17 -0.15
18 -0.15
2 -0.87
20 -0.15
21 0.42
22 -0.3
3 0.03
41 0.4
42 0.15
43 0.15
47 0.15
48 0.27
51 0.15
52 0.4

>  <PUBCHEM_EFFECTIVE_ROTOR_COUNT>  (1) 
11

>  <PUBCHEM_PHARMACOPHORE_FEATURES>  (1) 
9
1 1 acceptor
1 1 donor
1 19 hydrophobe
1 2 cation
1 2 donor
1 3 cation
1 3 donor
5 3 14 15 20 22 rings
6 13 14 15 16 17 18 rings

>  <PUBCHEM_HEAVY_ATOM_COUNT>  (1) 
22

>  <PUBCHEM_ATOM_DEF_STEREO_COUNT>  (1) 
0

>  <PUBCHEM_ATOM_UDEF_STEREO_COUNT>  (1) 
0

>  <PUBCHEM_BOND_DEF_STEREO_COUNT>  (1) 
0

>  <PUBCHEM_BOND_UDEF_STEREO_COUNT>  (1) 
0

>  <PUBCHEM_ISOTOPIC_ATOM_COUNT>  (1) 
0

>  <PUBCHEM_COMPONENT_COUNT>  (1) 
1

>  <PUBCHEM_CACTVS_TAUTO_COUNT>  (1) 
1

>  <PUBCHEM_CONFORMER_ID>  (1) 
00000BC200000001

>  <PUBCHEM_MMFF94_ENERGY>  (1) 
31.1255

>  <PUBCHEM_FEATURE_SELFOVERLAP>  (1) 
45.762

>  <PUBCHEM_SHAPE_FINGERPRINT>  (1) 
10299344 5 18260266352727115938
10411042 1 18122906693522051011
11315181 36 18202004321902239009
12082328 90 18412824673164699550
12089408 11 18113900460449646704
12091667 2 17458346329837106409
13288520 33 18412263965590381803
13885169 127 18411982442767858576
14251764 18 18040432192666507786
14251764 46 18411138038927317774
15183329 4 17095235939031697306
15419008 91 18200295685513407400
15461852 350 18409736175304411502
15510794 2 17988647372546742398
1577012 14 18040991813629904274
17093844 174 18410012126779333657
21267235 1 18336549417316592195
21315763 28 18410856581985310928
21360442 43 18041281062529822851
21360443 120 17603583024232428938
21362267 313 18188766134423899616
21792961 116 17275106094629352144
232437 2 18410293606863453050
23559900 14 18273208695323383049
559249 180 18409166606711467319
57676310 188 17967247590489138170
59521270 166 18334289848070417295
59682541 35 17775000207575960946
636775 8 18041564753946937507
67123 10 18411419528091852516
8209 1 18410856552194625608

>  <PUBCHEM_SHAPE_MULTIPOLES>  (1) 
436.92
34.09
1.97
0.65
100.22
0.16
0.02
3.07
0.97
-6.59
0.16
-0.21
-0.09
0.19

>  <PUBCHEM_SHAPE_SELFOVERLAP>  (1) 
883.059

>  <PUBCHEM_SHAPE_VOLUME>  (1) 
257.3

>  <PUBCHEM_COORDINATE_TYPE>  (1) 
2
5
10

$$$$
