30102
     RDKit          3D

 21 23  0  0  0  0  0  0  0  0999 V2000
    4.8751   -0.3100    0.2977 O   0  0  0  0  0  0  0  0  0  0  0  0
   -6.0717   -0.2572   -0.1738 O   0  0  0  0  0  0  0  0  0  0  0  0
   -5.3034    1.7990   -0.1424 O   0  0  0  0  0  0  0  0  0  0  0  0
   -0.3820    1.3850    0.0690 N   0  0  0  0  0  0  0  0  0  0  0  0
    0.4268   -2.7275    0.1059 N   0  0  0  0  0  0  0  0  0  0  0  0
   -5.1186    0.5579   -0.1343 N   0  0  0  0  0  0  0  0  0  0  0  0
    1.2096   -0.4180    0.1388 C   0  0  0  0  0  0  0  0  0  0  0  0
   -1.1716   -0.8875    0.0355 C   0  0  0  0  0  0  0  0  0  0  0  0
    0.1528   -1.3330    0.0933 C   0  0  0  0  0  0  0  0  0  0  0  0
    0.8918    0.9506    0.1245 C   0  0  0  0  0  0  0  0  0  0  0  0
   -1.3962    0.4995    0.0253 C   0  0  0  0  0  0  0  0  0  0  0  0
    2.5500   -0.8376    0.1973 C   0  0  0  0  0  0  0  0  0  0  0  0
   -2.2531   -1.7845   -0.0110 C   0  0  0  0  0  0  0  0  0  0  0  0
    1.9397    1.8664    0.1697 C   0  0  0  0  0  0  0  0  0  0  0  0
    3.5791    0.0982    0.2418 C   0  0  0  0  0  0  0  0  0  0  0  0
   -2.7127    0.9491   -0.0319 C   0  0  0  0  0  0  0  0  0  0  0  0
    3.2729    1.4530    0.2280 C   0  0  0  0  0  0  0  0  0  0  0  0
   -3.7896    0.0605   -0.0783 C   0  0  0  0  0  0  0  0  0  0  0  0
   -3.5598   -1.3093   -0.0678 C   0  0  0  0  0  0  0  0  0  0  0  0
    5.8523    0.5440   -0.2966 C   0  0  0  0  0  0  0  0  0  0  0  0
    7.0086   -0.2988   -0.7908 C   0  0  0  0  0  0  0  0  0  0  0  0
  1 15  1  0
  1 20  1  0
  2  6  1  0
  3  6  2  0
  4 10  2  0
  4 11  1  0
  5  9  1  0
  6 18  1  0
  7  9  2  0
  7 10  1  0
  7 12  1  0
  8  9  1  0
  8 11  2  0
  8 13  1  0
 10 14  1  0
 11 16  1  0
 12 15  2  0
 13 19  2  0
 14 17  2  0
 15 17  1  0
 16 18  2  0
 18 19  1  0
 20 21  1  0
M  CHG  2   2  -1   6   1
M  END
>  <PUBCHEM_COMPOUND_CID>  (1) 
30102

>  <PUBCHEM_CONFORMER_RMSD>  (1) 
0.6

>  <PUBCHEM_CONFORMER_DIVERSEORDER>  (1) 
1
4
2
3

>  <PUBCHEM_MMFF94_PARTIAL_CHARGES>  (1) 
26
1 -0.36
10 0.31
11 0.31
12 -0.15
13 -0.15
14 -0.15
15 0.08
16 -0.15
17 -0.15
18 0.13
19 -0.15
2 -0.52
20 0.28
22 0.15
23 0.15
24 0.15
25 0.15
26 0.15
27 0.15
28 0.4
29 0.4
3 -0.52
4 -0.62
5 -0.9
6 0.91
9 0.1

>  <PUBCHEM_EFFECTIVE_ROTOR_COUNT>  (1) 
3

>  <PUBCHEM_PHARMACOPHORE_FEATURES>  (1) 
10
1 1 acceptor
1 2 acceptor
1 2 anion
1 3 acceptor
1 4 acceptor
1 5 cation
1 5 donor
6 4 7 8 9 10 11 rings
6 7 10 12 14 15 17 rings
6 8 11 13 16 18 19 rings

>  <PUBCHEM_HEAVY_ATOM_COUNT>  (1) 
21

>  <PUBCHEM_ATOM_DEF_STEREO_COUNT>  (1) 
0

>  <PUBCHEM_ATOM_UDEF_STEREO_COUNT>  (1) 
0

>  <PUBCHEM_BOND_DEF_STEREO_COUNT>  (1) 
0

>  <PUBCHEM_BOND_UDEF_STEREO_COUNT>  (1) 
0

>  <PUBCHEM_ISOTOPIC_ATOM_COUNT>  (1) 
0

>  <PUBCHEM_COMPONENT_COUNT>  (1) 
1

>  <PUBCHEM_CACTVS_TAUTO_COUNT>  (1) 
2

>  <PUBCHEM_CONFORMER_ID>  (1) 
0000759600000001

>  <PUBCHEM_MMFF94_ENERGY>  (1) 
89.2568

>  <PUBCHEM_FEATURE_SELFOVERLAP>  (1) 
50.889

>  <PUBCHEM_SHAPE_FINGERPRINT>  (1) 
10906281 52 18336845112048895872
10967382 1 18410571764695609211
11315181 36 17917999399491263408
11578080 2 17024857161726268023
12011746 2 18412265034573008478
12236239 1 17822010921905427558
12403259 415 18336252505341690012
12788726 201 18129380414809221936
13140716 1 18337664325547374345
13288520 33 18342460352624021572
13533116 47 13326583917541518972
13862211 1 18411414012694714914
14790565 3 18408609179527462684
15048467 5 17458347455376702284
15099037 51 18411701002182424430
15196674 1 18338796839688112656
1601671 61 18408038494395463292
17804303 29 18340206392526292872
17834072 8 18342459248764685556
18681886 176 18342450486852151280
19489759 90 15482676766628684579
19784866 170 18333732399289710531
200 152 17846777420946503185
21267235 1 18410861005511443043
21279426 13 18195528095118931054
21307412 95 17915765162057945238
21709351 56 18410566319062297653
2215653 11 18059860554328164198
23035841 295 18409449172435817410
23175994 123 17274827978079781304
23402539 116 18272927249983727142
23559900 14 18200869694933334104
293599 30 18409448081134361490
3004659 81 18334016069722748686
335352 9 18411418423003473612
34934 24 18410569561525475571
350125 39 18408603651867583964
3545911 37 18411981368925645395
4214541 1 18411135853321967433
4463277 17 18409449202569368032
5104073 3 18338231686347852177
542803 24 17167860876695403652
59755656 215 18341335509379646670
59755656 520 17530962505572792827
6138700 20 18411703145672123334
6328613 192 18335145332040812828
633830 44 17896031208296332624
9709674 26 18123468555919877002

>  <PUBCHEM_SHAPE_MULTIPOLES>  (1) 
399.62
13.23
1.93
0.65
6.19
0.41
0.02
-1.92
2.46
-0.72
-0.07
0.3
0.01
0.19

>  <PUBCHEM_SHAPE_SELFOVERLAP>  (1) 
888.766

>  <PUBCHEM_SHAPE_VOLUME>  (1) 
214.2

>  <PUBCHEM_COORDINATE_TYPE>  (1) 
2
5
10

$$$$
