30108
     RDKit          3D

 17 18  0  0  0  0  0  0  0  0999 V2000
   -0.2663   -0.8575   -2.2560 O   0  0  0  0  0  0  0  0  0  0  0  0
    1.1922    2.8532    0.3611 O   0  0  0  0  0  0  0  0  0  0  0  0
    0.1426    1.9529   -1.4428 O   0  0  0  0  0  0  0  0  0  0  0  0
   -1.4496   -0.7989   -0.2401 N   0  0  0  0  0  0  0  0  0  0  0  0
   -3.6153    0.3199    1.3065 C   0  0  0  0  0  0  0  0  0  0  0  0
   -3.6887    0.2233   -0.2177 C   0  0  0  0  0  0  0  0  0  0  0  0
   -2.1654    0.4000    1.7840 C   0  0  0  0  0  0  0  0  0  0  0  0
   -2.8260   -0.9231   -0.7385 C   0  0  0  0  0  0  0  0  0  0  0  0
   -1.3301   -0.7454    1.2171 C   0  0  0  0  0  0  0  0  0  0  0  0
   -0.2975   -0.7766   -1.0292 C   0  0  0  0  0  0  0  0  0  0  0  0
    1.0007   -0.6587   -0.3543 C   0  0  0  0  0  0  0  0  0  0  0  0
    1.5685    0.5871   -0.0918 C   0  0  0  0  0  0  0  0  0  0  0  0
    1.6647   -1.8242    0.0252 C   0  0  0  0  0  0  0  0  0  0  0  0
    2.8034    0.6674    0.5519 C   0  0  0  0  0  0  0  0  0  0  0  0
    2.8997   -1.7437    0.6687 C   0  0  0  0  0  0  0  0  0  0  0  0
    3.4691   -0.4980    0.9320 C   0  0  0  0  0  0  0  0  0  0  0  0
    0.8979    1.8223   -0.4760 C   0  0  0  0  0  0  0  0  0  0  0  0
  1 10  2  0
  2 17  1  0
  3 17  2  0
  4  8  1  0
  4  9  1  0
  4 10  1  0
  5  6  1  0
  5  7  1  0
  6  8  1  0
  7  9  1  0
 10 11  1  0
 11 12  2  0
 11 13  1  0
 12 14  1  0
 12 17  1  0
 13 15  2  0
 14 16  2  0
 15 16  1  0
M  END
>  <PUBCHEM_COMPOUND_CID>  (1) 
30108

>  <PUBCHEM_CONFORMER_RMSD>  (1) 
0.6

>  <PUBCHEM_CONFORMER_DIVERSEORDER>  (1) 
2
8
6
11
1
5
9
4
3
10
7

>  <PUBCHEM_MMFF94_PARTIAL_CHARGES>  (1) 
19
1 -0.57
10 0.54
11 0.09
12 0.09
13 -0.15
14 -0.15
15 -0.15
16 -0.15
17 0.63
2 -0.65
28 0.15
29 0.15
3 -0.57
30 0.15
31 0.15
32 0.5
4 -0.66
8 0.3
9 0.3

>  <PUBCHEM_EFFECTIVE_ROTOR_COUNT>  (1) 
4.2

>  <PUBCHEM_PHARMACOPHORE_FEATURES>  (1) 
6
1 1 acceptor
1 2 acceptor
1 3 acceptor
3 2 3 17 anion
6 11 12 13 14 15 16 rings
6 4 5 6 7 8 9 rings

>  <PUBCHEM_HEAVY_ATOM_COUNT>  (1) 
17

>  <PUBCHEM_ATOM_DEF_STEREO_COUNT>  (1) 
0

>  <PUBCHEM_ATOM_UDEF_STEREO_COUNT>  (1) 
0

>  <PUBCHEM_BOND_DEF_STEREO_COUNT>  (1) 
0

>  <PUBCHEM_BOND_UDEF_STEREO_COUNT>  (1) 
0

>  <PUBCHEM_ISOTOPIC_ATOM_COUNT>  (1) 
0

>  <PUBCHEM_COMPONENT_COUNT>  (1) 
1

>  <PUBCHEM_CACTVS_TAUTO_COUNT>  (1) 
1

>  <PUBCHEM_CONFORMER_ID>  (1) 
0000759C00000002

>  <PUBCHEM_MMFF94_ENERGY>  (1) 
46.1768

>  <PUBCHEM_FEATURE_SELFOVERLAP>  (1) 
30.506

>  <PUBCHEM_SHAPE_FINGERPRINT>  (1) 
10871710 139 12743564753744454050
11086676 242 18337117765342349592
11471102 22 18259697913214562154
11578080 2 17268295779156688121
11640471 11 17916870264809629385
12251169 10 18413389843278836331
13134695 92 18409725145116764925
13538477 17 17417233463728270270
14251739 40 18410852162089540439
14817 1 7962810525816499588
15209294 21 17773860065119923232
15375462 478 18273493464138777403
15775835 57 17775290477580103131
15881359 60 18054203480560545968
16945 1 18412832390630118920
17357990 137 17845110582625027561
18981168 100 16555977166975636523
19049666 15 17459456771950720983
192875 21 18130780158015878921
20715895 44 17913494537439582865
21130352 189 18187365415410313053
21524375 3 17693672810232811244
23175994 123 17822293427173330762
23184049 59 18343017761732254726
23227448 37 15623938829589377986
23526113 38 17168405095948482342
2748010 2 18050545388717351182
305870 269 18049162464613570088
31174 14 17752794538859636577
3286 77 17967542293900900275
3797600 57 17624162759156631235
4175511 71 18337966592492530036
568465 68 17530975665257317490
6992083 37 18272365360771475551
77492 1 18060131072147268951
81228 2 17754463348091286440
8988823 20 17901131882025730131

>  <PUBCHEM_SHAPE_MULTIPOLES>  (1) 
327.26
5.58
2.04
1.55
2.23
1.2
0.19
-0.88
-2.16
-1.35
0.24
0.75
-0.07
-0.46

>  <PUBCHEM_SHAPE_SELFOVERLAP>  (1) 
693.486

>  <PUBCHEM_SHAPE_VOLUME>  (1) 
181.2

>  <PUBCHEM_COORDINATE_TYPE>  (1) 
2
5
10

$$$$
