3011
     RDKit          3D

 22 21  0  0  0  0  0  0  0  0999 V2000
   -3.5429    3.9890   -0.1802 O   0  0  0  0  0  0  0  0  0  0  0  0
   -2.7150    2.1754    0.9214 O   0  0  0  0  0  0  0  0  0  0  0  0
    2.4179    2.2654    0.0672 C   0  0  0  0  0  0  0  0  0  0  0  0
    1.2929    3.1996   -0.3842 C   0  0  0  0  0  0  0  0  0  0  0  0
    3.8063    2.7104   -0.4037 C   0  0  0  0  0  0  0  0  0  0  0  0
   -0.0655    2.7212    0.1391 C   0  0  0  0  0  0  0  0  0  0  0  0
    4.9413    1.8165    0.1107 C   0  0  0  0  0  0  0  0  0  0  0  0
   -1.2063    3.6500   -0.2654 C   0  0  0  0  0  0  0  0  0  0  0  0
   -3.3704   -2.1607    0.2325 C   0  0  0  0  0  0  0  0  0  0  0  0
   -4.5617   -1.3561   -0.3016 C   0  0  0  0  0  0  0  0  0  0  0  0
   -2.0165   -1.6036   -0.2255 C   0  0  0  0  0  0  0  0  0  0  0  0
   -5.9134   -1.8698    0.2005 C   0  0  0  0  0  0  0  0  0  0  0  0
    4.8839    0.3637   -0.2841 C   0  0  0  0  0  0  0  0  0  0  0  0
    4.7713   -0.6932    0.5347 C   0  0  0  0  0  0  0  0  0  0  0  0
   -0.8587   -2.4134    0.2809 C   0  0  0  0  0  0  0  0  0  0  0  0
   -2.5437    3.1718    0.2337 C   0  0  0  0  0  0  0  0  0  0  0  0
   -7.0929   -1.0297   -0.2647 C   0  0  0  0  0  0  0  0  0  0  0  0
    4.6914   -2.1171    0.0632 C   0  0  0  0  0  0  0  0  0  0  0  0
    0.0271   -3.0280   -0.5172 C   0  0  0  0  0  0  0  0  0  0  0  0
    1.1831   -3.8364   -0.0049 C   0  0  0  0  0  0  0  0  0  0  0  0
    3.3848   -2.7382    0.4612 C   0  0  0  0  0  0  0  0  0  0  0  0
    2.4873   -3.2168   -0.4137 C   0  0  0  0  0  0  0  0  0  0  0  0
  1 16  1  0
  2 16  2  0
  3  4  1  0
  3  5  1  0
  4  6  1  0
  5  7  1  0
  6  8  1  0
  7 13  1  0
  8 16  1  0
  9 10  1  0
  9 11  1  0
 10 12  1  0
 11 15  1  0
 12 17  1  0
 13 14  2  0
 14 18  1  0
 15 19  2  0
 18 21  1  0
 19 20  1  0
 20 22  1  0
 21 22  2  0
M  END
>  <PUBCHEM_COMPOUND_CID>  (1) 
3011

>  <PUBCHEM_CONFORMER_RMSD>  (1) 
1.4

>  <PUBCHEM_CONFORMER_DIVERSEORDER>  (1) 
1
27
113
34
12
77
123
129
18
72
50
14
76
42
96
55
33
128
107
144
47
80
71
28
16
92
56
8
134
40
67
57
21
142
100
133
95
10
4
15
89
30
124
31
38
5
3
130
70
98
62
44
81
117
91
53
51
63
54
79
116
119
110
94
104
90
131
29
49
69
109
138
78
111
61
88
86
108
139
75
145
122
84
58
17
132
22
73
66
48
13
52
59
24
39
46
32
11
7
68
23
135
41
120
65
140
25
99
137
35
143
83
105
64
103
43
74
19
118
115
125
127
60
97
106
20
85
112
114
26
82
141
36
45
121
101
87
136
37
126
102
9
93
2
6

>  <PUBCHEM_MMFF94_PARTIAL_CHARGES>  (1) 
21
1 -0.65
11 0.14
13 -0.29
14 -0.29
15 -0.29
16 0.66
18 0.28
19 -0.29
2 -0.57
20 0.28
21 -0.29
22 -0.29
43 0.15
44 0.15
45 0.15
51 0.15
54 0.15
55 0.15
56 0.5
7 0.14
8 0.06

>  <PUBCHEM_EFFECTIVE_ROTOR_COUNT>  (1) 
15

>  <PUBCHEM_PHARMACOPHORE_FEATURES>  (1) 
5
1 1 acceptor
1 17 hydrophobe
1 2 acceptor
3 1 2 16 anion
5 9 10 11 12 15 hydrophobe

>  <PUBCHEM_HEAVY_ATOM_COUNT>  (1) 
22

>  <PUBCHEM_ATOM_DEF_STEREO_COUNT>  (1) 
0

>  <PUBCHEM_ATOM_UDEF_STEREO_COUNT>  (1) 
0

>  <PUBCHEM_BOND_DEF_STEREO_COUNT>  (1) 
0

>  <PUBCHEM_BOND_UDEF_STEREO_COUNT>  (1) 
3

>  <PUBCHEM_ISOTOPIC_ATOM_COUNT>  (1) 
0

>  <PUBCHEM_COMPONENT_COUNT>  (1) 
1

>  <PUBCHEM_CACTVS_TAUTO_COUNT>  (1) 
1

>  <PUBCHEM_CONFORMER_ID>  (1) 
00000BC300000001

>  <PUBCHEM_MMFF94_ENERGY>  (1) 
1.5014

>  <PUBCHEM_FEATURE_SELFOVERLAP>  (1) 
25.428

>  <PUBCHEM_SHAPE_FINGERPRINT>  (1) 
12038231 1 18338517422601974006
13561361 72 18265048025247515962
14681490 219 18338510941322400607
14784336 7 17700130195584928915
15483637 11 18265331699226707877
15721738 15 15893596513012660095
3014063 31 18410291445508245326
338550 245 18335427833361466508
373842 8 18410290290177769533
57676310 18 18339921507868048633
6433294 58 18122628245769004472
653340 110 18341038723203390832

>  <PUBCHEM_SHAPE_MULTIPOLES>  (1) 
441.01
13.61
7.02
0.73
12.71
3.23
-0.01
-3.76
-0.08
-0.41
0.28
-0.03
-0.02
-0.52

>  <PUBCHEM_SHAPE_SELFOVERLAP>  (1) 
819.828

>  <PUBCHEM_SHAPE_VOLUME>  (1) 
274.9

>  <PUBCHEM_COORDINATE_TYPE>  (1) 
2
5
10

$$$$
