30111
     RDKit          3D

 14 13  0  0  1  0  0  0  0  0999 V2000
    1.3013   -0.6051    0.0105 O   0  0  0  0  0  0  0  0  0  0  0  0
   -1.4525   -0.5194   -0.4345 O   0  0  0  0  0  0  0  0  0  0  0  0
    2.5539    1.8640   -0.1604 O   0  0  0  0  0  0  0  0  0  0  0  0
   -2.6933    1.8890    0.1508 O   0  0  0  0  0  0  0  0  0  0  0  0
   -0.8095   -1.7357   -0.0565 C   0  0  0  0  0  0  0  0  0  0  0  0
    0.6213   -1.7029   -0.5781 C   0  0  0  0  0  0  0  0  0  0  0  0
    2.6454   -0.5147   -0.4595 C   0  0  0  0  0  0  0  0  0  0  0  0
   -2.8050   -0.4954   -0.0056 C   0  0  0  0  0  0  0  0  0  0  0  0
   -0.8469   -1.8614    1.4590 C   0  0  0  0  0  0  0  0  0  0  0  0
   -3.4372    0.8221   -0.4359 C   0  0  0  0  0  0  0  0  0  0  0  0
    3.2977    0.7008    0.1869 C   0  0  0  0  0  0  0  0  0  0  0  0
    3.3795   -1.7976   -0.0999 C   0  0  0  0  0  0  0  0  0  0  0  0
   -4.8842    0.9212    0.0226 C   0  0  0  0  0  0  0  0  0  0  0  0
    3.1294    3.0350    0.4006 C   0  0  0  0  0  0  0  0  0  0  0  0
  1  6  1  0
  1  7  1  0
  2  5  1  0
  2  8  1  0
  3 11  1  0
  3 14  1  0
  4 10  1  0
  5  6  1  0
  5  9  1  0
  7 11  1  0
  7 12  1  0
  8 10  1  0
 10 13  1  0
M  END
>  <PUBCHEM_COMPOUND_CID>  (1) 
30111

>  <PUBCHEM_CONFORMER_RMSD>  (1) 
0.8

>  <PUBCHEM_CONFORMER_DIVERSEORDER>  (1) 
3
243
159
70
179
206
130
52
280
290
139
33
288
269
207
108
273
89
226
295
304
268
110
144
39
187
313
275
294
246
7
191
158
55
274
301
311
197
63
306
36
111
278
303
132
204
299
129
316
195
201
82
188
312
120
277
229
10
253
44
168
218
296
152
80
16
293
250
163
83
119
171
5
271
37
99
176
78
151
289
169
1
314
157
208
102
69
185
276
172
279
28
302
122
284
61
190
165
137
213
173
49
136
225
315
255
232
87
199
77
221
177
96
76
65
263
242
298
9
94
318
233
38
162
285
203
145
260
300
249
217
58
138
20
287
97
72
92
196
211
180
224
167
79
262
24
107
56
50
215
234
235
160
115
30
270
84
31
181
205
254
124
230
62
264
241
8
155
64
216
127
228
310
265
193
248
245
186
100
178
140
147
105
227
161
90
259
286
209
307
88
118
13
57
81
166
156
27
71
126
153
98
109
4
305
308
252
146
18
237
175
46
200
74
202
51
258
6
15
66
192
223
198
123
184
21
240
141
25
182
113
35
2
14
239
53
317
214
154
68
189
170
266
45
282
174
104
231
73
244
135
106
256
143
95
85
149
281
114
247
297
261
292
40
210
67
26
116
251
112
59
34
32
29
283
272
220
236
103
86
183
194
291
131
47
93
133
309
219
43
41
22
142
121
125
60
148
222
75
12
48
267
238
42
17
117
101
128
19
257
212
11
164
150
91
134
54
23

>  <PUBCHEM_MMFF94_PARTIAL_CHARGES>  (1) 
12
1 -0.56
10 0.28
11 0.28
14 0.28
2 -0.56
3 -0.56
33 0.4
4 -0.68
5 0.28
6 0.28
7 0.28
8 0.28

>  <PUBCHEM_EFFECTIVE_ROTOR_COUNT>  (1) 
8

>  <PUBCHEM_PHARMACOPHORE_FEATURES>  (1) 
5
1 1 acceptor
1 2 acceptor
1 3 acceptor
1 4 acceptor
1 4 donor

>  <PUBCHEM_HEAVY_ATOM_COUNT>  (1) 
14

>  <PUBCHEM_ATOM_DEF_STEREO_COUNT>  (1) 
0

>  <PUBCHEM_ATOM_UDEF_STEREO_COUNT>  (1) 
3

>  <PUBCHEM_BOND_DEF_STEREO_COUNT>  (1) 
0

>  <PUBCHEM_BOND_UDEF_STEREO_COUNT>  (1) 
0

>  <PUBCHEM_ISOTOPIC_ATOM_COUNT>  (1) 
0

>  <PUBCHEM_COMPONENT_COUNT>  (1) 
1

>  <PUBCHEM_CACTVS_TAUTO_COUNT>  (1) 
1

>  <PUBCHEM_CONFORMER_ID>  (1) 
0000759F00000003

>  <PUBCHEM_MMFF94_ENERGY>  (1) 
35.1128

>  <PUBCHEM_FEATURE_SELFOVERLAP>  (1) 
25.386

>  <PUBCHEM_SHAPE_FINGERPRINT>  (1) 
10608611 8 18410013281634919102
11615756 256 18338524134987478908
122479 349 18335702792513884931
13618510 140 18339642351345535116
14648413 74 18410014368673277074
15295992 7 18261121750533876555
15342816 4 13110957596215606183
17041 50 18271822185396144046
17802600 8 18336262323747178893
18186145 218 18335134259139967239
20281407 28 9439399138152617039
20281475 54 9007065681327074079
20304884 271 18338517555218491482
20621476 13 18337380574333877765
20653085 51 18413393133081633083
20671657 1 18410856555751095358
21041028 32 17470437439927472434
212847 35 18188214204185480110
21524375 3 18261395486222417783
22485316 2 8718536212590807127
22959321 54 18413109480598519537
23503958 25 17975431414173397276
351380 180 18409726223284970263
43658 37 18271799185308138401
474 4 18411417306544156361
6333272 397 18408322172843293219
81228 2 17315084491391279147
8199 26 18195245740006740436
9981440 41 18051118487520179392

>  <PUBCHEM_SHAPE_MULTIPOLES>  (1) 
264.64
8.13
2.91
0.84
4.72
1.59
-0.21
4.7
0.28
-2.37
-0.46
0.09
-0.32
0.63

>  <PUBCHEM_SHAPE_SELFOVERLAP>  (1) 
487.802

>  <PUBCHEM_SHAPE_VOLUME>  (1) 
169.3

>  <PUBCHEM_COORDINATE_TYPE>  (1) 
2
5
10

$$$$
