30122
     RDKit          3D

 12 11  0  0  0  0  0  0  0  0999 V2000
   -2.7310   -0.4049   -0.0026 O   0  0  0  0  0  0  0  0  0  0  0  0
    0.8132    0.1044    0.0028 O   0  0  0  0  0  0  0  0  0  0  0  0
   -1.4716    1.5295    0.0238 O   0  0  0  0  0  0  0  0  0  0  0  0
    2.0290   -1.8501    0.0085 O   0  0  0  0  0  0  0  0  0  0  0  0
   -3.9319    0.3737   -0.0053 C   0  0  0  0  0  0  0  0  0  0  0  0
   -0.4049   -0.6476    0.0128 C   0  0  0  0  0  0  0  0  0  0  0  0
   -1.5676    0.3097    0.0126 C   0  0  0  0  0  0  0  0  0  0  0  0
   -5.1242   -0.5590   -0.0226 C   0  0  0  0  0  0  0  0  0  0  0  0
    3.1361    0.2841   -0.0076 C   0  0  0  0  0  0  0  0  0  0  0  0
    1.9594   -0.6291    0.0018 C   0  0  0  0  0  0  0  0  0  0  0  0
    2.9406    1.7693   -0.0154 C   0  0  0  0  0  0  0  0  0  0  0  0
    4.3529   -0.2800   -0.0087 C   0  0  0  0  0  0  0  0  0  0  0  0
  1  5  1  0
  1  7  1  0
  2  6  1  0
  2 10  1  0
  3  7  2  0
  4 10  2  0
  5  8  1  0
  6  7  1  0
  9 10  1  0
  9 11  1  0
  9 12  2  0
M  END
>  <PUBCHEM_COMPOUND_CID>  (1) 
30122

>  <PUBCHEM_CONFORMER_RMSD>  (1) 
0.6

>  <PUBCHEM_CONFORMER_DIVERSEORDER>  (1) 
1
66
37
180
151
200
59
246
157
266
176
228
90
128
114
139
197
243
214
99
219
15
267
191
241
118
127
207
11
138
39
3
20
177
136
212
130
61
48
133
64
47
222
183
28
250
110
269
137
23
103
33
204
273
44
279
188
97
109
170
124
18
171
202
72
6
194
144
159
22
149
27
265
255
63
43
187
190
195
224
164
65
51
75
26
242
240
49
260
211
41
215
88
36
5
150
141
45
186
4
69
134
271
258
62
19
209
12
259
82
116
152
196
218
193
217
231
192
74
275
83
91
34
175
50
253
245
76
7
94
254
117
119
237
158
220
262
24
13
31
205
2
162
98
251
80
102
181
280
140
252
174
230
264
40
221
125
147
60
249
112
263
58
184
270
167
115
225
182
42
235
101
120
71
10
84
53
132
166
154
213
143
107
38
272
135
178
129
276
238
104
153
67
244
206
122
121
146
268
168
236
208
105
233
261
239
54
96
100
172
87
68
257
234
14
81
161
52
17
73
247
35
274
248
142
199
185
210
226
160
203
155
79
85
145
95
55
216
46
29
108
169
86
21
30
123
156
77
165
278
56
93
201
8
9
70
198
78
189
92
89
106
227
173
229
113
25
57
232
163
131
256
111
126
277
16
148
179
223
32

>  <PUBCHEM_MMFF94_PARTIAL_CHARGES>  (1) 
13
1 -0.43
10 0.71
11 0.14
12 -0.3
2 -0.43
23 0.15
24 0.15
3 -0.57
4 -0.57
5 0.28
6 0.34
7 0.66
9 -0.12

>  <PUBCHEM_EFFECTIVE_ROTOR_COUNT>  (1) 
6

>  <PUBCHEM_PHARMACOPHORE_FEATURES>  (1) 
2
1 3 acceptor
1 4 acceptor

>  <PUBCHEM_HEAVY_ATOM_COUNT>  (1) 
12

>  <PUBCHEM_ATOM_DEF_STEREO_COUNT>  (1) 
0

>  <PUBCHEM_ATOM_UDEF_STEREO_COUNT>  (1) 
0

>  <PUBCHEM_BOND_DEF_STEREO_COUNT>  (1) 
0

>  <PUBCHEM_BOND_UDEF_STEREO_COUNT>  (1) 
0

>  <PUBCHEM_ISOTOPIC_ATOM_COUNT>  (1) 
0

>  <PUBCHEM_COMPONENT_COUNT>  (1) 
1

>  <PUBCHEM_CACTVS_TAUTO_COUNT>  (1) 
1

>  <PUBCHEM_CONFORMER_ID>  (1) 
000075AA00000001

>  <PUBCHEM_MMFF94_ENERGY>  (1) 
12.6296

>  <PUBCHEM_FEATURE_SELFOVERLAP>  (1) 
10.149

>  <PUBCHEM_SHAPE_FINGERPRINT>  (1) 
11062470 55 13695587754130614583
11471102 20 18411135857337314388
12932764 1 17131252589524328107
13380535 76 18409450293153763042
14123238 8 17603867819112538455
14251717 144 18411136952290061949
14325111 11 18410575041945514537
17802600 8 18410007728421793776
17834072 33 18272366529598399759
17834076 25 17458064863365648463
18522853 276 18343580737824849112
200 152 18272649043487691001
20279233 1 17894639144929290643
20528008 55 18260829319232568019
20645477 70 18337951177881856679
20719005 15 18410575097869812131
22485316 2 18410571782550847967
23402539 116 18335975424258389407
23402655 69 18341328911866683789
25610 137 18411983563780781057
449060 62 18340771523975122764
58051976 378 18272369758733662287

>  <PUBCHEM_SHAPE_MULTIPOLES>  (1) 
223.48
9.42
1.4
0.58
6.77
0.2
0
-0.29
0.08
-0.94
0
-0.01
0.01
-0.02

>  <PUBCHEM_SHAPE_SELFOVERLAP>  (1) 
426.341

>  <PUBCHEM_SHAPE_VOLUME>  (1) 
137.6

>  <PUBCHEM_COORDINATE_TYPE>  (1) 
2
5
10

$$$$
