30126
     RDKit          3D

 15 15  0  0  0  0  0  0  0  0999 V2000
    2.5482   -1.7391   -1.4646 Cl  0  0  0  0  0  0  0  0  0  0  0  0
    3.9079    0.3339    0.0053 Cl  0  0  0  0  0  0  0  0  0  0  0  0
    2.5360   -1.7453    1.4620 Cl  0  0  0  0  0  0  0  0  0  0  0  0
   -2.5485   -1.7392    1.4645 Cl  0  0  0  0  0  0  0  0  0  0  0  0
   -3.9079    0.3338   -0.0057 Cl  0  0  0  0  0  0  0  0  0  0  0  0
   -2.5356   -1.7453   -1.4622 Cl  0  0  0  0  0  0  0  0  0  0  0  0
   -0.0001   -0.6765    0.0002 N   0  0  0  0  0  0  0  0  0  0  0  0
   -1.1998    1.4016   -0.0002 N   0  0  0  0  0  0  0  0  0  0  0  0
    1.1998    1.4016    0.0006 N   0  0  0  0  0  0  0  0  0  0  0  0
   -0.0001    3.4163   -0.0003 N   0  0  0  0  0  0  0  0  0  0  0  0
    1.1222    0.0611    0.0006 C   0  0  0  0  0  0  0  0  0  0  0  0
   -1.1221    0.0611   -0.0002 C   0  0  0  0  0  0  0  0  0  0  0  0
    2.4131   -0.6843    0.0009 C   0  0  0  0  0  0  0  0  0  0  0  0
   -2.4130   -0.6842   -0.0010 C   0  0  0  0  0  0  0  0  0  0  0  0
    0.0000    2.0046    0.0001 C   0  0  0  0  0  0  0  0  0  0  0  0
  1 13  1  0
  2 13  1  0
  3 13  1  0
  4 14  1  0
  5 14  1  0
  6 14  1  0
  7 11  2  0
  7 12  1  0
  8 12  2  0
  8 15  1  0
  9 11  1  0
  9 15  2  0
 10 15  1  0
 11 13  1  0
 12 14  1  0
M  END
>  <PUBCHEM_COMPOUND_CID>  (1) 
30126

>  <PUBCHEM_CONFORMER_RMSD>  (1) 
0.6

>  <PUBCHEM_CONFORMER_DIVERSEORDER>  (1) 
1
3
2

>  <PUBCHEM_MMFF94_PARTIAL_CHARGES>  (1) 
17
1 -0.29
10 -0.9
11 0.48
12 0.48
13 1.01
14 1.01
15 0.72
16 0.4
17 0.4
2 -0.29
3 -0.29
4 -0.29
5 -0.29
6 -0.29
7 -0.62
8 -0.62
9 -0.62

>  <PUBCHEM_EFFECTIVE_ROTOR_COUNT>  (1) 
2

>  <PUBCHEM_PHARMACOPHORE_FEATURES>  (1) 
3
1 10 donor
4 8 9 10 15 cation
6 7 8 9 11 12 15 rings

>  <PUBCHEM_HEAVY_ATOM_COUNT>  (1) 
15

>  <PUBCHEM_ATOM_DEF_STEREO_COUNT>  (1) 
0

>  <PUBCHEM_ATOM_UDEF_STEREO_COUNT>  (1) 
0

>  <PUBCHEM_BOND_DEF_STEREO_COUNT>  (1) 
0

>  <PUBCHEM_BOND_UDEF_STEREO_COUNT>  (1) 
0

>  <PUBCHEM_ISOTOPIC_ATOM_COUNT>  (1) 
0

>  <PUBCHEM_COMPONENT_COUNT>  (1) 
1

>  <PUBCHEM_CACTVS_TAUTO_COUNT>  (1) 
3

>  <PUBCHEM_CONFORMER_ID>  (1) 
000075AE00000001

>  <PUBCHEM_MMFF94_ENERGY>  (1) 
29.9985

>  <PUBCHEM_FEATURE_SELFOVERLAP>  (1) 
15.223

>  <PUBCHEM_SHAPE_FINGERPRINT>  (1) 
10130415 120 18334293150114238497
108231 29 18116725195214084602
11132069 177 18131344241771867242
12553582 1 18410567388082106723
12759256 9 18124879211709928068
14022347 108 18192450600891144931
14115302 16 17603595101215740471
14252887 29 18270975603933519258
14648413 74 18192149511104904657
15375358 24 18411416211058561419
15375462 189 18334010609664112507
15848700 24 18271801285773733381
16945 1 17978229353084916976
17990270 104 18340488992515474711
20645476 183 17317632892923862454
20645477 70 18051968410093398087
20711985 344 18122355579200258926
20871998 184 18199466562928466068
20871998 22 18341345430331970558
21524375 3 17255402617766931485
232386 152 18116706327391461786
23388829 49 18270675488782770204
23402539 116 18411694409650504086
23419403 2 14720622853676591835
23552423 10 18123183769454672965
23557571 272 18338801100828530908
23559900 14 18196087742954911270
2748010 2 18411978057237081780
3312278 4 18186806884936041594
34934 24 18410851062081663680
352729 6 17690557481448308292
5902787 121 18188207705599365458
6338986 31 18267279024197327175
6992083 37 18059868259283299403
7364860 26 18126847337587366353
8030462 33 17823711771730451122
81228 2 18194407697065545136

>  <PUBCHEM_SHAPE_MULTIPOLES>  (1) 
299.99
5.95
2.69
1.25
0
1.95
0
-2.28
0
0
0
0
-1.08
0

>  <PUBCHEM_SHAPE_SELFOVERLAP>  (1) 
559.835

>  <PUBCHEM_SHAPE_VOLUME>  (1) 
183.3

>  <PUBCHEM_COORDINATE_TYPE>  (1) 
2
5
10

$$$$
