30125
     RDKit          3D

 16 17  0  0  0  0  0  0  0  0999 V2000
   -3.0000    2.4487   -1.3271 Cl  0  0  0  0  0  0  0  0  0  0  0  0
   -3.6055   -1.7027    1.6819 Cl  0  0  0  0  0  0  0  0  0  0  0  0
    1.0491   -1.6351   -1.7089 O   0  0  0  0  0  0  0  0  0  0  0  0
    1.9137   -0.4390    0.1065 N   0  0  0  0  0  0  0  0  0  0  0  0
   -3.0864    0.3068    0.1296 N   0  0  0  0  0  0  0  0  0  0  0  0
    1.6915    0.4284    1.2467 C   0  0  0  0  0  0  0  0  0  0  0  0
    2.7878    1.2943    1.7557 C   0  0  0  0  0  0  0  0  0  0  0  0
    1.6042    1.9012    1.0610 C   0  0  0  0  0  0  0  0  0  0  0  0
    3.2853   -0.8850   -0.1014 C   0  0  0  0  0  0  0  0  0  0  0  0
    0.8949   -0.8998   -0.7353 C   0  0  0  0  0  0  0  0  0  0  0  0
    4.0304    0.0345   -1.0467 C   0  0  0  0  0  0  0  0  0  0  0  0
   -0.4845   -0.4824   -0.4359 C   0  0  0  0  0  0  0  0  0  0  0  0
   -0.9805    0.6780   -0.9981 C   0  0  0  0  0  0  0  0  0  0  0  0
   -1.2626   -1.2564    0.4030 C   0  0  0  0  0  0  0  0  0  0  0  0
   -2.2839    1.0282   -0.6847 C   0  0  0  0  0  0  0  0  0  0  0  0
   -2.5535   -0.8198    0.6536 C   0  0  0  0  0  0  0  0  0  0  0  0
  1 15  1  0
  2 16  1  0
  3 10  2  0
  4  6  1  0
  4  9  1  0
  4 10  1  0
  5 15  2  0
  5 16  1  0
  6  7  1  0
  6  8  1  0
  7  8  1  0
  9 11  1  0
 10 12  1  0
 12 13  2  0
 12 14  1  0
 13 15  1  0
 14 16  2  0
M  END
>  <PUBCHEM_COMPOUND_CID>  (1) 
30125

>  <PUBCHEM_CONFORMER_RMSD>  (1) 
0.6

>  <PUBCHEM_CONFORMER_DIVERSEORDER>  (1) 
1
13
7
10
6
15
2
16
8
3
9
4
14
11
12
5

>  <PUBCHEM_MMFF94_PARTIAL_CHARGES>  (1) 
22
1 -0.18
10 0.54
12 0.09
13 -0.15
14 -0.15
15 0.49
16 0.49
17 0.1
18 0.1
19 0.1
2 -0.18
20 0.1
21 0.1
27 0.15
28 0.15
3 -0.57
4 -0.51
5 -0.62
6 0.05
7 -0.2
8 -0.2
9 0.3

>  <PUBCHEM_EFFECTIVE_ROTOR_COUNT>  (1) 
4.6

>  <PUBCHEM_PHARMACOPHORE_FEATURES>  (1) 
3
1 3 acceptor
1 5 acceptor
6 5 12 13 14 15 16 rings

>  <PUBCHEM_HEAVY_ATOM_COUNT>  (1) 
16

>  <PUBCHEM_ATOM_DEF_STEREO_COUNT>  (1) 
0

>  <PUBCHEM_ATOM_UDEF_STEREO_COUNT>  (1) 
0

>  <PUBCHEM_BOND_DEF_STEREO_COUNT>  (1) 
0

>  <PUBCHEM_BOND_UDEF_STEREO_COUNT>  (1) 
0

>  <PUBCHEM_ISOTOPIC_ATOM_COUNT>  (1) 
0

>  <PUBCHEM_COMPONENT_COUNT>  (1) 
1

>  <PUBCHEM_CACTVS_TAUTO_COUNT>  (1) 
1

>  <PUBCHEM_CONFORMER_ID>  (1) 
000075AD00000001

>  <PUBCHEM_MMFF94_ENERGY>  (1) 
39.85

>  <PUBCHEM_FEATURE_SELFOVERLAP>  (1) 
15.223

>  <PUBCHEM_SHAPE_FINGERPRINT>  (1) 
10366900 7 18410012135073868875
104564 63 17344925009651857416
124424 183 18268137665732777542
12500047 106 17969212348546316367
12670545 47 18412259571105718951
12716301 132 18187360995915294017
12932764 1 18342171189366103438
13294875 104 17037510208468677765
13538477 17 17022899038880454253
13764800 53 18261667095643308305
14289901 80 17821452365344802218
14787075 74 16014121532847660020
14957384 54 16517080701465171284
15219456 202 18343016722281396160
15295992 7 18271517598836429689
15653759 3 18408886243419201650
15906896 17 12544304397316487567
16945 1 18190449635562236922
17844478 74 18410294747889703169
18186145 218 17489866059661232222
18219364 16 18059849580064269392
19049666 15 18267021648429534611
19422 9 17022902337515752978
20233049 118 18269265782217317300
20361792 2 13768190667260219002
20715346 28 18340759424962436376
21041028 32 17202786829202656568
21639500 275 17418080040436725016
22112679 90 16298383535206077455
23175994 123 17987810600884178806
23236772 104 16008756813704844236
23493267 7 18115305570772663776
23503958 8 17530962466828091754
23526113 38 18126849300350335175
23557571 272 18334020501627799343
23559900 14 18041277677767954294
23598291 2 15409501952844637063
23598294 1 17530965774095171385
25 1 18129375990887190484
2748010 2 18201143442968330304
3060560 45 17201898372220255380
6049 1 18412262865108381808
633830 44 16415208887957285910
74978 22 17203322364458844294
77492 1 15482667978904044066
81228 2 18113908139481926333
84936 182 17253690695996715229

>  <PUBCHEM_SHAPE_MULTIPOLES>  (1) 
317.18
6.47
2.11
1.67
0.92
0.86
0.32
-0.06
0.69
-2.33
0.02
0.98
0.06
2.03

>  <PUBCHEM_SHAPE_SELFOVERLAP>  (1) 
642.545

>  <PUBCHEM_SHAPE_VOLUME>  (1) 
187.9

>  <PUBCHEM_COORDINATE_TYPE>  (1) 
2
5
10

$$$$
