30128
     RDKit          3D

 16 17  0  0  0  0  0  0  0  0999 V2000
   -5.7518   -0.8352    0.0556 Br  0  0  0  0  0  0  0  0  0  0  0  0
    4.9251    1.5253   -0.1286 Cl  0  0  0  0  0  0  0  0  0  0  0  0
    2.4927   -3.0507    0.3287 Cl  0  0  0  0  0  0  0  0  0  0  0  0
   -0.0121    1.1927   -0.1242 N   0  0  0  0  0  0  0  0  0  0  0  0
    1.2079   -0.7985    0.0889 N   0  0  0  0  0  0  0  0  0  0  0  0
    2.3297    1.3122   -0.1220 N   0  0  0  0  0  0  0  0  0  0  0  0
    3.6057   -0.7085    0.0943 N   0  0  0  0  0  0  0  0  0  0  0  0
   -1.3416    0.7238   -0.0830 C   0  0  0  0  0  0  0  0  0  0  0  0
   -2.3518    1.5342    0.4348 C   0  0  0  0  0  0  0  0  0  0  0  0
   -1.6461   -0.5511   -0.5602 C   0  0  0  0  0  0  0  0  0  0  0  0
    1.2329    0.5385   -0.0490 C   0  0  0  0  0  0  0  0  0  0  0  0
   -3.6665    1.0698    0.4757 C   0  0  0  0  0  0  0  0  0  0  0  0
   -2.9607   -1.0155   -0.5194 C   0  0  0  0  0  0  0  0  0  0  0  0
   -3.9709   -0.2052   -0.0013 C   0  0  0  0  0  0  0  0  0  0  0  0
    3.4784    0.6211   -0.0438 C   0  0  0  0  0  0  0  0  0  0  0  0
    2.4292   -1.3529    0.1533 C   0  0  0  0  0  0  0  0  0  0  0  0
  1 14  1  0
  2 15  1  0
  3 16  1  0
  4  8  1  0
  4 11  1  0
  5 11  2  0
  5 16  1  0
  6 11  1  0
  6 15  2  0
  7 15  1  0
  7 16  2  0
  8  9  2  0
  8 10  1  0
  9 12  1  0
 10 13  2  0
 12 14  2  0
 13 14  1  0
M  END
>  <PUBCHEM_COMPOUND_CID>  (1) 
30128

>  <PUBCHEM_CONFORMER_RMSD>  (1) 
0.6

>  <PUBCHEM_CONFORMER_DIVERSEORDER>  (1) 
1
4
2
3

>  <PUBCHEM_MMFF94_PARTIAL_CHARGES>  (1) 
21
1 -0.11
10 -0.15
11 0.72
12 -0.15
13 -0.15
14 0.11
15 0.8
16 0.8
17 0.4
18 0.15
19 0.15
2 -0.18
20 0.15
21 0.15
3 -0.18
4 -0.6
5 -0.62
6 -0.62
7 -0.62
8 0.1
9 -0.15

>  <PUBCHEM_EFFECTIVE_ROTOR_COUNT>  (1) 
2

>  <PUBCHEM_PHARMACOPHORE_FEATURES>  (1) 
5
1 1 hydrophobe
1 4 donor
4 4 5 6 11 cation
6 5 6 7 11 15 16 rings
6 8 9 10 12 13 14 rings

>  <PUBCHEM_HEAVY_ATOM_COUNT>  (1) 
16

>  <PUBCHEM_ATOM_DEF_STEREO_COUNT>  (1) 
0

>  <PUBCHEM_ATOM_UDEF_STEREO_COUNT>  (1) 
0

>  <PUBCHEM_BOND_DEF_STEREO_COUNT>  (1) 
0

>  <PUBCHEM_BOND_UDEF_STEREO_COUNT>  (1) 
0

>  <PUBCHEM_ISOTOPIC_ATOM_COUNT>  (1) 
0

>  <PUBCHEM_COMPONENT_COUNT>  (1) 
1

>  <PUBCHEM_CACTVS_TAUTO_COUNT>  (1) 
3

>  <PUBCHEM_CONFORMER_ID>  (1) 
000075B000000001

>  <PUBCHEM_MMFF94_ENERGY>  (1) 
44.1419

>  <PUBCHEM_FEATURE_SELFOVERLAP>  (1) 
25.371

>  <PUBCHEM_SHAPE_FINGERPRINT>  (1) 
10366900 7 18341332283510924505
10616163 171 18341613771404704975
12107183 9 17692537715191001745
12236239 1 18343867727470768453
12251169 10 18343864428904132813
13167823 11 18342176635590070743
13533116 47 18341890775763253707
13760787 19 18272652354722924933
14144814 61 18341331110979505969
15196674 1 18411419471334157099
15242433 33 18412544331806277183
15375358 24 17967534583759240819
15375462 189 18273209798607355115
15442244 35 18124033425428105162
15536298 74 18342176635590096758
17492 89 18339924788601018627
17834072 33 18413387661519670709
19050596 39 18412260614729966032
19422 9 18340488855102758691
200 152 18413385458528592853
20279233 1 16153427250921193233
20281475 54 18338796706485993771
20645477 70 18334289829772618375
21065198 48 18343024350523180473
21267235 1 18412834568215766646
22445834 79 18412824659910616639
22485316 2 18409165489661371677
2255824 54 18334861649371413868
23402539 116 12035722154847535603
23402655 69 18411697668902973285
23463225 33 18340768130971876199
23559900 14 18125432021488410034
26918003 58 18114180878194489795
2871803 45 18334855008834983503
33824 294 18334856117226858698
3545911 37 18410293639798742101
4214541 1 18411700942127047033
474 4 18187650266516473444
4990 188 17988937660738276636
5104073 3 18340206293588987177
7364860 26 18341049610750118622
77779 3 18411983524936015401
9709674 26 18336271167127409555

>  <PUBCHEM_SHAPE_MULTIPOLES>  (1) 
319.03
10.8
2.2
0.69
4.6
1.45
0
-0.03
0.25
-2.11
0.26
0.2
0.03
-0.65

>  <PUBCHEM_SHAPE_SELFOVERLAP>  (1) 
648.527

>  <PUBCHEM_SHAPE_VOLUME>  (1) 
191.9

>  <PUBCHEM_COORDINATE_TYPE>  (1) 
2
5
10

$$$$
