30137
     RDKit          3D

 22 25  0  0  1  0  0  0  0  0999 V2000
    3.7643    0.9709   -0.5635 O   0  0  0  0  0  0  0  0  0  0  0  0
    5.1355   -1.3387   -0.4213 O   0  0  0  0  0  0  0  0  0  0  0  0
   -2.6419   -0.3437    0.1035 N   0  0  0  0  0  0  0  0  0  0  0  0
   -1.1886   -0.3437   -0.2069 C   0  0  0  0  0  0  0  0  0  0  0  0
   -0.5339    1.0270   -0.0052 C   0  0  0  0  0  0  0  0  0  0  0  0
   -0.4283   -1.3875    0.6424 C   0  0  0  0  0  0  0  0  0  0  0  0
   -3.3053    0.7610   -0.6075 C   0  0  0  0  0  0  0  0  0  0  0  0
   -1.3253    2.1923    0.0100 C   0  0  0  0  0  0  0  0  0  0  0  0
   -2.8242    2.1018   -0.0611 C   0  0  0  0  0  0  0  0  0  0  0  0
    0.8777    1.1157    0.1013 C   0  0  0  0  0  0  0  0  0  0  0  0
    1.0562   -1.3575    0.3551 C   0  0  0  0  0  0  0  0  0  0  0  0
   -3.2890   -1.6068   -0.2674 C   0  0  0  0  0  0  0  0  0  0  0  0
    1.6886   -0.1235    0.0902 C   0  0  0  0  0  0  0  0  0  0  0  0
   -0.7204    3.4438    0.1605 C   0  0  0  0  0  0  0  0  0  0  0  0
    1.4499    2.3922    0.2486 C   0  0  0  0  0  0  0  0  0  0  0  0
   -4.7587   -1.5904    0.1452 C   0  0  0  0  0  0  0  0  0  0  0  0
    1.7973   -2.5488    0.3948 C   0  0  0  0  0  0  0  0  0  0  0  0
    3.0696   -0.1403   -0.1751 C   0  0  0  0  0  0  0  0  0  0  0  0
    0.6606    3.5424    0.2759 C   0  0  0  0  0  0  0  0  0  0  0  0
    3.7991   -1.3325   -0.1503 C   0  0  0  0  0  0  0  0  0  0  0  0
    3.1649   -2.5348    0.1402 C   0  0  0  0  0  0  0  0  0  0  0  0
   -5.4480   -2.8989   -0.2094 C   0  0  0  0  0  0  0  0  0  0  0  0
  1 18  1  0
  2 20  1  0
  3  4  1  0
  3  7  1  0
  3 12  1  0
  4  5  1  0
  4  6  1  0
  5  8  2  0
  5 10  1  0
  6 11  1  0
  7  9  1  0
  8  9  1  0
  8 14  1  0
 10 13  1  0
 10 15  2  0
 11 13  2  0
 11 17  1  0
 12 16  1  0
 13 18  1  0
 14 19  2  0
 15 19  1  0
 16 22  1  0
 17 21  2  0
 18 20  2  0
 20 21  1  0
M  END
>  <PUBCHEM_COMPOUND_CID>  (1) 
30137

>  <PUBCHEM_CONFORMER_RMSD>  (1) 
0.6

>  <PUBCHEM_CONFORMER_DIVERSEORDER>  (1) 
5
3
7
1
4
6
2

>  <PUBCHEM_MMFF94_PARTIAL_CHARGES>  (1) 
25
1 -0.53
11 -0.14
12 0.27
14 -0.15
15 -0.15
17 -0.15
18 0.08
19 -0.15
2 -0.53
20 0.08
21 -0.15
3 -0.81
32 0.15
33 0.15
36 0.15
37 0.15
38 0.15
4 0.41
42 0.45
43 0.45
5 -0.14
6 0.14
7 0.27
8 -0.14
9 0.14

>  <PUBCHEM_EFFECTIVE_ROTOR_COUNT>  (1) 
2.8

>  <PUBCHEM_PHARMACOPHORE_FEATURES>  (1) 
8
1 1 donor
1 2 donor
1 22 hydrophobe
1 3 cation
6 11 13 17 18 20 21 rings
6 3 4 5 7 8 9 rings
6 4 5 6 10 11 13 rings
6 5 8 10 14 15 19 rings

>  <PUBCHEM_HEAVY_ATOM_COUNT>  (1) 
22

>  <PUBCHEM_ATOM_DEF_STEREO_COUNT>  (1) 
0

>  <PUBCHEM_ATOM_UDEF_STEREO_COUNT>  (1) 
1

>  <PUBCHEM_BOND_DEF_STEREO_COUNT>  (1) 
0

>  <PUBCHEM_BOND_UDEF_STEREO_COUNT>  (1) 
0

>  <PUBCHEM_ISOTOPIC_ATOM_COUNT>  (1) 
0

>  <PUBCHEM_COMPONENT_COUNT>  (1) 
1

>  <PUBCHEM_CACTVS_TAUTO_COUNT>  (1) 
18

>  <PUBCHEM_CONFORMER_ID>  (1) 
000075B900000005

>  <PUBCHEM_MMFF94_ENERGY>  (1) 
66.02

>  <PUBCHEM_FEATURE_SELFOVERLAP>  (1) 
40.69

>  <PUBCHEM_SHAPE_FINGERPRINT>  (1) 
10319926 262 17836335196648411906
10411042 1 18411136948037688867
10616163 171 18268430131377915494
10693767 8 18057893634926015382
10967382 1 18266177421046838192
1100329 8 18339364046492714393
11045515 52 18259985946733259509
11578080 2 17631430341779285273
12403259 226 18408598193190575365
12553582 1 18340756122254379343
13140716 1 18267294340081983272
13533116 47 18054510481478047347
138480 1 14808257899255902425
14178342 30 17976241462254111234
14767858 380 18262530315729766246
14787075 74 18187651335609830690
14790565 3 17255408640013018821
15042514 8 18195246611784549907
15196674 1 18409449176171582964
15442244 35 17615968807886050746
15475509 84 18058468590125386521
15927050 60 17548701132805776086
16087824 20 18194403287226655189
16945 1 18338791311980819688
17492 89 18266177236548744190
17980427 26 16982918816574246153
19591789 44 18410856589715155626
20028762 73 16469528374443094247
20510252 161 17695059994638701480
20645477 70 18047177829520311751
20775438 99 17191451023698793911
20905425 154 18341051835136963804
21197605 99 17038669630870235355
21267235 1 18410301297778659054
21634736 98 18264773164678599198
221357 26 18335977649505330823
221490 88 18336265747157866995
22182313 1 18265872813698407965
2334 1 18410009897158349016
23352939 185 18271534185815133827
23379529 103 18128826226737361974
23402539 116 18338230462794121782
23557571 272 17914895327573066876
23558518 356 18046074761332463330
23559900 14 18268701707151250096
2748010 2 18337939194886054073
2871803 45 18261668259732432823
3091708 16 9210110290420865617
335352 9 18194682566619957565
3421961 26 18268147737689393747
350125 39 18409733984823890405
46194498 28 17459743929591255807
5104073 3 18342172241564123784
54173680 148 18194962933310118897
6443956 14 18337109081108283613
7364860 26 18195806495089136809
9709674 26 17982451486584240934

>  <PUBCHEM_SHAPE_MULTIPOLES>  (1) 
436.03
8.38
4.21
0.69
3.71
2.19
-0.01
-8.31
1.27
0.96
-0.37
-0.01
-0.03
-0.03

>  <PUBCHEM_SHAPE_SELFOVERLAP>  (1) 
960.331

>  <PUBCHEM_SHAPE_VOLUME>  (1) 
233.8

>  <PUBCHEM_COORDINATE_TYPE>  (1) 
2
5
10

$$$$
