30144
     RDKit          3D

 13 13  0  0  0  0  0  0  0  0999 V2000
   -1.4780    2.3473   -0.0009 Cl  0  0  0  0  0  0  0  0  0  0  0  0
    1.6847    2.7319    0.0002 Cl  0  0  0  0  0  0  0  0  0  0  0  0
    2.2913   -2.6439    0.0000 Cl  0  0  0  0  0  0  0  0  0  0  0  0
    3.1724    0.1998    0.0001 O   0  0  0  0  0  0  0  0  0  0  0  0
   -2.7781   -1.7194   -0.0005 O   0  0  0  0  0  0  0  0  0  0  0  0
   -3.1289    0.4477    0.0008 O   0  0  0  0  0  0  0  0  0  0  0  0
   -2.3575   -0.5393    0.0001 N   0  0  0  0  0  0  0  0  0  0  0  0
   -0.9516   -0.3117    0.0003 C   0  0  0  0  0  0  0  0  0  0  0  0
   -0.4107    0.9740    0.0002 C   0  0  0  0  0  0  0  0  0  0  0  0
   -0.1085   -1.4232    0.0000 C   0  0  0  0  0  0  0  0  0  0  0  0
    1.8162    0.0371   -0.0001 C   0  0  0  0  0  0  0  0  0  0  0  0
    0.9732    1.1484    0.0000 C   0  0  0  0  0  0  0  0  0  0  0  0
    1.2754   -1.2486   -0.0002 C   0  0  0  0  0  0  0  0  0  0  0  0
  1  9  1  0
  2 12  1  0
  3 13  1  0
  4 11  1  0
  5  7  1  0
  6  7  2  0
  7  8  1  0
  8  9  2  0
  8 10  1  0
  9 12  1  0
 10 13  2  0
 11 12  2  0
 11 13  1  0
M  CHG  2   5  -1   7   1
M  END
>  <PUBCHEM_COMPOUND_CID>  (1) 
30144

>  <PUBCHEM_CONFORMER_RMSD>  (1) 
0.4

>  <PUBCHEM_CONFORMER_DIVERSEORDER>  (1) 
1

>  <PUBCHEM_MMFF94_PARTIAL_CHARGES>  (1) 
15
1 -0.18
10 -0.15
11 0.08
12 0.18
13 0.18
14 0.15
15 0.45
2 -0.18
3 -0.18
4 -0.53
5 -0.52
6 -0.52
7 0.91
8 0.13
9 0.18

>  <PUBCHEM_EFFECTIVE_ROTOR_COUNT>  (1) 
1

>  <PUBCHEM_PHARMACOPHORE_FEATURES>  (1) 
5
1 4 donor
1 5 acceptor
1 5 anion
1 6 acceptor
6 8 9 10 11 12 13 rings

>  <PUBCHEM_HEAVY_ATOM_COUNT>  (1) 
13

>  <PUBCHEM_ATOM_DEF_STEREO_COUNT>  (1) 
0

>  <PUBCHEM_ATOM_UDEF_STEREO_COUNT>  (1) 
0

>  <PUBCHEM_BOND_DEF_STEREO_COUNT>  (1) 
0

>  <PUBCHEM_BOND_UDEF_STEREO_COUNT>  (1) 
0

>  <PUBCHEM_ISOTOPIC_ATOM_COUNT>  (1) 
0

>  <PUBCHEM_COMPONENT_COUNT>  (1) 
1

>  <PUBCHEM_CACTVS_TAUTO_COUNT>  (1) 
5

>  <PUBCHEM_CONFORMER_ID>  (1) 
000075C000000001

>  <PUBCHEM_MMFF94_ENERGY>  (1) 
44.3586

>  <PUBCHEM_FEATURE_SELFOVERLAP>  (1) 
25.453

>  <PUBCHEM_SHAPE_FINGERPRINT>  (1) 
10967382 1 18410573950807569509
11206711 2 18409172099320816972
13140716 1 18194402427330206962
13380535 76 17835800081680994432
16945 1 18410855473055287684
17990270 104 18409728456451965786
193761 8 18338797801787277572
19973954 147 18410575050466942325
20201158 50 18408600374838782795
20645477 70 18267016335998556087
20711985 365 18049441448313738950
21040471 1 17762055840937540580
21501502 16 18267305322329170012
2334 1 17834396005136989762
23526114 1 18122905601191278069
23552423 10 18409451422587178389
23559900 14 17693655919108196142
241688 4 18121782716609979320
2748010 2 18195523692962036150
5084963 1 18130511928301337496
528886 8 18411695508676601323
53812653 166 18343014489241462560
54173680 148 17905892470098037714
63268167 104 18410579448460634705
7364860 26 18413388748141115184

>  <PUBCHEM_SHAPE_MULTIPOLES>  (1) 
250.55
4.06
3.05
0.6
0.75
0.98
0
-1.38
0
-0.73
0
-0.04
0.03
0

>  <PUBCHEM_SHAPE_SELFOVERLAP>  (1) 
505.852

>  <PUBCHEM_SHAPE_VOLUME>  (1) 
150.1

>  <PUBCHEM_COORDINATE_TYPE>  (1) 
2
5
10

$$$$
