30142
     RDKit          3D

 11 10  0  0  0  0  0  0  0  0999 V2000
    3.0829   -0.0076    0.0201 N   0  0  0  0  0  0  0  0  0  0  0  0
    1.8378    0.7946    0.0011 C   0  0  0  0  0  0  0  0  0  0  0  0
    0.6140   -0.1111   -0.0707 C   0  0  0  0  0  0  0  0  0  0  0  0
   -0.7454    0.5966   -0.0444 C   0  0  0  0  0  0  0  0  0  0  0  0
    3.1963   -0.8734   -1.2435 C   0  0  0  0  0  0  0  0  0  0  0  0
    4.3191    0.9017    0.0851 C   0  0  0  0  0  0  0  0  0  0  0  0
    3.1152   -0.9408    1.2395 C   0  0  0  0  0  0  0  0  0  0  0  0
   -1.9340   -0.3670   -0.0517 C   0  0  0  0  0  0  0  0  0  0  0  0
   -3.2624    0.3922   -0.0182 C   0  0  0  0  0  0  0  0  0  0  0  0
   -4.4515   -0.5678    0.0076 C   0  0  0  0  0  0  0  0  0  0  0  0
   -5.7720    0.1825    0.0752 C   0  0  0  0  0  0  0  0  0  0  0  0
  1  2  1  0
  1  5  1  0
  1  6  1  0
  1  7  1  0
  2  3  1  0
  3  4  1  0
  4  8  1  0
  8  9  1  0
  9 10  1  0
 10 11  1  0
M  CHG  1   1   1
M  END
>  <PUBCHEM_COMPOUND_CID>  (1) 
30142

>  <PUBCHEM_CONFORMER_RMSD>  (1) 
0.6

>  <PUBCHEM_CONFORMER_DIVERSEORDER>  (1) 
1
3
22
19
6
5
23
12
21
11
4
2
14
8
16
17
20
7
10
18
13
15
9

>  <PUBCHEM_MMFF94_PARTIAL_CHARGES>  (1) 
5
1 -1.01
2 0.5
5 0.5
6 0.5
7 0.5

>  <PUBCHEM_EFFECTIVE_ROTOR_COUNT>  (1) 
6

>  <PUBCHEM_PHARMACOPHORE_FEATURES>  (1) 
3
1 1 cation
1 11 hydrophobe
5 3 4 8 9 10 hydrophobe

>  <PUBCHEM_HEAVY_ATOM_COUNT>  (1) 
11

>  <PUBCHEM_ATOM_DEF_STEREO_COUNT>  (1) 
0

>  <PUBCHEM_ATOM_UDEF_STEREO_COUNT>  (1) 
0

>  <PUBCHEM_BOND_DEF_STEREO_COUNT>  (1) 
0

>  <PUBCHEM_BOND_UDEF_STEREO_COUNT>  (1) 
0

>  <PUBCHEM_ISOTOPIC_ATOM_COUNT>  (1) 
0

>  <PUBCHEM_COMPONENT_COUNT>  (1) 
1

>  <PUBCHEM_CACTVS_TAUTO_COUNT>  (1) 
1

>  <PUBCHEM_CONFORMER_ID>  (1) 
000075BE00000001

>  <PUBCHEM_MMFF94_ENERGY>  (1) 
19.6412

>  <PUBCHEM_FEATURE_SELFOVERLAP>  (1) 
15.223

>  <PUBCHEM_SHAPE_FINGERPRINT>  (1) 
11062470 55 18413388752151271841
11287383 113 13695878038602324429
14123238 8 18343301483319564181
14252887 29 18343026583916632754
17834072 33 18059855129341545813
17834076 25 17203610397449728080
190213 19 18060420209735668467
20279233 1 17676492756591603280
20281389 69 17677046842593005413
20645477 70 17846505781503300046
22485316 2 18114178653211669179
23402539 116 17632853123517461557
23532345 1 17603591867369097756
42 15 18113334198211387451
42788 4 18412826893599591621
449060 50 17917990607176399364
522135 26 17458063754963477210
5374978 207 18341888589076137696

>  <PUBCHEM_SHAPE_MULTIPOLES>  (1) 
221.39
11.54
0.99
0.9
11.81
0.02
0
0.06
0.31
-0.67
0.02
-0.9
0.26
0.01

>  <PUBCHEM_SHAPE_SELFOVERLAP>  (1) 
390.171

>  <PUBCHEM_SHAPE_VOLUME>  (1) 
147.9

>  <PUBCHEM_COORDINATE_TYPE>  (1) 
2
5
10

$$$$
