30145
     RDKit          3D

 15 14  0  0  1  0  0  0  0  0999 V2000
   -0.3360   -0.1349    2.3383 Br  0  0  0  0  0  0  0  0  0  0  0  0
    1.4079    0.8560   -1.9290 Br  0  0  0  0  0  0  0  0  0  0  0  0
    1.3866    1.6844    0.6546 F   0  0  0  0  0  0  0  0  0  0  0  0
   -1.3911    1.1903   -1.4035 F   0  0  0  0  0  0  0  0  0  0  0  0
   -2.6019    0.4262    0.2264 F   0  0  0  0  0  0  0  0  0  0  0  0
   -1.2995    2.1406    0.5520 F   0  0  0  0  0  0  0  0  0  0  0  0
    0.3294   -2.3267    0.3584 F   0  0  0  0  0  0  0  0  0  0  0  0
   -0.3821   -1.5200   -1.5233 F   0  0  0  0  0  0  0  0  0  0  0  0
   -1.7787   -1.8370    0.1202 F   0  0  0  0  0  0  0  0  0  0  0  0
    2.1582   -0.4458    0.4029 O   0  0  0  0  0  0  0  0  0  0  0  0
   -0.2525   -0.0051    0.3245 C   0  0  0  0  0  0  0  0  0  0  0  0
    1.1744    0.5112   -0.0064 C   0  0  0  0  0  0  0  0  0  0  0  0
   -1.3883    0.9463   -0.0735 C   0  0  0  0  0  0  0  0  0  0  0  0
   -0.5254   -1.4288   -0.1802 C   0  0  0  0  0  0  0  0  0  0  0  0
    3.4989   -0.0566    0.1385 C   0  0  0  0  0  0  0  0  0  0  0  0
  1 11  1  0
  2 12  1  0
  3 12  1  0
  4 13  1  0
  5 13  1  0
  6 13  1  0
  7 14  1  0
  8 14  1  0
  9 14  1  0
 10 12  1  0
 10 15  1  0
 11 12  1  0
 11 13  1  0
 11 14  1  0
M  END
>  <PUBCHEM_COMPOUND_CID>  (1) 
30145

>  <PUBCHEM_CONFORMER_RMSD>  (1) 
0.6

>  <PUBCHEM_CONFORMER_DIVERSEORDER>  (1) 
1
5
3
2
6
4

>  <PUBCHEM_MMFF94_PARTIAL_CHARGES>  (1) 
15
1 -0.23
10 -0.56
11 0.23
12 0.85
13 1.02
14 1.02
15 0.28
2 -0.23
3 -0.34
4 -0.34
5 -0.34
6 -0.34
7 -0.34
8 -0.34
9 -0.34

>  <PUBCHEM_EFFECTIVE_ROTOR_COUNT>  (1) 
4

>  <PUBCHEM_PHARMACOPHORE_FEATURES>  (1) 
3
1 1 hydrophobe
1 10 acceptor
1 2 hydrophobe

>  <PUBCHEM_HEAVY_ATOM_COUNT>  (1) 
15

>  <PUBCHEM_ATOM_DEF_STEREO_COUNT>  (1) 
0

>  <PUBCHEM_ATOM_UDEF_STEREO_COUNT>  (1) 
1

>  <PUBCHEM_BOND_DEF_STEREO_COUNT>  (1) 
0

>  <PUBCHEM_BOND_UDEF_STEREO_COUNT>  (1) 
0

>  <PUBCHEM_ISOTOPIC_ATOM_COUNT>  (1) 
0

>  <PUBCHEM_COMPONENT_COUNT>  (1) 
1

>  <PUBCHEM_CACTVS_TAUTO_COUNT>  (1) 
1

>  <PUBCHEM_CONFORMER_ID>  (1) 
000075C100000001

>  <PUBCHEM_MMFF94_ENERGY>  (1) 
36.2648

>  <PUBCHEM_FEATURE_SELFOVERLAP>  (1) 
15.223

>  <PUBCHEM_SHAPE_FINGERPRINT>  (1) 
10702982 57 18267001900117082214
12423570 1 13268515430585216458
13024252 1 16950000348364355832
137420 1 10136868227493593967
144361 1 17978268080651927583
14817 1 11653990773836617290
15775835 57 18410582785734749456
16945 1 18336535019673488968
23419403 2 16985157353043150563
2748010 2 18196362839208601673
369184 2 18202843275133478944
5084963 1 17894633625658996577
528886 8 18125712392378963913
54276843 12 17604701304286304818
68250623 7 17533522233018668075

>  <PUBCHEM_SHAPE_MULTIPOLES>  (1) 
263.79
3.09
1.96
1.73
1.98
0.03
-0.24
-0.17
-0.21
-0.44
0.28
-0.18
0.18
-0.39

>  <PUBCHEM_SHAPE_SELFOVERLAP>  (1) 
508.955

>  <PUBCHEM_SHAPE_VOLUME>  (1) 
166.5

>  <PUBCHEM_COORDINATE_TYPE>  (1) 
2
5
10

$$$$
