30156
     RDKit          3D

 17 18  0  0  0  0  0  0  0  0999 V2000
    4.3544   -1.2765    0.4091 Cl  0  0  0  0  0  0  0  0  0  0  0  0
   -0.6981   -2.1692   -0.3337 O   0  0  0  0  0  0  0  0  0  0  0  0
   -2.8991    2.3580    0.0306 O   0  0  0  0  0  0  0  0  0  0  0  0
   -0.6367    1.9545   -0.3556 N   0  0  0  0  0  0  0  0  0  0  0  0
   -1.8904   -0.5831    0.7992 N   0  0  0  0  0  0  0  0  0  0  0  0
    0.5380    1.1408   -0.1690 C   0  0  0  0  0  0  0  0  0  0  0  0
    0.4871   -0.2294    0.1628 C   0  0  0  0  0  0  0  0  0  0  0  0
   -0.7852   -0.9624    0.2683 C   0  0  0  0  0  0  0  0  0  0  0  0
   -1.8618    1.7412    0.2888 C   0  0  0  0  0  0  0  0  0  0  0  0
   -1.8684    0.7325    1.4089 C   0  0  0  0  0  0  0  0  0  0  0  0
    1.8124    1.7140   -0.3559 C   0  0  0  0  0  0  0  0  0  0  0  0
    1.6701   -0.9679    0.3467 C   0  0  0  0  0  0  0  0  0  0  0  0
   -0.5344    3.1042   -1.2566 C   0  0  0  0  0  0  0  0  0  0  0  0
    2.9841    0.9728   -0.1791 C   0  0  0  0  0  0  0  0  0  0  0  0
    2.9131   -0.3657    0.1797 C   0  0  0  0  0  0  0  0  0  0  0  0
   -1.8953   -2.9226   -0.2647 C   0  0  0  0  0  0  0  0  0  0  0  0
   -1.6898   -4.2413   -0.9792 C   0  0  0  0  0  0  0  0  0  0  0  0
  1 15  1  0
  2  8  1  0
  2 16  1  0
  3  9  2  0
  4  6  1  0
  4  9  1  0
  4 13  1  0
  5  8  2  0
  5 10  1  0
  6  7  2  0
  6 11  1  0
  7  8  1  0
  7 12  1  0
  9 10  1  0
 11 14  2  0
 12 15  2  0
 14 15  1  0
 16 17  1  0
M  END
>  <PUBCHEM_COMPOUND_CID>  (1) 
30156

>  <PUBCHEM_CONFORMER_RMSD>  (1) 
0.6

>  <PUBCHEM_CONFORMER_DIVERSEORDER>  (1) 
1
2
5
4
3

>  <PUBCHEM_MMFF94_PARTIAL_CHARGES>  (1) 
19
1 -0.18
10 0.31
11 -0.15
12 -0.15
13 0.3
14 -0.15
15 0.18
16 0.28
2 -0.43
20 0.15
21 0.15
25 0.15
3 -0.57
4 -0.48
5 -0.7
6 0.12
7 0.09
8 0.51
9 0.57

>  <PUBCHEM_EFFECTIVE_ROTOR_COUNT>  (1) 
2.4

>  <PUBCHEM_PHARMACOPHORE_FEATURES>  (1) 
3
1 3 acceptor
6 6 7 11 12 14 15 rings
7 4 5 6 7 8 9 10 rings

>  <PUBCHEM_HEAVY_ATOM_COUNT>  (1) 
17

>  <PUBCHEM_ATOM_DEF_STEREO_COUNT>  (1) 
0

>  <PUBCHEM_ATOM_UDEF_STEREO_COUNT>  (1) 
0

>  <PUBCHEM_BOND_DEF_STEREO_COUNT>  (1) 
0

>  <PUBCHEM_BOND_UDEF_STEREO_COUNT>  (1) 
0

>  <PUBCHEM_ISOTOPIC_ATOM_COUNT>  (1) 
0

>  <PUBCHEM_COMPONENT_COUNT>  (1) 
1

>  <PUBCHEM_CACTVS_TAUTO_COUNT>  (1) 
1

>  <PUBCHEM_CONFORMER_ID>  (1) 
000075CC00000001

>  <PUBCHEM_MMFF94_ENERGY>  (1) 
63.6312

>  <PUBCHEM_FEATURE_SELFOVERLAP>  (1) 
15.233

>  <PUBCHEM_SHAPE_FINGERPRINT>  (1) 
10967382 1 18048036264116655792
11578080 2 17486487380709390745
116883 192 18342457092354019350
12553582 1 17977953710853733594
13004483 165 18196355125532377162
13083527 12 17832958900943585656
13140716 1 18335425664360647856
13380535 76 17973727978324725361
15042514 8 18335986380525140058
15309172 13 18196096538393792888
16945 1 18341338893465690080
19591789 44 17979075977170712534
20028762 73 18201716224676899127
20511035 2 18041863725881439577
20871998 184 18335994060063574825
21452121 199 17763441208335082850
21501502 16 18336267929170149280
21524375 3 18190462649397546633
22112679 90 17336780128018494187
2334 1 18263370359492770048
23388829 49 17834685167894319704
23402539 116 18342163458772844759
23419403 2 16826371437010198313
23598291 2 17263027125721396655
257057 1 18052812834442995155
2748010 2 18193296112484763705
6338986 31 18052249893153517314
69090 78 18264765472070691464
6992083 37 18339094755820725154
7364860 26 17330833517910642629
81228 2 18336818813911505634

>  <PUBCHEM_SHAPE_MULTIPOLES>  (1) 
330.02
4.85
4.28
0.97
4.33
1.66
-0.03
2.63
-0.47
-3.8
1.75
-0.37
-0.17
-1.14

>  <PUBCHEM_SHAPE_SELFOVERLAP>  (1) 
690.551

>  <PUBCHEM_SHAPE_VOLUME>  (1) 
188.2

>  <PUBCHEM_COORDINATE_TYPE>  (1) 
2
5
10

$$$$
