30158
     RDKit          3D

 13 12  0  0  0  0  0  0  0  0999 V2000
   -1.5894    0.7067   -0.0943 O   0  0  0  0  0  0  0  0  0  0  0  0
    1.1871    0.6151    0.2813 O   0  0  0  0  0  0  0  0  0  0  0  0
    3.0917    1.3404   -0.8000 O   0  0  0  0  0  0  0  0  0  0  0  0
   -3.6075   -0.5723   -0.2498 C   0  0  0  0  0  0  0  0  0  0  0  0
   -2.9166    0.6157    0.4045 C   0  0  0  0  0  0  0  0  0  0  0  0
   -5.0484   -0.7207    0.2303 C   0  0  0  0  0  0  0  0  0  0  0  0
   -0.8899    1.8027    0.4825 C   0  0  0  0  0  0  0  0  0  0  0  0
    0.5227    1.8334   -0.0687 C   0  0  0  0  0  0  0  0  0  0  0  0
    3.0305   -0.8304    0.2949 C   0  0  0  0  0  0  0  0  0  0  0  0
   -5.7481   -1.8819   -0.4576 C   0  0  0  0  0  0  0  0  0  0  0  0
    4.4671   -1.0413   -0.1768 C   0  0  0  0  0  0  0  0  0  0  0  0
    2.4776    0.5032   -0.1531 C   0  0  0  0  0  0  0  0  0  0  0  0
    5.0232   -2.3707    0.3068 C   0  0  0  0  0  0  0  0  0  0  0  0
  1  5  1  0
  1  7  1  0
  2  8  1  0
  2 12  1  0
  3 12  2  0
  4  5  1  0
  4  6  1  0
  6 10  1  0
  7  8  1  0
  9 11  1  0
  9 12  1  0
 11 13  1  0
M  END
>  <PUBCHEM_COMPOUND_CID>  (1) 
30158

>  <PUBCHEM_CONFORMER_RMSD>  (1) 
1

>  <PUBCHEM_CONFORMER_DIVERSEORDER>  (1) 
1
353
140
614
2
356
125
612
121
477
33
265
130
489
72
399
346
3
583
217
302
25
16
566
665
88
178
50
691
14
560
315
237
206
8
11
220
177
516
421
270
383
373
625
371
46
43
128
165
183
358
224
7
653
481
451
41
44
34
36
598
115
75
512
4
10
443
52
100
73
381
307
423
352
271
508
18
37
89
58
35
567
9
21

>  <PUBCHEM_MMFF94_PARTIAL_CHARGES>  (1) 
8
1 -0.56
12 0.66
2 -0.43
3 -0.57
5 0.28
7 0.28
8 0.28
9 0.06

>  <PUBCHEM_EFFECTIVE_ROTOR_COUNT>  (1) 
9

>  <PUBCHEM_PHARMACOPHORE_FEATURES>  (1) 
4
1 1 acceptor
1 10 hydrophobe
1 13 hydrophobe
1 3 acceptor

>  <PUBCHEM_HEAVY_ATOM_COUNT>  (1) 
13

>  <PUBCHEM_ATOM_DEF_STEREO_COUNT>  (1) 
0

>  <PUBCHEM_ATOM_UDEF_STEREO_COUNT>  (1) 
0

>  <PUBCHEM_BOND_DEF_STEREO_COUNT>  (1) 
0

>  <PUBCHEM_BOND_UDEF_STEREO_COUNT>  (1) 
0

>  <PUBCHEM_ISOTOPIC_ATOM_COUNT>  (1) 
0

>  <PUBCHEM_COMPONENT_COUNT>  (1) 
1

>  <PUBCHEM_CACTVS_TAUTO_COUNT>  (1) 
1

>  <PUBCHEM_CONFORMER_ID>  (1) 
000075CE00000001

>  <PUBCHEM_MMFF94_ENERGY>  (1) 
6.4628

>  <PUBCHEM_FEATURE_SELFOVERLAP>  (1) 
20.297

>  <PUBCHEM_SHAPE_FINGERPRINT>  (1) 
100836 57 9151168770432376386
11159736 12 18411700971753611027
11806522 49 18335140848284333456
122479 349 10015574017322068437
13690532 89 18411419531548069305
13955234 65 17982733279504940177
14123255 352 9007053573924841467
14123256 34 18341059552919316782
1420 369 18342459222726122630
14455015 7 18187653535297503979
14576447 43 18334581214029833990
15352361 1 18411138026158915195
15477762 27 18334859462827170580
193927 3 18338528464335475906
20281475 54 18411985762667139969
20374829 77 18336543833183685633
20388580 30 18334580169556572980
20605781 2 8574712408007431595
20621476 21 17773610321298805238
20621476 51 17559660936264057279
20645477 70 18259982703684433760
20671657 53 18410578413722299389
20767249 142 18410292510190896122
21354914 55 9439401328432606362
22485316 2 18341049700707158913
22620623 9 17168976790787693621
23403322 49 18409446956000571067
270888 7 9007051366269843026
2871803 45 17967810548393254379
351380 3 18412543206335305223
4259306 186 18333731312446875719
465052 167 18342463698604343303
559249 180 18339922611537038809
59345606 38 8934997075282792195
59682541 35 18271232916357614082
7062679 13 18409726240275416195
76465 3 18411417293390099152

>  <PUBCHEM_SHAPE_MULTIPOLES>  (1) 
249.93
13.05
2.31
0.72
6.67
0.35
-0.01
12.1
-0.61
-0.92
0.02
-0.02
-0.03
-0.97

>  <PUBCHEM_SHAPE_SELFOVERLAP>  (1) 
454.953

>  <PUBCHEM_SHAPE_VOLUME>  (1) 
159.8

>  <PUBCHEM_COORDINATE_TYPE>  (1) 
2
5
10

$$$$
