30152
     RDKit          3D

  9  9  0  0  0  0  0  0  0  0999 V2000
   -1.1693    0.0000    0.0000 N   0  0  0  0  0  0  0  0  0  0  0  0
   -0.3453    1.1220   -0.6461 C   0  0  0  0  0  0  0  0  0  0  0  0
   -0.3455   -1.1224    0.6457 C   0  0  0  0  0  0  0  0  0  0  0  0
    0.8849    1.5273    0.1591 C   0  0  0  0  0  0  0  0  0  0  0  0
    0.8850   -1.5272   -0.1595 C   0  0  0  0  0  0  0  0  0  0  0  0
    2.1270    0.7265   -0.2281 C   0  0  0  0  0  0  0  0  0  0  0  0
    2.1268   -0.7266    0.2283 C   0  0  0  0  0  0  0  0  0  0  0  0
   -2.0813    0.5990    1.0811 C   0  0  0  0  0  0  0  0  0  0  0  0
   -2.0822   -0.5986   -1.0807 C   0  0  0  0  0  0  0  0  0  0  0  0
  1  2  1  0
  1  3  1  0
  1  8  1  0
  1  9  1  0
  2  4  1  0
  3  5  1  0
  4  6  1  0
  5  7  1  0
  6  7  1  0
M  CHG  1   1   1
M  END
>  <PUBCHEM_COMPOUND_CID>  (1) 
30152

>  <PUBCHEM_CONFORMER_RMSD>  (1) 
0.4

>  <PUBCHEM_CONFORMER_DIVERSEORDER>  (1) 
1
3
5
2
4

>  <PUBCHEM_MMFF94_PARTIAL_CHARGES>  (1) 
5
1 -1.01
2 0.5
3 0.5
8 0.5
9 0.5

>  <PUBCHEM_EFFECTIVE_ROTOR_COUNT>  (1) 
1.4

>  <PUBCHEM_PHARMACOPHORE_FEATURES>  (1) 
2
1 1 cation
7 1 2 3 4 5 6 7 rings

>  <PUBCHEM_HEAVY_ATOM_COUNT>  (1) 
9

>  <PUBCHEM_ATOM_DEF_STEREO_COUNT>  (1) 
0

>  <PUBCHEM_ATOM_UDEF_STEREO_COUNT>  (1) 
0

>  <PUBCHEM_BOND_DEF_STEREO_COUNT>  (1) 
0

>  <PUBCHEM_BOND_UDEF_STEREO_COUNT>  (1) 
0

>  <PUBCHEM_ISOTOPIC_ATOM_COUNT>  (1) 
0

>  <PUBCHEM_COMPONENT_COUNT>  (1) 
1

>  <PUBCHEM_CACTVS_TAUTO_COUNT>  (1) 
1

>  <PUBCHEM_CONFORMER_ID>  (1) 
000075C800000001

>  <PUBCHEM_MMFF94_ENERGY>  (1) 
27.1187

>  <PUBCHEM_FEATURE_SELFOVERLAP>  (1) 
10.148

>  <PUBCHEM_SHAPE_FINGERPRINT>  (1) 
15310529 11 15936414459256521352
16945 1 18260266352215237510
18185500 45 18342171129157108710
21040471 1 18264492965080471328
21922407 69 17560799973973885506
23235685 24 18334583489703234688
23552423 10 18261673653984353950
241688 4 18338224986251649624
2748010 2 17903360647317518948
29004967 10 18040727943275714120
5084963 1 18339910580611099050
66348 1 18193276514543697762

>  <PUBCHEM_SHAPE_MULTIPOLES>  (1) 
180.23
2.95
1.63
0.99
0.05
0
0
0
0
-0.44
0
0.56
0
-0.28

>  <PUBCHEM_SHAPE_SELFOVERLAP>  (1) 
335.675

>  <PUBCHEM_SHAPE_VOLUME>  (1) 
112.4

>  <PUBCHEM_COORDINATE_TYPE>  (1) 
2
5
10

$$$$
