30164
     RDKit          3D

 18 18  0  0  0  0  0  0  0  0999 V2000
   -3.2351   -0.0094   -0.3833 O   0  0  0  0  0  0  0  0  0  0  0  0
   -1.1317   -0.5392   -0.9006 O   0  0  0  0  0  0  0  0  0  0  0  0
   -1.5703    0.5908    1.0938 O   0  0  0  0  0  0  0  0  0  0  0  0
    5.0261    1.5693   -0.4944 O   0  0  0  0  0  0  0  0  0  0  0  0
    4.2468   -0.4461    0.4485 N   0  0  0  0  0  0  0  0  0  0  0  0
   -5.6056    0.4037   -0.1419 C   0  0  0  0  0  0  0  0  0  0  0  0
   -4.2125    0.5693    0.4715 C   0  0  0  0  0  0  0  0  0  0  0  0
   -5.9638   -1.0732   -0.3208 C   0  0  0  0  0  0  0  0  0  0  0  0
   -6.6540    1.1034    0.7202 C   0  0  0  0  0  0  0  0  0  0  0  0
    2.8939   -0.4693    0.1086 C   0  0  0  0  0  0  0  0  0  0  0  0
    0.2234   -0.5158   -0.5601 C   0  0  0  0  0  0  0  0  0  0  0  0
   -1.9403    0.0700    0.0490 C   0  0  0  0  0  0  0  0  0  0  0  0
    2.3420    0.5761   -0.6318 C   0  0  0  0  0  0  0  0  0  0  0  0
    2.0927   -1.5381    0.5103 C   0  0  0  0  0  0  0  0  0  0  0  0
    0.9891    0.5525   -0.9707 C   0  0  0  0  0  0  0  0  0  0  0  0
    0.7398   -1.5618    0.1713 C   0  0  0  0  0  0  0  0  0  0  0  0
    5.2001    0.5330    0.1386 C   0  0  0  0  0  0  0  0  0  0  0  0
    6.5593    0.1850    0.6919 C   0  0  0  0  0  0  0  0  0  0  0  0
  1  7  1  0
  1 12  1  0
  2 11  1  0
  2 12  1  0
  3 12  2  0
  4 17  2  0
  5 10  1  0
  5 17  1  0
  6  7  1  0
  6  8  1  0
  6  9  1  0
 10 13  2  0
 10 14  1  0
 11 15  2  0
 11 16  1  0
 13 15  1  0
 14 16  2  0
 17 18  1  0
M  END
>  <PUBCHEM_COMPOUND_CID>  (1) 
30164

>  <PUBCHEM_CONFORMER_RMSD>  (1) 
0.8

>  <PUBCHEM_CONFORMER_DIVERSEORDER>  (1) 
1
10
36
43
24
31
33
44
48
7
39
18
23
41
42
46
25
8
30
13
26
35
27
17
47
28
21
6
22
9
2
29
12
37
16
15
45
5
34
14
40
38
4
32
3
20
11
19

>  <PUBCHEM_MMFF94_PARTIAL_CHARGES>  (1) 
20
1 -0.43
10 0.12
11 0.08
12 0.87
13 -0.15
14 -0.15
15 -0.15
16 -0.15
17 0.57
18 0.06
2 -0.23
28 0.15
29 0.15
3 -0.57
30 0.15
31 0.15
32 0.37
4 -0.57
5 -0.55
7 0.28

>  <PUBCHEM_EFFECTIVE_ROTOR_COUNT>  (1) 
7

>  <PUBCHEM_PHARMACOPHORE_FEATURES>  (1) 
4
1 4 acceptor
1 5 donor
3 6 8 9 hydrophobe
6 10 11 13 14 15 16 rings

>  <PUBCHEM_HEAVY_ATOM_COUNT>  (1) 
18

>  <PUBCHEM_ATOM_DEF_STEREO_COUNT>  (1) 
0

>  <PUBCHEM_ATOM_UDEF_STEREO_COUNT>  (1) 
0

>  <PUBCHEM_BOND_DEF_STEREO_COUNT>  (1) 
0

>  <PUBCHEM_BOND_UDEF_STEREO_COUNT>  (1) 
0

>  <PUBCHEM_ISOTOPIC_ATOM_COUNT>  (1) 
0

>  <PUBCHEM_COMPONENT_COUNT>  (1) 
1

>  <PUBCHEM_CACTVS_TAUTO_COUNT>  (1) 
2

>  <PUBCHEM_CONFORMER_ID>  (1) 
000075D400000001

>  <PUBCHEM_MMFF94_ENERGY>  (1) 
48.3098

>  <PUBCHEM_FEATURE_SELFOVERLAP>  (1) 
20.297

>  <PUBCHEM_SHAPE_FINGERPRINT>  (1) 
10354089 29 18410294700618617452
106641 1 17822010947543447296
11796584 16 12901550134933500600
12091667 2 17022618672516989583
12236239 1 18343300362201322191
12670543 26 12679469668100318747
12714333 28 16487255469482795488
12730499 353 14979958081498843326
12916748 109 16988848276428531448
13533116 47 17313657158215999842
13631057 29 18270395127036643183
13668630 136 11169910563640198880
14251732 16 18334858363684301211
14251752 14 8790616887872687023
14251764 18 18260264175083705744
14251764 46 18410853265399880038
14911166 2 12247676089312768470
15048467 5 18343582924015729273
15183329 4 10447933862610865505
17834072 8 11527944564936128168
17834076 25 18272087201419547672
18006028 8 14201396088467606198
19489759 90 14634865341242264301
19784866 140 11815904435204441343
20281389 69 18202279191414485576
21054139 6 18339072800470823103
21150785 3 16128648649137252053
21267235 1 17822567210987247186
22079108 93 18339917207940848170
221357 26 12319455467832495499
22224240 67 18040430019149220994
23402539 116 17418085542242313325
23559900 14 12901840444889664430
26918003 58 17458068166353826249
300161 21 18409729526805832959
3004659 81 8214140763844102130
3545911 37 18131350812892501614
42630746 31 18408042892843154478
4325135 7 18342173389085353735
4340502 62 17603588516888399515
465052 167 8142082074399960656
5104073 3 17969212525299495592
542803 24 18060419101739640181
559249 180 11602539836602023873
59755656 520 18409724079854365903
67856867 119 18262521510984018597

>  <PUBCHEM_SHAPE_MULTIPOLES>  (1) 
341.97
16.51
1.28
0.9
8.38
0.22
0
-4.51
3.12
-0.2
0.04
0.03
-0.07
-0.87

>  <PUBCHEM_SHAPE_SELFOVERLAP>  (1) 
694.891

>  <PUBCHEM_SHAPE_VOLUME>  (1) 
197

>  <PUBCHEM_COORDINATE_TYPE>  (1) 
2
5
10

$$$$
