30162
     RDKit          3D

 14 15  0  0  1  0  0  0  0  0999 V2000
   -0.6246   -1.4033   -0.2571 O   0  0  0  0  0  0  0  0  0  0  0  0
    2.7077    0.1753   -0.4910 N   0  0  0  0  0  0  0  0  0  0  0  0
    0.3460   -0.4064   -0.6733 C   0  0  0  0  0  0  0  0  0  0  0  0
   -0.1402    0.9783   -0.2178 C   0  0  0  0  0  0  0  0  0  0  0  0
    1.7034   -0.7678   -0.0931 C   0  0  0  0  0  0  0  0  0  0  0  0
   -1.5840    0.6858   -0.0766 C   0  0  0  0  0  0  0  0  0  0  0  0
   -1.7806   -0.6867   -0.0822 C   0  0  0  0  0  0  0  0  0  0  0  0
    4.0238   -0.1692    0.0522 C   0  0  0  0  0  0  0  0  0  0  0  0
   -2.6447    1.5539    0.1061 C   0  0  0  0  0  0  0  0  0  0  0  0
   -3.0304   -1.2471    0.0961 C   0  0  0  0  0  0  0  0  0  0  0  0
    3.9895   -0.1447    1.5777 C   0  0  0  0  0  0  0  0  0  0  0  0
    5.0666    0.8042   -0.4882 C   0  0  0  0  0  0  0  0  0  0  0  0
   -3.9206    1.0098    0.2752 C   0  0  0  0  0  0  0  0  0  0  0  0
   -4.1119   -0.3820    0.2719 C   0  0  0  0  0  0  0  0  0  0  0  0
  1  3  1  0
  1  7  1  0
  2  5  1  0
  2  8  1  0
  3  4  1  0
  3  5  1  0
  4  6  1  0
  6  7  2  0
  6  9  1  0
  7 10  1  0
  8 11  1  0
  8 12  1  0
  9 13  2  0
 10 14  2  0
 13 14  1  0
M  END
>  <PUBCHEM_COMPOUND_CID>  (1) 
30162

>  <PUBCHEM_CONFORMER_RMSD>  (1) 
0.6

>  <PUBCHEM_CONFORMER_DIVERSEORDER>  (1) 
1
8
13
9
7
3
12
5
11
10
2
4
6

>  <PUBCHEM_MMFF94_PARTIAL_CHARGES>  (1) 
17
1 -0.36
10 -0.15
13 -0.15
14 -0.15
2 -0.9
20 0.36
22 0.15
23 0.15
3 0.28
30 0.15
31 0.15
4 0.14
5 0.27
6 -0.14
7 0.08
8 0.27
9 -0.15

>  <PUBCHEM_EFFECTIVE_ROTOR_COUNT>  (1) 
3.6

>  <PUBCHEM_PHARMACOPHORE_FEATURES>  (1) 
6
1 1 acceptor
1 2 cation
1 2 donor
3 8 11 12 hydrophobe
5 1 3 4 6 7 rings
6 6 7 9 10 13 14 rings

>  <PUBCHEM_HEAVY_ATOM_COUNT>  (1) 
14

>  <PUBCHEM_ATOM_DEF_STEREO_COUNT>  (1) 
0

>  <PUBCHEM_ATOM_UDEF_STEREO_COUNT>  (1) 
1

>  <PUBCHEM_BOND_DEF_STEREO_COUNT>  (1) 
0

>  <PUBCHEM_BOND_UDEF_STEREO_COUNT>  (1) 
0

>  <PUBCHEM_ISOTOPIC_ATOM_COUNT>  (1) 
0

>  <PUBCHEM_COMPONENT_COUNT>  (1) 
1

>  <PUBCHEM_CACTVS_TAUTO_COUNT>  (1) 
1

>  <PUBCHEM_CONFORMER_ID>  (1) 
000075D200000001

>  <PUBCHEM_MMFF94_ENERGY>  (1) 
27.2857

>  <PUBCHEM_FEATURE_SELFOVERLAP>  (1) 
30.548

>  <PUBCHEM_SHAPE_FINGERPRINT>  (1) 
10014705 185 18261108543920995237
10680689 15 17561364001969424983
11132069 177 18412265012813361349
11401426 45 18411415107926913973
12119455 92 17060617776512648622
12236239 1 17894632560944567404
12251169 10 18334859419792601388
12390115 104 17915761790049629329
13214271 11 18272369776287655615
13897977 58 18408890658877813748
15219456 202 17988088785409714167
15536298 74 18341052891651744526
16945 1 18338814333796648175
17846911 113 18343861095682489417
18186145 218 15841547479515715958
200 152 14706925159419129967
20432913 95 15430036547958379816
20510252 161 18200880573874199345
20645477 56 18060701688664513671
20645477 70 14851872639649000474
21119208 17 11959731564403421802
22485316 2 15864068780107833882
22854114 59 17775282776830419594
2297311 6 18200609050400030028
23402539 116 18412820309673274607
23557571 272 17917723425808476767
23559900 14 18270968925654935166
26918003 58 15430037660370928336
2748010 2 17977399235307838447
42 15 18113898230607499578
474 4 17169560829521414764
5104073 3 18411140195217412922
573450 72 18187356614863925408
7364860 26 18055636114300495078
77779 3 18410578370819586046
90316 7 17968372342932421140

>  <PUBCHEM_SHAPE_MULTIPOLES>  (1) 
277.26
9.57
1.34
0.87
7.8
0.09
0.25
1.41
1.39
-0.98
-0.03
0.81
-0.02
-0.3

>  <PUBCHEM_SHAPE_SELFOVERLAP>  (1) 
577.78

>  <PUBCHEM_SHAPE_VOLUME>  (1) 
159.9

>  <PUBCHEM_COORDINATE_TYPE>  (1) 
2
5
10

$$$$
