30177
     RDKit          3D

  7  6  0  0  0  0  0  0  0  0999 V2000
   -0.6353   -2.2533   -0.1232 O   0  0  0  0  0  0  0  0  0  0  0  0
    0.0669    0.0538   -0.0123 C   0  0  0  0  0  0  0  0  0  0  0  0
   -0.5557    1.2416   -0.1456 C   0  0  0  0  0  0  0  0  0  0  0  0
   -2.0115    1.5454    0.0348 C   0  0  0  0  0  0  0  0  0  0  0  0
    1.4924   -0.1502   -0.2076 C   0  0  0  0  0  0  0  0  0  0  0  0
   -0.8316   -1.1099    0.2728 C   0  0  0  0  0  0  0  0  0  0  0  0
    2.4749    0.6726    0.1811 C   0  0  0  0  0  0  0  0  0  0  0  0
  1  6  2  0
  2  3  2  0
  2  5  1  0
  2  6  1  0
  3  4  1  0
  5  7  2  0
M  END
>  <PUBCHEM_COMPOUND_CID>  (1) 
30177

>  <PUBCHEM_CONFORMER_RMSD>  (1) 
0.4

>  <PUBCHEM_CONFORMER_DIVERSEORDER>  (1) 
1
3
2

>  <PUBCHEM_MMFF94_PARTIAL_CHARGES>  (1) 
12
1 -0.57
12 0.15
13 0.06
14 0.15
15 0.15
2 0.01
3 -0.29
4 0.14
5 -0.15
6 0.5
7 -0.3
8 0.15

>  <PUBCHEM_EFFECTIVE_ROTOR_COUNT>  (1) 
2

>  <PUBCHEM_PHARMACOPHORE_FEATURES>  (1) 
3
1 1 acceptor
1 4 hydrophobe
1 7 hydrophobe

>  <PUBCHEM_HEAVY_ATOM_COUNT>  (1) 
7

>  <PUBCHEM_ATOM_DEF_STEREO_COUNT>  (1) 
0

>  <PUBCHEM_ATOM_UDEF_STEREO_COUNT>  (1) 
0

>  <PUBCHEM_BOND_DEF_STEREO_COUNT>  (1) 
0

>  <PUBCHEM_BOND_UDEF_STEREO_COUNT>  (1) 
1

>  <PUBCHEM_ISOTOPIC_ATOM_COUNT>  (1) 
0

>  <PUBCHEM_COMPONENT_COUNT>  (1) 
1

>  <PUBCHEM_CACTVS_TAUTO_COUNT>  (1) 
1

>  <PUBCHEM_CONFORMER_ID>  (1) 
000075E100000001

>  <PUBCHEM_MMFF94_ENERGY>  (1) 
14.3723

>  <PUBCHEM_FEATURE_SELFOVERLAP>  (1) 
15.223

>  <PUBCHEM_SHAPE_FINGERPRINT>  (1) 
16714656 1 18409454721000761841
18185500 45 17618512420277528166
20096714 4 18266177223504846184
21040471 1 18337675217669014532
23552449 1 18268144438848828016
23552449 11 17250049121768948393
29004967 10 17688027934931702914
5943 1 13107897504857472932

>  <PUBCHEM_SHAPE_MULTIPOLES>  (1) 
138.19
2.65
1.97
0.63
0.89
1.13
-0.01
-1.47
-0.12
-0.84
0.03
0.02
-0.02
0.08

>  <PUBCHEM_SHAPE_SELFOVERLAP>  (1) 
255.811

>  <PUBCHEM_SHAPE_VOLUME>  (1) 
87.2

>  <PUBCHEM_COORDINATE_TYPE>  (1) 
2
5
10

$$$$
