30173
     RDKit          3D

 21 20  0  0  0  0  0  0  0  0999 V2000
    5.1245   -0.0070    0.0578 Si  0  0  0  0  0  4  0  0  0  0  0  0
   -5.1245    0.0069    0.0577 Si  0  0  0  0  0  4  0  0  0  0  0  0
    3.5916    0.0111   -0.6228 O   0  0  0  0  0  0  0  0  0  0  0  0
   -3.5904   -0.0110   -0.6218 O   0  0  0  0  0  0  0  0  0  0  0  0
   -0.0008    0.0000    0.1789 N   0  0  0  0  0  0  0  0  0  0  0  0
    5.4047    1.5029    1.1439 C   0  0  0  0  0  0  0  0  0  0  0  0
    5.3894   -1.5511    1.0989 C   0  0  0  0  0  0  0  0  0  0  0  0
    6.4262    0.0067   -1.3045 C   0  0  0  0  0  0  0  0  0  0  0  0
   -5.4050   -1.5029    1.1438 C   0  0  0  0  0  0  0  0  0  0  0  0
   -5.3897    1.5510    1.0988 C   0  0  0  0  0  0  0  0  0  0  0  0
   -6.4259   -0.0067   -1.3048 C   0  0  0  0  0  0  0  0  0  0  0  0
    2.4480    0.0043    0.2215 C   0  0  0  0  0  0  0  0  0  0  0  0
   -2.4482   -0.0044    0.2221 C   0  0  0  0  0  0  0  0  0  0  0  0
    5.3039    2.8491    0.4387 C   0  0  0  0  0  0  0  0  0  0  0  0
    5.2751   -2.8748    0.3542 C   0  0  0  0  0  0  0  0  0  0  0  0
    7.8739    0.0259   -0.8315 C   0  0  0  0  0  0  0  0  0  0  0  0
   -5.3040   -2.8491    0.4386 C   0  0  0  0  0  0  0  0  0  0  0  0
   -5.2752    2.8748    0.3542 C   0  0  0  0  0  0  0  0  0  0  0  0
   -7.8737   -0.0258   -0.8321 C   0  0  0  0  0  0  0  0  0  0  0  0
    1.1999    0.0236   -0.6462 C   0  0  0  0  0  0  0  0  0  0  0  0
   -1.1998   -0.0237   -0.6454 C   0  0  0  0  0  0  0  0  0  0  0  0
  1  3  1  0
  1  6  1  0
  1  7  1  0
  1  8  1  0
  2  4  1  0
  2  9  1  0
  2 10  1  0
  2 11  1  0
  3 12  1  0
  4 13  1  0
  5 20  1  0
  5 21  1  0
  6 14  1  0
  7 15  1  0
  8 16  1  0
  9 17  1  0
 10 18  1  0
 11 19  1  0
 12 20  1  0
 13 21  1  0
M  END
>  <PUBCHEM_COMPOUND_CID>  (1) 
30173

>  <PUBCHEM_CONFORMER_RMSD>  (1) 
1.2

>  <PUBCHEM_CONFORMER_DIVERSEORDER>  (1) 
1
3
2
4
9
14
10
12
13
7
6
5
11
8

>  <PUBCHEM_MMFF94_PARTIAL_CHARGES>  (1) 
16
1 0.54
10 -0.08
11 -0.08
12 0.28
13 0.28
2 0.54
20 0.27
21 0.27
3 -0.58
4 -0.58
5 -0.9
6 -0.08
60 0.36
7 -0.08
8 -0.08
9 -0.08

>  <PUBCHEM_EFFECTIVE_ROTOR_COUNT>  (1) 
14

>  <PUBCHEM_PHARMACOPHORE_FEATURES>  (1) 
2
1 5 cation
1 5 donor

>  <PUBCHEM_HEAVY_ATOM_COUNT>  (1) 
21

>  <PUBCHEM_ATOM_DEF_STEREO_COUNT>  (1) 
0

>  <PUBCHEM_ATOM_UDEF_STEREO_COUNT>  (1) 
0

>  <PUBCHEM_BOND_DEF_STEREO_COUNT>  (1) 
0

>  <PUBCHEM_BOND_UDEF_STEREO_COUNT>  (1) 
0

>  <PUBCHEM_ISOTOPIC_ATOM_COUNT>  (1) 
0

>  <PUBCHEM_COMPONENT_COUNT>  (1) 
1

>  <PUBCHEM_CACTVS_TAUTO_COUNT>  (1) 
1

>  <PUBCHEM_CONFORMER_ID>  (1) 
000075DD00000001

>  <PUBCHEM_MMFF94_ENERGY>  (1) 
-4.4899

>  <PUBCHEM_FEATURE_SELFOVERLAP>  (1) 
10.148

>  <PUBCHEM_SHAPE_FINGERPRINT>  (1) 
11315181 36 18259989284529158733
12091667 2 17918277545715234797
12596602 18 18410855473039444737
13533116 47 18335419016110119098
14251764 18 18410856538164953205
14251764 46 18060420222778858686
14933364 13 18413674621222651568
15183329 4 18410573972266549347
15348495 7 18410573989446418946
17093844 174 14273740659973673797
17844677 252 18341057384071322785
20281389 69 18272367564258639833
21315763 28 18131632283247327340
220451 1 18259707787386794570
23081809 10 18410856529596143637
23559900 14 18337382860020727113
3004659 81 17918275342613445616
4073 2 18261114135794315458
5104073 3 18410573972266549898

>  <PUBCHEM_SHAPE_MULTIPOLES>  (1) 
451.88
26.5
2.58
1.21
0
0
-0.04
0
-2.34
0
1.04
0
0
0.1

>  <PUBCHEM_SHAPE_SELFOVERLAP>  (1) 
799.774

>  <PUBCHEM_SHAPE_VOLUME>  (1) 
294

>  <PUBCHEM_COORDINATE_TYPE>  (1) 
2
5
10

$$$$
