30187
     RDKit          3D

 25 26  0  0  0  0  0  0  0  0999 V2000
   -1.6746   -2.3590    0.2459 S   0  0  0  0  0  0  0  0  0  0  0  0
   -1.9628   -3.2191   -0.8933 O   0  0  0  0  0  0  0  0  0  0  0  0
   -1.8424   -2.8712    1.5999 O   0  0  0  0  0  0  0  0  0  0  0  0
   -5.7589    2.6946   -1.1931 O   0  0  0  0  0  0  0  0  0  0  0  0
   -5.5858    2.9754    0.9773 O   0  0  0  0  0  0  0  0  0  0  0  0
   -5.3016    2.3539   -0.0752 N   0  0  0  0  0  0  0  0  0  0  0  0
    3.9137   -0.4850   -0.4426 N   0  0  0  0  0  0  0  0  0  0  0  0
    3.1897    1.7917   -0.7010 N   0  0  0  0  0  0  0  0  0  0  0  0
    5.4626    1.1262   -0.7753 N   0  0  0  0  0  0  0  0  0  0  0  0
    7.4650    1.7727    0.2306 N   0  0  0  0  0  0  0  0  0  0  0  0
    5.6697    1.4332    1.6007 N   0  0  0  0  0  0  0  0  0  0  0  0
   -0.0304   -1.8082    0.0432 C   0  0  0  0  0  0  0  0  0  0  0  0
   -2.7537   -0.9557    0.1501 C   0  0  0  0  0  0  0  0  0  0  0  0
    0.5314   -1.7429   -1.2319 C   0  0  0  0  0  0  0  0  0  0  0  0
    0.7215   -1.4327    1.1565 C   0  0  0  0  0  0  0  0  0  0  0  0
   -3.2576   -0.5795   -1.0803 C   0  0  0  0  0  0  0  0  0  0  0  0
   -3.0671   -0.2704    1.3084 C   0  0  0  0  0  0  0  0  0  0  0  0
    1.8450   -1.3024   -1.3937 C   0  0  0  0  0  0  0  0  0  0  0  0
    2.0350   -0.9922    0.9947 C   0  0  0  0  0  0  0  0  0  0  0  0
   -4.1070    0.5243   -1.1555 C   0  0  0  0  0  0  0  0  0  0  0  0
   -3.9166    0.8334    1.2330 C   0  0  0  0  0  0  0  0  0  0  0  0
   -4.4366    1.2307    0.0011 C   0  0  0  0  0  0  0  0  0  0  0  0
    2.5909   -0.9290   -0.2797 C   0  0  0  0  0  0  0  0  0  0  0  0
    4.1325    0.7878   -0.6251 C   0  0  0  0  0  0  0  0  0  0  0  0
    6.1379    1.4235    0.3054 C   0  0  0  0  0  0  0  0  0  0  0  0
  1  2  2  0
  1  3  2  0
  1 12  1  0
  1 13  1  0
  4  6  1  0
  5  6  2  0
  6 22  1  0
  7 23  1  0
  7 24  2  0
  8 24  1  0
  9 24  1  0
  9 25  2  0
 10 25  1  0
 11 25  1  0
 12 14  2  0
 12 15  1  0
 13 16  2  0
 13 17  1  0
 14 18  1  0
 15 19  2  0
 16 20  1  0
 17 21  2  0
 18 23  2  0
 19 23  1  0
 20 22  2  0
 21 22  1  0
M  CHG  2   4  -1   6   1
M  END
>  <PUBCHEM_COMPOUND_CID>  (1) 
30187

>  <PUBCHEM_CONFORMER_RMSD>  (1) 
0.8

>  <PUBCHEM_CONFORMER_DIVERSEORDER>  (1) 
1
2
3
4

>  <PUBCHEM_MMFF94_PARTIAL_CHARGES>  (1) 
39
1 1.32
10 -0.85
11 -0.85
12 -0.01
13 -0.01
14 -0.15
15 -0.15
16 -0.15
17 -0.15
18 -0.15
19 -0.15
2 -0.65
20 -0.15
21 -0.15
22 0.13
23 0.18
24 0.71
25 0.55
26 0.15
27 0.15
28 0.15
29 0.15
3 -0.65
30 0.15
31 0.15
32 0.15
33 0.15
34 0.4
35 0.4
36 0.4
37 0.4
38 0.4
39 0.4
4 -0.52
5 -0.52
6 0.91
7 -0.63
8 -0.85
9 -0.66

>  <PUBCHEM_EFFECTIVE_ROTOR_COUNT>  (1) 
5

>  <PUBCHEM_PHARMACOPHORE_FEATURES>  (1) 
12
1 10 donor
1 11 donor
1 2 acceptor
1 3 acceptor
1 4 acceptor
1 4 anion
1 5 acceptor
1 8 donor
4 7 8 9 24 cation
4 9 10 11 25 cation
6 12 14 15 18 19 23 rings
6 13 16 17 20 21 22 rings

>  <PUBCHEM_HEAVY_ATOM_COUNT>  (1) 
25

>  <PUBCHEM_ATOM_DEF_STEREO_COUNT>  (1) 
0

>  <PUBCHEM_ATOM_UDEF_STEREO_COUNT>  (1) 
0

>  <PUBCHEM_BOND_DEF_STEREO_COUNT>  (1) 
0

>  <PUBCHEM_BOND_UDEF_STEREO_COUNT>  (1) 
0

>  <PUBCHEM_ISOTOPIC_ATOM_COUNT>  (1) 
0

>  <PUBCHEM_COMPONENT_COUNT>  (1) 
1

>  <PUBCHEM_CACTVS_TAUTO_COUNT>  (1) 
5

>  <PUBCHEM_CONFORMER_ID>  (1) 
000075EB00000001

>  <PUBCHEM_MMFF94_ENERGY>  (1) 
69.2392

>  <PUBCHEM_FEATURE_SELFOVERLAP>  (1) 
61.095

>  <PUBCHEM_SHAPE_FINGERPRINT>  (1) 
10319926 262 14274016551033781707
10498660 4 18341899528874609995
105312 117 18201722885627869222
11135609 201 18340494383332467105
11720765 8 17552086091053410918
12107183 9 18189606160516775402
12403259 118 17458639921053456047
12596602 18 12757156778973928348
12633257 1 17604144938987117140
12895836 83 18341892974812493249
12895837 130 18338520849374427572
12969540 114 16845579759609115230
13103583 49 15285363937425346848
14123256 34 8862940597836628036
1420 369 9439395826801000781
14251764 30 8142088663038268816
14251764 38 18123750022212246760
14429114 114 18124034529673661025
14739800 52 18339907304036304266
14950920 106 15140974988213587725
15209294 21 17749103439575885134
15537594 2 10519723201386443028
16993427 108 16229446544811465835
17780758 139 12901536945020063975
17834072 32 18409453553149459039
193927 3 8430320138658975290
19438510 23 18409732837455576425
20621476 21 11170178831919684424
20715895 44 18342178830492562312
21033648 29 18114191808385253903
21054139 6 11455902364794569660
21307412 95 11455592272514497853
21315759 148 12468622929724466080
21401589 2 18335991895906291307
21756936 100 18336264625818280307
23379529 103 11239410740839753789
23559900 14 17987810596822262326
270888 7 18338516340059621621
2748736 6 18410286991205789732
2838139 119 18342453794356952476
3459 39 18261376850100857648
3472631 163 18339923706632464901
4015057 19 14404628800556280906
474 4 18267304232088166671
474113 269 12829501380882630785
484985 159 8790616888125797143
5104073 3 17821729416263092658
56633871 153 11026101070168078177
5718773 13 8069729772950136561
57724786 102 18264208006753655323
6327066 14 18410570665558690453
636775 8 10953725670657897288
6431902 208 9151180839565187448
6712543 237 15140968318667753193
7226269 152 18409730699021240168
7288768 16 18260554398745378891
7808743 9 18410291415290473899
7970288 3 9439104456426083069
8217 86 9727631713664798052
9981440 41 18410295834575257115
999808 66 13552011314954508520

>  <PUBCHEM_SHAPE_MULTIPOLES>  (1) 
464.97
15.35
3.29
1.44
15.03
0.1
0.15
18.16
0.6
-3.36
0.1
-0.41
-0.19
0.6

>  <PUBCHEM_SHAPE_SELFOVERLAP>  (1) 
984.45

>  <PUBCHEM_SHAPE_VOLUME>  (1) 
260.6

>  <PUBCHEM_COORDINATE_TYPE>  (1) 
2
5
10

$$$$
