30186
     RDKit          3D

 29 30  0  0  0  0  0  0  0  0999 V2000
    0.0034   -3.2610   -0.0009 S   0  0  0  0  0  0  0  0  0  0  0  0
   -0.1278   -3.9919   -1.2536 O   0  0  0  0  0  0  0  0  0  0  0  0
    0.0937   -3.9915    1.2568 O   0  0  0  0  0  0  0  0  0  0  0  0
    4.7834    0.2078   -0.5793 N   0  0  0  0  0  0  0  0  0  0  0  0
   -4.7766    0.2073    0.5786 N   0  0  0  0  0  0  0  0  0  0  0  0
    3.4413    2.1959   -0.4372 N   0  0  0  0  0  0  0  0  0  0  0  0
   -3.4395    2.1992    0.4375 N   0  0  0  0  0  0  0  0  0  0  0  0
    5.7956    2.2243   -0.7019 N   0  0  0  0  0  0  0  0  0  0  0  0
   -5.7940    2.2274    0.7023 N   0  0  0  0  0  0  0  0  0  0  0  0
    7.6169    3.2609    0.3219 N   0  0  0  0  0  0  0  0  0  0  0  0
    6.1020    2.2277    1.6832 N   0  0  0  0  0  0  0  0  0  0  0  0
   -7.6154    3.2642   -0.3212 N   0  0  0  0  0  0  0  0  0  0  0  0
   -6.1004    2.2313   -1.6828 N   0  0  0  0  0  0  0  0  0  0  0  0
    1.4099   -2.2409   -0.1714 C   0  0  0  0  0  0  0  0  0  0  0  0
   -1.4248   -2.2252    0.1726 C   0  0  0  0  0  0  0  0  0  0  0  0
    1.8267   -1.8329   -1.4386 C   0  0  0  0  0  0  0  0  0  0  0  0
   -1.8198   -1.8335    1.4372 C   0  0  0  0  0  0  0  0  0  0  0  0
    2.1167   -1.8333    0.9600 C   0  0  0  0  0  0  0  0  0  0  0  0
   -2.1100   -1.8331   -0.9613 C   0  0  0  0  0  0  0  0  0  0  0  0
    2.9503   -1.0177   -1.5744 C   0  0  0  0  0  0  0  0  0  0  0  0
   -2.9434   -1.0183    1.5733 C   0  0  0  0  0  0  0  0  0  0  0  0
    3.2403   -1.0179    0.8241 C   0  0  0  0  0  0  0  0  0  0  0  0
   -3.2336   -1.0178   -0.8252 C   0  0  0  0  0  0  0  0  0  0  0  0
    3.6521   -0.6137   -0.4426 C   0  0  0  0  0  0  0  0  0  0  0  0
   -3.6503   -0.6105    0.4422 C   0  0  0  0  0  0  0  0  0  0  0  0
    4.6272    1.5026   -0.5602 C   0  0  0  0  0  0  0  0  0  0  0  0
   -4.6255    1.5058    0.5604 C   0  0  0  0  0  0  0  0  0  0  0  0
    6.4482    2.5408    0.3873 C   0  0  0  0  0  0  0  0  0  0  0  0
   -6.4466    2.5441   -0.3868 C   0  0  0  0  0  0  0  0  0  0  0  0
  1  2  2  0
  1  3  2  0
  1 14  1  0
  1 15  1  0
  4 24  1  0
  4 26  2  0
  5 25  1  0
  5 27  2  0
  6 26  1  0
  7 27  1  0
  8 26  1  0
  8 28  2  0
  9 27  1  0
  9 29  2  0
 10 28  1  0
 11 28  1  0
 12 29  1  0
 13 29  1  0
 14 16  2  0
 14 18  1  0
 15 17  2  0
 15 19  1  0
 16 20  1  0
 17 21  1  0
 18 22  2  0
 19 23  2  0
 20 24  2  0
 21 25  2  0
 22 24  1  0
 23 25  1  0
M  END
>  <PUBCHEM_COMPOUND_CID>  (1) 
30186

>  <PUBCHEM_CONFORMER_RMSD>  (1) 
0.8

>  <PUBCHEM_CONFORMER_DIVERSEORDER>  (1) 
1
4
10
7
5
6
8
3
2
9

>  <PUBCHEM_MMFF94_PARTIAL_CHARGES>  (1) 
49
1 1.32
10 -0.85
11 -0.85
12 -0.85
13 -0.85
14 -0.01
15 -0.01
16 -0.15
17 -0.15
18 -0.15
19 -0.15
2 -0.65
20 -0.15
21 -0.15
22 -0.15
23 -0.15
24 0.18
25 0.18
26 0.71
27 0.71
28 0.55
29 0.55
3 -0.65
30 0.15
31 0.15
32 0.15
33 0.15
34 0.15
35 0.15
36 0.15
37 0.15
38 0.4
39 0.4
4 -0.63
40 0.4
41 0.4
42 0.4
43 0.4
44 0.4
45 0.4
46 0.4
47 0.4
48 0.4
49 0.4
5 -0.63
6 -0.85
7 -0.85
8 -0.66
9 -0.66

>  <PUBCHEM_EFFECTIVE_ROTOR_COUNT>  (1) 
6

>  <PUBCHEM_PHARMACOPHORE_FEATURES>  (1) 
14
1 10 donor
1 11 donor
1 12 donor
1 13 donor
1 2 acceptor
1 3 acceptor
1 6 donor
1 7 donor
4 4 6 8 26 cation
4 5 7 9 27 cation
4 8 10 11 28 cation
4 9 12 13 29 cation
6 14 16 18 20 22 24 rings
6 15 17 19 21 23 25 rings

>  <PUBCHEM_HEAVY_ATOM_COUNT>  (1) 
29

>  <PUBCHEM_ATOM_DEF_STEREO_COUNT>  (1) 
0

>  <PUBCHEM_ATOM_UDEF_STEREO_COUNT>  (1) 
0

>  <PUBCHEM_BOND_DEF_STEREO_COUNT>  (1) 
0

>  <PUBCHEM_BOND_UDEF_STEREO_COUNT>  (1) 
0

>  <PUBCHEM_ISOTOPIC_ATOM_COUNT>  (1) 
0

>  <PUBCHEM_COMPONENT_COUNT>  (1) 
1

>  <PUBCHEM_CACTVS_TAUTO_COUNT>  (1) 
15

>  <PUBCHEM_CONFORMER_ID>  (1) 
000075EA00000001

>  <PUBCHEM_MMFF94_ENERGY>  (1) 
88.1977

>  <PUBCHEM_FEATURE_SELFOVERLAP>  (1) 
71.268

>  <PUBCHEM_SHAPE_FINGERPRINT>  (1) 
10042902 136 9223242844776822706
10533779 1 18410566288571264964
10675989 125 18195253221518010601
10864689 126 18341338829637890276
11135609 201 18411139173284351331
11476731 99 17246652782450715269
11479125 193 18191001445030545485
11720765 8 17840603504771195054
12107183 9 18335411367063872786
12717326 135 18127388220774515672
12988421 55 17968363645924294374
13944108 23 17980202989421304993
13965767 371 17894349960428742110
14223995 32 18341326808071817400
14739800 52 17751640949504209027
15198563 99 17697309982008389279
15803439 3 16774080695639096686
16120349 189 18410009965925298806
16120349 21 8935010287166814215
19438510 23 18333450945397420850
20715895 44 18337956688181777659
20775438 99 10157398862801134085
21033648 29 18259988188764073830
23559900 14 17903647281078525411
270888 7 18410575088958059202
2748736 6 18410847763547189601
2838139 119 18411984637122016415
3472631 163 18341333293208183535
34797466 226 18056766430277217223
393628 179 18059564837161740552
4112364 45 18114173090970552171
474113 269 11242266182050266929
5104073 3 17749107802898778730
5219985 13 18410857667799835598
57307002 19 18334572464649384285
57724786 102 18334572417615526114
6327066 14 18412262847896662557
6712543 237 15357697483502888641
7288768 16 18186805811221059227
7808743 9 18341051929663414306
9849439 229 18410005529155828603

>  <PUBCHEM_SHAPE_MULTIPOLES>  (1) 
539.11
18.08
5.14
1.42
0.04
0.05
0
-30.93
0
-0.02
0
0
0.41
1.7

>  <PUBCHEM_SHAPE_SELFOVERLAP>  (1) 
1135.501

>  <PUBCHEM_SHAPE_VOLUME>  (1) 
303.5

>  <PUBCHEM_COORDINATE_TYPE>  (1) 
2
5
10

$$$$
