30196
     RDKit          3D

 24 27  0  0  1  0  0  0  0  0999 V2000
    5.3899    1.3246    0.3147 O   0  0  0  0  0  0  0  0  0  0  0  0
   -5.2996   -0.7349   -0.8966 O   0  0  0  0  0  0  0  0  0  0  0  0
   -6.0476    1.7266   -0.1556 O   0  0  0  0  0  0  0  0  0  0  0  0
    1.0066   -0.9653    0.2495 C   0  0  0  0  0  0  0  0  0  0  0  0
    2.4027   -0.6815   -0.3221 C   0  0  0  0  0  0  0  0  0  0  0  0
    0.0658    0.2338   -0.0970 C   0  0  0  0  0  0  0  0  0  0  0  0
    3.0331    0.6135    0.2345 C   0  0  0  0  0  0  0  0  0  0  0  0
   -1.4059   -0.0031    0.4149 C   0  0  0  0  0  0  0  0  0  0  0  0
    4.4463    0.5517   -0.4242 C   0  0  0  0  0  0  0  0  0  0  0  0
   -1.9029   -1.3539   -0.1937 C   0  0  0  0  0  0  0  0  0  0  0  0
    0.6805    1.5945    0.3254 C   0  0  0  0  0  0  0  0  0  0  0  0
    2.1261    1.7879   -0.1696 C   0  0  0  0  0  0  0  0  0  0  0  0
    3.4967   -1.7252   -0.1214 C   0  0  0  0  0  0  0  0  0  0  0  0
    0.4401   -2.2867   -0.2889 C   0  0  0  0  0  0  0  0  0  0  0  0
    4.8127   -0.9544   -0.3350 C   0  0  0  0  0  0  0  0  0  0  0  0
   -0.9939   -2.5327    0.1713 C   0  0  0  0  0  0  0  0  0  0  0  0
   -2.3505    1.1161   -0.1152 C   0  0  0  0  0  0  0  0  0  0  0  0
    3.1856    0.6124    1.7841 C   0  0  0  0  0  0  0  0  0  0  0  0
   -1.4561   -0.0060    1.9631 C   0  0  0  0  0  0  0  0  0  0  0  0
   -3.3623   -1.6644    0.1451 C   0  0  0  0  0  0  0  0  0  0  0  0
   -3.8409    0.8727    0.1729 C   0  0  0  0  0  0  0  0  0  0  0  0
    4.5174    1.0417   -1.8760 C   0  0  0  0  0  0  0  0  0  0  0  0
   -4.2519   -0.5201   -0.2874 C   0  0  0  0  0  0  0  0  0  0  0  0
   -4.6919    1.9527   -0.4929 C   0  0  0  0  0  0  0  0  0  0  0  0
  1  9  1  0
  2 23  2  0
  3 24  1  0
  4  5  1  0
  4  6  1  0
  4 14  1  0
  5  7  1  0
  5 13  1  0
  6  8  1  0
  6 11  1  0
  7  9  1  0
  7 12  1  0
  7 18  1  0
  8 10  1  0
  8 17  1  0
  8 19  1  0
  9 15  1  0
  9 22  1  0
 10 16  1  0
 10 20  1  0
 11 12  1  0
 13 15  1  0
 14 16  1  0
 17 21  1  0
 20 23  1  0
 21 23  1  0
 21 24  1  0
M  END
>  <PUBCHEM_COMPOUND_CID>  (1) 
30196

>  <PUBCHEM_CONFORMER_RMSD>  (1) 
0.6

>  <PUBCHEM_CONFORMER_DIVERSEORDER>  (1) 
1
2

>  <PUBCHEM_MMFF94_PARTIAL_CHARGES>  (1) 
10
1 -0.68
2 -0.57
20 0.06
21 0.06
23 0.45
24 0.28
3 -0.68
55 0.4
58 0.4
9 0.28

>  <PUBCHEM_EFFECTIVE_ROTOR_COUNT>  (1) 
3

>  <PUBCHEM_PHARMACOPHORE_FEATURES>  (1) 
9
1 1 acceptor
1 1 donor
1 2 acceptor
1 3 acceptor
1 3 donor
5 5 7 9 13 15 rings
6 4 5 6 7 11 12 rings
6 4 6 8 10 14 16 rings
6 8 10 17 20 21 23 rings

>  <PUBCHEM_HEAVY_ATOM_COUNT>  (1) 
24

>  <PUBCHEM_ATOM_DEF_STEREO_COUNT>  (1) 
8

>  <PUBCHEM_ATOM_UDEF_STEREO_COUNT>  (1) 
0

>  <PUBCHEM_BOND_DEF_STEREO_COUNT>  (1) 
0

>  <PUBCHEM_BOND_UDEF_STEREO_COUNT>  (1) 
0

>  <PUBCHEM_ISOTOPIC_ATOM_COUNT>  (1) 
0

>  <PUBCHEM_COMPONENT_COUNT>  (1) 
1

>  <PUBCHEM_CACTVS_TAUTO_COUNT>  (1) 
3

>  <PUBCHEM_CONFORMER_ID>  (1) 
000075F400000001

>  <PUBCHEM_MMFF94_ENERGY>  (1) 
90.4081

>  <PUBCHEM_FEATURE_SELFOVERLAP>  (1) 
45.767

>  <PUBCHEM_SHAPE_FINGERPRINT>  (1) 
10366900 7 16917074373512462322
10411042 1 17617378819848661147
10498660 4 18413395341000466536
11315181 36 17775574156539752632
11578080 2 16484427680032052827
11595378 159 16226604079129682613
11796584 16 14548725180458378797
12011746 2 18272376369268235206
12236239 1 17894909663918961760
12403259 415 18201155546201819721
12592029 89 18335137566497082507
12633257 1 15430318074574898504
12788726 201 17987803998981764921
13224815 77 17846785126102092434
14528608 73 18413106160540995847
14790565 3 18338241453415277333
15099037 51 18410012134831003005
15183329 4 18411980226527784717
15196674 1 18411418401523511455
15238133 3 18113330912809637792
15420108 30 16473481586679204018
15788980 27 18187650188863826377
1601671 61 18334858320560840900
16752209 62 18340764956827819394
16945 1 18196367250303869834
17349148 13 17703798023886758027
18186145 218 17988931092994575211
18222031 100 14045734915771554441
18608769 82 18266181827994968739
19862831 5 17918277549466902505
200 152 17632858641991111643
20645477 70 18201441346543101646
20715895 44 18191583060589736781
21033648 29 18271798059958083729
21267235 1 18411990186356763271
21279426 13 18340770338437451510
21421861 104 17677597693259200082
221357 26 18343578564803226485
22393880 68 18273212014784236135
23227448 37 18412261753249974447
23402539 116 18342734109507799101
23402655 69 18342455932828386999
23559900 14 18272930518707053384
3004659 81 18335422327540349558
335352 9 18410576137626678446
34797466 226 17561089158491044460
34934 24 18408601483446520130
350125 39 18410862100944186539
3545911 37 18413390942573984905
3680242 22 18263361391268864082
4214541 1 18411136935484778101
4280585 95 17409097893896047438
474 4 17603588555606057463
495365 180 17417517086636742594
5104073 3 18410575071926130851
542803 24 17603588534073354669
543358 83 18335422335650002346
59755656 215 18340771425190622015
6138700 20 18267305335620903518
633830 44 17748828522681770274
9709674 26 18268147741483603795

>  <PUBCHEM_SHAPE_MULTIPOLES>  (1) 
476.3
11.59
2.3
1.15
3.78
0.59
0.28
-4.15
-2.75
0.79
-0.22
-0.7
-0.24
0.07

>  <PUBCHEM_SHAPE_SELFOVERLAP>  (1) 
1011.032

>  <PUBCHEM_SHAPE_VOLUME>  (1) 
264.2

>  <PUBCHEM_COORDINATE_TYPE>  (1) 
2
5
10

$$$$
