30195
     RDKit          3D

 19 18  0  0  0  0  0  0  0  0999 V2000
    1.4056    1.9867    0.0548 O   0  0  0  0  0  0  0  0  0  0  0  0
   -1.3365   -1.9332    0.0245 O   0  0  0  0  0  0  0  0  0  0  0  0
    3.0965   -1.9681    1.1946 O   0  0  0  0  0  0  0  0  0  0  0  0
    0.8386    1.0871   -1.9800 O   0  0  0  0  0  0  0  0  0  0  0  0
   -0.6387   -1.0948   -1.9976 O   0  0  0  0  0  0  0  0  0  0  0  0
    0.0275    0.0289    0.0792 C   0  0  0  0  0  0  0  0  0  0  0  0
   -1.0537    0.7075    0.9757 C   0  0  0  0  0  0  0  0  0  0  0  0
    1.0850   -0.6498    1.0009 C   0  0  0  0  0  0  0  0  0  0  0  0
   -2.2252    1.4091    0.2666 C   0  0  0  0  0  0  0  0  0  0  0  0
    0.7791    1.0819   -0.7563 C   0  0  0  0  0  0  0  0  0  0  0  0
   -0.6640   -1.0496   -0.7740 C   0  0  0  0  0  0  0  0  0  0  0  0
    2.1915   -1.3984    0.2555 C   0  0  0  0  0  0  0  0  0  0  0  0
   -3.3211    1.9313    1.1931 C   0  0  0  0  0  0  0  0  0  0  0  0
   -4.4896    2.5015    0.4022 C   0  0  0  0  0  0  0  0  0  0  0  0
    2.1737    2.9929   -0.6126 C   0  0  0  0  0  0  0  0  0  0  0  0
   -2.0487   -2.9696   -0.6585 C   0  0  0  0  0  0  0  0  0  0  0  0
    4.1162   -2.7152    0.5467 C   0  0  0  0  0  0  0  0  0  0  0  0
    2.7959    3.9057    0.4225 C   0  0  0  0  0  0  0  0  0  0  0  0
   -2.7321   -3.8539    0.3627 C   0  0  0  0  0  0  0  0  0  0  0  0
  1 10  1  0
  1 15  1  0
  2 11  1  0
  2 16  1  0
  3 12  1  0
  3 17  1  0
  4 10  2  0
  5 11  2  0
  6  7  1  0
  6  8  1  0
  6 10  1  0
  6 11  1  0
  7  9  1  0
  8 12  1  0
  9 13  1  0
 13 14  1  0
 15 18  1  0
 16 19  1  0
M  END
>  <PUBCHEM_COMPOUND_CID>  (1) 
30195

>  <PUBCHEM_CONFORMER_RMSD>  (1) 
1

>  <PUBCHEM_CONFORMER_DIVERSEORDER>  (1) 
1
107
134
121
139
133
40
132
124
117
60
15
136
24
106
65
94
58
8
111
126
137
144
81
141
26
28
150
25
84
123
147
113
50
59
22
102
89
61
140
54
10
146
83
95
79
93
127
62
109
76
149
34
64
52
88
70
116
145
43
27
87
19
29
92
130
143
56
78
51
49
120
32
36
31
96
142
35
68
103
39
33
122
44
104
41
148
125
47
91
42
66
131
69
55
21
71
73
37
67
6
119
30
45
74
118
100
129
3
138
80
110
90
77
97
53
108
7
75
38
20
86
151
17
14
112
13
48
105
114
82
128
72
9
135
98
4
18
115
46
5
11
85
99
57
2
12
63
23
101
16

>  <PUBCHEM_MMFF94_PARTIAL_CHARGES>  (1) 
12
1 -0.43
10 0.66
11 0.66
12 0.28
15 0.28
16 0.28
17 0.28
2 -0.43
3 -0.56
4 -0.57
5 -0.57
6 0.12

>  <PUBCHEM_EFFECTIVE_ROTOR_COUNT>  (1) 
12

>  <PUBCHEM_PHARMACOPHORE_FEATURES>  (1) 
5
1 14 hydrophobe
1 3 acceptor
1 4 acceptor
1 5 acceptor
5 6 7 8 9 13 hydrophobe

>  <PUBCHEM_HEAVY_ATOM_COUNT>  (1) 
19

>  <PUBCHEM_ATOM_DEF_STEREO_COUNT>  (1) 
0

>  <PUBCHEM_ATOM_UDEF_STEREO_COUNT>  (1) 
0

>  <PUBCHEM_BOND_DEF_STEREO_COUNT>  (1) 
0

>  <PUBCHEM_BOND_UDEF_STEREO_COUNT>  (1) 
0

>  <PUBCHEM_ISOTOPIC_ATOM_COUNT>  (1) 
0

>  <PUBCHEM_COMPONENT_COUNT>  (1) 
1

>  <PUBCHEM_CACTVS_TAUTO_COUNT>  (1) 
1

>  <PUBCHEM_CONFORMER_ID>  (1) 
000075F300000001

>  <PUBCHEM_MMFF94_ENERGY>  (1) 
26.9118

>  <PUBCHEM_FEATURE_SELFOVERLAP>  (1) 
25.382

>  <PUBCHEM_SHAPE_FINGERPRINT>  (1) 
10756046 70 18338518534333995772
12507560 14 18194404381414122024
12788726 201 17619075370284288312
13134695 92 18117282449682772429
13294875 104 18340499919187270836
14178342 30 18267003103166816024
14943834 7 18338797926225083379
14955137 171 18121794836844171259
16945 1 18338515222892974692
20600515 1 18199748038406265018
20671657 1 18409737248276738856
20723712 36 18124602972319840217
21330990 113 17618510874068118194
21421861 104 18265058122373153530
23419403 2 13624402094436900655
23558518 356 18121232127483239212
266924 87 18050006893743463996
283562 15 17834961153977023513
589210 1 18338516446958673666
59554788 170 17548981057305165062
81228 2 17980159107724597970

>  <PUBCHEM_SHAPE_MULTIPOLES>  (1) 
361.66
6.04
5.28
1.33
1.14
0.32
-0.47
-0.81
2.17
-0.38
0.43
-0.09
0.05
-1.63

>  <PUBCHEM_SHAPE_SELFOVERLAP>  (1) 
685.799

>  <PUBCHEM_SHAPE_VOLUME>  (1) 
223.8

>  <PUBCHEM_COORDINATE_TYPE>  (1) 
2
5
10

$$$$
