30206
     RDKit          3D

 18 18  0  0  0  0  0  0  0  0999 V2000
   -0.1988   -0.0343    1.3086 O   0  0  0  0  0  0  0  0  0  0  0  0
    2.2637   -0.0826    0.1795 N   0  0  0  0  0  0  0  0  0  0  0  0
   -2.4307   -0.2601   -0.3416 N   0  0  0  0  0  0  0  0  0  0  0  0
   -1.1653   -0.6015   -0.7295 N   0  0  0  0  0  0  0  0  0  0  0  0
    3.5774   -0.4890   -0.3185 C   0  0  0  0  0  0  0  0  0  0  0  0
    2.0398    1.3405   -0.0713 C   0  0  0  0  0  0  0  0  0  0  0  0
    1.2108   -0.8835   -0.4439 C   0  0  0  0  0  0  0  0  0  0  0  0
    3.8477   -1.9504    0.0307 C   0  0  0  0  0  0  0  0  0  0  0  0
    3.1211    2.1753    0.6102 C   0  0  0  0  0  0  0  0  0  0  0  0
   -0.1106   -0.4582    0.1572 C   0  0  0  0  0  0  0  0  0  0  0  0
    5.2184   -2.3922   -0.4580 C   0  0  0  0  0  0  0  0  0  0  0  0
    2.8985    3.6625    0.3821 C   0  0  0  0  0  0  0  0  0  0  0  0
   -3.3147   -1.1109    0.2464 C   0  0  0  0  0  0  0  0  0  0  0  0
   -2.9775    0.9767   -0.4909 C   0  0  0  0  0  0  0  0  0  0  0  0
   -4.4701   -0.3994    0.4834 C   0  0  0  0  0  0  0  0  0  0  0  0
   -4.2567    0.9214    0.0171 C   0  0  0  0  0  0  0  0  0  0  0  0
   -3.0012   -2.5259    0.5379 C   0  0  0  0  0  0  0  0  0  0  0  0
   -2.2516    2.1116   -1.0995 C   0  0  0  0  0  0  0  0  0  0  0  0
  1 10  2  0
  2  5  1  0
  2  6  1  0
  2  7  1  0
  3  4  1  0
  3 13  1  0
  3 14  1  0
  4 10  1  0
  5  8  1  0
  6  9  1  0
  7 10  1  0
  8 11  1  0
  9 12  1  0
 13 15  2  0
 13 17  1  0
 14 16  2  0
 14 18  1  0
 15 16  1  0
M  END
>  <PUBCHEM_COMPOUND_CID>  (1) 
30206

>  <PUBCHEM_CONFORMER_RMSD>  (1) 
0.8

>  <PUBCHEM_CONFORMER_DIVERSEORDER>  (1) 
1
24
31
11
32
16
3
13
34
28
4
15
12
6
27
8
19
9
17
18
30
21
7
29
10
26
5
2
33
23
25
22
20
14

>  <PUBCHEM_MMFF94_PARTIAL_CHARGES>  (1) 
17
1 -0.57
10 0.57
13 -0.33
14 -0.33
15 -0.15
16 -0.15
17 0.18
18 0.18
2 -0.81
29 0.37
3 0.44
36 0.15
37 0.15
4 -0.57
5 0.27
6 0.27
7 0.33

>  <PUBCHEM_EFFECTIVE_ROTOR_COUNT>  (1) 
8

>  <PUBCHEM_PHARMACOPHORE_FEATURES>  (1) 
6
1 1 acceptor
1 11 hydrophobe
1 12 hydrophobe
1 2 cation
1 4 donor
5 3 13 14 15 16 rings

>  <PUBCHEM_HEAVY_ATOM_COUNT>  (1) 
18

>  <PUBCHEM_ATOM_DEF_STEREO_COUNT>  (1) 
0

>  <PUBCHEM_ATOM_UDEF_STEREO_COUNT>  (1) 
0

>  <PUBCHEM_BOND_DEF_STEREO_COUNT>  (1) 
0

>  <PUBCHEM_BOND_UDEF_STEREO_COUNT>  (1) 
0

>  <PUBCHEM_ISOTOPIC_ATOM_COUNT>  (1) 
0

>  <PUBCHEM_COMPONENT_COUNT>  (1) 
1

>  <PUBCHEM_CACTVS_TAUTO_COUNT>  (1) 
2

>  <PUBCHEM_CONFORMER_ID>  (1) 
000075FE00000001

>  <PUBCHEM_MMFF94_ENERGY>  (1) 
22.3003

>  <PUBCHEM_FEATURE_SELFOVERLAP>  (1) 
30.446

>  <PUBCHEM_SHAPE_FINGERPRINT>  (1) 
10608611 8 18409444808358875405
11132069 177 18041555961926738421
11405975 8 18412548716825546267
11715629 250 18336819904865100413
12403259 226 18408319969308954996
12633257 1 18270691870014630737
12916754 54 18412545431434033819
13134695 92 17489293171385941256
13675066 3 18201710743834431306
14289901 80 18198057178111111499
14341114 176 18409455768962226048
14866123 147 16754938962899437914
17492 89 18338517559408756306
17804303 29 18335143046521651231
18186145 218 17967807254042574823
18785283 64 18263639736069204508
20286276 3 18339368581434859754
20645477 70 18202848759817609950
20671657 53 18271813363495991570
20681677 76 18337381738290347357
20832881 197 18189335671928965410
21065198 57 18411138051949499651
21065199 12 18337110180350782123
221490 88 18409736196368109618
23175994 123 18270965622492515094
23402539 116 18187643575184130391
23557571 272 17968374679478441157
23559900 14 18411132537253728794
3004659 81 17969510295525421934
314173 41 18340210683362645686
3286 77 18335421249002151868
4214541 1 18336548222492861399
5104073 3 18410296943024277907
5281201 14 18410856564188204980
58051976 100 18410575080590268511
6049 1 18334006194506382012
6287921 2 18116438222357884516
633830 44 17022624199449017351
7364860 26 18341330080720189288
77779 3 18410576214445381507
9709674 26 18336265755299818082
9981440 41 17836355322379435216

>  <PUBCHEM_SHAPE_MULTIPOLES>  (1) 
349.62
10.02
3.25
0.88
1.7
1.88
0.01
-3.27
-0.03
3.61
0.23
-0.18
0.14
1.55

>  <PUBCHEM_SHAPE_SELFOVERLAP>  (1) 
693.037

>  <PUBCHEM_SHAPE_VOLUME>  (1) 
211.5

>  <PUBCHEM_COORDINATE_TYPE>  (1) 
2
5
10

$$$$
