30208
     RDKit          3D

 22 23  0  0  0  0  0  0  0  0999 V2000
   -2.3785    2.7303    0.4173 Cl  0  0  0  0  0  0  0  0  0  0  0  0
    2.3758   -2.7300    0.4196 Cl  0  0  0  0  0  0  0  0  0  0  0  0
   -2.3790   -2.7300    0.4212 Cl  0  0  0  0  0  0  0  0  0  0  0  0
    2.3775    2.7304    0.4227 Cl  0  0  0  0  0  0  0  0  0  0  0  0
   -6.8178    0.0000   -0.9057 Cl  0  0  0  0  0  0  0  0  0  0  0  0
    6.8146   -0.0009   -0.9076 Cl  0  0  0  0  0  0  0  0  0  0  0  0
    0.0048   -0.0005   -1.2491 O   0  0  0  0  0  0  0  0  0  0  0  0
   -1.1529    0.0003    0.7863 N   0  0  0  0  0  0  0  0  0  0  0  0
    1.1512    0.0004    0.7892 N   0  0  0  0  0  0  0  0  0  0  0  0
   -2.4953    0.0002    0.3847 C   0  0  0  0  0  0  0  0  0  0  0  0
    2.5064    0.0001    0.3826 C   0  0  0  0  0  0  0  0  0  0  0  0
    0.0053    0.0000   -0.0222 C   0  0  0  0  0  0  0  0  0  0  0  0
   -3.1635    1.2081    0.1842 C   0  0  0  0  0  0  0  0  0  0  0  0
    3.1611   -1.2079    0.1856 C   0  0  0  0  0  0  0  0  0  0  0  0
   -3.1638   -1.2080    0.1861 C   0  0  0  0  0  0  0  0  0  0  0  0
    3.1619    1.2081    0.1872 C   0  0  0  0  0  0  0  0  0  0  0  0
   -4.5002    1.2079   -0.2148 C   0  0  0  0  0  0  0  0  0  0  0  0
    4.4974   -1.2081   -0.2145 C   0  0  0  0  0  0  0  0  0  0  0  0
   -4.5005   -1.2079   -0.2128 C   0  0  0  0  0  0  0  0  0  0  0  0
    4.4983    1.2078   -0.2128 C   0  0  0  0  0  0  0  0  0  0  0  0
   -5.1686    0.0000   -0.4133 C   0  0  0  0  0  0  0  0  0  0  0  0
    5.1659   -0.0003   -0.4138 C   0  0  0  0  0  0  0  0  0  0  0  0
  1 13  1  0
  2 14  1  0
  3 15  1  0
  4 16  1  0
  5 21  1  0
  6 22  1  0
  7 12  2  0
  8 10  1  0
  8 12  1  0
  9 11  1  0
  9 12  1  0
 10 13  2  0
 10 15  1  0
 11 14  2  0
 11 16  1  0
 13 17  1  0
 14 18  1  0
 15 19  2  0
 16 20  2  0
 17 21  2  0
 18 22  2  0
 19 21  1  0
 20 22  1  0
M  END
>  <PUBCHEM_COMPOUND_CID>  (1) 
30208

>  <PUBCHEM_CONFORMER_RMSD>  (1) 
0.6

>  <PUBCHEM_CONFORMER_DIVERSEORDER>  (1) 
1
6
5
3
4
2

>  <PUBCHEM_MMFF94_PARTIAL_CHARGES>  (1) 
28
1 -0.18
10 0.12
11 0.12
12 0.69
13 0.18
14 0.18
15 0.18
16 0.18
17 -0.15
18 -0.15
19 -0.15
2 -0.18
20 -0.15
21 0.18
22 0.18
23 0.37
24 0.37
25 0.15
26 0.15
27 0.15
28 0.15
3 -0.18
4 -0.18
5 -0.18
6 -0.18
7 -0.57
8 -0.55
9 -0.55

>  <PUBCHEM_EFFECTIVE_ROTOR_COUNT>  (1) 
4

>  <PUBCHEM_PHARMACOPHORE_FEATURES>  (1) 
5
1 7 acceptor
1 8 donor
1 9 donor
6 10 13 15 17 19 21 rings
6 11 14 16 18 20 22 rings

>  <PUBCHEM_HEAVY_ATOM_COUNT>  (1) 
22

>  <PUBCHEM_ATOM_DEF_STEREO_COUNT>  (1) 
0

>  <PUBCHEM_ATOM_UDEF_STEREO_COUNT>  (1) 
0

>  <PUBCHEM_BOND_DEF_STEREO_COUNT>  (1) 
0

>  <PUBCHEM_BOND_UDEF_STEREO_COUNT>  (1) 
0

>  <PUBCHEM_ISOTOPIC_ATOM_COUNT>  (1) 
0

>  <PUBCHEM_COMPONENT_COUNT>  (1) 
1

>  <PUBCHEM_CACTVS_TAUTO_COUNT>  (1) 
2

>  <PUBCHEM_CONFORMER_ID>  (1) 
0000760000000001

>  <PUBCHEM_MMFF94_ENERGY>  (1) 
94.0336

>  <PUBCHEM_FEATURE_SELFOVERLAP>  (1) 
25.422

>  <PUBCHEM_SHAPE_FINGERPRINT>  (1) 
10366900 7 18334016094506135176
10595046 47 18410573963676673192
10616163 171 18411702118515835859
10693767 8 18129948850322623230
11315181 36 18259991491193010461
11719270 70 18412538783352823506
12011746 2 18410856563934757102
12107183 9 17618221702372655833
12788726 201 18059575724591605601
13167823 11 18341891887732411455
13533116 47 18338792325978522203
13583140 156 18341614866641866671
13668630 136 16988847189253264271
14341114 176 18411143562329405792
14528608 73 18408042935623626174
14931854 50 18410292471525316382
15183329 4 18410575067483209899
17349148 13 15698001842209337333
17834072 33 18410572885724316886
17844677 252 18342183275277564872
18335252 98 18113344124466819619
18681886 176 18202278139368868674
200 152 17988923370785801689
20645477 56 18186799188929497379
20645477 70 18343021043372346030
21033648 29 18041264518315564381
21267235 1 18411423938411394393
21709351 56 18410854399724907780
221357 26 18413387631270737928
221490 88 18266748063592590106
22393880 68 18411701028047589522
23402539 116 18342733006144276677
23557571 272 18202007603078177421
23559900 14 18339355365893934049
29717793 49 17846786204297217388
300161 21 18259699008252030482
3004659 81 18409725170764846840
34797466 226 18131358526585284604
351380 180 18413669119232375837
3545911 37 18407760343723394225
4073 2 18041284369574967146
4214541 1 18411139129959910753
5104073 3 18410856559639790601
5283173 99 18335692798811231445
542803 24 17385723607948899116
59755656 215 18409449176451391902
59755656 520 16660360402627573307
9709674 26 18412549794862811379

>  <PUBCHEM_SHAPE_MULTIPOLES>  (1) 
448.14
15.08
2.65
0.87
0.04
0
0.09
0
4.89
0
-0.62
0
0
0

>  <PUBCHEM_SHAPE_SELFOVERLAP>  (1) 
903.545

>  <PUBCHEM_SHAPE_VOLUME>  (1) 
267

>  <PUBCHEM_COORDINATE_TYPE>  (1) 
2
5
10

$$$$
