30207
     RDKit          3D

 10 10  0  0  1  0  0  0  0  0999 V2000
    0.9392    0.8984    0.2742 O   0  0  0  0  0  0  0  0  0  0  0  0
   -0.3201    2.7306   -0.0915 O   0  0  0  0  0  0  0  0  0  0  0  0
    1.1608   -0.5105    0.0089 C   0  0  0  0  0  0  0  0  0  0  0  0
   -0.0714   -1.3585    0.3408 C   0  0  0  0  0  0  0  0  0  0  0  0
   -1.3250   -0.7627   -0.2897 C   0  0  0  0  0  0  0  0  0  0  0  0
   -1.4874    0.6674    0.2025 C   0  0  0  0  0  0  0  0  0  0  0  0
    2.3331   -0.9390    0.8991 C   0  0  0  0  0  0  0  0  0  0  0  0
    1.5775   -0.6417   -1.4622 C   0  0  0  0  0  0  0  0  0  0  0  0
   -2.5577   -1.5983    0.0507 C   0  0  0  0  0  0  0  0  0  0  0  0
   -0.2489    1.5143    0.0673 C   0  0  0  0  0  0  0  0  0  0  0  0
  1  3  1  0
  1 10  1  0
  2 10  2  0
  3  4  1  0
  3  7  1  0
  3  8  1  0
  4  5  1  0
  5  6  1  0
  5  9  1  0
  6 10  1  0
M  END
>  <PUBCHEM_COMPOUND_CID>  (1) 
30207

>  <PUBCHEM_CONFORMER_RMSD>  (1) 
0.4

>  <PUBCHEM_CONFORMER_DIVERSEORDER>  (1) 
1
5
4
3
2

>  <PUBCHEM_MMFF94_PARTIAL_CHARGES>  (1) 
5
1 -0.43
10 0.66
2 -0.57
3 0.28
6 0.06

>  <PUBCHEM_EFFECTIVE_ROTOR_COUNT>  (1) 
1

>  <PUBCHEM_PHARMACOPHORE_FEATURES>  (1) 
3
1 2 acceptor
3 3 7 8 hydrophobe
6 1 3 4 5 6 10 rings

>  <PUBCHEM_HEAVY_ATOM_COUNT>  (1) 
10

>  <PUBCHEM_ATOM_DEF_STEREO_COUNT>  (1) 
0

>  <PUBCHEM_ATOM_UDEF_STEREO_COUNT>  (1) 
1

>  <PUBCHEM_BOND_DEF_STEREO_COUNT>  (1) 
0

>  <PUBCHEM_BOND_UDEF_STEREO_COUNT>  (1) 
0

>  <PUBCHEM_ISOTOPIC_ATOM_COUNT>  (1) 
0

>  <PUBCHEM_COMPONENT_COUNT>  (1) 
1

>  <PUBCHEM_CACTVS_TAUTO_COUNT>  (1) 
1

>  <PUBCHEM_CONFORMER_ID>  (1) 
000075FF00000001

>  <PUBCHEM_MMFF94_ENERGY>  (1) 
21.9639

>  <PUBCHEM_FEATURE_SELFOVERLAP>  (1) 
15.223

>  <PUBCHEM_SHAPE_FINGERPRINT>  (1) 
12423570 1 11050456068144019019
12716758 59 17838061399068536686
14817 1 15379384654063929732
16945 1 18194403286107400866
18185500 45 18335138661428672011
20653091 64 18123195859655930995
20711985 344 18268727012349400447
21040471 1 17690283707458112040
21930827 45 17912938175168693394
23211744 25 17610932331238718422
23552423 10 18260834842344239326
241688 4 18411422799648949281
2748010 2 18411975888404976901
29004967 10 16773795861950609794
4369600 1 18265067983770844198
5084963 1 17550399440015142485

>  <PUBCHEM_SHAPE_MULTIPOLES>  (1) 
194.06
2.78
2.2
0.94
0.27
1.54
0.24
-1.58
-0.18
0.71
-0.08
-0.55
-0.24
-0.07

>  <PUBCHEM_SHAPE_SELFOVERLAP>  (1) 
383.202

>  <PUBCHEM_SHAPE_VOLUME>  (1) 
116.8

>  <PUBCHEM_COORDINATE_TYPE>  (1) 
2
5
10

$$$$
