30224
     RDKit          3D

 30 31  0  0  0  0  0  0  0  0999 V2000
   -2.7913   -3.1097   -0.4648 O   0  0  0  0  0  0  0  0  0  0  0  0
    2.8582    1.9255    0.1017 O   0  0  0  0  0  0  0  0  0  0  0  0
    1.9502   -0.2735    0.0587 N   0  0  0  0  0  0  0  0  0  0  0  0
    6.1857   -1.1057    0.5559 N   0  0  0  0  0  0  0  0  0  0  0  0
    3.1737   -1.0045    0.2441 C   0  0  0  0  0  0  0  0  0  0  0  0
    4.1895   -0.7373   -0.8649 C   0  0  0  0  0  0  0  0  0  0  0  0
    0.6953   -1.0242   -0.0798 C   0  0  0  0  0  0  0  0  0  0  0  0
    5.5233   -1.4692   -0.6909 C   0  0  0  0  0  0  0  0  0  0  0  0
    0.0024   -1.3038    1.0581 C   0  0  0  0  0  0  0  0  0  0  0  0
    0.3159   -1.3862   -1.3360 C   0  0  0  0  0  0  0  0  0  0  0  0
   -1.1893   -2.0169    0.9266 C   0  0  0  0  0  0  0  0  0  0  0  0
   -0.8758   -2.0992   -1.4674 C   0  0  0  0  0  0  0  0  0  0  0  0
   -1.6284   -2.4146   -0.3361 C   0  0  0  0  0  0  0  0  0  0  0  0
    1.9045    1.1530    0.0035 C   0  0  0  0  0  0  0  0  0  0  0  0
    0.4465   -0.8916    2.4243 C   0  0  0  0  0  0  0  0  0  0  0  0
    1.1001   -1.0635   -2.5667 C   0  0  0  0  0  0  0  0  0  0  0  0
   -3.8086   -2.8587    0.5037 C   0  0  0  0  0  0  0  0  0  0  0  0
    7.4190   -1.8754    0.7283 C   0  0  0  0  0  0  0  0  0  0  0  0
    6.4748    0.3293    0.5868 C   0  0  0  0  0  0  0  0  0  0  0  0
   -5.1681   -3.0959   -0.1382 C   0  0  0  0  0  0  0  0  0  0  0  0
    0.5354    1.7188   -0.1938 C   0  0  0  0  0  0  0  0  0  0  0  0
   -6.3078   -2.8292    0.8408 C   0  0  0  0  0  0  0  0  0  0  0  0
    0.2519    2.9480    0.2610 C   0  0  0  0  0  0  0  0  0  0  0  0
   -7.6646   -3.0256    0.1834 C   0  0  0  0  0  0  0  0  0  0  0  0
   -1.0481    3.6214    0.0968 C   0  0  0  0  0  0  0  0  0  0  0  0
   -2.1753    2.8635   -0.1764 C   0  0  0  0  0  0  0  0  0  0  0  0
   -1.1190    4.9998    0.2193 C   0  0  0  0  0  0  0  0  0  0  0  0
   -3.4065    3.5008   -0.3314 C   0  0  0  0  0  0  0  0  0  0  0  0
   -2.3500    5.6372    0.0645 C   0  0  0  0  0  0  0  0  0  0  0  0
   -3.4937    4.8876   -0.2109 C   0  0  0  0  0  0  0  0  0  0  0  0
  1 13  1  0
  1 17  1  0
  2 14  2  0
  3  5  1  0
  3  7  1  0
  3 14  1  0
  4  8  1  0
  4 18  1  0
  4 19  1  0
  5  6  1  0
  6  8  1  0
  7  9  2  0
  7 10  1  0
  9 11  1  0
  9 15  1  0
 10 12  2  0
 10 16  1  0
 11 13  2  0
 12 13  1  0
 14 21  1  0
 17 20  1  0
 20 22  1  0
 21 23  2  0
 22 24  1  0
 23 25  1  0
 25 26  2  0
 25 27  1  0
 26 28  1  0
 27 29  2  0
 28 30  2  0
 29 30  1  0
M  END
>  <PUBCHEM_COMPOUND_CID>  (1) 
30224

>  <PUBCHEM_CONFORMER_RMSD>  (1) 
1

>  <PUBCHEM_CONFORMER_DIVERSEORDER>  (1) 
1
38
33
58
20
86
45
39
27
85
12
41
49
18
72
17
65
32
73
10
4
6
59
77
14
40
22
35
37
64
25
15
84
81
21
50
34
74
80
54
56
31
62
23
48
66
8
29
36
57
26
55
60
28
75
3
83
63
68
52
16
42
78
30
71
44
43
67
53
9
76
19
82
11
46
2
79
51
5
70
69
47
24
61
7
13

>  <PUBCHEM_MMFF94_PARTIAL_CHARGES>  (1) 
35
1 -0.36
10 -0.14
11 -0.15
12 -0.15
13 0.08
14 0.62
15 0.14
16 0.14
17 0.28
18 0.27
19 0.27
2 -0.57
21 -0.14
23 -0.18
25 0.03
26 -0.15
27 -0.15
28 -0.15
29 -0.15
3 -0.48
30 -0.15
37 0.15
38 0.15
4 -0.81
5 0.3
55 0.15
58 0.15
62 0.15
63 0.15
64 0.15
65 0.15
66 0.15
7 0.12
8 0.27
9 -0.14

>  <PUBCHEM_EFFECTIVE_ROTOR_COUNT>  (1) 
12

>  <PUBCHEM_PHARMACOPHORE_FEATURES>  (1) 
6
1 1 acceptor
1 2 acceptor
1 24 hydrophobe
1 4 cation
6 25 26 27 28 29 30 rings
6 7 9 10 11 12 13 rings

>  <PUBCHEM_HEAVY_ATOM_COUNT>  (1) 
30

>  <PUBCHEM_ATOM_DEF_STEREO_COUNT>  (1) 
0

>  <PUBCHEM_ATOM_UDEF_STEREO_COUNT>  (1) 
0

>  <PUBCHEM_BOND_DEF_STEREO_COUNT>  (1) 
0

>  <PUBCHEM_BOND_UDEF_STEREO_COUNT>  (1) 
1

>  <PUBCHEM_ISOTOPIC_ATOM_COUNT>  (1) 
0

>  <PUBCHEM_COMPONENT_COUNT>  (1) 
1

>  <PUBCHEM_CACTVS_TAUTO_COUNT>  (1) 
1

>  <PUBCHEM_CONFORMER_ID>  (1) 
0000761000000001

>  <PUBCHEM_MMFF94_ENERGY>  (1) 
110.8854

>  <PUBCHEM_FEATURE_SELFOVERLAP>  (1) 
30.446

>  <PUBCHEM_SHAPE_FINGERPRINT>  (1) 
10050765 1 18410572874074005800
10411042 1 18338236080468984987
11578080 2 17201610412328204936
11991303 11 18044949961063674124
12293681 4 18411411783321715783
12788726 201 18262815054750064326
12977781 61 17843417176237545422
13150687 139 17908985401276847868
13540713 5 18114191809582766108
13590594 115 18337397144643837459
14028597 1 17750213924849981944
14790565 3 17834955270404746624
15021287 119 18199188576220411767
15198563 99 18411139121807852669
15400415 2 17545322973408813572
15927050 60 17976260136624487210
16090146 7 16950576479963507322
16993438 75 18263370192363748225
19301679 30 18410007763240702330
21792938 324 18199169849629862161
21860390 5 17836378407902036255
23516275 137 16342017547255453573
3103668 31 18335701616405113213
38695281 34 17905607701272145356
58902169 19 17915453021363082511
59755656 520 18047747105981523028
6669772 16 17765711326732859950

>  <PUBCHEM_SHAPE_MULTIPOLES>  (1) 
595.69
13.91
7.54
1.38
8.05
12.68
-0.2
-15.89
2.86
-14.99
0.11
0.55
-0.94
0.74

>  <PUBCHEM_SHAPE_SELFOVERLAP>  (1) 
1225.25

>  <PUBCHEM_SHAPE_VOLUME>  (1) 
344

>  <PUBCHEM_COORDINATE_TYPE>  (1) 
2
5
10

$$$$
