30229
     RDKit          3D

 19 20  0  0  0  0  0  0  0  0999 V2000
   -5.0668    1.6584   -0.1364 O   0  0  0  0  0  0  0  0  0  0  0  0
    5.3812    0.2494   -0.1814 N   0  0  0  0  0  0  0  0  0  0  0  0
   -0.1433   -0.2024    0.6072 N   0  0  0  0  0  0  0  0  0  0  0  0
   -0.7218   -0.3656   -0.4927 N   0  0  0  0  0  0  0  0  0  0  0  0
    3.9894    0.1358    0.0171 C   0  0  0  0  0  0  0  0  0  0  0  0
    3.1865    1.2764   -0.0019 C   0  0  0  0  0  0  0  0  0  0  0  0
    3.4156   -1.1173    0.2326 C   0  0  0  0  0  0  0  0  0  0  0  0
    1.2366   -0.0889    0.4100 C   0  0  0  0  0  0  0  0  0  0  0  0
    1.8102    1.1641    0.1946 C   0  0  0  0  0  0  0  0  0  0  0  0
    2.0392   -1.2296    0.4290 C   0  0  0  0  0  0  0  0  0  0  0  0
    6.0851    1.4490    0.2259 C   0  0  0  0  0  0  0  0  0  0  0  0
    6.1278   -0.8378   -0.7826 C   0  0  0  0  0  0  0  0  0  0  0  0
   -2.1083   -0.4798   -0.2940 C   0  0  0  0  0  0  0  0  0  0  0  0
   -2.9056    0.6604   -0.3145 C   0  0  0  0  0  0  0  0  0  0  0  0
   -4.2821    0.5463   -0.1186 C   0  0  0  0  0  0  0  0  0  0  0  0
   -2.6740   -1.7330   -0.0794 C   0  0  0  0  0  0  0  0  0  0  0  0
   -4.8543   -0.7075    0.0966 C   0  0  0  0  0  0  0  0  0  0  0  0
   -4.0502   -1.8471    0.1164 C   0  0  0  0  0  0  0  0  0  0  0  0
   -6.4655    1.4694    0.0721 C   0  0  0  0  0  0  0  0  0  0  0  0
  1 15  1  0
  1 19  1  0
  2  5  1  0
  2 11  1  0
  2 12  1  0
  3  4  2  0
  3  8  1  0
  4 13  1  0
  5  6  2  0
  5  7  1  0
  6  9  1  0
  7 10  2  0
  8  9  2  0
  8 10  1  0
 13 14  2  0
 13 16  1  0
 14 15  1  0
 15 17  2  0
 16 18  2  0
 17 18  1  0
M  END
>  <PUBCHEM_COMPOUND_CID>  (1) 
30229

>  <PUBCHEM_CONFORMER_RMSD>  (1) 
0.6

>  <PUBCHEM_CONFORMER_DIVERSEORDER>  (1) 
1
11
4
5
10
12
8
9
13
3
7
2
6

>  <PUBCHEM_MMFF94_PARTIAL_CHARGES>  (1) 
27
1 -0.36
10 -0.15
11 0.37
12 0.37
13 0.18
14 -0.15
15 0.08
16 -0.15
17 -0.15
18 -0.15
19 0.28
2 -0.84
20 0.15
21 0.15
22 0.15
23 0.15
3 -0.18
30 0.15
31 0.15
32 0.15
33 0.15
4 -0.18
5 0.1
6 -0.15
7 -0.15
8 0.18
9 -0.15

>  <PUBCHEM_EFFECTIVE_ROTOR_COUNT>  (1) 
4

>  <PUBCHEM_PHARMACOPHORE_FEATURES>  (1) 
4
1 1 acceptor
1 2 cation
6 13 14 15 16 17 18 rings
6 5 6 7 8 9 10 rings

>  <PUBCHEM_HEAVY_ATOM_COUNT>  (1) 
19

>  <PUBCHEM_ATOM_DEF_STEREO_COUNT>  (1) 
0

>  <PUBCHEM_ATOM_UDEF_STEREO_COUNT>  (1) 
0

>  <PUBCHEM_BOND_DEF_STEREO_COUNT>  (1) 
0

>  <PUBCHEM_BOND_UDEF_STEREO_COUNT>  (1) 
0

>  <PUBCHEM_ISOTOPIC_ATOM_COUNT>  (1) 
0

>  <PUBCHEM_COMPONENT_COUNT>  (1) 
1

>  <PUBCHEM_CACTVS_TAUTO_COUNT>  (1) 
1

>  <PUBCHEM_CONFORMER_ID>  (1) 
0000761500000001

>  <PUBCHEM_MMFF94_ENERGY>  (1) 
76.018

>  <PUBCHEM_FEATURE_SELFOVERLAP>  (1) 
20.297

>  <PUBCHEM_SHAPE_FINGERPRINT>  (1) 
10354089 29 17967253087424010800
10835480 77 18201715184936292568
11315181 36 17967813903110846039
11858739 19 17775573009773045710
12107183 9 17760362193477300067
12236239 1 18343301478955953634
12616971 3 15936695938248897727
12788726 201 17774160080937532033
13760787 19 18409726257650373259
14251731 8 18342739611144406311
14251752 14 18340769252126996088
14251764 18 18408602561567798363
14341114 176 18409453569928440509
14933364 13 18410578387503680416
15048467 5 18408602556513422588
15183329 4 18272093751629737482
15196674 1 18410572911525678202
15501527 16 18410576184755065953
15778101 99 18411140212977439081
15788980 27 17418092139433334052
17834072 8 18202002105472117669
17844677 252 18338805618643632593
19489759 90 11024110945241062151
200 152 18202566206614015442
20281389 69 18187643574751691349
20621476 66 18271812276938415897
20645477 56 18334854996683148733
20645477 70 18272374140391731358
20681677 155 18334856134174541571
21150785 3 16559023922064494717
21267235 1 18336271236284502227
21709351 56 18336540607388959709
220451 1 17385723591117514714
22224240 67 15430042058876440857
23198884 109 18131634461386512145
23402539 116 18411133658092318100
23402655 69 18410570695391307130
23536379 177 18410573994247801058
23559900 14 18272643584447523929
2916195 48 18268985552749552272
29717793 49 17632864097005766188
300161 21 18334570235492038587
3004659 81 18408888404737641862
3545911 37 18410292501996385977
4073 2 18041284365290607874
4214541 1 18410573998495282451
42788 4 18410855477703728334
4463277 17 18411419522937230576
5104073 3 18333725836199862019
542803 24 17167863071281247654
59755656 215 18342181012193517734
59755656 520 16877944940628578915
633830 44 18188766270807791702
77779 3 18409165536805850139

>  <PUBCHEM_SHAPE_MULTIPOLES>  (1) 
370.2
16.28
1.75
0.7
1.96
0.05
0.01
-4.42
1.23
-1.13
-0.04
0.23
0.05
0.33

>  <PUBCHEM_SHAPE_SELFOVERLAP>  (1) 
783.1

>  <PUBCHEM_SHAPE_VOLUME>  (1) 
209.7

>  <PUBCHEM_COORDINATE_TYPE>  (1) 
2
5
10

$$$$
