30228
     RDKit          3D

 12 12  0  0  0  0  0  0  0  0999 V2000
    2.1065   -1.8180   -1.1166 O   0  0  0  0  0  0  0  0  0  0  0  0
    1.6629   -0.1392    0.0802 N   0  0  0  0  0  0  0  0  0  0  0  0
    1.7662   -1.4505    0.0143 N   0  0  0  0  0  0  0  0  0  0  0  0
    0.6567    0.2852    1.0552 C   0  0  0  0  0  0  0  0  0  0  0  0
   -0.7303    0.2007    0.5134 C   0  0  0  0  0  0  0  0  0  0  0  0
    2.9340    0.5467    0.3556 C   0  0  0  0  0  0  0  0  0  0  0  0
   -1.2904    1.2965   -0.1433 C   0  0  0  0  0  0  0  0  0  0  0  0
   -1.4673   -0.9741    0.6629 C   0  0  0  0  0  0  0  0  0  0  0  0
    3.0381    1.8449   -0.4267 C   0  0  0  0  0  0  0  0  0  0  0  0
   -2.5875    1.2177   -0.6502 C   0  0  0  0  0  0  0  0  0  0  0  0
   -2.7644   -1.0529    0.1559 C   0  0  0  0  0  0  0  0  0  0  0  0
   -3.3245    0.0430   -0.5007 C   0  0  0  0  0  0  0  0  0  0  0  0
  1  3  2  0
  2  3  1  0
  2  4  1  0
  2  6  1  0
  4  5  1  0
  5  7  2  0
  5  8  1  0
  6  9  1  0
  7 10  1  0
  8 11  2  0
 10 12  2  0
 11 12  1  0
M  END
>  <PUBCHEM_COMPOUND_CID>  (1) 
30228

>  <PUBCHEM_CONFORMER_RMSD>  (1) 
0.6

>  <PUBCHEM_CONFORMER_DIVERSEORDER>  (1) 
1
10
21
20
41
39
24
31
7
22
6
28
26
30
23
8
42
5
12
9
14
17
25
3
43
4
36
35
15
18
2
38
11
16
29
33
19
40
37
13
32
34
27

>  <PUBCHEM_MMFF94_PARTIAL_CHARGES>  (1) 
16
1 -0.16
10 -0.15
11 -0.15
12 -0.15
17 0.15
18 0.15
2 -0.36
22 0.15
23 0.15
24 0.15
3 -0.01
4 0.41
5 -0.14
6 0.27
7 -0.15
8 -0.15

>  <PUBCHEM_EFFECTIVE_ROTOR_COUNT>  (1) 
4

>  <PUBCHEM_PHARMACOPHORE_FEATURES>  (1) 
1
6 5 7 8 10 11 12 rings

>  <PUBCHEM_HEAVY_ATOM_COUNT>  (1) 
12

>  <PUBCHEM_ATOM_DEF_STEREO_COUNT>  (1) 
0

>  <PUBCHEM_ATOM_UDEF_STEREO_COUNT>  (1) 
0

>  <PUBCHEM_BOND_DEF_STEREO_COUNT>  (1) 
0

>  <PUBCHEM_BOND_UDEF_STEREO_COUNT>  (1) 
0

>  <PUBCHEM_ISOTOPIC_ATOM_COUNT>  (1) 
0

>  <PUBCHEM_COMPONENT_COUNT>  (1) 
1

>  <PUBCHEM_CACTVS_TAUTO_COUNT>  (1) 
1

>  <PUBCHEM_CONFORMER_ID>  (1) 
0000761400000001

>  <PUBCHEM_MMFF94_ENERGY>  (1) 
29.2461

>  <PUBCHEM_FEATURE_SELFOVERLAP>  (1) 
5.074

>  <PUBCHEM_SHAPE_FINGERPRINT>  (1) 
10608611 8 18335133189540350437
107287 299 18201725093193254794
12162725 195 18040992977323499768
12897270 3 18411420643617752792
12932764 1 17676770851365813185
15219456 202 18411702071207209955
15310529 11 18201715146033147125
16945 1 17988354974792730649
17134986 127 17612296464745561245
18186145 218 18263922129651653149
19973954 147 18337955588728444744
20201158 50 18412822482156475827
20361792 2 15841546358001919681
20645477 70 18201152153388866831
20653085 51 18263366880664335913
20671657 53 18055926394202541374
21501502 16 18343022142730648665
22802520 49 18264497195538900883
23402539 116 18042389378306869558
23532345 88 18342448210577786174
23552423 10 18336825282322241723
23557571 272 18042416883483252499
3248919 1 18342730784949793977
8030462 33 17561084683034745928

>  <PUBCHEM_SHAPE_MULTIPOLES>  (1) 
231.12
5.54
1.74
0.92
0.68
0.06
0.01
-0.96
0.99
0.69
0.43
0.14
0.14
0.49

>  <PUBCHEM_SHAPE_SELFOVERLAP>  (1) 
466.301

>  <PUBCHEM_SHAPE_VOLUME>  (1) 
136.7

>  <PUBCHEM_COORDINATE_TYPE>  (1) 
2
5
10

$$$$
