30230
     RDKit          3D

 20 21  0  0  0  0  0  0  0  0999 V2000
   -6.2510    1.0103    0.1460 O   0  0  0  0  0  0  0  0  0  0  0  0
   -4.6075    2.5412   -0.2034 O   0  0  0  0  0  0  0  0  0  0  0  0
    5.6063    0.3650   -0.1804 N   0  0  0  0  0  0  0  0  0  0  0  0
    0.1119   -0.3635    0.6116 N   0  0  0  0  0  0  0  0  0  0  0  0
   -0.4631   -0.5198   -0.4910 N   0  0  0  0  0  0  0  0  0  0  0  0
    4.2220    0.1817    0.0189 C   0  0  0  0  0  0  0  0  0  0  0  0
    3.3678    1.2843    0.0370 C   0  0  0  0  0  0  0  0  0  0  0  0
    3.7072   -1.1023    0.1982 C   0  0  0  0  0  0  0  0  0  0  0  0
    1.4910   -0.1800    0.4125 C   0  0  0  0  0  0  0  0  0  0  0  0
    1.9988    1.1030    0.2344 C   0  0  0  0  0  0  0  0  0  0  0  0
    2.3383   -1.2836    0.3954 C   0  0  0  0  0  0  0  0  0  0  0  0
    6.2564    1.5828    0.2608 C   0  0  0  0  0  0  0  0  0  0  0  0
    6.3992   -0.6683   -0.8166 C   0  0  0  0  0  0  0  0  0  0  0  0
   -1.8356   -0.7027   -0.2924 C   0  0  0  0  0  0  0  0  0  0  0  0
   -4.0597    0.2157   -0.0758 C   0  0  0  0  0  0  0  0  0  0  0  0
   -2.6911    0.3990   -0.2737 C   0  0  0  0  0  0  0  0  0  0  0  0
   -2.3488   -1.9874   -0.1131 C   0  0  0  0  0  0  0  0  0  0  0  0
   -4.5727   -1.0690    0.1032 C   0  0  0  0  0  0  0  0  0  0  0  0
   -3.7174   -2.1705    0.0845 C   0  0  0  0  0  0  0  0  0  0  0  0
   -4.9520    1.3640   -0.0560 C   0  0  0  0  0  0  0  0  0  0  0  0
  1 20  1  0
  2 20  2  0
  3  6  1  0
  3 12  1  0
  3 13  1  0
  4  5  2  0
  4  9  1  0
  5 14  1  0
  6  7  2  0
  6  8  1  0
  7 10  1  0
  8 11  2  0
  9 10  2  0
  9 11  1  0
 14 16  1  0
 14 17  2  0
 15 16  2  0
 15 18  1  0
 15 20  1  0
 17 19  1  0
 18 19  2  0
M  END
>  <PUBCHEM_COMPOUND_CID>  (1) 
30230

>  <PUBCHEM_CONFORMER_RMSD>  (1) 
0.6

>  <PUBCHEM_CONFORMER_DIVERSEORDER>  (1) 
1
9
4
10
8
6
5
3
7
2

>  <PUBCHEM_MMFF94_PARTIAL_CHARGES>  (1) 
29
1 -0.65
10 -0.15
11 -0.15
12 0.37
13 0.37
14 0.18
15 0.09
16 -0.15
17 -0.15
18 -0.15
19 -0.15
2 -0.57
20 0.63
21 0.15
22 0.15
23 0.15
24 0.15
3 -0.84
31 0.15
32 0.15
33 0.15
34 0.15
35 0.5
4 -0.18
5 -0.18
6 0.1
7 -0.15
8 -0.15
9 0.18

>  <PUBCHEM_EFFECTIVE_ROTOR_COUNT>  (1) 
4

>  <PUBCHEM_PHARMACOPHORE_FEATURES>  (1) 
6
1 1 acceptor
1 2 acceptor
1 3 cation
3 1 2 20 anion
6 14 15 16 17 18 19 rings
6 6 7 8 9 10 11 rings

>  <PUBCHEM_HEAVY_ATOM_COUNT>  (1) 
20

>  <PUBCHEM_ATOM_DEF_STEREO_COUNT>  (1) 
0

>  <PUBCHEM_ATOM_UDEF_STEREO_COUNT>  (1) 
0

>  <PUBCHEM_BOND_DEF_STEREO_COUNT>  (1) 
0

>  <PUBCHEM_BOND_UDEF_STEREO_COUNT>  (1) 
0

>  <PUBCHEM_ISOTOPIC_ATOM_COUNT>  (1) 
0

>  <PUBCHEM_COMPONENT_COUNT>  (1) 
1

>  <PUBCHEM_CACTVS_TAUTO_COUNT>  (1) 
1

>  <PUBCHEM_CONFORMER_ID>  (1) 
0000761600000001

>  <PUBCHEM_MMFF94_ENERGY>  (1) 
72.8044

>  <PUBCHEM_FEATURE_SELFOVERLAP>  (1) 
30.503

>  <PUBCHEM_SHAPE_FINGERPRINT>  (1) 
10354089 29 17894914022910002872
10411042 1 17905889533459473099
10595046 47 18263080066916630102
10835480 77 18201997768188625912
10912923 1 17749099015606336466
11315181 36 17895755213587316711
12107183 9 17903348208955320627
12236239 1 18413107281928464418
12616971 3 16226052214449837990
12788726 201 17702665432473785505
13073987 5 18261108577837764994
14251752 14 18411700950758815970
14251764 18 18409446990645302019
14341114 176 18408890611390398333
14933364 13 18411141341999943412
15048467 5 18408603664910306116
15183329 4 18272093756019689306
15196674 1 18410572898851974282
15501527 16 18411138035038571449
15716309 27 12396299266066532417
15778101 99 18411140212798039033
15788980 27 17418092143791637342
16079462 125 17846487167389215744
17834072 8 18131071515295281460
17844677 252 18338242672911280040
20281389 69 18333447621050866392
20621476 66 18272375226786296721
20645477 56 18409448073077085919
20681677 155 18334856134190411290
21033648 29 17916853725085426960
21065198 48 18260821596966201299
21267235 1 18336552719740455635
21421861 104 17678163907234818082
21709351 56 18410288150883155876
220451 1 17530682109086242082
22224240 67 15357701890244595009
23081809 10 17821726161358038706
23198884 109 18202283585176455233
23402539 116 18342172288850941932
23402655 69 18410008845139411170
23536379 177 18410011048726568554
23559900 14 18201712994144067792
2916195 48 18269548498434315088
29717793 49 17489594437798460676
300161 21 18335696143820101714
3004659 81 18409451350417227342
3545911 37 18411982455541860785
4073 2 18113623434474070994
4214541 1 18410855477650941851
445580 37 18410867555289337324
4463277 17 18411701002393472872
5104073 3 18260823804389208650
542803 24 17313103068500553974
59755656 215 18342462487397029750
59755656 520 17022904553529110683
6327066 14 18190171292645957405
633830 44 18261385715435264718
7062679 6 18334580130938751573
77779 3 18409447015882453211
90127 26 18336833094904468800

>  <PUBCHEM_SHAPE_MULTIPOLES>  (1) 
384.91
16.29
2.02
0.7
7.02
0.21
-0.02
4.97
-1.22
-2.02
0.01
0.28
-0.06
0.37

>  <PUBCHEM_SHAPE_SELFOVERLAP>  (1) 
822.375

>  <PUBCHEM_SHAPE_VOLUME>  (1) 
215.2

>  <PUBCHEM_COORDINATE_TYPE>  (1) 
2
5
10

$$$$
