30238
     RDKit          3D

 16 15  0  0  0  0  0  0  0  0999 V2000
    2.2675    0.7962    0.3719 O   0  0  0  0  0  0  0  0  0  0  0  0
   -2.4987    0.3944    0.3439 O   0  0  0  0  0  0  0  0  0  0  0  0
    0.5194   -3.1875    0.3492 O   0  0  0  0  0  0  0  0  0  0  0  0
    1.1383    1.3863   -1.5395 O   0  0  0  0  0  0  0  0  0  0  0  0
   -1.4570    1.1191   -1.5707 O   0  0  0  0  0  0  0  0  0  0  0  0
   -0.1136    0.5741    0.4062 C   0  0  0  0  0  0  0  0  0  0  0  0
    0.0708   -0.8822    0.9011 C   0  0  0  0  0  0  0  0  0  0  0  0
   -0.2657    1.5226    1.6124 C   0  0  0  0  0  0  0  0  0  0  0  0
    0.3375   -1.8936   -0.2143 C   0  0  0  0  0  0  0  0  0  0  0  0
    1.1428    0.9837   -0.3826 C   0  0  0  0  0  0  0  0  0  0  0  0
   -1.4081    0.7209   -0.4131 C   0  0  0  0  0  0  0  0  0  0  0  0
    3.5076    1.1039   -0.2731 C   0  0  0  0  0  0  0  0  0  0  0  0
   -3.7691    0.5420   -0.2987 C   0  0  0  0  0  0  0  0  0  0  0  0
    0.7457   -4.1654   -0.6560 C   0  0  0  0  0  0  0  0  0  0  0  0
    4.6437    0.8435    0.6928 C   0  0  0  0  0  0  0  0  0  0  0  0
   -4.8612    0.1419    0.6703 C   0  0  0  0  0  0  0  0  0  0  0  0
  1 10  1  0
  1 12  1  0
  2 11  1  0
  2 13  1  0
  3  9  1  0
  3 14  1  0
  4 10  2  0
  5 11  2  0
  6  7  1  0
  6  8  1  0
  6 10  1  0
  6 11  1  0
  7  9  1  0
 12 15  1  0
 13 16  1  0
M  END
>  <PUBCHEM_COMPOUND_CID>  (1) 
30238

>  <PUBCHEM_CONFORMER_RMSD>  (1) 
0.8

>  <PUBCHEM_CONFORMER_DIVERSEORDER>  (1) 
1
134
183
89
248
49
127
179
51
232
201
198
99
141
251
81
109
114
48
139
36
186
240
250
65
210
181
184
160
143
166
233
28
76
172
91
45
19
136
161
209
199
104
208
253
182
164
42
234
218
77
157
205
85
235
11
92
231
57
180
93
146
247
239
20
27
94
171
243
168
80
211
191
148
169
255
24
60
13
26
167
249
9
23
67
52
152
150
71
216
206
43
101
145
197
111
128
222
236
246
241
126
230
3
154
7
38
98
119
61
35
178
124
68
163
220
31
115
244
34
159
78
102
121
131
105
207
142
137
153
125
70
254
84
63
194
175
155
257
123
130
29
113
96
37
219
217
8
140
228
229
53
193
17
118
46
202
75
252
87
120
165
107
59
5
129
32
40
227
62
22
213
16
18
187
4
122
50
138
176
72
189
90
144
147
6
135
204
95
73
174
97
47
86
10
44
221
224
214
162
66
88
117
103
12
242
192
108
245
25
82
151
30
203
170
54
200
196
237
190
173
132
83
156
215
14
177
55
79
256
238
116
58
21
33
106
100
212
185
69
226
110
56
158
188
2
64
112
149
15
133
195
223
41
39
225
74

>  <PUBCHEM_MMFF94_PARTIAL_CHARGES>  (1) 
12
1 -0.43
10 0.66
11 0.66
12 0.28
13 0.28
14 0.28
2 -0.43
3 -0.56
4 -0.57
5 -0.57
6 0.12
9 0.28

>  <PUBCHEM_EFFECTIVE_ROTOR_COUNT>  (1) 
9

>  <PUBCHEM_PHARMACOPHORE_FEATURES>  (1) 
4
1 3 acceptor
1 4 acceptor
1 5 acceptor
1 8 hydrophobe

>  <PUBCHEM_HEAVY_ATOM_COUNT>  (1) 
16

>  <PUBCHEM_ATOM_DEF_STEREO_COUNT>  (1) 
0

>  <PUBCHEM_ATOM_UDEF_STEREO_COUNT>  (1) 
0

>  <PUBCHEM_BOND_DEF_STEREO_COUNT>  (1) 
0

>  <PUBCHEM_BOND_UDEF_STEREO_COUNT>  (1) 
0

>  <PUBCHEM_ISOTOPIC_ATOM_COUNT>  (1) 
0

>  <PUBCHEM_COMPONENT_COUNT>  (1) 
1

>  <PUBCHEM_CACTVS_TAUTO_COUNT>  (1) 
1

>  <PUBCHEM_CONFORMER_ID>  (1) 
0000761E00000001

>  <PUBCHEM_MMFF94_ENERGY>  (1) 
27.204

>  <PUBCHEM_FEATURE_SELFOVERLAP>  (1) 
20.309

>  <PUBCHEM_SHAPE_FINGERPRINT>  (1) 
10756046 70 17605279677847016868
11322862 65 18338237184375839550
12119455 92 18186795906936485137
12592029 89 18040995116359287802
12715332 25 18339076102946595946
13533116 47 17988923341538649618
16945 1 18268126708991617581
187816 3 18202568405795818880
18915476 22 18192697961137601501
19784866 9 18343022155789715113
20344682 1 18040433308751446973
20602899 9 18124066591149779804
20645477 70 18263635179214080383
21054139 6 18198893885744824071
23402539 116 18130782395192881620
23419403 2 17612359261182665707
3250762 1 17685766930940045860
366044 4 18409728495275210280
42630746 31 18341613681020058711
465052 167 17458352973993095809
69090 78 18261385710971576776
7364860 26 18267867181529963031
81228 2 17542204105559436426
81539 233 18261109647363489287

>  <PUBCHEM_SHAPE_MULTIPOLES>  (1) 
299.93
6.52
3.21
1.21
2.01
6.37
-0.11
-3.58
1.04
-1.67
-0.37
0.08
-0.49
0.14

>  <PUBCHEM_SHAPE_SELFOVERLAP>  (1) 
572.531

>  <PUBCHEM_SHAPE_VOLUME>  (1) 
184.7

>  <PUBCHEM_COORDINATE_TYPE>  (1) 
2
5
10

$$$$
