30232
     RDKit          3D

 17 17  0  0  0  0  0  0  0  0999 V2000
    1.8993   -0.2827    0.4588 O   0  0  0  0  0  0  0  0  0  0  0  0
   -0.2775   -0.4045    0.9300 O   0  0  0  0  0  0  0  0  0  0  0  0
    0.4316   -0.6553   -1.2792 O   0  0  0  0  0  0  0  0  0  0  0  0
   -2.3336    2.6699   -0.8198 O   0  0  0  0  0  0  0  0  0  0  0  0
   -0.9427    2.2724    0.9335 O   0  0  0  0  0  0  0  0  0  0  0  0
    4.2828   -0.0939    0.3302 C   0  0  0  0  0  0  0  0  0  0  0  0
    5.5022   -0.1012   -0.5870 C   0  0  0  0  0  0  0  0  0  0  0  0
    2.9932   -0.3155   -0.4474 C   0  0  0  0  0  0  0  0  0  0  0  0
    6.7835    0.1634    0.1873 C   0  0  0  0  0  0  0  0  0  0  0  0
   -1.5882   -0.5812    0.4790 C   0  0  0  0  0  0  0  0  0  0  0  0
   -2.3295    0.5136    0.0925 C   0  0  0  0  0  0  0  0  0  0  0  0
   -2.0888   -1.8649    0.4409 C   0  0  0  0  0  0  0  0  0  0  0  0
    0.6607   -0.4677   -0.0910 C   0  0  0  0  0  0  0  0  0  0  0  0
   -3.6360    0.3158   -0.3544 C   0  0  0  0  0  0  0  0  0  0  0  0
   -3.3953   -2.0626   -0.0058 C   0  0  0  0  0  0  0  0  0  0  0  0
   -4.1689   -0.9723   -0.4035 C   0  0  0  0  0  0  0  0  0  0  0  0
   -1.7927    1.8667    0.1358 C   0  0  0  0  0  0  0  0  0  0  0  0
  1  8  1  0
  1 13  1  0
  2 10  1  0
  2 13  1  0
  3 13  2  0
  4 17  1  0
  5 17  2  0
  6  7  1  0
  6  8  1  0
  7  9  1  0
 10 11  2  0
 10 12  1  0
 11 14  1  0
 11 17  1  0
 12 15  2  0
 14 16  2  0
 15 16  1  0
M  END
>  <PUBCHEM_COMPOUND_CID>  (1) 
30232

>  <PUBCHEM_CONFORMER_RMSD>  (1) 
0.8

>  <PUBCHEM_CONFORMER_DIVERSEORDER>  (1) 
1
38
27
37
18
45
58
26
23
8
142
132
56
110
65
11
33
94
43
3
16
104
49
114
41
15
47
76
97
61
78
131
80
107
13
130
24
29
5
28
6
140
136
22
42
82
119
19
101
25
52
135
120
9
128
100
102
86
115
129
103
70
34
60
21
113
139
48
59
35
62
106
54
111
17
99
138
67
10
126
95
64
124
71
125
105
39
53
134
32
36
116
87
46
96
44
12
2
51
98
112
92
83
55
108
121
122
85
79
63
137
69
20
118
123
109
66
40
89
141
7
81
84
91
68
73
117
72
74
90
127
50
31
57
93
30
133
77
4
88
14
75

>  <PUBCHEM_MMFF94_PARTIAL_CHARGES>  (1) 
19
1 -0.43
10 0.08
11 0.09
12 -0.15
13 0.87
14 -0.15
15 -0.15
16 -0.15
17 0.63
2 -0.23
27 0.15
28 0.15
29 0.15
3 -0.57
30 0.15
31 0.5
4 -0.65
5 -0.57
8 0.28

>  <PUBCHEM_EFFECTIVE_ROTOR_COUNT>  (1) 
7

>  <PUBCHEM_PHARMACOPHORE_FEATURES>  (1) 
5
1 4 acceptor
1 5 acceptor
1 9 hydrophobe
3 4 5 17 anion
6 10 11 12 14 15 16 rings

>  <PUBCHEM_HEAVY_ATOM_COUNT>  (1) 
17

>  <PUBCHEM_ATOM_DEF_STEREO_COUNT>  (1) 
0

>  <PUBCHEM_ATOM_UDEF_STEREO_COUNT>  (1) 
0

>  <PUBCHEM_BOND_DEF_STEREO_COUNT>  (1) 
0

>  <PUBCHEM_BOND_UDEF_STEREO_COUNT>  (1) 
0

>  <PUBCHEM_ISOTOPIC_ATOM_COUNT>  (1) 
0

>  <PUBCHEM_COMPONENT_COUNT>  (1) 
1

>  <PUBCHEM_CACTVS_TAUTO_COUNT>  (1) 
1

>  <PUBCHEM_CONFORMER_ID>  (1) 
0000761800000001

>  <PUBCHEM_MMFF94_ENERGY>  (1) 
41.9393

>  <PUBCHEM_FEATURE_SELFOVERLAP>  (1) 
25.429

>  <PUBCHEM_SHAPE_FINGERPRINT>  (1) 
10937287 8 17406561307706977992
11315181 36 17894915157240077550
12107183 9 17612299754990567026
12236239 1 17603300449231743714
13288520 33 18411702118747626111
13403585 85 18411695517857425064
14142880 1 17750234708292114101
17834072 33 18187649145883021382
17844677 252 18412271636423149468
1813 80 14548750529566336752
187816 3 18187080685202034419
18927931 339 18410582802835828814
19489759 90 18407759231791023370
200 152 18260827132994286318
20300324 65 18410013234448184264
20645477 56 18338803312198650497
20645477 70 17060067991557487350
20871999 31 18340195320343333557
21033648 29 17346302788105431608
21267235 1 18336834194706649339
21339142 51 18410853300223972031
21426921 1 18409167697010830701
2297311 6 18342185483212216062
2306618 200 18201447960307077265
23402539 116 18410289229062638087
23557571 272 18201727231955229364
23559900 14 18410847798302307320
2748010 2 18120918758833203643
3268164 11 18410569574352043852
351380 180 18411699902855445344
4214541 1 18409730626043147562
441001 317 18410573968536220912
573450 72 18187917344915522730

>  <PUBCHEM_SHAPE_MULTIPOLES>  (1) 
320.51
11.44
2.03
0.88
24.17
1.14
-0.05
-1.56
-0.96
-3.01
0.04
0.01
0.06
0.23

>  <PUBCHEM_SHAPE_SELFOVERLAP>  (1) 
657.998

>  <PUBCHEM_SHAPE_VOLUME>  (1) 
182.4

>  <PUBCHEM_COORDINATE_TYPE>  (1) 
2
5
10

$$$$
