30246
     RDKit          3D

 15 15  0  0  0  0  0  0  0  0999 V2000
    1.4719    1.7353   -0.1039 N   0  0  0  0  0  0  0  0  0  0  0  0
   -0.5512   -2.4952   -0.0551 N   0  0  0  0  0  0  0  0  0  0  0  0
    0.4889   -0.3937   -0.0816 N   0  0  0  0  0  0  0  0  0  0  0  0
   -0.8666    1.5854   -0.0219 N   0  0  0  0  0  0  0  0  0  0  0  0
   -1.9019   -0.5793    0.0031 N   0  0  0  0  0  0  0  0  0  0  0  0
   -4.2635    1.8811    0.1012 N   0  0  0  0  0  0  0  0  0  0  0  0
    2.8220    1.1761   -0.1534 C   0  0  0  0  0  0  0  0  0  0  0  0
    3.2560    0.7177    1.2360 C   0  0  0  0  0  0  0  0  0  0  0  0
    3.7840    2.2203   -0.7111 C   0  0  0  0  0  0  0  0  0  0  0  0
    0.3381    0.9572   -0.0684 C   0  0  0  0  0  0  0  0  0  0  0  0
    0.7051   -3.1753   -0.1036 C   0  0  0  0  0  0  0  0  0  0  0  0
   -0.6600   -1.0877   -0.0441 C   0  0  0  0  0  0  0  0  0  0  0  0
    0.5153   -4.6823   -0.0694 C   0  0  0  0  0  0  0  0  0  0  0  0
   -1.9279    0.7633    0.0115 C   0  0  0  0  0  0  0  0  0  0  0  0
   -3.2102    1.3770    0.0607 C   0  0  0  0  0  0  0  0  0  0  0  0
  1  7  1  0
  1 10  1  0
  2 11  1  0
  2 12  1  0
  3 10  2  0
  3 12  1  0
  4 10  1  0
  4 14  2  0
  5 12  2  0
  5 14  1  0
  6 15  3  0
  7  8  1  0
  7  9  1  0
 11 13  1  0
 14 15  1  0
M  END
>  <PUBCHEM_COMPOUND_CID>  (1) 
30246

>  <PUBCHEM_CONFORMER_RMSD>  (1) 
0.6

>  <PUBCHEM_CONFORMER_DIVERSEORDER>  (1) 
1
40
42
47
24
49
37
22
18
16
46
23
38
13
34
29
5
27
14
36
43
48
31
15
32
45
6
26
3
19
17
39
35
21
44
30
33
25
20
28
8
11
41
10
12
9
7
2
4

>  <PUBCHEM_MMFF94_PARTIAL_CHARGES>  (1) 
14
1 -0.87
10 0.72
11 0.37
12 0.72
14 0.69
15 0.48
17 0.4
2 -0.87
26 0.4
3 -0.62
4 -0.62
5 -0.62
6 -0.56
7 0.37

>  <PUBCHEM_EFFECTIVE_ROTOR_COUNT>  (1) 
4

>  <PUBCHEM_PHARMACOPHORE_FEATURES>  (1) 
7
1 1 donor
1 2 donor
1 6 acceptor
3 7 8 9 hydrophobe
4 1 3 4 10 cation
4 2 3 5 12 cation
6 3 4 5 10 12 14 rings

>  <PUBCHEM_HEAVY_ATOM_COUNT>  (1) 
15

>  <PUBCHEM_ATOM_DEF_STEREO_COUNT>  (1) 
0

>  <PUBCHEM_ATOM_UDEF_STEREO_COUNT>  (1) 
0

>  <PUBCHEM_BOND_DEF_STEREO_COUNT>  (1) 
0

>  <PUBCHEM_BOND_UDEF_STEREO_COUNT>  (1) 
0

>  <PUBCHEM_ISOTOPIC_ATOM_COUNT>  (1) 
0

>  <PUBCHEM_COMPONENT_COUNT>  (1) 
1

>  <PUBCHEM_CACTVS_TAUTO_COUNT>  (1) 
9

>  <PUBCHEM_CONFORMER_ID>  (1) 
0000762600000001

>  <PUBCHEM_MMFF94_ENERGY>  (1) 
30.8008

>  <PUBCHEM_FEATURE_SELFOVERLAP>  (1) 
35.562

>  <PUBCHEM_SHAPE_FINGERPRINT>  (1) 
12500047 106 18340767169300492192
12553582 1 17328582233889185194
12839892 36 18337940260412223963
13380535 76 18335417954978643305
14022349 108 18193832639826020650
15042514 8 17905051708748979850
15279307 12 18115864264909243688
15669948 3 18120089743808159052
15906896 17 18127404781381976774
16752209 62 18195518409957265010
16945 1 18051409866195770608
18785283 64 18190754045732795707
20510252 161 18200038493843431649
20645476 183 18188501301285086708
20645477 70 18118958101989023221
20871998 22 16755224358980303362
212916 134 18200010924543369416
21426921 1 17906177609278074396
21524375 3 18273493464133788501
21665056 4 18338233881345301430
23419403 2 17467401812850289867
23557571 272 17912660291223304380
23598294 1 18191865832493369360
257057 1 17114656878784475143
2748010 2 18337968843081851431
3071541 12 18122913018900783845
3071541 250 17762908658196858871
3071541 37 18337677386833350917
3091708 16 9191845190333202683
43471831 8 18411133624001793307
458136 41 18339094683028099905
54173680 148 17762339514684279806
58807428 26 18340477898509370138
7364860 26 18124874556081514643
81228 2 17837198647333305755
81539 233 18334854966222972677

>  <PUBCHEM_SHAPE_MULTIPOLES>  (1) 
278.81
5.55
4.66
0.74
1.24
8.5
-0.11
-6.79
-0.18
-0.84
0.39
0.54
-0.11
-0.4

>  <PUBCHEM_SHAPE_SELFOVERLAP>  (1) 
556.246

>  <PUBCHEM_SHAPE_VOLUME>  (1) 
154.7

>  <PUBCHEM_COORDINATE_TYPE>  (1) 
2
5
10

$$$$
