30247
     RDKit          3D

 14 13  0  0  1  0  0  0  0  0999 V2000
    2.2725   -0.2042   -0.4036 O   0  0  0  0  0  0  0  0  0  0  0  0
    3.8352   -1.3500    0.8541 O   0  0  0  0  0  0  0  0  0  0  0  0
   -0.0883    0.0531    0.0805 C   0  0  0  0  0  0  0  0  0  0  0  0
   -1.2065   -0.4166    1.0394 C   0  0  0  0  0  0  0  0  0  0  0  0
    1.2557   -0.5427    0.5318 C   0  0  0  0  0  0  0  0  0  0  0  0
   -0.0265    1.5736   -0.0568 C   0  0  0  0  0  0  0  0  0  0  0  0
   -2.5744    0.0356    0.6014 C   0  0  0  0  0  0  0  0  0  0  0  0
    0.2500    2.4014    1.1682 C   0  0  0  0  0  0  0  0  0  0  0  0
   -3.4849   -0.6381   -0.1268 C   0  0  0  0  0  0  0  0  0  0  0  0
   -0.2162    2.1650   -1.2484 C   0  0  0  0  0  0  0  0  0  0  0  0
   -4.8374   -0.1229   -0.5293 C   0  0  0  0  0  0  0  0  0  0  0  0
   -3.1886   -2.0340   -0.6089 C   0  0  0  0  0  0  0  0  0  0  0  0
    3.5237   -0.6756   -0.1181 C   0  0  0  0  0  0  0  0  0  0  0  0
    4.4855   -0.2444   -1.1835 C   0  0  0  0  0  0  0  0  0  0  0  0
  1  5  1  0
  1 13  1  0
  2 13  2  0
  3  4  1  0
  3  5  1  0
  3  6  1  0
  4  7  1  0
  6  8  1  0
  6 10  2  0
  7  9  2  3
  9 11  1  0
  9 12  1  0
 13 14  1  0
M  END
>  <PUBCHEM_COMPOUND_CID>  (1) 
30247

>  <PUBCHEM_CONFORMER_RMSD>  (1) 
0.6

>  <PUBCHEM_CONFORMER_DIVERSEORDER>  (1) 
1
103
228
134
193
327
132
72
82
320
87
254
153
199
234
208
264
164
90
98
146
43
262
205
173
4
150
214
34
329
207
55
220
287
71
246
188
247
115
10
328
160
258
39
304
21
324
30
255
111
83
47
184
249
165
195
149
24
296
131
319
266
275
77
155
70
212
143
89
84
124
236
45
101
25
60
305
312
78
152
227
57
100
225
217
198
91
191
230
147
139
108
189
20
243
281
2
154
29
282
201
175
51
35
157
168
241
186
167
237
273
121
182
53
181
202
278
69
59
276
200
260
104
145
107
174
231
206
138
67
226
291
306
250
65
289
123
265
298
267
194
316
58
12
286
239
308
22
118
235
125
74
81
325
63
302
218
277
151
293
176
66
122
64
32
130
117
54
13
301
245
323
313
33
80
141
190
215
52
169
310
16
110
36
232
142
216
283
127
41
299
27
307
317
158
11
19
156
210
259
166
240
256
105
97
192
294
129
112
203
9
270
79
185
37
128
251
7
137
85
290
242
88
311
18
248
38
6
94
140
102
222
326
170
120
119
209
315
272
99
196
219
295
114
197
46
322
161
92
50
263
162
133
163
309
213
23
5
68
297
96
56
113
288
17
233
179
14
271
318
252
187
28
280
300
75
116
238
285
221
76
135
144
40
268
61
48
3
229
183
62
106
26
49
180
177
73
253
136
172
159
93
148
284
279
15
257
261
314
223
109
126
211
303
269
178
321
44
292
42
224
86
244
274
8
171
31
95
204

>  <PUBCHEM_MMFF94_PARTIAL_CHARGES>  (1) 
17
1 -0.43
10 -0.3
11 0.14
12 0.14
13 0.66
14 0.06
2 -0.57
20 0.15
24 0.15
25 0.15
3 0.14
4 0.14
5 0.28
6 -0.28
7 -0.29
8 0.14
9 -0.28

>  <PUBCHEM_EFFECTIVE_ROTOR_COUNT>  (1) 
6

>  <PUBCHEM_PHARMACOPHORE_FEATURES>  (1) 
3
1 2 acceptor
3 9 11 12 hydrophobe
4 3 4 6 7 hydrophobe

>  <PUBCHEM_HEAVY_ATOM_COUNT>  (1) 
14

>  <PUBCHEM_ATOM_DEF_STEREO_COUNT>  (1) 
0

>  <PUBCHEM_ATOM_UDEF_STEREO_COUNT>  (1) 
1

>  <PUBCHEM_BOND_DEF_STEREO_COUNT>  (1) 
0

>  <PUBCHEM_BOND_UDEF_STEREO_COUNT>  (1) 
0

>  <PUBCHEM_ISOTOPIC_ATOM_COUNT>  (1) 
0

>  <PUBCHEM_COMPONENT_COUNT>  (1) 
1

>  <PUBCHEM_CACTVS_TAUTO_COUNT>  (1) 
1

>  <PUBCHEM_CONFORMER_ID>  (1) 
0000762700000001

>  <PUBCHEM_MMFF94_ENERGY>  (1) 
17.4827

>  <PUBCHEM_FEATURE_SELFOVERLAP>  (1) 
15.223

>  <PUBCHEM_SHAPE_FINGERPRINT>  (1) 
12119455 92 11383834835731946611
14943859 89 12612754626900129851
14993402 34 18413393150271830967
15309172 13 11383833744657337635
15342816 4 18341897406907980774
17041 50 18260818337402235853
17959699 21 16877947139535679356
18186145 218 14129061417436057974
18222031 100 17989485229680438286
18410436 195 18343863342045707745
187816 3 17749393654457303642
200 152 17967251971138656794
201361 129 10665765794849209759
204376 136 11167938069781208421
20671657 53 18342458175059882177
20711985 327 18059584602072929273
20871999 31 17968090885515102085
21069387 34 17346023585203304455
21339142 36 18340198588296695232
21452121 71 18201165458833409825
22485316 2 18410852170288993962
23402539 116 18334010575752851286
23419403 2 18197751423653231916
23532345 42 18272362118329480674
23557571 272 18130795495254169004
23559900 14 17917424375751666504
366044 4 8214139646804692368
532947 4 17976833300163242812
68521 5 18338238163259234621
7364860 26 17985544700445064401
81228 2 18192446181290767376

>  <PUBCHEM_SHAPE_MULTIPOLES>  (1) 
276.37
8.2
2.08
1.15
0.95
1.16
-0.05
-4.8
-2.18
-0.2
-0.03
0.33
0.29
-0.31

>  <PUBCHEM_SHAPE_SELFOVERLAP>  (1) 
522.095

>  <PUBCHEM_SHAPE_VOLUME>  (1) 
171.8

>  <PUBCHEM_COORDINATE_TYPE>  (1) 
2
5
10

$$$$
