30245
     RDKit          3D

 14 14  0  0  0  0  0  0  0  0999 V2000
   -0.8554   -2.3093    0.0108 N   0  0  0  0  0  0  0  0  0  0  0  0
   -0.6725    2.3766   -0.0110 N   0  0  0  0  0  0  0  0  0  0  0  0
   -0.7957    0.0349    0.0008 N   0  0  0  0  0  0  0  0  0  0  0  0
    1.3276    1.1528   -0.0054 N   0  0  0  0  0  0  0  0  0  0  0  0
    1.2342   -1.2449    0.0059 N   0  0  0  0  0  0  0  0  0  0  0  0
    4.4723   -0.1705   -0.0006 N   0  0  0  0  0  0  0  0  0  0  0  0
   -2.3127   -2.3348    0.0113 C   0  0  0  0  0  0  0  0  0  0  0  0
   -2.0963    2.5035   -0.0112 C   0  0  0  0  0  0  0  0  0  0  0  0
   -0.1204   -1.1435    0.0058 C   0  0  0  0  0  0  0  0  0  0  0  0
   -0.0150    1.1274   -0.0048 C   0  0  0  0  0  0  0  0  0  0  0  0
   -2.8368   -3.7606   -0.0177 C   0  0  0  0  0  0  0  0  0  0  0  0
   -2.5175    3.9630    0.0163 C   0  0  0  0  0  0  0  0  0  0  0  0
    1.8834   -0.0695    0.0000 C   0  0  0  0  0  0  0  0  0  0  0  0
    3.3048   -0.1250   -0.0003 C   0  0  0  0  0  0  0  0  0  0  0  0
  1  7  1  0
  1  9  1  0
  2  8  1  0
  2 10  1  0
  3  9  2  0
  3 10  1  0
  4 10  2  0
  4 13  1  0
  5  9  1  0
  5 13  2  0
  6 14  3  0
  7 11  1  0
  8 12  1  0
 13 14  1  0
M  END
>  <PUBCHEM_COMPOUND_CID>  (1) 
30245

>  <PUBCHEM_CONFORMER_RMSD>  (1) 
0.6

>  <PUBCHEM_CONFORMER_DIVERSEORDER>  (1) 
1
12
6
5
14
4
3
7
16
8
11
9
10
2
13
15

>  <PUBCHEM_MMFF94_PARTIAL_CHARGES>  (1) 
14
1 -0.87
10 0.72
13 0.69
14 0.48
19 0.4
2 -0.87
20 0.4
3 -0.62
4 -0.62
5 -0.62
6 -0.56
7 0.37
8 0.37
9 0.72

>  <PUBCHEM_EFFECTIVE_ROTOR_COUNT>  (1) 
4

>  <PUBCHEM_PHARMACOPHORE_FEATURES>  (1) 
6
1 1 donor
1 2 donor
1 6 acceptor
4 1 3 5 9 cation
4 2 3 4 10 cation
6 3 4 5 9 10 13 rings

>  <PUBCHEM_HEAVY_ATOM_COUNT>  (1) 
14

>  <PUBCHEM_ATOM_DEF_STEREO_COUNT>  (1) 
0

>  <PUBCHEM_ATOM_UDEF_STEREO_COUNT>  (1) 
0

>  <PUBCHEM_BOND_DEF_STEREO_COUNT>  (1) 
0

>  <PUBCHEM_BOND_UDEF_STEREO_COUNT>  (1) 
0

>  <PUBCHEM_ISOTOPIC_ATOM_COUNT>  (1) 
0

>  <PUBCHEM_COMPONENT_COUNT>  (1) 
1

>  <PUBCHEM_CACTVS_TAUTO_COUNT>  (1) 
5

>  <PUBCHEM_CONFORMER_ID>  (1) 
0000762500000001

>  <PUBCHEM_MMFF94_ENERGY>  (1) 
27.458

>  <PUBCHEM_FEATURE_SELFOVERLAP>  (1) 
30.488

>  <PUBCHEM_SHAPE_FINGERPRINT>  (1) 
1 1 17617378376975386596
12532896 13 18124594189127180412
13052359 8 18337102363346746945
13134695 92 17906726256621122215
13380535 76 18125716790857770694
13955234 65 17258781417521534897
14178000 15 17908142436324515475
14648413 74 17111283572926521035
15906896 17 18270951358689906023
17539 30 18341324565312294630
19021347 4 18194682570719407865
20671657 53 17980488072133594815
20711985 344 18337098047026206890
20871998 184 18201721786274334462
21426921 1 18410858776570843188
21499 59 17976816493402078613
23419403 2 17274244179769510625
23530152 11 18050289163267804565
23558518 356 18333452067017023784
23559900 14 18200030613691324950
2748010 2 18124863818552426972
3071541 12 17114106023611706359
3091708 16 9202248769339193585
54173680 148 18410291427880087046
58779409 8 18265906747902262982
6025842 7 17473255484335538909
68521 5 18338520849564006630
7364860 26 17329992911190638567
77188 2 18050287269187246541
81228 2 18334579074524100010
81539 233 17758118094429732429

>  <PUBCHEM_SHAPE_MULTIPOLES>  (1) 
258.23
5.16
4.94
0.58
5.18
1.87
0
-1.71
0
-8.17
0
-0.03
0
-0.01

>  <PUBCHEM_SHAPE_SELFOVERLAP>  (1) 
515.053

>  <PUBCHEM_SHAPE_VOLUME>  (1) 
142.3

>  <PUBCHEM_COORDINATE_TYPE>  (1) 
2
5
10

$$$$
