30248
     RDKit          3D

 14 14  0  0  1  0  0  0  0  0999 V2000
    1.7263   -0.3140    0.2799 O   0  0  0  0  0  0  0  0  0  0  0  0
    1.9860   -2.1483   -1.1001 O   0  0  0  0  0  0  0  0  0  0  0  0
    1.0052    1.9315   -0.2986 C   0  0  0  0  0  0  0  0  0  0  0  0
   -1.2481    0.0677    0.2340 C   0  0  0  0  0  0  0  0  0  0  0  0
    1.0751    0.4559   -0.7292 C   0  0  0  0  0  0  0  0  0  0  0  0
   -0.3240   -0.1160   -0.9806 C   0  0  0  0  0  0  0  0  0  0  0  0
    0.0845    2.1129    0.9178 C   0  0  0  0  0  0  0  0  0  0  0  0
   -1.3086    1.5393    0.6600 C   0  0  0  0  0  0  0  0  0  0  0  0
    2.3936    2.4993    0.0023 C   0  0  0  0  0  0  0  0  0  0  0  0
   -2.6238   -0.4491   -0.0566 C   0  0  0  0  0  0  0  0  0  0  0  0
   -3.1039   -1.5757    0.8094 C   0  0  0  0  0  0  0  0  0  0  0  0
   -3.3829    0.0665   -1.0348 C   0  0  0  0  0  0  0  0  0  0  0  0
    1.8664   -1.6447    0.0086 C   0  0  0  0  0  0  0  0  0  0  0  0
    1.8541   -2.4252    1.2880 C   0  0  0  0  0  0  0  0  0  0  0  0
  1  5  1  0
  1 13  1  0
  2 13  2  0
  3  5  1  0
  3  7  1  0
  3  9  1  0
  4  6  1  0
  4  8  1  0
  4 10  1  0
  5  6  1  0
  7  8  1  0
 10 11  1  0
 10 12  2  0
 13 14  1  0
M  END
>  <PUBCHEM_COMPOUND_CID>  (1) 
30248

>  <PUBCHEM_CONFORMER_RMSD>  (1) 
0.6

>  <PUBCHEM_CONFORMER_DIVERSEORDER>  (1) 
4
88
46
19
34
43
37
59
75
50
58
92
93
84
79
95
23
8
98
94
66
101
107
45
10
87
12
102
39
96
82
9
104
7
62
36
15
47
81
97
65
51
49
26
1
33
103
80
63
85
35
40
64
70
25
55
68
29
41
38
89
52
48
83
60
14
91
76
16
100
31
21
17
3
44
67
78
56
99
77
57
69
105
106
72
24
32
22
5
18
27
2
61
6
90
11
20
28
30
13
53
42
74
54
73
71
86

>  <PUBCHEM_MMFF94_PARTIAL_CHARGES>  (1) 
11
1 -0.43
10 -0.28
11 0.14
12 -0.3
13 0.66
14 0.06
2 -0.57
30 0.15
31 0.15
4 0.14
5 0.28

>  <PUBCHEM_EFFECTIVE_ROTOR_COUNT>  (1) 
4.2

>  <PUBCHEM_PHARMACOPHORE_FEATURES>  (1) 
2
1 2 acceptor
6 3 4 5 6 7 8 rings

>  <PUBCHEM_HEAVY_ATOM_COUNT>  (1) 
14

>  <PUBCHEM_ATOM_DEF_STEREO_COUNT>  (1) 
0

>  <PUBCHEM_ATOM_UDEF_STEREO_COUNT>  (1) 
3

>  <PUBCHEM_BOND_DEF_STEREO_COUNT>  (1) 
0

>  <PUBCHEM_BOND_UDEF_STEREO_COUNT>  (1) 
0

>  <PUBCHEM_ISOTOPIC_ATOM_COUNT>  (1) 
0

>  <PUBCHEM_COMPONENT_COUNT>  (1) 
1

>  <PUBCHEM_CACTVS_TAUTO_COUNT>  (1) 
1

>  <PUBCHEM_CONFORMER_ID>  (1) 
0000762800000004

>  <PUBCHEM_MMFF94_ENERGY>  (1) 
26.3385

>  <PUBCHEM_FEATURE_SELFOVERLAP>  (1) 
10.148

>  <PUBCHEM_SHAPE_FINGERPRINT>  (1) 
10130415 120 18340486656427630161
12326174 3 18200323232815666285
12423570 1 10969898485041197924
12553582 1 18120943793269702947
15001771 113 18337964371978483843
15502708 68 18266734877726648864
16945 1 17558281083050615005
17990270 104 18341333305639352487
20645476 183 17685500149257730852
20645477 70 18340764944670872615
20653091 64 18410863143977745664
20711985 344 17764313833904214726
21501502 16 18342174449715935405
21524375 3 17835519697388450868
21650355 55 17759506786648322210
22802520 49 18187074049609411685
23388829 49 18130209506668890956
23419403 2 17332464265321860433
23552423 10 18409736161823722297
257057 1 18119797024216638506
2748010 2 18127124178409987132
33824 294 18121784099906485739
528862 383 18339633555083279092
54338 74 18050565136417938681
568465 68 17615993417853140785
6338986 31 18195231235733142879
7364860 26 18342178890226277228
81228 2 17765429846748648377
81539 233 18191582154045474413

>  <PUBCHEM_SHAPE_MULTIPOLES>  (1) 
276.37
4.41
2.95
1.14
3.39
0.47
-0.01
0.95
-0.22
-2.6
0.72
0.07
0.27
0.1

>  <PUBCHEM_SHAPE_SELFOVERLAP>  (1) 
546.437

>  <PUBCHEM_SHAPE_VOLUME>  (1) 
164.3

>  <PUBCHEM_COORDINATE_TYPE>  (1) 
2
5
10

$$$$
