30241
     RDKit          3D

 15 16  0  0  1  0  0  0  0  0999 V2000
   -3.0589   -1.7793   -0.2372 O   0  0  0  0  0  0  0  0  0  0  0  0
    0.3941    2.4488    0.2719 N   0  0  0  0  0  0  0  0  0  0  0  0
    3.8553   -2.2859    0.6551 N   0  0  0  0  0  0  0  0  0  0  0  0
    2.4029   -0.5195   -0.4230 C   0  0  0  0  0  0  0  0  0  0  0  0
    1.3706    0.5025   -0.1581 C   0  0  0  0  0  0  0  0  0  0  0  0
   -0.0347    0.2896   -0.0896 C   0  0  0  0  0  0  0  0  0  0  0  0
   -0.6239    1.5264    0.1812 C   0  0  0  0  0  0  0  0  0  0  0  0
    2.8782   -1.2251    0.8825 C   0  0  0  0  0  0  0  0  0  0  0  0
    1.6030    1.8396    0.0682 C   0  0  0  0  0  0  0  0  0  0  0  0
    3.6065    0.0535   -1.2153 C   0  0  0  0  0  0  0  0  0  0  0  0
   -0.8646   -0.8402   -0.2324 C   0  0  0  0  0  0  0  0  0  0  0  0
   -2.0071    1.6907    0.3170 C   0  0  0  0  0  0  0  0  0  0  0  0
   -2.2499   -0.6910   -0.0993 C   0  0  0  0  0  0  0  0  0  0  0  0
   -2.8101    0.5559    0.1713 C   0  0  0  0  0  0  0  0  0  0  0  0
   -4.4612   -1.5660   -0.0923 C   0  0  0  0  0  0  0  0  0  0  0  0
  1 13  1  0
  1 15  1  0
  2  7  1  0
  2  9  1  0
  3  8  1  0
  4  5  1  0
  4  8  1  0
  4 10  1  0
  5  6  1  0
  5  9  2  0
  6  7  2  0
  6 11  1  0
  7 12  1  0
 11 13  2  0
 12 14  2  0
 13 14  1  0
M  END
>  <PUBCHEM_COMPOUND_CID>  (1) 
30241

>  <PUBCHEM_CONFORMER_RMSD>  (1) 
0.6

>  <PUBCHEM_CONFORMER_DIVERSEORDER>  (1) 
1
11
17
9
10
15
16
8
12
7
6
13
2
5
4
14
3

>  <PUBCHEM_MMFF94_PARTIAL_CHARGES>  (1) 
20
1 -0.36
11 -0.15
12 -0.15
13 0.08
14 -0.15
15 0.28
19 0.15
2 0.03
23 0.27
24 0.15
25 0.15
26 0.15
27 0.36
28 0.36
3 -0.99
4 0.18
5 -0.18
7 -0.15
8 0.27
9 -0.3

>  <PUBCHEM_EFFECTIVE_ROTOR_COUNT>  (1) 
3

>  <PUBCHEM_PHARMACOPHORE_FEATURES>  (1) 
8
1 1 acceptor
1 10 hydrophobe
1 2 cation
1 2 donor
1 3 cation
1 3 donor
5 2 5 6 7 9 rings
6 6 7 11 12 13 14 rings

>  <PUBCHEM_HEAVY_ATOM_COUNT>  (1) 
15

>  <PUBCHEM_ATOM_DEF_STEREO_COUNT>  (1) 
0

>  <PUBCHEM_ATOM_UDEF_STEREO_COUNT>  (1) 
1

>  <PUBCHEM_BOND_DEF_STEREO_COUNT>  (1) 
0

>  <PUBCHEM_BOND_UDEF_STEREO_COUNT>  (1) 
0

>  <PUBCHEM_ISOTOPIC_ATOM_COUNT>  (1) 
0

>  <PUBCHEM_COMPONENT_COUNT>  (1) 
1

>  <PUBCHEM_CACTVS_TAUTO_COUNT>  (1) 
1

>  <PUBCHEM_CONFORMER_ID>  (1) 
0000762100000001

>  <PUBCHEM_MMFF94_ENERGY>  (1) 
32.2333

>  <PUBCHEM_FEATURE_SELFOVERLAP>  (1) 
40.686

>  <PUBCHEM_SHAPE_FINGERPRINT>  (1) 
10062212 137 18189332377277423635
11543360 7 16443632418834226903
11578080 2 17823957010195199908
11769659 78 18408882931988801613
11806522 49 18339645667260578892
12032990 46 18271816738818118469
12553582 1 18341894129610693479
13140716 1 18343018852691085953
13538477 17 18264492780586820820
14252887 29 17988372558584149046
15375462 189 18335997410137890448
15442244 35 18412265034451929545
15536298 74 18129384958821238857
16945 1 18198347255870561421
17804303 29 18272934886219340385
19422 9 18261679181638931794
20281475 54 18409169878927985640
20559304 39 18340204205997562056
20645477 70 18198906010089262935
20871998 184 18059570239712685358
20871998 22 18412821412852089432
21296965 67 18341895207683868545
21501502 16 18412270557637635633
21501925 9 18341603862714075793
21650355 55 18123456199293691960
2255824 54 18191590958928826212
23184049 29 18413105060924139137
232386 152 18338516331448308822
2334 1 18341612680451038185
23402539 116 18056746647188704125
23463225 33 18410858741514883030
23552423 10 18263649626508351861
23559900 14 18057330479504655790
2748010 2 18342169003322805845
5493415 88 18412537700055038257
5902787 121 18413387622785876160
7364860 26 17986113134987651272
76465 3 18411973680961007599

>  <PUBCHEM_SHAPE_MULTIPOLES>  (1) 
292.86
6.76
2.38
0.82
1.08
0.3
0.05
-4.92
0.3
-0.07
-0.42
-0.61
-0.12
-0.76

>  <PUBCHEM_SHAPE_SELFOVERLAP>  (1) 
623.131

>  <PUBCHEM_SHAPE_VOLUME>  (1) 
165

>  <PUBCHEM_COORDINATE_TYPE>  (1) 
2
5
10

$$$$
