30243
     RDKit          3D

 36 38  0  0  1  0  0  0  0  0999 V2000
    4.1460    0.5628   -0.5595 P   0  0  0  0  0  0  0  0  0  0  0  0
    2.7948    3.1590   -0.2579 P   0  0  0  0  0  0  0  0  0  0  0  0
    0.7832   -1.7723    1.1287 O   0  0  0  0  0  0  0  0  0  0  0  0
    0.0474   -5.2237    0.4452 O   0  0  0  0  0  0  0  0  0  0  0  0
    1.8951   -4.3804    2.2509 O   0  0  0  0  0  0  0  0  0  0  0  0
    2.9115   -0.2750    0.0670 O   0  0  0  0  0  0  0  0  0  0  0  0
    3.9509    2.0623    0.0127 O   0  0  0  0  0  0  0  0  0  0  0  0
    5.4452    0.0266    0.2418 O   0  0  0  0  0  0  0  0  0  0  0  0
    1.4927    2.4776    0.4102 O   0  0  0  0  0  0  0  0  0  0  0  0
    4.2646    0.4849   -2.0541 O   0  0  0  0  0  0  0  0  0  0  0  0
   -0.5685    2.3906    2.5445 O   0  0  0  0  0  0  0  0  0  0  0  0
   -2.5699    2.5559   -0.4946 O   0  0  0  0  0  0  0  0  0  0  0  0
    3.1793    4.3524    0.7643 O   0  0  0  0  0  0  0  0  0  0  0  0
   -4.5377    2.9654    1.4126 O   0  0  0  0  0  0  0  0  0  0  0  0
    2.6520    3.5750   -1.6928 O   0  0  0  0  0  0  0  0  0  0  0  0
   -4.3918    0.2920    1.5165 O   0  0  0  0  0  0  0  0  0  0  0  0
   -1.2507   -2.3459    0.0496 N   0  0  0  0  0  0  0  0  0  0  0  0
   -3.3155   -2.1379   -0.7648 N   0  0  0  0  0  0  0  0  0  0  0  0
   -0.0974   -0.6983   -1.3127 N   0  0  0  0  0  0  0  0  0  0  0  0
   -1.6266    0.3874   -2.8745 N   0  0  0  0  0  0  0  0  0  0  0  0
   -3.9539   -0.1595   -2.9836 N   0  0  0  0  0  0  0  0  0  0  0  0
    0.6497   -3.9624    0.2376 C   0  0  0  0  0  0  0  0  0  0  0  0
    1.9847   -3.8188    0.9414 C   0  0  0  0  0  0  0  0  0  0  0  0
   -0.1518   -2.8388    0.8769 C   0  0  0  0  0  0  0  0  0  0  0  0
    2.1264   -2.3049    1.0641 C   0  0  0  0  0  0  0  0  0  0  0  0
    2.8351   -1.6766   -0.1277 C   0  0  0  0  0  0  0  0  0  0  0  0
   -1.1802   -1.3855   -0.9189 C   0  0  0  0  0  0  0  0  0  0  0  0
   -2.5529   -2.7674    0.1045 C   0  0  0  0  0  0  0  0  0  0  0  0
   -2.4705   -1.2711   -1.4112 C   0  0  0  0  0  0  0  0  0  0  0  0
   -2.6764   -0.3426   -2.4266 C   0  0  0  0  0  0  0  0  0  0  0  0
   -0.4201    0.1675   -2.2981 C   0  0  0  0  0  0  0  0  0  0  0  0
   -0.7976    2.3916    1.1360 C   0  0  0  0  0  0  0  0  0  0  0  0
   -2.2085    2.9219    0.8379 C   0  0  0  0  0  0  0  0  0  0  0  0
    0.2886    3.2359    0.4673 C   0  0  0  0  0  0  0  0  0  0  0  0
   -3.2849    2.4318    1.8167 C   0  0  0  0  0  0  0  0  0  0  0  0
   -3.3921    0.9203    1.8507 C   0  0  0  0  0  0  0  0  0  0  0  0
  1  6  1  0
  1  7  1  0
  1  8  1  0
  1 10  2  0
  2  7  1  0
  2  9  1  0
  2 13  1  0
  2 15  2  0
  3 24  1  0
  3 25  1  0
  4 22  1  0
  5 23  1  0
  6 26  1  0
  9 34  1  0
 11 32  1  0
 12 33  1  0
 14 35  1  0
 16 36  2  0
 17 24  1  0
 17 27  1  0
 17 28  1  0
 18 28  2  0
 18 29  1  0
 19 27  1  0
 19 31  2  0
 20 30  2  0
 20 31  1  0
 21 30  1  0
 22 23  1  0
 22 24  1  0
 23 25  1  0
 25 26  1  0
 27 29  2  0
 29 30  1  0
 32 33  1  0
 32 34  1  0
 33 35  1  0
 35 36  1  0
M  END
>  <PUBCHEM_COMPOUND_CID>  (1) 
30243

>  <PUBCHEM_CONFORMER_RMSD>  (1) 
1.6

>  <PUBCHEM_CONFORMER_DIVERSEORDER>  (1) 
1
108
85
52
12
110
25
87
15
92
88
28
9
79
118
56
60
78
3
115
80
40
24
58
102
61
100
65
91
13
107
116
17
112
29
81
109
35
82
59
36
53
99
94
111
44
10
67
30
34
105
57
86
26
62
2
38
18
84
47
72
64
14
96
71
77
76
69
89
32
4
114
73
55
27
74
68
5
51
104
11
66
93
19
48
113
83
7
6
45
98
70
41
49
95
21
8
90
97
37
106
117
42
54
23
33
103
16
46
20
75
63
31
50
39
22
101
43

>  <PUBCHEM_MMFF94_PARTIAL_CHARGES>  (1) 
48
1 1.51
10 -0.7
11 -0.68
12 -0.68
13 -0.77
14 -0.68
15 -0.7
16 -0.57
17 0.05
18 -0.57
19 -0.57
2 1.51
20 -0.62
21 -0.9
22 0.28
23 0.28
24 0.54
25 0.28
26 0.28
27 0.11
28 0.04
29 0.23
3 -0.56
30 0.41
31 0.47
32 0.28
33 0.28
34 0.28
35 0.34
36 0.45
4 -0.68
43 0.4
44 0.4
45 0.15
48 0.15
5 -0.68
52 0.4
53 0.4
54 0.5
55 0.4
56 0.4
57 0.06
58 0.4
59 0.5
6 -0.55
7 -0.54
8 -0.77
9 -0.55

>  <PUBCHEM_EFFECTIVE_ROTOR_COUNT>  (1) 
13

>  <PUBCHEM_PHARMACOPHORE_FEATURES>  (1) 
24
1 10 acceptor
1 11 acceptor
1 11 donor
1 12 acceptor
1 12 donor
1 13 acceptor
1 14 acceptor
1 14 donor
1 15 acceptor
1 16 acceptor
1 21 cation
1 21 donor
1 3 acceptor
1 4 acceptor
1 4 donor
1 5 acceptor
1 5 donor
1 8 acceptor
3 17 18 28 cation
3 17 19 27 cation
3 19 20 31 cation
5 17 18 27 28 29 rings
5 3 22 23 24 25 rings
6 19 20 27 29 30 31 rings

>  <PUBCHEM_HEAVY_ATOM_COUNT>  (1) 
36

>  <PUBCHEM_ATOM_DEF_STEREO_COUNT>  (1) 
7

>  <PUBCHEM_ATOM_UDEF_STEREO_COUNT>  (1) 
0

>  <PUBCHEM_BOND_DEF_STEREO_COUNT>  (1) 
0

>  <PUBCHEM_BOND_UDEF_STEREO_COUNT>  (1) 
0

>  <PUBCHEM_ISOTOPIC_ATOM_COUNT>  (1) 
0

>  <PUBCHEM_COMPONENT_COUNT>  (1) 
1

>  <PUBCHEM_CACTVS_TAUTO_COUNT>  (1) 
24

>  <PUBCHEM_CONFORMER_ID>  (1) 
0000762300000001

>  <PUBCHEM_MMFF94_ENERGY>  (1) 
35.8659

>  <PUBCHEM_FEATURE_SELFOVERLAP>  (1) 
122.47

>  <PUBCHEM_SHAPE_FINGERPRINT>  (1) 
10721379 63 16618074405626485567
1100329 8 18341621399546093624
11578080 2 16880492371647207725
12156800 1 16826510915925105041
12422481 6 17270923659555268499
12788726 201 18055082218206536600
13402501 40 17257084295506070952
13583140 156 18263088712754693661
14117953 113 17116073591259616125
15297060 5 16701458936061049633
19930381 70 15964561205044871938
20600515 1 13541644079181086626
20764821 26 18193540384417839890
23558518 356 18269843180082390060
35225 105 17686668801047056068
392239 28 18194141791851724179
469060 322 17676498262766173839
50150288 127 17413908574968273736
9896288 288 17334221127059920888

>  <PUBCHEM_SHAPE_MULTIPOLES>  (1) 
641.49
7.66
6.68
2.47
1.89
1.97
1.2
-4.23
0.09
3.05
-3.17
-2.19
-0.24
-3.12

>  <PUBCHEM_SHAPE_SELFOVERLAP>  (1) 
1316.936

>  <PUBCHEM_SHAPE_VOLUME>  (1) 
370.9

>  <PUBCHEM_COORDINATE_TYPE>  (1) 
2
5
10

$$$$
