30252
     RDKit          3D

 17 18  0  0  1  0  0  0  0  0999 V2000
   -1.4279   -2.9663   -1.4815 Cl  0  0  0  0  0  0  0  0  0  0  0  0
   -2.8678    0.2265    0.5385 N   0  0  0  0  0  0  0  0  0  0  0  0
   -1.5710   -1.7704   -0.1398 C   0  0  0  0  0  0  0  0  0  0  0  0
   -2.6626   -0.7492   -0.5294 C   0  0  0  0  0  0  0  0  0  0  0  0
   -3.8892    1.1933    0.1653 C   0  0  0  0  0  0  0  0  0  0  0  0
   -0.2275   -1.2005    0.1691 C   0  0  0  0  0  0  0  0  0  0  0  0
    0.4344   -0.4218   -0.7804 C   0  0  0  0  0  0  0  0  0  0  0  0
    1.6999    0.1217   -0.5053 C   0  0  0  0  0  0  0  0  0  0  0  0
    2.3025   -0.1284    0.7506 C   0  0  0  0  0  0  0  0  0  0  0  0
    0.3651   -1.4468    1.4041 C   0  0  0  0  0  0  0  0  0  0  0  0
   -4.1189    2.1611    1.3217 C   0  0  0  0  0  0  0  0  0  0  0  0
   -3.4746    1.9391   -1.0998 C   0  0  0  0  0  0  0  0  0  0  0  0
    1.6219   -0.9148    1.6943 C   0  0  0  0  0  0  0  0  0  0  0  0
    2.3805    0.9078   -1.4493 C   0  0  0  0  0  0  0  0  0  0  0  0
    3.5681    0.4152    1.0256 C   0  0  0  0  0  0  0  0  0  0  0  0
    3.6373    1.4395   -1.1593 C   0  0  0  0  0  0  0  0  0  0  0  0
    4.2299    1.1939    0.0757 C   0  0  0  0  0  0  0  0  0  0  0  0
  1  3  1  0
  2  4  1  0
  2  5  1  0
  3  4  1  0
  3  6  1  0
  5 11  1  0
  5 12  1  0
  6  7  2  0
  6 10  1  0
  7  8  1  0
  8  9  2  0
  8 14  1  0
  9 13  1  0
  9 15  1  0
 10 13  2  0
 14 16  2  0
 15 17  2  0
 16 17  1  0
M  END
>  <PUBCHEM_COMPOUND_CID>  (1) 
30252

>  <PUBCHEM_CONFORMER_RMSD>  (1) 
0.6

>  <PUBCHEM_CONFORMER_DIVERSEORDER>  (1) 
1
31
51
22
25
7
39
15
52
48
3
42
14
50
11
19
47
5
46
32
26
30
37
24
6
18
10
8
2
45
36
17
13
35
12
29
44
9
49
16
27
28
38
34
23
40
4
41
21
43
33
20

>  <PUBCHEM_MMFF94_PARTIAL_CHARGES>  (1) 
21
1 -0.29
10 -0.15
13 -0.15
14 -0.15
15 -0.15
16 -0.15
17 -0.15
2 -0.9
22 0.36
23 0.15
24 0.15
3 0.43
31 0.15
32 0.15
33 0.15
34 0.15
35 0.15
4 0.27
5 0.27
6 -0.14
7 -0.15

>  <PUBCHEM_EFFECTIVE_ROTOR_COUNT>  (1) 
4

>  <PUBCHEM_PHARMACOPHORE_FEATURES>  (1) 
5
1 2 cation
1 2 donor
3 5 11 12 hydrophobe
6 6 7 8 9 10 13 rings
6 8 9 14 15 16 17 rings

>  <PUBCHEM_HEAVY_ATOM_COUNT>  (1) 
17

>  <PUBCHEM_ATOM_DEF_STEREO_COUNT>  (1) 
0

>  <PUBCHEM_ATOM_UDEF_STEREO_COUNT>  (1) 
1

>  <PUBCHEM_BOND_DEF_STEREO_COUNT>  (1) 
0

>  <PUBCHEM_BOND_UDEF_STEREO_COUNT>  (1) 
0

>  <PUBCHEM_ISOTOPIC_ATOM_COUNT>  (1) 
0

>  <PUBCHEM_COMPONENT_COUNT>  (1) 
1

>  <PUBCHEM_CACTVS_TAUTO_COUNT>  (1) 
1

>  <PUBCHEM_CONFORMER_ID>  (1) 
0000762C00000001

>  <PUBCHEM_MMFF94_ENERGY>  (1) 
36.0554

>  <PUBCHEM_FEATURE_SELFOVERLAP>  (1) 
25.398

>  <PUBCHEM_SHAPE_FINGERPRINT>  (1) 
10382601 240 17603580790732499938
10465860 228 18186518765850619794
10498660 4 17916866812236451713
10646746 165 18271523203926889320
11471102 22 16081080472329455898
11640471 11 18335134284951735209
11725454 13 15838976803786565130
12390115 104 16374692043910238276
12491281 212 18188771776808250146
12500047 106 18059855099414087350
12633257 1 14996292413514845877
12788726 201 18193825166900176939
12892183 10 16588030078350971505
14123260 362 18409727378673474925
14251764 38 17536579717791440213
15209294 21 18188197797616286952
15534591 1 18334579087351343259
15775835 57 18334858311844182225
1741750 31 18343022190091359331
1798214 55 18270404884690305449
18785283 64 18124608478906023231
19107657 9 18271528589910843545
201361 129 18040711459449623610
20157964 124 17605258603033397493
20261772 1 18040716948186141580
20645477 56 18058739124860030935
20739085 24 16950841406609963332
21503847 285 17894912876201058288
21524375 3 18409446973360015635
21713013 43 13973380467070346613
21756936 100 17678760022936241804
22926399 65 18202283619166889672
23557571 272 17631166570609950746
23559900 14 17775290469892274182
3268164 11 17987788735205610271
38570 142 17388573576986462780
474 4 17749105629655329944
633830 44 17894916278115993222
6438718 38 18338524152219699759
6442390 28 17988939855546004027
7615 1 18116691075761984050

>  <PUBCHEM_SHAPE_MULTIPOLES>  (1) 
346.74
7.91
2.53
1.6
1.18
0.83
0.11
-6.69
0.27
2.58
-0.61
-0.32
0.1
-1.42

>  <PUBCHEM_SHAPE_SELFOVERLAP>  (1) 
718.448

>  <PUBCHEM_SHAPE_VOLUME>  (1) 
200.5

>  <PUBCHEM_COORDINATE_TYPE>  (1) 
2
5
10

$$$$
