30254
     RDKit          3D

 20 21  0  0  0  0  0  0  0  0999 V2000
   -4.0485    0.5108   -1.3477 O   0  0  0  0  0  0  0  0  0  0  0  0
    0.4087   -1.3900    1.0693 O   0  0  0  0  0  0  0  0  0  0  0  0
    0.8141    1.1361    1.8320 O   0  0  0  0  0  0  0  0  0  0  0  0
   -2.2967   -0.9251    0.3758 N   0  0  0  0  0  0  0  0  0  0  0  0
   -2.2619   -1.1087   -1.0817 C   0  0  0  0  0  0  0  0  0  0  0  0
   -3.6490   -0.5396    0.8027 C   0  0  0  0  0  0  0  0  0  0  0  0
   -1.8625   -2.1401    1.0623 C   0  0  0  0  0  0  0  0  0  0  0  0
   -2.7299    0.1674   -1.7753 C   0  0  0  0  0  0  0  0  0  0  0  0
   -4.0852    0.7226    0.0641 C   0  0  0  0  0  0  0  0  0  0  0  0
   -0.4260   -2.4788    0.6972 C   0  0  0  0  0  0  0  0  0  0  0  0
    1.5463   -1.2023    0.3285 C   0  0  0  0  0  0  0  0  0  0  0  0
    2.0808    0.0711    0.1613 C   0  0  0  0  0  0  0  0  0  0  0  0
    1.5710    2.6123    0.0833 C   0  0  0  0  0  0  0  0  0  0  0  0
    1.4513    1.2374    0.7648 C   0  0  0  0  0  0  0  0  0  0  0  0
    0.3820    3.5324    0.3600 C   0  0  0  0  0  0  0  0  0  0  0  0
    2.1589   -2.3079   -0.2530 C   0  0  0  0  0  0  0  0  0  0  0  0
    3.2404    0.2408   -0.5952 C   0  0  0  0  0  0  0  0  0  0  0  0
    3.3185   -2.1382   -1.0094 C   0  0  0  0  0  0  0  0  0  0  0  0
    3.8591   -0.8640   -1.1806 C   0  0  0  0  0  0  0  0  0  0  0  0
    0.5285    4.8638   -0.3585 C   0  0  0  0  0  0  0  0  0  0  0  0
  1  8  1  0
  1  9  1  0
  2 10  1  0
  2 11  1  0
  3 14  2  0
  4  5  1  0
  4  6  1  0
  4  7  1  0
  5  8  1  0
  6  9  1  0
  7 10  1  0
 11 12  2  0
 11 16  1  0
 12 14  1  0
 12 17  1  0
 13 14  1  0
 13 15  1  0
 15 20  1  0
 16 18  2  0
 17 19  2  0
 18 19  1  0
M  END
>  <PUBCHEM_COMPOUND_CID>  (1) 
30254

>  <PUBCHEM_CONFORMER_RMSD>  (1) 
0.8

>  <PUBCHEM_CONFORMER_DIVERSEORDER>  (1) 
3
282
246
263
194
26
388
114
229
331
138
249
361
152
245
4
288
297
104
159
56
171
373
73
253
120
107
206
211
173
356
352
51
76
135
283
49
231
299
389
319
362
80
208
225
185
252
71
235
109
337
386
366
255
203
48
381
46
234
257
192
219
396
37
397
17
273
359
333
239
271
70
392
199
214
183
256
103
12
75
191
382
85
332
258
281
306
181
375
395
63
346
121
165
150
193
326
272
176
202
335
213
101
380
42
308
262
132
291
23
285
116
65
341
144
384
125
136
270
196
13
233
322
226
221
189
264
228
197
127
179
11
295
39
344
318
387
390
124
360
126
88
342
338
113
32
175
243
232
371
374
259
215
9
60
118
53
143
160
147
5
378
188
301
220
68
237
169
41
91
355
167
77
260
163
269
302
311
96
2
292
36
212
324
81
182
287
21
87
55
304
44
34
284
157
19
106
238
155
224
8
340
172
141
307
84
209
357
74
376
195
267
370
123
364
140
146
343
99
184
158
278
201
40
204
328
43
312
379
369
57
82
205
100
47
293
139
98
350
33
218
349
310
313
6
137
207
265
367
156
236
242
298
93
78
133
134
61
377
59
300
187
327
268
111
67
275
129
309
94
115
385
66
72
315
223
95
29
323
372
30
130
303
383
16
153
161
22
316
35
347
86
251
393
177
170
69
276
102
354
266
18
314
391
174
151
52
351
348
290
365
108
305
45
339
117
128
131
230
248
296
254
166
210
58
31
25
105
227
334
198
10
358
280
38
190
14
28
1
89
149
97
200
162
289
54
119
112
325
92
20
247
222
363
216
110
330
294
15
261
64
317
345
394
274
241
217
240
321
329
62
90
320
50
353
178
244
250
145
27
168
279
180
277
336
286
368
148
142
7
154
122
186
79
164
83
24

>  <PUBCHEM_MMFF94_PARTIAL_CHARGES>  (1) 
22
1 -0.56
10 0.28
11 0.08
12 0.09
13 0.06
14 0.42
16 -0.15
17 -0.15
18 -0.15
19 -0.15
2 -0.36
3 -0.57
37 0.15
38 0.15
39 0.15
4 -0.81
40 0.15
5 0.27
6 0.27
7 0.27
8 0.28
9 0.28

>  <PUBCHEM_EFFECTIVE_ROTOR_COUNT>  (1) 
8.2

>  <PUBCHEM_PHARMACOPHORE_FEATURES>  (1) 
7
1 1 acceptor
1 2 acceptor
1 20 hydrophobe
1 3 acceptor
1 4 cation
6 1 4 5 6 8 9 rings
6 11 12 16 17 18 19 rings

>  <PUBCHEM_HEAVY_ATOM_COUNT>  (1) 
20

>  <PUBCHEM_ATOM_DEF_STEREO_COUNT>  (1) 
0

>  <PUBCHEM_ATOM_UDEF_STEREO_COUNT>  (1) 
0

>  <PUBCHEM_BOND_DEF_STEREO_COUNT>  (1) 
0

>  <PUBCHEM_BOND_UDEF_STEREO_COUNT>  (1) 
0

>  <PUBCHEM_ISOTOPIC_ATOM_COUNT>  (1) 
0

>  <PUBCHEM_COMPONENT_COUNT>  (1) 
1

>  <PUBCHEM_CACTVS_TAUTO_COUNT>  (1) 
2

>  <PUBCHEM_CONFORMER_ID>  (1) 
0000762E00000003

>  <PUBCHEM_MMFF94_ENERGY>  (1) 
48.8951

>  <PUBCHEM_FEATURE_SELFOVERLAP>  (1) 
35.529

>  <PUBCHEM_SHAPE_FINGERPRINT>  (1) 
10165383 225 16972827566845637665
104564 63 17980481157045720615
10498660 4 17458619004494503863
10764073 3 17768769210176662192
11221954 11 17829881384523538489
116883 192 18053956056496495606
12156800 1 17334824839804585741
12553582 1 18339646641959601272
12788726 201 18193841436293452242
128993 33 18115024246314760029
13134695 92 17704356580420912816
13642711 20 18124617511469972820
14250199 8 18268987768720405767
14386348 128 18114178648885228695
14713325 29 16378920825459272836
15210252 30 18041843904729000236
17138139 8 16972475216477604757
17357779 13 18201446835463644378
18186145 218 18411976958131843787
18219364 16 18261117378668684251
18785283 64 18048896369761382792
18981168 100 18118958328862569591
19930381 70 17979076316852346105
20233049 118 18187078443091773810
21285901 2 17700986435131302974
21524375 3 17257082100730609232
221357 26 18410573942818963439
23114952 82 18049457120918349392
238 59 17908399683105827863
25 1 18335704892800891731
3524813 1 18040433274333615175
3797600 57 13407083634096409761
57527573 199 17036350356677016444
6287921 2 17757568721147118909
6438718 38 17628645145797874401
7164475 11 17907862804084330614
7226269 152 18261385621193982266
81228 2 18198070179393750720
9862522 239 17258482869965413384

>  <PUBCHEM_SHAPE_MULTIPOLES>  (1) 
389
6.7
4.44
1.39
3.93
6.64
0.18
-2.27
2.49
-2.07
-0.26
0.55
-0.19
1.04

>  <PUBCHEM_SHAPE_SELFOVERLAP>  (1) 
795.543

>  <PUBCHEM_SHAPE_VOLUME>  (1) 
225.1

>  <PUBCHEM_COORDINATE_TYPE>  (1) 
2
5
10

$$$$
