30258
     RDKit          3D

 19 20  0  0  0  0  0  0  0  0999 V2000
   -4.7360   -1.8397    0.7101 O   0  0  0  0  0  0  0  0  0  0  0  0
   -0.6616    1.3138   -0.9559 O   0  0  0  0  0  0  0  0  0  0  0  0
    3.4202    1.3641    1.5009 O   0  0  0  0  0  0  0  0  0  0  0  0
    5.3428   -0.1977    0.4712 O   0  0  0  0  0  0  0  0  0  0  0  0
   -3.2222    0.4105   -0.1537 N   0  0  0  0  0  0  0  0  0  0  0  0
   -2.9066   -0.2941    1.0966 C   0  0  0  0  0  0  0  0  0  0  0  0
   -4.6559    0.2884   -0.4524 C   0  0  0  0  0  0  0  0  0  0  0  0
   -2.8269    1.8150   -0.0717 C   0  0  0  0  0  0  0  0  0  0  0  0
   -3.3386   -1.7540    0.9913 C   0  0  0  0  0  0  0  0  0  0  0  0
   -5.0474   -1.1850   -0.5203 C   0  0  0  0  0  0  0  0  0  0  0  0
   -1.3258    1.9391    0.1344 C   0  0  0  0  0  0  0  0  0  0  0  0
    0.5740    0.7784   -0.7018 C   0  0  0  0  0  0  0  0  0  0  0  0
    1.3805    1.3444    0.2792 C   0  0  0  0  0  0  0  0  0  0  0  0
    1.0078   -0.3260   -1.4263 C   0  0  0  0  0  0  0  0  0  0  0  0
    3.0796   -0.3098   -0.1836 C   0  0  0  0  0  0  0  0  0  0  0  0
    2.6376    0.7985    0.5390 C   0  0  0  0  0  0  0  0  0  0  0  0
    2.2647   -0.8719   -1.1664 C   0  0  0  0  0  0  0  0  0  0  0  0
    4.3900   -0.8927    0.0684 C   0  0  0  0  0  0  0  0  0  0  0  0
    4.6237   -2.3813   -0.1590 C   0  0  0  0  0  0  0  0  0  0  0  0
  1  9  1  0
  1 10  1  0
  2 11  1  0
  2 12  1  0
  3 16  1  0
  4 18  2  0
  5  6  1  0
  5  7  1  0
  5  8  1  0
  6  9  1  0
  7 10  1  0
  8 11  1  0
 12 13  2  0
 12 14  1  0
 13 16  1  0
 14 17  2  0
 15 16  2  0
 15 17  1  0
 15 18  1  0
 18 19  1  0
M  END
>  <PUBCHEM_COMPOUND_CID>  (1) 
30258

>  <PUBCHEM_CONFORMER_RMSD>  (1) 
0.8

>  <PUBCHEM_CONFORMER_DIVERSEORDER>  (1) 
2
12
43
20
42
83
16
33
78
25
5
72
32
86
56
1
73
30
11
61
49
89
26
14
41
18
48
81
9
77
70
28
50
38
91
46
71
69
47
45
22
58
88
10
8
23
24
85
29
44
82
55
13
79
40
62
84
51
37
21
90
54
67
19
4
59
27
60
80
15
65
66
87
35
53
76
3
63
64
75
36
74
68
39
7
34
52
57
6
31
17

>  <PUBCHEM_MMFF94_PARTIAL_CHARGES>  (1) 
23
1 -0.56
10 0.28
11 0.28
12 0.08
13 -0.15
14 -0.15
15 0.09
16 0.08
17 -0.15
18 0.42
19 0.06
2 -0.36
3 -0.53
32 0.15
33 0.15
34 0.15
38 0.45
4 -0.57
5 -0.81
6 0.27
7 0.27
8 0.27
9 0.28

>  <PUBCHEM_EFFECTIVE_ROTOR_COUNT>  (1) 
6.2

>  <PUBCHEM_PHARMACOPHORE_FEATURES>  (1) 
7
1 1 acceptor
1 2 acceptor
1 3 donor
1 4 acceptor
1 5 cation
6 1 5 6 7 9 10 rings
6 12 13 14 15 16 17 rings

>  <PUBCHEM_HEAVY_ATOM_COUNT>  (1) 
19

>  <PUBCHEM_ATOM_DEF_STEREO_COUNT>  (1) 
0

>  <PUBCHEM_ATOM_UDEF_STEREO_COUNT>  (1) 
0

>  <PUBCHEM_BOND_DEF_STEREO_COUNT>  (1) 
0

>  <PUBCHEM_BOND_UDEF_STEREO_COUNT>  (1) 
0

>  <PUBCHEM_ISOTOPIC_ATOM_COUNT>  (1) 
0

>  <PUBCHEM_COMPONENT_COUNT>  (1) 
1

>  <PUBCHEM_CACTVS_TAUTO_COUNT>  (1) 
9

>  <PUBCHEM_CONFORMER_ID>  (1) 
0000763200000002

>  <PUBCHEM_MMFF94_ENERGY>  (1) 
53.5299

>  <PUBCHEM_FEATURE_SELFOVERLAP>  (1) 
35.522

>  <PUBCHEM_SHAPE_FINGERPRINT>  (1) 
10 15 18271509997546026496
10366900 7 18272660051309503016
11045977 3 18342172233164241772
11046707 91 18113902649875587557
11796584 16 18040992912635233475
12363563 72 18335150825224343161
12633257 1 16988567943670794643
13544653 18 18342178877536768389
14252887 29 17346322553402450700
14341114 328 15769782402783807307
14386348 63 18410294709498663485
14790565 3 17475229575742910580
15163728 17 11383246696349430714
15352361 1 18408887338878591331
15880784 105 17775280608104218915
17834072 14 18409728504266168709
17834072 32 10087640386205002891
17870717 6 17822010896156859335
193927 3 18040727990842023435
200 152 17846492621918527445
20261772 1 17917989507501176846
20403669 9 18411425016216388903
20645477 56 9727630622506000885
21637258 2 17531800243987547658
21673915 165 18335421236123115562
21682296 61 17416131577474333574
21864079 5 10447661140920227955
23402539 116 18408881815830327717
23402655 69 12179840602270832069
23403322 49 18334579049186994603
23559900 14 18408035221614949257
24859131 72 18413392020974870735
26918003 58 18273213076031639001
2916195 48 10159689192454792382
3004659 81 17603584162265950877
3009799 131 12757147987945733302
316301 35 18335698313311849674
339767 52 17748821929769820986
351380 180 18342174462241822831
38570 142 15337706296510148536
465052 167 18130790036567156662
5104073 3 18202281360077499928
5161694 15 11602815800576465865
5283173 99 18336816491078711661
59682541 52 13696134246207584867
59755656 520 18048028572400844213
602551 16 18186802461399242946
7471813 234 16443349762831148988
7495541 125 18412824681923685712
960060 61 14851602176630936474
9709674 26 18335702801557467769

>  <PUBCHEM_SHAPE_MULTIPOLES>  (1) 
362.55
11.66
2.14
1.15
1.28
0.31
-0.01
6.32
1.51
0.41
0.28
-0.09
0.05
1.1

>  <PUBCHEM_SHAPE_SELFOVERLAP>  (1) 
752.715

>  <PUBCHEM_SHAPE_VOLUME>  (1) 
207.8

>  <PUBCHEM_COORDINATE_TYPE>  (1) 
2
5
10

$$$$
