30262
     RDKit          3D

 20 21  0  0  0  0  0  0  0  0999 V2000
    0.4191   -1.5331    0.3413 O   0  0  0  0  0  0  0  0  0  0  0  0
    0.2066    0.9487    1.3019 O   0  0  0  0  0  0  0  0  0  0  0  0
   -2.3765   -1.2169    0.0185 N   0  0  0  0  0  0  0  0  0  0  0  0
   -3.7231   -1.5318    0.5159 C   0  0  0  0  0  0  0  0  0  0  0  0
   -2.4333   -0.2752   -1.1084 C   0  0  0  0  0  0  0  0  0  0  0  0
   -4.4517   -0.2677    0.9749 C   0  0  0  0  0  0  0  0  0  0  0  0
   -3.1198    1.0299   -0.7028 C   0  0  0  0  0  0  0  0  0  0  0  0
   -4.5122    0.7722   -0.1382 C   0  0  0  0  0  0  0  0  0  0  0  0
   -1.6761   -2.4401   -0.3720 C   0  0  0  0  0  0  0  0  0  0  0  0
   -0.2399   -2.1340   -0.7657 C   0  0  0  0  0  0  0  0  0  0  0  0
    1.7388   -1.2048    0.1710 C   0  0  0  0  0  0  0  0  0  0  0  0
    2.1634    0.1135    0.3002 C   0  0  0  0  0  0  0  0  0  0  0  0
    1.4842    2.6086    0.1090 C   0  0  0  0  0  0  0  0  0  0  0  0
    1.2239    1.1798    0.6184 C   0  0  0  0  0  0  0  0  0  0  0  0
    2.6477   -2.2137   -0.1322 C   0  0  0  0  0  0  0  0  0  0  0  0
    0.2050    3.4144   -0.1181 C   0  0  0  0  0  0  0  0  0  0  0  0
    3.5113    0.4265    0.1246 C   0  0  0  0  0  0  0  0  0  0  0  0
    3.9956   -1.9007   -0.3077 C   0  0  0  0  0  0  0  0  0  0  0  0
    4.4273   -0.5807   -0.1794 C   0  0  0  0  0  0  0  0  0  0  0  0
    0.5096    4.8050   -0.6510 C   0  0  0  0  0  0  0  0  0  0  0  0
  1 10  1  0
  1 11  1  0
  2 14  2  0
  3  4  1  0
  3  5  1  0
  3  9  1  0
  4  6  1  0
  5  7  1  0
  6  8  1  0
  7  8  1  0
  9 10  1  0
 11 12  2  0
 11 15  1  0
 12 14  1  0
 12 17  1  0
 13 14  1  0
 13 16  1  0
 15 18  2  0
 16 20  1  0
 17 19  2  0
 18 19  1  0
M  END
>  <PUBCHEM_COMPOUND_CID>  (1) 
30262

>  <PUBCHEM_CONFORMER_RMSD>  (1) 
0.8

>  <PUBCHEM_CONFORMER_DIVERSEORDER>  (1) 
3
218
4
376
177
214
227
438
244
413
46
266
319
424
14
380
229
16
334
344
421
342
341
32
394
226
448
356
292
5
257
387
197
31
400
235
72
253
362
141
71
269
315
157
351
303
200
295
136
406
114
304
369
391
256
182
30
121
96
232
393
154
364
55
370
450
395
138
330
445
130
382
359
99
331
23
211
375
282
275
162
196
91
425
414
350
12
353
385
243
263
262
150
355
430
224
428
367
56
222
252
20
296
431
119
13
144
357
288
156
248
426
190
432
183
368
93
449
53
10
326
89
340
436
151
306
203
343
128
280
349
427
403
90
317
170
75
2
398
352
378
206
277
325
108
361
337
239
384
273
140
416
286
279
60
289
443
381
77
11
228
271
201
329
336
231
7
139
83
153
106
79
298
272
250
164
447
47
6
80
92
187
223
8
260
246
386
94
410
67
308
254
285
61
251
274
220
242
166
247
59
163
103
339
66
415
85
27
372
360
283
33
41
267
102
40
124
180
171
44
73
234
215
374
392
142
192
161
440
418
278
78
314
221
291
213
397
442
36
338
318
377
17
168
354
87
451
146
423
217
42
321
70
293
284
402
48
297
300
37
434
167
143
159
348
26
401
135
373
347
316
109
24
51
160
181
111
446
405
191
84
125
281
112
149
148
290
322
145
174
62
276
404
437
345
301
57
236
233
312
294
287
18
328
264
173
15
320
204
127
25
35
422
184
333
115
155
237
407
98
169
249
131
65
82
313
189
444
383
179
240
265
95
50
216
389
188
209
176
137
429
129
86
335
68
185
409
147
420
408
49
76
178
441
332
158
132
255
28
113
208
346
1
22
310
259
323
19
305
186
52
120
268
54
38
417
199
107
105
97
210
371
88
100
69
411
311
324
9
126
29
101
452
219
390
43
116
258
327
261
21
396
299
198
122
118
133
212
110
63
172
117
363
270
194
175
45
358
439
104
241
64
34
238
81
433
435
123
202
152
366
225
195
399
205
74
207
134
302
245
230
388
193
309
412
39
419
165
365
307
58
379

>  <PUBCHEM_MMFF94_PARTIAL_CHARGES>  (1) 
19
1 -0.36
10 0.28
11 0.08
12 0.09
13 0.06
14 0.42
15 -0.15
17 -0.15
18 -0.15
19 -0.15
2 -0.57
3 -0.81
37 0.15
4 0.27
40 0.15
41 0.15
42 0.15
5 0.27
9 0.27

>  <PUBCHEM_EFFECTIVE_ROTOR_COUNT>  (1) 
8.2

>  <PUBCHEM_PHARMACOPHORE_FEATURES>  (1) 
6
1 1 acceptor
1 2 acceptor
1 20 hydrophobe
1 3 cation
6 11 12 15 17 18 19 rings
6 3 4 5 6 7 8 rings

>  <PUBCHEM_HEAVY_ATOM_COUNT>  (1) 
20

>  <PUBCHEM_ATOM_DEF_STEREO_COUNT>  (1) 
0

>  <PUBCHEM_ATOM_UDEF_STEREO_COUNT>  (1) 
0

>  <PUBCHEM_BOND_DEF_STEREO_COUNT>  (1) 
0

>  <PUBCHEM_BOND_UDEF_STEREO_COUNT>  (1) 
0

>  <PUBCHEM_ISOTOPIC_ATOM_COUNT>  (1) 
0

>  <PUBCHEM_COMPONENT_COUNT>  (1) 
1

>  <PUBCHEM_CACTVS_TAUTO_COUNT>  (1) 
2

>  <PUBCHEM_CONFORMER_ID>  (1) 
0000763600000003

>  <PUBCHEM_MMFF94_ENERGY>  (1) 
40.3123

>  <PUBCHEM_FEATURE_SELFOVERLAP>  (1) 
30.454

>  <PUBCHEM_SHAPE_FINGERPRINT>  (1) 
10366900 7 17821728364523664467
104564 63 18053660278771910012
10688039 33 18261679147115760765
116883 192 18198064677672740470
12035759 4 18264513787572747852
12054548 360 18335977597464485308
12293681 4 18186811257202212858
12553582 1 18338786849657557164
12788726 201 18190461563424981154
13402501 40 18264202505486280781
138480 1 18337954596527994748
14363568 33 18191884506990508173
15081414 286 18341058483941588032
15196674 1 18413387639818331579
15210252 30 18187375363098267028
1601671 61 18341896307554270442
17093844 170 17978496542963978065
17138139 8 16973595636027335189
18785283 64 18046915049855758848
20671657 1 18195252336960098821
21285901 2 17915749673761979006
23402539 116 18202274780520262110
23419403 2 17128700576313847040
23558518 356 18051120694701709571
23559900 14 18337382838487673163
238 59 17761445495982877789
350125 39 18196936789001055563
6287921 2 17828489402929472317
7226269 152 18261661598591520106
7832392 63 18341887541215114374
9981440 41 17257926525386538856

>  <PUBCHEM_SHAPE_MULTIPOLES>  (1) 
394.87
8.09
4.33
0.92
3.4
6.1
-0.02
-3.4
-0.39
-1.39
0.95
0.43
0.06
0.4

>  <PUBCHEM_SHAPE_SELFOVERLAP>  (1) 
804.717

>  <PUBCHEM_SHAPE_VOLUME>  (1) 
229.6

>  <PUBCHEM_COORDINATE_TYPE>  (1) 
2
5
10

$$$$
