30266
     RDKit          3D

 21 22  0  0  0  0  0  0  0  0999 V2000
   -1.0477    1.4690    0.4332 O   0  0  0  0  0  0  0  0  0  0  0  0
    3.4519    2.4800   -0.7631 O   0  0  0  0  0  0  0  0  0  0  0  0
    5.2622    0.8167    0.2846 O   0  0  0  0  0  0  0  0  0  0  0  0
   -4.2847   -0.0933   -0.3841 N   0  0  0  0  0  0  0  0  0  0  0  0
   -5.4647    0.4000   -1.1082 C   0  0  0  0  0  0  0  0  0  0  0  0
   -4.6506   -0.5971    0.9471 C   0  0  0  0  0  0  0  0  0  0  0  0
   -6.5101   -0.7038   -1.2766 C   0  0  0  0  0  0  0  0  0  0  0  0
   -5.6695   -1.7333    0.8461 C   0  0  0  0  0  0  0  0  0  0  0  0
   -6.9074   -1.3007    0.0686 C   0  0  0  0  0  0  0  0  0  0  0  0
   -3.2756    0.9596   -0.2730 C   0  0  0  0  0  0  0  0  0  0  0  0
   -2.0036    0.4192    0.3608 C   0  0  0  0  0  0  0  0  0  0  0  0
    0.2729    1.1068    0.3788 C   0  0  0  0  0  0  0  0  0  0  0  0
    1.2043    1.9823   -0.1680 C   0  0  0  0  0  0  0  0  0  0  0  0
    2.9528    0.3739    0.2717 C   0  0  0  0  0  0  0  0  0  0  0  0
    0.6681   -0.1313    0.8726 C   0  0  0  0  0  0  0  0  0  0  0  0
    2.5489    1.6145   -0.2219 C   0  0  0  0  0  0  0  0  0  0  0  0
    4.7123   -1.5219    0.0891 C   0  0  0  0  0  0  0  0  0  0  0  0
    2.0124   -0.4990    0.8187 C   0  0  0  0  0  0  0  0  0  0  0  0
    4.3505   -0.0318    0.2213 C   0  0  0  0  0  0  0  0  0  0  0  0
    6.0393   -1.7628   -0.6309 C   0  0  0  0  0  0  0  0  0  0  0  0
    6.3383   -3.2469   -0.7665 C   0  0  0  0  0  0  0  0  0  0  0  0
  1 11  1  0
  1 12  1  0
  2 16  1  0
  3 19  2  0
  4  5  1  0
  4  6  1  0
  4 10  1  0
  5  7  1  0
  6  8  1  0
  7  9  1  0
  8  9  1  0
 10 11  1  0
 12 13  2  0
 12 15  1  0
 13 16  1  0
 14 16  2  0
 14 18  1  0
 14 19  1  0
 15 18  2  0
 17 19  1  0
 17 20  1  0
 20 21  1  0
M  END
>  <PUBCHEM_COMPOUND_CID>  (1) 
30266

>  <PUBCHEM_CONFORMER_RMSD>  (1) 
0.8

>  <PUBCHEM_CONFORMER_DIVERSEORDER>  (1) 
1
196
297
224
210
175
252
107
109
165
223
16
101
198
164
380
304
191
88
49
195
136
38
208
37
20
286
119
90
159
173
221
211
204
215
115
77
111
32
104
25
319
125
35
161
84
129
44
261
17
60
27
352
113
42
318
142
112
188
51
193
69
169
83
89
149
45
282
10
258
373
92
326
234
342
217
73
190
41
124
139
36
157
369
23
316
270
271
231
145
55
117
19
168
339
7
58
236
81
143
353
114
134
292
46
345
294
333
12
53
293
21
285
11
360
39
329
135
249
171
185
291
312
140
91
29
9
78
309
216
335
283
56
338
365
93
4
386
349
310
308
197
68
200
343
108
181
162
341
300
43
250
281
13
296
28
259
62
67
100
118
80
238
95
127
15
314
192
351
102
225
287
275
167
146
379
230
362
116
301
205
269
382
132
332
237
229
334
178
367
315
374
222
347
213
279
227
156
372
82
274
378
179
98
207
105
321
153
128
346
170
158
18
247
264
299
85
388
278
324
254
122
130
26
59
242
389
133
363
255
226
155
14
214
54
131
220
176
64
233
150
137
177
262
327
147
123
120
246
184
273
350
381
22
257
306
355
340
5
244
251
186
325
8
71
203
52
103
266
152
201
253
248
199
106
357
295
151
50
368
72
323
70
94
86
377
290
163
160
212
302
376
383
387
182
202
206
288
121
174
24
245
330
320
172
385
235
218
370
303
33
361
272
265
144
6
219
366
34
241
364
141
154
138
305
344
228
97
243
277
166
180
30
240
384
311
354
298
317
263
148
79
356
209
76
276
57
267
194
284
256
99
337
189
75
289
40
359
2
268
47
390
31
280
63
239
74
187
183
96
322
110
48
87
3
65
331
313
328
232
260
348
66
126
371
358
336
61
375
307

>  <PUBCHEM_MMFF94_PARTIAL_CHARGES>  (1) 
20
1 -0.36
10 0.27
11 0.28
12 0.08
13 -0.15
14 0.09
15 -0.15
16 0.08
17 0.06
18 -0.15
19 0.42
2 -0.53
3 -0.57
36 0.15
37 0.15
4 -0.81
40 0.15
46 0.45
5 0.27
6 0.27

>  <PUBCHEM_EFFECTIVE_ROTOR_COUNT>  (1) 
8.2

>  <PUBCHEM_PHARMACOPHORE_FEATURES>  (1) 
7
1 1 acceptor
1 2 donor
1 21 hydrophobe
1 3 acceptor
1 4 cation
6 12 13 14 15 16 18 rings
6 4 5 6 7 8 9 rings

>  <PUBCHEM_HEAVY_ATOM_COUNT>  (1) 
21

>  <PUBCHEM_ATOM_DEF_STEREO_COUNT>  (1) 
0

>  <PUBCHEM_ATOM_UDEF_STEREO_COUNT>  (1) 
0

>  <PUBCHEM_BOND_DEF_STEREO_COUNT>  (1) 
0

>  <PUBCHEM_BOND_UDEF_STEREO_COUNT>  (1) 
0

>  <PUBCHEM_ISOTOPIC_ATOM_COUNT>  (1) 
0

>  <PUBCHEM_COMPONENT_COUNT>  (1) 
1

>  <PUBCHEM_CACTVS_TAUTO_COUNT>  (1) 
9

>  <PUBCHEM_CONFORMER_ID>  (1) 
0000763A00000001

>  <PUBCHEM_MMFF94_ENERGY>  (1) 
43.5794

>  <PUBCHEM_FEATURE_SELFOVERLAP>  (1) 
35.52

>  <PUBCHEM_SHAPE_FINGERPRINT>  (1) 
10693767 8 18336541608787135802
11089746 13 11674877818277513424
12236239 1 18202283602219336921
12623949 98 17702673142784288998
13073987 5 18131070432964114528
13533116 47 18273214218508686408
13668630 136 18408039628768171259
13862211 1 18272931600659263590
13955234 65 18129656551664180344
14123256 34 18409171000083540851
15183329 4 17821723910436226369
15475509 35 17346026776486084410
15510800 12 17916599643817260742
17844677 252 18186522129285279493
17870717 6 17676202490624004467
18222031 100 18335700503902867528
19784866 240 18341336612716580697
200 152 18413387653220191961
20028762 73 18201155469109420174
20281389 69 9655576314128480491
20398071 356 18271531905156494015
20526848 3 11025804179973109894
20567600 247 18272649013397169774
20645477 70 18333450967083435328
21150785 3 17821736039787971110
21267235 1 18409172108226950547
21637258 2 17846492608542859162
21682296 61 18342181020572708799
22061861 79 18260545645575415391
221357 26 18187358840116355709
22393880 68 17895184494285963841
23081809 10 18059862783221388665
23522609 53 17844277152901637521
23559900 14 18114174298494957593
239999 70 18187361064692812552
25122255 55 18410864256474904811
270888 7 8213843878773017038
29717793 49 18410572890251626773
3004659 81 18186516613977013457
314194 84 18201155541964685961
33382 64 17846500292772491394
3472631 163 11674889883178349250
46194498 28 17967529099582259908
465052 167 18273498953460435870
5104073 3 17918276415827951112
5364581 5 11815023778447645567
543368 44 11386370335938147575
5718773 13 18267021644916036006
59755656 215 17894908516577651267

>  <PUBCHEM_SHAPE_MULTIPOLES>  (1) 
409.58
19.21
2.47
1.01
11.82
0.75
-0.08
14.82
-4.33
-4.19
-0.53
0.83
0.18
1.14

>  <PUBCHEM_SHAPE_SELFOVERLAP>  (1) 
837.742

>  <PUBCHEM_SHAPE_VOLUME>  (1) 
237.7

>  <PUBCHEM_COORDINATE_TYPE>  (1) 
2
5
10

$$$$
