30260
     RDKit          3D

 21 22  0  0  0  0  0  0  0  0999 V2000
    6.8605    1.2055    0.1029 O   0  0  0  0  0  0  0  0  0  0  0  0
    1.0515   -1.4583    0.4248 O   0  0  0  0  0  0  0  0  0  0  0  0
   -3.4479   -2.4827   -0.7606 O   0  0  0  0  0  0  0  0  0  0  0  0
   -5.2606   -0.8244    0.2911 O   0  0  0  0  0  0  0  0  0  0  0  0
    4.2811    0.1123   -0.4005 N   0  0  0  0  0  0  0  0  0  0  0  0
    4.6541    0.6228    0.9260 C   0  0  0  0  0  0  0  0  0  0  0  0
    5.4742   -0.3774   -1.1051 C   0  0  0  0  0  0  0  0  0  0  0  0
    3.2762   -0.9427   -0.2867 C   0  0  0  0  0  0  0  0  0  0  0  0
    5.7117    1.7134    0.7822 C   0  0  0  0  0  0  0  0  0  0  0  0
    6.5132    0.7362   -1.2004 C   0  0  0  0  0  0  0  0  0  0  0  0
    2.0042   -0.4058    0.3499 C   0  0  0  0  0  0  0  0  0  0  0  0
   -0.2703   -1.1000    0.3735 C   0  0  0  0  0  0  0  0  0  0  0  0
   -2.9525   -0.3749    0.2726 C   0  0  0  0  0  0  0  0  0  0  0  0
   -4.7179    1.5159    0.0938 C   0  0  0  0  0  0  0  0  0  0  0  0
   -1.2004   -1.9783   -0.1709 C   0  0  0  0  0  0  0  0  0  0  0  0
   -0.6678    0.1370    0.8679 C   0  0  0  0  0  0  0  0  0  0  0  0
   -2.5461   -1.6145   -0.2217 C   0  0  0  0  0  0  0  0  0  0  0  0
   -4.3515    0.0267    0.2254 C   0  0  0  0  0  0  0  0  0  0  0  0
   -6.0472    1.7526   -0.6231 C   0  0  0  0  0  0  0  0  0  0  0  0
   -2.0133    0.5008    0.8173 C   0  0  0  0  0  0  0  0  0  0  0  0
   -6.3510    3.2359   -0.7583 C   0  0  0  0  0  0  0  0  0  0  0  0
  1  9  1  0
  1 10  1  0
  2 11  1  0
  2 12  1  0
  3 17  1  0
  4 18  2  0
  5  6  1  0
  5  7  1  0
  5  8  1  0
  6  9  1  0
  7 10  1  0
  8 11  1  0
 12 15  2  0
 12 16  1  0
 13 17  2  0
 13 18  1  0
 13 20  1  0
 14 18  1  0
 14 19  1  0
 15 17  1  0
 16 20  2  0
 19 21  1  0
M  END
>  <PUBCHEM_COMPOUND_CID>  (1) 
30260

>  <PUBCHEM_CONFORMER_RMSD>  (1) 
0.8

>  <PUBCHEM_CONFORMER_DIVERSEORDER>  (1) 
1
158
467
260
156
333
25
180
175
141
142
478
10
287
63
29
276
58
318
48
121
134
482
202
376
363
86
228
436
486
162
149
492
275
17
90
437
449
70
46
4
308
360
475
43
62
26
214
317
405
12
471
92
57
211
203
38
379
135
424
177
19
22
464
161
435
430
378
59
408
461
244
47
399
160
41
50
174
445
313
355
224
159
15
148
237
273
474
420
64
295
438
172
131
30
395
242
409
404
460
233
261
222
103
439
36
143
31
453
221
252
61
189
34
462
191
297
485
357
374
310
290
101
73
136
387
367
89
94
458
32
72
383
356
51
3
477
373
193
45
262
53
113
155
443
397
412
328
78
74
129
266
322
366
54
213
429
254
130
195
55
483
100
372
171
284
339
411
123
315
390
215
446
251
417
194
79
20
394
216
396
49
151
456
294
109
243
354
84
210
280
152
206
393
385
309
126
289
35
285
329
342
16
432
246
238
24
13
392
348
44
283
220
218
40
270
181
104
353
381
413
240
52
298
8
473
324
231
179
472
169
304
382
97
448
112
93
81
425
226
272
204
115
451
421
489
316
42
340
292
277
83
82
386
307
21
344
269
11
232
469
350
255
185
108
481
37
105
274
201
88
337
349
466
186
402
488
127
267
18
60
305
306
368
459
301
401
434
428
447
137
416
139
398
67
441
330
343
168
2
427
122
235
154
371
138
442
332
426
239
249
198
125
282
380
418
391
470
241
9
457
217
227
341
230
487
153
209
147
176
454
352
182
184
265
465
433
423
200
68
33
369
39
166
7
281
476
178
288
388
140
335
98
406
144
245
225
91
299
120
219
263
384
407
247
455
164
107
312
146
27
440
279
150
490
223
76
187
183
145
346
23
229
286
365
192
116
370
205
165
6
199
331
236
132
124
207
278
326
114
212
208
327
400
188
190
118
336
431
102
463
334
419
87
250
271
234
321
296
133
293
5
173
389
415
167
253
484
303
111
403
314
257
117
338
157
479
452
96
444
377
414
163
258
80
85
196
128
65
170
362
256
480
248
300
110
75
291
422
77
347
197
450
364
320
71
14
468
375
106
491
264
119
325
345
319
361
323
302
56
259
99
358
410
66
69
359
311
28
95
351
268

>  <PUBCHEM_MMFF94_PARTIAL_CHARGES>  (1) 
23
1 -0.56
10 0.28
11 0.28
12 0.08
13 0.09
14 0.06
15 -0.15
16 -0.15
17 0.08
18 0.42
2 -0.36
20 -0.15
3 -0.53
36 0.15
37 0.15
4 -0.57
40 0.15
44 0.45
5 -0.81
6 0.27
7 0.27
8 0.27
9 0.28

>  <PUBCHEM_EFFECTIVE_ROTOR_COUNT>  (1) 
8.2

>  <PUBCHEM_PHARMACOPHORE_FEATURES>  (1) 
8
1 1 acceptor
1 2 acceptor
1 21 hydrophobe
1 3 donor
1 4 acceptor
1 5 cation
6 1 5 6 7 9 10 rings
6 12 13 15 16 17 20 rings

>  <PUBCHEM_HEAVY_ATOM_COUNT>  (1) 
21

>  <PUBCHEM_ATOM_DEF_STEREO_COUNT>  (1) 
0

>  <PUBCHEM_ATOM_UDEF_STEREO_COUNT>  (1) 
0

>  <PUBCHEM_BOND_DEF_STEREO_COUNT>  (1) 
0

>  <PUBCHEM_BOND_UDEF_STEREO_COUNT>  (1) 
0

>  <PUBCHEM_ISOTOPIC_ATOM_COUNT>  (1) 
0

>  <PUBCHEM_COMPONENT_COUNT>  (1) 
1

>  <PUBCHEM_CACTVS_TAUTO_COUNT>  (1) 
9

>  <PUBCHEM_CONFORMER_ID>  (1) 
0000763400000001

>  <PUBCHEM_MMFF94_ENERGY>  (1) 
52.0779

>  <PUBCHEM_FEATURE_SELFOVERLAP>  (1) 
40.596

>  <PUBCHEM_SHAPE_FINGERPRINT>  (1) 
10 15 18113623353164974545
10014705 185 18413671326676663707
10411042 1 17905609157910052763
10554248 39 18192413208848279503
10835480 77 17989201586336561472
12236239 1 18186801374683106258
12895836 83 18410007711568582465
13167372 99 18186519887090408388
13533116 47 17313377882473749242
13685833 64 9367340440408067372
13690498 29 17773868878403786423
14123256 34 9799687121105800260
14528608 73 18201440315856295822
15183329 4 17846222124550957096
15188451 53 10015578393888143449
15778101 99 18408324380398551963
18222031 100 12607408793367130242
19427546 20 18411696630307072711
19784866 240 12175616287424293195
20028762 73 9655569721370246116
20281389 69 18335421257307256120
20526848 3 18187088325511082173
21150785 3 17774996895713181061
21424621 283 18113618967227554403
21637258 2 12391506460394548873
221357 26 17346605171078163896
2215653 11 17275102834285132720
23081809 10 18040710390134953994
23402539 116 18343300413973135798
23559900 14 17704068538407590800
25122255 55 10447638132580171221
270888 7 18262515876145077669
2838139 119 18264195929643261717
2916195 48 18410009957161284267
293599 30 18410856525897229787
300161 21 18412261740333404178
3472631 163 18410856564198650676
34797466 226 17632304522696088340
3545911 37 18272657869782894218
44249763 50 18271791454419876532
465052 167 8574425444167992648
5104073 3 17749389222378180491
542803 24 17676769864093157594
57724786 102 16588882303194869460
59682541 52 17060057000113437388
6327066 14 18336821984446936533
6898599 12 18271804674323796487

>  <PUBCHEM_SHAPE_MULTIPOLES>  (1) 
403.71
18.81
2.45
0.99
12.23
0.68
-0.07
14.56
-4.29
-4.1
-0.52
0.76
0.18
1.08

>  <PUBCHEM_SHAPE_SELFOVERLAP>  (1) 
828.167

>  <PUBCHEM_SHAPE_VOLUME>  (1) 
233

>  <PUBCHEM_COORDINATE_TYPE>  (1) 
2
5
10

$$$$
