30268
     RDKit          3D

 17 17  0  0  0  0  0  0  0  0999 V2000
    1.3351    1.2404    0.8525 O   0  0  0  0  0  0  0  0  0  0  0  0
    1.9153   -0.9469    0.2521 N   0  0  0  0  0  0  0  0  0  0  0  0
   -0.3860   -0.7801    0.0513 N   0  0  0  0  0  0  0  0  0  0  0  0
    0.7458   -2.8281   -0.4572 N   0  0  0  0  0  0  0  0  0  0  0  0
    4.5426    0.4098   -0.2995 C   0  0  0  0  0  0  0  0  0  0  0  0
    3.6609    0.5672    0.9485 C   0  0  0  0  0  0  0  0  0  0  0  0
    4.0907    1.3853   -1.3881 C   0  0  0  0  0  0  0  0  0  0  0  0
    6.0188    0.6495    0.0271 C   0  0  0  0  0  0  0  0  0  0  0  0
    2.1765    0.3635    0.6797 C   0  0  0  0  0  0  0  0  0  0  0  0
   -1.6637   -1.3973   -0.2787 C   0  0  0  0  0  0  0  0  0  0  0  0
   -2.8024   -0.4231   -0.1624 C   0  0  0  0  0  0  0  0  0  0  0  0
    0.6734   -1.5139   -0.0589 C   0  0  0  0  0  0  0  0  0  0  0  0
   -3.4700   -0.2899    1.0486 C   0  0  0  0  0  0  0  0  0  0  0  0
   -3.1736    0.3334   -1.2668 C   0  0  0  0  0  0  0  0  0  0  0  0
   -4.5266    0.6143    1.1568 C   0  0  0  0  0  0  0  0  0  0  0  0
   -4.2302    1.2377   -1.1584 C   0  0  0  0  0  0  0  0  0  0  0  0
   -4.9065    1.3781    0.0534 C   0  0  0  0  0  0  0  0  0  0  0  0
  1  9  2  0
  2  9  1  0
  2 12  1  0
  3 10  1  0
  3 12  2  0
  4 12  1  0
  5  6  1  0
  5  7  1  0
  5  8  1  0
  6  9  1  0
 10 11  1  0
 11 13  2  0
 11 14  1  0
 13 15  1  0
 14 16  2  0
 15 17  2  0
 16 17  1  0
M  END
>  <PUBCHEM_COMPOUND_CID>  (1) 
30268

>  <PUBCHEM_CONFORMER_RMSD>  (1) 
0.8

>  <PUBCHEM_CONFORMER_DIVERSEORDER>  (1) 
1
38
10
19
34
18
32
11
33
29
25
31
5
37
16
12
39
35
8
30
27
3
9
23
15
17
21
28
22
14
20
7
26
6
4
40
24
36
13
2

>  <PUBCHEM_MMFF94_PARTIAL_CHARGES>  (1) 
22
1 -0.57
10 0.39
11 -0.14
12 0.56
13 -0.15
14 -0.15
15 -0.15
16 -0.15
17 -0.15
2 -0.49
27 0.37
3 -0.7
30 0.15
31 0.15
32 0.15
33 0.15
34 0.15
35 0.4
36 0.4
4 -0.85
6 0.06
9 0.57

>  <PUBCHEM_EFFECTIVE_ROTOR_COUNT>  (1) 
6

>  <PUBCHEM_PHARMACOPHORE_FEATURES>  (1) 
5
1 1 acceptor
1 2 donor
1 4 donor
3 5 7 8 hydrophobe
6 11 13 14 15 16 17 rings

>  <PUBCHEM_HEAVY_ATOM_COUNT>  (1) 
17

>  <PUBCHEM_ATOM_DEF_STEREO_COUNT>  (1) 
0

>  <PUBCHEM_ATOM_UDEF_STEREO_COUNT>  (1) 
0

>  <PUBCHEM_BOND_DEF_STEREO_COUNT>  (1) 
0

>  <PUBCHEM_BOND_UDEF_STEREO_COUNT>  (1) 
0

>  <PUBCHEM_ISOTOPIC_ATOM_COUNT>  (1) 
0

>  <PUBCHEM_COMPONENT_COUNT>  (1) 
1

>  <PUBCHEM_CACTVS_TAUTO_COUNT>  (1) 
5

>  <PUBCHEM_CONFORMER_ID>  (1) 
0000763C00000001

>  <PUBCHEM_MMFF94_ENERGY>  (1) 
36.9963

>  <PUBCHEM_FEATURE_SELFOVERLAP>  (1) 
25.417

>  <PUBCHEM_SHAPE_FINGERPRINT>  (1) 
100836 57 18409451388238080388
10354089 29 17167580497252014012
10447042 23 11312060920411341652
10803635 8 13470689226591375453
11458722 120 18334572448101692722
11552529 35 16588875735546120250
11796584 16 13038912113853870076
12596602 18 15285361729802139813
12892183 10 15502648278550165507
13583140 156 16153693345567340911
13740256 8 9439395843827882630
14123255 352 18261107474157451845
14251752 14 18410294688678000148
14252887 29 12757423926182143904
14341114 176 16732983094192052060
14341114 328 16081377361996598244
14848160 23 11455890248227279100
15183329 4 17203615852548635940
15188451 53 14057011563462168785
1601671 61 18335138700542443532
17834072 32 18335701684391392636
17834072 8 17704075101154684592
17870717 6 13183021817783794861
1798214 20 12175627265323895372
18186145 218 17988920119368932274
18222031 100 7781518092626923066
193927 3 8862662442647532560
19784866 170 18113900433635422701
19784866 9 18260824882942996666
200 152 11240004451148085728
20325693 3 15195283123737829885
20374829 77 10447927265831177819
20612939 158 18200876154173763406
20621476 66 18409172138561182092
231179 274 18409446972995888938
23402539 116 16558753420892625872
23402655 69 17846497036965377678
23403322 49 11167940260414989605
23559900 14 16807583760168345439
25 1 18343300357632288619
27216 239 18040716961766894673
293599 30 18412263956578421642
4921388 177 15841266047620469717
59682541 52 17059497314039866381
633830 44 17846776342751781144
81539 233 18336546032070317346

>  <PUBCHEM_SHAPE_MULTIPOLES>  (1) 
329.04
12.6
1.83
1.19
5.87
1
0.06
-7.09
0.02
-0.03
0.45
-0.45
-0.33
0.02

>  <PUBCHEM_SHAPE_SELFOVERLAP>  (1) 
661.741

>  <PUBCHEM_SHAPE_VOLUME>  (1) 
192.9

>  <PUBCHEM_COORDINATE_TYPE>  (1) 
2
5
10

$$$$
