30275
     RDKit          3D

 19 19  0  0  0  0  0  0  0  0999 V2000
    0.6406   -0.6168    0.9814 O   0  0  0  0  0  0  0  0  0  0  0  0
   -3.5964   -2.3736   -0.3074 O   0  0  0  0  0  0  0  0  0  0  0  0
    0.6207    1.9846    1.4266 O   0  0  0  0  0  0  0  0  0  0  0  0
    3.8178   -1.6929   -0.5396 N   0  0  0  0  0  0  0  0  0  0  0  0
    2.9172   -0.9158    0.2988 C   0  0  0  0  0  0  0  0  0  0  0  0
   -1.1375    0.8605    0.3428 C   0  0  0  0  0  0  0  0  0  0  0  0
    1.4831   -1.3921    0.1314 C   0  0  0  0  0  0  0  0  0  0  0  0
   -0.6374   -0.4038    0.5586 C   0  0  0  0  0  0  0  0  0  0  0  0
   -0.5010    3.3029   -0.2509 C   0  0  0  0  0  0  0  0  0  0  0  0
   -0.2643    2.0484    0.5763 C   0  0  0  0  0  0  0  0  0  0  0  0
    0.7868    4.0935   -0.4827 C   0  0  0  0  0  0  0  0  0  0  0  0
   -2.4286    1.0862   -0.0812 C   0  0  0  0  0  0  0  0  0  0  0  0
   -1.4712   -1.5004    0.3387 C   0  0  0  0  0  0  0  0  0  0  0  0
   -2.7835   -1.3035   -0.0912 C   0  0  0  0  0  0  0  0  0  0  0  0
   -3.2621   -0.0102   -0.3010 C   0  0  0  0  0  0  0  0  0  0  0  0
    3.7312   -3.1180   -0.2112 C   0  0  0  0  0  0  0  0  0  0  0  0
    5.1976   -1.2235   -0.3922 C   0  0  0  0  0  0  0  0  0  0  0  0
    1.8128    3.2752   -1.2495 C   0  0  0  0  0  0  0  0  0  0  0  0
   -4.9258   -2.1007   -0.7478 C   0  0  0  0  0  0  0  0  0  0  0  0
  1  7  1  0
  1  8  1  0
  2 14  1  0
  2 19  1  0
  3 10  2  0
  4  5  1  0
  4 16  1  0
  4 17  1  0
  5  7  1  0
  6  8  2  0
  6 10  1  0
  6 12  1  0
  8 13  1  0
  9 10  1  0
  9 11  1  0
 11 18  1  0
 12 15  2  0
 13 14  2  0
 14 15  1  0
M  END
>  <PUBCHEM_COMPOUND_CID>  (1) 
30275

>  <PUBCHEM_CONFORMER_RMSD>  (1) 
0.8

>  <PUBCHEM_CONFORMER_DIVERSEORDER>  (1) 
2
176
98
69
233
154
215
285
20
151
137
68
229
248
155
103
238
266
5
246
301
114
148
165
280
191
67
293
323
251
127
211
241
225
258
17
282
221
21
135
270
163
64
62
180
104
243
39
216
124
164
77
38
197
184
322
146
32
93
149
31
159
145
56
139
161
209
235
257
297
46
264
182
85
305
59
115
220
55
281
309
147
153
183
271
47
170
200
160
228
208
275
88
303
128
320
140
217
156
53
133
83
312
169
60
210
286
223
201
48
49
132
130
224
143
102
207
158
19
190
237
117
199
41
112
4
276
175
51
80
185
244
249
73
54
296
255
3
99
8
172
74
317
144
120
33
262
278
234
94
187
189
226
230
1
232
109
121
167
302
314
212
86
58
236
131
267
92
27
178
254
14
162
311
116
79
105
70
40
28
108
227
242
273
253
194
188
186
10
193
34
231
97
150
96
306
259
218
107
84
90
76
192
219
134
91
261
245
205
11
174
63
222
206
43
26
313
122
179
166
289
24
72
268
308
7
111
196
250
16
113
142
213
204
198
87
277
272
310
82
44
177
152
260
106
89
15
78
110
274
52
157
181
129
304
195
126
95
240
101
9
318
315
119
138
173
125
75
65
269
247
168
12
35
29
265
36
171
71
50
30
291
203
123
22
256
6
141
287
18
118
61
23
252
290
299
81
202
316
25
239
321
37
100
307
45
279
66
263
214
324
42
300
57
319
283
288
292
136
13
284
295
298
294

>  <PUBCHEM_MMFF94_PARTIAL_CHARGES>  (1) 
20
1 -0.36
10 0.42
12 -0.15
13 -0.15
14 0.08
15 -0.15
16 0.27
17 0.27
19 0.28
2 -0.36
28 0.15
29 0.15
3 -0.57
30 0.15
4 -0.81
5 0.27
6 0.09
7 0.28
8 0.08
9 0.06

>  <PUBCHEM_EFFECTIVE_ROTOR_COUNT>  (1) 
8

>  <PUBCHEM_PHARMACOPHORE_FEATURES>  (1) 
6
1 1 acceptor
1 18 hydrophobe
1 2 acceptor
1 3 acceptor
1 4 cation
6 6 8 12 13 14 15 rings

>  <PUBCHEM_HEAVY_ATOM_COUNT>  (1) 
19

>  <PUBCHEM_ATOM_DEF_STEREO_COUNT>  (1) 
0

>  <PUBCHEM_ATOM_UDEF_STEREO_COUNT>  (1) 
0

>  <PUBCHEM_BOND_DEF_STEREO_COUNT>  (1) 
0

>  <PUBCHEM_BOND_UDEF_STEREO_COUNT>  (1) 
0

>  <PUBCHEM_ISOTOPIC_ATOM_COUNT>  (1) 
0

>  <PUBCHEM_COMPONENT_COUNT>  (1) 
1

>  <PUBCHEM_CACTVS_TAUTO_COUNT>  (1) 
2

>  <PUBCHEM_CONFORMER_ID>  (1) 
0000764300000002

>  <PUBCHEM_MMFF94_ENERGY>  (1) 
61.8041

>  <PUBCHEM_FEATURE_SELFOVERLAP>  (1) 
30.456

>  <PUBCHEM_SHAPE_FINGERPRINT>  (1) 
10756046 5 18336541729056184997
10871710 139 17972618601573795500
11045515 52 18261112932992319956
11833330 49 18264201422579073856
12173636 292 17617090309545883372
12403259 226 18270955723004757282
12553582 1 18337100190605596171
138480 1 14518899415599962764
14508225 48 18339351985638445711
14790565 3 17764311634997835353
15502722 9 18048875496579039351
15961568 22 18408603678708104044
167882 2 18047191040333494172
17539 30 18195797484168485813
1813 80 18410002256380056659
18915476 22 17830750003395047307
20101258 96 18264226767038682435
20388580 30 18341893051758135039
20600515 1 18128828447161132877
20645477 70 18048018964500447623
20871999 31 18336539431032546599
21344244 246 18121781905124937012
21524375 3 17036422778546748576
22182313 1 18195780016842506425
23114952 82 18117824724185136685
23366157 5 18043242638253832849
23402539 116 18339357457717340182
23557571 272 17986395490711732390
23559900 14 18266169711617679595
23566358 27 18192723452132558283
25147074 1 18058464256444972019
2748010 2 18267558317752378505
3060560 45 17614835649347600909
3071541 250 18338237179943293265
458136 41 17761224606178834273
531348 171 17761225319492480894
532947 4 18123193665239138692
7164475 11 18192712246457985334
7364860 26 18194678404864972337
81228 2 18266462009806163336
9925002 15 18265634099052242516

>  <PUBCHEM_SHAPE_MULTIPOLES>  (1) 
368.42
7.81
4.86
0.94
3.21
4.85
0.05
-9.77
-2.42
1.68
-1.22
0.1
0.35
-0.61

>  <PUBCHEM_SHAPE_SELFOVERLAP>  (1) 
742.641

>  <PUBCHEM_SHAPE_VOLUME>  (1) 
218.2

>  <PUBCHEM_COORDINATE_TYPE>  (1) 
2
5
10

$$$$
