30271
     RDKit          3D

 17 17  0  0  0  0  0  0  0  0999 V2000
   -0.7562   -0.8551   -0.9209 O   0  0  0  0  0  0  0  0  0  0  0  0
    3.8604   -1.3910    0.1273 O   0  0  0  0  0  0  0  0  0  0  0  0
   -1.5387    1.6990   -1.1675 O   0  0  0  0  0  0  0  0  0  0  0  0
   -3.3192   -0.5593    0.2811 N   0  0  0  0  0  0  0  0  0  0  0  0
   -2.8127   -1.8431   -0.2028 C   0  0  0  0  0  0  0  0  0  0  0  0
   -1.2959   -1.8909   -0.1106 C   0  0  0  0  0  0  0  0  0  0  0  0
    0.4314   -0.3064   -0.5126 C   0  0  0  0  0  0  0  0  0  0  0  0
    0.5216    1.0505   -0.2197 C   0  0  0  0  0  0  0  0  0  0  0  0
   -2.9003   -0.3331    1.6639 C   0  0  0  0  0  0  0  0  0  0  0  0
   -4.7770   -0.5119    0.1744 C   0  0  0  0  0  0  0  0  0  0  0  0
    1.5471   -1.1298   -0.3987 C   0  0  0  0  0  0  0  0  0  0  0  0
    1.7404    1.5901    0.1913 C   0  0  0  0  0  0  0  0  0  0  0  0
    2.7660   -0.5901    0.0124 C   0  0  0  0  0  0  0  0  0  0  0  0
    2.8625    0.7698    0.3074 C   0  0  0  0  0  0  0  0  0  0  0  0
   -0.6363    1.9256   -0.3385 C   0  0  0  0  0  0  0  0  0  0  0  0
   -0.7673    3.1500    0.5593 C   0  0  0  0  0  0  0  0  0  0  0  0
    5.0742   -0.7744    0.5543 C   0  0  0  0  0  0  0  0  0  0  0  0
  1  6  1  0
  1  7  1  0
  2 13  1  0
  2 17  1  0
  3 15  2  0
  4  5  1  0
  4  9  1  0
  4 10  1  0
  5  6  1  0
  7  8  2  0
  7 11  1  0
  8 12  1  0
  8 15  1  0
 11 13  2  0
 12 14  2  0
 13 14  1  0
 15 16  1  0
M  END
>  <PUBCHEM_COMPOUND_CID>  (1) 
30271

>  <PUBCHEM_CONFORMER_RMSD>  (1) 
0.8

>  <PUBCHEM_CONFORMER_DIVERSEORDER>  (1) 
2
15
31
50
46
42
57
23
54
7
36
51
13
25
1
58
22
56
10
52
38
32
27
30
49
41
48
11
4
45
24
47
37
44
29
43
59
53
6
26
28
33
17
60
12
3
21
34
8
9
39
61
18
63
14
62
20
35
16
5
19
40
55

>  <PUBCHEM_MMFF94_PARTIAL_CHARGES>  (1) 
20
1 -0.36
10 0.27
11 -0.15
12 -0.15
13 0.08
14 -0.15
15 0.42
16 0.06
17 0.28
2 -0.36
22 0.15
29 0.15
3 -0.57
30 0.15
4 -0.81
5 0.27
6 0.28
7 0.08
8 0.09
9 0.27

>  <PUBCHEM_EFFECTIVE_ROTOR_COUNT>  (1) 
6

>  <PUBCHEM_PHARMACOPHORE_FEATURES>  (1) 
5
1 1 acceptor
1 2 acceptor
1 3 acceptor
1 4 cation
6 7 8 11 12 13 14 rings

>  <PUBCHEM_HEAVY_ATOM_COUNT>  (1) 
17

>  <PUBCHEM_ATOM_DEF_STEREO_COUNT>  (1) 
0

>  <PUBCHEM_ATOM_UDEF_STEREO_COUNT>  (1) 
0

>  <PUBCHEM_BOND_DEF_STEREO_COUNT>  (1) 
0

>  <PUBCHEM_BOND_UDEF_STEREO_COUNT>  (1) 
0

>  <PUBCHEM_ISOTOPIC_ATOM_COUNT>  (1) 
0

>  <PUBCHEM_COMPONENT_COUNT>  (1) 
1

>  <PUBCHEM_CACTVS_TAUTO_COUNT>  (1) 
2

>  <PUBCHEM_CONFORMER_ID>  (1) 
0000763F00000002

>  <PUBCHEM_MMFF94_ENERGY>  (1) 
62.936

>  <PUBCHEM_FEATURE_SELFOVERLAP>  (1) 
25.38

>  <PUBCHEM_SHAPE_FINGERPRINT>  (1) 
11086676 242 18337971037641237344
11132069 177 18273218586020986130
11357001 24 18337667495407513208
11680986 33 17909549454762966622
12251169 10 18272936041602745522
124424 183 18186801400700797151
12507560 18 17967533480380147867
12633257 1 17846513516649560681
13132413 78 18055359286388480837
13140716 1 18339078323471470994
14790565 3 17617381022992791204
15042514 8 18122058703098611306
15375462 189 18114175346039814018
15442244 35 18341050842999479231
15848700 24 18410287042892473495
15885798 251 18408039623781867139
16945 1 18342458097745118316
17357779 13 18337094718695350829
18186145 218 9366804973702434059
192875 21 18130787906358076281
20388701 513 18341620260904473694
20510252 161 18270396084143599304
22182313 1 17915745271736966174
23184049 59 18341056297776730663
23402539 116 18201994426687952935
23557571 272 18200323126390900414
2748010 2 18268690814840056380
350125 39 18411418432379891552
69474 34 18271802449409424136
6992083 37 18200603604339501719
81228 2 18191041026788988409
83771 10 18333731329732057994
8809292 202 18260829319085186778

>  <PUBCHEM_SHAPE_MULTIPOLES>  (1) 
327.26
7.54
2.59
0.96
1.56
1.82
0.18
-4.08
2.03
-0.59
-0.02
-0.51
0.07
0

>  <PUBCHEM_SHAPE_SELFOVERLAP>  (1) 
664.769

>  <PUBCHEM_SHAPE_VOLUME>  (1) 
193.2

>  <PUBCHEM_COORDINATE_TYPE>  (1) 
2
5
10

$$$$
