30287
     RDKit          3D

 19 19  0  0  0  0  0  0  0  0999 V2000
    0.2524   -1.2562   -0.9240 O   0  0  0  0  0  0  0  0  0  0  0  0
   -0.5391    1.1412   -1.6964 O   0  0  0  0  0  0  0  0  0  0  0  0
    2.6517   -0.3004    0.2336 N   0  0  0  0  0  0  0  0  0  0  0  0
    2.5994   -1.5356   -0.5342 C   0  0  0  0  0  0  0  0  0  0  0  0
    2.3560   -0.5549    1.6456 C   0  0  0  0  0  0  0  0  0  0  0  0
    3.9632    0.3382    0.0991 C   0  0  0  0  0  0  0  0  0  0  0  0
    1.2241   -2.1751   -0.4291 C   0  0  0  0  0  0  0  0  0  0  0  0
    2.3400    0.7372    2.4447 C   0  0  0  0  0  0  0  0  0  0  0  0
    4.2933    0.6129   -1.3582 C   0  0  0  0  0  0  0  0  0  0  0  0
   -1.0008   -1.3358   -0.3943 C   0  0  0  0  0  0  0  0  0  0  0  0
   -1.8239   -0.2373   -0.2899 C   0  0  0  0  0  0  0  0  0  0  0  0
   -1.8663    2.3472   -0.0857 C   0  0  0  0  0  0  0  0  0  0  0  0
   -1.3426    1.0923   -0.7678 C   0  0  0  0  0  0  0  0  0  0  0  0
   -0.8535    3.4917   -0.1255 C   0  0  0  0  0  0  0  0  0  0  0  0
   -1.4700   -2.5696    0.0570 C   0  0  0  0  0  0  0  0  0  0  0  0
   -3.0926   -0.3079    0.2424 C   0  0  0  0  0  0  0  0  0  0  0  0
   -2.7503   -2.6725    0.6008 C   0  0  0  0  0  0  0  0  0  0  0  0
   -3.5616   -1.5417    0.6935 C   0  0  0  0  0  0  0  0  0  0  0  0
   -1.3794    4.7263    0.5883 C   0  0  0  0  0  0  0  0  0  0  0  0
  1  7  1  0
  1 10  1  0
  2 13  2  0
  3  4  1  0
  3  5  1  0
  3  6  1  0
  4  7  1  0
  5  8  1  0
  6  9  1  0
 10 11  2  0
 10 15  1  0
 11 13  1  0
 11 16  1  0
 12 13  1  0
 12 14  1  0
 14 19  1  0
 15 17  2  0
 16 18  2  0
 17 18  1  0
M  END
>  <PUBCHEM_COMPOUND_CID>  (1) 
30287

>  <PUBCHEM_CONFORMER_RMSD>  (1) 
1

>  <PUBCHEM_CONFORMER_DIVERSEORDER>  (1) 
2
28
359
375
399
99
459
380
507
430
447
16
314
480
117
295
60
358
149
200
360
369
478
6
197
362
13
583
142
12
322
63
163
96
567
425
66
451
20
224
85
226
414
238
34
563
579
7
5
151
14
21
79
91
225
250
17
67
202
484
3
152
251
132
61
401
412
177
4
468
48
514
38
216
436
39
15
576
1
88
520
545
45
518
262
568
145
70
76

>  <PUBCHEM_MMFF94_PARTIAL_CHARGES>  (1) 
19
1 -0.36
10 0.08
11 0.09
12 0.06
13 0.42
15 -0.15
16 -0.15
17 -0.15
18 -0.15
2 -0.57
3 -0.81
38 0.15
39 0.15
4 0.27
40 0.15
41 0.15
5 0.27
6 0.27
7 0.28

>  <PUBCHEM_EFFECTIVE_ROTOR_COUNT>  (1) 
9

>  <PUBCHEM_PHARMACOPHORE_FEATURES>  (1) 
5
1 1 acceptor
1 19 hydrophobe
1 2 acceptor
1 3 cation
6 10 11 15 16 17 18 rings

>  <PUBCHEM_HEAVY_ATOM_COUNT>  (1) 
19

>  <PUBCHEM_ATOM_DEF_STEREO_COUNT>  (1) 
0

>  <PUBCHEM_ATOM_UDEF_STEREO_COUNT>  (1) 
0

>  <PUBCHEM_BOND_DEF_STEREO_COUNT>  (1) 
0

>  <PUBCHEM_BOND_UDEF_STEREO_COUNT>  (1) 
0

>  <PUBCHEM_ISOTOPIC_ATOM_COUNT>  (1) 
0

>  <PUBCHEM_COMPONENT_COUNT>  (1) 
1

>  <PUBCHEM_CACTVS_TAUTO_COUNT>  (1) 
2

>  <PUBCHEM_CONFORMER_ID>  (1) 
0000764F00000002

>  <PUBCHEM_MMFF94_ENERGY>  (1) 
45.1855

>  <PUBCHEM_FEATURE_SELFOVERLAP>  (1) 
25.381

>  <PUBCHEM_SHAPE_FINGERPRINT>  (1) 
10165383 225 17255423525783604556
10366900 7 18201431463221674262
10498660 4 18409445920807977414
12156800 1 15763649296516982792
12173636 292 18267019444942825228
12553582 1 18337387265913146611
12788726 201 18260547818538892457
13083527 12 17619333755933553495
13764800 53 18337943502632204766
14787075 74 17461732984342997742
14955137 171 17977133423586823875
19049666 15 18126841599621919610
20510252 161 18337675217784890223
20600515 1 18115318898077613991
21486144 27 16988275507995690378
21524375 3 17549527519058050085
23557571 272 18336274500064080126
23558518 356 17907004081112618183
23559900 14 18335415708447666086
350125 39 18049168760993311111
3524813 1 17988640834894335314
3797600 57 17532088478847013354
474 4 17473256583425069485
621550 5 17843993487723018542
6287921 2 17409085146458440320
7097593 13 17607504870417911874
7364860 26 17761499492517476395
81228 2 18188779327603525023
84936 182 17043723522923234441
90316 7 18337095856782783603

>  <PUBCHEM_SHAPE_MULTIPOLES>  (1) 
374.29
6.28
4.44
1.47
4.97
5.97
0.64
-1.65
0.34
-4.01
0.43
1.33
0.26
0.5

>  <PUBCHEM_SHAPE_SELFOVERLAP>  (1) 
747.925

>  <PUBCHEM_SHAPE_VOLUME>  (1) 
223.4

>  <PUBCHEM_COORDINATE_TYPE>  (1) 
2
5
10

$$$$
