30293
     RDKit          3D

 20 20  0  0  0  0  0  0  0  0999 V2000
    0.1641    1.1577   -1.0406 O   0  0  0  0  0  0  0  0  0  0  0  0
   -1.2269   -0.9840   -1.6646 O   0  0  0  0  0  0  0  0  0  0  0  0
    3.5506    0.2467    0.0852 N   0  0  0  0  0  0  0  0  0  0  0  0
   -2.0290   -3.1430    0.0788 C   0  0  0  0  0  0  0  0  0  0  0  0
    2.3113    0.1616   -0.6729 C   0  0  0  0  0  0  0  0  0  0  0  0
   -2.7332   -1.7751    0.0492 C   0  0  0  0  0  0  0  0  0  0  0  0
    3.2879    0.1354    1.5221 C   0  0  0  0  0  0  0  0  0  0  0  0
    4.4900   -0.7943   -0.3388 C   0  0  0  0  0  0  0  0  0  0  0  0
    1.3539    1.2691   -0.2627 C   0  0  0  0  0  0  0  0  0  0  0  0
   -1.9536   -0.7108   -0.7123 C   0  0  0  0  0  0  0  0  0  0  0  0
   -2.0611    0.7078   -0.2674 C   0  0  0  0  0  0  0  0  0  0  0  0
   -0.6398   -3.0036    0.7052 C   0  0  0  0  0  0  0  0  0  0  0  0
   -2.8459   -4.1757    0.8597 C   0  0  0  0  0  0  0  0  0  0  0  0
   -0.9981    1.5637   -0.4555 C   0  0  0  0  0  0  0  0  0  0  0  0
    4.5665    0.2920    2.3276 C   0  0  0  0  0  0  0  0  0  0  0  0
    4.7789   -0.6999   -1.8274 C   0  0  0  0  0  0  0  0  0  0  0  0
   -3.2392    1.1101    0.3248 C   0  0  0  0  0  0  0  0  0  0  0  0
   -1.1183    2.8871   -0.0311 C   0  0  0  0  0  0  0  0  0  0  0  0
   -3.3592    2.4335    0.7493 C   0  0  0  0  0  0  0  0  0  0  0  0
   -2.2988    3.3218    0.5714 C   0  0  0  0  0  0  0  0  0  0  0  0
  1  9  1  0
  1 14  1  0
  2 10  2  0
  3  5  1  0
  3  7  1  0
  3  8  1  0
  4  6  1  0
  4 12  1  0
  4 13  1  0
  5  9  1  0
  6 10  1  0
  7 15  1  0
  8 16  1  0
 10 11  1  0
 11 14  2  0
 11 17  1  0
 14 18  1  0
 17 19  2  0
 18 20  2  0
 19 20  1  0
M  END
>  <PUBCHEM_COMPOUND_CID>  (1) 
30293

>  <PUBCHEM_CONFORMER_RMSD>  (1) 
1

>  <PUBCHEM_CONFORMER_DIVERSEORDER>  (1) 
1
63
87
89
112
31
84
33
58
109
60
76
121
34
106
103
137
86
73
25
118
27
134
88
74
114
77
97
96
48
40
125
111
131
50
30
42
70
75
85
115
52
107
95
135
64
110
11
119
102
101
91
113
133
54
21
49
100
13
12
19
62
57
22
3
45
37
53
35
136
67
99
4
129
108
98
5
24
128
72
92
2
94
65
90
105
61
117
8
69
55
68
44
79
28
83
80
93
14
41
71
32
104
39
56
26
81
59
38
36
16
18
78
132
126
46
116
9
124
7
15
66
122
20
6
130
127
43
51
10
47
29
17
82
123
23
120

>  <PUBCHEM_MMFF94_PARTIAL_CHARGES>  (1) 
19
1 -0.36
10 0.42
11 0.09
14 0.08
17 -0.15
18 -0.15
19 -0.15
2 -0.57
20 -0.15
3 -0.81
44 0.15
45 0.15
46 0.15
47 0.15
5 0.27
6 0.06
7 0.27
8 0.27
9 0.28

>  <PUBCHEM_EFFECTIVE_ROTOR_COUNT>  (1) 
9

>  <PUBCHEM_PHARMACOPHORE_FEATURES>  (1) 
5
1 1 acceptor
1 2 acceptor
1 3 cation
3 4 12 13 hydrophobe
6 11 14 17 18 19 20 rings

>  <PUBCHEM_HEAVY_ATOM_COUNT>  (1) 
20

>  <PUBCHEM_ATOM_DEF_STEREO_COUNT>  (1) 
0

>  <PUBCHEM_ATOM_UDEF_STEREO_COUNT>  (1) 
0

>  <PUBCHEM_BOND_DEF_STEREO_COUNT>  (1) 
0

>  <PUBCHEM_BOND_UDEF_STEREO_COUNT>  (1) 
0

>  <PUBCHEM_ISOTOPIC_ATOM_COUNT>  (1) 
0

>  <PUBCHEM_COMPONENT_COUNT>  (1) 
1

>  <PUBCHEM_CACTVS_TAUTO_COUNT>  (1) 
2

>  <PUBCHEM_CONFORMER_ID>  (1) 
0000765500000001

>  <PUBCHEM_MMFF94_ENERGY>  (1) 
50.3242

>  <PUBCHEM_FEATURE_SELFOVERLAP>  (1) 
25.381

>  <PUBCHEM_SHAPE_FINGERPRINT>  (1) 
10366900 7 18060135410507200532
107951 10 18124892165294558575
1100329 8 18337678628548053563
11370993 144 17418103104706432426
12549972 3 17846213311795361842
12553582 1 17837494415834921638
12788726 201 18117846718422950706
12824470 246 17751352000630593399
13140716 1 18267585882720738617
14081887 123 18340189882587630994
14178342 30 18336817646176487530
14251757 5 18340223907471511020
14866123 147 18338243673924016467
15042514 8 18338249240538566451
15422964 175 17834956747561610549
19591789 44 17905053555674282623
20600515 1 18045474625204332789
20681677 155 18339651027727826532
21452121 199 17905599261370745321
21650355 55 18338786914219509025
23557571 272 18271798068948840872
23559900 14 18272935977985377420
23728640 28 18408888412678314579
43471831 8 18049446946473420357
469060 322 13697299810110856938
5364581 5 18128798902962137408
5385378 56 17619074928282640473
58807428 26 18123761863653086985
602551 16 18410289186645442216
81228 2 18342162393378654461
9709674 26 18272929444880885380

>  <PUBCHEM_SHAPE_MULTIPOLES>  (1) 
394.87
8.42
4.46
1.51
12.28
2.97
-0.31
0.74
-1.29
-7.18
-1.3
2.16
0.15
0.48

>  <PUBCHEM_SHAPE_SELFOVERLAP>  (1) 
788.34

>  <PUBCHEM_SHAPE_VOLUME>  (1) 
235.7

>  <PUBCHEM_COORDINATE_TYPE>  (1) 
2
5
10

$$$$
