3029
     RDKit          3D

 32 35  0  0  1  0  0  0  0  0999 V2000
   -3.2817    3.5312   -0.9511 P   0  0  0  0  0  0  0  0  0  0  0  0
   -2.2972    1.0888    1.7301 O   0  0  0  0  0  0  0  0  0  0  0  0
   -2.7201    2.0022   -1.0427 O   0  0  0  0  0  0  0  0  0  0  0  0
   -3.2960   -1.4012   -0.0910 O   0  0  0  0  0  0  0  0  0  0  0  0
   -3.2645    3.6897    0.6754 O   0  0  0  0  0  0  0  0  0  0  0  0
   -4.7112    3.5701   -1.4472 O   0  0  0  0  0  0  0  0  0  0  0  0
   -2.2380    4.4589   -1.5331 O   0  0  0  0  0  0  0  0  0  0  0  0
   -1.6546   -2.6769   -1.0916 O   0  0  0  0  0  0  0  0  0  0  0  0
    5.9324   -1.3757   -0.0357 O   0  0  0  0  0  0  0  0  0  0  0  0
   -0.2727    0.3321    0.7405 N   0  0  0  0  0  0  0  0  0  0  0  0
    1.5339    1.5575    0.2886 N   0  0  0  0  0  0  0  0  0  0  0  0
    0.7395   -1.8724    0.8656 N   0  0  0  0  0  0  0  0  0  0  0  0
    3.1445   -1.7675    0.4646 N   0  0  0  0  0  0  0  0  0  0  0  0
    4.2707    0.2888    0.0128 N   0  0  0  0  0  0  0  0  0  0  0  0
   -3.4100    0.9776   -0.3352 C   0  0  0  0  0  0  0  0  0  0  0  0
   -2.4994   -0.2324   -0.2624 C   0  0  0  0  0  0  0  0  0  0  0  0
   -3.5866    1.3292    1.1380 C   0  0  0  0  0  0  0  0  0  0  0  0
   -1.6759    0.0086    1.0074 C   0  0  0  0  0  0  0  0  0  0  0  0
   -4.0274    2.7555    1.4294 C   0  0  0  0  0  0  0  0  0  0  0  0
    0.7741   -0.5434    0.6863 C   0  0  0  0  0  0  0  0  0  0  0  0
    0.2336    1.5808    0.4946 C   0  0  0  0  0  0  0  0  0  0  0  0
    1.8849    0.2360    0.4055 C   0  0  0  0  0  0  0  0  0  0  0  0
   -2.7484   -2.5668   -0.5550 C   0  0  0  0  0  0  0  0  0  0  0  0
   -3.7128   -3.7026   -0.2996 C   0  0  0  0  0  0  0  0  0  0  0  0
    3.1048   -0.4238    0.2956 C   0  0  0  0  0  0  0  0  0  0  0  0
   -3.1765   -5.0352   -0.8168 C   0  0  0  0  0  0  0  0  0  0  0  0
    1.9766   -2.3990    0.7351 C   0  0  0  0  0  0  0  0  0  0  0  0
   -4.1395   -6.1744   -0.5257 C   0  0  0  0  0  0  0  0  0  0  0  0
    5.5771   -0.2059   -0.1330 C   0  0  0  0  0  0  0  0  0  0  0  0
    6.5650    0.9205   -0.4111 C   0  0  0  0  0  0  0  0  0  0  0  0
    8.0080    0.4506   -0.5807 C   0  0  0  0  0  0  0  0  0  0  0  0
    8.9674    1.5994   -0.8576 C   0  0  0  0  0  0  0  0  0  0  0  0
  1  3  1  0
  1  5  1  0
  1  6  1  0
  1  7  2  0
  2 17  1  0
  2 18  1  0
  3 15  1  0
  4 16  1  0
  4 23  1  0
  5 19  1  0
  8 23  2  0
  9 29  2  0
 10 18  1  0
 10 20  1  0
 10 21  1  0
 11 21  2  0
 11 22  1  0
 12 20  1  0
 12 27  2  0
 13 25  2  0
 13 27  1  0
 14 25  1  0
 14 29  1  0
 15 16  1  0
 15 17  1  0
 16 18  1  0
 17 19  1  0
 20 22  2  0
 22 25  1  0
 23 24  1  0
 24 26  1  0
 26 28  1  0
 29 30  1  0
 30 31  1  0
 31 32  1  0
M  CHG  1   6  -1
M  END
>  <PUBCHEM_COMPOUND_CID>  (1) 
3029

>  <PUBCHEM_CONFORMER_RMSD>  (1) 
1

>  <PUBCHEM_CONFORMER_DIVERSEORDER>  (1) 
1
332
133
42
254
233
386
230
377
286
277
192
248
161
383
143
338
265
373
220
125
25
209
183
140
357
313
60
252
379
363
213
285
120
52
364
246
234
351
323
315
167
356
292
288
227
101
309
335
384
324
366
78
353
325
238
4
367
342
172
146
166
249
75
388
151
112
308
221
229
119
205
375
346
191
365
84
327
212
2
319
210
330
380
117
318
314
63
148
190
287
320
15
8
86
378
370
89
197
336
259
203
274
200
389
114
345
162
195
232
66
333
33
385
69
153
300
218
374
130
57
326
247
294
271
36
159
82
169
322
281
381
122
225
185
58
311
312
72
124
56
53
55
216
255
177
136
179
262
139
98
110
310
111
361
331
198
352
173
240
99
334
215
269
104
359
106
261
257
94
239
137
115
307
6
158
32
256
241
347
118
181
263
96
282
196
290
339
5
297
387
189
235
188
187
266
155
295
76
64
368
360
163
298
24
372
369
244
207
12
201
253
243
74
141
61
193
157
264
178
41
376
302
147
80
175
39
156
362
291
219
93
48
305
279
79
91
77
317
194
371
90
228
46
206
349
107
204
251
270
321
144
354
128
211
10
223
150
226
272
138
142
222
160
14
258
284
170
83
100
260
214
224
276
152
355
95
316
43
127
73
236
145
245
92
135
250
20
348
296
134
329
81
103
237
85
23
202
49
304
217
340
337
358
176
102
26
9
289
30
164
50
184
231
132
242
350
131
121
105
301
16
97
65
303
343
280
268
19
174
328
51
344
68
382
18
275
45
13
182
299
17
109
40
171
59
70
123
129
31
283
35
186
149
88
306
29
44
278
180
199
71
21
7
116
67
208
165
108
34
3
62
273
154
54
113
27
37
126
38
168
11
22
293
341
87
47
267
28

>  <PUBCHEM_MMFF94_PARTIAL_CHARGES>  (1) 
31
1 1.44
10 0.05
11 -0.57
12 -0.57
13 -0.62
14 -0.55
15 0.28
16 0.28
17 0.28
18 0.54
19 0.28
2 -0.56
20 0.11
21 0.04
22 0.23
23 0.66
24 0.06
25 0.43
27 0.47
29 0.57
3 -0.55
30 0.06
39 0.15
4 -0.43
44 0.15
45 0.37
5 -0.55
6 -0.95
7 -0.95
8 -0.57
9 -0.57

>  <PUBCHEM_EFFECTIVE_ROTOR_COUNT>  (1) 
10.2

>  <PUBCHEM_PHARMACOPHORE_FEATURES>  (1) 
15
1 14 donor
1 2 acceptor
1 28 hydrophobe
1 32 hydrophobe
1 6 acceptor
1 7 acceptor
1 8 acceptor
1 9 acceptor
3 10 11 21 cation
3 10 12 20 cation
3 12 13 27 cation
5 10 11 20 21 22 rings
5 2 15 16 17 18 rings
6 1 3 5 15 17 19 rings
6 12 13 20 22 25 27 rings

>  <PUBCHEM_HEAVY_ATOM_COUNT>  (1) 
32

>  <PUBCHEM_ATOM_DEF_STEREO_COUNT>  (1) 
0

>  <PUBCHEM_ATOM_UDEF_STEREO_COUNT>  (1) 
4

>  <PUBCHEM_BOND_DEF_STEREO_COUNT>  (1) 
0

>  <PUBCHEM_BOND_UDEF_STEREO_COUNT>  (1) 
0

>  <PUBCHEM_ISOTOPIC_ATOM_COUNT>  (1) 
0

>  <PUBCHEM_COMPONENT_COUNT>  (1) 
1

>  <PUBCHEM_CACTVS_TAUTO_COUNT>  (1) 
4

>  <PUBCHEM_CONFORMER_ID>  (1) 
00000BD500000001

>  <PUBCHEM_MMFF94_ENERGY>  (1) 
50.6429

>  <PUBCHEM_FEATURE_SELFOVERLAP>  (1) 
76.969

>  <PUBCHEM_SHAPE_FINGERPRINT>  (1) 
10165383 225 18272095938185544241
10411042 1 17981607379455840943
11014199 57 18266175222150085751
11756154 67 18268713990752883543
12788726 201 18262785350978272331
13631057 29 18269835474868927946
13690498 29 18200591535502577334
13911987 19 18197490719634217521
14790565 3 17909275680483237264
15463212 79 18261667082790061971
15876981 60 18261115226568277244
16087824 20 18410854370615269131
16114785 44 16009575877206470183
19427546 20 18410856585662950438
20775438 99 17548643821548558797
21120745 212 18268156546714732119
21716022 299 17686908628147644527
22393880 68 18341324544375359264
23523766 6 17692528227883265751
350125 39 18340768153079865049
44249763 50 18339348717912683740
44280117 145 18341337807693318364
504843 32 18340486664917669383
563151 97 18260827094867387402
6700243 42 17912119245264671654
6898599 12 18409729534736501852

>  <PUBCHEM_SHAPE_MULTIPOLES>  (1) 
590.53
16.01
6.59
1.21
48.27
5.45
-0.01
-1.61
4.92
-16.88
2.63
-1.05
-0.8
-1.27

>  <PUBCHEM_SHAPE_SELFOVERLAP>  (1) 
1241.26

>  <PUBCHEM_SHAPE_VOLUME>  (1) 
334.1

>  <PUBCHEM_COORDINATE_TYPE>  (1) 
2
5
10

$$$$
