30299
     RDKit          3D

 20 20  0  0  0  0  0  0  0  0999 V2000
    1.6664   -0.7347    1.0060 O   0  0  0  0  0  0  0  0  0  0  0  0
   -4.2176   -1.3969   -1.1303 O   0  0  0  0  0  0  0  0  0  0  0  0
    4.9486    0.3561   -0.2628 N   0  0  0  0  0  0  0  0  0  0  0  0
    3.9677   -0.5069    0.3784 C   0  0  0  0  0  0  0  0  0  0  0  0
   -5.9170    0.7501   -0.2105 C   0  0  0  0  0  0  0  0  0  0  0  0
   -4.4120    0.9212   -0.4823 C   0  0  0  0  0  0  0  0  0  0  0  0
    5.0450    1.6399    0.4361 C   0  0  0  0  0  0  0  0  0  0  0  0
    6.2604   -0.2945   -0.3077 C   0  0  0  0  0  0  0  0  0  0  0  0
    2.5971    0.1512    0.3855 C   0  0  0  0  0  0  0  0  0  0  0  0
   -3.6759   -0.4007   -0.6575 C   0  0  0  0  0  0  0  0  0  0  0  0
   -6.1295   -0.1046    1.0410 C   0  0  0  0  0  0  0  0  0  0  0  0
   -6.6109    2.1034   -0.0349 C   0  0  0  0  0  0  0  0  0  0  0  0
   -2.2550   -0.4903   -0.2160 C   0  0  0  0  0  0  0  0  0  0  0  0
    6.0159    2.5750   -0.2647 C   0  0  0  0  0  0  0  0  0  0  0  0
    6.1866   -1.6298   -1.0286 C   0  0  0  0  0  0  0  0  0  0  0  0
    0.3697   -0.6540    0.6006 C   0  0  0  0  0  0  0  0  0  0  0  0
   -1.4757    0.6441   -0.2635 C   0  0  0  0  0  0  0  0  0  0  0  0
   -1.7736   -1.7034    0.2238 C   0  0  0  0  0  0  0  0  0  0  0  0
   -0.1461    0.5612    0.1501 C   0  0  0  0  0  0  0  0  0  0  0  0
   -0.4440   -1.7863    0.6374 C   0  0  0  0  0  0  0  0  0  0  0  0
  1  9  1  0
  1 16  1  0
  2 10  2  0
  3  4  1  0
  3  7  1  0
  3  8  1  0
  4  9  1  0
  5  6  1  0
  5 11  1  0
  5 12  1  0
  6 10  1  0
  7 14  1  0
  8 15  1  0
 10 13  1  0
 13 17  2  0
 13 18  1  0
 16 19  2  0
 16 20  1  0
 17 19  1  0
 18 20  2  0
M  END
>  <PUBCHEM_COMPOUND_CID>  (1) 
30299

>  <PUBCHEM_CONFORMER_RMSD>  (1) 
0.8

>  <PUBCHEM_CONFORMER_DIVERSEORDER>  (1) 
1
216
305
283
102
254
279
87
282
180
167
189
311
303
69
8
42
293
26
315
81
218
194
164
251
268
217
22
262
278
173
249
56
313
113
54
61
152
49
94
142
221
58
202
280
10
48
317
264
34
234
240
257
198
308
29
80
222
65
290
177
253
55
266
18
182
89
267
309
171
85
316
154
131
226
237
40
252
223
248
135
200
286
191
66
207
157
108
238
144
60
162
21
101
179
229
170
314
219
91
285
232
37
84
3
105
96
47
63
190
321
231
276
116
28
284
187
156
41
35
90
204
265
213
289
307
318
183
141
43
288
118
103
153
73
124
95
291
74
132
195
176
31
44
36
175
59
45
269
210
302
19
261
16
299
64
174
258
178
147
27
25
211
203
146
137
133
148
201
158
24
181
214
125
38
82
155
225
7
150
126
255
272
100
161
127
304
273
250
109
75
11
106
322
296
215
4
243
86
256
259
78
46
263
111
15
227
160
270
295
129
319
122
52
104
143
33
192
12
165
239
172
199
98
168
88
300
140
163
70
310
2
123
121
244
115
206
212
139
68
79
138
159
112
71
275
120
23
67
281
312
230
292
297
92
130
246
294
72
117
196
13
151
277
193
306
228
145
107
247
205
271
260
57
110
51
93
136
241
233
185
62
287
274
32
114
184
6
245
169
166
134
9
242
208
30
119
224
20
209
76
320
236
197
298
149
220
301
50
14
53
99
186
17
128
39
5
235
97
83
188
77

>  <PUBCHEM_MMFF94_PARTIAL_CHARGES>  (1) 
19
1 -0.36
10 0.42
13 0.09
16 0.08
17 -0.15
18 -0.15
19 -0.15
2 -0.57
20 -0.15
3 -0.81
4 0.27
44 0.15
45 0.15
46 0.15
47 0.15
6 0.06
7 0.27
8 0.27
9 0.28

>  <PUBCHEM_EFFECTIVE_ROTOR_COUNT>  (1) 
9

>  <PUBCHEM_PHARMACOPHORE_FEATURES>  (1) 
5
1 1 acceptor
1 2 acceptor
1 3 cation
3 5 11 12 hydrophobe
6 13 16 17 18 19 20 rings

>  <PUBCHEM_HEAVY_ATOM_COUNT>  (1) 
20

>  <PUBCHEM_ATOM_DEF_STEREO_COUNT>  (1) 
0

>  <PUBCHEM_ATOM_UDEF_STEREO_COUNT>  (1) 
0

>  <PUBCHEM_BOND_DEF_STEREO_COUNT>  (1) 
0

>  <PUBCHEM_BOND_UDEF_STEREO_COUNT>  (1) 
0

>  <PUBCHEM_ISOTOPIC_ATOM_COUNT>  (1) 
0

>  <PUBCHEM_COMPONENT_COUNT>  (1) 
1

>  <PUBCHEM_CACTVS_TAUTO_COUNT>  (1) 
2

>  <PUBCHEM_CONFORMER_ID>  (1) 
0000765B00000001

>  <PUBCHEM_MMFF94_ENERGY>  (1) 
48.5425

>  <PUBCHEM_FEATURE_SELFOVERLAP>  (1) 
25.371

>  <PUBCHEM_SHAPE_FINGERPRINT>  (1) 
10354089 29 16950001426606901252
106641 1 11314322650004545766
11796584 16 14620787219475942238
12236239 1 18410009936082105897
12390115 104 18265053527275267005
12555020 224 12751232627978249653
12670543 26 18202562860829242910
12730499 353 18187368714393882106
13533116 47 18273496763280185660
13914758 101 13254805612009612027
13955234 65 17459174210759132058
14211702 104 9871459967687313853
14251752 14 18131350769599813803
14790565 3 18336827481503908705
14848160 23 9871750187068862697
14933364 13 18408888433968670753
15048467 5 18409163299344264185
15119646 104 15913054153672055870
15183329 4 18060703862260811194
15188451 53 12247684838340485550
18222031 100 13686303500116758754
19489759 90 13901909999250935835
20281389 69 18040429975603624109
20621476 66 18411702080319721849
20645477 70 18202286905845707630
21150785 3 18059848485675745381
21267235 1 18341328985936253559
22079108 93 16008749125681840136
221357 26 18341895169746944908
22224240 67 14996288015768638929
23081809 10 18339912796708923630
23198884 109 17275385396141575393
23402539 116 18343295981134116431
23536379 177 17917711300994512966
23559900 14 17917418869709179128
293599 30 18335417954909948035
29717793 49 17989490710786532830
3004659 81 18343582924501149282
3009799 131 11527947833701795763
328311 84 18409738343450993379
3545911 37 17894349969292489354
4073 2 18188212117232521874
4340502 62 15719388417253979432
4463277 17 18408885135597376257
5104073 3 17676479575374038722
559249 180 10015590510834910721
5718773 13 9439102266546740905
59682541 35 13840281290277459717
59755656 520 17822009800698002443
6328613 192 18342176665824199337

>  <PUBCHEM_SHAPE_MULTIPOLES>  (1) 
394.87
19.1
2.05
0.92
4.76
0.7
-0.01
7.94
-2.47
1.26
-0.11
-0.16
-0.22
0.45

>  <PUBCHEM_SHAPE_SELFOVERLAP>  (1) 
786.98

>  <PUBCHEM_SHAPE_VOLUME>  (1) 
235.9

>  <PUBCHEM_COORDINATE_TYPE>  (1) 
2
5
10

$$$$
