30308
     RDKit          3D

 19 19  0  0  0  0  0  0  0  0999 V2000
   -0.1693   -0.0830   -0.7599 O   0  0  0  0  0  0  0  0  0  0  0  0
   -4.8030   -2.0861   -0.5167 O   0  0  0  0  0  0  0  0  0  0  0  0
    3.2739   -0.0334    0.5543 N   0  0  0  0  0  0  0  0  0  0  0  0
    3.7588    1.1454   -0.1625 C   0  0  0  0  0  0  0  0  0  0  0  0
    4.3173   -1.0559    0.6216 C   0  0  0  0  0  0  0  0  0  0  0  0
    2.0757   -0.5677   -0.0918 C   0  0  0  0  0  0  0  0  0  0  0  0
    4.1051    0.7827   -1.6039 C   0  0  0  0  0  0  0  0  0  0  0  0
    4.9709    1.7191    0.5646 C   0  0  0  0  0  0  0  0  0  0  0  0
    4.6904   -1.5242   -0.7821 C   0  0  0  0  0  0  0  0  0  0  0  0
    3.8316   -2.2216    1.4772 C   0  0  0  0  0  0  0  0  0  0  0  0
    0.9665    0.4719   -0.1094 C   0  0  0  0  0  0  0  0  0  0  0  0
   -1.3977    0.3572   -0.3409 C   0  0  0  0  0  0  0  0  0  0  0  0
   -2.4959   -0.4915   -0.4190 C   0  0  0  0  0  0  0  0  0  0  0  0
   -1.5330    1.6481    0.1571 C   0  0  0  0  0  0  0  0  0  0  0  0
   -3.7464   -0.0431    0.0063 C   0  0  0  0  0  0  0  0  0  0  0  0
   -2.7834    2.0964    0.5823 C   0  0  0  0  0  0  0  0  0  0  0  0
   -3.8903    1.2508    0.5070 C   0  0  0  0  0  0  0  0  0  0  0  0
   -4.9006   -0.9246   -0.0732 C   0  0  0  0  0  0  0  0  0  0  0  0
   -6.2706   -0.4404    0.3890 C   0  0  0  0  0  0  0  0  0  0  0  0
  1 11  1  0
  1 12  1  0
  2 18  2  0
  3  4  1  0
  3  5  1  0
  3  6  1  0
  4  7  1  0
  4  8  1  0
  5  9  1  0
  5 10  1  0
  6 11  1  0
 12 13  2  0
 12 14  1  0
 13 15  1  0
 14 16  2  0
 15 17  2  0
 15 18  1  0
 16 17  1  0
 18 19  1  0
M  END
>  <PUBCHEM_COMPOUND_CID>  (1) 
30308

>  <PUBCHEM_CONFORMER_RMSD>  (1) 
0.8

>  <PUBCHEM_CONFORMER_DIVERSEORDER>  (1) 
3
31
26
8
14
1
12
25
20
5
32
38
18
17
33
19
35
27
30
39
7
22
21
4
11
37
16
2
13
34
28
29
9
6
15
24
23
36
10

>  <PUBCHEM_MMFF94_PARTIAL_CHARGES>  (1) 
19
1 -0.36
11 0.28
12 0.08
13 -0.15
14 -0.15
15 0.09
16 -0.15
17 -0.15
18 0.42
19 0.06
2 -0.57
3 -0.81
38 0.15
39 0.15
4 0.27
40 0.15
41 0.15
5 0.27
6 0.27

>  <PUBCHEM_EFFECTIVE_ROTOR_COUNT>  (1) 
7

>  <PUBCHEM_PHARMACOPHORE_FEATURES>  (1) 
6
1 1 acceptor
1 2 acceptor
1 3 cation
3 4 7 8 hydrophobe
3 5 9 10 hydrophobe
6 12 13 14 15 16 17 rings

>  <PUBCHEM_HEAVY_ATOM_COUNT>  (1) 
19

>  <PUBCHEM_ATOM_DEF_STEREO_COUNT>  (1) 
0

>  <PUBCHEM_ATOM_UDEF_STEREO_COUNT>  (1) 
0

>  <PUBCHEM_BOND_DEF_STEREO_COUNT>  (1) 
0

>  <PUBCHEM_BOND_UDEF_STEREO_COUNT>  (1) 
0

>  <PUBCHEM_ISOTOPIC_ATOM_COUNT>  (1) 
0

>  <PUBCHEM_COMPONENT_COUNT>  (1) 
1

>  <PUBCHEM_CACTVS_TAUTO_COUNT>  (1) 
2

>  <PUBCHEM_CONFORMER_ID>  (1) 
0000766400000003

>  <PUBCHEM_MMFF94_ENERGY>  (1) 
81.2227

>  <PUBCHEM_FEATURE_SELFOVERLAP>  (1) 
30.447

>  <PUBCHEM_SHAPE_FINGERPRINT>  (1) 
10366900 7 17386014944661300840
10912923 1 18408889516184391513
12107183 9 17760927333774404056
12236239 1 18187086148595321285
12596602 18 18273494572409080448
12670546 56 18409165493766506356
12839892 36 18201431442021781255
12916748 109 18272936028955116520
12916754 54 18335136445362716836
13073987 5 18412824672737808384
13167823 11 18410572859981049282
13533116 47 18333449828727262938
13675066 3 17489297539161666662
14341114 176 18413111666821080857
14849402 71 18337947992092309320
15183329 4 8358265847366365473
15196674 1 18341613698215869097
15880784 105 18342742913821484483
17492 89 18340485539488739482
17834072 33 18335422365429917359
17844677 252 18272378550637225032
17857418 61 18260260820113114514
18186145 218 18186801332054900668
18222031 100 17167583778248111516
19050596 39 18339641140164439344
19377110 9 18410283735973377696
200 152 17822009809429835141
20281475 54 18261390014296471372
20645477 56 15339109126600707888
20645477 70 16950558866170224362
21033648 29 15913043175540202033
21065198 48 18409730629837273424
21267235 1 18341057341453764230
220451 1 18335427880605879295
22646028 1 18261391118145238442
2297311 6 17917445223660473853
23402539 116 18272645762792092639
23557571 272 17489042474007872821
23559900 14 18341323509441579081
239999 70 18412829080044186422
3004659 81 18335702711204918386
312423 11 18336834100021852164
32948 21 10809340035856993086
34797466 226 17560809860978551717
4214541 1 18340769239036658057
474 4 17896044398558214972
5104073 3 18343018861201678832
5374978 207 18342736321283931680
573450 72 18339358565760516553
7495541 125 17989200473401500264
77779 3 18342176639821825456
90127 26 18339654368795664488

>  <PUBCHEM_SHAPE_MULTIPOLES>  (1) 
374.29
14.44
2.08
1.04
5.51
0.14
-0.05
3.52
0.81
-0.69
0.44
-1.14
0.15
-1.14

>  <PUBCHEM_SHAPE_SELFOVERLAP>  (1) 
757.569

>  <PUBCHEM_SHAPE_VOLUME>  (1) 
221.9

>  <PUBCHEM_COORDINATE_TYPE>  (1) 
2
5
10

$$$$
