30310
     RDKit          3D

 21 21  0  0  0  0  0  0  0  0999 V2000
    0.9294   -1.4174    0.6028 O   0  0  0  0  0  0  0  0  0  0  0  0
   -5.1367   -1.0979   -1.0581 O   0  0  0  0  0  0  0  0  0  0  0  0
    4.1055    0.4469    0.5109 N   0  0  0  0  0  0  0  0  0  0  0  0
    5.4660    0.0697    0.1194 C   0  0  0  0  0  0  0  0  0  0  0  0
    3.6584    1.6044   -0.2677 C   0  0  0  0  0  0  0  0  0  0  0  0
    3.1917   -0.6727    0.3399 C   0  0  0  0  0  0  0  0  0  0  0  0
    5.4957   -0.3579   -1.3452 C   0  0  0  0  0  0  0  0  0  0  0  0
    5.9635   -1.0504    1.0275 C   0  0  0  0  0  0  0  0  0  0  0  0
    3.5986    1.2529   -1.7515 C   0  0  0  0  0  0  0  0  0  0  0  0
    4.6011    2.7778   -0.0201 C   0  0  0  0  0  0  0  0  0  0  0  0
    1.7929   -0.2994    0.8040 C   0  0  0  0  0  0  0  0  0  0  0  0
   -0.3841   -1.1509    0.3667 C   0  0  0  0  0  0  0  0  0  0  0  0
   -0.9737   -0.0104    0.9118 C   0  0  0  0  0  0  0  0  0  0  0  0
   -1.1416   -2.0196   -0.4191 C   0  0  0  0  0  0  0  0  0  0  0  0
   -3.0408   -0.6145   -0.1079 C   0  0  0  0  0  0  0  0  0  0  0  0
   -5.0943    0.9288    0.2460 C   0  0  0  0  0  0  0  0  0  0  0  0
   -2.3206    0.2616    0.6714 C   0  0  0  0  0  0  0  0  0  0  0  0
   -2.4884   -1.7477   -0.6597 C   0  0  0  0  0  0  0  0  0  0  0  0
   -4.4822   -0.3232   -0.3641 C   0  0  0  0  0  0  0  0  0  0  0  0
   -6.5766    1.0740   -0.0985 C   0  0  0  0  0  0  0  0  0  0  0  0
   -7.1639    2.3458    0.4914 C   0  0  0  0  0  0  0  0  0  0  0  0
  1 11  1  0
  1 12  1  0
  2 19  2  0
  3  4  1  0
  3  5  1  0
  3  6  1  0
  4  7  1  0
  4  8  1  0
  5  9  1  0
  5 10  1  0
  6 11  1  0
 12 13  2  0
 12 14  1  0
 13 17  1  0
 14 18  2  0
 15 17  2  0
 15 18  1  0
 15 19  1  0
 16 19  1  0
 16 20  1  0
 20 21  1  0
M  END
>  <PUBCHEM_COMPOUND_CID>  (1) 
30310

>  <PUBCHEM_CONFORMER_RMSD>  (1) 
0.8

>  <PUBCHEM_CONFORMER_DIVERSEORDER>  (1) 
1
55
66
35
3
40
80
77
71
65
32
18
21
43
8
41
59
85
39
52
45
75
76
91
27
53
16
5
48
17
13
46
12
30
79
42
89
84
81
22
23
56
25
90
72
37
67
33
82
20
63
51
29
11
73
58
83
88
2
36
10
69
87
24
47
86
15
78
70
14
4
49
31
9
44
62
6
60
28
68
7
19
74
34
57
50
38
64
54
26
61

>  <PUBCHEM_MMFF94_PARTIAL_CHARGES>  (1) 
19
1 -0.36
11 0.28
12 0.08
13 -0.15
14 -0.15
15 0.09
16 0.06
17 -0.15
18 -0.15
19 0.42
2 -0.57
3 -0.81
4 0.27
40 0.15
41 0.15
44 0.15
45 0.15
5 0.27
6 0.27

>  <PUBCHEM_EFFECTIVE_ROTOR_COUNT>  (1) 
9

>  <PUBCHEM_PHARMACOPHORE_FEATURES>  (1) 
7
1 1 acceptor
1 2 acceptor
1 21 hydrophobe
1 3 cation
3 4 7 8 hydrophobe
3 5 9 10 hydrophobe
6 12 13 14 15 17 18 rings

>  <PUBCHEM_HEAVY_ATOM_COUNT>  (1) 
21

>  <PUBCHEM_ATOM_DEF_STEREO_COUNT>  (1) 
0

>  <PUBCHEM_ATOM_UDEF_STEREO_COUNT>  (1) 
0

>  <PUBCHEM_BOND_DEF_STEREO_COUNT>  (1) 
0

>  <PUBCHEM_BOND_UDEF_STEREO_COUNT>  (1) 
0

>  <PUBCHEM_ISOTOPIC_ATOM_COUNT>  (1) 
0

>  <PUBCHEM_COMPONENT_COUNT>  (1) 
1

>  <PUBCHEM_CACTVS_TAUTO_COUNT>  (1) 
2

>  <PUBCHEM_CONFORMER_ID>  (1) 
0000766600000001

>  <PUBCHEM_MMFF94_ENERGY>  (1) 
80.0908

>  <PUBCHEM_FEATURE_SELFOVERLAP>  (1) 
35.523

>  <PUBCHEM_SHAPE_FINGERPRINT>  (1) 
10447042 23 14333412233859678702
106641 1 12252197276409196950
11089746 13 18334851740776223890
12236239 1 18408881853973408274
12516196 113 8502652606103294407
12616971 3 18334569166003159254
12670543 26 17561082480122730615
12730499 353 14996281397329440072
13167372 99 18409165493592595616
13533116 47 16878494644823530338
1420 369 10159708992285571332
14251740 57 9150907078724267432
14251752 14 18273213075910014593
14251764 75 16518245333524317764
14341114 176 14418135114948839574
14528608 73 18410290345542969359
14790565 3 18412547579234446473
15048467 5 18411134698292133113
15183329 4 18131357388149886544
15728490 51 8285902572016559384
1577012 14 18408885156971804092
15778101 99 18341613699191496867
17134984 74 13398618446967095141
17959699 21 18411135878558962976
1813 80 12247688196424857770
18335252 114 18336537227619274509
200 152 13758078506054043458
20281389 69 18187079542661514809
20645477 56 16370718236550673539
20645477 70 12103575182161401384
20715895 44 18343866606378731374
21033648 29 17168430471248289696
21298829 104 18335984272071159724
21315764 119 17917717867973187263
21637258 2 11311769549745312051
22079108 93 16950565501994761467
22224240 67 15864075356499232665
23402539 116 18060412525886325159
23559900 14 17274530018565076986
239999 70 11455904572423531900
2838139 119 18335130969680529709
293599 30 18343017766739203275
29717793 49 17988928868665732900
3004659 81 18272370880453005026
3472631 163 18341617056975220965
397830 11 16371307613791165353
465052 167 7997966886218453913
474 4 17749671887034392538
5104073 3 17822285850945837098
542803 24 17167861980528580314
57724786 102 17240772847197998572
59682541 52 16056321605571911877
59755656 520 17530964683326901443
633830 44 18188203325297329570
8988823 20 14261630634436262906

>  <PUBCHEM_SHAPE_MULTIPOLES>  (1) 
415.45
18.07
2.22
1.12
10.76
1
0.28
9.03
0.76
0.34
0.15
-0.97
-0.01
-1.55

>  <PUBCHEM_SHAPE_SELFOVERLAP>  (1) 
835.478

>  <PUBCHEM_SHAPE_VOLUME>  (1) 
247.4

>  <PUBCHEM_COORDINATE_TYPE>  (1) 
2
5
10

$$$$
