30314
     RDKit          3D

 18 19  0  0  0  0  0  0  0  0999 V2000
    1.1281   -3.1448    0.3000 O   0  0  0  0  0  0  0  0  0  0  0  0
   -0.8298   -2.8811   -0.8165 O   0  0  0  0  0  0  0  0  0  0  0  0
   -0.0081   -1.0464    0.5839 C   0  0  0  0  0  0  0  0  0  0  0  0
   -1.2597   -0.2813    0.3155 C   0  0  0  0  0  0  0  0  0  0  0  0
    1.2641   -0.2297    0.3180 C   0  0  0  0  0  0  0  0  0  0  0  0
   -2.1547   -0.0218    1.3535 C   0  0  0  0  0  0  0  0  0  0  0  0
    1.7845    0.5220    1.3430 C   0  0  0  0  0  0  0  0  0  0  0  0
   -1.5358    0.1741   -0.9736 C   0  0  0  0  0  0  0  0  0  0  0  0
    1.8270   -0.2854   -0.9336 C   0  0  0  0  0  0  0  0  0  0  0  0
    0.0342   -2.4305   -0.0775 C   0  0  0  0  0  0  0  0  0  0  0  0
   -3.6017    1.1491   -0.1867 C   0  0  0  0  0  0  0  0  0  0  0  0
    3.5396    1.2320   -0.1579 C   0  0  0  0  0  0  0  0  0  0  0  0
   -3.3255    0.6934    1.1024 C   0  0  0  0  0  0  0  0  0  0  0  0
    2.9403    1.2645    1.1013 C   0  0  0  0  0  0  0  0  0  0  0  0
   -2.7068    0.8894   -1.2247 C   0  0  0  0  0  0  0  0  0  0  0  0
    2.9829    0.4570   -1.1753 C   0  0  0  0  0  0  0  0  0  0  0  0
   -4.8537    1.9134   -0.4553 C   0  0  0  0  0  0  0  0  0  0  0  0
    4.7751    2.0261   -0.4164 C   0  0  0  0  0  0  0  0  0  0  0  0
  1 10  1  0
  2 10  2  0
  3  4  1  0
  3  5  1  0
  3 10  1  0
  4  6  2  0
  4  8  1  0
  5  7  2  0
  5  9  1  0
  6 13  1  0
  7 14  1  0
  8 15  2  0
  9 16  2  0
 11 13  2  0
 11 15  1  0
 11 17  1  0
 12 14  2  0
 12 16  1  0
 12 18  1  0
M  END
>  <PUBCHEM_COMPOUND_CID>  (1) 
30314

>  <PUBCHEM_CONFORMER_RMSD>  (1) 
0.6

>  <PUBCHEM_CONFORMER_DIVERSEORDER>  (1) 
1
7
4
6
3
5
8
2

>  <PUBCHEM_MMFF94_PARTIAL_CHARGES>  (1) 
27
1 -0.65
10 0.66
11 -0.14
12 -0.14
13 -0.15
14 -0.15
15 -0.15
16 -0.15
17 0.14
18 0.14
2 -0.57
20 0.15
21 0.15
22 0.15
23 0.15
24 0.15
25 0.15
26 0.15
27 0.15
3 0.35
34 0.5
4 -0.14
5 -0.14
6 -0.15
7 -0.15
8 -0.15
9 -0.15

>  <PUBCHEM_EFFECTIVE_ROTOR_COUNT>  (1) 
3

>  <PUBCHEM_PHARMACOPHORE_FEATURES>  (1) 
5
1 1 acceptor
1 2 acceptor
3 1 2 10 anion
6 4 6 8 11 13 15 rings
6 5 7 9 12 14 16 rings

>  <PUBCHEM_HEAVY_ATOM_COUNT>  (1) 
18

>  <PUBCHEM_ATOM_DEF_STEREO_COUNT>  (1) 
0

>  <PUBCHEM_ATOM_UDEF_STEREO_COUNT>  (1) 
0

>  <PUBCHEM_BOND_DEF_STEREO_COUNT>  (1) 
0

>  <PUBCHEM_BOND_UDEF_STEREO_COUNT>  (1) 
0

>  <PUBCHEM_ISOTOPIC_ATOM_COUNT>  (1) 
0

>  <PUBCHEM_COMPONENT_COUNT>  (1) 
1

>  <PUBCHEM_CACTVS_TAUTO_COUNT>  (1) 
1

>  <PUBCHEM_CONFORMER_ID>  (1) 
0000766A00000001

>  <PUBCHEM_MMFF94_ENERGY>  (1) 
50.1967

>  <PUBCHEM_FEATURE_SELFOVERLAP>  (1) 
25.43

>  <PUBCHEM_SHAPE_FINGERPRINT>  (1) 
10165383 225 18339661008509278832
10498660 4 18411698785863813709
12138202 97 18129384959216767374
12251169 10 15140961763782338768
12363563 72 9655579616736947420
12500047 106 18268994348952993100
12532896 13 18409732901991225358
12633257 1 14923946781679435252
12730499 353 18339088094964681049
12788726 201 17977933906474682022
12892183 10 14562801119352919237
13134695 92 17757823433903507366
13294875 104 18201143387439620130
13296908 3 9511461095745072105
13544653 18 9367345907869630904
13583140 156 16806155687267349205
13681431 1 17692254040780104390
13955234 65 18191591839671578171
14123255 52 18409730668339030716
15309172 13 18408609170937014881
15342168 16 18335699421349907101
15775835 57 18409725166469788357
15885798 251 9007061288023565911
17134986 127 18410575076263093990
1741750 31 18338796818513878696
1813 80 17268071242392953718
18186145 218 18201169792523846600
18219364 16 18339654428814606025
18222031 100 11386372529943730193
19765921 60 18131058338404280179
19862831 5 17418088793822862273
200 152 11671789268899087192
204376 136 18409450305806114517
20600515 1 16893947477413981026
20645477 56 18196384825652754592
20871998 22 9079110051155299398
21499 59 18412543202155908221
21524375 3 18335697247616257931
21618674 25 18260267404783262665
21756936 100 16807310226854911724
2255824 54 18125717881743144655
22907989 373 17768530839048751700
23402539 116 18271801346114668140
23419403 2 17614616571523936962
23557571 272 18054801847342207132
23559900 14 16951702272443088115
23598291 2 17272861892243652385
25 1 17988373615008804392
27216 239 18042127716172921393
3082319 5 15913330190850871537
3729539 64 18049751550086852486
4028521 119 18060420226599656841
458136 41 18339933623269157643
474 4 18411699876759048681
495365 180 18266447707971248921
59755656 520 18059031560588032403
633830 44 17845113795397760665
6442390 28 18339093678058714539
7097593 13 15864061066368020360
7364860 26 18195242209205811515
7808743 9 18263083382705716476
7970288 3 9439404635579692621
81228 2 17834675272348101450
84936 182 18200028417739326977

>  <PUBCHEM_SHAPE_MULTIPOLES>  (1) 
358.69
7.83
2.56
1.31
0.59
2.36
0.12
-7.76
-0.85
-0.38
-0.35
0.08
-0.18
0.21

>  <PUBCHEM_SHAPE_SELFOVERLAP>  (1) 
769.918

>  <PUBCHEM_SHAPE_VOLUME>  (1) 
199

>  <PUBCHEM_COORDINATE_TYPE>  (1) 
2
5
10

$$$$
