3032
     RDKit          3D

 19 20  0  0  0  0  0  0  0  0999 V2000
    1.9660    1.3791   -2.3881 Cl  0  0  0  0  0  0  0  0  0  0  0  0
    1.1355   -1.7746    1.9901 Cl  0  0  0  0  0  0  0  0  0  0  0  0
   -3.7623   -1.7874    0.3017 O   0  0  0  0  0  0  0  0  0  0  0  0
   -1.9970   -2.9127   -0.6192 O   0  0  0  0  0  0  0  0  0  0  0  0
    0.2775   -0.1865   -0.4323 N   0  0  0  0  0  0  0  0  0  0  0  0
   -0.7631    0.6712   -0.0128 C   0  0  0  0  0  0  0  0  0  0  0  0
   -2.0784    0.4497   -0.4209 C   0  0  0  0  0  0  0  0  0  0  0  0
   -2.4277   -0.6976   -1.3118 C   0  0  0  0  0  0  0  0  0  0  0  0
    1.6616   -0.1989   -0.1787 C   0  0  0  0  0  0  0  0  0  0  0  0
   -0.4636    1.7489    0.8206 C   0  0  0  0  0  0  0  0  0  0  0  0
   -3.0942    1.3059    0.0043 C   0  0  0  0  0  0  0  0  0  0  0  0
   -1.4793    2.6051    1.2458 C   0  0  0  0  0  0  0  0  0  0  0  0
   -2.7946    2.3836    0.8377 C   0  0  0  0  0  0  0  0  0  0  0  0
    2.5402    0.4930   -1.0200 C   0  0  0  0  0  0  0  0  0  0  0  0
    2.1727   -0.9025    0.9175 C   0  0  0  0  0  0  0  0  0  0  0  0
    3.9121    0.4814   -0.7682 C   0  0  0  0  0  0  0  0  0  0  0  0
    3.5445   -0.9142    1.1694 C   0  0  0  0  0  0  0  0  0  0  0  0
    4.4143   -0.2222    0.3265 C   0  0  0  0  0  0  0  0  0  0  0  0
   -2.7642   -1.9211   -0.4615 C   0  0  0  0  0  0  0  0  0  0  0  0
  1 14  1  0
  2 15  1  0
  3 19  1  0
  4 19  2  0
  5  6  1  0
  5  9  1  0
  6  7  2  0
  6 10  1  0
  7  8  1  0
  7 11  1  0
  8 19  1  0
  9 14  2  0
  9 15  1  0
 10 12  2  0
 11 13  2  0
 12 13  1  0
 14 16  1  0
 15 17  2  0
 16 18  2  0
 17 18  1  0
M  CHG  1   3  -1
M  END
>  <PUBCHEM_COMPOUND_CID>  (1) 
3032

>  <PUBCHEM_CONFORMER_RMSD>  (1) 
0.6

>  <PUBCHEM_CONFORMER_DIVERSEORDER>  (1) 
1
4
12
13
9
7
10
8
5
11
2
6
3

>  <PUBCHEM_MMFF94_PARTIAL_CHARGES>  (1) 
27
1 -0.18
10 -0.15
11 -0.15
12 -0.15
13 -0.15
14 0.18
15 0.18
16 -0.15
17 -0.15
18 -0.15
19 0.91
2 -0.18
20 0.4
23 0.15
24 0.15
25 0.15
26 0.15
27 0.15
28 0.15
29 0.15
3 -0.9
4 -0.9
5 -0.6
6 0.1
7 -0.14
8 0.04
9 0.1

>  <PUBCHEM_EFFECTIVE_ROTOR_COUNT>  (1) 
4

>  <PUBCHEM_PHARMACOPHORE_FEATURES>  (1) 
7
1 3 acceptor
1 4 acceptor
1 5 cation
1 5 donor
3 3 4 19 anion
6 6 7 10 11 12 13 rings
6 9 14 15 16 17 18 rings

>  <PUBCHEM_HEAVY_ATOM_COUNT>  (1) 
19

>  <PUBCHEM_ATOM_DEF_STEREO_COUNT>  (1) 
0

>  <PUBCHEM_ATOM_UDEF_STEREO_COUNT>  (1) 
0

>  <PUBCHEM_BOND_DEF_STEREO_COUNT>  (1) 
0

>  <PUBCHEM_BOND_UDEF_STEREO_COUNT>  (1) 
0

>  <PUBCHEM_ISOTOPIC_ATOM_COUNT>  (1) 
0

>  <PUBCHEM_COMPONENT_COUNT>  (1) 
1

>  <PUBCHEM_CACTVS_TAUTO_COUNT>  (1) 
1

>  <PUBCHEM_CONFORMER_ID>  (1) 
00000BD800000001

>  <PUBCHEM_MMFF94_ENERGY>  (1) 
67.1164

>  <PUBCHEM_FEATURE_SELFOVERLAP>  (1) 
35.574

>  <PUBCHEM_SHAPE_FINGERPRINT>  (1) 
10366900 7 17418079993229001488
114674 6 16748455761068701283
11578080 2 17972281162857239708
11640471 11 18262246499526808800
11725454 13 14420082491580165294
12236239 1 18334012753206142860
12363563 72 17916290822508748511
12553582 1 18199465648533468487
12596599 1 18261108513866909934
12788726 201 18267602341161822579
13032168 30 18260544580075626346
13538477 17 18410855421500096272
13583140 156 17202461352803229074
13764800 53 17703509883210702289
13965767 371 17544488457131393664
14115302 16 18408879625175428205
14787075 74 17833260201267944004
15279307 12 18263362503675929939
15375462 189 18263086676950491563
16752209 62 18341879784904877119
16945 1 18201165355764912921
19433438 48 18114171987501469184
20510252 161 18202566159532827483
20645476 183 18263645078654904565
20905425 154 17842553221732414960
21618674 53 18337404742103549296
21634736 98 18190743218436851126
21639500 275 17095814307944214836
232386 152 18342731948833066773
23493267 7 18130509626145976232
23557571 272 17846227660975103404
23559900 14 17845377648640334964
23598288 3 18411697677914920567
23598291 2 18114184073249400318
23598294 1 18342736299846044675
238 59 16588305063557848788
4340502 62 17459769038107510401
474 4 17967542255125095912
5902787 121 18127971025670207383
6049 1 16989123158335141152
6992083 37 18116431432109157940
7097593 13 18047463431501794842
7615 1 18260272957843712884
77492 1 18334012757506358988
81228 2 17918001538110988265

>  <PUBCHEM_SHAPE_MULTIPOLES>  (1) 
378.03
7.04
2.67
1.69
3.07
0.58
0.24
0.67
0.07
-2.75
-0.48
0.7
-0.27
-2.22

>  <PUBCHEM_SHAPE_SELFOVERLAP>  (1) 
792.07

>  <PUBCHEM_SHAPE_VOLUME>  (1) 
214.2

>  <PUBCHEM_COORDINATE_TYPE>  (1) 
2
5
10

$$$$
