30333
     RDKit          3D

 13 15  0  0  1  0  0  0  0  0999 V2000
   -3.8306    0.2562   -0.4788 O   0  0  0  0  0  0  0  0  0  0  0  0
   -2.9176   -0.2469    0.4973 C   0  0  0  0  0  0  0  0  0  0  0  0
   -3.5813   -1.1554   -0.4875 C   0  0  0  0  0  0  0  0  0  0  0  0
   -1.4831    0.1136    0.3163 C   0  0  0  0  0  0  0  0  0  0  0  0
   -0.5110   -0.8870    0.2877 C   0  0  0  0  0  0  0  0  0  0  0  0
    0.8453   -0.5640    0.1183 C   0  0  0  0  0  0  0  0  0  0  0  0
   -1.1138    1.4481    0.1757 C   0  0  0  0  0  0  0  0  0  0  0  0
    1.2207    0.7930   -0.0244 C   0  0  0  0  0  0  0  0  0  0  0  0
    0.2290    1.7870    0.0064 C   0  0  0  0  0  0  0  0  0  0  0  0
    1.8370   -1.5579    0.0872 C   0  0  0  0  0  0  0  0  0  0  0  0
    2.5768    1.1162   -0.1940 C   0  0  0  0  0  0  0  0  0  0  0  0
    3.1797   -1.2187   -0.0819 C   0  0  0  0  0  0  0  0  0  0  0  0
    3.5490    0.1158   -0.2222 C   0  0  0  0  0  0  0  0  0  0  0  0
  1  2  1  0
  1  3  1  0
  2  3  1  0
  2  4  1  0
  4  5  2  0
  4  7  1  0
  5  6  1  0
  6  8  2  0
  6 10  1  0
  7  9  2  0
  8  9  1  0
  8 11  1  0
 10 12  2  0
 11 13  2  0
 12 13  1  0
M  END
>  <PUBCHEM_COMPOUND_CID>  (1) 
30333

>  <PUBCHEM_CONFORMER_RMSD>  (1) 
0.6

>  <PUBCHEM_CONFORMER_DIVERSEORDER>  (1) 
1
2

>  <PUBCHEM_MMFF94_PARTIAL_CHARGES>  (1) 
21
1 -0.3
10 -0.15
11 -0.15
12 -0.15
13 -0.15
14 0.1
15 0.1
16 0.1
17 0.15
18 0.15
19 0.15
2 0.08
20 0.15
21 0.15
22 0.15
23 0.15
3 -0.05
4 -0.03
5 -0.15
7 -0.15
9 -0.15

>  <PUBCHEM_EFFECTIVE_ROTOR_COUNT>  (1) 
1.6

>  <PUBCHEM_PHARMACOPHORE_FEATURES>  (1) 
3
1 1 acceptor
6 4 5 6 7 8 9 rings
6 6 8 10 11 12 13 rings

>  <PUBCHEM_HEAVY_ATOM_COUNT>  (1) 
13

>  <PUBCHEM_ATOM_DEF_STEREO_COUNT>  (1) 
0

>  <PUBCHEM_ATOM_UDEF_STEREO_COUNT>  (1) 
1

>  <PUBCHEM_BOND_DEF_STEREO_COUNT>  (1) 
0

>  <PUBCHEM_BOND_UDEF_STEREO_COUNT>  (1) 
0

>  <PUBCHEM_ISOTOPIC_ATOM_COUNT>  (1) 
0

>  <PUBCHEM_COMPONENT_COUNT>  (1) 
1

>  <PUBCHEM_CACTVS_TAUTO_COUNT>  (1) 
1

>  <PUBCHEM_CONFORMER_ID>  (1) 
0000767D00000001

>  <PUBCHEM_MMFF94_ENERGY>  (1) 
34.6114

>  <PUBCHEM_FEATURE_SELFOVERLAP>  (1) 
15.249

>  <PUBCHEM_SHAPE_FINGERPRINT>  (1) 
10219947 1 18342179972500091398
11132069 177 18341607131331952562
11206711 2 18189342281429738780
11401426 45 18410848875953950521
11471102 20 18408882949184547156
11543360 7 15647631058472916146
11769659 78 18340765957634034770
11806522 49 18341047518452010583
12032990 46 18409737265419229923
13380535 76 18336266833716268082
13571099 22 18410009940287363541
14144814 61 18413111653788440555
14251717 144 18411416245434098166
14289901 80 15195287538204691323
14325111 11 18410576192843912017
14576447 43 18199739422538768103
14993402 34 18273496792553848151
15477762 27 18339641247575596983
15536298 74 18343865528510732008
15757776 16 18407755937076515978
16945 1 18336277820041943232
18186145 218 17530963575108774099
193761 8 17761212111549270690
200 152 18272364261312309423
20201158 50 18334016094332029130
20645477 70 18411134710686840471
21267235 1 18411710880238310295
21501502 16 18266183833549140160
21501925 9 18336538335931638514
221490 88 18048037660181941811
23402539 116 18411410705263896534
23402655 69 18410291385104520189
23463225 33 18410858737351797454
23552423 10 18188780431214635898
23559900 14 18409726236655318402
2748010 2 18265615386011154244
528886 8 18410572933227446146
53812654 25 18130497608880417934
57096353 35 18410018762055296372
581208 293 18411979200035843144
63268167 104 18411141367774970233
7364860 26 18199466739228236808
8809292 202 18187090593385754891

>  <PUBCHEM_SHAPE_MULTIPOLES>  (1) 
261.66
6.15
1.68
0.69
2.38
0.21
0
-1.55
0.9
-0.45
0.02
0.16
-0.03
-0.18

>  <PUBCHEM_SHAPE_SELFOVERLAP>  (1) 
576.561

>  <PUBCHEM_SHAPE_VOLUME>  (1) 
142.6

>  <PUBCHEM_COORDINATE_TYPE>  (1) 
2
5
10

$$$$
