30338
     RDKit          3D

 19 19  0  0  0  0  0  0  0  0999 V2000
    3.5366    0.5466   -0.4822 S   0  0  0  0  0  0  0  0  0  0  0  0
    4.0605   -0.2310   -1.5961 O   0  0  0  0  0  0  0  0  0  0  0  0
    3.7386    1.9888   -0.4496 O   0  0  0  0  0  0  0  0  0  0  0  0
   -2.7027   -1.7699    0.0438 O   0  0  0  0  0  0  0  0  0  0  0  0
   -3.1494    0.5045    0.0152 N   0  0  0  0  0  0  0  0  0  0  0  0
   -4.5903    0.3908    0.1494 C   0  0  0  0  0  0  0  0  0  0  0  0
    4.2342   -0.1081    1.0172 C   0  0  0  0  0  0  0  0  0  0  0  0
    1.8286    0.2112   -0.3483 C   0  0  0  0  0  0  0  0  0  0  0  0
   -5.2006    1.7923    0.2653 C   0  0  0  0  0  0  0  0  0  0  0  0
   -5.1538   -0.3199   -1.0857 C   0  0  0  0  0  0  0  0  0  0  0  0
   -4.9197   -0.4184    1.4091 C   0  0  0  0  0  0  0  0  0  0  0  0
    5.7325    0.1535    1.0596 C   0  0  0  0  0  0  0  0  0  0  0  0
    3.9255   -1.5931    1.1377 C   0  0  0  0  0  0  0  0  0  0  0  0
   -0.8704   -0.3181   -0.1393 C   0  0  0  0  0  0  0  0  0  0  0  0
   -2.3240   -0.6037   -0.0260 C   0  0  0  0  0  0  0  0  0  0  0  0
    1.3131   -0.9889   -0.8379 C   0  0  0  0  0  0  0  0  0  0  0  0
    0.9790    1.1437    0.2472 C   0  0  0  0  0  0  0  0  0  0  0  0
   -0.0518   -1.2565   -0.7323 C   0  0  0  0  0  0  0  0  0  0  0  0
   -0.3858    0.8760    0.3529 C   0  0  0  0  0  0  0  0  0  0  0  0
  1  2  2  0
  1  3  2  0
  1  7  1  0
  1  8  1  0
  4 15  2  0
  5  6  1  0
  5 15  1  0
  6  9  1  0
  6 10  1  0
  6 11  1  0
  7 12  1  0
  7 13  1  0
  8 16  2  0
  8 17  1  0
 14 15  1  0
 14 18  2  0
 14 19  1  0
 16 18  1  0
 17 19  2  0
M  END
>  <PUBCHEM_COMPOUND_CID>  (1) 
30338

>  <PUBCHEM_CONFORMER_RMSD>  (1) 
0.6

>  <PUBCHEM_CONFORMER_DIVERSEORDER>  (1) 
3
11
1
9
8
5
7
6
4
10
2

>  <PUBCHEM_MMFF94_PARTIAL_CHARGES>  (1) 
19
1 1.2
14 0.09
15 0.54
16 -0.15
17 -0.15
18 -0.15
19 -0.15
2 -0.65
21 0.37
3 -0.65
37 0.15
38 0.15
39 0.15
4 -0.57
40 0.15
5 -0.73
6 0.3
7 0.11
8 -0.01

>  <PUBCHEM_EFFECTIVE_ROTOR_COUNT>  (1) 
5

>  <PUBCHEM_PHARMACOPHORE_FEATURES>  (1) 
7
1 2 acceptor
1 3 acceptor
1 4 acceptor
1 5 donor
3 7 12 13 hydrophobe
4 6 9 10 11 hydrophobe
6 8 14 16 17 18 19 rings

>  <PUBCHEM_HEAVY_ATOM_COUNT>  (1) 
19

>  <PUBCHEM_ATOM_DEF_STEREO_COUNT>  (1) 
0

>  <PUBCHEM_ATOM_UDEF_STEREO_COUNT>  (1) 
0

>  <PUBCHEM_BOND_DEF_STEREO_COUNT>  (1) 
0

>  <PUBCHEM_BOND_UDEF_STEREO_COUNT>  (1) 
0

>  <PUBCHEM_ISOTOPIC_ATOM_COUNT>  (1) 
0

>  <PUBCHEM_COMPONENT_COUNT>  (1) 
1

>  <PUBCHEM_CACTVS_TAUTO_COUNT>  (1) 
2

>  <PUBCHEM_CONFORMER_ID>  (1) 
0000768200000003

>  <PUBCHEM_MMFF94_ENERGY>  (1) 
40.5225

>  <PUBCHEM_FEATURE_SELFOVERLAP>  (1) 
35.538

>  <PUBCHEM_SHAPE_FINGERPRINT>  (1) 
11089746 13 18340477932779508624
11128504 68 9295279569341851930
11132069 177 18060139851207913806
11401426 45 17775563147931924365
11405975 8 18260550073169830312
11543360 7 12175621780360429839
11796584 16 17168140126757944251
12107183 9 17757543058427375472
12236239 1 18333448742580273016
12670546 56 17894341172830208485
12969540 114 16343411826445934717
13167823 11 17967250914191716915
13533116 47 18040711429817518874
13583140 156 17894907464536977579
13675066 3 16877661275181389455
13760787 19 18114467850566166174
14251718 22 12103558697417627217
14251758 9 16515960372510439727
14251764 18 18335982055487317217
14528608 73 11959723885049473706
15142383 8 17023454257840235924
15375358 24 18273501169336584231
15788980 27 16805321102423498175
17349148 13 18273500056844952913
17844677 252 18113343028685747237
1813 80 15864354606029282150
19489759 90 17846494833784285555
19784866 9 18409165493687417858
200 152 14979960263716671507
20645477 70 16081088165264677938
21150785 3 14476667620880545097
23402539 116 18341323432015960725
23402655 69 17917150503616402525
23522609 53 8357408344567617015
23559900 14 18129957710486109758
26918003 58 17603301553043392826
2916195 48 17346588694771031601
300161 21 18040711506768012732
34797466 226 14333127519987328265
34934 24 18131063818582323727
4072396 5 18272080557258329442
42 15 17458063754900199723
4325135 7 10663817490330732489
465052 167 18187087235137969634
5104073 3 18337392763260283193
5374978 207 18272649039504005752
542803 24 18412267241948977629
59755656 215 18200600194536376406
633830 44 18411702123042457582
7495541 125 17894920675650924489
8272917 22 18186803561206458162
9971528 1 17561370569333389348

>  <PUBCHEM_SHAPE_MULTIPOLES>  (1) 
372.27
13.14
1.54
1.18
3.92
0.15
-0.04
1.85
-2.65
0.08
-0.02
-0.51
-0.22
-0.5

>  <PUBCHEM_SHAPE_SELFOVERLAP>  (1) 
749.645

>  <PUBCHEM_SHAPE_VOLUME>  (1) 
220.4

>  <PUBCHEM_COORDINATE_TYPE>  (1) 
2
5
10

$$$$
