30339
     RDKit          3D

 16 16  0  0  0  0  0  0  0  0999 V2000
    2.6459    0.4241    0.4494 S   0  0  0  0  0  0  0  0  0  0  0  0
    3.0492    1.7986    0.2240 O   0  0  0  0  0  0  0  0  0  0  0  0
    3.0059   -0.2584    1.6774 O   0  0  0  0  0  0  0  0  0  0  0  0
   -3.9598    1.2506   -0.3625 O   0  0  0  0  0  0  0  0  0  0  0  0
   -3.9149   -1.0395    0.0063 N   0  0  0  0  0  0  0  0  0  0  0  0
   -5.2837   -1.1652   -0.1332 N   0  0  0  0  0  0  0  0  0  0  0  0
    3.2352   -0.5623   -0.9012 C   0  0  0  0  0  0  0  0  0  0  0  0
    0.8890    0.3616    0.2802 C   0  0  0  0  0  0  0  0  0  0  0  0
    2.6697   -1.9720   -0.8103 C   0  0  0  0  0  0  0  0  0  0  0  0
    4.7565   -0.5739   -0.9209 C   0  0  0  0  0  0  0  0  0  0  0  0
    0.2484    1.3197   -0.4877 C   0  0  0  0  0  0  0  0  0  0  0  0
    0.1824   -0.6435    0.9190 C   0  0  0  0  0  0  0  0  0  0  0  0
   -1.8661    0.2657    0.0164 C   0  0  0  0  0  0  0  0  0  0  0  0
   -1.1394    1.2714   -0.6204 C   0  0  0  0  0  0  0  0  0  0  0  0
   -1.2055   -0.6918    0.7862 C   0  0  0  0  0  0  0  0  0  0  0  0
   -3.3128    0.2148   -0.1228 C   0  0  0  0  0  0  0  0  0  0  0  0
  1  2  2  0
  1  3  2  0
  1  7  1  0
  1  8  1  0
  4 16  2  0
  5  6  1  0
  5 16  1  0
  7  9  1  0
  7 10  1  0
  8 11  2  0
  8 12  1  0
 11 14  1  0
 12 15  2  0
 13 14  2  0
 13 15  1  0
 13 16  1  0
M  END
>  <PUBCHEM_COMPOUND_CID>  (1) 
30339

>  <PUBCHEM_CONFORMER_RMSD>  (1) 
0.6

>  <PUBCHEM_CONFORMER_DIVERSEORDER>  (1) 
1
2
6
5
3
4

>  <PUBCHEM_MMFF94_PARTIAL_CHARGES>  (1) 
21
1 1.2
11 -0.15
12 -0.15
13 0.09
14 -0.15
15 -0.15
16 0.54
2 -0.65
24 0.15
25 0.15
26 0.15
27 0.15
28 0.37
29 0.36
3 -0.65
30 0.36
4 -0.57
5 -0.42
6 -0.73
7 0.11
8 -0.01

>  <PUBCHEM_EFFECTIVE_ROTOR_COUNT>  (1) 
4

>  <PUBCHEM_PHARMACOPHORE_FEATURES>  (1) 
7
1 2 acceptor
1 3 acceptor
1 4 acceptor
1 5 donor
1 6 donor
3 7 9 10 hydrophobe
6 8 11 12 13 14 15 rings

>  <PUBCHEM_HEAVY_ATOM_COUNT>  (1) 
16

>  <PUBCHEM_ATOM_DEF_STEREO_COUNT>  (1) 
0

>  <PUBCHEM_ATOM_UDEF_STEREO_COUNT>  (1) 
0

>  <PUBCHEM_BOND_DEF_STEREO_COUNT>  (1) 
0

>  <PUBCHEM_BOND_UDEF_STEREO_COUNT>  (1) 
0

>  <PUBCHEM_ISOTOPIC_ATOM_COUNT>  (1) 
0

>  <PUBCHEM_COMPONENT_COUNT>  (1) 
1

>  <PUBCHEM_CACTVS_TAUTO_COUNT>  (1) 
2

>  <PUBCHEM_CONFORMER_ID>  (1) 
0000768300000001

>  <PUBCHEM_MMFF94_ENERGY>  (1) 
29.0787

>  <PUBCHEM_FEATURE_SELFOVERLAP>  (1) 
37.043

>  <PUBCHEM_SHAPE_FINGERPRINT>  (1) 
12032990 46 18410577292635043149
12251169 10 11815605355768610022
12616999 72 18341056285012934046
12644460 14 14836114511645237858
12670546 177 17894920662671012751
13296908 3 18342737403647299765
13538477 17 16153433878277121344
13705890 14 18060137643552441074
13760787 5 16588022377400444857
14252887 29 18411702114162222897
14289901 80 17846776347246935929
14911166 2 17749393688922432919
14993402 34 16805326604012788951
15477762 27 18272656719016346214
15536298 74 18409165553806546617
15775835 57 15502386629543510806
15848700 24 18408039619465917932
16945 1 18260263006172164912
17834074 16 18272370884147001447
18186145 218 18187641392844936549
19026448 4 17917704695598646937
19784866 240 17417827093060127670
200 152 17846501409199860982
20201158 50 18339932528337190758
20279233 1 18408327700524238538
20281475 54 18337674105092948419
20374829 77 18337674109699360118
20523700 14 16660651769061327802
20645476 183 16371018424446516642
20645477 70 18060707182202219494
20871999 31 18041008344468389774
23402539 116 18113616755599036766
23557571 272 18334294262183967413
23559900 14 18342173367125473664
2748010 2 17606975154562282217
3286 77 17846781780517689184
3323516 105 18413109437495930799
465052 167 16200154334922949751
474 4 15286506382152888956
4990 188 18408888412409334390
581208 293 18272928341005705294
633830 44 18407755928570951677
7364860 26 18265058118336908652
9709674 26 18336830908650265107

>  <PUBCHEM_SHAPE_MULTIPOLES>  (1) 
305.55
8.91
1.57
1.06
4.85
0.01
0.22
2.54
-1.75
-0.21
-0.27
-0.84
0.12
0.68

>  <PUBCHEM_SHAPE_SELFOVERLAP>  (1) 
617.76

>  <PUBCHEM_SHAPE_VOLUME>  (1) 
179.6

>  <PUBCHEM_COORDINATE_TYPE>  (1) 
2
5
10

$$$$
