30337
     RDKit          3D

 16 18  0  0  1  0  0  0  0  0999 V2000
   -0.2653    1.2292   -0.7949 O   0  0  0  0  0  0  0  0  0  0  0  0
   -1.8906   -0.6572    0.9386 O   0  0  0  0  0  0  0  0  0  0  0  0
    1.5467   -1.0463   -0.1478 O   0  0  0  0  0  0  0  0  0  0  0  0
   -2.4223    0.2692   -1.1541 O   0  0  0  0  0  0  0  0  0  0  0  0
    2.7029    1.0183   -0.3673 O   0  0  0  0  0  0  0  0  0  0  0  0
    0.5035   -0.4771    0.6391 C   0  0  0  0  0  0  0  0  0  0  0  0
   -0.8103   -0.9247    0.0460 C   0  0  0  0  0  0  0  0  0  0  0  0
    0.4163    1.0326    0.4600 C   0  0  0  0  0  0  0  0  0  0  0  0
   -1.0190    0.0415   -1.0968 C   0  0  0  0  0  0  0  0  0  0  0  0
   -2.9411   -0.1308    0.1196 C   0  0  0  0  0  0  0  0  0  0  0  0
    1.7635    1.7316    0.4311 C   0  0  0  0  0  0  0  0  0  0  0  0
    2.8003   -0.3701   -0.0313 C   0  0  0  0  0  0  0  0  0  0  0  0
   -3.5435    1.0818    0.8158 C   0  0  0  0  0  0  0  0  0  0  0  0
   -3.9897   -1.2149   -0.1034 C   0  0  0  0  0  0  0  0  0  0  0  0
    3.4418   -0.5927    1.3433 C   0  0  0  0  0  0  0  0  0  0  0  0
    3.7067   -0.9904   -1.0980 C   0  0  0  0  0  0  0  0  0  0  0  0
  1  8  1  0
  1  9  1  0
  2  7  1  0
  2 10  1  0
  3  6  1  0
  3 12  1  0
  4  9  1  0
  4 10  1  0
  5 11  1  0
  5 12  1  0
  6  7  1  0
  6  8  1  0
  7  9  1  0
  8 11  1  0
 10 13  1  0
 10 14  1  0
 12 15  1  0
 12 16  1  0
M  END
>  <PUBCHEM_COMPOUND_CID>  (1) 
30337

>  <PUBCHEM_CONFORMER_RMSD>  (1) 
0.6

>  <PUBCHEM_CONFORMER_DIVERSEORDER>  (1) 
1
2

>  <PUBCHEM_MMFF94_PARTIAL_CHARGES>  (1) 
12
1 -0.56
10 0.56
11 0.28
12 0.56
2 -0.56
3 -0.56
4 -0.56
5 -0.56
6 0.28
7 0.28
8 0.28
9 0.56

>  <PUBCHEM_EFFECTIVE_ROTOR_COUNT>  (1) 
1.6

>  <PUBCHEM_PHARMACOPHORE_FEATURES>  (1) 
10
1 1 acceptor
1 2 acceptor
1 3 acceptor
1 4 acceptor
1 5 acceptor
3 10 13 14 hydrophobe
3 12 15 16 hydrophobe
5 1 6 7 8 9 rings
5 2 4 7 9 10 rings
6 3 5 6 8 11 12 rings

>  <PUBCHEM_HEAVY_ATOM_COUNT>  (1) 
16

>  <PUBCHEM_ATOM_DEF_STEREO_COUNT>  (1) 
4

>  <PUBCHEM_ATOM_UDEF_STEREO_COUNT>  (1) 
0

>  <PUBCHEM_BOND_DEF_STEREO_COUNT>  (1) 
0

>  <PUBCHEM_BOND_UDEF_STEREO_COUNT>  (1) 
0

>  <PUBCHEM_ISOTOPIC_ATOM_COUNT>  (1) 
0

>  <PUBCHEM_COMPONENT_COUNT>  (1) 
1

>  <PUBCHEM_CACTVS_TAUTO_COUNT>  (1) 
1

>  <PUBCHEM_CONFORMER_ID>  (1) 
0000768100000001

>  <PUBCHEM_MMFF94_ENERGY>  (1) 
49.1653

>  <PUBCHEM_FEATURE_SELFOVERLAP>  (1) 
51.815

>  <PUBCHEM_SHAPE_FINGERPRINT>  (1) 
10130415 120 18335698325937723512
10922523 26 17632581500378024421
10980938 120 18270684289218284480
11132069 177 18341328899097754913
11471102 20 18410571799102891780
11769659 78 18340480188006727623
12032990 46 18410296912548101327
12932764 1 17821723940137175730
13296908 3 18060702779602128486
13571099 22 17632582617085176532
13581323 91 16056881355426388127
13675066 3 17561363967620307443
13760787 5 17240485788404878703
14144814 61 18342738533060181401
14289901 80 17774720973612355731
15219456 202 18187637041974344476
15309172 13 18187083945034648475
15375462 478 17918276458967371409
16945 1 18335414630225452734
17844478 74 17748828501301768901
18186145 218 18333449833037794396
18511873 20 17846502504263625193
19026448 4 17346878935860486507
19422 9 18343026605154059965
200 152 18271793671245246895
20201158 50 18334856099994131482
20279233 1 17458899435266361104
20281407 28 17312822697240728739
20281475 54 18333732386077994970
20645477 70 18411977000865141663
21501502 16 18264485276851745106
23402539 116 17385995157425221350
23493267 7 14996556244913201409
23557571 272 15503196982255523596
23559900 14 12535357813557764860
2748010 2 18117559741460991978
296302 2 13326567479788968962
3286 77 18339071687598759945
474 4 16485261067391482896
57812782 119 17847058904676659313
7364860 26 18129662044837407704
74978 22 18201157753577437690
77492 1 17131835399438181133

>  <PUBCHEM_SHAPE_MULTIPOLES>  (1) 
299.93
6.73
1.43
1.12
1.05
0.36
0.01
-1.41
-0.44
-0.16
0
-0.29
-0.06
0.03

>  <PUBCHEM_SHAPE_SELFOVERLAP>  (1) 
638.071

>  <PUBCHEM_SHAPE_VOLUME>  (1) 
168.1

>  <PUBCHEM_COORDINATE_TYPE>  (1) 
2
5
10

$$$$
