30335
     RDKit          3D

 24 26  0  0  1  0  0  0  0  0999 V2000
    0.2489    1.0418    2.1317 O   0  0  0  0  0  0  0  0  0  0  0  0
   -1.6069   -2.4321    0.6962 O   0  0  0  0  0  0  0  0  0  0  0  0
    0.0656    2.8036    0.0662 O   0  0  0  0  0  0  0  0  0  0  0  0
    0.6859   -0.0398    0.0568 N   0  0  0  0  0  0  0  0  0  0  0  0
   -1.5755    0.4700    0.6075 C   0  0  0  0  0  0  0  0  0  0  0  0
   -2.3951   -0.3471    1.6069 C   0  0  0  0  0  0  0  0  0  0  0  0
   -2.1266    1.8891    0.4605 C   0  0  0  0  0  0  0  0  0  0  0  0
   -1.4583   -0.2215   -0.7254 C   0  0  0  0  0  0  0  0  0  0  0  0
   -0.1074    0.5326    1.0772 C   0  0  0  0  0  0  0  0  0  0  0  0
   -0.1186   -0.5138   -1.0033 C   0  0  0  0  0  0  0  0  0  0  0  0
   -1.7494   -1.6983    1.9092 C   0  0  0  0  0  0  0  0  0  0  0  0
   -1.2587    2.7494   -0.4565 C   0  0  0  0  0  0  0  0  0  0  0  0
   -2.4759   -0.5861   -1.5972 C   0  0  0  0  0  0  0  0  0  0  0  0
    0.2140   -1.2390   -2.1395 C   0  0  0  0  0  0  0  0  0  0  0  0
    2.1031   -0.1181    0.0927 C   0  0  0  0  0  0  0  0  0  0  0  0
   -2.6034   -2.5074    2.8762 C   0  0  0  0  0  0  0  0  0  0  0  0
   -1.8070    4.1666   -0.5554 C   0  0  0  0  0  0  0  0  0  0  0  0
   -2.1398   -1.2781   -2.7592 C   0  0  0  0  0  0  0  0  0  0  0  0
   -0.8050   -1.6096   -3.0234 C   0  0  0  0  0  0  0  0  0  0  0  0
    2.8425   -0.0842   -1.0944 C   0  0  0  0  0  0  0  0  0  0  0  0
    2.7724   -0.2313    1.3160 C   0  0  0  0  0  0  0  0  0  0  0  0
    4.2348   -0.1623   -1.0587 C   0  0  0  0  0  0  0  0  0  0  0  0
    4.1647   -0.3095    1.3517 C   0  0  0  0  0  0  0  0  0  0  0  0
    4.8958   -0.2749    0.1644 C   0  0  0  0  0  0  0  0  0  0  0  0
  1  9  2  0
  2 11  1  0
  3 12  1  0
  4  9  1  0
  4 10  1  0
  4 15  1  0
  5  6  1  0
  5  7  1  0
  5  8  1  0
  5  9  1  0
  6 11  1  0
  7 12  1  0
  8 10  2  0
  8 13  1  0
 10 14  1  0
 11 16  1  0
 12 17  1  0
 13 18  2  0
 14 19  2  0
 15 20  2  0
 15 21  1  0
 18 19  1  0
 20 22  1  0
 21 23  2  0
 22 24  2  0
 23 24  1  0
M  END
>  <PUBCHEM_COMPOUND_CID>  (1) 
30335

>  <PUBCHEM_CONFORMER_RMSD>  (1) 
0.8

>  <PUBCHEM_CONFORMER_DIVERSEORDER>  (1) 
1
6
5
4
7
3
2

>  <PUBCHEM_MMFF94_PARTIAL_CHARGES>  (1) 
31
1 -0.57
10 0.12
11 0.28
12 0.28
13 -0.15
14 -0.15
15 0.12
18 -0.15
19 -0.15
2 -0.68
20 -0.15
21 -0.15
22 -0.15
23 -0.15
24 -0.15
3 -0.68
31 0.15
32 0.15
39 0.15
4 -0.29
40 0.15
41 0.4
42 0.4
43 0.15
44 0.15
45 0.15
46 0.15
47 0.15
5 0.2
8 -0.14
9 0.57

>  <PUBCHEM_EFFECTIVE_ROTOR_COUNT>  (1) 
5.4

>  <PUBCHEM_PHARMACOPHORE_FEATURES>  (1) 
8
1 1 acceptor
1 2 acceptor
1 2 donor
1 3 acceptor
1 3 donor
5 4 5 8 9 10 rings
6 15 20 21 22 23 24 rings
6 8 10 13 14 18 19 rings

>  <PUBCHEM_HEAVY_ATOM_COUNT>  (1) 
24

>  <PUBCHEM_ATOM_DEF_STEREO_COUNT>  (1) 
0

>  <PUBCHEM_ATOM_UDEF_STEREO_COUNT>  (1) 
2

>  <PUBCHEM_BOND_DEF_STEREO_COUNT>  (1) 
0

>  <PUBCHEM_BOND_UDEF_STEREO_COUNT>  (1) 
0

>  <PUBCHEM_ISOTOPIC_ATOM_COUNT>  (1) 
0

>  <PUBCHEM_COMPONENT_COUNT>  (1) 
1

>  <PUBCHEM_CACTVS_TAUTO_COUNT>  (1) 
1

>  <PUBCHEM_CONFORMER_ID>  (1) 
0000767F00000001

>  <PUBCHEM_MMFF94_ENERGY>  (1) 
96.9949

>  <PUBCHEM_FEATURE_SELFOVERLAP>  (1) 
40.685

>  <PUBCHEM_SHAPE_FINGERPRINT>  (1) 
107951 10 17902806166765298718
11421498 54 17608052457647498317
11578080 2 17242450757649880933
11582403 64 17907281162069025765
11725454 13 17981609264798121901
12082328 90 18189354433221756094
12173636 292 18042122072648886328
12403814 3 18272937136982903816
12788726 201 18335129856793279001
12969540 37 17033054385904716218
13140716 1 16627128909071106638
13149001 5 17535998359259053511
133893 2 17622721337887876661
13583140 156 18340769256859898098
14142880 1 16056884627991345395
14614273 12 17775276132273309629
14817 1 17972630756151498631
15309172 13 16916522366888070426
16945 1 18410577266506510809
17357779 13 16985425543385497333
17492 54 17983549967536248781
17980427 23 17914363336060712857
1813 80 17985246706739115159
18219364 16 17274550819228626530
20600515 1 17977708373973932041
20602899 9 17169242915461727091
20681651 13 16950556688848606792
21330990 113 17774999064508206757
21452121 71 17391103651451014851
21524375 3 17762606296726083516
23419403 2 17608364971782955695
23493267 7 18193291701796080432
238 59 16911434754714001500
25222932 49 15678330832161028299
2748010 2 17629502807759177604
469060 322 18200588210891818222
497634 4 17531262655668257830
5104073 3 15913326897676968618
5845 1 12253914717698237768
6992083 37 17274267269614017258
81228 2 17488455450630798038

>  <PUBCHEM_SHAPE_MULTIPOLES>  (1) 
471.32
5.96
3.03
2.86
9.96
3.21
-0.96
-0.95
0.99
-3.77
0.61
-1.87
-2.36
0.62

>  <PUBCHEM_SHAPE_SELFOVERLAP>  (1) 
1024.147

>  <PUBCHEM_SHAPE_VOLUME>  (1) 
256.4

>  <PUBCHEM_COORDINATE_TYPE>  (1) 
2
5
10

$$$$
