30336
     RDKit          3D

 18 20  0  0  1  0  0  0  0  0999 V2000
   -0.5554   -1.1224   -0.9029 O   0  0  0  0  0  0  0  0  0  0  0  0
    2.4915    0.9232    0.7668 O   0  0  0  0  0  0  0  0  0  0  0  0
    2.4388   -1.0735   -0.4602 O   0  0  0  0  0  0  0  0  0  0  0  0
   -1.8178    0.0404    0.7574 O   0  0  0  0  0  0  0  0  0  0  0  0
   -3.1735    0.0910   -1.1564 O   0  0  0  0  0  0  0  0  0  0  0  0
   -0.1144    2.2852    0.4108 O   0  0  0  0  0  0  0  0  0  0  0  0
    1.1854    0.3329    0.8657 C   0  0  0  0  0  0  0  0  0  0  0  0
   -0.9875    0.1553   -0.4069 C   0  0  0  0  0  0  0  0  0  0  0  0
    0.2462    1.0173   -0.1322 C   0  0  0  0  0  0  0  0  0  0  0  0
    1.4216   -1.1274    0.5464 C   0  0  0  0  0  0  0  0  0  0  0  0
    0.1985   -1.8747    0.0477 C   0  0  0  0  0  0  0  0  0  0  0  0
   -1.9330    0.7477   -1.4374 C   0  0  0  0  0  0  0  0  0  0  0  0
    3.2581    0.0389   -0.0687 C   0  0  0  0  0  0  0  0  0  0  0  0
   -3.1552   -0.1221    0.2621 C   0  0  0  0  0  0  0  0  0  0  0  0
    3.7249    0.7782   -1.3160 C   0  0  0  0  0  0  0  0  0  0  0  0
    4.4574   -0.4639    0.7328 C   0  0  0  0  0  0  0  0  0  0  0  0
   -4.0481    0.9112    0.9398 C   0  0  0  0  0  0  0  0  0  0  0  0
   -3.6374   -1.5375    0.5512 C   0  0  0  0  0  0  0  0  0  0  0  0
  1  8  1  0
  1 11  1  0
  2  7  1  0
  2 13  1  0
  3 10  1  0
  3 13  1  0
  4  8  1  0
  4 14  1  0
  5 12  1  0
  5 14  1  0
  6  9  1  0
  7  9  1  0
  7 10  1  0
  8  9  1  0
  8 12  1  0
 10 11  1  0
 13 15  1  0
 13 16  1  0
 14 17  1  0
 14 18  1  0
M  END
>  <PUBCHEM_COMPOUND_CID>  (1) 
30336

>  <PUBCHEM_CONFORMER_RMSD>  (1) 
0.6

>  <PUBCHEM_CONFORMER_DIVERSEORDER>  (1) 
7
5
21
24
15
19
8
14
17
13
25
3
2
9
4
20
22
11
1
10
18
16
6
12
23

>  <PUBCHEM_MMFF94_PARTIAL_CHARGES>  (1) 
15
1 -0.56
10 0.28
11 0.28
12 0.28
13 0.56
14 0.56
2 -0.56
26 0.4
3 -0.56
4 -0.56
5 -0.56
6 -0.68
7 0.28
8 0.56
9 0.28

>  <PUBCHEM_EFFECTIVE_ROTOR_COUNT>  (1) 
2

>  <PUBCHEM_PHARMACOPHORE_FEATURES>  (1) 
12
1 1 acceptor
1 2 acceptor
1 3 acceptor
1 4 acceptor
1 5 acceptor
1 6 acceptor
1 6 donor
3 13 15 16 hydrophobe
3 14 17 18 hydrophobe
5 2 3 7 10 13 rings
5 4 5 8 12 14 rings
6 1 7 8 9 10 11 rings

>  <PUBCHEM_HEAVY_ATOM_COUNT>  (1) 
18

>  <PUBCHEM_ATOM_DEF_STEREO_COUNT>  (1) 
0

>  <PUBCHEM_ATOM_UDEF_STEREO_COUNT>  (1) 
4

>  <PUBCHEM_BOND_DEF_STEREO_COUNT>  (1) 
0

>  <PUBCHEM_BOND_UDEF_STEREO_COUNT>  (1) 
0

>  <PUBCHEM_ISOTOPIC_ATOM_COUNT>  (1) 
0

>  <PUBCHEM_COMPONENT_COUNT>  (1) 
1

>  <PUBCHEM_CACTVS_TAUTO_COUNT>  (1) 
1

>  <PUBCHEM_CONFORMER_ID>  (1) 
0000768000000007

>  <PUBCHEM_MMFF94_ENERGY>  (1) 
56.0278

>  <PUBCHEM_FEATURE_SELFOVERLAP>  (1) 
61.258

>  <PUBCHEM_SHAPE_FINGERPRINT>  (1) 
11132069 177 18407759235527042331
12011746 2 18336263526781354231
12032990 46 18411420622137661018
12236239 1 17346874546857369653
12251169 10 18410300229011686939
12403814 3 17748824146099247575
12670546 56 14333134022478117506
13140716 1 18269547411659629842
13214271 11 18272650134551782943
13221675 6 18272931604911792394
13581323 91 18335696152963852794
13675066 3 17132117948056502227
13760787 5 18334011692143343196
14289901 80 17240196633973791528
14787075 74 17969230099430029002
14993402 34 18202278121787955901
15219456 202 18042119860788253319
15309172 13 18342735221798879039
15375462 189 18186520999149172531
15775835 57 18060699463823968459
16945 1 18202277005233602262
17834072 14 9799700285333367910
17844478 74 18186518791451624925
18175812 5 18040432196164785927
18186145 218 18272367590080937684
19026448 4 16153423935185185598
19422 9 18261115187823607458
20281475 54 18259704510279138651
20645477 70 13110973019664985236
21501502 16 18050564049833378393
23227448 37 17389119037774739884
23402539 116 18131060524880081412
23493267 7 17750220426976987905
23557571 272 16370719280116508927
23559900 14 17750221518220623018
2748010 2 18053938734782120632
296302 2 17822018617985707565
3286 77 18267584783409311057
474 4 17272829138828549256
4990 188 17703799119266981574
5104073 3 18335701671516846144
528886 8 18272083894389850882
537710 114 18335989735168690308
57812782 119 13334734647954772990
633830 44 18060142045883616924

>  <PUBCHEM_SHAPE_MULTIPOLES>  (1) 
335.22
7.38
1.61
1.16
0.93
0.11
0.19
0.16
-0.68
-0.24
-0.07
-0.12
-0.23
-0.16

>  <PUBCHEM_SHAPE_SELFOVERLAP>  (1) 
710.521

>  <PUBCHEM_SHAPE_VOLUME>  (1) 
188.4

>  <PUBCHEM_COORDINATE_TYPE>  (1) 
2
5
10

$$$$
