30346
     RDKit          3D

 25 28  0  0  1  0  0  0  0  0999 V2000
   -4.6360   -0.0686    0.1471 S   0  0  0  0  0  0  0  0  0  0  0  0
    2.8301    2.9486   -0.7750 O   0  0  0  0  0  0  0  0  0  0  0  0
    4.8334    2.4064    0.4482 O   0  0  0  0  0  0  0  0  0  0  0  0
   -5.4157   -0.6465   -0.9382 O   0  0  0  0  0  0  0  0  0  0  0  0
   -5.0241   -0.3193    1.5286 O   0  0  0  0  0  0  0  0  0  0  0  0
    1.3666   -3.0086    0.1194 N   0  0  0  0  0  0  0  0  0  0  0  0
    1.1321   -1.7408   -0.6066 C   0  0  0  0  0  0  0  0  0  0  0  0
    2.1444   -0.6403   -0.2814 C   0  0  0  0  0  0  0  0  0  0  0  0
    3.3495   -0.9600    0.4003 C   0  0  0  0  0  0  0  0  0  0  0  0
    3.6168   -2.3743    0.8494 C   0  0  0  0  0  0  0  0  0  0  0  0
    2.7776   -3.3870    0.0751 C   0  0  0  0  0  0  0  0  0  0  0  0
   -0.3215   -1.3196   -0.4166 C   0  0  0  0  0  0  0  0  0  0  0  0
    1.9340    0.6789   -0.7259 C   0  0  0  0  0  0  0  0  0  0  0  0
    4.2910    0.0402    0.6928 C   0  0  0  0  0  0  0  0  0  0  0  0
    2.8870    1.6327   -0.4314 C   0  0  0  0  0  0  0  0  0  0  0  0
    4.0302    1.3235    0.2633 C   0  0  0  0  0  0  0  0  0  0  0  0
   -2.9722   -0.5507   -0.0696 C   0  0  0  0  0  0  0  0  0  0  0  0
   -1.1752   -1.2745   -1.5135 C   0  0  0  0  0  0  0  0  0  0  0  0
   -0.7814   -0.9836    0.8523 C   0  0  0  0  0  0  0  0  0  0  0  0
   -4.6169    1.6962   -0.0733 C   0  0  0  0  0  0  0  0  0  0  0  0
   -2.5044   -0.8889   -1.3396 C   0  0  0  0  0  0  0  0  0  0  0  0
   -2.1106   -0.5981    1.0264 C   0  0  0  0  0  0  0  0  0  0  0  0
   -3.6734    2.3425    0.9302 C   0  0  0  0  0  0  0  0  0  0  0  0
   -6.0260    2.2577    0.0472 C   0  0  0  0  0  0  0  0  0  0  0  0
    4.0646    3.4341   -0.2094 C   0  0  0  0  0  0  0  0  0  0  0  0
  1  4  2  0
  1  5  2  0
  1 17  1  0
  1 20  1  0
  2 15  1  0
  2 25  1  0
  3 16  1  0
  3 25  1  0
  6  7  1  0
  6 11  1  0
  7  8  1  0
  7 12  1  0
  8  9  2  0
  8 13  1  0
  9 10  1  0
  9 14  1  0
 10 11  1  0
 12 18  2  0
 12 19  1  0
 13 15  2  0
 14 16  2  0
 15 16  1  0
 17 21  2  0
 17 22  1  0
 18 21  1  0
 19 22  2  0
 20 23  1  0
 20 24  1  0
M  END
>  <PUBCHEM_COMPOUND_CID>  (1) 
30346

>  <PUBCHEM_CONFORMER_RMSD>  (1) 
0.8

>  <PUBCHEM_CONFORMER_DIVERSEORDER>  (1) 
1
10
5
3
8
11
7
9
2
6
12
13
4
14

>  <PUBCHEM_MMFF94_PARTIAL_CHARGES>  (1) 
30
1 1.2
10 0.14
11 0.27
12 -0.14
13 -0.15
14 -0.15
15 0.08
16 0.08
17 -0.01
18 -0.15
19 -0.15
2 -0.36
20 0.11
21 -0.15
22 -0.15
25 0.56
3 -0.36
31 0.36
32 0.15
33 0.15
34 0.15
35 0.15
37 0.15
38 0.15
4 -0.65
5 -0.65
6 -0.9
7 0.56
8 -0.14
9 -0.14

>  <PUBCHEM_EFFECTIVE_ROTOR_COUNT>  (1) 
4.4

>  <PUBCHEM_PHARMACOPHORE_FEATURES>  (1) 
11
1 2 acceptor
1 3 acceptor
1 4 acceptor
1 5 acceptor
1 6 cation
1 6 donor
3 20 23 24 hydrophobe
5 2 3 15 16 25 rings
6 12 17 18 19 21 22 rings
6 6 7 8 9 10 11 rings
6 8 9 13 14 15 16 rings

>  <PUBCHEM_HEAVY_ATOM_COUNT>  (1) 
25

>  <PUBCHEM_ATOM_DEF_STEREO_COUNT>  (1) 
0

>  <PUBCHEM_ATOM_UDEF_STEREO_COUNT>  (1) 
1

>  <PUBCHEM_BOND_DEF_STEREO_COUNT>  (1) 
0

>  <PUBCHEM_BOND_UDEF_STEREO_COUNT>  (1) 
0

>  <PUBCHEM_ISOTOPIC_ATOM_COUNT>  (1) 
0

>  <PUBCHEM_COMPONENT_COUNT>  (1) 
1

>  <PUBCHEM_CACTVS_TAUTO_COUNT>  (1) 
1

>  <PUBCHEM_CONFORMER_ID>  (1) 
0000768A00000001

>  <PUBCHEM_MMFF94_ENERGY>  (1) 
51.2128

>  <PUBCHEM_FEATURE_SELFOVERLAP>  (1) 
56.014

>  <PUBCHEM_SHAPE_FINGERPRINT>  (1) 
10411042 1 17977380539347977450
10595046 47 18341043099669453399
10937287 8 18121500421648209020
11640471 11 18131636720307259502
12107183 9 18051692136100205539
12166972 35 18057603161823682771
12236239 1 17989199335320088566
12403259 118 18341886338935235075
12633257 1 16298945497517610556
12788726 201 17203053989074832649
12892183 10 18261401074185509159
13140716 1 18189611817057158586
13583140 156 18117573829518323147
13590594 115 17977955579279824522
13785724 45 17836930005888668038
13878862 14 18116977928291055141
13965767 371 18114451362413433932
14251764 38 18268716009060432737
14251764 75 18194131925869168184
14739800 52 17916287489682796160
14790565 3 18118411880649046244
14849402 71 18334581222493031500
15142526 21 18261108629392963042
15342168 16 18264488554143842446
15475509 8 18343029866105227022
17810953 82 18410576171490745660
17818456 19 17773033055575210017
17844677 252 18339367370723301451
17868525 174 18119803612759663840
19377110 9 18343305911858660115
20157964 124 18409443692047128319
20511986 3 18060123362770675976
20567600 9 18337688446448056492
20715895 44 17839742569896819945
20739085 24 18113902663098431380
21033648 144 18187354476054725263
21033648 29 16950559927396379653
21033650 10 14979689753823467523
21315764 268 18190459355806873309
21475661 188 18188770539968652925
21503847 285 18412266108309895462
21756936 100 18053104218689908188
21859007 373 17169821181949008853
21864079 5 18341334469575314372
22122407 14 18340497655965957089
22950370 63 9007063478282735471
23559900 14 18266462009991487283
245318 6 17824556398129051140
24771293 8 18199445772268848130
283562 15 17326885683511502410
3493558 16 18338522932797757817
38570 142 18267321983108938852
397830 11 18187662305968694051
4409770 3 15678045341289091062
474 4 18410290350112477058
5104073 3 18261118439804902195
5895379 119 17700140902284413040
6034566 193 17827644973815195020
6086070 43 17680965441287353471
633830 44 18342457101518707246
67856867 119 18411976932272018411
8272917 22 18410855452045103750
960060 61 11671782688724022154
9981440 41 18265052607650612643

>  <PUBCHEM_SHAPE_MULTIPOLES>  (1) 
489.88
12.47
3.74
1.13
12.01
1.38
0.05
7.55
-1.87
-4.53
0.06
0.64
-0.22
-1.07

>  <PUBCHEM_SHAPE_SELFOVERLAP>  (1) 
1057.143

>  <PUBCHEM_SHAPE_VOLUME>  (1) 
271.1

>  <PUBCHEM_COORDINATE_TYPE>  (1) 
2
5
10

$$$$
