30349
     RDKit          3D

 11 12  0  0  0  0  0  0  0  0999 V2000
    1.0986    1.7832    0.0000 O   0  0  0  0  0  0  0  0  0  0  0  0
    2.7602   -1.3404    0.0000 O   0  0  0  0  0  0  0  0  0  0  0  0
    0.5647   -0.4760    0.0003 C   0  0  0  0  0  0  0  0  0  0  0  0
    0.1154    0.8285    0.0002 C   0  0  0  0  0  0  0  0  0  0  0  0
    2.3558    1.0667   -0.0003 C   0  0  0  0  0  0  0  0  0  0  0  0
    1.9996   -0.3931    0.0000 C   0  0  0  0  0  0  0  0  0  0  0  0
   -2.1267    0.0219   -0.0003 C   0  0  0  0  0  0  0  0  0  0  0  0
   -1.2381    1.1027    0.0001 C   0  0  0  0  0  0  0  0  0  0  0  0
   -0.2805   -1.5662    0.0000 C   0  0  0  0  0  0  0  0  0  0  0  0
   -1.6509   -1.3028   -0.0002 C   0  0  0  0  0  0  0  0  0  0  0  0
   -3.5981    0.2755    0.0001 C   0  0  0  0  0  0  0  0  0  0  0  0
  1  4  1  0
  1  5  1  0
  2  6  2  0
  3  4  2  0
  3  6  1  0
  3  9  1  0
  4  8  1  0
  5  6  1  0
  7  8  2  0
  7 10  1  0
  7 11  1  0
  9 10  2  0
M  END
>  <PUBCHEM_COMPOUND_CID>  (1) 
30349

>  <PUBCHEM_CONFORMER_RMSD>  (1) 
0.4

>  <PUBCHEM_CONFORMER_DIVERSEORDER>  (1) 
1

>  <PUBCHEM_MMFF94_PARTIAL_CHARGES>  (1) 
14
1 -0.36
10 -0.15
11 0.14
14 0.15
15 0.15
16 0.15
2 -0.57
3 0.09
4 0.08
5 0.34
6 0.42
7 -0.14
8 -0.15
9 -0.15

>  <PUBCHEM_EFFECTIVE_ROTOR_COUNT>  (1) 
0.4

>  <PUBCHEM_PHARMACOPHORE_FEATURES>  (1) 
4
1 1 acceptor
1 2 acceptor
5 1 3 4 5 6 rings
6 3 4 7 8 9 10 rings

>  <PUBCHEM_HEAVY_ATOM_COUNT>  (1) 
11

>  <PUBCHEM_ATOM_DEF_STEREO_COUNT>  (1) 
0

>  <PUBCHEM_ATOM_UDEF_STEREO_COUNT>  (1) 
0

>  <PUBCHEM_BOND_DEF_STEREO_COUNT>  (1) 
0

>  <PUBCHEM_BOND_UDEF_STEREO_COUNT>  (1) 
0

>  <PUBCHEM_ISOTOPIC_ATOM_COUNT>  (1) 
0

>  <PUBCHEM_COMPONENT_COUNT>  (1) 
1

>  <PUBCHEM_CACTVS_TAUTO_COUNT>  (1) 
2

>  <PUBCHEM_CONFORMER_ID>  (1) 
0000768D00000001

>  <PUBCHEM_MMFF94_ENERGY>  (1) 
27.4937

>  <PUBCHEM_FEATURE_SELFOVERLAP>  (1) 
20.398

>  <PUBCHEM_SHAPE_FINGERPRINT>  (1) 
10130415 120 18335416829338509266
10219947 1 18410577262607130393
11471102 20 18410288091202123189
12032990 46 18338524031982071343
12423570 1 11661560370438874873
12524768 44 18410857680636933366
13380535 21 18263939901851556622
13380535 76 18266735960184819586
14325111 11 18410575106570581473
16945 1 18410575046108658503
17844478 74 17967541172750892449
193761 8 17906172102612678727
21040471 1 18266458891575529217
21501502 16 18266738158949696759
23235685 24 18411976983695594273
23402655 69 18341601617337795365
23463225 33 18336827468402650898
23552423 10 18189617309681610878
241688 4 17620201927156973346
2748010 2 18338238296418707279
369184 2 18342455962908982155
5084963 1 18201435844220139547
528886 8 18411415145943368067
53812653 166 18199463432182423360
63268167 104 18411704300395593529
7364860 26 18272370901790834272

>  <PUBCHEM_SHAPE_MULTIPOLES>  (1) 
214.64
4.23
1.67
0.6
1.38
0.07
0
-0.1
0
-0.46
0
0.03
0
0

>  <PUBCHEM_SHAPE_SELFOVERLAP>  (1) 
470.376

>  <PUBCHEM_SHAPE_VOLUME>  (1) 
118.7

>  <PUBCHEM_COORDINATE_TYPE>  (1) 
2
5
10

$$$$
