30342
     RDKit          3D

 26 28  0  0  1  0  0  0  0  0999 V2000
    4.7704   -0.0138   -0.1495 S   0  0  0  0  0  0  0  0  0  0  0  0
   -2.6256    2.7340    0.8999 O   0  0  0  0  0  0  0  0  0  0  0  0
   -4.8453    2.0546   -0.6250 O   0  0  0  0  0  0  0  0  0  0  0  0
    5.5746   -0.5477    0.9405 O   0  0  0  0  0  0  0  0  0  0  0  0
    5.1631   -0.2680   -1.5290 O   0  0  0  0  0  0  0  0  0  0  0  0
   -1.1086   -3.1679   -0.0742 N   0  0  0  0  0  0  0  0  0  0  0  0
   -0.9281   -1.8901    0.6470 C   0  0  0  0  0  0  0  0  0  0  0  0
   -1.9679   -0.8273    0.2920 C   0  0  0  0  0  0  0  0  0  0  0  0
   -3.1203   -1.1733   -0.4396 C   0  0  0  0  0  0  0  0  0  0  0  0
   -3.3225   -2.5865   -0.9182 C   0  0  0  0  0  0  0  0  0  0  0  0
   -2.5068   -3.5836   -0.1010 C   0  0  0  0  0  0  0  0  0  0  0  0
    0.5070   -1.4179    0.4464 C   0  0  0  0  0  0  0  0  0  0  0  0
   -1.8326    0.4933    0.7544 C   0  0  0  0  0  0  0  0  0  0  0  0
   -4.0711   -0.1922   -0.7552 C   0  0  0  0  0  0  0  0  0  0  0  0
    3.1265   -0.5549    0.0796 C   0  0  0  0  0  0  0  0  0  0  0  0
    1.3624   -1.3262    1.5393 C   0  0  0  0  0  0  0  0  0  0  0  0
    0.9505   -1.0815   -0.8286 C   0  0  0  0  0  0  0  0  0  0  0  0
    4.6859    1.7519    0.0479 C   0  0  0  0  0  0  0  0  0  0  0  0
   -2.7914    1.4596    0.4473 C   0  0  0  0  0  0  0  0  0  0  0  0
   -3.9057    1.1190   -0.3136 C   0  0  0  0  0  0  0  0  0  0  0  0
    2.6756   -0.8935    1.3556 C   0  0  0  0  0  0  0  0  0  0  0  0
    2.2638   -0.6488   -1.0125 C   0  0  0  0  0  0  0  0  0  0  0  0
    6.0725    2.3640   -0.0850 C   0  0  0  0  0  0  0  0  0  0  0  0
    3.7155    2.3491   -0.9605 C   0  0  0  0  0  0  0  0  0  0  0  0
   -1.9124    3.6341    0.0543 C   0  0  0  0  0  0  0  0  0  0  0  0
   -5.9296    2.2135    0.2879 C   0  0  0  0  0  0  0  0  0  0  0  0
  1  4  2  0
  1  5  2  0
  1 15  1  0
  1 18  1  0
  2 19  1  0
  2 25  1  0
  3 20  1  0
  3 26  1  0
  6  7  1  0
  6 11  1  0
  7  8  1  0
  7 12  1  0
  8  9  2  0
  8 13  1  0
  9 10  1  0
  9 14  1  0
 10 11  1  0
 12 16  2  0
 12 17  1  0
 13 19  2  0
 14 20  2  0
 15 21  2  0
 15 22  1  0
 16 21  1  0
 17 22  2  0
 18 23  1  0
 18 24  1  0
 19 20  1  0
M  END
>  <PUBCHEM_COMPOUND_CID>  (1) 
30342

>  <PUBCHEM_CONFORMER_RMSD>  (1) 
0.8

>  <PUBCHEM_CONFORMER_DIVERSEORDER>  (1) 
1
51
34
47
11
38
50
30
45
28
26
25
53
33
19
24
2
9
32
48
54
29
44
13
42
40
55
14
41
27
46
20
8
39
3
17
36
52
7
43
49
31
37
35
6
12
5
23
22
18
15
4
16
21
10

>  <PUBCHEM_MMFF94_PARTIAL_CHARGES>  (1) 
31
1 1.2
10 0.14
11 0.27
12 -0.14
13 -0.15
14 -0.15
15 -0.01
16 -0.15
17 -0.15
18 0.11
19 0.08
2 -0.36
20 0.08
21 -0.15
22 -0.15
25 0.28
26 0.28
3 -0.36
32 0.36
33 0.15
34 0.15
35 0.15
36 0.15
38 0.15
39 0.15
4 -0.65
5 -0.65
6 -0.9
7 0.56
8 -0.14
9 -0.14

>  <PUBCHEM_EFFECTIVE_ROTOR_COUNT>  (1) 
5.8

>  <PUBCHEM_PHARMACOPHORE_FEATURES>  (1) 
10
1 2 acceptor
1 3 acceptor
1 4 acceptor
1 5 acceptor
1 6 cation
1 6 donor
3 18 23 24 hydrophobe
6 12 15 16 17 21 22 rings
6 6 7 8 9 10 11 rings
6 8 9 13 14 19 20 rings

>  <PUBCHEM_HEAVY_ATOM_COUNT>  (1) 
26

>  <PUBCHEM_ATOM_DEF_STEREO_COUNT>  (1) 
0

>  <PUBCHEM_ATOM_UDEF_STEREO_COUNT>  (1) 
1

>  <PUBCHEM_BOND_DEF_STEREO_COUNT>  (1) 
0

>  <PUBCHEM_BOND_UDEF_STEREO_COUNT>  (1) 
0

>  <PUBCHEM_ISOTOPIC_ATOM_COUNT>  (1) 
0

>  <PUBCHEM_COMPONENT_COUNT>  (1) 
1

>  <PUBCHEM_CACTVS_TAUTO_COUNT>  (1) 
1

>  <PUBCHEM_CONFORMER_ID>  (1) 
0000768600000001

>  <PUBCHEM_MMFF94_ENERGY>  (1) 
75.786

>  <PUBCHEM_FEATURE_SELFOVERLAP>  (1) 
50.789

>  <PUBCHEM_SHAPE_FINGERPRINT>  (1) 
10411042 1 17907012130119818231
10498660 4 18412262822190227241
11640471 11 18040155102160601839
12107183 9 18191576464010645922
12236239 1 18040712550049966075
12788726 201 18190733318633141139
13583140 156 17676213446062125819
13911987 19 16200151045268034010
13965767 371 17752488659372354285
14251764 38 18191309488516465604
14251764 75 18126294043243004153
14739800 52 18266720546148802712
14767858 380 18269535210216730933
14790565 3 18197785406093932769
14840074 17 17968386658338026213
15183329 4 18340496548112268758
15297060 5 18273501177752380800
15463212 79 18334008380850658835
15575132 122 18189053097483156221
16994733 274 16082463654664935087
17844677 252 18337678624047858030
20511986 3 18040702663040323972
20715895 44 18411699842341184120
23227448 37 18411702110104768829
235170 7 17560256824341951700
23557571 272 18272932764616597127
23559900 14 18202000976561026150
249057 3 18339081463504157486
2838139 119 18334849476901360124
3472631 163 18410854330942224941
34797466 226 17916595361591538374
463206 1 18410296938424153665
474 4 18113901524383062168
5104073 3 17749383789270996154
6328613 192 18114194064393331676
6700243 42 17482867788314967750
7808743 9 18411415103104523537
9981440 41 18335421309074341130

>  <PUBCHEM_SHAPE_MULTIPOLES>  (1) 
510.46
12.79
3.98
1.14
9.87
0.88
0.06
8.52
-1.7
-3.93
-0.04
0.61
-0.23
-1.16

>  <PUBCHEM_SHAPE_SELFOVERLAP>  (1) 
1073.176

>  <PUBCHEM_SHAPE_VOLUME>  (1) 
289.6

>  <PUBCHEM_COORDINATE_TYPE>  (1) 
2
5
10

$$$$
