30344
     RDKit          3D

 27 29  0  0  1  0  0  0  0  0999 V2000
   -4.7449    0.1171   -0.1693 S   0  0  0  0  0  0  0  0  0  0  0  0
    2.5730    2.8514    1.0854 O   0  0  0  0  0  0  0  0  0  0  0  0
    4.6756    2.3449   -0.6584 O   0  0  0  0  0  0  0  0  0  0  0  0
   -5.1307   -0.1826   -1.5410 O   0  0  0  0  0  0  0  0  0  0  0  0
   -5.5631   -0.3680    0.9338 O   0  0  0  0  0  0  0  0  0  0  0  0
    1.1616   -3.0658   -0.1046 N   0  0  0  0  0  0  0  0  0  0  0  0
    0.9465   -1.7842    0.6273 C   0  0  0  0  0  0  0  0  0  0  0  0
    1.9511   -0.6777    0.2768 C   0  0  0  0  0  0  0  0  0  0  0  0
    2.5861   -3.3724   -0.2735 C   0  0  0  0  0  0  0  0  0  0  0  0
    3.2408   -2.3069   -1.1479 C   0  0  0  0  0  0  0  0  0  0  0  0
    3.0455   -0.9358   -0.5666 C   0  0  0  0  0  0  0  0  0  0  0  0
   -0.4920   -1.3035    0.4260 C   0  0  0  0  0  0  0  0  0  0  0  0
    1.8240    0.6043    0.8416 C   0  0  0  0  0  0  0  0  0  0  0  0
    0.4927   -4.1892    0.5625 C   0  0  0  0  0  0  0  0  0  0  0  0
    3.9441    0.0919   -0.8871 C   0  0  0  0  0  0  0  0  0  0  0  0
   -1.3360   -1.1888    1.5227 C   0  0  0  0  0  0  0  0  0  0  0  0
   -0.9361   -0.9879   -0.8515 C   0  0  0  0  0  0  0  0  0  0  0  0
   -3.1033   -0.4314    0.0598 C   0  0  0  0  0  0  0  0  0  0  0  0
    2.7315    1.6175    0.5300 C   0  0  0  0  0  0  0  0  0  0  0  0
    3.7862    1.3637   -0.3407 C   0  0  0  0  0  0  0  0  0  0  0  0
   -4.6472    1.8852   -0.0032 C   0  0  0  0  0  0  0  0  0  0  0  0
   -2.6475   -0.7509    1.3389 C   0  0  0  0  0  0  0  0  0  0  0  0
   -2.2476   -0.5500   -1.0353 C   0  0  0  0  0  0  0  0  0  0  0  0
   -6.0303    2.5046   -0.1391 C   0  0  0  0  0  0  0  0  0  0  0  0
   -3.6785    2.4581   -1.0271 C   0  0  0  0  0  0  0  0  0  0  0  0
    1.7707    3.7868    0.3675 C   0  0  0  0  0  0  0  0  0  0  0  0
    5.8280    2.4696    0.1729 C   0  0  0  0  0  0  0  0  0  0  0  0
  1  4  2  0
  1  5  2  0
  1 18  1  0
  1 21  1  0
  2 19  1  0
  2 26  1  0
  3 20  1  0
  3 27  1  0
  6  7  1  0
  6  9  1  0
  6 14  1  0
  7  8  1  0
  7 12  1  0
  8 11  2  0
  8 13  1  0
  9 10  1  0
 10 11  1  0
 11 15  1  0
 12 16  2  0
 12 17  1  0
 13 19  2  0
 15 20  2  0
 16 22  1  0
 17 23  2  0
 18 22  2  0
 18 23  1  0
 19 20  1  0
 21 24  1  0
 21 25  1  0
M  END
>  <PUBCHEM_COMPOUND_CID>  (1) 
30344

>  <PUBCHEM_CONFORMER_RMSD>  (1) 
0.8

>  <PUBCHEM_CONFORMER_DIVERSEORDER>  (1) 
4
43
15
31
35
19
28
38
24
34
41
44
30
9
40
7
23
26
18
33
11
13
29
20
12
21
32
22
2
6
3
27
37
36
17
25
8
39
42
16
5
1
14
10

>  <PUBCHEM_MMFF94_PARTIAL_CHARGES>  (1) 
31
1 1.2
10 0.14
11 -0.14
12 -0.14
13 -0.15
14 0.27
15 -0.15
16 -0.15
17 -0.15
18 -0.01
19 0.08
2 -0.36
20 0.08
21 0.11
22 -0.15
23 -0.15
26 0.28
27 0.28
3 -0.36
33 0.15
37 0.15
38 0.15
39 0.15
4 -0.65
41 0.15
42 0.15
5 -0.65
6 -0.81
7 0.56
8 -0.14
9 0.27

>  <PUBCHEM_EFFECTIVE_ROTOR_COUNT>  (1) 
5.8

>  <PUBCHEM_PHARMACOPHORE_FEATURES>  (1) 
9
1 2 acceptor
1 3 acceptor
1 4 acceptor
1 5 acceptor
1 6 cation
3 21 24 25 hydrophobe
6 12 16 17 18 22 23 rings
6 6 7 8 9 10 11 rings
6 8 11 13 15 19 20 rings

>  <PUBCHEM_HEAVY_ATOM_COUNT>  (1) 
27

>  <PUBCHEM_ATOM_DEF_STEREO_COUNT>  (1) 
0

>  <PUBCHEM_ATOM_UDEF_STEREO_COUNT>  (1) 
1

>  <PUBCHEM_BOND_DEF_STEREO_COUNT>  (1) 
0

>  <PUBCHEM_BOND_UDEF_STEREO_COUNT>  (1) 
0

>  <PUBCHEM_ISOTOPIC_ATOM_COUNT>  (1) 
0

>  <PUBCHEM_COMPONENT_COUNT>  (1) 
1

>  <PUBCHEM_CACTVS_TAUTO_COUNT>  (1) 
1

>  <PUBCHEM_CONFORMER_ID>  (1) 
0000768800000004

>  <PUBCHEM_MMFF94_ENERGY>  (1) 
83.8397

>  <PUBCHEM_FEATURE_SELFOVERLAP>  (1) 
45.715

>  <PUBCHEM_SHAPE_FINGERPRINT>  (1) 
10165383 225 18263654012038836532
10675989 125 18340491049973998160
1100329 8 17256525214917867393
11595378 159 15719957904574957917
12293681 160 17917717937119964840
12730499 353 18337400412729412339
12769317 202 18341890805416451288
13103583 49 10737549580216275095
13402501 40 18335138713021468884
13583140 156 18338243648681453987
13878862 14 17973702720186599637
13944108 23 18336263431712598108
14251764 30 10954277612087879960
14466204 15 18410845573604680888
14790565 3 18336551637192984580
14848178 96 18335136462716724269
15081414 286 18341625814545633416
15210252 30 18114756944915451028
16992752 21 17328307940199046442
17844677 252 18340212878222406335
17980427 26 18188192218122051087
18608769 82 18265621072885600963
21033648 29 17894642431022240953
21120745 212 16600390534815793370
22122407 14 18126300640586895841
221357 26 18267303132281185525
22289505 5 18341615871753969204
23559900 14 18192428563704639019
238 59 18272654579748527962
2838139 119 18340482374060834708
34797466 226 18272940380337288479
46194498 28 18271527481756631559
474 4 18342737476603890554
495365 180 18410286991221412898
5104073 3 17967535632316895499
5281201 14 18341049610507369735
633830 44 18335696084371236535
6442390 28 18260833712842122207
7808743 9 17972886031912502660

>  <PUBCHEM_SHAPE_MULTIPOLES>  (1) 
531.04
12.01
4.55
1.19
10.63
0.17
0.02
-9.75
-2.09
-4.26
0.38
0.44
0.17
1.23

>  <PUBCHEM_SHAPE_SELFOVERLAP>  (1) 
1114.182

>  <PUBCHEM_SHAPE_VOLUME>  (1) 
303.5

>  <PUBCHEM_COORDINATE_TYPE>  (1) 
2
5
10

$$$$
