30345
     RDKit          3D

 25 28  0  0  0  0  0  0  0  0999 V2000
   -4.7150   -0.0964    0.1313 S   0  0  0  0  0  0  0  0  0  0  0  0
    5.0884    2.2491    0.3471 O   0  0  0  0  0  0  0  0  0  0  0  0
    2.9035    3.0018   -0.3348 O   0  0  0  0  0  0  0  0  0  0  0  0
   -5.3245   -0.3541   -1.1657 O   0  0  0  0  0  0  0  0  0  0  0  0
   -5.2890   -0.6917    1.3305 O   0  0  0  0  0  0  0  0  0  0  0  0
    1.3594   -2.8775   -0.3790 N   0  0  0  0  0  0  0  0  0  0  0  0
    3.4316   -1.0270    0.2814 C   0  0  0  0  0  0  0  0  0  0  0  0
    2.1431   -0.5789   -0.0861 C   0  0  0  0  0  0  0  0  0  0  0  0
    3.6394   -2.4968    0.5027 C   0  0  0  0  0  0  0  0  0  0  0  0
   -4.6952    1.6638    0.3856 C   0  0  0  0  0  0  0  0  0  0  0  0
    1.0872   -1.6230   -0.2152 C   0  0  0  0  0  0  0  0  0  0  0  0
    2.7684   -3.2689   -0.4793 C   0  0  0  0  0  0  0  0  0  0  0  0
   -3.0293   -0.5392    0.0311 C   0  0  0  0  0  0  0  0  0  0  0  0
   -0.3438   -1.2468   -0.1297 C   0  0  0  0  0  0  0  0  0  0  0  0
    4.4737   -0.1096    0.4615 C   0  0  0  0  0  0  0  0  0  0  0  0
    1.8984    0.7782   -0.3266 C   0  0  0  0  0  0  0  0  0  0  0  0
    4.2009    1.2234    0.2332 C   0  0  0  0  0  0  0  0  0  0  0  0
    2.9524    1.6530   -0.1543 C   0  0  0  0  0  0  0  0  0  0  0  0
   -2.3817   -0.5429   -1.2045 C   0  0  0  0  0  0  0  0  0  0  0  0
   -2.3301   -0.8901    1.1861 C   0  0  0  0  0  0  0  0  0  0  0  0
   -1.0351   -0.8980   -1.2850 C   0  0  0  0  0  0  0  0  0  0  0  0
   -0.9835   -1.2449    1.1053 C   0  0  0  0  0  0  0  0  0  0  0  0
   -6.1146    2.1907    0.5359 C   0  0  0  0  0  0  0  0  0  0  0  0
   -3.9644    2.3532   -0.7571 C   0  0  0  0  0  0  0  0  0  0  0  0
    4.2597    3.3725   -0.0143 C   0  0  0  0  0  0  0  0  0  0  0  0
  1  4  2  0
  1  5  2  0
  1 10  1  0
  1 13  1  0
  2 17  1  0
  2 25  1  0
  3 18  1  0
  3 25  1  0
  6 11  2  0
  6 12  1  0
  7  8  2  0
  7  9  1  0
  7 15  1  0
  8 11  1  0
  8 16  1  0
  9 12  1  0
 10 23  1  0
 10 24  1  0
 11 14  1  0
 13 19  2  0
 13 20  1  0
 14 21  2  0
 14 22  1  0
 15 17  2  0
 16 18  2  0
 17 18  1  0
 19 21  1  0
 20 22  2  0
M  END
>  <PUBCHEM_COMPOUND_CID>  (1) 
30345

>  <PUBCHEM_CONFORMER_RMSD>  (1) 
0.8

>  <PUBCHEM_CONFORMER_DIVERSEORDER>  (1) 
1
2
4
6
5
3

>  <PUBCHEM_MMFF94_PARTIAL_CHARGES>  (1) 
29
1 1.2
10 0.11
11 0.28
12 0.25
13 -0.01
14 0.09
15 -0.15
16 -0.15
17 0.08
18 0.08
19 -0.15
2 -0.36
20 -0.15
21 -0.15
22 -0.15
25 0.56
3 -0.36
31 0.15
32 0.15
33 0.15
34 0.15
35 0.15
36 0.15
4 -0.65
5 -0.65
6 -0.7
7 -0.14
8 0.09
9 0.14

>  <PUBCHEM_EFFECTIVE_ROTOR_COUNT>  (1) 
4

>  <PUBCHEM_PHARMACOPHORE_FEATURES>  (1) 
10
1 2 acceptor
1 3 acceptor
1 4 acceptor
1 5 acceptor
1 6 acceptor
3 10 23 24 hydrophobe
5 2 3 17 18 25 rings
6 13 14 19 20 21 22 rings
6 6 7 8 9 11 12 rings
6 7 8 15 16 17 18 rings

>  <PUBCHEM_HEAVY_ATOM_COUNT>  (1) 
25

>  <PUBCHEM_ATOM_DEF_STEREO_COUNT>  (1) 
0

>  <PUBCHEM_ATOM_UDEF_STEREO_COUNT>  (1) 
0

>  <PUBCHEM_BOND_DEF_STEREO_COUNT>  (1) 
0

>  <PUBCHEM_BOND_UDEF_STEREO_COUNT>  (1) 
0

>  <PUBCHEM_ISOTOPIC_ATOM_COUNT>  (1) 
0

>  <PUBCHEM_COMPONENT_COUNT>  (1) 
1

>  <PUBCHEM_CACTVS_TAUTO_COUNT>  (1) 
1

>  <PUBCHEM_CONFORMER_ID>  (1) 
0000768900000001

>  <PUBCHEM_MMFF94_ENERGY>  (1) 
65.3377

>  <PUBCHEM_FEATURE_SELFOVERLAP>  (1) 
50.948

>  <PUBCHEM_SHAPE_FINGERPRINT>  (1) 
10411042 1 17978791208518919534
10595046 47 18342733049036070351
12107183 9 18052819139850546963
12236239 1 17704067382903742662
12422481 6 18117251745610154000
12633257 1 16443623635552136484
12769317 202 18343014510547636960
12788726 201 17060066895660481457
12925494 130 18120369853302677205
13103583 49 11819264517533396351
13140716 1 18191581055383315490
13590594 115 17979080375322056320
13785724 45 17908987608716951510
13878862 14 18191567701902815813
14251764 38 18268997488279356697
14251764 75 18193847161169009300
14790565 3 18120380015010514628
14849402 71 18334580122944616924
15342168 16 18338799038927750190
15475509 35 16588292849024690434
15840311 113 18266184942532060381
16760501 71 18410299099404113761
16992752 21 17544198182553385018
17810953 82 18411140229677578580
17844677 252 18340211791347864539
20157964 124 18411416215854636823
20511986 3 17846486054597092296
20715895 44 17912927176232754489
20739085 24 18187367632019983972
20832881 197 17971477286491653770
21033648 144 18188479276476313887
21033648 29 17023176086125737045
21033650 10 14836136416242152683
21065198 57 18336267860171494107
21315763 129 18336542725008614571
21315764 268 18190177889398894253
21475661 188 18261670364076477829
21709351 56 18269830930877762847
21792934 111 17969237668560779265
21859007 373 17314499324267991597
22122407 14 18270694069323223729
22950370 63 8790895093994020627
23559900 14 18339082558156510539
245318 6 17752498808417778012
24771293 8 18200571676465279282
283562 15 17401193973519623122
2838139 119 18271241719933235844
335352 9 18411135879698179694
34797466 226 18059864952454030415
3493558 16 18339369560998698337
350125 39 18409729539522345596
397830 11 18261691324360564115
474 4 18412260674991695178
5104073 3 18260271824341313459
57724786 102 18199756855969069929
6086070 43 17826488004262547919
633830 44 18336541621629449731
8272917 22 18413390921547950734
9981440 41 18338233902582755106

>  <PUBCHEM_SHAPE_MULTIPOLES>  (1) 
489.88
13.08
3.63
1.03
11.78
1.42
0.02
7.91
-1.77
-4.5
0.22
0.93
-0.25
0.09

>  <PUBCHEM_SHAPE_SELFOVERLAP>  (1) 
1065.901

>  <PUBCHEM_SHAPE_VOLUME>  (1) 
270

>  <PUBCHEM_COORDINATE_TYPE>  (1) 
2
5
10

$$$$
