30341
     RDKit          3D

 19 19  0  0  0  0  0  0  0  0999 V2000
   -3.6268    0.3236    0.6111 S   0  0  0  0  0  0  0  0  0  0  0  0
   -4.2651   -0.8766    1.1160 O   0  0  0  0  0  0  0  0  0  0  0  0
   -3.7641    1.5842    1.3151 O   0  0  0  0  0  0  0  0  0  0  0  0
    2.5967   -1.8791   -0.5727 O   0  0  0  0  0  0  0  0  0  0  0  0
    4.4705   -0.1868    0.5599 N   0  0  0  0  0  0  0  0  0  0  0  0
    3.1028    0.0193    0.6619 N   0  0  0  0  0  0  0  0  0  0  0  0
   -4.1632    0.5845   -1.0588 C   0  0  0  0  0  0  0  0  0  0  0  0
   -1.9042   -0.0307    0.4486 C   0  0  0  0  0  0  0  0  0  0  0  0
   -5.6406    0.9474   -1.0872 C   0  0  0  0  0  0  0  0  0  0  0  0
   -3.8773   -0.6487   -1.9029 C   0  0  0  0  0  0  0  0  0  0  0  0
   -1.4958   -1.3436    0.2834 C   0  0  0  0  0  0  0  0  0  0  0  0
   -0.9917    1.0101    0.4903 C   0  0  0  0  0  0  0  0  0  0  0  0
    0.7970   -0.5873    0.1962 C   0  0  0  0  0  0  0  0  0  0  0  0
   -0.1353   -1.6239    0.1563 C   0  0  0  0  0  0  0  0  0  0  0  0
    0.3689    0.7298    0.3632 C   0  0  0  0  0  0  0  0  0  0  0  0
    5.1058    0.9587   -0.0773 C   0  0  0  0  0  0  0  0  0  0  0  0
    2.2153   -0.8794    0.0628 C   0  0  0  0  0  0  0  0  0  0  0  0
    4.5874    1.1258   -1.5029 C   0  0  0  0  0  0  0  0  0  0  0  0
    6.6197    0.7728   -0.0629 C   0  0  0  0  0  0  0  0  0  0  0  0
  1  2  2  0
  1  3  2  0
  1  7  1  0
  1  8  1  0
  4 17  2  0
  5  6  1  0
  5 16  1  0
  6 17  1  0
  7  9  1  0
  7 10  1  0
  8 11  2  0
  8 12  1  0
 11 14  1  0
 12 15  2  0
 13 14  2  0
 13 15  1  0
 13 17  1  0
 16 18  1  0
 16 19  1  0
M  END
>  <PUBCHEM_COMPOUND_CID>  (1) 
30341

>  <PUBCHEM_CONFORMER_RMSD>  (1) 
0.8

>  <PUBCHEM_CONFORMER_DIVERSEORDER>  (1) 
3
5
14
8
9
17
16
12
1
7
15
11
13
10
4
6
2

>  <PUBCHEM_MMFF94_PARTIAL_CHARGES>  (1) 
21
1 1.2
11 -0.15
12 -0.15
13 0.09
14 -0.15
15 -0.15
16 0.27
17 0.54
2 -0.65
27 0.15
28 0.15
3 -0.65
30 0.15
31 0.15
32 0.36
39 0.37
4 -0.57
5 -0.64
6 -0.42
7 0.11
8 -0.01

>  <PUBCHEM_EFFECTIVE_ROTOR_COUNT>  (1) 
6

>  <PUBCHEM_PHARMACOPHORE_FEATURES>  (1) 
8
1 2 acceptor
1 3 acceptor
1 4 acceptor
1 5 donor
1 6 donor
3 16 18 19 hydrophobe
3 7 9 10 hydrophobe
6 8 11 12 13 14 15 rings

>  <PUBCHEM_HEAVY_ATOM_COUNT>  (1) 
19

>  <PUBCHEM_ATOM_DEF_STEREO_COUNT>  (1) 
0

>  <PUBCHEM_ATOM_UDEF_STEREO_COUNT>  (1) 
0

>  <PUBCHEM_BOND_DEF_STEREO_COUNT>  (1) 
0

>  <PUBCHEM_BOND_UDEF_STEREO_COUNT>  (1) 
0

>  <PUBCHEM_ISOTOPIC_ATOM_COUNT>  (1) 
0

>  <PUBCHEM_COMPONENT_COUNT>  (1) 
1

>  <PUBCHEM_CACTVS_TAUTO_COUNT>  (1) 
2

>  <PUBCHEM_CONFORMER_ID>  (1) 
0000768500000003

>  <PUBCHEM_MMFF94_ENERGY>  (1) 
25.4954

>  <PUBCHEM_FEATURE_SELFOVERLAP>  (1) 
42.094

>  <PUBCHEM_SHAPE_FINGERPRINT>  (1) 
10014705 185 17967813855734297923
10366900 7 17989483026399106634
10670039 82 18337125471147064924
10680689 15 17131836469206791539
11089746 13 18343578569224969744
117890 112 17458340823404170500
12507557 5 17458348545955893829
12596602 18 13118289191537540484
12670546 56 15285349630936750193
13288520 33 15123507030277669749
13403585 85 15285354024730622452
13583140 156 16732703861061702241
13675066 3 15646772271372437706
13760787 5 18341614763525884211
14123256 10 18131347514083311621
14251718 22 15769774671811032364
14251764 18 11530774694733123969
14251764 38 16950283983668030084
14528608 73 18060695113444298640
15048467 5 17967809444497086021
15788980 27 16732986413974795322
17093844 174 9007065629739974247
17780758 139 11963394033557107781
17834072 33 17131832066807271080
17870717 6 16128655263001500013
1813 80 10591765445221889162
18335252 98 18408324406880914927
200 152 17203607090303850322
20645477 56 17022619771200676087
20645477 70 18200028426245209710
20871999 31 16917348147132867127
21054139 6 17703215313200609462
21150785 3 16630239294590772748
2297311 6 15410892972888222649
23402539 116 18130786763321989808
23402655 69 18130221571500953137
23503953 91 13118007686184373519
23559900 14 18337114467287981802
2767999 5 18409444800217424588
2838139 119 17530954796074569061
300161 21 18334288795434118802
33382 64 13758077415147785341
351380 3 10231757790700131420
474 4 17895202134048840976
4990 188 16487259867940717772
633830 44 18267592307944529027

>  <PUBCHEM_SHAPE_MULTIPOLES>  (1) 
367.29
13.69
1.53
1.28
11.24
0.3
0.38
-5.82
2.61
0.08
0.1
-1.3
-0.21
-0.21

>  <PUBCHEM_SHAPE_SELFOVERLAP>  (1) 
733.096

>  <PUBCHEM_SHAPE_VOLUME>  (1) 
218.7

>  <PUBCHEM_COORDINATE_TYPE>  (1) 
2
5
10

$$$$
