30358
     RDKit          3D

 26 29  0  0  1  0  0  0  0  0999 V2000
   -1.3840   -2.3193   -0.4406 O   0  0  0  0  0  0  0  0  0  0  0  0
    0.6380   -4.0378   -0.2349 O   0  0  0  0  0  0  0  0  0  0  0  0
   -2.7546   -0.9223    0.9190 O   0  0  0  0  0  0  0  0  0  0  0  0
   -4.6645    0.9198    0.6733 O   0  0  0  0  0  0  0  0  0  0  0  0
    3.1530    1.9532   -0.0001 N   0  0  0  0  0  0  0  0  0  0  0  0
    1.6810    1.5240    0.2858 C   0  0  0  0  0  0  0  0  0  0  0  0
    4.0784    0.9711    0.7374 C   0  0  0  0  0  0  0  0  0  0  0  0
    1.4056    0.0331    0.1349 C   0  0  0  0  0  0  0  0  0  0  0  0
    0.6797    2.3436   -0.5517 C   0  0  0  0  0  0  0  0  0  0  0  0
    3.8987   -0.4521    0.2269 C   0  0  0  0  0  0  0  0  0  0  0  0
    2.4636   -0.8947    0.1510 C   0  0  0  0  0  0  0  0  0  0  0  0
    3.4247    3.3474    0.5827 C   0  0  0  0  0  0  0  0  0  0  0  0
    3.4922    1.9926   -1.4913 C   0  0  0  0  0  0  0  0  0  0  0  0
    0.0583   -0.4057    0.0477 C   0  0  0  0  0  0  0  0  0  0  0  0
   -0.7419    1.9466   -0.2192 C   0  0  0  0  0  0  0  0  0  0  0  0
   -1.0379    0.5937    0.0627 C   0  0  0  0  0  0  0  0  0  0  0  0
    2.1846   -2.2607    0.0320 C   0  0  0  0  0  0  0  0  0  0  0  0
   -0.1792   -1.7864   -0.0695 C   0  0  0  0  0  0  0  0  0  0  0  0
    0.8717   -2.7033   -0.0777 C   0  0  0  0  0  0  0  0  0  0  0  0
   -1.7578    2.9142   -0.2435 C   0  0  0  0  0  0  0  0  0  0  0  0
   -2.3736    0.2668    0.3583 C   0  0  0  0  0  0  0  0  0  0  0  0
   -3.3786    1.2386    0.3485 C   0  0  0  0  0  0  0  0  0  0  0  0
   -3.0722    2.5597    0.0428 C   0  0  0  0  0  0  0  0  0  0  0  0
   -1.5922   -2.5270   -1.8332 C   0  0  0  0  0  0  0  0  0  0  0  0
    0.4233   -4.8005    0.9501 C   0  0  0  0  0  0  0  0  0  0  0  0
   -5.5164    0.5054   -0.3917 C   0  0  0  0  0  0  0  0  0  0  0  0
  1 18  1  0
  1 24  1  0
  2 19  1  0
  2 25  1  0
  3 21  1  0
  4 22  1  0
  4 26  1  0
  5  6  1  0
  5  7  1  0
  5 12  1  0
  5 13  1  0
  6  8  1  0
  6  9  1  0
  7 10  1  0
  8 11  2  0
  8 14  1  0
  9 15  1  0
 10 11  1  0
 11 17  1  0
 14 16  1  0
 14 18  2  0
 15 16  2  0
 15 20  1  0
 16 21  1  0
 17 19  2  0
 18 19  1  0
 20 23  2  0
 21 22  2  0
 22 23  1  0
M  CHG  1   5   1
M  END
>  <PUBCHEM_COMPOUND_CID>  (1) 
30358

>  <PUBCHEM_CONFORMER_RMSD>  (1) 
0.8

>  <PUBCHEM_CONFORMER_DIVERSEORDER>  (1) 
2
3
1
4

>  <PUBCHEM_MMFF94_PARTIAL_CHARGES>  (1) 
28
1 -0.36
10 0.14
11 -0.14
12 0.5
13 0.5
15 -0.14
17 -0.15
18 0.08
19 0.08
2 -0.36
20 -0.15
21 0.08
22 0.08
23 -0.15
24 0.28
25 0.28
26 0.28
3 -0.53
4 -0.36
40 0.15
41 0.15
42 0.15
43 0.45
5 -1.01
6 0.65
7 0.5
8 -0.14
9 0.14

>  <PUBCHEM_EFFECTIVE_ROTOR_COUNT>  (1) 
3.8

>  <PUBCHEM_PHARMACOPHORE_FEATURES>  (1) 
9
1 1 acceptor
1 2 acceptor
1 3 donor
1 4 acceptor
1 5 cation
6 15 16 20 21 22 23 rings
6 5 6 7 8 10 11 rings
6 6 8 9 14 15 16 rings
6 8 11 14 17 18 19 rings

>  <PUBCHEM_HEAVY_ATOM_COUNT>  (1) 
26

>  <PUBCHEM_ATOM_DEF_STEREO_COUNT>  (1) 
0

>  <PUBCHEM_ATOM_UDEF_STEREO_COUNT>  (1) 
1

>  <PUBCHEM_BOND_DEF_STEREO_COUNT>  (1) 
0

>  <PUBCHEM_BOND_UDEF_STEREO_COUNT>  (1) 
0

>  <PUBCHEM_ISOTOPIC_ATOM_COUNT>  (1) 
0

>  <PUBCHEM_COMPONENT_COUNT>  (1) 
1

>  <PUBCHEM_CACTVS_TAUTO_COUNT>  (1) 
9

>  <PUBCHEM_CONFORMER_ID>  (1) 
0000769600000002

>  <PUBCHEM_MMFF94_ENERGY>  (1) 
131.6036

>  <PUBCHEM_FEATURE_SELFOVERLAP>  (1) 
45.763

>  <PUBCHEM_SHAPE_FINGERPRINT>  (1) 
10074138 170 17906141277996321856
10090160 65 18408597055092638239
10411042 1 17473826126454002779
10616163 171 18408609157909694777
10871710 139 18052257585392121221
10906281 52 18262540117051512961
10967382 1 18338798905614939224
1100329 8 18411978070654701210
11370993 70 18411975875499391984
11578080 2 13960546026188553416
12035759 4 18198316590125672631
12403259 226 17685776826660324373
12553582 1 16900468135385558950
12592029 89 18339084791501808369
12788726 201 17838611511053239990
13140716 1 18410289237504749698
13583140 156 17023725858608102528
138480 1 17834114147924183042
14178342 30 17833539468900620200
14223421 5 18120093888108792801
14787075 74 18059849601919414289
14790565 3 18338803424121410429
14863182 85 18261972807215435597
14866123 147 18411125945049057418
14955137 171 18265612075034825346
16728300 4 17245520319727601794
16945 1 18264496074367677410
17138139 8 17629169858311717735
19591789 44 18411141329062235564
19930381 70 18193837042167388209
20028762 73 18272080608734965295
20600515 1 16755168210672324705
20739085 24 18189920667485728297
20905425 154 17761779463897125958
21041028 32 17040358488897673642
21197605 99 18339090410147856227
21524375 3 18343585126843231187
221490 88 17976827484465572795
22149856 69 18337692862486625569
2334 1 18266456692847646814
23366157 5 17971482788449520507
23558518 356 17613154487531433704
23559900 14 18193832635494155729
238 59 17758079667510232173
2748010 2 17690832364045267478
3091708 16 9118943154237923786
3178227 256 18266194858656180530
335352 9 18411699890128799372
3380486 77 17395518092142625994
350125 39 18409730668861289592
5104073 3 18193278490508736473
58807428 26 18338783564350461098
6438718 38 17772758413896852598
7364860 26 18195247719859751456
81228 2 17837759393878762098
9709674 26 18191875513724090299

>  <PUBCHEM_SHAPE_MULTIPOLES>  (1) 
506.61
7.39
5.1
0.98
4.87
4.67
-0.31
-5.08
0.57
-1.9
0.11
-0.06
0.24
-0.5

>  <PUBCHEM_SHAPE_SELFOVERLAP>  (1) 
1106.208

>  <PUBCHEM_SHAPE_VOLUME>  (1) 
277.2

>  <PUBCHEM_COORDINATE_TYPE>  (1) 
2
5
10

$$$$
