3035
     RDKit          3D

 18 19  0  0  0  0  0  0  0  0999 V2000
    5.2032    1.9949   -0.0001 Cl  0  0  0  0  0  0  0  0  0  0  0  0
   -5.1726    2.0275    0.0004 Cl  0  0  0  0  0  0  0  0  0  0  0  0
   -1.5082   -3.2279   -0.0011 Cl  0  0  0  0  0  0  0  0  0  0  0  0
    1.4177   -3.2615    0.0011 Cl  0  0  0  0  0  0  0  0  0  0  0  0
    0.0061   -0.9329   -0.0002 C   0  0  0  0  0  0  0  0  0  0  0  0
    1.2736   -0.2194   -0.0001 C   0  0  0  0  0  0  0  0  0  0  0  0
   -1.2944   -0.1901   -0.0001 C   0  0  0  0  0  0  0  0  0  0  0  0
    1.8813    0.1226    1.2080 C   0  0  0  0  0  0  0  0  0  0  0  0
   -1.8625    0.1346   -1.2080 C   0  0  0  0  0  0  0  0  0  0  0  0
    1.8810    0.1235   -1.2080 C   0  0  0  0  0  0  0  0  0  0  0  0
   -1.8622    0.1350    1.2080 C   0  0  0  0  0  0  0  0  0  0  0  0
    3.0965    0.8075    1.2079 C   0  0  0  0  0  0  0  0  0  0  0  0
   -3.0734    0.8271   -1.2079 C   0  0  0  0  0  0  0  0  0  0  0  0
    3.0962    0.8083   -1.2080 C   0  0  0  0  0  0  0  0  0  0  0  0
   -3.0731    0.8274    1.2081 C   0  0  0  0  0  0  0  0  0  0  0  0
    3.7039    1.1503   -0.0001 C   0  0  0  0  0  0  0  0  0  0  0  0
   -3.6786    1.1736    0.0002 C   0  0  0  0  0  0  0  0  0  0  0  0
   -0.0344   -2.3004   -0.0001 C   0  0  0  0  0  0  0  0  0  0  0  0
  1 16  1  0
  2 17  1  0
  3 18  1  0
  4 18  1  0
  5  6  1  0
  5  7  1  0
  5 18  2  3
  6  8  2  0
  6 10  1  0
  7  9  2  0
  7 11  1  0
  8 12  1  0
  9 13  1  0
 10 14  2  0
 11 15  2  0
 12 16  2  0
 13 17  2  0
 14 16  1  0
 15 17  1  0
M  END
>  <PUBCHEM_COMPOUND_CID>  (1) 
3035

>  <PUBCHEM_CONFORMER_RMSD>  (1) 
0.6

>  <PUBCHEM_CONFORMER_DIVERSEORDER>  (1) 
1

>  <PUBCHEM_MMFF94_PARTIAL_CHARGES>  (1) 
26
1 -0.18
10 -0.15
11 -0.15
12 -0.15
13 -0.15
14 -0.15
15 -0.15
16 0.18
17 0.18
18 0.28
19 0.15
2 -0.18
20 0.15
21 0.15
22 0.15
23 0.15
24 0.15
25 0.15
26 0.15
3 -0.14
4 -0.14
5 -0.06
6 0.03
7 0.03
8 -0.15
9 -0.15

>  <PUBCHEM_EFFECTIVE_ROTOR_COUNT>  (1) 
2

>  <PUBCHEM_PHARMACOPHORE_FEATURES>  (1) 
2
6 6 8 10 12 14 16 rings
6 7 9 11 13 15 17 rings

>  <PUBCHEM_HEAVY_ATOM_COUNT>  (1) 
18

>  <PUBCHEM_ATOM_DEF_STEREO_COUNT>  (1) 
0

>  <PUBCHEM_ATOM_UDEF_STEREO_COUNT>  (1) 
0

>  <PUBCHEM_BOND_DEF_STEREO_COUNT>  (1) 
0

>  <PUBCHEM_BOND_UDEF_STEREO_COUNT>  (1) 
0

>  <PUBCHEM_ISOTOPIC_ATOM_COUNT>  (1) 
0

>  <PUBCHEM_COMPONENT_COUNT>  (1) 
1

>  <PUBCHEM_CACTVS_TAUTO_COUNT>  (1) 
1

>  <PUBCHEM_CONFORMER_ID>  (1) 
00000BDB00000001

>  <PUBCHEM_MMFF94_ENERGY>  (1) 
55.6815

>  <PUBCHEM_FEATURE_SELFOVERLAP>  (1) 
10.149

>  <PUBCHEM_SHAPE_FINGERPRINT>  (1) 
10498660 4 18344146981818044641
11725454 13 16735478977271301071
12173636 292 18267302217036199220
12251169 10 15719393940444914084
12363563 72 9511461130083945236
12500047 106 18268991054776361066
12507560 40 16733254664884578860
12633257 1 15647060386163275144
12707595 3 10375864165007158749
12730499 353 18339091384877929329
12788726 201 17830465233714255054
12892183 10 15647323096438334641
13134695 92 17758391877114838598
13140716 1 18335419045790145002
13955234 65 18120100489848151579
13965767 371 18114172021761429092
14123255 52 18410857659157016901
14142880 1 18262795301968428463
14787075 74 17916019243532072971
15309172 13 18334577944884475429
15342168 16 18408323259554733597
16752209 62 18122046865694561394
1741750 31 18411136987019013458
17980427 23 17385732434723891061
1813 80 17410500879217288454
18186145 218 18272382953147157748
18222031 100 11314316031127717889
18785283 64 18190181191574727498
19765921 60 18130216086906941555
19784866 34 18341895160692741385
204376 136 18409166623242529073
20510252 161 18053383485468093586
20600515 1 17038346339458219634
20645477 56 18338524161194911740
20671657 53 13542469765221192528
20871998 22 8790877471622132750
21524375 3 18260546748828349699
21618674 25 18261678073959408233
21731228 192 18040716991219892138
22079108 93 18201733872565207827
2255824 54 18125438601452563223
23402539 116 18201715176430636788
23402655 69 16917074338715380584
23419403 2 17395630117769463322
23557571 272 18127419075481439388
23559900 14 17169849777435076251
25 1 17988652882340676368
283562 15 18049435139118285010
3082319 5 15698002924536145800
350125 39 18410020939404047466
4028521 119 17775286058101570457
4340502 62 18411703150151453587
474 4 18341894082365871121
495365 180 18192428568125453027
59755656 520 18411980277703538590
633830 44 18130515132231025669
6442390 28 18340220668950573323
7364860 26 18196933258068329454
7808743 9 18336547234888195348
81228 2 17905613550669384618
84936 182 18128252285856433377

>  <PUBCHEM_SHAPE_MULTIPOLES>  (1) 
377.91
8.58
2.99
1.26
0.27
3.44
0
-9.18
0
-0.1
0
0.01
-0.3
0

>  <PUBCHEM_SHAPE_SELFOVERLAP>  (1) 
777.543

>  <PUBCHEM_SHAPE_VOLUME>  (1) 
208.1

>  <PUBCHEM_COORDINATE_TYPE>  (1) 
2
5
10

$$$$
