30350
     RDKit          3D

 12 13  0  0  0  0  0  0  0  0999 V2000
   -0.3004    2.0418   -0.0002 O   0  0  0  0  0  0  0  0  0  0  0  0
    2.8561    0.4482    0.0001 O   0  0  0  0  0  0  0  0  0  0  0  0
    0.5589   -0.1146    0.0005 C   0  0  0  0  0  0  0  0  0  0  0  0
   -0.5577    0.6958    0.0003 C   0  0  0  0  0  0  0  0  0  0  0  0
    0.4925   -1.4925    0.0004 C   0  0  0  0  0  0  0  0  0  0  0  0
   -1.8234    0.1435    0.0001 C   0  0  0  0  0  0  0  0  0  0  0  0
    1.6865    0.7767    0.0002 C   0  0  0  0  0  0  0  0  0  0  0  0
    1.1404    2.1766   -0.0003 C   0  0  0  0  0  0  0  0  0  0  0  0
   -0.7809   -2.0633    0.0002 C   0  0  0  0  0  0  0  0  0  0  0  0
   -1.9309   -1.2516   -0.0001 C   0  0  0  0  0  0  0  0  0  0  0  0
    1.7040   -2.3543   -0.0009 C   0  0  0  0  0  0  0  0  0  0  0  0
   -3.0451    0.9937   -0.0004 C   0  0  0  0  0  0  0  0  0  0  0  0
  1  4  1  0
  1  8  1  0
  2  7  2  0
  3  4  2  0
  3  5  1  0
  3  7  1  0
  4  6  1  0
  5  9  2  0
  5 11  1  0
  6 10  2  0
  6 12  1  0
  7  8  1  0
  9 10  1  0
M  END
>  <PUBCHEM_COMPOUND_CID>  (1) 
30350

>  <PUBCHEM_CONFORMER_RMSD>  (1) 
0.4

>  <PUBCHEM_CONFORMER_DIVERSEORDER>  (1) 
1

>  <PUBCHEM_MMFF94_PARTIAL_CHARGES>  (1) 
14
1 -0.36
10 -0.15
11 0.14
12 0.14
15 0.15
16 0.15
2 -0.57
3 0.09
4 0.08
5 -0.14
6 -0.14
7 0.42
8 0.34
9 -0.15

>  <PUBCHEM_EFFECTIVE_ROTOR_COUNT>  (1) 
0.4

>  <PUBCHEM_PHARMACOPHORE_FEATURES>  (1) 
4
1 1 acceptor
1 2 acceptor
5 1 3 4 7 8 rings
6 3 4 5 6 9 10 rings

>  <PUBCHEM_HEAVY_ATOM_COUNT>  (1) 
12

>  <PUBCHEM_ATOM_DEF_STEREO_COUNT>  (1) 
0

>  <PUBCHEM_ATOM_UDEF_STEREO_COUNT>  (1) 
0

>  <PUBCHEM_BOND_DEF_STEREO_COUNT>  (1) 
0

>  <PUBCHEM_BOND_UDEF_STEREO_COUNT>  (1) 
0

>  <PUBCHEM_ISOTOPIC_ATOM_COUNT>  (1) 
0

>  <PUBCHEM_COMPONENT_COUNT>  (1) 
1

>  <PUBCHEM_CACTVS_TAUTO_COUNT>  (1) 
2

>  <PUBCHEM_CONFORMER_ID>  (1) 
0000768E00000001

>  <PUBCHEM_MMFF94_ENERGY>  (1) 
30.4191

>  <PUBCHEM_FEATURE_SELFOVERLAP>  (1) 
20.398

>  <PUBCHEM_SHAPE_FINGERPRINT>  (1) 
10967382 1 18338797801686823429
11206711 2 18193839468781654327
12423570 1 17414450685634327286
12524768 44 18269559342678169487
13380535 76 18409442609493914339
161256 15 18194968430873519588
16945 1 18410855507525776357
193761 8 18410856602911631655
20588541 1 18408887321477143621
21040471 1 18266740375189783653
2334 1 17978228584169888837
23463225 33 18334851715085509050
23552423 10 18335985384176778918
23559900 14 18270974526909604164
241688 4 17834395618363086683
2748010 2 18338519634035624727
5084963 1 17842565320512278379
528886 8 18411414020646170745
53812653 166 18342174483537194593
63268167 104 18340769234978918393
66348 1 18267307538447957155

>  <PUBCHEM_SHAPE_MULTIPOLES>  (1) 
235.22
3.29
2.66
0.6
0.82
0.38
0
-0.47
0
-0.75
0
0.02
0.02
0

>  <PUBCHEM_SHAPE_SELFOVERLAP>  (1) 
514.404

>  <PUBCHEM_SHAPE_VOLUME>  (1) 
131

>  <PUBCHEM_COORDINATE_TYPE>  (1) 
2
5
10

$$$$
