30365
     RDKit          3D

 28 30  0  0  0  0  0  0  0  0999 V2000
   -1.4302    5.0860    1.2204 F   0  0  0  0  0  0  0  0  0  0  0  0
   -5.5177   -3.1726    1.4952 F   0  0  0  0  0  0  0  0  0  0  0  0
   -0.0344   -0.7922   -0.2890 O   0  0  0  0  0  0  0  0  0  0  0  0
    1.0998    0.7932   -1.5037 O   0  0  0  0  0  0  0  0  0  0  0  0
    2.2053   -0.8630   -0.3146 N   0  0  0  0  0  0  0  0  0  0  0  0
    3.5637   -0.4824   -0.6441 C   0  0  0  0  0  0  0  0  0  0  0  0
    4.0458    0.5899    0.3381 C   0  0  0  0  0  0  0  0  0  0  0  0
    4.4432   -1.7293   -0.7812 C   0  0  0  0  0  0  0  0  0  0  0  0
    5.5549    0.8164    0.3619 C   0  0  0  0  0  0  0  0  0  0  0  0
    5.0456   -2.2461    0.5246 C   0  0  0  0  0  0  0  0  0  0  0  0
    6.2763   -0.1251    1.3250 C   0  0  0  0  0  0  0  0  0  0  0  0
    6.3757   -1.5760    0.8664 C   0  0  0  0  0  0  0  0  0  0  0  0
    1.0939   -0.1921   -0.7731 C   0  0  0  0  0  0  0  0  0  0  0  0
   -1.2761   -0.1991   -0.6854 C   0  0  0  0  0  0  0  0  0  0  0  0
   -1.3184    1.2460   -0.1652 C   0  0  0  0  0  0  0  0  0  0  0  0
   -2.4350   -1.0105   -0.0902 C   0  0  0  0  0  0  0  0  0  0  0  0
   -1.9561    2.1950   -0.9248 C   0  0  0  0  0  0  0  0  0  0  0  0
   -3.7190   -0.6721   -0.4410 C   0  0  0  0  0  0  0  0  0  0  0  0
   -0.7162    1.5232    1.0369 C   0  0  0  0  0  0  0  0  0  0  0  0
   -2.1373   -2.0407    0.7681 C   0  0  0  0  0  0  0  0  0  0  0  0
   -1.2811   -0.2887   -2.1682 C   0  0  0  0  0  0  0  0  0  0  0  0
   -1.9941    3.5067   -0.4516 C   0  0  0  0  0  0  0  0  0  0  0  0
   -4.7715   -1.4101    0.1006 C   0  0  0  0  0  0  0  0  0  0  0  0
   -0.7542    2.8349    1.5100 C   0  0  0  0  0  0  0  0  0  0  0  0
   -3.1898   -2.7786    1.3097 C   0  0  0  0  0  0  0  0  0  0  0  0
   -1.3930    3.8266    0.7657 C   0  0  0  0  0  0  0  0  0  0  0  0
   -4.5069   -2.4633    0.9759 C   0  0  0  0  0  0  0  0  0  0  0  0
   -1.2731   -0.3758   -3.3663 C   0  0  0  0  0  0  0  0  0  0  0  0
  1 26  1  0
  2 27  1  0
  3 13  1  0
  3 14  1  0
  4 13  2  0
  5  6  1  0
  5 13  1  0
  6  7  1  0
  6  8  1  0
  7  9  1  0
  8 10  1  0
  9 11  1  0
 10 12  1  0
 11 12  1  0
 14 15  1  0
 14 16  1  0
 14 21  1  0
 15 17  2  0
 15 19  1  0
 16 18  2  0
 16 20  1  0
 17 22  1  0
 18 23  1  0
 19 24  2  0
 20 25  2  0
 21 28  3  0
 22 26  2  0
 23 27  2  0
 24 26  1  0
 25 27  1  0
M  END
>  <PUBCHEM_COMPOUND_CID>  (1) 
30365

>  <PUBCHEM_CONFORMER_RMSD>  (1) 
0.8

>  <PUBCHEM_CONFORMER_DIVERSEORDER>  (1) 
1
61
59
66
25
47
24
27
70
18
69
53
80
56
33
29
41
54
35
45
75
72
28
71
30
13
62
21
37
22
10
11
63
68
48
49
12
26
34
39
74
8
38
19
65
14
77
57
76
17
44
50
40
4
51
52
42
5
78
23
79
6
36
15
46
73
60
9
31
16
67
58
55
20
32
64
2
7
3
43

>  <PUBCHEM_MMFF94_PARTIAL_CHARGES>  (1) 
32
1 -0.19
13 0.78
14 0.77
15 -0.14
16 -0.14
17 -0.15
18 -0.15
19 -0.15
2 -0.19
20 -0.15
21 -0.2
22 -0.15
23 -0.15
24 -0.15
25 -0.15
26 0.19
27 0.19
28 -0.18
3 -0.43
4 -0.57
42 0.37
43 0.15
44 0.15
45 0.15
46 0.15
47 0.15
48 0.15
49 0.15
5 -0.73
50 0.15
51 0.18
6 0.3

>  <PUBCHEM_EFFECTIVE_ROTOR_COUNT>  (1) 
7.4

>  <PUBCHEM_PHARMACOPHORE_FEATURES>  (1) 
6
1 28 hydrophobe
1 4 acceptor
1 5 donor
6 15 17 19 22 24 26 rings
6 16 18 20 23 25 27 rings
7 6 7 8 9 10 11 12 rings

>  <PUBCHEM_HEAVY_ATOM_COUNT>  (1) 
28

>  <PUBCHEM_ATOM_DEF_STEREO_COUNT>  (1) 
0

>  <PUBCHEM_ATOM_UDEF_STEREO_COUNT>  (1) 
0

>  <PUBCHEM_BOND_DEF_STEREO_COUNT>  (1) 
0

>  <PUBCHEM_BOND_UDEF_STEREO_COUNT>  (1) 
0

>  <PUBCHEM_ISOTOPIC_ATOM_COUNT>  (1) 
0

>  <PUBCHEM_COMPONENT_COUNT>  (1) 
1

>  <PUBCHEM_CACTVS_TAUTO_COUNT>  (1) 
2

>  <PUBCHEM_CONFORMER_ID>  (1) 
0000769D00000001

>  <PUBCHEM_MMFF94_ENERGY>  (1) 
72.044

>  <PUBCHEM_FEATURE_SELFOVERLAP>  (1) 
30.447

>  <PUBCHEM_SHAPE_FINGERPRINT>  (1) 
10074138 170 18269004089712409649
10764073 3 17701563739445851553
12293681 160 18122319313267194877
12342043 65 17415314700343372430
12403814 3 17704066296160439750
12422481 6 17702125632615511905
12516196 113 18340210803347423355
12596602 18 18113890564502190306
12760667 363 18335136501229407783
12788726 201 18337126617201368262
12930653 34 18268996379966693886
12969540 37 17470449998375013679
13004483 165 18410299146084218971
13073987 5 18338509752260226402
13134695 92 18198911499373828925
133893 2 17409629383361003669
13583140 156 17988067904011911170
14068700 675 18114186375389040974
14178342 30 18262524676306201038
14400156 147 17103442857168227282
14565420 104 17263861182701255961
14840074 17 17631736109476019724
14863182 85 15881818548693120971
15131766 46 16199570515955487842
15775530 1 17483426056801313823
17492 89 18411139096249441002
17844677 252 18412826851124763310
17980427 23 17560259006554557657
17980427 26 17405994432447989781
20600515 1 18336564784435095637
20681651 13 17605259693480369282
21304303 282 18048587128391303029
22956985 138 17543347610537433202
23419403 2 17973707362824459989
23559900 14 18187638145722696486
23845131 108 17761784961999149233
244849 19 17974826666099320935
283562 15 18336265660968754251
32027 91 17902515119167556587
3380486 145 17987216984579622669
3418910 222 18335424604295704652
376196 1 17051890733701387444
3886686 26 17904482896639979210
4409770 3 18261670364751626781
469060 322 18339658788259107184
497634 4 18041000614160227726
5104073 3 18339349753273732642
6004065 56 18268708501589714919
7226269 152 18338793404347473477
79837 15 17980489961739896336
9981440 41 17557411103164785750

>  <PUBCHEM_SHAPE_MULTIPOLES>  (1) 
544.96
12.19
4.44
1.87
20.2
4.91
-1.35
-10.29
5.05
-5.78
2.67
-1.08
-0.12
1.18

>  <PUBCHEM_SHAPE_SELFOVERLAP>  (1) 
1168.968

>  <PUBCHEM_SHAPE_VOLUME>  (1) 
299.5

>  <PUBCHEM_COORDINATE_TYPE>  (1) 
2
5
10

$$$$
