30362
     RDKit          3D

 27 29  0  0  1  0  0  0  0  0999 V2000
   -0.4335    0.5155    0.3654 O   0  0  0  0  0  0  0  0  0  0  0  0
   -1.6359   -1.1779    1.3459 O   0  0  0  0  0  0  0  0  0  0  0  0
   -2.6692    0.6972    0.4523 N   0  0  0  0  0  0  0  0  0  0  0  0
   -4.0393    0.3419    0.7488 C   0  0  0  0  0  0  0  0  0  0  0  0
   -4.8837    1.5898    1.0282 C   0  0  0  0  0  0  0  0  0  0  0  0
   -4.6470   -0.4990   -0.3790 C   0  0  0  0  0  0  0  0  0  0  0  0
   -5.1547    2.4074   -0.2348 C   0  0  0  0  0  0  0  0  0  0  0  0
   -4.9183    0.3221   -1.6396 C   0  0  0  0  0  0  0  0  0  0  0  0
   -5.7694    1.5518   -1.3383 C   0  0  0  0  0  0  0  0  0  0  0  0
   -1.5862   -0.0928    0.7762 C   0  0  0  0  0  0  0  0  0  0  0  0
    0.7791   -0.1958    0.6377 C   0  0  0  0  0  0  0  0  0  0  0  0
    1.9700    0.6398    0.1485 C   0  0  0  0  0  0  0  0  0  0  0  0
    0.7373   -1.5424   -0.1009 C   0  0  0  0  0  0  0  0  0  0  0  0
    3.2396    0.1870    0.4131 C   0  0  0  0  0  0  0  0  0  0  0  0
    1.7149    1.8049   -0.5329 C   0  0  0  0  0  0  0  0  0  0  0  0
    4.3216    0.9468   -0.0314 C   0  0  0  0  0  0  0  0  0  0  0  0
    4.1002    2.1357   -0.7267 C   0  0  0  0  0  0  0  0  0  0  0  0
    0.8114   -0.3387    2.1160 C   0  0  0  0  0  0  0  0  0  0  0  0
    2.7969    2.5646   -0.9775 C   0  0  0  0  0  0  0  0  0  0  0  0
    1.3358   -2.6286    0.4883 C   0  0  0  0  0  0  0  0  0  0  0  0
    0.1036   -1.6003   -1.3174 C   0  0  0  0  0  0  0  0  0  0  0  0
    5.7082    0.4677    0.2487 C   0  0  0  0  0  0  0  0  0  0  0  0
    5.2428    2.9656   -1.2128 C   0  0  0  0  0  0  0  0  0  0  0  0
    1.2979   -3.8512   -0.1821 C   0  0  0  0  0  0  0  0  0  0  0  0
    0.0658   -2.8229   -1.9879 C   0  0  0  0  0  0  0  0  0  0  0  0
    0.6630   -3.9484   -1.4202 C   0  0  0  0  0  0  0  0  0  0  0  0
    0.8494   -0.4396    3.3125 C   0  0  0  0  0  0  0  0  0  0  0  0
  1 10  1  0
  1 11  1  0
  2 10  2  0
  3  4  1  0
  3 10  1  0
  4  5  1  0
  4  6  1  0
  5  7  1  0
  6  8  1  0
  7  9  1  0
  8  9  1  0
 11 12  1  0
 11 13  1  0
 11 18  1  0
 12 14  2  0
 12 15  1  0
 13 20  2  0
 13 21  1  0
 14 16  1  0
 15 19  2  0
 16 17  2  0
 16 22  1  0
 17 19  1  0
 17 23  1  0
 18 27  3  0
 20 24  1  0
 21 25  2  0
 24 26  2  0
 25 26  1  0
M  END
>  <PUBCHEM_COMPOUND_CID>  (1) 
30362

>  <PUBCHEM_CONFORMER_RMSD>  (1) 
0.8

>  <PUBCHEM_CONFORMER_DIVERSEORDER>  (1) 
1
175
135
119
166
148
111
156
191
58
153
147
124
73
177
97
172
57
109
159
79
44
170
123
200
126
193
199
157
30
77
195
59
194
101
82
136
176
139
171
87
113
149
112
189
192
154
132
138
160
72
198
145
167
91
203
178
186
187
104
165
98
185
174
182
52
71
99
47
25
125
162
137
173
95
55
120
197
84
40
65
37
106
50
19
181
179
122
64
53
190
21
168
80
158
75
61
69
26
140
115
127
34
130
114
108
188
92
117
68
51
23
150
89
201
66
180
152
42
184
46
142
131
143
18
88
54
49
15
62
151
93
103
202
11
141
27
28
86
81
78
105
146
56
67
16
134
39
133
169
63
96
164
76
74
14
33
110
161
183
129
107
85
12
38
9
94
60
155
70
128
36
13
31
10
43
29
17
121
24
22
196
83
102
48
20
100
41
163
118
32
116
90
144
35
3
45
8
5
7
2
4
6

>  <PUBCHEM_MMFF94_PARTIAL_CHARGES>  (1) 
32
1 -0.43
10 0.78
11 0.77
12 -0.14
13 -0.14
14 -0.15
15 -0.15
16 -0.14
17 -0.14
18 -0.2
19 -0.15
2 -0.57
20 -0.15
21 -0.15
22 0.14
23 0.14
24 -0.15
25 -0.15
26 -0.15
27 -0.18
3 -0.73
39 0.37
4 0.3
40 0.15
41 0.15
42 0.15
43 0.15
44 0.15
51 0.15
52 0.15
53 0.15
54 0.18

>  <PUBCHEM_EFFECTIVE_ROTOR_COUNT>  (1) 
7.2

>  <PUBCHEM_PHARMACOPHORE_FEATURES>  (1) 
6
1 2 acceptor
1 27 hydrophobe
1 3 donor
6 12 14 15 16 17 19 rings
6 13 20 21 24 25 26 rings
6 4 5 6 7 8 9 rings

>  <PUBCHEM_HEAVY_ATOM_COUNT>  (1) 
27

>  <PUBCHEM_ATOM_DEF_STEREO_COUNT>  (1) 
0

>  <PUBCHEM_ATOM_UDEF_STEREO_COUNT>  (1) 
1

>  <PUBCHEM_BOND_DEF_STEREO_COUNT>  (1) 
0

>  <PUBCHEM_BOND_UDEF_STEREO_COUNT>  (1) 
0

>  <PUBCHEM_ISOTOPIC_ATOM_COUNT>  (1) 
0

>  <PUBCHEM_COMPONENT_COUNT>  (1) 
1

>  <PUBCHEM_CACTVS_TAUTO_COUNT>  (1) 
2

>  <PUBCHEM_CONFORMER_ID>  (1) 
0000769A00000001

>  <PUBCHEM_MMFF94_ENERGY>  (1) 
68.1967

>  <PUBCHEM_FEATURE_SELFOVERLAP>  (1) 
30.446

>  <PUBCHEM_SHAPE_FINGERPRINT>  (1) 
10369192 42 18191606313674611285
10721379 63 17984439441860785630
10764073 3 17095794430883197754
10985338 8 18337097956890500456
11421498 54 17917721158250575569
11488393 25 18192991513446732390
12788726 201 17763176239139483374
13103583 49 10737279118052623933
13149001 5 17058933470885981234
13257819 101 17821719537985498125
133893 2 17984448259550301514
14790565 3 18411138082072780500
14863182 85 16700883878590293751
14950920 106 8429453818661211781
15131766 46 14854434703938037244
15163728 17 18190201098816333421
15439362 3 18337961082139049708
15849732 13 18338223900474418906
17980427 26 17458891734960017378
18681886 176 18341039817576065000
20197701 30 18272651272713134022
20721686 124 18188197698869611963
21033648 144 18114179787004382005
21033650 10 16771301121871051384
21054139 6 18131057264926246159
21860390 5 18187082810920481661
22393880 68 17059757984775074181
23559900 14 18127963114820541539
2838139 119 18260828219589656148
298252 57 18338521953491830434
3060560 45 18411983542384890606
312425 83 18193831545274180237
314194 84 10159696880578634001
3633792 109 18059866017790548840
376196 1 18187648045665057769
38695281 34 18411981360093267230
4017518 198 18060144228898674734
404807 78 18196920284027624783
44802255 64 18122929761236913140
46194498 28 18194397793635481781
5081480 168 17979371758957429765
53917941 68 18126278890492290756
550186 7 17608115335188249115
57724786 102 18196379109394467257
59755656 215 18187649033676080868

>  <PUBCHEM_SHAPE_MULTIPOLES>  (1) 
538.93
11.41
3.97
1.97
9.06
3.36
1.12
-12.3
-3.36
-2.73
-2.32
0.24
0.58
-0.92

>  <PUBCHEM_SHAPE_SELFOVERLAP>  (1) 
1155.118

>  <PUBCHEM_SHAPE_VOLUME>  (1) 
296.1

>  <PUBCHEM_COORDINATE_TYPE>  (1) 
2
5
10

$$$$
