30369
     RDKit          3D

 19 20  0  0  1  0  0  0  0  0999 V2000
   -0.9636   -0.4349   -0.0808 O   0  0  0  0  0  0  0  0  0  0  0  0
    0.4980   -0.8368    1.6314 O   0  0  0  0  0  0  0  0  0  0  0  0
   -5.1003    0.5516   -0.7416 N   0  0  0  0  0  0  0  0  0  0  0  0
    1.2154   -0.0126   -0.4389 N   0  0  0  0  0  0  0  0  0  0  0  0
   -3.3293   -0.7667   -0.0557 C   0  0  0  0  0  0  0  0  0  0  0  0
   -4.5638   -1.2222    0.7264 C   0  0  0  0  0  0  0  0  0  0  0  0
   -3.6659    0.6603   -0.4727 C   0  0  0  0  0  0  0  0  0  0  0  0
   -5.6491   -0.2027    0.3873 C   0  0  0  0  0  0  0  0  0  0  0  0
   -2.0372   -0.8688    0.7373 C   0  0  0  0  0  0  0  0  0  0  0  0
   -5.7366    1.8500   -0.9059 C   0  0  0  0  0  0  0  0  0  0  0  0
    0.2908   -0.4620    0.4838 C   0  0  0  0  0  0  0  0  0  0  0  0
    2.6132    0.1208   -0.2763 C   0  0  0  0  0  0  0  0  0  0  0  0
    3.1349    1.3159    0.1985 C   0  0  0  0  0  0  0  0  0  0  0  0
    3.4429   -0.9452   -0.5949 C   0  0  0  0  0  0  0  0  0  0  0  0
    4.5143    1.4480    0.3579 C   0  0  0  0  0  0  0  0  0  0  0  0
    4.8223   -0.8132   -0.4354 C   0  0  0  0  0  0  0  0  0  0  0  0
    2.2570    2.4745    0.5459 C   0  0  0  0  0  0  0  0  0  0  0  0
    2.8992   -2.2396   -1.1073 C   0  0  0  0  0  0  0  0  0  0  0  0
    5.3579    0.3835    0.0410 C   0  0  0  0  0  0  0  0  0  0  0  0
  1  9  1  0
  1 11  1  0
  2 11  2  0
  3  7  1  0
  3  8  1  0
  3 10  1  0
  4 11  1  0
  4 12  1  0
  5  6  1  0
  5  7  1  0
  5  9  1  0
  6  8  1  0
 12 13  2  0
 12 14  1  0
 13 15  1  0
 13 17  1  0
 14 16  2  0
 14 18  1  0
 15 19  2  0
 16 19  1  0
M  END
>  <PUBCHEM_COMPOUND_CID>  (1) 
30369

>  <PUBCHEM_CONFORMER_RMSD>  (1) 
0.8

>  <PUBCHEM_CONFORMER_DIVERSEORDER>  (1) 
1
7
22
33
47
17
48
49
28
19
43
2
32
8
45
23
29
30
25
37
41
5
16
20
4
46
36
10
13
35
9
24
15
42
14
34
39
21
3
6
40
18
44
27
31
26
11
12
38

>  <PUBCHEM_MMFF94_PARTIAL_CHARGES>  (1) 
21
1 -0.43
10 0.27
11 0.78
12 0.12
13 -0.14
14 -0.14
15 -0.15
16 -0.15
17 0.14
18 0.14
19 -0.15
2 -0.57
3 -0.81
32 0.37
33 0.15
34 0.15
4 -0.55
41 0.15
7 0.27
8 0.27
9 0.28

>  <PUBCHEM_EFFECTIVE_ROTOR_COUNT>  (1) 
6

>  <PUBCHEM_PHARMACOPHORE_FEATURES>  (1) 
5
1 2 acceptor
1 3 cation
1 4 donor
5 3 5 6 7 8 rings
6 12 13 14 15 16 19 rings

>  <PUBCHEM_HEAVY_ATOM_COUNT>  (1) 
19

>  <PUBCHEM_ATOM_DEF_STEREO_COUNT>  (1) 
0

>  <PUBCHEM_ATOM_UDEF_STEREO_COUNT>  (1) 
1

>  <PUBCHEM_BOND_DEF_STEREO_COUNT>  (1) 
0

>  <PUBCHEM_BOND_UDEF_STEREO_COUNT>  (1) 
0

>  <PUBCHEM_ISOTOPIC_ATOM_COUNT>  (1) 
0

>  <PUBCHEM_COMPONENT_COUNT>  (1) 
1

>  <PUBCHEM_CACTVS_TAUTO_COUNT>  (1) 
2

>  <PUBCHEM_CONFORMER_ID>  (1) 
000076A100000001

>  <PUBCHEM_MMFF94_ENERGY>  (1) 
66.2704

>  <PUBCHEM_FEATURE_SELFOVERLAP>  (1) 
25.371

>  <PUBCHEM_SHAPE_FINGERPRINT>  (1) 
11089746 13 18261944202785627845
11287383 113 18411985796836779419
11471102 20 18272373092255602344
11595378 159 15647320897784208365
12236239 1 14562529591709928566
12596602 18 14707216538727971869
12730499 353 18410018749218243682
12916748 109 18040439897315389267
13402501 40 18335417971652435172
13533116 47 16199878276396163918
13675066 3 18261117412906959951
14573314 32 18408043996222066029
15183329 4 18272371928087662057
15788980 27 18272932743247060943
17844677 252 18261119603472156249
18222031 100 13686294673273481403
19433438 28 18187649141413928817
19489759 90 17675924318150005899
200 152 17632581543306397056
20645477 56 18334858342352019331
20645477 70 18131360687001593086
21033648 29 18336819883685728289
21279426 13 18263078816896420485
21315763 129 18334856155833844605
21709351 56 18200872988745547030
221357 26 18341609296286042213
22289505 5 18412543193766765108
23402539 116 18335415798520055839
23402655 69 18272370875393127190
23557571 272 18260271875791165003
23559900 14 18343582962427718594
2916195 48 18261388996336676225
29717793 49 16773806870225842932
300161 21 17917987295577285718
3060560 45 18060426833087137270
351380 180 18410572907172954969
3545911 37 18341617044042573099
4072396 5 18341039771306961522
4214541 1 18410294731158259115
441001 317 18334011679849531665
495365 180 18059287786053189024
4990 188 18333735706034986683
5104073 3 17603865543143869305
5281201 14 18412549807794608069
5283173 99 18337389340546439577
542803 24 15646773392406244639
59755656 215 18336266756406765910
633830 44 17968090975260827142
7164475 11 17130443306364863128
7495541 125 17273978119773575891
8272917 22 18130795551104789134
90127 26 18113625616048107009

>  <PUBCHEM_SHAPE_MULTIPOLES>  (1) 
369.31
14.55
1.96
1
12.15
0.56
-0.09
2.8
2.01
-1.01
0.18
0.33
-0.15
1.9

>  <PUBCHEM_SHAPE_SELFOVERLAP>  (1) 
763.757

>  <PUBCHEM_SHAPE_VOLUME>  (1) 
214.7

>  <PUBCHEM_COORDINATE_TYPE>  (1) 
2
5
10

$$$$
