30379
     RDKit          3D

 17 18  0  0  0  0  0  0  0  0999 V2000
    2.4112    0.8413    0.0350 N   0  0  0  0  0  0  0  0  0  0  0  0
    1.0452    0.2135    0.0416 C   0  0  0  0  0  0  0  0  0  0  0  0
    0.8902   -0.6075   -1.2553 C   0  0  0  0  0  0  0  0  0  0  0  0
    0.9540   -0.6560    1.3136 C   0  0  0  0  0  0  0  0  0  0  0  0
    0.0358    1.3654    0.0687 C   0  0  0  0  0  0  0  0  0  0  0  0
    1.3959   -2.0370   -1.0879 C   0  0  0  0  0  0  0  0  0  0  0  0
    0.0659   -1.8771    1.0960 C   0  0  0  0  0  0  0  0  0  0  0  0
    0.6178   -2.7873   -0.0041 C   0  0  0  0  0  0  0  0  0  0  0  0
    2.5654    1.7567   -1.1797 C   0  0  0  0  0  0  0  0  0  0  0  0
    3.4890   -0.2412   -0.0256 C   0  0  0  0  0  0  0  0  0  0  0  0
    2.6175    1.6695    1.3033 C   0  0  0  0  0  0  0  0  0  0  0  0
   -1.3777    0.8599    0.0066 C   0  0  0  0  0  0  0  0  0  0  0  0
   -1.9907    0.6853   -1.2281 C   0  0  0  0  0  0  0  0  0  0  0  0
   -2.0563    0.5720    1.1844 C   0  0  0  0  0  0  0  0  0  0  0  0
   -3.3028    0.2158   -1.2860 C   0  0  0  0  0  0  0  0  0  0  0  0
   -3.3685    0.1022    1.1264 C   0  0  0  0  0  0  0  0  0  0  0  0
   -3.9917   -0.0757   -0.1088 C   0  0  0  0  0  0  0  0  0  0  0  0
  1  2  1  0
  1  9  1  0
  1 10  1  0
  1 11  1  0
  2  3  1  0
  2  4  1  0
  2  5  1  0
  3  6  1  0
  4  7  1  0
  5 12  1  0
  6  8  1  0
  7  8  1  0
 12 13  2  0
 12 14  1  0
 13 15  1  0
 14 16  2  0
 15 17  2  0
 16 17  1  0
M  CHG  1   1   1
M  END
>  <PUBCHEM_COMPOUND_CID>  (1) 
30379

>  <PUBCHEM_CONFORMER_RMSD>  (1) 
0.6

>  <PUBCHEM_CONFORMER_DIVERSEORDER>  (1) 
1

>  <PUBCHEM_MMFF94_PARTIAL_CHARGES>  (1) 
17
1 -1.01
10 0.5
11 0.5
12 -0.14
13 -0.15
14 -0.15
15 -0.15
16 -0.15
17 -0.15
2 0.5
39 0.15
40 0.15
41 0.15
42 0.15
43 0.15
5 0.14
9 0.5

>  <PUBCHEM_EFFECTIVE_ROTOR_COUNT>  (1) 
4.2

>  <PUBCHEM_PHARMACOPHORE_FEATURES>  (1) 
3
1 1 cation
6 12 13 14 15 16 17 rings
6 2 3 4 6 7 8 rings

>  <PUBCHEM_HEAVY_ATOM_COUNT>  (1) 
17

>  <PUBCHEM_ATOM_DEF_STEREO_COUNT>  (1) 
0

>  <PUBCHEM_ATOM_UDEF_STEREO_COUNT>  (1) 
0

>  <PUBCHEM_BOND_DEF_STEREO_COUNT>  (1) 
0

>  <PUBCHEM_BOND_UDEF_STEREO_COUNT>  (1) 
0

>  <PUBCHEM_ISOTOPIC_ATOM_COUNT>  (1) 
0

>  <PUBCHEM_COMPONENT_COUNT>  (1) 
1

>  <PUBCHEM_CACTVS_TAUTO_COUNT>  (1) 
1

>  <PUBCHEM_CONFORMER_ID>  (1) 
000076AB00000001

>  <PUBCHEM_MMFF94_ENERGY>  (1) 
95.461

>  <PUBCHEM_FEATURE_SELFOVERLAP>  (1) 
15.223

>  <PUBCHEM_SHAPE_FINGERPRINT>  (1) 
107287 299 18335706035303682337
10863032 1 18130223881908762230
10922049 32 18334860541179985766
11132069 177 18336260257804482521
12138202 97 18191600841775129398
12326174 3 18265045847393258506
12423570 1 15735801003478636658
12491281 212 17703231831259525392
13132413 78 10737279108951285086
14787075 74 17126182969474585829
15207287 21 17822563997554897489
15309172 13 18335987570299431689
15375358 24 17821720629466470445
15775835 57 18186800318094491635
15852999 172 17241035531676587675
16945 1 18201153261331757476
18175812 5 17240481424702275373
18186145 218 18201720695089052684
19422 9 16988564614986614341
204376 136 18337667645699830480
20645477 70 18270110202883949175
21041028 32 17840599097537753360
21524375 3 18338795718891552506
21730867 7 18113900429340513723
21731516 1 17910678665962935287
23227448 37 16954805369134722540
23236772 104 17703789254022553505
23402539 116 18343865498419847032
23419403 2 17325270247078381410
23557571 272 17095528375081392985
23559900 14 16950832605879024232
2748010 2 18264787621195957418
3286 77 18131350804292108448
3323516 105 18271541830809779015
34934 24 17846223189967162441
4340502 62 18412548734733363611
458136 41 18266480800198489842
474 4 17916578894165335897
5845 1 16758036905312960730
633830 44 18060149763908484997
7364860 26 18198622137998457299
7832392 63 17769105539895707073
81228 2 17688301713279617890
9981440 41 16265982246523353440
9999458 23 17240202149197031154

>  <PUBCHEM_SHAPE_MULTIPOLES>  (1) 
344.87
5.59
2.18
1.48
3.34
1.29
0
-1.61
-0.22
-1.61
-0.04
0.15
-0.06
0.24

>  <PUBCHEM_SHAPE_SELFOVERLAP>  (1) 
713.495

>  <PUBCHEM_SHAPE_VOLUME>  (1) 
196.9

>  <PUBCHEM_COORDINATE_TYPE>  (1) 
2
5
10

$$$$
