30373
     RDKit          3D

 20 21  0  0  1  0  0  0  0  0999 V2000
   -0.1063   -0.0866    0.1470 O   0  0  0  0  0  0  0  0  0  0  0  0
    1.2455   -1.8803   -0.2835 O   0  0  0  0  0  0  0  0  0  0  0  0
   -4.9738   -0.1047    0.3356 N   0  0  0  0  0  0  0  0  0  0  0  0
    2.1193    0.2476    0.1510 N   0  0  0  0  0  0  0  0  0  0  0  0
   -2.4938   -0.0596    0.2253 C   0  0  0  0  0  0  0  0  0  0  0  0
   -2.5532    1.0878   -0.7890 C   0  0  0  0  0  0  0  0  0  0  0  0
   -3.7657   -0.9206    0.1427 C   0  0  0  0  0  0  0  0  0  0  0  0
   -3.8503    1.8740   -0.6308 C   0  0  0  0  0  0  0  0  0  0  0  0
   -5.0688    0.9522   -0.6804 C   0  0  0  0  0  0  0  0  0  0  0  0
   -1.2464   -0.9125    0.0022 C   0  0  0  0  0  0  0  0  0  0  0  0
   -6.1699   -0.9468    0.3105 C   0  0  0  0  0  0  0  0  0  0  0  0
   -7.4170   -0.1387    0.6267 C   0  0  0  0  0  0  0  0  0  0  0  0
    1.1199   -0.6903   -0.0214 C   0  0  0  0  0  0  0  0  0  0  0  0
    3.5171    0.0556    0.0667 C   0  0  0  0  0  0  0  0  0  0  0  0
    4.3826    1.1195    0.2709 C   0  0  0  0  0  0  0  0  0  0  0  0
    3.9957   -1.2136   -0.2229 C   0  0  0  0  0  0  0  0  0  0  0  0
    5.7588    0.9097    0.1835 C   0  0  0  0  0  0  0  0  0  0  0  0
    3.8809    2.4921    0.5834 C   0  0  0  0  0  0  0  0  0  0  0  0
    5.3720   -1.4232   -0.3103 C   0  0  0  0  0  0  0  0  0  0  0  0
    6.2535   -0.3616   -0.1071 C   0  0  0  0  0  0  0  0  0  0  0  0
  1 10  1  0
  1 13  1  0
  2 13  2  0
  3  7  1  0
  3  9  1  0
  3 11  1  0
  4 13  1  0
  4 14  1  0
  5  6  1  0
  5  7  1  0
  5 10  1  0
  6  8  1  0
  8  9  1  0
 11 12  1  0
 14 15  2  0
 14 16  1  0
 15 17  1  0
 15 18  1  0
 16 19  2  0
 17 20  2  0
 19 20  1  0
M  END
>  <PUBCHEM_COMPOUND_CID>  (1) 
30373

>  <PUBCHEM_CONFORMER_RMSD>  (1) 
0.8

>  <PUBCHEM_CONFORMER_DIVERSEORDER>  (1) 
1
148
198
79
117
89
75
290
254
27
178
244
253
93
259
15
155
191
241
5
271
64
104
130
236
102
287
181
87
188
280
116
187
141
88
49
105
179
142
210
132
17
108
252
106
195
201
251
275
168
257
30
170
31
81
217
120
65
235
77
159
37
190
107
143
7
270
123
167
261
128
272
124
95
219
80
98
189
186
140
258
66
69
283
264
163
22
240
278
238
135
103
63
59
183
268
173
166
136
57
267
112
242
91
34
164
255
33
200
97
274
213
118
46
204
177
92
16
227
52
121
276
18
284
263
58
228
152
221
206
24
139
125
20
72
246
214
113
145
218
138
211
237
146
215
76
14
202
212
230
56
226
174
53
60
41
78
205
3
199
262
54
19
184
43
35
279
220
197
207
288
193
62
169
285
45
2
180
55
32
171
229
51
13
100
265
176
115
25
196
74
223
175
119
162
194
172
96
243
122
161
249
126
286
131
154
250
134
4
133
273
209
110
23
269
83
28
156
127
256
70
109
48
71
247
99
9
39
10
84
216
160
245
11
90
282
8
151
86
289
266
248
61
224
29
94
44
6
21
225
26
281
114
192
68
165
158
82
144
149
50
111
233
73
38
85
137
47
185
150
101
182
157
67
231
147
129
208
234
42
12
232
203
36
153
277
40
222
260
239

>  <PUBCHEM_MMFF94_PARTIAL_CHARGES>  (1) 
21
1 -0.43
10 0.28
11 0.27
13 0.78
14 0.12
15 -0.14
16 -0.15
17 -0.15
18 0.14
19 -0.15
2 -0.57
20 -0.15
3 -0.81
37 0.37
38 0.15
39 0.15
4 -0.55
43 0.15
44 0.15
7 0.27
9 0.27

>  <PUBCHEM_EFFECTIVE_ROTOR_COUNT>  (1) 
7.2

>  <PUBCHEM_PHARMACOPHORE_FEATURES>  (1) 
5
1 2 acceptor
1 3 cation
1 4 donor
6 14 15 16 17 19 20 rings
6 3 5 6 7 8 9 rings

>  <PUBCHEM_HEAVY_ATOM_COUNT>  (1) 
20

>  <PUBCHEM_ATOM_DEF_STEREO_COUNT>  (1) 
0

>  <PUBCHEM_ATOM_UDEF_STEREO_COUNT>  (1) 
1

>  <PUBCHEM_BOND_DEF_STEREO_COUNT>  (1) 
0

>  <PUBCHEM_BOND_UDEF_STEREO_COUNT>  (1) 
0

>  <PUBCHEM_ISOTOPIC_ATOM_COUNT>  (1) 
0

>  <PUBCHEM_COMPONENT_COUNT>  (1) 
1

>  <PUBCHEM_CACTVS_TAUTO_COUNT>  (1) 
2

>  <PUBCHEM_CONFORMER_ID>  (1) 
000076A500000001

>  <PUBCHEM_MMFF94_ENERGY>  (1) 
39.4306

>  <PUBCHEM_FEATURE_SELFOVERLAP>  (1) 
25.371

>  <PUBCHEM_SHAPE_FINGERPRINT>  (1) 
10 15 18187924027895269088
10366900 7 15647055953751712069
10411042 1 18053950546729155750
11287383 113 18411700993165280347
11315181 36 16008757918165514889
11524674 6 16702303477604730679
11796584 16 11527942361401939909
12166972 35 18407763646469498492
12236239 1 17132115740464475842
12403259 415 18335975419805419820
12596602 18 14923954465639581084
12616971 3 17632569465832240477
12730499 353 18411139121829230278
12916748 109 18261110764176149536
13073987 5 18188486874389511114
13081056 2 18409728465168351460
13167372 99 18060145297200344593
13402501 40 18408601461354992324
13533116 47 16486978345925615374
1420 363 18259988175884374907
14251732 16 18408886261131989459
14251752 14 13470414335809773691
14251764 46 18201720652571682123
14341114 176 18409169913119048988
14933364 13 18410013234353297097
15778101 99 18265052440959809893
17844677 252 18411705365489733241
18222031 100 16298106488430345998
19433438 28 18261108569258132653
19489759 90 17240483598535826321
20157964 124 18272370884711042474
20281389 69 18334856125748072008
20645477 56 18335135401543135239
20645477 70 18130511838745711182
21267235 1 18410017619393450654
21315763 129 18410009910085728276
21315764 268 18334851736254890780
220451 1 16200429160963329543
221357 26 18341891883516792840
22289505 5 18341611495873494940
23402539 116 18040994064140123359
23559900 14 18410006662963683224
29717793 49 16702028569669411820
335352 9 18341897399156562934
34797466 226 18131358513715927742
3545911 37 18408886234824037439
4073 2 18113904917919487922
4214541 1 18410009927217884236
42788 4 18409449180493073414
4325135 7 18343300379687094695
5104073 3 18115027377741564785
542803 24 17060338517628279511
54446538 1 18273216391292776137
59682541 35 18260835942794702049
59755656 215 18260549995908417722
59755656 520 17895188930877099723
9996256 80 18412542128488268655

>  <PUBCHEM_SHAPE_MULTIPOLES>  (1) 
389.89
19.09
1.82
0.75
9.51
0.67
0.03
0.14
-1.59
-1.26
0.05
0.34
0.13
1.35

>  <PUBCHEM_SHAPE_SELFOVERLAP>  (1) 
798.034

>  <PUBCHEM_SHAPE_VOLUME>  (1) 
225

>  <PUBCHEM_COORDINATE_TYPE>  (1) 
2
5
10

$$$$
