30377
     RDKit          3D

 21 22  0  0  1  0  0  0  0  0999 V2000
    3.1728    2.6362   -0.5390 Cl  0  0  0  0  0  0  0  0  0  0  0  0
   -0.2510   -0.1432    0.0955 O   0  0  0  0  0  0  0  0  0  0  0  0
    1.1484   -0.6437   -1.6426 O   0  0  0  0  0  0  0  0  0  0  0  0
   -5.1170   -0.3643    0.0551 N   0  0  0  0  0  0  0  0  0  0  0  0
    1.9651    0.0408    0.4418 N   0  0  0  0  0  0  0  0  0  0  0  0
   -2.6387   -0.2216    0.0997 C   0  0  0  0  0  0  0  0  0  0  0  0
   -2.7245    1.2271    0.5927 C   0  0  0  0  0  0  0  0  0  0  0  0
   -3.8875   -0.5887   -0.7198 C   0  0  0  0  0  0  0  0  0  0  0  0
   -4.0421    1.4659    1.3223 C   0  0  0  0  0  0  0  0  0  0  0  0
   -5.2360    1.0406    0.4676 C   0  0  0  0  0  0  0  0  0  0  0  0
   -1.3688   -0.4376   -0.7212 C   0  0  0  0  0  0  0  0  0  0  0  0
   -6.2907   -0.7713   -0.7178 C   0  0  0  0  0  0  0  0  0  0  0  0
   -7.5594   -0.6584    0.1103 C   0  0  0  0  0  0  0  0  0  0  0  0
    0.9910   -0.2836   -0.4824 C   0  0  0  0  0  0  0  0  0  0  0  0
    3.3677    0.0329    0.2672 C   0  0  0  0  0  0  0  0  0  0  0  0
    4.0733   -1.1290    0.5496 C   0  0  0  0  0  0  0  0  0  0  0  0
    4.0204    1.1736   -0.1797 C   0  0  0  0  0  0  0  0  0  0  0  0
    5.4579   -1.1504    0.3819 C   0  0  0  0  0  0  0  0  0  0  0  0
    3.3905   -2.3675    1.0332 C   0  0  0  0  0  0  0  0  0  0  0  0
    5.4050    1.1522   -0.3476 C   0  0  0  0  0  0  0  0  0  0  0  0
    6.1236   -0.0098   -0.0667 C   0  0  0  0  0  0  0  0  0  0  0  0
  1 17  1  0
  2 11  1  0
  2 14  1  0
  3 14  2  0
  4  8  1  0
  4 10  1  0
  4 12  1  0
  5 14  1  0
  5 15  1  0
  6  7  1  0
  6  8  1  0
  6 11  1  0
  7  9  1  0
  9 10  1  0
 12 13  1  0
 15 16  2  0
 15 17  1  0
 16 18  1  0
 16 19  1  0
 17 20  2  0
 18 21  2  0
 20 21  1  0
M  END
>  <PUBCHEM_COMPOUND_CID>  (1) 
30377

>  <PUBCHEM_CONFORMER_RMSD>  (1) 
0.8

>  <PUBCHEM_CONFORMER_DIVERSEORDER>  (1) 
1
313
179
133
76
294
325
398
231
263
252
248
110
356
56
90
233
240
125
210
384
303
87
201
320
332
380
155
392
157
2
89
386
285
156
375
169
319
293
21
129
298
279
390
109
315
65
284
281
352
37
134
5
265
175
107
183
226
333
383
211
131
292
399
330
296
350
182
7
203
251
378
71
81
40
324
257
223
266
141
140
224
199
306
358
85
395
191
18
225
198
212
96
393
60
214
15
23
101
241
385
335
230
194
371
142
249
353
188
74
237
275
235
253
170
239
172
382
301
122
160
372
345
82
174
288
308
347
59
73
242
318
218
192
146
317
83
365
62
196
329
216
344
193
228
202
35
338
370
361
176
113
206
143
321
360
287
213
139
258
154
137
153
115
255
244
151
43
388
108
376
63
337
24
13
349
264
48
274
195
45
336
283
207
127
86
396
387
159
102
99
297
12
80
116
346
104
389
46
47
286
357
171
164
8
177
250
268
88
190
94
163
217
118
168
166
381
123
273
106
374
215
152
93
355
57
391
78
9
314
354
254
189
148
377
53
339
25
27
340
363
351
323
39
61
348
184
173
30
373
162
29
326
342
22
111
341
17
144
304
379
72
316
219
68
397
222
79
256
161
136
236
150
245
84
328
311
42
267
91
185
367
54
359
260
187
49
181
180
209
229
300
262
51
121
307
10
69
167
282
200
124
364
158
135
310
100
291
145
289
238
126
70
147
400
32
270
120
302
105
327
331
280
6
33
11
67
220
362
312
114
278
28
232
3
4
343
269
227
369
117
149
290
34
119
36
309
26
277
52
322
112
186
130
66
77
128
75
305
64
246
205
55
276
366
204
247
165
299
234
197
368
31
38
44
138
178
271
272
16
92
14
132
334
261
97
221
243
20
50
95
259
98
19
394
58
41
103
295
208

>  <PUBCHEM_MMFF94_PARTIAL_CHARGES>  (1) 
21
1 -0.18
10 0.27
11 0.28
12 0.27
14 0.78
15 0.12
16 -0.14
17 0.18
18 -0.15
19 0.14
2 -0.43
20 -0.15
21 -0.15
3 -0.57
38 0.37
39 0.15
4 -0.81
43 0.15
44 0.15
5 -0.55
8 0.27

>  <PUBCHEM_EFFECTIVE_ROTOR_COUNT>  (1) 
7.2

>  <PUBCHEM_PHARMACOPHORE_FEATURES>  (1) 
5
1 3 acceptor
1 4 cation
1 5 donor
6 15 16 17 18 20 21 rings
6 4 6 7 8 9 10 rings

>  <PUBCHEM_HEAVY_ATOM_COUNT>  (1) 
21

>  <PUBCHEM_ATOM_DEF_STEREO_COUNT>  (1) 
0

>  <PUBCHEM_ATOM_UDEF_STEREO_COUNT>  (1) 
1

>  <PUBCHEM_BOND_DEF_STEREO_COUNT>  (1) 
0

>  <PUBCHEM_BOND_UDEF_STEREO_COUNT>  (1) 
0

>  <PUBCHEM_ISOTOPIC_ATOM_COUNT>  (1) 
0

>  <PUBCHEM_COMPONENT_COUNT>  (1) 
1

>  <PUBCHEM_CACTVS_TAUTO_COUNT>  (1) 
2

>  <PUBCHEM_CONFORMER_ID>  (1) 
000076A900000001

>  <PUBCHEM_MMFF94_ENERGY>  (1) 
57.743

>  <PUBCHEM_FEATURE_SELFOVERLAP>  (1) 
25.372

>  <PUBCHEM_SHAPE_FINGERPRINT>  (1) 
10354089 29 18410292519418913228
10411042 1 18045775699330319706
10595046 47 18412263921717750977
10688039 33 17821726109660767452
10912923 1 18341613685568000155
11045977 3 17822015357963183465
11315181 36 18334579062377650331
11524674 6 14907898310724711255
11724838 91 18343580767562267254
12107183 9 17690561879615450912
12166972 35 18341613736971230513
12236239 1 18342457027918479328
12403259 415 16056871420940302994
12516196 113 16587743140112173783
12596602 18 18407760322470188731
12916748 109 15913331286230757218
13167823 11 18412260631730857267
13533116 47 18333726897088756875
13785724 45 17693098457621844958
13914758 101 17822004273570698053
14251764 18 18412543219778979976
14341114 176 18408608054319344880
14386348 63 15936412221404506642
14933364 13 18187363225340956733
15419008 47 16950555602348878685
17834072 33 18410290324047118274
17844677 252 18187083918959006661
19377110 9 18131361786955981883
20281389 69 18273494580651160289
21033648 29 17313369154256463980
21065198 48 18339643343540606707
22224240 67 17603583063113123290
23402539 116 18201995526078034037
23557571 272 16559042583903221497
23559900 14 18187362198801627009
314173 85 15864073148179212559
335352 9 18334018294610831606
34797466 226 16486979535051261712
3545911 37 18259984898412793462
3633792 109 18040988524117432895
4073 2 17894917385685085266
4325135 7 18130790066563154445
542803 24 18272933816809367847
54446538 1 18342739628187567289
59755656 520 18261667160537732143
67856867 119 18341893043136870121
8272917 22 18410858720789496526

>  <PUBCHEM_SHAPE_MULTIPOLES>  (1) 
412.34
18.55
1.87
1.01
16.54
0.49
0.04
-1.69
-0.69
-2.1
-0.26
0.34
-0.04
-1.8

>  <PUBCHEM_SHAPE_SELFOVERLAP>  (1) 
836.564

>  <PUBCHEM_SHAPE_VOLUME>  (1) 
241.1

>  <PUBCHEM_COORDINATE_TYPE>  (1) 
2
5
10

$$$$
