30388
     RDKit          3D

 24 26  0  0  0  0  0  0  0  0999 V2000
    4.0709    0.2031   -0.0260 O   0  0  0  0  0  0  0  0  0  0  0  0
   -5.2993    1.4925    0.6000 O   0  0  0  0  0  0  0  0  0  0  0  0
    3.8264    2.3663   -0.7738 O   0  0  0  0  0  0  0  0  0  0  0  0
   -2.1888    0.3079    0.0348 N   0  0  0  0  0  0  0  0  0  0  0  0
   -3.0232    1.3230    0.3147 N   0  0  0  0  0  0  0  0  0  0  0  0
   -2.8094   -0.9024   -0.1193 C   0  0  0  0  0  0  0  0  0  0  0  0
   -4.1619   -0.6480    0.0786 C   0  0  0  0  0  0  0  0  0  0  0  0
   -0.8190    0.5526   -0.0723 C   0  0  0  0  0  0  0  0  0  0  0  0
   -4.2226    0.7375    0.3407 C   0  0  0  0  0  0  0  0  0  0  0  0
    6.1280   -0.9790    0.3554 C   0  0  0  0  0  0  0  0  0  0  0  0
   -2.3078   -2.1731   -0.4094 C   0  0  0  0  0  0  0  0  0  0  0  0
   -5.0818   -1.7059   -0.0136 C   0  0  0  0  0  0  0  0  0  0  0  0
    7.6520   -0.9076    0.3260 C   0  0  0  0  0  0  0  0  0  0  0  0
   -0.3775    1.7939   -0.5104 C   0  0  0  0  0  0  0  0  0  0  0  0
    0.0833   -0.4486    0.2610 C   0  0  0  0  0  0  0  0  0  0  0  0
    5.4953    0.3315   -0.0908 C   0  0  0  0  0  0  0  0  0  0  0  0
    1.9067    1.0397   -0.2845 C   0  0  0  0  0  0  0  0  0  0  0  0
    0.9916    2.0386   -0.6169 C   0  0  0  0  0  0  0  0  0  0  0  0
    1.4524   -0.2039    0.1545 C   0  0  0  0  0  0  0  0  0  0  0  0
   -3.2359   -3.2157   -0.4984 C   0  0  0  0  0  0  0  0  0  0  0  0
   -4.5996   -2.9884   -0.3038 C   0  0  0  0  0  0  0  0  0  0  0  0
    3.3340    1.2953   -0.3949 C   0  0  0  0  0  0  0  0  0  0  0  0
    8.2799   -2.2036    0.8133 C   0  0  0  0  0  0  0  0  0  0  0  0
   -5.0938    2.8944    0.8353 C   0  0  0  0  0  0  0  0  0  0  0  0
  1 16  1  0
  1 22  1  0
  2  9  1  0
  2 24  1  0
  3 22  2  0
  4  5  1  0
  4  6  1  0
  4  8  1  0
  5  9  2  0
  6  7  2  0
  6 11  1  0
  7  9  1  0
  7 12  1  0
  8 14  2  0
  8 15  1  0
 10 13  1  0
 10 16  1  0
 11 20  2  0
 12 21  2  0
 13 23  1  0
 14 18  1  0
 15 19  2  0
 17 18  2  0
 17 19  1  0
 17 22  1  0
 20 21  1  0
M  END
>  <PUBCHEM_COMPOUND_CID>  (1) 
30388

>  <PUBCHEM_CONFORMER_RMSD>  (1) 
0.8

>  <PUBCHEM_CONFORMER_DIVERSEORDER>  (1) 
1
18
50
55
53
7
8
52
46
47
56
9
58
14
16
25
17
37
13
33
51
38
60
30
6
26
15
31
3
29
49
20
42
21
2
19
59
45
5
32
43
40
35
24
23
54
22
57
27
34
10
4
28
36
44
39
41
11
48
12

>  <PUBCHEM_MMFF94_PARTIAL_CHARGES>  (1) 
28
1 -0.43
11 -0.15
12 -0.15
14 -0.15
15 -0.15
16 0.28
17 0.09
18 -0.15
19 -0.15
2 -0.34
20 -0.15
21 -0.15
22 0.63
24 0.28
27 0.15
28 0.15
3 -0.57
31 0.15
32 0.15
35 0.15
36 0.15
37 0.15
38 0.15
4 0.59
5 -0.71
6 -0.15
8 -0.02
9 0.35

>  <PUBCHEM_EFFECTIVE_ROTOR_COUNT>  (1) 
7

>  <PUBCHEM_PHARMACOPHORE_FEATURES>  (1) 
5
1 23 hydrophobe
1 3 acceptor
5 4 5 6 7 9 rings
6 6 7 11 12 20 21 rings
6 8 14 15 17 18 19 rings

>  <PUBCHEM_HEAVY_ATOM_COUNT>  (1) 
24

>  <PUBCHEM_ATOM_DEF_STEREO_COUNT>  (1) 
0

>  <PUBCHEM_ATOM_UDEF_STEREO_COUNT>  (1) 
0

>  <PUBCHEM_BOND_DEF_STEREO_COUNT>  (1) 
0

>  <PUBCHEM_BOND_UDEF_STEREO_COUNT>  (1) 
0

>  <PUBCHEM_ISOTOPIC_ATOM_COUNT>  (1) 
0

>  <PUBCHEM_COMPONENT_COUNT>  (1) 
1

>  <PUBCHEM_CACTVS_TAUTO_COUNT>  (1) 
1

>  <PUBCHEM_CONFORMER_ID>  (1) 
000076B400000001

>  <PUBCHEM_MMFF94_ENERGY>  (1) 
71.2329

>  <PUBCHEM_FEATURE_SELFOVERLAP>  (1) 
25.463

>  <PUBCHEM_SHAPE_FINGERPRINT>  (1) 
10319926 262 18201427091440943624
10595046 47 18193842763185477228
10622 236 18053932137491815462
11315181 36 18409166640438313401
11524674 6 17346875646337895526
11545043 162 18060416945212409912
11796584 16 18272654528583083526
11973863 73 17314502631376796728
12107183 9 18337957783372636057
12236239 1 18408605881329793136
12616971 3 17967820461299417748
13073987 5 18339363097067298520
13167823 11 18336827601493707654
13583140 156 17132112459199177957
13862211 1 18334857229987144678
14420673 8 18410857646583429370
15021287 119 17603875489444646852
15183329 4 18113612383470340498
15196674 1 18337956799851252068
15250474 111 18337668715268311846
15348495 7 18059568127137584040
15439362 3 17981891835708963269
16120349 21 18338517444103288190
17492 89 18048879885861945323
17780758 139 18272367564152885016
17844677 252 18269563886642980689
19141452 34 18410858745820549364
20028762 73 18410852179765762462
21130935 74 18412542124863214690
21267235 1 18334298698880013274
23081809 10 18260274074935954492
23402539 116 18411417323597509604
23522609 53 18044404719451338172
23559900 14 18202001010482304016
23569943 247 17604418584397125842
3004659 81 18040991882554939846
335352 9 18408886213349480740
397830 11 17774427404687988194
4073 2 18042972167600500304
4214541 1 18412547643368623517
4409770 3 18116423752972202285
444769 64 18261679190123397930
5104073 3 18129950090734117728
559249 180 18410572881571923783
58260988 114 17096387158293035475

>  <PUBCHEM_SHAPE_MULTIPOLES>  (1) 
466.34
18.17
3.31
0.77
35.72
0.93
-0.02
8.88
-4.24
-3.7
0.19
0.08
-0.1
-2.46

>  <PUBCHEM_SHAPE_SELFOVERLAP>  (1) 
1005.496

>  <PUBCHEM_SHAPE_VOLUME>  (1) 
258.4

>  <PUBCHEM_COORDINATE_TYPE>  (1) 
2
5
10

$$$$
