3038
     RDKit          3D

 16 16  0  0  0  0  0  0  0  0999 V2000
    2.7868   -1.8478   -0.0005 Cl  0  0  0  0  0  0  0  0  0  0  0  0
    0.1858   -3.7158   -0.0511 Cl  0  0  0  0  0  0  0  0  0  0  0  0
    2.4008    1.3229    0.1003 S   0  0  0  0  0  0  0  0  0  0  0  0
   -2.9653    0.6503    0.1005 S   0  0  0  0  0  0  0  0  0  0  0  0
    1.9639    2.5689    0.7089 O   0  0  0  0  0  0  0  0  0  0  0  0
    3.5476    0.6106    0.6399 O   0  0  0  0  0  0  0  0  0  0  0  0
   -3.8878   -0.3385    0.6407 O   0  0  0  0  0  0  0  0  0  0  0  0
   -2.8829    1.9708    0.7089 O   0  0  0  0  0  0  0  0  0  0  0  0
    2.6424    1.5749   -1.5708 N   0  0  0  0  0  0  0  0  0  0  0  0
   -3.2712    0.8345   -1.5704 N   0  0  0  0  0  0  0  0  0  0  0  0
    1.0357    0.2227    0.0706 C   0  0  0  0  0  0  0  0  0  0  0  0
   -1.3651   -0.0475    0.0708 C   0  0  0  0  0  0  0  0  0  0  0  0
   -0.2427    0.7803    0.0927 C   0  0  0  0  0  0  0  0  0  0  0  0
    1.1917   -1.1627    0.0270 C   0  0  0  0  0  0  0  0  0  0  0  0
   -1.2091   -1.4330    0.0272 C   0  0  0  0  0  0  0  0  0  0  0  0
    0.0693   -1.9905    0.0053 C   0  0  0  0  0  0  0  0  0  0  0  0
  1 14  1  0
  2 16  1  0
  3  5  2  0
  3  6  2  0
  3  9  1  0
  3 11  1  0
  4  7  2  0
  4  8  2  0
  4 10  1  0
  4 12  1  0
 11 13  2  0
 11 14  1  0
 12 13  1  0
 12 15  2  0
 14 16  2  0
 15 16  1  0
M  END
>  <PUBCHEM_COMPOUND_CID>  (1) 
3038

>  <PUBCHEM_CONFORMER_RMSD>  (1) 
0.6

>  <PUBCHEM_CONFORMER_DIVERSEORDER>  (1) 
1
2
4
3

>  <PUBCHEM_MMFF94_PARTIAL_CHARGES>  (1) 
22
1 -0.18
10 -0.98
11 -0.01
12 -0.01
13 -0.15
14 0.18
15 -0.15
16 0.18
17 0.15
18 0.15
19 0.42
2 -0.18
20 0.42
21 0.42
22 0.42
3 1.45
4 1.45
5 -0.65
6 -0.65
7 -0.65
8 -0.65
9 -0.98

>  <PUBCHEM_EFFECTIVE_ROTOR_COUNT>  (1) 
2

>  <PUBCHEM_PHARMACOPHORE_FEATURES>  (1) 
7
1 10 donor
1 5 acceptor
1 6 acceptor
1 7 acceptor
1 8 acceptor
1 9 donor
6 11 12 13 14 15 16 rings

>  <PUBCHEM_HEAVY_ATOM_COUNT>  (1) 
16

>  <PUBCHEM_ATOM_DEF_STEREO_COUNT>  (1) 
0

>  <PUBCHEM_ATOM_UDEF_STEREO_COUNT>  (1) 
0

>  <PUBCHEM_BOND_DEF_STEREO_COUNT>  (1) 
0

>  <PUBCHEM_BOND_UDEF_STEREO_COUNT>  (1) 
0

>  <PUBCHEM_ISOTOPIC_ATOM_COUNT>  (1) 
0

>  <PUBCHEM_COMPONENT_COUNT>  (1) 
1

>  <PUBCHEM_CACTVS_TAUTO_COUNT>  (1) 
1

>  <PUBCHEM_CONFORMER_ID>  (1) 
00000BDE00000001

>  <PUBCHEM_MMFF94_ENERGY>  (1) 
8.5346

>  <PUBCHEM_FEATURE_SELFOVERLAP>  (1) 
35.558

>  <PUBCHEM_SHAPE_FINGERPRINT>  (1) 
1 1 18410572842737987135
10608611 8 18335700490770149369
10967382 1 18411981330165659146
12553582 1 17330557545109506139
13140716 1 18410293592575506531
13380535 21 18337121171051000490
13380535 76 18412259575279574818
14251717 144 18339914918449005287
15219456 202 18260828159833958661
15309172 13 18339651134869699059
15775835 57 18263367048088951920
16945 1 18051134984168088506
18186145 218 18340210699929974599
193761 8 18267584796031046994
20510252 161 17838341035482448000
20511035 2 18188503453000618970
20645476 183 18115882964969997238
20645477 70 18337664210169059959
20671657 1 18409173224987103652
21041028 32 17330563042450789259
21501502 16 18338514265332006726
21524375 3 18334574680630404163
21639500 275 18339346492596852557
2334 1 18337954600859690343
23419403 2 14063130151980599275
23557571 272 17623862622610458972
23598291 2 17916579818004738789
25 1 18337394837782292414
2748010 2 18336553788680923127
305870 269 18410853222466051009
3071541 158 18118124671436495974
3091708 16 9264184263548084034
350125 39 18336836376085759987
352729 6 18267584791498520970
458136 41 18193585352857427635
58051976 378 18342453781266146975
633830 44 18059584598010434413
7364860 26 18268711606270229955
7832392 63 17766843823313596177
81228 2 17616250724795928595

>  <PUBCHEM_SHAPE_MULTIPOLES>  (1) 
307.27
5.53
3.23
0.94
2.74
2.24
-0.33
-2.59
-0.02
-1.59
0.09
0.12
-0.41
-0.02

>  <PUBCHEM_SHAPE_SELFOVERLAP>  (1) 
600.966

>  <PUBCHEM_SHAPE_VOLUME>  (1) 
187.1

>  <PUBCHEM_COORDINATE_TYPE>  (1) 
2
5
10

$$$$
