30384
     RDKit          3D

 12 12  0  0  0  0  0  0  0  0999 V2000
    4.0468   -1.5369   -0.0014 Cl  0  0  0  0  0  0  0  0  0  0  0  0
   -2.3646    1.2418   -0.0017 O   0  0  0  0  0  0  0  0  0  0  0  0
   -0.9979   -0.6722    0.0015 N   0  0  0  0  0  0  0  0  0  0  0  0
   -3.3022   -0.8712    0.0002 N   0  0  0  0  0  0  0  0  0  0  0  0
    0.2951   -0.1482    0.0018 C   0  0  0  0  0  0  0  0  0  0  0  0
    1.3958   -1.0050    0.0008 C   0  0  0  0  0  0  0  0  0  0  0  0
    0.4867    1.2334    0.0014 C   0  0  0  0  0  0  0  0  0  0  0  0
    2.6881   -0.4803   -0.0007 C   0  0  0  0  0  0  0  0  0  0  0  0
    1.7791    1.7581    0.0002 C   0  0  0  0  0  0  0  0  0  0  0  0
    2.8799    0.9013   -0.0008 C   0  0  0  0  0  0  0  0  0  0  0  0
   -2.2252    0.0211    0.0000 C   0  0  0  0  0  0  0  0  0  0  0  0
   -4.6817   -0.4419   -0.0012 C   0  0  0  0  0  0  0  0  0  0  0  0
  1  8  1  0
  2 11  2  0
  3  5  1  0
  3 11  1  0
  4 11  1  0
  4 12  1  0
  5  6  2  0
  5  7  1  0
  6  8  1  0
  7  9  2  0
  8 10  2  0
  9 10  1  0
M  END
>  <PUBCHEM_COMPOUND_CID>  (1) 
30384

>  <PUBCHEM_CONFORMER_RMSD>  (1) 
0.6

>  <PUBCHEM_CONFORMER_DIVERSEORDER>  (1) 
1
8
4
6
7
2
5
3

>  <PUBCHEM_MMFF94_PARTIAL_CHARGES>  (1) 
18
1 -0.18
10 -0.15
11 0.69
12 0.3
13 0.15
14 0.15
15 0.37
16 0.15
17 0.15
18 0.37
2 -0.57
3 -0.55
4 -0.73
5 0.12
6 -0.15
7 -0.15
8 0.18
9 -0.15

>  <PUBCHEM_EFFECTIVE_ROTOR_COUNT>  (1) 
3

>  <PUBCHEM_PHARMACOPHORE_FEATURES>  (1) 
4
1 2 acceptor
1 3 donor
1 4 donor
6 5 6 7 8 9 10 rings

>  <PUBCHEM_HEAVY_ATOM_COUNT>  (1) 
12

>  <PUBCHEM_ATOM_DEF_STEREO_COUNT>  (1) 
0

>  <PUBCHEM_ATOM_UDEF_STEREO_COUNT>  (1) 
0

>  <PUBCHEM_BOND_DEF_STEREO_COUNT>  (1) 
0

>  <PUBCHEM_BOND_UDEF_STEREO_COUNT>  (1) 
0

>  <PUBCHEM_ISOTOPIC_ATOM_COUNT>  (1) 
0

>  <PUBCHEM_COMPONENT_COUNT>  (1) 
1

>  <PUBCHEM_CACTVS_TAUTO_COUNT>  (1) 
3

>  <PUBCHEM_CONFORMER_ID>  (1) 
000076B000000001

>  <PUBCHEM_MMFF94_ENERGY>  (1) 
26.5878

>  <PUBCHEM_FEATURE_SELFOVERLAP>  (1) 
20.345

>  <PUBCHEM_SHAPE_FINGERPRINT>  (1) 
10219947 1 18272091599576997526
11062470 55 10087924077342302423
11471102 20 18410008857697142101
12032990 46 18339645538443149934
12932764 1 17417805188278589645
13690532 89 18411699859399597586
14144814 61 18412265038477663609
14251717 144 18410854369301810462
14252887 29 18130792209778682854
14325111 11 18410856576978102689
15442244 35 18340208488117002976
15477762 27 18411419526994782150
18186145 218 17822283604957528231
18522853 276 18343300366248382729
200 152 18202557385252115423
20201158 50 18408042909463724555
20645477 70 18410572894441267943
20871998 22 18128261086666545838
21501925 9 18411410705321749914
221490 88 18263088875541308387
23402539 116 17917421000461408965
23402655 69 18412259545531217693
5104073 3 18412265051668508451
7364860 26 18270962453149834208
8809292 202 18187652430884656683

>  <PUBCHEM_SHAPE_MULTIPOLES>  (1) 
232.99
7.52
1.61
0.6
5.94
0.36
0
-2.8
0.01
-1.18
0
-0.07
0
0

>  <PUBCHEM_SHAPE_SELFOVERLAP>  (1) 
468.088

>  <PUBCHEM_SHAPE_VOLUME>  (1) 
137.4

>  <PUBCHEM_COORDINATE_TYPE>  (1) 
2
5
10

$$$$
