30380
     RDKit          3D

 15 16  0  0  0  0  0  0  0  0999 V2000
   -1.4360   -2.7243    0.3529 O   0  0  0  0  0  0  0  0  0  0  0  0
   -1.0761   -0.7590   -0.8601 N   0  0  0  0  0  0  0  0  0  0  0  0
   -1.2190    0.1981    0.2217 C   0  0  0  0  0  0  0  0  0  0  0  0
   -2.6129    0.0964    0.8510 C   0  0  0  0  0  0  0  0  0  0  0  0
   -1.2265    1.6305   -0.3233 C   0  0  0  0  0  0  0  0  0  0  0  0
   -3.5303    0.8438   -0.1157 C   0  0  0  0  0  0  0  0  0  0  0  0
   -2.6387    1.8287   -0.8720 C   0  0  0  0  0  0  0  0  0  0  0  0
   -0.1075   -0.0254    1.2418 C   0  0  0  0  0  0  0  0  0  0  0  0
    1.2548    0.0770    0.6113 C   0  0  0  0  0  0  0  0  0  0  0  0
   -1.1990   -2.1153   -0.6824 C   0  0  0  0  0  0  0  0  0  0  0  0
    1.8534   -1.0608    0.0871 C   0  0  0  0  0  0  0  0  0  0  0  0
    1.8952    1.3079    0.5616 C   0  0  0  0  0  0  0  0  0  0  0  0
    3.1162   -0.9659   -0.4976 C   0  0  0  0  0  0  0  0  0  0  0  0
    3.1580    1.4026   -0.0234 C   0  0  0  0  0  0  0  0  0  0  0  0
    3.7685    0.2657   -0.5529 C   0  0  0  0  0  0  0  0  0  0  0  0
  1 10  2  0
  2  3  1  0
  2 10  1  0
  3  4  1  0
  3  5  1  0
  3  8  1  0
  4  6  1  0
  5  7  1  0
  6  7  1  0
  8  9  1  0
  9 11  2  0
  9 12  1  0
 11 13  1  0
 12 14  2  0
 13 15  2  0
 14 15  1  0
M  END
>  <PUBCHEM_COMPOUND_CID>  (1) 
30380

>  <PUBCHEM_CONFORMER_RMSD>  (1) 
0.6

>  <PUBCHEM_CONFORMER_DIVERSEORDER>  (1) 
1
4
9
10
7
8
5
3
2
6

>  <PUBCHEM_MMFF94_PARTIAL_CHARGES>  (1) 
18
1 -0.57
10 0.57
11 -0.15
12 -0.15
13 -0.15
14 -0.15
15 -0.15
2 -0.73
26 0.37
27 0.06
28 0.15
29 0.15
3 0.3
30 0.15
31 0.15
32 0.15
8 0.14
9 -0.14

>  <PUBCHEM_EFFECTIVE_ROTOR_COUNT>  (1) 
5

>  <PUBCHEM_PHARMACOPHORE_FEATURES>  (1) 
4
1 1 acceptor
1 2 donor
5 3 4 5 6 7 rings
6 9 11 12 13 14 15 rings

>  <PUBCHEM_HEAVY_ATOM_COUNT>  (1) 
15

>  <PUBCHEM_ATOM_DEF_STEREO_COUNT>  (1) 
0

>  <PUBCHEM_ATOM_UDEF_STEREO_COUNT>  (1) 
0

>  <PUBCHEM_BOND_DEF_STEREO_COUNT>  (1) 
0

>  <PUBCHEM_BOND_UDEF_STEREO_COUNT>  (1) 
0

>  <PUBCHEM_ISOTOPIC_ATOM_COUNT>  (1) 
0

>  <PUBCHEM_COMPONENT_COUNT>  (1) 
1

>  <PUBCHEM_CACTVS_TAUTO_COUNT>  (1) 
2

>  <PUBCHEM_CONFORMER_ID>  (1) 
000076AC00000001

>  <PUBCHEM_MMFF94_ENERGY>  (1) 
38.5215

>  <PUBCHEM_FEATURE_SELFOVERLAP>  (1) 
20.297

>  <PUBCHEM_SHAPE_FINGERPRINT>  (1) 
10608611 8 18411697729306886912
10922049 32 18337677417019103427
10922523 26 18408326570879410756
11322862 65 18412263947740924799
11715629 250 18334571373853934180
12138202 97 18411980264850207047
12173636 292 18410005520724026141
12186901 62 18041570135033809813
12592029 89 18265336097241590235
12932764 1 18408324401962949032
12969540 114 18115849885427419373
13024252 1 16443063932752123201
13380535 21 18341901834892226898
13464514 151 17472982800818961053
14993402 34 18410003352092543613
15279308 100 18411697651886497908
15309172 13 18339931415745462961
15775835 57 18410015420570694172
16945 1 18341326721507098864
17357779 13 17912628400995926503
17844478 74 18188223068787015041
18186145 218 18200595787134844313
18619055 16 18343019952513449522
19868273 293 18407759231295092686
20645476 183 18335979779144471143
20645477 56 18410852187653687488
20871999 31 18340762736698538045
21486144 27 18059848497743482712
21501502 16 18340763849074221690
21524375 3 18042679494958291873
22802520 49 18271242841082782258
23402539 116 18200301131088274620
23419403 2 13029987395440887523
23557571 272 18268721682732881524
23559900 14 18130790054253115858
25 1 18198624337069016781
2748010 2 18058163011105946256
3060560 45 18194668272921037949
4175511 318 18411705391343628004
45790113 53 18266180534850609602
69090 78 18410853261321216589
74978 22 18272650160258452256
81228 2 18123455344584767339
93112 12 18412827992995252932

>  <PUBCHEM_SHAPE_MULTIPOLES>  (1) 
297.84
5.82
2.17
0.99
2.08
1.03
-0.08
-1.75
0.94
-0.85
0.32
-0.19
-0.01
0.39

>  <PUBCHEM_SHAPE_SELFOVERLAP>  (1) 
626.332

>  <PUBCHEM_SHAPE_VOLUME>  (1) 
167.4

>  <PUBCHEM_COORDINATE_TYPE>  (1) 
2
5
10

$$$$
