30409
     RDKit          3D

 17 18  0  0  0  0  0  0  0  0999 V2000
   -0.8386   -2.2166    0.2017 O   0  0  0  0  0  0  0  0  0  0  0  0
   -1.1903    1.8057    0.7074 O   0  0  0  0  0  0  0  0  0  0  0  0
    4.8649    0.3287   -0.3148 O   0  0  0  0  0  0  0  0  0  0  0  0
    3.6710    2.1601   -0.1157 O   0  0  0  0  0  0  0  0  0  0  0  0
   -2.2101   -0.2543    0.3229 N   0  0  0  0  0  0  0  0  0  0  0  0
    3.7619    0.9101   -0.1756 N   0  0  0  0  0  0  0  0  0  0  0  0
   -3.5708    0.2185    0.5163 C   0  0  0  0  0  0  0  0  0  0  0  0
   -2.0298   -1.5743   -0.2594 C   0  0  0  0  0  0  0  0  0  0  0  0
    0.1832   -0.0204    0.1763 C   0  0  0  0  0  0  0  0  0  0  0  0
   -1.1290    0.6145    0.4223 C   0  0  0  0  0  0  0  0  0  0  0  0
   -4.2198    0.6683   -0.7872 C   0  0  0  0  0  0  0  0  0  0  0  0
    0.2625   -1.4117    0.0941 C   0  0  0  0  0  0  0  0  0  0  0  0
    1.3429    0.7544    0.0854 C   0  0  0  0  0  0  0  0  0  0  0  0
    1.5016   -2.0350   -0.0522 C   0  0  0  0  0  0  0  0  0  0  0  0
   -5.6377    1.1856   -0.5904 C   0  0  0  0  0  0  0  0  0  0  0  0
    2.5793    0.1291   -0.0832 C   0  0  0  0  0  0  0  0  0  0  0  0
    2.6590   -1.2626   -0.1480 C   0  0  0  0  0  0  0  0  0  0  0  0
  1  8  1  0
  1 12  1  0
  2 10  2  0
  3  6  1  0
  4  6  2  0
  5  7  1  0
  5  8  1  0
  5 10  1  0
  6 16  1  0
  7 11  1  0
  9 10  1  0
  9 12  2  0
  9 13  1  0
 11 15  1  0
 12 14  1  0
 13 16  2  0
 14 17  2  0
 16 17  1  0
M  CHG  2   3  -1   6   1
M  END
>  <PUBCHEM_COMPOUND_CID>  (1) 
30409

>  <PUBCHEM_CONFORMER_RMSD>  (1) 
0.6

>  <PUBCHEM_CONFORMER_DIVERSEORDER>  (1) 
1
2
6
5
4
3

>  <PUBCHEM_MMFF94_PARTIAL_CHARGES>  (1) 
18
1 -0.36
10 0.54
12 0.08
13 -0.15
14 -0.15
16 0.13
17 -0.15
2 -0.57
24 0.15
25 0.15
29 0.15
3 -0.52
4 -0.52
5 -0.66
6 0.91
7 0.3
8 0.58
9 0.09

>  <PUBCHEM_EFFECTIVE_ROTOR_COUNT>  (1) 
3.6

>  <PUBCHEM_PHARMACOPHORE_FEATURES>  (1) 
8
1 1 acceptor
1 15 hydrophobe
1 2 acceptor
1 3 acceptor
1 3 anion
1 4 acceptor
6 1 5 8 9 10 12 rings
6 9 12 13 14 16 17 rings

>  <PUBCHEM_HEAVY_ATOM_COUNT>  (1) 
17

>  <PUBCHEM_ATOM_DEF_STEREO_COUNT>  (1) 
0

>  <PUBCHEM_ATOM_UDEF_STEREO_COUNT>  (1) 
0

>  <PUBCHEM_BOND_DEF_STEREO_COUNT>  (1) 
0

>  <PUBCHEM_BOND_UDEF_STEREO_COUNT>  (1) 
0

>  <PUBCHEM_ISOTOPIC_ATOM_COUNT>  (1) 
0

>  <PUBCHEM_COMPONENT_COUNT>  (1) 
1

>  <PUBCHEM_CACTVS_TAUTO_COUNT>  (1) 
1

>  <PUBCHEM_CONFORMER_ID>  (1) 
000076C900000001

>  <PUBCHEM_MMFF94_ENERGY>  (1) 
45.3492

>  <PUBCHEM_FEATURE_SELFOVERLAP>  (1) 
40.712

>  <PUBCHEM_SHAPE_FINGERPRINT>  (1) 
10014705 185 18336263543623418285
10411042 1 17473260973135236603
10498660 4 18340493360534189948
10967382 1 18411985749760619400
11132069 177 18341610464553576472
11471102 20 18411698746955400319
11543360 7 15625938780725657233
13380535 76 18412830187697381706
13583140 156 17313108557474215449
13760787 5 18272374114442046667
14897335 6 18411700988965368970
14911166 2 18272931626655764649
14993402 34 17274816957103879181
15196674 1 18410575093543508139
15375358 24 18260831496881149027
16945 1 18341058410584356698
1813 80 12679466395667646450
18186145 218 18340779164605618551
200 152 17775283850408771625
20602899 9 15985107439778801167
20645477 56 18040434387072938541
20645477 70 18341050701207822239
20871999 31 18270952557603245815
21501502 16 18055638317565418313
231179 274 18040150699602429926
23402539 116 18342733048687559940
23402655 69 18272083864820724637
23493267 7 17968374645097669419
23559900 14 18201441428490293424
25 1 18409441479912143383
2748010 2 17982449605061121344
335352 9 18410011018693589166
34934 24 18412257354654622386
3759504 43 18113337544139071971
4028521 119 18411983567748440989
4072396 5 18336812114136998834
4340502 62 17168148910424844587
449060 62 18341613681225624707
5104073 3 18408324393067319883
57005193 9 18411696582360389938
58051976 378 18343023268054330148
633830 44 18129673976319378799
69090 78 18342738511479999199
7364860 26 18270124505104464990

>  <PUBCHEM_SHAPE_MULTIPOLES>  (1) 
316.41
8.9
2.07
0.72
4.88
0.43
-0.01
-4.75
-2.1
-0.86
0.01
0.38
-0.07
0.09

>  <PUBCHEM_SHAPE_SELFOVERLAP>  (1) 
672.257

>  <PUBCHEM_SHAPE_VOLUME>  (1) 
176

>  <PUBCHEM_COORDINATE_TYPE>  (1) 
2
5
10

$$$$
