30401
     RDKit          3D

 23 25  0  0  0  0  0  0  0  0999 V2000
    0.0944   -4.6806    0.7318 Cl  0  0  0  0  0  0  0  0  0  0  0  0
   -3.0106    1.6420    1.5692 F   0  0  0  0  0  0  0  0  0  0  0  0
    2.2747    3.1171    0.6697 O   0  0  0  0  0  0  0  0  0  0  0  0
    2.0107    1.5275   -2.6493 O   0  0  0  0  0  0  0  0  0  0  0  0
    2.2872    0.8556    0.1080 N   0  0  0  0  0  0  0  0  0  0  0  0
   -0.4351    1.5319    1.2717 N   0  0  0  0  0  0  0  0  0  0  0  0
    1.7141   -0.4572    0.2312 C   0  0  0  0  0  0  0  0  0  0  0  0
    0.3558   -0.6793    0.5396 C   0  0  0  0  0  0  0  0  0  0  0  0
    3.4342    1.0243   -0.7842 C   0  0  0  0  0  0  0  0  0  0  0  0
   -0.6392    0.4304    0.6318 C   0  0  0  0  0  0  0  0  0  0  0  0
    1.8532    1.9695    0.8362 C   0  0  0  0  0  0  0  0  0  0  0  0
    0.8451    1.7031    1.9256 C   0  0  0  0  0  0  0  0  0  0  0  0
    2.5284   -1.5885    0.0242 C   0  0  0  0  0  0  0  0  0  0  0  0
   -0.1323   -1.9877    0.7099 C   0  0  0  0  0  0  0  0  0  0  0  0
   -1.9495    0.2838   -0.0656 C   0  0  0  0  0  0  0  0  0  0  0  0
    3.0770    0.6904   -2.2210 C   0  0  0  0  0  0  0  0  0  0  0  0
    2.0311   -2.8854    0.1750 C   0  0  0  0  0  0  0  0  0  0  0  0
    0.7043   -3.0848    0.5300 C   0  0  0  0  0  0  0  0  0  0  0  0
   -3.0795    0.9074    0.4496 C   0  0  0  0  0  0  0  0  0  0  0  0
   -2.0249   -0.4770   -1.2261 C   0  0  0  0  0  0  0  0  0  0  0  0
   -4.3031    0.7679   -0.2054 C   0  0  0  0  0  0  0  0  0  0  0  0
   -3.2484   -0.6164   -1.8812 C   0  0  0  0  0  0  0  0  0  0  0  0
   -4.3875    0.0061   -1.3707 C   0  0  0  0  0  0  0  0  0  0  0  0
  1 18  1  0
  2 19  1  0
  3 11  2  0
  4 16  1  0
  5  7  1  0
  5  9  1  0
  5 11  1  0
  6 10  2  0
  6 12  1  0
  7  8  2  0
  7 13  1  0
  8 10  1  0
  8 14  1  0
  9 16  1  0
 10 15  1  0
 11 12  1  0
 13 17  2  0
 14 18  2  0
 15 19  2  0
 15 20  1  0
 17 18  1  0
 19 21  1  0
 20 22  2  0
 21 23  2  0
 22 23  1  0
M  END
>  <PUBCHEM_COMPOUND_CID>  (1) 
30401

>  <PUBCHEM_CONFORMER_RMSD>  (1) 
0.6

>  <PUBCHEM_CONFORMER_DIVERSEORDER>  (1) 
1
13
24
19
11
9
3
14
21
17
7
6
23
18
12
16
2
8
10
15
22
4
20
5

>  <PUBCHEM_MMFF94_PARTIAL_CHARGES>  (1) 
31
1 -0.18
10 0.28
11 0.57
12 0.31
13 -0.15
14 -0.15
15 0.09
16 0.28
17 -0.15
18 0.18
19 0.19
2 -0.19
20 -0.15
21 -0.15
22 -0.15
23 -0.15
28 0.15
29 0.15
3 -0.57
32 0.15
33 0.15
34 0.15
35 0.15
36 0.15
37 0.4
4 -0.68
5 -0.48
6 -0.7
7 0.12
8 0.09
9 0.3

>  <PUBCHEM_EFFECTIVE_ROTOR_COUNT>  (1) 
3.4

>  <PUBCHEM_PHARMACOPHORE_FEATURES>  (1) 
7
1 3 acceptor
1 4 acceptor
1 4 donor
1 6 acceptor
6 15 19 20 21 22 23 rings
6 7 8 13 14 17 18 rings
7 5 6 7 8 10 11 12 rings

>  <PUBCHEM_HEAVY_ATOM_COUNT>  (1) 
23

>  <PUBCHEM_ATOM_DEF_STEREO_COUNT>  (1) 
0

>  <PUBCHEM_ATOM_UDEF_STEREO_COUNT>  (1) 
0

>  <PUBCHEM_BOND_DEF_STEREO_COUNT>  (1) 
0

>  <PUBCHEM_BOND_UDEF_STEREO_COUNT>  (1) 
0

>  <PUBCHEM_ISOTOPIC_ATOM_COUNT>  (1) 
0

>  <PUBCHEM_COMPONENT_COUNT>  (1) 
1

>  <PUBCHEM_CACTVS_TAUTO_COUNT>  (1) 
1

>  <PUBCHEM_CONFORMER_ID>  (1) 
000076C100000001

>  <PUBCHEM_MMFF94_ENERGY>  (1) 
86.0903

>  <PUBCHEM_FEATURE_SELFOVERLAP>  (1) 
35.534

>  <PUBCHEM_SHAPE_FINGERPRINT>  (1) 
10165383 225 17973196016407090889
108634 29 17765420342012818366
10906281 52 17844821471798384552
11387372 6 11881274718340643900
12293681 25 17772496687913122078
12553582 1 17908976609168290259
13004483 165 17112396824186228187
13149001 5 18126862718171052564
13583140 156 18193008015417907241
13681431 1 17900249810784146826
14181834 199 18262220141518007922
16752209 62 17202751598092315957
16945 1 18412261744206164256
1813 80 17760656858209711159
18186145 218 18341047518673862053
20600515 1 16843029802658943842
20691752 17 18411694413402340841
21330990 113 17831891274747229779
21452121 99 18048588515396239826
21634736 98 18131062740613772661
22112679 90 17772755961501999641
22182313 1 17482001433777771320
2255824 54 18339910541940803147
22907989 373 17685790415762951526
23419403 2 16813263892802570650
23557571 272 17544758292930607772
23598291 2 18057608663945651481
238 59 18410853282817425155
2748010 2 17694787724024338762
3060560 45 18336534014714763540
4175511 335 18337101294052962292
4409770 3 17259041417587256152
474 4 18339066185819799281
484989 97 18263650721767795115
5262128 65 17346332543043258772
633830 44 18201161052629746929
6442390 28 18263930019702112227
81228 2 17396426477551488050
9981440 41 16981780817422524664

>  <PUBCHEM_SHAPE_MULTIPOLES>  (1) 
446.22
6.24
3.91
1.86
6.16
4.76
-0.94
-2.5
-2.86
-2.99
1.5
-0.28
-1.1
-0.95

>  <PUBCHEM_SHAPE_SELFOVERLAP>  (1) 
965.174

>  <PUBCHEM_SHAPE_VOLUME>  (1) 
244.1

>  <PUBCHEM_COORDINATE_TYPE>  (1) 
2
5
10

$$$$
