30406
     RDKit          3D

 19 21  0  0  0  0  0  0  0  0999 V2000
    3.5084   -2.8353   -0.4577 Cl  0  0  0  0  0  0  0  0  0  0  0  0
    4.8463    2.3229    0.2834 Cl  0  0  0  0  0  0  0  0  0  0  0  0
    0.7479   -1.8461   -0.2588 O   0  0  0  0  0  0  0  0  0  0  0  0
   -0.4359    2.0317    0.0570 O   0  0  0  0  0  0  0  0  0  0  0  0
   -1.0167   -0.2504    0.1086 N   0  0  0  0  0  0  0  0  0  0  0  0
   -0.4716   -1.5667    0.4395 C   0  0  0  0  0  0  0  0  0  0  0  0
    1.2992    0.4804    0.0729 C   0  0  0  0  0  0  0  0  0  0  0  0
   -0.1360    0.8418    0.0726 C   0  0  0  0  0  0  0  0  0  0  0  0
    1.6693   -0.8497   -0.1121 C   0  0  0  0  0  0  0  0  0  0  0  0
   -2.4442   -0.0800    0.0317 C   0  0  0  0  0  0  0  0  0  0  0  0
    2.2836    1.4663    0.1971 C   0  0  0  0  0  0  0  0  0  0  0  0
    3.0165   -1.2000   -0.2026 C   0  0  0  0  0  0  0  0  0  0  0  0
   -2.9764    0.9963   -0.6738 C   0  0  0  0  0  0  0  0  0  0  0  0
   -3.2861   -0.9917    0.6636 C   0  0  0  0  0  0  0  0  0  0  0  0
    3.6321    1.1122    0.1288 C   0  0  0  0  0  0  0  0  0  0  0  0
    3.9980   -0.2181   -0.0749 C   0  0  0  0  0  0  0  0  0  0  0  0
   -4.3594    1.1619   -0.7480 C   0  0  0  0  0  0  0  0  0  0  0  0
   -4.6691   -0.8261    0.5893 C   0  0  0  0  0  0  0  0  0  0  0  0
   -5.2059    0.2507   -0.1165 C   0  0  0  0  0  0  0  0  0  0  0  0
  1 12  1  0
  2 15  1  0
  3  6  1  0
  3  9  1  0
  4  8  2  0
  5  6  1  0
  5  8  1  0
  5 10  1  0
  7  8  1  0
  7  9  2  0
  7 11  1  0
  9 12  1  0
 10 13  2  0
 10 14  1  0
 11 15  2  0
 12 16  2  0
 13 17  1  0
 14 18  2  0
 15 16  1  0
 17 19  2  0
 18 19  1  0
M  END
>  <PUBCHEM_COMPOUND_CID>  (1) 
30406

>  <PUBCHEM_CONFORMER_RMSD>  (1) 
0.6

>  <PUBCHEM_CONFORMER_DIVERSEORDER>  (1) 
1
2

>  <PUBCHEM_MMFF94_PARTIAL_CHARGES>  (1) 
26
1 -0.18
10 0.12
11 -0.15
12 0.18
13 -0.15
14 -0.15
15 0.18
16 -0.15
17 -0.15
18 -0.15
19 -0.15
2 -0.18
22 0.15
23 0.15
24 0.15
25 0.15
26 0.15
27 0.15
28 0.15
3 -0.36
4 -0.57
5 -0.48
6 0.58
7 0.09
8 0.54
9 0.08

>  <PUBCHEM_EFFECTIVE_ROTOR_COUNT>  (1) 
1.6

>  <PUBCHEM_PHARMACOPHORE_FEATURES>  (1) 
5
1 3 acceptor
1 4 acceptor
6 10 13 14 17 18 19 rings
6 3 5 6 7 8 9 rings
6 7 9 11 12 15 16 rings

>  <PUBCHEM_HEAVY_ATOM_COUNT>  (1) 
19

>  <PUBCHEM_ATOM_DEF_STEREO_COUNT>  (1) 
0

>  <PUBCHEM_ATOM_UDEF_STEREO_COUNT>  (1) 
0

>  <PUBCHEM_BOND_DEF_STEREO_COUNT>  (1) 
0

>  <PUBCHEM_BOND_UDEF_STEREO_COUNT>  (1) 
0

>  <PUBCHEM_ISOTOPIC_ATOM_COUNT>  (1) 
0

>  <PUBCHEM_COMPONENT_COUNT>  (1) 
1

>  <PUBCHEM_CACTVS_TAUTO_COUNT>  (1) 
1

>  <PUBCHEM_CONFORMER_ID>  (1) 
000076C600000001

>  <PUBCHEM_MMFF94_ENERGY>  (1) 
67.4024

>  <PUBCHEM_FEATURE_SELFOVERLAP>  (1) 
25.404

>  <PUBCHEM_SHAPE_FINGERPRINT>  (1) 
10411042 1 17980201890411070902
10608611 8 18335136484117597277
10967382 1 18411702101715190098
11471102 20 18412543202029320694
12107183 9 17696203508343140193
12236239 1 17489872639846496321
12403259 226 18191020093656581556
12403259 415 18260266317871570573
12730499 353 18339932601140677210
13140716 1 18052815046857724040
13675066 3 18260270767404831027
13955234 65 18343018887652035706
14790565 3 17905330985325057036
15081414 286 18411146843668913984
15196674 1 18409729547716231913
15219456 202 18408322185622641511
15375358 24 18334575767241033027
15536298 74 18412545392346655534
15961568 22 17313390075522412764
16945 1 18412549812564302914
18186145 218 17895192156259680599
19784866 170 18336547239409522328
200 152 18059852857841662899
20645477 70 18342738481499825774
21065201 7 17530684277807135219
21267235 1 18339933627347866438
21279426 13 18192992621727499997
21452121 103 18411410709790784216
221490 88 18338240358156009582
22182313 1 18188478095582067852
23402539 116 18336819891921825469
23402655 69 18273214209449168725
23557571 272 17531245028536964805
23559900 14 18337669698884212434
239999 70 18412547583392289630
2748010 2 18338529645789176814
2871803 45 18334574586325596943
312423 11 17987813899223844216
335352 9 18122063104849272311
33824 294 18410855464961374778
34934 24 18340482369839343594
350125 39 18410012105473340940
3545911 37 18409451409570505060
4214541 1 18336546032507887813
42630746 31 18343581846026365238
495365 180 18060127787087787320
5104073 3 18334579010384551289
5281201 14 18334580105231946189
542803 24 16988567917943007089
59755656 215 18410578379868346356
633830 44 18335975381456545943
69090 78 18412823616334115311
7364860 26 18342458119700145382
77779 3 18410012117988698373
9709674 26 18334582364564474947

>  <PUBCHEM_SHAPE_MULTIPOLES>  (1) 
378.03
10.52
2.41
0.74
5.39
0.56
-0.01
-1.99
-0.13
-3.09
-0.13
0.28
0.02
1.17

>  <PUBCHEM_SHAPE_SELFOVERLAP>  (1) 
815.976

>  <PUBCHEM_SHAPE_VOLUME>  (1) 
208.6

>  <PUBCHEM_COORDINATE_TYPE>  (1) 
2
5
10

$$$$
