30402
     RDKit          3D

 19 21  0  0  0  0  0  0  0  0999 V2000
    0.4210   -2.0965   -0.4349 O   0  0  0  0  0  0  0  0  0  0  0  0
   -0.3684    1.8491    0.1539 O   0  0  0  0  0  0  0  0  0  0  0  0
    4.6414    1.3783    0.2628 O   0  0  0  0  0  0  0  0  0  0  0  0
   -1.1723   -0.3630    0.0663 N   0  0  0  0  0  0  0  0  0  0  0  0
    1.2041    0.1371    0.0385 C   0  0  0  0  0  0  0  0  0  0  0  0
   -0.7572   -1.7458    0.3010 C   0  0  0  0  0  0  0  0  0  0  0  0
    1.4383   -1.2077   -0.2393 C   0  0  0  0  0  0  0  0  0  0  0  0
   -0.1880    0.6371    0.0866 C   0  0  0  0  0  0  0  0  0  0  0  0
   -2.5766   -0.0483    0.0252 C   0  0  0  0  0  0  0  0  0  0  0  0
    2.2828    1.0109    0.2099 C   0  0  0  0  0  0  0  0  0  0  0  0
    2.7430   -1.6820   -0.3757 C   0  0  0  0  0  0  0  0  0  0  0  0
    3.5887    0.5312    0.0955 C   0  0  0  0  0  0  0  0  0  0  0  0
    3.8185   -0.8121   -0.2010 C   0  0  0  0  0  0  0  0  0  0  0  0
   -3.0068    1.1198   -0.5991 C   0  0  0  0  0  0  0  0  0  0  0  0
   -3.4982   -0.9128    0.6106 C   0  0  0  0  0  0  0  0  0  0  0  0
   -4.3672    1.4253   -0.6386 C   0  0  0  0  0  0  0  0  0  0  0  0
   -4.8586   -0.6073    0.5711 C   0  0  0  0  0  0  0  0  0  0  0  0
   -5.2932    0.5616   -0.0534 C   0  0  0  0  0  0  0  0  0  0  0  0
    5.9486    0.8250    0.1208 C   0  0  0  0  0  0  0  0  0  0  0  0
  1  6  1  0
  1  7  1  0
  2  8  2  0
  3 12  1  0
  3 19  1  0
  4  6  1  0
  4  8  1  0
  4  9  1  0
  5  7  2  0
  5  8  1  0
  5 10  1  0
  7 11  1  0
  9 14  2  0
  9 15  1  0
 10 12  2  0
 11 13  2  0
 12 13  1  0
 14 16  1  0
 15 17  2  0
 16 18  2  0
 17 18  1  0
M  END
>  <PUBCHEM_COMPOUND_CID>  (1) 
30402

>  <PUBCHEM_CONFORMER_RMSD>  (1) 
0.6

>  <PUBCHEM_CONFORMER_DIVERSEORDER>  (1) 
2
4
1
3

>  <PUBCHEM_MMFF94_PARTIAL_CHARGES>  (1) 
27
1 -0.36
10 -0.15
11 -0.15
12 0.08
13 -0.15
14 -0.15
15 -0.15
16 -0.15
17 -0.15
18 -0.15
19 0.28
2 -0.57
22 0.15
23 0.15
24 0.15
25 0.15
26 0.15
27 0.15
28 0.15
29 0.15
3 -0.36
4 -0.48
5 0.09
6 0.58
7 0.08
8 0.54
9 0.12

>  <PUBCHEM_EFFECTIVE_ROTOR_COUNT>  (1) 
2.6

>  <PUBCHEM_PHARMACOPHORE_FEATURES>  (1) 
6
1 1 acceptor
1 2 acceptor
1 3 acceptor
6 1 4 5 6 7 8 rings
6 5 7 10 11 12 13 rings
6 9 14 15 16 17 18 rings

>  <PUBCHEM_HEAVY_ATOM_COUNT>  (1) 
19

>  <PUBCHEM_ATOM_DEF_STEREO_COUNT>  (1) 
0

>  <PUBCHEM_ATOM_UDEF_STEREO_COUNT>  (1) 
0

>  <PUBCHEM_BOND_DEF_STEREO_COUNT>  (1) 
0

>  <PUBCHEM_BOND_UDEF_STEREO_COUNT>  (1) 
0

>  <PUBCHEM_ISOTOPIC_ATOM_COUNT>  (1) 
0

>  <PUBCHEM_COMPONENT_COUNT>  (1) 
1

>  <PUBCHEM_CACTVS_TAUTO_COUNT>  (1) 
1

>  <PUBCHEM_CONFORMER_ID>  (1) 
000076C200000002

>  <PUBCHEM_MMFF94_ENERGY>  (1) 
79.4668

>  <PUBCHEM_FEATURE_SELFOVERLAP>  (1) 
30.48

>  <PUBCHEM_SHAPE_FINGERPRINT>  (1) 
10 15 18263073466216820800
10608611 8 18335700499476070141
11471102 20 18342174444871880758
12011746 2 18342181068328694748
12236239 1 17275388686028469163
12403259 415 18261394390799633053
12596602 18 15864355782597145832
13140716 1 18124030393497932848
13214271 11 18408321107802219183
13675066 3 18334580156924553619
15196674 1 18410293579626891431
15219456 202 18409167684400189991
15375358 24 18408042896768609779
15536298 74 18342459205451171551
18186145 218 18341340993683475263
19489759 90 17240481412117956401
200 152 17988921163689491585
20645477 56 18335699472451372173
20645477 70 18201439116901278086
21267235 1 18340496573016889486
21279426 13 18266742372344113524
21452121 103 18411975837292773914
22854114 59 18410858763295687579
23402539 116 18411693318079691678
23402655 69 18202561765501630839
23557571 272 17531529772062785589
23559900 14 18337671897991954898
2916195 48 18410006662990232280
293599 30 18413108390008849812
296302 2 18343021081968594055
335352 9 18412544332433868972
33824 294 18410856529955268402
34934 24 18411414020746735170
3545911 37 18411703196483366736
4072396 5 18339630179935414434
4214541 1 18335984190650695629
4325135 7 18272085041715915847
4340502 62 17022623070015043930
474229 33 18411136952327011142
5104073 3 18262802860957778657
542803 24 16774080661310810633
59755656 215 18412549778436790446
59755656 520 17530961415025659010
69090 78 18342174483811786831
9709674 26 18408611369955391867

>  <PUBCHEM_SHAPE_MULTIPOLES>  (1) 
368.42
11.49
1.84
0.71
1
0.34
0.01
-3.56
-0.44
0.36
0.12
-0.24
0.02
0.89

>  <PUBCHEM_SHAPE_SELFOVERLAP>  (1) 
809.896

>  <PUBCHEM_SHAPE_VOLUME>  (1) 
197.6

>  <PUBCHEM_COORDINATE_TYPE>  (1) 
2
5
10

$$$$
