30411
     RDKit          3D

 11 11  0  0  0  0  0  0  0  0999 V2000
   -2.9483    0.0764    0.0543 N   0  0  0  0  0  0  0  0  0  0  0  0
    1.1173    1.0393   -0.0173 N   0  0  0  0  0  0  0  0  0  0  0  0
    3.4397    0.3966   -0.0399 N   0  0  0  0  0  0  0  0  0  0  0  0
   -1.6175    0.3238    0.0319 C   0  0  0  0  0  0  0  0  0  0  0  0
   -3.9166    1.1611    0.0146 C   0  0  0  0  0  0  0  0  0  0  0  0
   -3.4676   -1.2693   -0.1351 C   0  0  0  0  0  0  0  0  0  0  0  0
   -0.6265   -0.5777    0.0632 C   0  0  0  0  0  0  0  0  0  0  0  0
    0.8121   -0.2657    0.0283 C   0  0  0  0  0  0  0  0  0  0  0  0
    1.7238   -1.2891    0.0427 C   0  0  0  0  0  0  0  0  0  0  0  0
    3.0449   -0.8927    0.0067 C   0  0  0  0  0  0  0  0  0  0  0  0
    2.4386    1.2974   -0.0494 C   0  0  0  0  0  0  0  0  0  0  0  0
  1  4  1  0
  1  5  1  0
  1  6  1  0
  2  8  2  0
  2 11  1  0
  3 10  1  0
  3 11  2  0
  4  7  2  0
  7  8  1  0
  8  9  1  0
  9 10  2  0
M  END
>  <PUBCHEM_COMPOUND_CID>  (1) 
30411

>  <PUBCHEM_CONFORMER_RMSD>  (1) 
0.4

>  <PUBCHEM_CONFORMER_DIVERSEORDER>  (1) 
1
3
2

>  <PUBCHEM_MMFF94_PARTIAL_CHARGES>  (1) 
16
1 -0.84
10 0.16
11 0.47
12 0.15
19 0.15
2 -0.62
20 0.15
21 0.15
22 0.15
3 -0.62
4 -0.05
5 0.37
6 0.37
7 -0.18
8 0.34
9 -0.15

>  <PUBCHEM_EFFECTIVE_ROTOR_COUNT>  (1) 
2

>  <PUBCHEM_PHARMACOPHORE_FEATURES>  (1) 
4
1 1 cation
1 2 acceptor
3 2 3 11 cation
6 2 3 8 9 10 11 rings

>  <PUBCHEM_HEAVY_ATOM_COUNT>  (1) 
11

>  <PUBCHEM_ATOM_DEF_STEREO_COUNT>  (1) 
0

>  <PUBCHEM_ATOM_UDEF_STEREO_COUNT>  (1) 
0

>  <PUBCHEM_BOND_DEF_STEREO_COUNT>  (1) 
0

>  <PUBCHEM_BOND_UDEF_STEREO_COUNT>  (1) 
1

>  <PUBCHEM_ISOTOPIC_ATOM_COUNT>  (1) 
0

>  <PUBCHEM_COMPONENT_COUNT>  (1) 
1

>  <PUBCHEM_CACTVS_TAUTO_COUNT>  (1) 
1

>  <PUBCHEM_CONFORMER_ID>  (1) 
000076CB00000001

>  <PUBCHEM_MMFF94_ENERGY>  (1) 
29.204

>  <PUBCHEM_FEATURE_SELFOVERLAP>  (1) 
20.297

>  <PUBCHEM_SHAPE_FINGERPRINT>  (1) 
10219947 1 18131071506784572142
10608611 8 18409445912207772377
11062470 55 18410856542465195161
11471102 20 18410007706740923804
12932764 1 17530956952358887411
14144814 61 18411981351640320235
14325111 11 18410856577046518571
14415576 193 18409452496329229964
15442244 35 18051695447166367728
15775835 57 18410859854148808973
170605 34 18334575789000699538
18186145 218 18260546697457443271
190213 19 17704072888914107315
20201158 50 18408042892215244603
20645477 70 18340765932080957359
20871998 22 17981605971006994982
23402655 69 18412261718505068557
3248919 1 17240770613630043131
93112 12 18411135823103968791

>  <PUBCHEM_SHAPE_MULTIPOLES>  (1) 
211.43
6.99
1.42
0.6
3.75
0.01
0
0.53
0.13
0.02
0.02
0.02
-0.01
-0.1

>  <PUBCHEM_SHAPE_SELFOVERLAP>  (1) 
427.165

>  <PUBCHEM_SHAPE_VOLUME>  (1) 
121.8

>  <PUBCHEM_COORDINATE_TYPE>  (1) 
2
5
10

$$$$
