30438
     RDKit          3D

 17 19  0  0  0  0  0  0  0  0999 V2000
   -1.5528    0.8446   -0.2761 N   0  0  0  0  0  0  0  0  0  0  0  0
    2.5613    1.6205    1.0849 N   0  0  0  0  0  0  0  0  0  0  0  0
   -3.8771   -0.8938    0.1366 C   0  0  0  0  0  0  0  0  0  0  0  0
   -2.5326   -1.1399    0.8296 C   0  0  0  0  0  0  0  0  0  0  0  0
   -4.0129    0.5909   -0.2174 C   0  0  0  0  0  0  0  0  0  0  0  0
   -1.3705   -0.5862    0.0025 C   0  0  0  0  0  0  0  0  0  0  0  0
   -2.8019    1.0869   -1.0102 C   0  0  0  0  0  0  0  0  0  0  0  0
   -0.4100    1.3703   -1.0226 C   0  0  0  0  0  0  0  0  0  0  0  0
   -5.0383   -1.3579    1.0115 C   0  0  0  0  0  0  0  0  0  0  0  0
    0.8787    1.2124   -0.2603 C   0  0  0  0  0  0  0  0  0  0  0  0
    1.7372    0.1008   -0.3253 C   0  0  0  0  0  0  0  0  0  0  0  0
    1.3876    2.1329    0.6010 C   0  0  0  0  0  0  0  0  0  0  0  0
    2.8000    0.3804    0.5366 C   0  0  0  0  0  0  0  0  0  0  0  0
    1.7345   -1.1228   -1.0237 C   0  0  0  0  0  0  0  0  0  0  0  0
    3.8643   -0.5061    0.7355 C   0  0  0  0  0  0  0  0  0  0  0  0
    2.7924   -2.0194   -0.8347 C   0  0  0  0  0  0  0  0  0  0  0  0
    3.8400   -1.7137    0.0320 C   0  0  0  0  0  0  0  0  0  0  0  0
  1  6  1  0
  1  7  1  0
  1  8  1  0
  2 12  1  0
  2 13  1  0
  3  4  1  0
  3  5  1  0
  3  9  1  0
  4  6  1  0
  5  7  1  0
  8 10  1  0
 10 11  1  0
 10 12  2  0
 11 13  2  0
 11 14  1  0
 13 15  1  0
 14 16  2  0
 15 17  2  0
 16 17  1  0
M  END
>  <PUBCHEM_COMPOUND_CID>  (1) 
30438

>  <PUBCHEM_CONFORMER_RMSD>  (1) 
0.6

>  <PUBCHEM_CONFORMER_DIVERSEORDER>  (1) 
10
12
7
14
13
16
11
2
6
5
8
15
4
1
9
3

>  <PUBCHEM_MMFF94_PARTIAL_CHARGES>  (1) 
18
1 -0.81
10 -0.18
12 -0.3
13 -0.15
14 -0.15
15 -0.15
16 -0.15
17 -0.15
2 0.03
32 0.15
33 0.27
34 0.15
35 0.15
36 0.15
37 0.15
6 0.27
7 0.27
8 0.45

>  <PUBCHEM_EFFECTIVE_ROTOR_COUNT>  (1) 
3.2

>  <PUBCHEM_PHARMACOPHORE_FEATURES>  (1) 
6
1 1 cation
1 2 cation
1 2 donor
5 2 10 11 12 13 rings
6 1 3 4 5 6 7 rings
6 11 13 14 15 16 17 rings

>  <PUBCHEM_HEAVY_ATOM_COUNT>  (1) 
17

>  <PUBCHEM_ATOM_DEF_STEREO_COUNT>  (1) 
0

>  <PUBCHEM_ATOM_UDEF_STEREO_COUNT>  (1) 
0

>  <PUBCHEM_BOND_DEF_STEREO_COUNT>  (1) 
0

>  <PUBCHEM_BOND_UDEF_STEREO_COUNT>  (1) 
0

>  <PUBCHEM_ISOTOPIC_ATOM_COUNT>  (1) 
0

>  <PUBCHEM_COMPONENT_COUNT>  (1) 
1

>  <PUBCHEM_CACTVS_TAUTO_COUNT>  (1) 
1

>  <PUBCHEM_CONFORMER_ID>  (1) 
000076E60000000A

>  <PUBCHEM_MMFF94_ENERGY>  (1) 
26.9291

>  <PUBCHEM_FEATURE_SELFOVERLAP>  (1) 
30.54

>  <PUBCHEM_SHAPE_FINGERPRINT>  (1) 
11471102 22 18131062715155270292
11796584 16 17534047589456118234
12032990 46 18333170561669443933
12251169 10 18131348630795888190
12363563 72 18113344119543721123
12506688 2 18340488876614459794
12596602 18 16271917259517904027
12633257 1 18202008750061201491
13296908 3 18260828202593825093
13533116 47 18272093846546565531
13583140 156 17131254879311622249
13675066 3 18408604794940229753
14115302 16 17822298933242107910
14251764 30 16628301822322864286
14252887 29 18334860566675587105
14386348 63 18408602530759358727
14866123 147 17261882044179133611
15219456 202 18411693300894735957
15422964 175 18199468758089355606
15635459 17 18410858741547038162
15653759 3 18333448733563044407
15885798 251 18260554437500291497
16752209 62 16732972129504282403
16945 1 18060129947419634508
17804303 29 18334580122686082693
1813 80 17240486944294277373
19049666 15 18267015064250178525
19141452 34 18411703223171536055
19862831 5 14706931739277437447
200 152 17846486033507176421
20281475 54 18335428919634550124
20645477 70 18270666628317765653
21065199 12 18413105087126583265
21249577 43 18408882910646119831
231179 274 9727628410703065854
23184049 59 18060417988842152286
23557571 272 17458054993193790461
23559900 14 18260828185197834284
26918003 58 18343014459107989633
2838139 119 12893917424604409106
31174 14 18342457083753210017
316301 35 18259701211702648890
3286 77 18412546509043329801
474 4 15839832310058939778
5104073 3 18410570665268716017
7364860 26 18117003392735707132
81228 2 17767697053079951368
8809292 202 18334574590462198212
9709674 26 18262237841157414395

>  <PUBCHEM_SHAPE_MULTIPOLES>  (1) 
339.89
8.7
2.12
1.08
6.27
0.12
0.02
-4.2
-1.9
-0.89
-0.03
-0.04
0.02
1.5

>  <PUBCHEM_SHAPE_SELFOVERLAP>  (1) 
728.772

>  <PUBCHEM_SHAPE_VOLUME>  (1) 
186.5

>  <PUBCHEM_COORDINATE_TYPE>  (1) 
2
5
10

$$$$
