30432
     RDKit          3D

 18 20  0  0  0  0  0  0  0  0999 V2000
   -6.0734    0.2739   -0.1207 Cl  0  0  0  0  0  0  0  0  0  0  0  0
    1.6367   -1.8225   -0.4697 O   0  0  0  0  0  0  0  0  0  0  0  0
    0.3674    1.9700    0.2676 O   0  0  0  0  0  0  0  0  0  0  0  0
   -0.1603   -0.3177    0.0791 N   0  0  0  0  0  0  0  0  0  0  0  0
    0.4180   -1.6485    0.2633 C   0  0  0  0  0  0  0  0  0  0  0  0
    2.1377    0.4678    0.1048 C   0  0  0  0  0  0  0  0  0  0  0  0
    0.6947    0.7928    0.1537 C   0  0  0  0  0  0  0  0  0  0  0  0
   -1.5921   -0.1742    0.0312 C   0  0  0  0  0  0  0  0  0  0  0  0
    2.5364   -0.8258   -0.2241 C   0  0  0  0  0  0  0  0  0  0  0  0
    3.1004    1.4579    0.3266 C   0  0  0  0  0  0  0  0  0  0  0  0
    3.8903   -1.1322   -0.3614 C   0  0  0  0  0  0  0  0  0  0  0  0
   -2.1561    0.9582   -0.5511 C   0  0  0  0  0  0  0  0  0  0  0  0
   -2.4067   -1.1687    0.5669 C   0  0  0  0  0  0  0  0  0  0  0  0
    4.4559    1.1455    0.2110 C   0  0  0  0  0  0  0  0  0  0  0  0
    4.8503   -0.1464   -0.1365 C   0  0  0  0  0  0  0  0  0  0  0  0
   -3.5431    1.0970   -0.5981 C   0  0  0  0  0  0  0  0  0  0  0  0
   -3.7939   -1.0299    0.5200 C   0  0  0  0  0  0  0  0  0  0  0  0
   -4.3621    0.1030   -0.0624 C   0  0  0  0  0  0  0  0  0  0  0  0
  1 18  1  0
  2  5  1  0
  2  9  1  0
  3  7  2  0
  4  5  1  0
  4  7  1  0
  4  8  1  0
  6  7  1  0
  6  9  2  0
  6 10  1  0
  8 12  2  0
  8 13  1  0
  9 11  1  0
 10 14  2  0
 11 15  2  0
 12 16  1  0
 13 17  2  0
 14 15  1  0
 16 18  2  0
 17 18  1  0
M  END
>  <PUBCHEM_COMPOUND_CID>  (1) 
30432

>  <PUBCHEM_CONFORMER_RMSD>  (1) 
0.6

>  <PUBCHEM_CONFORMER_DIVERSEORDER>  (1) 
2
1

>  <PUBCHEM_MMFF94_PARTIAL_CHARGES>  (1) 
26
1 -0.18
10 -0.15
11 -0.15
12 -0.15
13 -0.15
14 -0.15
15 -0.15
16 -0.15
17 -0.15
18 0.18
2 -0.36
21 0.15
22 0.15
23 0.15
24 0.15
25 0.15
26 0.15
27 0.15
28 0.15
3 -0.57
4 -0.48
5 0.58
6 0.09
7 0.54
8 0.12
9 0.08

>  <PUBCHEM_EFFECTIVE_ROTOR_COUNT>  (1) 
1.6

>  <PUBCHEM_PHARMACOPHORE_FEATURES>  (1) 
5
1 2 acceptor
1 3 acceptor
6 2 4 5 6 7 9 rings
6 6 9 10 11 14 15 rings
6 8 12 13 16 17 18 rings

>  <PUBCHEM_HEAVY_ATOM_COUNT>  (1) 
18

>  <PUBCHEM_ATOM_DEF_STEREO_COUNT>  (1) 
0

>  <PUBCHEM_ATOM_UDEF_STEREO_COUNT>  (1) 
0

>  <PUBCHEM_BOND_DEF_STEREO_COUNT>  (1) 
0

>  <PUBCHEM_BOND_UDEF_STEREO_COUNT>  (1) 
0

>  <PUBCHEM_ISOTOPIC_ATOM_COUNT>  (1) 
0

>  <PUBCHEM_COMPONENT_COUNT>  (1) 
1

>  <PUBCHEM_CACTVS_TAUTO_COUNT>  (1) 
1

>  <PUBCHEM_CONFORMER_ID>  (1) 
000076E000000002

>  <PUBCHEM_MMFF94_ENERGY>  (1) 
65.7553

>  <PUBCHEM_FEATURE_SELFOVERLAP>  (1) 
25.404

>  <PUBCHEM_SHAPE_FINGERPRINT>  (1) 
10608611 8 18408318869844819397
11471102 20 18342175570406428872
11578080 2 13914048671571709476
12236239 1 17060339617546043691
12403259 415 18335976519396350828
12730499 353 18409454669804533067
13081056 2 18409166606015323589
13533116 47 13326585016288470132
13675066 3 18410012186481393368
14386348 63 18335141994576312827
15196674 1 18410575119065210203
15219456 202 18409729564516299471
15375358 24 18408604764226781147
15536298 74 18343021090563757846
17834072 33 17988638623349992591
18186145 218 18186798063194391796
18522853 276 18413109454949937641
19141452 34 18341333379239397959
200 152 17989485225891756019
20279233 1 18335426768030021003
20645477 56 18187363225525527405
20645477 70 18201720609147470246
21267235 1 18340495486273937167
21279426 13 18194118516933115508
221357 26 18343300340605406701
22854114 59 18411702105609172395
23402539 116 17967526909053849695
23402655 69 18272651250879322143
23557571 272 17603865555290344661
23559900 14 18408041789152421938
26918003 58 18411981368656607290
2871803 45 18409730625600035918
29717793 49 17203614756862652317
3004659 81 18114464462295944418
335352 9 18412263939662517742
33824 294 18411418393392707626
34934 24 18411976983474269090
351380 180 18335699459540051035
3545911 37 18407761434739909575
4072396 5 18337941329964517154
4214541 1 18409449163661500269
42630746 31 18272651238337506526
495365 180 17632284731650345088
5104073 3 18409167701527254099
542803 24 17060623295909516649
59755656 215 18335423434861372182
69090 78 18343017821793381126
77779 3 18409168817918037285
8272917 22 17988368061626952327
9709674 26 18408890650193258319

>  <PUBCHEM_SHAPE_MULTIPOLES>  (1) 
355.58
11.08
1.7
0.72
5.82
0.05
-0.01
-1.1
-0.46
-0.7
0.05
0.11
0.01
0.78

>  <PUBCHEM_SHAPE_SELFOVERLAP>  (1) 
776.357

>  <PUBCHEM_SHAPE_VOLUME>  (1) 
193.2

>  <PUBCHEM_COORDINATE_TYPE>  (1) 
2
5
10

$$$$
