30430
     RDKit          3D

 18 20  0  0  1  0  0  0  0  0999 V2000
   -1.2442   -1.6232    0.7759 O   0  0  0  0  0  0  0  0  0  0  0  0
   -0.0285    1.9818   -0.7022 O   0  0  0  0  0  0  0  0  0  0  0  0
    0.5360   -0.2062   -0.0372 N   0  0  0  0  0  0  0  0  0  0  0  0
   -0.0165   -1.5685    0.0256 C   0  0  0  0  0  0  0  0  0  0  0  0
   -1.7723    0.5526   -0.1344 C   0  0  0  0  0  0  0  0  0  0  0  0
   -0.3372    0.8561   -0.3226 C   0  0  0  0  0  0  0  0  0  0  0  0
   -2.1486   -0.6602    0.4353 C   0  0  0  0  0  0  0  0  0  0  0  0
    1.9654   -0.0117    0.0599 C   0  0  0  0  0  0  0  0  0  0  0  0
   -0.2227   -2.1950   -1.3570 C   0  0  0  0  0  0  0  0  0  0  0  0
   -2.7489    1.4984   -0.4657 C   0  0  0  0  0  0  0  0  0  0  0  0
   -3.4925   -0.9250    0.7032 C   0  0  0  0  0  0  0  0  0  0  0  0
    2.4691    1.2123    0.4903 C   0  0  0  0  0  0  0  0  0  0  0  0
    2.8286   -1.0502   -0.2770 C   0  0  0  0  0  0  0  0  0  0  0  0
   -4.0949    1.2246   -0.2166 C   0  0  0  0  0  0  0  0  0  0  0  0
   -4.4659    0.0164    0.3716 C   0  0  0  0  0  0  0  0  0  0  0  0
    3.8482    1.3994    0.5848 C   0  0  0  0  0  0  0  0  0  0  0  0
    4.2076   -0.8632   -0.1824 C   0  0  0  0  0  0  0  0  0  0  0  0
    4.7174    0.3617    0.2485 C   0  0  0  0  0  0  0  0  0  0  0  0
  1  4  1  0
  1  7  1  0
  2  6  2  0
  3  4  1  0
  3  6  1  0
  3  8  1  0
  4  9  1  0
  5  6  1  0
  5  7  2  0
  5 10  1  0
  7 11  1  0
  8 12  2  0
  8 13  1  0
 10 14  2  0
 11 15  2  0
 12 16  1  0
 13 17  2  0
 14 15  1  0
 16 18  2  0
 17 18  1  0
M  END
>  <PUBCHEM_COMPOUND_CID>  (1) 
30430

>  <PUBCHEM_CONFORMER_RMSD>  (1) 
0.6

>  <PUBCHEM_CONFORMER_DIVERSEORDER>  (1) 
1
2
3

>  <PUBCHEM_MMFF94_PARTIAL_CHARGES>  (1) 
26
1 -0.36
10 -0.15
11 -0.15
12 -0.15
13 -0.15
14 -0.15
15 -0.15
16 -0.15
17 -0.15
18 -0.15
2 -0.57
23 0.15
24 0.15
25 0.15
26 0.15
27 0.15
28 0.15
29 0.15
3 -0.48
30 0.15
31 0.15
4 0.58
5 0.09
6 0.54
7 0.08
8 0.12

>  <PUBCHEM_EFFECTIVE_ROTOR_COUNT>  (1) 
1.6

>  <PUBCHEM_PHARMACOPHORE_FEATURES>  (1) 
5
1 1 acceptor
1 2 acceptor
6 1 3 4 5 6 7 rings
6 5 7 10 11 14 15 rings
6 8 12 13 16 17 18 rings

>  <PUBCHEM_HEAVY_ATOM_COUNT>  (1) 
18

>  <PUBCHEM_ATOM_DEF_STEREO_COUNT>  (1) 
0

>  <PUBCHEM_ATOM_UDEF_STEREO_COUNT>  (1) 
1

>  <PUBCHEM_BOND_DEF_STEREO_COUNT>  (1) 
0

>  <PUBCHEM_BOND_UDEF_STEREO_COUNT>  (1) 
0

>  <PUBCHEM_ISOTOPIC_ATOM_COUNT>  (1) 
0

>  <PUBCHEM_COMPONENT_COUNT>  (1) 
1

>  <PUBCHEM_CACTVS_TAUTO_COUNT>  (1) 
1

>  <PUBCHEM_CONFORMER_ID>  (1) 
000076DE00000001

>  <PUBCHEM_MMFF94_ENERGY>  (1) 
67.7598

>  <PUBCHEM_FEATURE_SELFOVERLAP>  (1) 
25.403

>  <PUBCHEM_SHAPE_FINGERPRINT>  (1) 
10 15 18337941403496179608
10608611 8 18411133658435495168
10922049 32 18341894073664991375
11132069 177 18334014986536330821
11471102 20 18273495659225664296
12011746 2 18409449171876706924
12119455 92 18131067125696455622
12236239 1 16443067192679766880
12251169 10 18261393381392712280
12403259 415 18409166584651575181
12507560 40 18409449206537105944
12969540 114 18264186093988409991
13140716 1 18118696637000973385
13214271 11 18408884036296602287
13544592 145 18342749481391008342
13675066 3 18335423495006329306
14866123 147 16902723247199694114
15196674 1 18409167709784806912
15209294 21 18129676201133868897
15219456 202 18412265012602449126
15309172 13 18202566176454350630
15375358 24 18410292501590087142
15536298 74 18413108355385354376
15848702 151 17345484682133820870
16945 1 18187936139507747723
17804303 29 18335707160479911105
18175812 5 18409450271398806149
18186145 218 17917999364593357074
19784866 170 18335421322401892816
200 152 17632573842477546841
204376 136 18060420230873219855
20510252 161 18411982429656435033
20645477 56 18270954752204796872
20645477 70 18059576837199540790
21033648 29 18272638052535116456
21249577 43 18409167705521624536
21267235 1 18334023795197867354
22182313 1 18265067855449391535
22854114 59 18343584048848670568
23184049 59 18342178873093841774
23402539 116 18335977632246112935
23559900 14 18335984173565674590
2748010 2 18409735036389056887
34934 24 18335977645041233522
351380 180 18411696577965130953
495365 180 17632282498193439608
5104073 3 18408323263453711952
633830 44 17131287782502247277
69090 78 18272365399325934910
81228 2 17765688584179446110
84936 31 16772393902809970462
9709674 26 18410298029440344138

>  <PUBCHEM_SHAPE_MULTIPOLES>  (1) 
353.71
8.66
1.97
0.87
2.22
0.28
0.08
-1.85
-1.27
-0.08
0.37
-0.18
0.18
0.76

>  <PUBCHEM_SHAPE_SELFOVERLAP>  (1) 
778

>  <PUBCHEM_SHAPE_VOLUME>  (1) 
189.9

>  <PUBCHEM_COORDINATE_TYPE>  (1) 
2
5
10

$$$$
