30441
     RDKit          3D

 24 26  0  0  0  0  0  0  0  0999 V2000
   -2.7525    1.2458    2.1718 O   0  0  0  0  0  0  0  0  0  0  0  0
    5.9372    0.0894    0.5442 O   0  0  0  0  0  0  0  0  0  0  0  0
    4.2371    1.5057    1.0644 O   0  0  0  0  0  0  0  0  0  0  0  0
    2.0392    0.9177   -0.5318 N   0  0  0  0  0  0  0  0  0  0  0  0
    0.7477    1.4849   -0.5320 C   0  0  0  0  0  0  0  0  0  0  0  0
   -1.5193    1.4784    0.1980 C   0  0  0  0  0  0  0  0  0  0  0  0
    2.5004   -0.4036   -0.3746 C   0  0  0  0  0  0  0  0  0  0  0  0
   -0.2710    0.9012    0.2213 C   0  0  0  0  0  0  0  0  0  0  0  0
    0.4888    2.6289   -1.2871 C   0  0  0  0  0  0  0  0  0  0  0  0
   -2.6112    0.8531    1.0041 C   0  0  0  0  0  0  0  0  0  0  0  0
    3.7498   -0.6683    0.1924 C   0  0  0  0  0  0  0  0  0  0  0  0
   -1.8071    2.6056   -0.5355 C   0  0  0  0  0  0  0  0  0  0  0  0
   -3.4868   -0.1753    0.4654 C   0  0  0  0  0  0  0  0  0  0  0  0
   -0.7886    3.1893   -1.2888 C   0  0  0  0  0  0  0  0  0  0  0  0
    1.6923   -1.4637   -0.7931 C   0  0  0  0  0  0  0  0  0  0  0  0
    4.1879   -1.9843    0.3397 C   0  0  0  0  0  0  0  0  0  0  0  0
    2.1304   -2.7797   -0.6456 C   0  0  0  0  0  0  0  0  0  0  0  0
    3.3782   -3.0400   -0.0793 C   0  0  0  0  0  0  0  0  0  0  0  0
   -3.3223   -0.6131   -0.8489 C   0  0  0  0  0  0  0  0  0  0  0  0
   -4.4909   -0.7245    1.2629 C   0  0  0  0  0  0  0  0  0  0  0  0
    4.6194    0.4122    0.6402 C   0  0  0  0  0  0  0  0  0  0  0  0
   -4.1620   -1.5997   -1.3656 C   0  0  0  0  0  0  0  0  0  0  0  0
   -5.3304   -1.7113    0.7461 C   0  0  0  0  0  0  0  0  0  0  0  0
   -5.1660   -2.1489   -0.5682 C   0  0  0  0  0  0  0  0  0  0  0  0
  1 10  2  0
  2 21  1  0
  3 21  2  0
  4  5  1  0
  4  7  1  0
  5  8  2  0
  5  9  1  0
  6  8  1  0
  6 10  1  0
  6 12  2  0
  7 11  2  0
  7 15  1  0
  9 14  2  0
 10 13  1  0
 11 16  1  0
 11 21  1  0
 12 14  1  0
 13 19  2  0
 13 20  1  0
 15 17  2  0
 16 18  2  0
 17 18  1  0
 19 22  1  0
 20 23  2  0
 22 24  2  0
 23 24  1  0
M  END
>  <PUBCHEM_COMPOUND_CID>  (1) 
30441

>  <PUBCHEM_CONFORMER_RMSD>  (1) 
0.8

>  <PUBCHEM_CONFORMER_DIVERSEORDER>  (1) 
1
21
30
24
9
34
10
7
25
18
29
20
4
12
16
17
28
6
27
32
14
11
26
2
22
31
33
23
3
8
19
5
13
15

>  <PUBCHEM_MMFF94_PARTIAL_CHARGES>  (1) 
39
1 -0.57
10 0.4
11 0.09
12 -0.15
13 0.09
14 -0.15
15 -0.15
16 -0.15
17 -0.15
18 -0.15
19 -0.15
2 -0.65
20 -0.15
21 0.63
22 -0.15
23 -0.15
24 -0.15
25 0.15
26 0.4
27 0.15
28 0.15
29 0.15
3 -0.57
30 0.15
31 0.15
32 0.15
33 0.15
34 0.15
35 0.15
36 0.15
37 0.15
38 0.15
39 0.5
4 -0.6
5 0.1
6 0.09
7 0.1
8 -0.15
9 -0.15

>  <PUBCHEM_EFFECTIVE_ROTOR_COUNT>  (1) 
5

>  <PUBCHEM_PHARMACOPHORE_FEATURES>  (1) 
9
1 1 acceptor
1 2 acceptor
1 3 acceptor
1 4 cation
1 4 donor
3 2 3 21 anion
6 13 19 20 22 23 24 rings
6 5 6 8 9 12 14 rings
6 7 11 15 16 17 18 rings

>  <PUBCHEM_HEAVY_ATOM_COUNT>  (1) 
24

>  <PUBCHEM_ATOM_DEF_STEREO_COUNT>  (1) 
0

>  <PUBCHEM_ATOM_UDEF_STEREO_COUNT>  (1) 
0

>  <PUBCHEM_BOND_DEF_STEREO_COUNT>  (1) 
0

>  <PUBCHEM_BOND_UDEF_STEREO_COUNT>  (1) 
0

>  <PUBCHEM_ISOTOPIC_ATOM_COUNT>  (1) 
0

>  <PUBCHEM_COMPONENT_COUNT>  (1) 
1

>  <PUBCHEM_CACTVS_TAUTO_COUNT>  (1) 
2

>  <PUBCHEM_CONFORMER_ID>  (1) 
000076E900000001

>  <PUBCHEM_MMFF94_ENERGY>  (1) 
97.6649

>  <PUBCHEM_FEATURE_SELFOVERLAP>  (1) 
45.728

>  <PUBCHEM_SHAPE_FINGERPRINT>  (1) 
10165383 225 11959740381808003936
11552529 35 18130222636310191816
11578080 2 18129932482112691161
12363563 72 17967260792621694225
12422481 6 17982481238407860401
12553582 1 18189638127377486765
12596602 18 17275109474077888107
12623949 98 18059869332904441582
12633257 1 17843126896213295682
13083527 12 18335702783913823500
13140716 1 18052539068958746638
13544653 18 18410012130525687557
13583140 156 17489297564657807545
14341114 328 17060062574611579696
1454969 45 18335706104582692356
14787075 74 17774155846231821816
14840074 17 18271243931888463846
14950920 106 17559957628008658410
15183329 4 11602806996088467232
15352361 1 18407761434798269647
15415430 10 18410011052557390001
16126227 98 17984976262410292760
17349148 13 18261114105576309936
17492 89 18265612087577134202
1813 80 18334590044203058893
19141452 34 18194972846585638313
20681651 13 18128535968319499945
21304303 282 16300607761546540037
21315759 227 17895485837818855275
21344244 181 17759503488419693413
21673915 165 18343018887161567726
21756936 100 16128361680627928744
22113638 7 18267583700819772055
221490 88 18195807363247758070
23559900 14 18046061563219982532
3380486 145 18336554806921001369
339767 52 18411974772067174159
3797600 57 17275103933933676666
392239 28 17703503402183986066
46194498 28 17387125584728598655
463206 1 18195246835381675819
469060 322 18123721353257358988
5104073 3 18269830918235090578
57035037 87 14779538046233131028
613672 6 18186523219679146883
6371380 46 16691631333486039781
6913067 236 18337093640711417080

>  <PUBCHEM_SHAPE_MULTIPOLES>  (1) 
471.32
11.69
3.57
1.32
0.84
0.46
0.21
-8.07
2.87
0.22
-1.26
-1.07
0.33
-0.01

>  <PUBCHEM_SHAPE_SELFOVERLAP>  (1) 
1037.675

>  <PUBCHEM_SHAPE_VOLUME>  (1) 
251.5

>  <PUBCHEM_COORDINATE_TYPE>  (1) 
2
5
10

$$$$
