30440
     RDKit          3D

 23 25  0  0  0  0  0  0  0  0999 V2000
   -1.7885    0.6185    0.1040 O   0  0  0  0  0  0  0  0  0  0  0  0
   -1.6801    2.7738    0.9050 O   0  0  0  0  0  0  0  0  0  0  0  0
    4.3395    1.0910   -0.4441 N   0  0  0  0  0  0  0  0  0  0  0  0
   -5.1899   -0.8076    0.0595 N   0  0  0  0  0  0  0  0  0  0  0  0
    3.2405   -0.7781    0.0687 C   0  0  0  0  0  0  0  0  0  0  0  0
    4.4774   -0.2515   -0.2402 C   0  0  0  0  0  0  0  0  0  0  0  0
    3.0427   -2.2253    0.3660 C   0  0  0  0  0  0  0  0  0  0  0  0
    5.7509   -1.0075   -0.3670 C   0  0  0  0  0  0  0  0  0  0  0  0
    4.2498   -3.0605   -0.1038 C   0  0  0  0  0  0  0  0  0  0  0  0
    5.5922   -2.4020    0.2673 C   0  0  0  0  0  0  0  0  0  0  0  0
    2.3071    0.2964    0.0597 C   0  0  0  0  0  0  0  0  0  0  0  0
    3.0215    1.4548   -0.2655 C   0  0  0  0  0  0  0  0  0  0  0  0
    0.9216    0.4008    0.2979 C   0  0  0  0  0  0  0  0  0  0  0  0
    2.4138    2.7117   -0.3659 C   0  0  0  0  0  0  0  0  0  0  0  0
    0.3026    1.6521    0.2010 C   0  0  0  0  0  0  0  0  0  0  0  0
    1.0392    2.7885   -0.1260 C   0  0  0  0  0  0  0  0  0  0  0  0
   -3.7493   -0.7443   -0.1373 C   0  0  0  0  0  0  0  0  0  0  0  0
   -1.1269    1.7661    0.4458 C   0  0  0  0  0  0  0  0  0  0  0  0
   -3.2069    0.6074    0.2985 C   0  0  0  0  0  0  0  0  0  0  0  0
   -5.7075   -2.1242   -0.3209 C   0  0  0  0  0  0  0  0  0  0  0  0
   -5.8646    0.2417   -0.7086 C   0  0  0  0  0  0  0  0  0  0  0  0
   -5.0224   -3.2308    0.4629 C   0  0  0  0  0  0  0  0  0  0  0  0
   -7.3628    0.2289   -0.4570 C   0  0  0  0  0  0  0  0  0  0  0  0
  1 18  1  0
  1 19  1  0
  2 18  2  0
  3  6  1  0
  3 12  1  0
  4 17  1  0
  4 20  1  0
  4 21  1  0
  5  6  2  0
  5  7  1  0
  5 11  1  0
  6  8  1  0
  7  9  1  0
  8 10  1  0
  9 10  1  0
 11 12  2  0
 11 13  1  0
 12 14  1  0
 13 15  2  0
 14 16  2  0
 15 16  1  0
 15 18  1  0
 17 19  1  0
 20 22  1  0
 21 23  1  0
M  END
>  <PUBCHEM_COMPOUND_CID>  (1) 
30440

>  <PUBCHEM_CONFORMER_RMSD>  (1) 
0.8

>  <PUBCHEM_CONFORMER_DIVERSEORDER>  (1) 
1
112
111
135
15
120
90
61
95
27
46
103
77
125
81
106
45
44
22
115
66
131
108
23
113
65
110
42
92
105
76
98
38
104
121
128
89
47
40
93
117
60
87
62
127
3
58
134
102
67
124
63
25
78
133
80
7
137
82
96
52
5
68
30
71
16
139
122
37
136
43
97
101
100
56
126
10
24
33
79
49
84
53
116
70
41
51
2
119
109
75
12
36
50
57
123
132
8
19
91
35
14
114
88
69
83
26
6
55
64
48
130
13
54
118
32
94
31
34
11
59
28
17
72
20
21
9
107
85
39
129
4
99
18
138
86
73
29
74

>  <PUBCHEM_MMFF94_PARTIAL_CHARGES>  (1) 
22
1 -0.43
12 -0.15
13 -0.15
14 -0.15
15 0.09
16 -0.15
17 0.27
18 0.63
19 0.28
2 -0.57
20 0.27
21 0.27
3 0.03
32 0.27
33 0.15
34 0.15
35 0.15
4 -0.81
5 -0.18
6 -0.33
7 0.18
8 0.18

>  <PUBCHEM_EFFECTIVE_ROTOR_COUNT>  (1) 
7.8

>  <PUBCHEM_PHARMACOPHORE_FEATURES>  (1) 
7
1 2 acceptor
1 3 cation
1 3 donor
1 4 cation
5 3 5 6 11 12 rings
6 11 12 13 14 15 16 rings
6 5 6 7 8 9 10 rings

>  <PUBCHEM_HEAVY_ATOM_COUNT>  (1) 
23

>  <PUBCHEM_ATOM_DEF_STEREO_COUNT>  (1) 
0

>  <PUBCHEM_ATOM_UDEF_STEREO_COUNT>  (1) 
0

>  <PUBCHEM_BOND_DEF_STEREO_COUNT>  (1) 
0

>  <PUBCHEM_BOND_UDEF_STEREO_COUNT>  (1) 
0

>  <PUBCHEM_ISOTOPIC_ATOM_COUNT>  (1) 
0

>  <PUBCHEM_COMPONENT_COUNT>  (1) 
1

>  <PUBCHEM_CACTVS_TAUTO_COUNT>  (1) 
2

>  <PUBCHEM_CONFORMER_ID>  (1) 
000076E800000001

>  <PUBCHEM_MMFF94_ENERGY>  (1) 
40.0003

>  <PUBCHEM_FEATURE_SELFOVERLAP>  (1) 
35.695

>  <PUBCHEM_SHAPE_FINGERPRINT>  (1) 
10 15 11383822784069571109
10447042 23 18341889697262089580
11719270 70 18265610069358996320
12107183 9 18269847411163117433
12592606 108 18342453747708437327
12760667 363 18271522014526714925
13533116 47 18343018904156801264
13955234 65 17983858062403846217
14576447 43 18410015416798005260
15019793 15 17835521901077276915
15183329 4 18335697227048607093
15352361 1 18410856546765703610
17492 89 18411419509598492146
17857418 61 18342458127736036171
19141452 34 18051419461559476600
20028762 73 18343300332311423550
20567600 70 18409728473864164498
20645477 70 18261108633651117040
21033650 10 16371283303838686653
21267235 1 18341337699976289862
21279426 13 18334290985878456759
21315764 119 17967810531840983669
21478907 32 18338798910021228529
221357 26 18260825973442657453
22393880 68 17967521368645978705
23559900 14 18337946896273937009
23622692 118 18340206284899221264
25222932 49 17983859162057600063
2838139 119 8358252618640487442
2871803 45 18187364311682897896
3004659 81 18260544532836052675
314194 84 18410023151364140776
3421961 26 18412823620470814200
3882209 13 16962910569302071531
4073 2 18115028636040518011
439807 62 18335424625480124475
46194498 28 17530965821234590324
465052 167 18272655670395434287
5104073 3 18060704982973482961
559249 180 18271242717267533705
59682541 35 18201705264273528042
6437827 68 18410572894894896551
7970288 3 18337952264772488986

>  <PUBCHEM_SHAPE_MULTIPOLES>  (1) 
451.63
16.8
3.71
0.73
20.89
0.87
0.01
12.44
-2.64
-1.39
0.36
0.19
-0.06
-0.27

>  <PUBCHEM_SHAPE_SELFOVERLAP>  (1) 
954.573

>  <PUBCHEM_SHAPE_VOLUME>  (1) 
256

>  <PUBCHEM_COORDINATE_TYPE>  (1) 
2
5
10

$$$$
