30448
     RDKit          3D

 14 15  0  0  1  0  0  0  0  0999 V2000
    2.7540   -1.1347    0.4481 O   0  0  0  0  0  0  0  0  0  0  0  0
   -4.1205    0.6585   -0.0249 O   0  0  0  0  0  0  0  0  0  0  0  0
   -3.5898   -1.4706   -0.0905 O   0  0  0  0  0  0  0  0  0  0  0  0
    3.1072   -0.0006   -0.4054 N   0  0  0  0  0  0  0  0  0  0  0  0
   -3.2653   -0.2596   -0.0410 N   0  0  0  0  0  0  0  0  0  0  0  0
    0.8226    0.7668    0.0525 C   0  0  0  0  0  0  0  0  0  0  0  0
    0.4360   -0.5875    0.0215 C   0  0  0  0  0  0  0  0  0  0  0  0
    2.2943    1.1113    0.1095 C   0  0  0  0  0  0  0  0  0  0  0  0
    1.5015   -1.6542   -0.0175 C   0  0  0  0  0  0  0  0  0  0  0  0
   -0.1540    1.7671    0.0828 C   0  0  0  0  0  0  0  0  0  0  0  0
   -0.9205   -0.9224   -0.0200 C   0  0  0  0  0  0  0  0  0  0  0  0
   -1.8877    0.0827   -0.0026 C   0  0  0  0  0  0  0  0  0  0  0  0
   -1.5056    1.4234    0.0522 C   0  0  0  0  0  0  0  0  0  0  0  0
    4.5279    0.2197   -0.1646 C   0  0  0  0  0  0  0  0  0  0  0  0
  1  4  1  0
  1  9  1  0
  2  5  1  0
  3  5  2  0
  4  8  1  0
  4 14  1  0
  5 12  1  0
  6  7  2  0
  6  8  1  0
  6 10  1  0
  7  9  1  0
  7 11  1  0
 10 13  2  0
 11 12  2  0
 12 13  1  0
M  CHG  2   2  -1   5   1
M  END
>  <PUBCHEM_COMPOUND_CID>  (1) 
30448

>  <PUBCHEM_CONFORMER_RMSD>  (1) 
0.6

>  <PUBCHEM_CONFORMER_DIVERSEORDER>  (1) 
1
2

>  <PUBCHEM_MMFF94_PARTIAL_CHARGES>  (1) 
17
1 -0.18
10 -0.15
11 -0.15
12 0.13
13 -0.15
14 0.27
19 0.15
2 -0.52
20 0.15
21 0.15
3 -0.52
4 -0.64
5 0.91
6 -0.14
7 -0.14
8 0.41
9 0.42

>  <PUBCHEM_EFFECTIVE_ROTOR_COUNT>  (1) 
1.8

>  <PUBCHEM_PHARMACOPHORE_FEATURES>  (1) 
5
1 2 acceptor
1 2 anion
1 3 acceptor
6 1 4 6 7 8 9 rings
6 6 7 10 11 12 13 rings

>  <PUBCHEM_HEAVY_ATOM_COUNT>  (1) 
14

>  <PUBCHEM_ATOM_DEF_STEREO_COUNT>  (1) 
0

>  <PUBCHEM_ATOM_UDEF_STEREO_COUNT>  (1) 
0

>  <PUBCHEM_BOND_DEF_STEREO_COUNT>  (1) 
0

>  <PUBCHEM_BOND_UDEF_STEREO_COUNT>  (1) 
0

>  <PUBCHEM_ISOTOPIC_ATOM_COUNT>  (1) 
0

>  <PUBCHEM_COMPONENT_COUNT>  (1) 
1

>  <PUBCHEM_CACTVS_TAUTO_COUNT>  (1) 
1

>  <PUBCHEM_CONFORMER_ID>  (1) 
000076F000000001

>  <PUBCHEM_MMFF94_ENERGY>  (1) 
39.5906

>  <PUBCHEM_FEATURE_SELFOVERLAP>  (1) 
25.479

>  <PUBCHEM_SHAPE_FINGERPRINT>  (1) 
11132069 177 18413384345525291362
11401426 45 18411695495607141437
11471102 20 18410288094969511341
11806522 49 18410854407866527079
12032990 46 18412268366971900791
12932764 1 16916489381459810446
13221675 6 18413671313897133318
13380535 76 18408044013592261362
14144814 61 18412263913059069051
14252887 29 17988657301693459334
14325111 11 18410855481750899209
14576447 43 18270950371180198503
14993402 34 18201716267024918767
15196674 1 18410856581141012814
15536298 74 18200875188043375096
16945 1 18341039766083527064
18522853 276 18413386523422064960
193761 8 17834677089150389673
200 152 18131063840415505445
20201158 50 18408042905115905763
20510252 161 18130508535382967800
20645477 70 18338230454035609543
21267235 1 18339370746298577175
21501502 16 18265897943298420584
23402539 116 18341324557022903918
23402655 69 18339355280216140709
23463225 33 18409166597467476500
23552423 10 18117560626229601170
23559900 14 18339920395133869642
25610 137 18409732858761659149
2748010 2 18195526978480187852
3312278 4 18410857659494282883
5104073 3 18410573980898708842
528886 8 18411415133290665730
53655031 270 18411420596341418568
53812653 166 18342452664564113592
57096353 35 18408606984840749270
7364860 26 18198623435416639144
8809292 202 18188214315744132915

>  <PUBCHEM_SHAPE_MULTIPOLES>  (1) 
260.54
6.71
1.67
0.61
0.09
0.02
0
-0.6
-0.37
-0.17
0.06
0.11
0
-0.1

>  <PUBCHEM_SHAPE_SELFOVERLAP>  (1) 
552.699

>  <PUBCHEM_SHAPE_VOLUME>  (1) 
146.1

>  <PUBCHEM_COORDINATE_TYPE>  (1) 
2
5
10

$$$$
