30442
     RDKit          3D

 23 24  0  0  1  0  0  0  0  0999 V2000
    3.6235   -2.7757    0.5011 F   0  0  0  0  0  0  0  0  0  0  0  0
    4.8302   -0.9736    0.5072 F   0  0  0  0  0  0  0  0  0  0  0  0
    3.2957   -1.2563    2.0218 F   0  0  0  0  0  0  0  0  0  0  0  0
   -1.3198    1.3506    1.8983 O   0  0  0  0  0  0  0  0  0  0  0  0
   -1.1035    2.5311   -0.0887 N   0  0  0  0  0  0  0  0  0  0  0  0
    0.1706    3.1437    0.2120 C   0  0  0  0  0  0  0  0  0  0  0  0
    1.2385    2.7408   -0.8170 C   0  0  0  0  0  0  0  0  0  0  0  0
    1.4341    1.2462   -0.9093 C   0  0  0  0  0  0  0  0  0  0  0  0
    0.0132    4.6603    0.2603 C   0  0  0  0  0  0  0  0  0  0  0  0
    2.3704    0.6321   -0.0932 C   0  0  0  0  0  0  0  0  0  0  0  0
   -1.7468    1.6756    0.7934 C   0  0  0  0  0  0  0  0  0  0  0  0
    0.6724    0.5169   -1.8081 C   0  0  0  0  0  0  0  0  0  0  0  0
   -3.0649    1.1832    0.2274 C   0  0  0  0  0  0  0  0  0  0  0  0
    2.5497   -0.7485   -0.1781 C   0  0  0  0  0  0  0  0  0  0  0  0
    0.8519   -0.8638   -1.8929 C   0  0  0  0  0  0  0  0  0  0  0  0
   -3.1318   -0.3146    0.0875 C   0  0  0  0  0  0  0  0  0  0  0  0
    1.7905   -1.4964   -1.0780 C   0  0  0  0  0  0  0  0  0  0  0  0
    3.5544   -1.4249    0.6922 C   0  0  0  0  0  0  0  0  0  0  0  0
   -2.7137   -0.9096   -1.0946 C   0  0  0  0  0  0  0  0  0  0  0  0
   -3.6109   -1.0788    1.1421 C   0  0  0  0  0  0  0  0  0  0  0  0
   -2.7756   -2.2969   -1.2245 C   0  0  0  0  0  0  0  0  0  0  0  0
   -3.6729   -2.4662    1.0122 C   0  0  0  0  0  0  0  0  0  0  0  0
   -3.2552   -3.0754   -0.1711 C   0  0  0  0  0  0  0  0  0  0  0  0
  1 18  1  0
  2 18  1  0
  3 18  1  0
  4 11  2  0
  5  6  1  0
  5 11  1  0
  6  7  1  0
  6  9  1  0
  7  8  1  0
  8 10  2  0
  8 12  1  0
 10 14  1  0
 11 13  1  0
 12 15  2  0
 13 16  1  0
 14 17  2  0
 14 18  1  0
 15 17  1  0
 16 19  2  0
 16 20  1  0
 19 21  1  0
 20 22  2  0
 21 23  2  0
 22 23  1  0
M  END
>  <PUBCHEM_COMPOUND_CID>  (1) 
30442

>  <PUBCHEM_CONFORMER_RMSD>  (1) 
0.8

>  <PUBCHEM_CONFORMER_DIVERSEORDER>  (1) 
1
162
39
90
205
29
138
57
16
91
178
152
109
121
206
69
143
179
14
189
207
104
26
107
40
177
174
176
151
42
52
190
204
134
161
106
21
59
191
58
200
51
20
70
73
186
86
144
182
154
103
126
22
119
111
180
45
132
203
95
185
181
47
37
127
50
169
139
15
28
115
12
77
197
170
89
108
64
120
3
112
101
98
188
53
60
128
87
194
105
63
208
30
129
158
24
171
160
2
11
41
43
110
100
18
84
183
71
96
155
163
49
74
62
116
17
137
8
167
125
195
19
66
192
32
83
165
166
102
136
38
156
72
97
27
99
55
13
54
7
175
48
148
164
92
44
76
198
118
142
173
6
130
10
153
113
135
46
150
4
140
75
35
61
33
193
157
80
9
36
199
133
25
78
145
65
122
123
114
187
131
184
5
117
172
23
149
85
147
56
81
146
196
159
168
202
82
34
79
68
124
201
94
93
67
31
141
88

>  <PUBCHEM_MMFF94_PARTIAL_CHARGES>  (1) 
32
1 -0.34
10 -0.15
11 0.57
12 -0.15
13 0.2
14 -0.14
15 -0.15
16 -0.14
17 -0.15
18 1.16
19 -0.15
2 -0.34
20 -0.15
21 -0.15
22 -0.15
23 -0.15
27 0.37
3 -0.34
31 0.15
32 0.15
35 0.15
36 0.15
37 0.15
38 0.15
39 0.15
4 -0.57
40 0.15
41 0.15
5 -0.73
6 0.3
7 0.14
8 -0.14

>  <PUBCHEM_EFFECTIVE_ROTOR_COUNT>  (1) 
7

>  <PUBCHEM_PHARMACOPHORE_FEATURES>  (1) 
4
1 4 acceptor
1 5 donor
6 16 19 20 21 22 23 rings
6 8 10 12 14 15 17 rings

>  <PUBCHEM_HEAVY_ATOM_COUNT>  (1) 
23

>  <PUBCHEM_ATOM_DEF_STEREO_COUNT>  (1) 
0

>  <PUBCHEM_ATOM_UDEF_STEREO_COUNT>  (1) 
1

>  <PUBCHEM_BOND_DEF_STEREO_COUNT>  (1) 
0

>  <PUBCHEM_BOND_UDEF_STEREO_COUNT>  (1) 
0

>  <PUBCHEM_ISOTOPIC_ATOM_COUNT>  (1) 
0

>  <PUBCHEM_COMPONENT_COUNT>  (1) 
1

>  <PUBCHEM_CACTVS_TAUTO_COUNT>  (1) 
2

>  <PUBCHEM_CONFORMER_ID>  (1) 
000076EA00000001

>  <PUBCHEM_MMFF94_ENERGY>  (1) 
44.96

>  <PUBCHEM_FEATURE_SELFOVERLAP>  (1) 
20.297

>  <PUBCHEM_SHAPE_FINGERPRINT>  (1) 
11552529 35 18200866267396314450
11578080 2 17822557400227266365
12156800 1 16044700832849643461
12539773 59 16884110804089316105
12553582 1 18342192058849188661
12633257 1 17632295631649835339
13004483 165 18191013517571255320
13140716 1 18411423881954632581
13931106 250 18046620110162246309
14081887 123 18197486334192305970
14251757 17 12469190182607319434
14787075 74 18189908685228306892
19026451 147 17911502505252539551
192875 21 18200859782117043239
20291156 8 18408608084268097459
20600515 1 18272940384189306101
20775530 9 18041841838976298459
21315759 227 17532374351427611283
21421861 104 18124901172436934073
23728640 28 17975417906237644081
35225 105 17552320342700703459
484985 159 17463953680046184762
5265222 85 16825340726875176270
57091435 65 18053100915063452921
7097593 13 18337957886725904447
9795274 37 18044942513295457731

>  <PUBCHEM_SHAPE_MULTIPOLES>  (1) 
440.66
7.16
4.59
1.58
1.58
3.98
0.02
-7.07
-2.18
-1.45
-0.72
-0.23
-0.52
-1.24

>  <PUBCHEM_SHAPE_SELFOVERLAP>  (1) 
931.197

>  <PUBCHEM_SHAPE_VOLUME>  (1) 
247.4

>  <PUBCHEM_COORDINATE_TYPE>  (1) 
2
5
10

$$$$
