30447
     RDKit          3D

  5  4  0  0  0  0  0  0  0  0999 V2000
   -2.3077    0.5145   -0.1318 N   0  0  0  0  0  0  0  0  0  0  0  0
   -1.3271   -0.5541    0.0281 C   0  0  0  0  0  0  0  0  0  0  0  0
    0.0224   -0.0135    0.3923 C   0  0  0  0  0  0  0  0  0  0  0  0
    1.1323   -0.2377   -0.3265 C   0  0  0  0  0  0  0  0  0  0  0  0
    2.4800    0.2909    0.0379 C   0  0  0  0  0  0  0  0  0  0  0  0
  1  2  1  0
  2  3  1  0
  3  4  2  0
  4  5  1  0
M  END
>  <PUBCHEM_COMPOUND_CID>  (1) 
30447

>  <PUBCHEM_CONFORMER_RMSD>  (1) 
0.4

>  <PUBCHEM_CONFORMER_DIVERSEORDER>  (1) 
1

>  <PUBCHEM_MMFF94_PARTIAL_CHARGES>  (1) 
9
1 -0.99
13 0.36
14 0.36
2 0.41
3 -0.29
4 -0.29
5 0.14
8 0.15
9 0.15

>  <PUBCHEM_EFFECTIVE_ROTOR_COUNT>  (1) 
1

>  <PUBCHEM_PHARMACOPHORE_FEATURES>  (1) 
3
1 1 cation
1 1 donor
1 5 hydrophobe

>  <PUBCHEM_HEAVY_ATOM_COUNT>  (1) 
5

>  <PUBCHEM_ATOM_DEF_STEREO_COUNT>  (1) 
0

>  <PUBCHEM_ATOM_UDEF_STEREO_COUNT>  (1) 
0

>  <PUBCHEM_BOND_DEF_STEREO_COUNT>  (1) 
0

>  <PUBCHEM_BOND_UDEF_STEREO_COUNT>  (1) 
1

>  <PUBCHEM_ISOTOPIC_ATOM_COUNT>  (1) 
0

>  <PUBCHEM_COMPONENT_COUNT>  (1) 
1

>  <PUBCHEM_CACTVS_TAUTO_COUNT>  (1) 
1

>  <PUBCHEM_CONFORMER_ID>  (1) 
000076EF00000001

>  <PUBCHEM_MMFF94_ENERGY>  (1) 
-0.5554

>  <PUBCHEM_FEATURE_SELFOVERLAP>  (1) 
15.223

>  <PUBCHEM_SHAPE_FINGERPRINT>  (1) 
139733 1 17894631452431671739
14390081 3 18341610442736082368
16714656 1 18411419509788454765
20096714 4 17749112209423901709
29004967 10 16630532855420714498
5460574 1 9223235143362176394

>  <PUBCHEM_SHAPE_MULTIPOLES>  (1) 
97.92
3.37
0.73
0.66
0.25
0.02
-0.01
-0.57
0.18
-0.12
0.01
0.04
0.01
0.07

>  <PUBCHEM_SHAPE_SELFOVERLAP>  (1) 
166.167

>  <PUBCHEM_SHAPE_VOLUME>  (1) 
66.5

>  <PUBCHEM_COORDINATE_TYPE>  (1) 
2
5
10

$$$$
