30451
     RDKit          3D

 19 20  0  0  1  0  0  0  0  0999 V2000
    0.9038   -0.5255    0.8389 O   0  0  0  0  0  0  0  0  0  0  0  0
    4.8365    0.4123    0.0748 O   0  0  0  0  0  0  0  0  0  0  0  0
   -6.0879    0.1332   -0.3147 O   0  0  0  0  0  0  0  0  0  0  0  0
   -5.2584   -1.8841   -0.0309 O   0  0  0  0  0  0  0  0  0  0  0  0
    5.7627   -1.5702   -0.6407 O   0  0  0  0  0  0  0  0  0  0  0  0
    1.1635    0.5205   -0.1501 N   0  0  0  0  0  0  0  0  0  0  0  0
   -5.1179   -0.6427   -0.1420 N   0  0  0  0  0  0  0  0  0  0  0  0
    7.0778    0.1535    0.1249 N   0  0  0  0  0  0  0  0  0  0  0  0
    0.1632    1.5574    0.1435 C   0  0  0  0  0  0  0  0  0  0  0  0
   -1.2359    0.9907    0.0483 C   0  0  0  0  0  0  0  0  0  0  0  0
   -1.4249   -0.3977    0.1948 C   0  0  0  0  0  0  0  0  0  0  0  0
   -0.2209   -1.2868    0.3797 C   0  0  0  0  0  0  0  0  0  0  0  0
    2.5146    0.9832    0.1419 C   0  0  0  0  0  0  0  0  0  0  0  0
   -2.3424    1.8270   -0.1299 C   0  0  0  0  0  0  0  0  0  0  0  0
   -2.7130   -0.9356    0.1205 C   0  0  0  0  0  0  0  0  0  0  0  0
    3.5362   -0.0869   -0.2090 C   0  0  0  0  0  0  0  0  0  0  0  0
   -3.8097   -0.0948   -0.0705 C   0  0  0  0  0  0  0  0  0  0  0  0
   -3.6253    1.2827   -0.1918 C   0  0  0  0  0  0  0  0  0  0  0  0
    5.8781   -0.4363   -0.1878 C   0  0  0  0  0  0  0  0  0  0  0  0
  1  6  1  0
  1 12  1  0
  2 16  1  0
  2 19  1  0
  3  7  1  0
  4  7  2  0
  5 19  2  0
  6  9  1  0
  6 13  1  0
  7 17  1  0
  8 19  1  0
  9 10  1  0
 10 11  2  0
 10 14  1  0
 11 12  1  0
 11 15  1  0
 13 16  1  0
 14 18  2  0
 15 17  2  0
 17 18  1  0
M  CHG  2   3  -1   7   1
M  END
>  <PUBCHEM_COMPOUND_CID>  (1) 
30451

>  <PUBCHEM_CONFORMER_RMSD>  (1) 
0.8

>  <PUBCHEM_CONFORMER_DIVERSEORDER>  (1) 
1
27
28
19
4
31
8
33
18
6
29
32
30
35
13
20
17
25
24
3
26
34
21
2
5
14
7
15
9
16
10
12
11
23
22

>  <PUBCHEM_MMFF94_PARTIAL_CHARGES>  (1) 
24
1 -0.18
10 -0.14
11 -0.14
12 0.42
13 0.27
14 -0.15
15 -0.15
16 0.28
17 0.13
18 -0.15
19 0.78
2 -0.43
26 0.15
27 0.15
3 -0.52
30 0.15
31 0.37
32 0.37
4 -0.52
5 -0.57
6 -0.64
7 0.91
8 -0.8
9 0.41

>  <PUBCHEM_EFFECTIVE_ROTOR_COUNT>  (1) 
5.8

>  <PUBCHEM_PHARMACOPHORE_FEATURES>  (1) 
7
1 3 acceptor
1 3 anion
1 4 acceptor
1 5 acceptor
1 8 donor
6 1 6 9 10 11 12 rings
6 10 11 14 15 17 18 rings

>  <PUBCHEM_HEAVY_ATOM_COUNT>  (1) 
19

>  <PUBCHEM_ATOM_DEF_STEREO_COUNT>  (1) 
0

>  <PUBCHEM_ATOM_UDEF_STEREO_COUNT>  (1) 
0

>  <PUBCHEM_BOND_DEF_STEREO_COUNT>  (1) 
0

>  <PUBCHEM_BOND_UDEF_STEREO_COUNT>  (1) 
0

>  <PUBCHEM_ISOTOPIC_ATOM_COUNT>  (1) 
0

>  <PUBCHEM_COMPONENT_COUNT>  (1) 
1

>  <PUBCHEM_CACTVS_TAUTO_COUNT>  (1) 
2

>  <PUBCHEM_CONFORMER_ID>  (1) 
000076F300000001

>  <PUBCHEM_MMFF94_ENERGY>  (1) 
43.2609

>  <PUBCHEM_FEATURE_SELFOVERLAP>  (1) 
35.626

>  <PUBCHEM_SHAPE_FINGERPRINT>  (1) 
106641 1 9943521947576947605
10968037 39 18334858333128906708
11315181 36 18413674620832404617
11524674 6 16343703248551131543
12236239 1 17821445747000736920
12516196 113 18202562882895007696
12670543 26 18261388923374765453
12715332 25 17846214500931545079
13288520 33 18412263943625162325
13533116 47 18059857281705671720
13862211 1 18408882953453335554
1420 363 18272090500197056686
14251718 22 18409729556596316872
14350574 20 18412262852450332944
15042514 8 18265616670576141051
15048467 5 7997974569788261263
15196674 1 18337671902196881138
17834072 8 18186238433445830132
17834076 25 10809342243501786188
19489759 90 18040998431704891456
200 152 17775003475281285960
20645477 70 18059580127656198958
21150785 3 17749395888467850292
21236236 1 18341614776669515329
21267235 1 18335423517473104971
2297311 6 18343025475752117596
23035841 295 18408041819053532923
23402539 116 18412259540956610573
23536379 177 18060139821274940080
23559900 14 18338510953690714704
3004659 81 18260551113554138196
335352 9 18409445895824306709
34797466 226 17774731952440580852
4214541 1 18410856534234398420
4463277 17 18410011039546017561
559249 180 18335416816606522946
59755656 215 18408602539402424151
59755656 520 16732979851486872355
6138700 20 18336266752169944042

>  <PUBCHEM_SHAPE_MULTIPOLES>  (1) 
346.72
15.04
1.61
0.65
16.59
0.05
0.02
-4.31
-1.98
-1.08
-0.03
0.1
-0.03
0.35

>  <PUBCHEM_SHAPE_SELFOVERLAP>  (1) 
727.023

>  <PUBCHEM_SHAPE_VOLUME>  (1) 
195.1

>  <PUBCHEM_COORDINATE_TYPE>  (1) 
2
5
10

$$$$
