30457
     RDKit          3D

 17 18  0  0  1  0  0  0  0  0999 V2000
   -6.0012   -1.1181   -0.2443 Cl  0  0  0  0  0  0  0  0  0  0  0  0
    0.2720   -0.6166    0.8172 O   0  0  0  0  0  0  0  0  0  0  0  0
    4.1667    0.4988    0.0992 O   0  0  0  0  0  0  0  0  0  0  0  0
    5.1859   -1.4353   -0.6225 O   0  0  0  0  0  0  0  0  0  0  0  0
    0.4949    0.4477   -0.1611 N   0  0  0  0  0  0  0  0  0  0  0  0
    6.4167    0.3381    0.1693 N   0  0  0  0  0  0  0  0  0  0  0  0
   -0.5528    1.4374    0.1306 C   0  0  0  0  0  0  0  0  0  0  0  0
   -1.9247    0.8107    0.0173 C   0  0  0  0  0  0  0  0  0  0  0  0
   -2.0539   -0.5857    0.1512 C   0  0  0  0  0  0  0  0  0  0  0  0
   -0.8138   -1.4227    0.3411 C   0  0  0  0  0  0  0  0  0  0  0  0
    1.8216    0.9668    0.1478 C   0  0  0  0  0  0  0  0  0  0  0  0
   -3.0650    1.5992   -0.1654 C   0  0  0  0  0  0  0  0  0  0  0  0
   -3.3164   -1.1790    0.0600 C   0  0  0  0  0  0  0  0  0  0  0  0
    2.8923   -0.0545   -0.2013 C   0  0  0  0  0  0  0  0  0  0  0  0
   -4.3221    0.9997   -0.2441 C   0  0  0  0  0  0  0  0  0  0  0  0
   -4.4471   -0.3855   -0.1352 C   0  0  0  0  0  0  0  0  0  0  0  0
    5.2470   -0.3011   -0.1597 C   0  0  0  0  0  0  0  0  0  0  0  0
  1 16  1  0
  2  5  1  0
  2 10  1  0
  3 14  1  0
  3 17  1  0
  4 17  2  0
  5  7  1  0
  5 11  1  0
  6 17  1  0
  7  8  1  0
  8  9  2  0
  8 12  1  0
  9 10  1  0
  9 13  1  0
 11 14  1  0
 12 15  2  0
 13 16  2  0
 15 16  1  0
M  END
>  <PUBCHEM_COMPOUND_CID>  (1) 
30457

>  <PUBCHEM_CONFORMER_RMSD>  (1) 
0.6

>  <PUBCHEM_CONFORMER_DIVERSEORDER>  (1) 
1
64
77
62
41
32
75
46
63
58
30
34
82
22
11
47
76
70
14
50
74
43
3
80
72
49
23
2
78
52
5
66
24
73
8
42
40
7
44
28
67
71
20
29
60
36
65
13
79
53
51
26
56
25
54
38
33
15
18
55
39
10
59
48
68
45
12
16
21
9
19
31
17
61
81
37
35
57
69
4
27
6

>  <PUBCHEM_MMFF94_PARTIAL_CHARGES>  (1) 
22
1 -0.18
10 0.42
11 0.27
12 -0.15
13 -0.15
14 0.28
15 -0.15
16 0.18
17 0.78
2 -0.18
24 0.15
25 0.15
28 0.15
29 0.37
3 -0.43
30 0.37
4 -0.57
5 -0.64
6 -0.8
7 0.41
8 -0.14
9 -0.14

>  <PUBCHEM_EFFECTIVE_ROTOR_COUNT>  (1) 
4.8

>  <PUBCHEM_PHARMACOPHORE_FEATURES>  (1) 
4
1 4 acceptor
1 6 donor
6 2 5 7 8 9 10 rings
6 8 9 12 13 15 16 rings

>  <PUBCHEM_HEAVY_ATOM_COUNT>  (1) 
17

>  <PUBCHEM_ATOM_DEF_STEREO_COUNT>  (1) 
0

>  <PUBCHEM_ATOM_UDEF_STEREO_COUNT>  (1) 
0

>  <PUBCHEM_BOND_DEF_STEREO_COUNT>  (1) 
0

>  <PUBCHEM_BOND_UDEF_STEREO_COUNT>  (1) 
0

>  <PUBCHEM_ISOTOPIC_ATOM_COUNT>  (1) 
0

>  <PUBCHEM_COMPONENT_COUNT>  (1) 
1

>  <PUBCHEM_CACTVS_TAUTO_COUNT>  (1) 
2

>  <PUBCHEM_CONFORMER_ID>  (1) 
000076F900000001

>  <PUBCHEM_MMFF94_ENERGY>  (1) 
31.9224

>  <PUBCHEM_FEATURE_SELFOVERLAP>  (1) 
20.322

>  <PUBCHEM_SHAPE_FINGERPRINT>  (1) 
10968037 39 18409168831108946364
11315181 36 18273218599385975224
12236239 1 17676203563627317664
12670543 26 18334287644166631775
12715332 25 17917428778462754191
13288520 33 18412544327922675517
13690532 89 18409168817970934188
13862211 1 18335135392937480322
14251718 22 18409729564996373384
14350574 20 18412544335979983465
15042514 8 18265054828898420411
15048467 5 11025789899575856055
15196674 1 18337671914786481338
17834072 33 18410576219178289852
17834072 8 18187079568051302807
17834076 25 11386363746904174031
19489759 90 18259703393339669672
200 152 17704071785107525344
20645477 70 18059298656858437054
21150785 3 17168148974437922886
21267235 1 18335707178382323995
21637258 2 16558739162102311375
2297311 6 18342463633594277613
23402539 116 18341890783973276373
23557571 272 18272375256360151861
23559900 14 18340480157747018312
26918003 58 15195286456120885215
3004659 81 18260832549945052626
335352 9 18409728483218490133
34797466 226 17845947328966394684
4214541 1 18410575063309984004
42788 4 18410011039962566996
542803 24 14273738438879261868
559249 180 18335134246138981658
59755656 215 18335136484207722831

>  <PUBCHEM_SHAPE_MULTIPOLES>  (1) 
324.15
13.78
1.53
0.67
14.62
0.07
0.01
-3.18
-1.71
-0.98
-0.03
-0.01
-0.05
0.31

>  <PUBCHEM_SHAPE_SELFOVERLAP>  (1) 
666.591

>  <PUBCHEM_SHAPE_VOLUME>  (1) 
187.5

>  <PUBCHEM_COORDINATE_TYPE>  (1) 
2
5
10

$$$$
