30456
     RDKit          3D

 14 15  0  0  0  0  0  0  0  0999 V2000
    4.7190   -0.6339    0.4634 Cl  0  0  0  0  0  0  0  0  0  0  0  0
   -1.5099   -1.1425   -0.8191 O   0  0  0  0  0  0  0  0  0  0  0  0
   -3.6860    1.2584    0.6035 O   0  0  0  0  0  0  0  0  0  0  0  0
   -1.8978    0.0741   -0.2228 N   0  0  0  0  0  0  0  0  0  0  0  0
   -3.8360   -1.0131    0.4368 N   0  0  0  0  0  0  0  0  0  0  0  0
    0.4654    0.7169   -0.2373 C   0  0  0  0  0  0  0  0  0  0  0  0
   -0.9526    1.1539   -0.4817 C   0  0  0  0  0  0  0  0  0  0  0  0
    0.7521   -0.6509   -0.0804 C   0  0  0  0  0  0  0  0  0  0  0  0
   -0.3759   -1.6491   -0.1038 C   0  0  0  0  0  0  0  0  0  0  0  0
    1.5046    1.6526   -0.2005 C   0  0  0  0  0  0  0  0  0  0  0  0
    2.0693   -1.0625    0.1478 C   0  0  0  0  0  0  0  0  0  0  0  0
    2.8172    1.2324    0.0147 C   0  0  0  0  0  0  0  0  0  0  0  0
    3.0985   -0.1219    0.1914 C   0  0  0  0  0  0  0  0  0  0  0  0
   -3.1679    0.1855    0.2879 C   0  0  0  0  0  0  0  0  0  0  0  0
  1 13  1  0
  2  4  1  0
  2  9  1  0
  3 14  2  0
  4  7  1  0
  4 14  1  0
  5 14  1  0
  6  7  1  0
  6  8  2  0
  6 10  1  0
  8  9  1  0
  8 11  1  0
 10 12  2  0
 11 13  2  0
 12 13  1  0
M  END
>  <PUBCHEM_COMPOUND_CID>  (1) 
30456

>  <PUBCHEM_CONFORMER_RMSD>  (1) 
0.6

>  <PUBCHEM_CONFORMER_DIVERSEORDER>  (1) 
2
1
3
4

>  <PUBCHEM_MMFF94_PARTIAL_CHARGES>  (1) 
19
1 -0.18
10 -0.15
11 -0.15
12 -0.15
13 0.18
14 0.69
19 0.15
2 -0.32
20 0.15
21 0.15
22 0.37
23 0.37
3 -0.57
4 -0.32
5 -0.8
6 -0.14
7 0.44
8 -0.14
9 0.42

>  <PUBCHEM_EFFECTIVE_ROTOR_COUNT>  (1) 
1.8

>  <PUBCHEM_PHARMACOPHORE_FEATURES>  (1) 
4
1 3 acceptor
1 5 donor
6 2 4 6 7 8 9 rings
6 6 8 10 11 12 13 rings

>  <PUBCHEM_HEAVY_ATOM_COUNT>  (1) 
14

>  <PUBCHEM_ATOM_DEF_STEREO_COUNT>  (1) 
0

>  <PUBCHEM_ATOM_UDEF_STEREO_COUNT>  (1) 
0

>  <PUBCHEM_BOND_DEF_STEREO_COUNT>  (1) 
0

>  <PUBCHEM_BOND_UDEF_STEREO_COUNT>  (1) 
0

>  <PUBCHEM_ISOTOPIC_ATOM_COUNT>  (1) 
0

>  <PUBCHEM_COMPONENT_COUNT>  (1) 
1

>  <PUBCHEM_CACTVS_TAUTO_COUNT>  (1) 
2

>  <PUBCHEM_CONFORMER_ID>  (1) 
000076F800000002

>  <PUBCHEM_MMFF94_ENERGY>  (1) 
33.5163

>  <PUBCHEM_FEATURE_SELFOVERLAP>  (1) 
20.322

>  <PUBCHEM_SHAPE_FINGERPRINT>  (1) 
10130415 120 18408317796424541008
10219947 1 18333452049183020301
10465860 228 17986687969236367369
11132069 177 18342450439702339290
11471102 20 18408598175778519748
12032990 46 18336265648447472174
12251169 10 18412262847949494415
12932764 1 17240748610554764246
13221675 6 18408319978020130798
13380535 76 18341895203246905407
13675066 3 18202843253627019962
13922767 16 18342173341018020825
14144814 61 18411699898054134385
14325111 11 18411139160124967005
14943859 89 16343980303979788430
15196674 1 18409730681292348376
15309172 13 18412263926102479695
15375462 189 18114172004797539122
15442244 35 18411135870216733650
15536298 74 18342455989074541704
15775835 57 18340773727198328628
16945 1 18336532872522091878
17804303 29 18411983559512018628
17844478 74 17748824107339163757
18511873 20 18342738524633744504
19422 9 18261397783771042477
200 152 18272076232827448127
20671657 1 18190750923587542460
20871998 22 18268151955400240350
21267235 1 18410301327748309154
21501502 16 18267581501932971262
23402539 116 17703781505384723341
23463225 33 18407760347912886076
23559900 14 8430306953784694006
2748010 2 17978500936973400486
5104073 3 18410012160595734248
53655031 270 18411981321739105520
8809292 202 18113621217896302290

>  <PUBCHEM_SHAPE_MULTIPOLES>  (1) 
268.28
7.09
1.65
0.72
0.03
0.11
-0.01
-0.57
1.81
0.02
-0.07
-0.1
-0.01
-0.27

>  <PUBCHEM_SHAPE_SELFOVERLAP>  (1) 
562.305

>  <PUBCHEM_SHAPE_VOLUME>  (1) 
152.5

>  <PUBCHEM_COORDINATE_TYPE>  (1) 
2
5
10

$$$$
