3047
     RDKit          3D

 28 29  0  0  0  0  0  0  0  0999 V2000
    2.0688    2.6414    0.1741 S   0  0  0  0  0  0  0  0  0  0  0  0
   -2.0529   -2.6082    0.0011 S   0  0  0  0  0  0  0  0  0  0  0  0
    6.3499   -0.6793    0.7683 S   0  0  0  0  0  0  0  0  0  0  0  0
   -7.1357    1.2588    1.6944 S   0  0  0  0  0  0  0  0  0  0  0  0
    1.4369    2.6109   -1.3315 O   0  0  0  0  0  0  0  0  0  0  0  0
   -1.4117   -2.4835    1.4981 O   0  0  0  0  0  0  0  0  0  0  0  0
    0.9670    2.8592    1.0969 O   0  0  0  0  0  0  0  0  0  0  0  0
    3.2220    3.5249    0.1663 O   0  0  0  0  0  0  0  0  0  0  0  0
   -3.1817   -3.5194    0.0931 O   0  0  0  0  0  0  0  0  0  0  0  0
   -0.9720   -2.8508   -0.9386 O   0  0  0  0  0  0  0  0  0  0  0  0
   -5.9953    0.5767   -0.7411 N   0  0  0  0  0  0  0  0  0  0  0  0
    6.7271   -1.1748   -2.0160 N   0  0  0  0  0  0  0  0  0  0  0  0
    1.8377   -0.0702    0.6070 C   0  0  0  0  0  0  0  0  0  0  0  0
   -1.8402    0.0753   -0.5888 C   0  0  0  0  0  0  0  0  0  0  0  0
    2.6783    1.0202    0.4432 C   0  0  0  0  0  0  0  0  0  0  0  0
   -2.6826   -1.0121   -0.3569 C   0  0  0  0  0  0  0  0  0  0  0  0
    0.3724    0.0795    0.5623 C   0  0  0  0  0  0  0  0  0  0  0  0
   -0.3891   -0.0538   -0.5474 C   0  0  0  0  0  0  0  0  0  0  0  0
    2.3467   -1.3433    0.8197 C   0  0  0  0  0  0  0  0  0  0  0  0
   -2.3815    1.3295   -0.8706 C   0  0  0  0  0  0  0  0  0  0  0  0
    4.0598    0.8343    0.4928 C   0  0  0  0  0  0  0  0  0  0  0  0
   -4.0667   -0.8451   -0.4072 C   0  0  0  0  0  0  0  0  0  0  0  0
    4.5848   -0.4404    0.7058 C   0  0  0  0  0  0  0  0  0  0  0  0
   -4.6079    0.4092   -0.6893 C   0  0  0  0  0  0  0  0  0  0  0  0
    3.7281   -1.5291    0.8693 C   0  0  0  0  0  0  0  0  0  0  0  0
   -3.7652    1.4965   -0.9210 C   0  0  0  0  0  0  0  0  0  0  0  0
    6.5725   -0.9733   -0.8840 C   0  0  0  0  0  0  0  0  0  0  0  0
   -6.4694    0.8669    0.3002 C   0  0  0  0  0  0  0  0  0  0  0  0
  1  5  1  0
  1  7  2  0
  1  8  2  0
  1 15  1  0
  2  6  1  0
  2  9  2  0
  2 10  2  0
  2 16  1  0
  3 23  1  0
  3 27  1  0
  4 28  2  0
 11 24  1  0
 11 28  2  0
 12 27  3  0
 13 15  2  0
 13 17  1  0
 13 19  1  0
 14 16  2  0
 14 18  1  0
 14 20  1  0
 15 21  1  0
 16 22  1  0
 17 18  2  0
 19 25  2  0
 20 26  2  0
 21 23  2  0
 22 24  2  0
 23 25  1  0
 24 26  1  0
M  END
>  <PUBCHEM_COMPOUND_CID>  (1) 
3047

>  <PUBCHEM_CONFORMER_RMSD>  (1) 
0.8

>  <PUBCHEM_CONFORMER_DIVERSEORDER>  (1) 
2
65
30
54
64
66
3
33
32
60
6
35
9
61
71
68
27
21
22
62
36
69
47
20
29
41
24
59
44
49
15
46
58
18
55
56
48
63
39
10
17
8
25
70
45
52
7
1
26
43
57
31
37
67
4
51
13
11
23
19
34
42
38
14
12
28
53
50
40
5
16

>  <PUBCHEM_MMFF94_PARTIAL_CHARGES>  (1) 
38
1 1.49
10 -0.65
11 -0.48
12 -0.56
13 0.03
14 0.03
15 -0.01
16 -0.01
17 -0.18
18 -0.18
19 -0.15
2 1.49
20 -0.15
21 -0.15
22 -0.15
23 0.1
24 0.18
25 -0.15
26 -0.15
27 0.59
28 0.57
29 0.15
3 -0.14
30 0.15
31 0.15
32 0.15
33 0.15
34 0.15
35 0.15
36 0.15
37 0.5
38 0.5
4 -0.27
5 -0.68
6 -0.68
7 -0.65
8 -0.65
9 -0.65

>  <PUBCHEM_EFFECTIVE_ROTOR_COUNT>  (1) 
6

>  <PUBCHEM_PHARMACOPHORE_FEATURES>  (1) 
13
1 10 acceptor
1 11 acceptor
1 12 acceptor
1 4 acceptor
1 5 acceptor
1 6 acceptor
1 7 acceptor
1 8 acceptor
1 9 acceptor
4 1 5 7 8 anion
4 2 6 9 10 anion
6 13 15 19 21 23 25 rings
6 14 16 20 22 24 26 rings

>  <PUBCHEM_HEAVY_ATOM_COUNT>  (1) 
28

>  <PUBCHEM_ATOM_DEF_STEREO_COUNT>  (1) 
0

>  <PUBCHEM_ATOM_UDEF_STEREO_COUNT>  (1) 
0

>  <PUBCHEM_BOND_DEF_STEREO_COUNT>  (1) 
0

>  <PUBCHEM_BOND_UDEF_STEREO_COUNT>  (1) 
1

>  <PUBCHEM_ISOTOPIC_ATOM_COUNT>  (1) 
0

>  <PUBCHEM_COMPONENT_COUNT>  (1) 
1

>  <PUBCHEM_CACTVS_TAUTO_COUNT>  (1) 
1

>  <PUBCHEM_CONFORMER_ID>  (1) 
00000BE700000002

>  <PUBCHEM_MMFF94_ENERGY>  (1) 
64.9691

>  <PUBCHEM_FEATURE_SELFOVERLAP>  (1) 
66.099

>  <PUBCHEM_SHAPE_FINGERPRINT>  (1) 
11405975 8 18337664325605448521
11578080 2 17557687342492084169
12633257 1 18411976971053253049
12788726 201 18057315102904746184
13140716 1 18336262440244097579
13914758 101 15626227870811499475
14341114 176 18408881853963014529
14617045 38 18334575711707599578
15183329 4 18410849936800251634
15238133 3 17561084705053304353
15475509 8 18200884967736304908
15537594 2 17894904118589013074
17492 89 18118959441322825122
18608769 82 17676214584619128715
19319366 153 17531522084335719594
20286276 3 18120936367376522234
21033648 144 18265032795267546221
21033648 29 17631429290029327154
21133410 127 17533481585771525061
21133410 171 16968514058694143274
21267235 1 18409728422545797608
21781055 127 17916047697384979789
21792961 116 17968104054354265074
221490 88 18191301774902563794
23559900 14 18340756139475855544
23622692 88 18408601452896485061
249057 3 18410571794723437573
3178227 256 18260834752740724865
335352 9 18410567392387240663
350125 39 18334851680752664213
3633792 109 14476689546487702831
4073 2 18114739460393141738
44062 13 18339920514971233830
5104073 3 18263351658967748233
5265222 85 18335146440158063110
59755656 215 18341894048364861606
59755656 520 18341609300881482047
9709674 26 18045212988718472370

>  <PUBCHEM_SHAPE_MULTIPOLES>  (1) 
546.45
16.42
3.33
1.32
1.3
0.07
0.03
0.36
-0.49
-0.02
-0.13
-0.1
0.01
0.04

>  <PUBCHEM_SHAPE_SELFOVERLAP>  (1) 
1125.362

>  <PUBCHEM_SHAPE_VOLUME>  (1) 
312.6

>  <PUBCHEM_COORDINATE_TYPE>  (1) 
2
5
10

$$$$
