30483
     RDKit          3D

 19 20  0  0  0  0  0  0  0  0999 V2000
   -0.2456    0.9338   -0.8843 O   0  0  0  0  0  0  0  0  0  0  0  0
    4.3030    1.9679    0.0854 O   0  0  0  0  0  0  0  0  0  0  0  0
    5.7038   -0.0818    1.1085 O   0  0  0  0  0  0  0  0  0  0  0  0
   -3.6654    0.2348    0.3004 N   0  0  0  0  0  0  0  0  0  0  0  0
   -4.0125   -0.7986   -0.6853 C   0  0  0  0  0  0  0  0  0  0  0  0
   -4.8137    1.1077    0.5817 C   0  0  0  0  0  0  0  0  0  0  0  0
   -5.1723   -1.6650   -0.1915 C   0  0  0  0  0  0  0  0  0  0  0  0
   -5.9997    0.3038    1.1167 C   0  0  0  0  0  0  0  0  0  0  0  0
   -6.3890   -0.8156    0.1578 C   0  0  0  0  0  0  0  0  0  0  0  0
   -2.5251    1.0237   -0.1654 C   0  0  0  0  0  0  0  0  0  0  0  0
   -1.3216    0.1299   -0.4183 C   0  0  0  0  0  0  0  0  0  0  0  0
    1.0201    0.5190   -0.5622 C   0  0  0  0  0  0  0  0  0  0  0  0
    2.0313    1.4590   -0.3987 C   0  0  0  0  0  0  0  0  0  0  0  0
    1.2797   -0.8372   -0.4004 C   0  0  0  0  0  0  0  0  0  0  0  0
    3.5875   -0.3220    0.0949 C   0  0  0  0  0  0  0  0  0  0  0  0
    3.3195    1.0371   -0.0692 C   0  0  0  0  0  0  0  0  0  0  0  0
    2.5676   -1.2591   -0.0708 C   0  0  0  0  0  0  0  0  0  0  0  0
    4.9260   -0.7846    0.4346 C   0  0  0  0  0  0  0  0  0  0  0  0
    5.4063   -2.1527   -0.0339 C   0  0  0  0  0  0  0  0  0  0  0  0
  1 11  1  0
  1 12  1  0
  2 16  1  0
  3 18  2  0
  4  5  1  0
  4  6  1  0
  4 10  1  0
  5  7  1  0
  6  8  1  0
  7  9  1  0
  8  9  1  0
 10 11  1  0
 12 13  2  0
 12 14  1  0
 13 16  1  0
 14 17  2  0
 15 16  2  0
 15 17  1  0
 15 18  1  0
 18 19  1  0
M  END
>  <PUBCHEM_COMPOUND_CID>  (1) 
30483

>  <PUBCHEM_CONFORMER_RMSD>  (1) 
0.8

>  <PUBCHEM_CONFORMER_DIVERSEORDER>  (1) 
4
81
114
73
24
36
6
61
14
30
42
1
71
100
101
21
115
70
26
16
76
34
65
82
47
33
91
59
38
58
113
10
74
8
44
40
110
85
11
9
62
19
46
78
7
95
105
45
53
69
112
35
80
117
108
79
98
12
54
43
103
55
106
86
66
3
50
96
56
23
13
25
72
99
68
49
32
75
107
57
94
37
87
104
22
64
116
20
63
31
89
92
67
83
77
111
2
97
102
15
88
39
18
90
93
5
17
27
48
41
29
109
84
52
60
28
51

>  <PUBCHEM_MMFF94_PARTIAL_CHARGES>  (1) 
20
1 -0.36
10 0.27
11 0.28
12 0.08
13 -0.15
14 -0.15
15 0.09
16 0.08
17 -0.15
18 0.42
19 0.06
2 -0.53
3 -0.57
34 0.15
35 0.15
36 0.15
4 -0.81
40 0.45
5 0.27
6 0.27

>  <PUBCHEM_EFFECTIVE_ROTOR_COUNT>  (1) 
6.2

>  <PUBCHEM_PHARMACOPHORE_FEATURES>  (1) 
6
1 1 acceptor
1 2 donor
1 3 acceptor
1 4 cation
6 12 13 14 15 16 17 rings
6 4 5 6 7 8 9 rings

>  <PUBCHEM_HEAVY_ATOM_COUNT>  (1) 
19

>  <PUBCHEM_ATOM_DEF_STEREO_COUNT>  (1) 
0

>  <PUBCHEM_ATOM_UDEF_STEREO_COUNT>  (1) 
0

>  <PUBCHEM_BOND_DEF_STEREO_COUNT>  (1) 
0

>  <PUBCHEM_BOND_UDEF_STEREO_COUNT>  (1) 
0

>  <PUBCHEM_ISOTOPIC_ATOM_COUNT>  (1) 
0

>  <PUBCHEM_COMPONENT_COUNT>  (1) 
1

>  <PUBCHEM_CACTVS_TAUTO_COUNT>  (1) 
9

>  <PUBCHEM_CONFORMER_ID>  (1) 
0000771300000004

>  <PUBCHEM_MMFF94_ENERGY>  (1) 
45.304

>  <PUBCHEM_FEATURE_SELFOVERLAP>  (1) 
30.446

>  <PUBCHEM_SHAPE_FINGERPRINT>  (1) 
10354089 29 18131633383222957728
106641 1 18336818771995690840
10693767 8 11458966660767814104
12107183 9 17765441937587956809
12236239 1 18341896303359361045
12596602 18 17917710197140673154
12616971 3 18131345323697385917
12670543 26 8142088684396502208
12916748 109 14908187447021120378
13167823 11 18411699898428648311
13533116 47 18410857663900098080
13668630 136 14996288002646262819
13862211 1 17895188875142238330
1420 363 17603588525773472939
14211702 104 18261965162416800523
14251718 22 10953464033322125787
14251764 18 18408039633036453032
14341114 176 18271527511625839938
14341114 328 18060426832607127865
14848160 23 17603301574887422673
14849402 71 18200589336849002984
15196674 1 18410856577120332759
15348495 7 17560794472305733715
15475509 35 17023446574887568720
15788980 27 17894349977966729141
15880784 105 18411422825756363259
17834072 33 18412265055763131685
17844677 252 18333454227138069805
17857418 61 18409164420393928023
18222031 100 16660362588749809996
19050596 39 18343585148729667397
20028762 73 18412259540946924870
20281389 69 12319739146243466579
20645477 70 18260546723633422430
21065198 48 18342462543089270273
21150785 3 14201407087868392334
21267235 1 18410296878837144582
21637258 2 16081637886913856978
220451 1 18410582811578354469
23402539 116 18333729109513651445
23522609 53 17972631855558547860
23559900 14 11603117105728386439
26918003 58 18411138035233737249
2767999 5 12391507568459415411
2916195 48 12031779267021111831
29717793 49 12468632807827305416
314173 85 16877660171559748933
351380 3 18040997328167510315
3663271 9 18202003248186567971
4073 2 18114467875935037275
42 15 18409451379864482293
4214541 1 18410857634141580709
465052 167 18410013200600493286
49783359 22 18410573989974056111
5104073 3 18343023319725644689
542803 24 17703794730095319317
559249 180 18335700521415065255
67856867 119 18340487893273313949
7495541 125 17846495976082192697
9971528 1 17967253121657305061

>  <PUBCHEM_SHAPE_MULTIPOLES>  (1) 
368.42
16.7
1.77
0.86
9.96
0.18
0.07
4.81
4.52
-1.28
-0.09
0.23
-0.04
-0.57

>  <PUBCHEM_SHAPE_SELFOVERLAP>  (1) 
761.609

>  <PUBCHEM_SHAPE_VOLUME>  (1) 
212.4

>  <PUBCHEM_COORDINATE_TYPE>  (1) 
2
5
10

$$$$
