30485
     RDKit          3D

 18 17  0  0  0  0  0  0  0  0999 V2000
   -4.2927    0.7926    0.2240 N   0  0  0  0  0  0  0  0  0  0  0  0
    4.2912   -0.7913    0.2258 N   0  0  0  0  0  0  0  0  0  0  0  0
   -3.1720   -0.1775    0.2600 C   0  0  0  0  0  0  0  0  0  0  0  0
    3.1699    0.1786    0.2480 C   0  0  0  0  0  0  0  0  0  0  0  0
   -1.8544    0.5832    0.2632 C   0  0  0  0  0  0  0  0  0  0  0  0
    1.8526   -0.5825    0.2448 C   0  0  0  0  0  0  0  0  0  0  0  0
   -0.6653   -0.3786    0.2535 C   0  0  0  0  0  0  0  0  0  0  0  0
    0.6632    0.3787    0.2207 C   0  0  0  0  0  0  0  0  0  0  0  0
   -5.6453    0.0666    0.2526 C   0  0  0  0  0  0  0  0  0  0  0  0
    5.6433   -0.0647    0.2610 C   0  0  0  0  0  0  0  0  0  0  0  0
   -4.2368    1.6447   -1.0521 C   0  0  0  0  0  0  0  0  0  0  0  0
   -4.2352    1.7393    1.4315 C   0  0  0  0  0  0  0  0  0  0  0  0
    4.2454   -1.6502   -1.0461 C   0  0  0  0  0  0  0  0  0  0  0  0
    4.2245   -1.7317    1.4377 C   0  0  0  0  0  0  0  0  0  0  0  0
   -5.8153   -0.8878   -0.8831 C   0  0  0  0  0  0  0  0  0  0  0  0
    5.8219    0.8838   -0.8783 C   0  0  0  0  0  0  0  0  0  0  0  0
   -5.9919   -2.2049   -0.7311 C   0  0  0  0  0  0  0  0  0  0  0  0
    5.9968    2.2017   -0.7319 C   0  0  0  0  0  0  0  0  0  0  0  0
  1  3  1  0
  1  9  1  0
  1 11  1  0
  1 12  1  0
  2  4  1  0
  2 10  1  0
  2 13  1  0
  2 14  1  0
  3  5  1  0
  4  6  1  0
  5  7  1  0
  6  8  1  0
  7  8  1  0
  9 15  1  0
 10 16  1  0
 15 17  2  0
 16 18  2  0
M  CHG  2   1   1   2   1
M  END
>  <PUBCHEM_COMPOUND_CID>  (1) 
30485

>  <PUBCHEM_CONFORMER_RMSD>  (1) 
1

>  <PUBCHEM_CONFORMER_DIVERSEORDER>  (1) 
1
75
52
17
10
77
67
2
12
66
79
48
50
5
73
35
82
32
90
89
14
3
81
11
6
69
87
37
78
70
60
85
86
74
88
59
8
44
9
64
55
31
4
29
72
65
24
28
19
7
25
13
83
41
54
46
57
49
84
36
76
27
23
58
21
16
40
43
53
15
63
34
18
47
61
71
33
80
51
22
26
56
39
20
62
38
45
42
68
30

>  <PUBCHEM_MMFF94_PARTIAL_CHARGES>  (1) 
20
1 -1.01
10 0.64
11 0.5
12 0.5
13 0.5
14 0.5
15 -0.29
16 -0.29
17 -0.3
18 -0.3
2 -1.01
3 0.5
4 0.5
47 0.15
48 0.15
49 0.15
50 0.15
51 0.15
52 0.15
9 0.64

>  <PUBCHEM_EFFECTIVE_ROTOR_COUNT>  (1) 
11

>  <PUBCHEM_PHARMACOPHORE_FEATURES>  (1) 
5
1 1 cation
1 17 hydrophobe
1 18 hydrophobe
1 2 cation
4 5 6 7 8 hydrophobe

>  <PUBCHEM_HEAVY_ATOM_COUNT>  (1) 
18

>  <PUBCHEM_ATOM_DEF_STEREO_COUNT>  (1) 
0

>  <PUBCHEM_ATOM_UDEF_STEREO_COUNT>  (1) 
0

>  <PUBCHEM_BOND_DEF_STEREO_COUNT>  (1) 
0

>  <PUBCHEM_BOND_UDEF_STEREO_COUNT>  (1) 
0

>  <PUBCHEM_ISOTOPIC_ATOM_COUNT>  (1) 
0

>  <PUBCHEM_COMPONENT_COUNT>  (1) 
1

>  <PUBCHEM_CACTVS_TAUTO_COUNT>  (1) 
1

>  <PUBCHEM_CONFORMER_ID>  (1) 
0000771500000001

>  <PUBCHEM_MMFF94_ENERGY>  (1) 
51.8476

>  <PUBCHEM_FEATURE_SELFOVERLAP>  (1) 
25.373

>  <PUBCHEM_SHAPE_FINGERPRINT>  (1) 
10595046 47 18410011035229743392
10912923 1 18410573950791713323
11101153 10 18186804720726881013
12091667 2 17822013077741698457
12236239 1 18410856551049854982
12596602 18 18411419501008551065
13288520 33 18202560705789466231
13533116 47 17168419360415704770
1420 363 15841554084695408311
14251718 22 18411981373041316623
14251732 16 18410856611179397183
14461889 52 18337386162549904306
14528608 73 18408325484368501924
15348495 7 9294992570736258582
15537594 2 16272205279966388423
15716309 27 18410013226211788123
16079462 125 15719387356249201196
17834072 33 18411417319165171176
17844677 252 18041845004366961812
18927931 339 17203606004642456181
20645477 70 18271529680980548110
21150785 3 18410574028101124246
220451 1 18131636673020369419
22896161 15 18339642342829148175
2297311 6 17060625507828444657
2303208 19 15698000738413285247
23035841 295 13039189203795286053
23081809 10 18410573963708269976
23402539 116 18040431058599780685
23559900 14 18261670497616038209
2916195 48 17676206875005210064
300161 21 16805320015622796826
34797466 226 18412554210262602732
4325135 7 18410855485897966054
542803 24 18342460318079803400
7062679 117 18413107290687444415
90127 26 17895202038984846432

>  <PUBCHEM_SHAPE_MULTIPOLES>  (1) 
360.47
19.5
2.02
1.15
0.04
0
-0.09
-0.01
3.84
-0.01
0.26
0
0
-2.05

>  <PUBCHEM_SHAPE_SELFOVERLAP>  (1) 
664.361

>  <PUBCHEM_SHAPE_VOLUME>  (1) 
229.9

>  <PUBCHEM_COORDINATE_TYPE>  (1) 
2
5
10

$$$$
