30481
     RDKit          3D

 22 23  0  0  0  0  0  0  0  0999 V2000
    5.0721    0.1769   -0.3225 O   0  0  0  0  0  0  0  0  0  0  0  0
   -0.1762    1.2613    0.4530 O   0  0  0  0  0  0  0  0  0  0  0  0
   -4.8600    1.6526   -0.3278 O   0  0  0  0  0  0  0  0  0  0  0  0
    0.5900   -1.1427    1.3239 O   0  0  0  0  0  0  0  0  0  0  0  0
    2.6096    1.5568    0.0435 N   0  0  0  0  0  0  0  0  0  0  0  0
    2.8321    0.6743   -1.1102 C   0  0  0  0  0  0  0  0  0  0  0  0
    3.8861    2.1306    0.4920 C   0  0  0  0  0  0  0  0  0  0  0  0
    1.6540    2.6119   -0.2868 C   0  0  0  0  0  0  0  0  0  0  0  0
    3.8410   -0.4107   -0.7449 C   0  0  0  0  0  0  0  0  0  0  0  0
    4.8708    1.0115    0.8187 C   0  0  0  0  0  0  0  0  0  0  0  0
    0.3028    2.0176   -0.6512 C   0  0  0  0  0  0  0  0  0  0  0  0
   -1.4013    0.6644    0.3081 C   0  0  0  0  0  0  0  0  0  0  0  0
   -1.5317   -0.7170    0.4036 C   0  0  0  0  0  0  0  0  0  0  0  0
   -0.3439   -3.0030    0.1087 C   0  0  0  0  0  0  0  0  0  0  0  0
   -0.3767   -1.5665    0.6600 C   0  0  0  0  0  0  0  0  0  0  0  0
   -2.5130    1.4641    0.0632 C   0  0  0  0  0  0  0  0  0  0  0  0
    1.0691   -3.5102   -0.1798 C   0  0  0  0  0  0  0  0  0  0  0  0
   -2.7873   -1.3055    0.2528 C   0  0  0  0  0  0  0  0  0  0  0  0
   -3.7686    0.8756   -0.0876 C   0  0  0  0  0  0  0  0  0  0  0  0
   -3.9059   -0.5092    0.0072 C   0  0  0  0  0  0  0  0  0  0  0  0
    1.0500   -4.9182   -0.7520 C   0  0  0  0  0  0  0  0  0  0  0  0
   -6.1130    0.9854   -0.4720 C   0  0  0  0  0  0  0  0  0  0  0  0
  1  9  1  0
  1 10  1  0
  2 11  1  0
  2 12  1  0
  3 19  1  0
  3 22  1  0
  4 15  2  0
  5  6  1  0
  5  7  1  0
  5  8  1  0
  6  9  1  0
  7 10  1  0
  8 11  1  0
 12 13  2  0
 12 16  1  0
 13 15  1  0
 13 18  1  0
 14 15  1  0
 14 17  1  0
 16 19  2  0
 17 21  1  0
 18 20  2  0
 19 20  1  0
M  END
>  <PUBCHEM_COMPOUND_CID>  (1) 
30481

>  <PUBCHEM_CONFORMER_RMSD>  (1) 
1

>  <PUBCHEM_CONFORMER_DIVERSEORDER>  (1) 
2
23
5
50
39
60
26
42
11
13
57
65
43
52
3
24
46
85
81
59
35
34
17
14
55
89
29
83
53
51
47
30
18
88
86
6
91
9
25
80
20
16
72
84
33
38
7
28
61
66
87
40
76
41
45
4
94
78
82
19
21
10
63
56
12
77
64
31
75
1
49
37
36
62
73
68
93
22
90
69
8
27
79
32
44
58
92
70
74
67
15
71
48
54

>  <PUBCHEM_MMFF94_PARTIAL_CHARGES>  (1) 
23
1 -0.56
10 0.28
11 0.28
12 0.08
13 0.09
14 0.06
15 0.42
16 -0.15
18 -0.15
19 0.08
2 -0.36
20 -0.15
22 0.28
3 -0.36
37 0.15
4 -0.57
40 0.15
41 0.15
5 -0.81
6 0.27
7 0.27
8 0.27
9 0.28

>  <PUBCHEM_EFFECTIVE_ROTOR_COUNT>  (1) 
9.2

>  <PUBCHEM_PHARMACOPHORE_FEATURES>  (1) 
8
1 1 acceptor
1 2 acceptor
1 21 hydrophobe
1 3 acceptor
1 4 acceptor
1 5 cation
6 1 5 6 7 9 10 rings
6 12 13 16 18 19 20 rings

>  <PUBCHEM_HEAVY_ATOM_COUNT>  (1) 
22

>  <PUBCHEM_ATOM_DEF_STEREO_COUNT>  (1) 
0

>  <PUBCHEM_ATOM_UDEF_STEREO_COUNT>  (1) 
0

>  <PUBCHEM_BOND_DEF_STEREO_COUNT>  (1) 
0

>  <PUBCHEM_BOND_UDEF_STEREO_COUNT>  (1) 
0

>  <PUBCHEM_ISOTOPIC_ATOM_COUNT>  (1) 
0

>  <PUBCHEM_COMPONENT_COUNT>  (1) 
1

>  <PUBCHEM_CACTVS_TAUTO_COUNT>  (1) 
2

>  <PUBCHEM_CONFORMER_ID>  (1) 
0000771100000002

>  <PUBCHEM_MMFF94_ENERGY>  (1) 
63.2451

>  <PUBCHEM_FEATURE_SELFOVERLAP>  (1) 
40.605

>  <PUBCHEM_SHAPE_FINGERPRINT>  (1) 
10366900 7 17417542414244042728
107951 10 17676492777876899898
11370993 70 18341331179967949582
12011746 2 18341623607496504324
12592029 89 18335145288916410633
12788726 201 17613721843962947738
13402501 40 18340212899787017942
138480 1 17907018378832438606
14251751 93 18338794641097614271
15006816 218 18410862023060015606
15099037 51 18333731338153622869
15196674 1 18335703900657866200
15403338 16 17024572405505592578
15664445 248 17624706652646466263
16728300 4 17391043986667770090
17093844 170 18411139126218857324
19591789 44 18194688300686251075
19930381 70 18339083662184385238
20197701 30 18411695521587948311
20905425 154 17977953388814933166
21285901 2 17750235811650154093
21344244 246 18339635660161210159
21478907 32 17546163468675607995
21521239 73 18201145625280786981
22182313 1 18042710350594346323
23402539 116 18341324586840092804
23559900 14 18270400615551290344
23566358 2 18046059363906576917
23728640 28 18194400224059781594
3004659 81 18186523215885618588
3298306 158 18409451371068910447
38695281 34 18413670214734087519
532947 4 18339929207858252007
5385378 56 18339368453165687209
59755656 215 18336546019607395941
6138700 20 18336830784539435566
6700243 42 16333868924410949630
7364860 26 18266178336027982895
9709674 26 18123756614939137964

>  <PUBCHEM_SHAPE_MULTIPOLES>  (1) 
424.29
9.95
4.36
0.9
3.56
6.77
0.01
-6.9
-0.88
-2.16
-0.81
-0.44
0.08
0.76

>  <PUBCHEM_SHAPE_SELFOVERLAP>  (1) 
867.721

>  <PUBCHEM_SHAPE_VOLUME>  (1) 
246

>  <PUBCHEM_COORDINATE_TYPE>  (1) 
2
5
10

$$$$
