30499
     RDKit          3D

 17 18  0  0  0  0  0  0  0  0999 V2000
    3.1935    2.1032   -0.1286 O   0  0  0  0  0  0  0  0  0  0  0  0
    3.3775   -1.3543   -0.1851 N   0  0  0  0  0  0  0  0  0  0  0  0
    1.6748    0.3233    0.3920 C   0  0  0  0  0  0  0  0  0  0  0  0
    2.8060   -0.5389    0.8860 C   0  0  0  0  0  0  0  0  0  0  0  0
   -0.6772    0.6035   -0.0265 C   0  0  0  0  0  0  0  0  0  0  0  0
    0.3818   -0.1824    0.4279 C   0  0  0  0  0  0  0  0  0  0  0  0
    1.9276    1.6007   -0.0903 C   0  0  0  0  0  0  0  0  0  0  0  0
   -2.0282    0.0868    0.0064 C   0  0  0  0  0  0  0  0  0  0  0  0
   -0.4338    1.8879   -0.5128 C   0  0  0  0  0  0  0  0  0  0  0  0
    0.8685    2.3865   -0.5446 C   0  0  0  0  0  0  0  0  0  0  0  0
    2.3598   -2.2374   -0.7536 C   0  0  0  0  0  0  0  0  0  0  0  0
    4.5095   -2.1338    0.3143 C   0  0  0  0  0  0  0  0  0  0  0  0
   -2.8248    0.2877    1.1336 C   0  0  0  0  0  0  0  0  0  0  0  0
   -2.5347   -0.6107   -1.0903 C   0  0  0  0  0  0  0  0  0  0  0  0
   -4.1280   -0.2087    1.1641 C   0  0  0  0  0  0  0  0  0  0  0  0
   -3.8378   -1.1071   -1.0597 C   0  0  0  0  0  0  0  0  0  0  0  0
   -4.6345   -0.9062    0.0674 C   0  0  0  0  0  0  0  0  0  0  0  0
  1  7  1  0
  2  4  1  0
  2 11  1  0
  2 12  1  0
  3  4  1  0
  3  6  2  0
  3  7  1  0
  5  6  1  0
  5  8  1  0
  5  9  2  0
  7 10  2  0
  8 13  2  0
  8 14  1  0
  9 10  1  0
 13 15  1  0
 14 16  2  0
 15 17  2  0
 16 17  1  0
M  END
>  <PUBCHEM_COMPOUND_CID>  (1) 
30499

>  <PUBCHEM_CONFORMER_RMSD>  (1) 
0.6

>  <PUBCHEM_CONFORMER_DIVERSEORDER>  (1) 
2
3
4
5
1
6

>  <PUBCHEM_MMFF94_PARTIAL_CHARGES>  (1) 
24
1 -0.53
10 -0.15
11 0.27
12 0.27
13 -0.15
14 -0.15
15 -0.15
16 -0.15
17 -0.15
2 -0.81
20 0.15
21 0.15
22 0.15
29 0.15
3 -0.14
30 0.15
31 0.15
32 0.15
33 0.15
34 0.45
4 0.41
6 -0.15
7 0.08
9 -0.15

>  <PUBCHEM_EFFECTIVE_ROTOR_COUNT>  (1) 
3

>  <PUBCHEM_PHARMACOPHORE_FEATURES>  (1) 
4
1 1 donor
1 2 cation
6 3 5 6 7 9 10 rings
6 8 13 14 15 16 17 rings

>  <PUBCHEM_HEAVY_ATOM_COUNT>  (1) 
17

>  <PUBCHEM_ATOM_DEF_STEREO_COUNT>  (1) 
0

>  <PUBCHEM_ATOM_UDEF_STEREO_COUNT>  (1) 
0

>  <PUBCHEM_BOND_DEF_STEREO_COUNT>  (1) 
0

>  <PUBCHEM_BOND_UDEF_STEREO_COUNT>  (1) 
0

>  <PUBCHEM_ISOTOPIC_ATOM_COUNT>  (1) 
0

>  <PUBCHEM_COMPONENT_COUNT>  (1) 
1

>  <PUBCHEM_CACTVS_TAUTO_COUNT>  (1) 
3

>  <PUBCHEM_CONFORMER_ID>  (1) 
0000772300000002

>  <PUBCHEM_MMFF94_ENERGY>  (1) 
56.6589

>  <PUBCHEM_FEATURE_SELFOVERLAP>  (1) 
20.297

>  <PUBCHEM_SHAPE_FINGERPRINT>  (1) 
10616163 171 18053947539349754199
10989021 7 18410011013944895352
11578080 2 17844216654361473577
116883 192 18337666391458779405
12032990 46 18333450919617015115
12236239 1 18130511954567058729
12346645 6 18339363075492118380
12363563 72 18187927231566305978
12553582 1 18335416807901057298
12707595 3 18040995133154255659
12841375 25 18336264548582286630
12892183 10 16773791455256174618
13296908 3 18113892771598558213
13533116 47 18271805783063772339
13583140 156 16127795375608788747
14252887 29 18335135423160513680
14576447 43 18054500576581388287
15375462 189 18130511949924062041
15527383 91 18411426072472213417
15848702 151 18411139126002547083
16945 1 18190180276730953556
1813 80 18339092488136002230
18186145 218 17313100852360771809
19141452 34 18129098918600059207
19422 9 18272653471799491747
20279233 1 16878496951426812833
20281475 54 18272365416869645031
20339313 130 18408888438137037649
20361792 2 18334854996102854573
20645477 70 18262224616821150343
20671657 53 18114178605587188336
20871998 22 18409164377249069784
21041028 32 18339369565035027409
221490 88 18189059852902106371
22182313 1 18188187850387880484
2255824 54 18340210811820917188
22646028 28 18343299279932957927
23402539 116 18115306645026359618
23598291 2 18343867723085994095
2748010 2 18189035552230398588
474 4 17765990980174484273
5104073 3 18272377498966083923
573450 72 17489590073942986691
6049 1 17458341961897519213
7364860 26 18340486767949392160
77492 1 18058735835458394681
7970288 3 18336261241284603954
83771 10 18340487772781588434
9709674 26 18115873073803077171

>  <PUBCHEM_SHAPE_MULTIPOLES>  (1) 
339
8.46
2.38
1.05
2.47
0.51
-0.04
-5.29
-0.87
-2.87
0.59
0.72
-0.16
-0.4

>  <PUBCHEM_SHAPE_SELFOVERLAP>  (1) 
723.672

>  <PUBCHEM_SHAPE_VOLUME>  (1) 
190.9

>  <PUBCHEM_COORDINATE_TYPE>  (1) 
2
5
10

$$$$
