30496
     RDKit          3D

 17 17  0  0  1  0  0  0  0  0999 V2000
    4.8267    1.2737   -0.7172 Cl  0  0  0  0  0  0  0  0  0  0  0  0
   -0.7691    1.3696   -0.6826 O   0  0  0  0  0  0  0  0  0  0  0  0
   -0.7686   -2.2821   -0.3053 O   0  0  0  0  0  0  0  0  0  0  0  0
   -1.9477    0.6462   -0.3033 C   0  0  0  0  0  0  0  0  0  0  0  0
   -1.5725   -0.3102    0.8695 C   0  0  0  0  0  0  0  0  0  0  0  0
   -0.3987   -1.3226    0.6898 C   0  0  0  0  0  0  0  0  0  0  0  0
   -2.4062   -0.1720   -1.5431 C   0  0  0  0  0  0  0  0  0  0  0  0
   -3.0221    1.7033    0.0480 C   0  0  0  0  0  0  0  0  0  0  0  0
    0.9316   -0.6618    0.3322 C   0  0  0  0  0  0  0  0  0  0  0  0
   -0.2274   -2.1316    1.9936 C   0  0  0  0  0  0  0  0  0  0  0  0
   -3.7191   -0.9307   -1.3717 C   0  0  0  0  0  0  0  0  0  0  0  0
   -2.7144    2.5882    1.2478 C   0  0  0  0  0  0  0  0  0  0  0  0
    1.4923    0.2227    1.2263 C   0  0  0  0  0  0  0  0  0  0  0  0
    1.5223   -0.9749   -0.8717 C   0  0  0  0  0  0  0  0  0  0  0  0
    2.7069    0.8257    0.8994 C   0  0  0  0  0  0  0  0  0  0  0  0
    2.7368   -0.3719   -1.1986 C   0  0  0  0  0  0  0  0  0  0  0  0
    3.3291    0.5284   -0.3131 C   0  0  0  0  0  0  0  0  0  0  0  0
  1 17  1  0
  2  4  1  0
  3  6  1  0
  4  5  1  0
  4  7  1  0
  4  8  1  0
  5  6  1  0
  6  9  1  0
  6 10  1  0
  7 11  1  0
  8 12  1  0
  9 13  2  0
  9 14  1  0
 13 15  1  0
 14 16  2  0
 15 17  2  0
 16 17  1  0
M  END
>  <PUBCHEM_COMPOUND_CID>  (1) 
30496

>  <PUBCHEM_CONFORMER_RMSD>  (1) 
0.6

>  <PUBCHEM_CONFORMER_DIVERSEORDER>  (1) 
4
15
18
8
23
24
19
17
10
6
16
21
13
7
25
5
20
9
11
12
22
14
3
2
1

>  <PUBCHEM_MMFF94_PARTIAL_CHARGES>  (1) 
17
1 -0.18
13 -0.15
14 -0.15
15 -0.15
16 -0.15
17 0.18
2 -0.68
3 -0.68
33 0.4
34 0.4
35 0.15
36 0.15
37 0.15
38 0.15
4 0.28
6 0.42
9 -0.14

>  <PUBCHEM_EFFECTIVE_ROTOR_COUNT>  (1) 
5

>  <PUBCHEM_PHARMACOPHORE_FEATURES>  (1) 
7
1 11 hydrophobe
1 12 hydrophobe
1 2 acceptor
1 2 donor
1 3 acceptor
1 3 donor
6 9 13 14 15 16 17 rings

>  <PUBCHEM_HEAVY_ATOM_COUNT>  (1) 
17

>  <PUBCHEM_ATOM_DEF_STEREO_COUNT>  (1) 
0

>  <PUBCHEM_ATOM_UDEF_STEREO_COUNT>  (1) 
1

>  <PUBCHEM_BOND_DEF_STEREO_COUNT>  (1) 
0

>  <PUBCHEM_BOND_UDEF_STEREO_COUNT>  (1) 
0

>  <PUBCHEM_ISOTOPIC_ATOM_COUNT>  (1) 
0

>  <PUBCHEM_COMPONENT_COUNT>  (1) 
1

>  <PUBCHEM_CACTVS_TAUTO_COUNT>  (1) 
1

>  <PUBCHEM_CONFORMER_ID>  (1) 
0000772000000004

>  <PUBCHEM_MMFF94_ENERGY>  (1) 
51.576

>  <PUBCHEM_FEATURE_SELFOVERLAP>  (1) 
35.52

>  <PUBCHEM_SHAPE_FINGERPRINT>  (1) 
10498660 4 18336257942923280877
12138202 97 18337388348440421926
121448 382 18114454647588745955
12251169 10 11891332032397203540
12491281 212 18341615897291553800
12507560 40 15285353986049594384
13299463 15 17060334158194444990
13464514 151 18270973323706460784
13583140 156 15140962893596270660
13675066 3 15357696397092127844
13764800 53 18187097147452730777
14251764 38 18196931300376327680
14817 1 13783622669607580707
15061688 2 16733526261536560639
15309172 13 17822017471245406849
15534591 1 18341336591505520825
15775835 57 18335136436561720609
16945 1 18270952561317762779
1741750 31 18261402156517209536
1813 80 11455891416078530224
18186145 218 18265900168160058316
18534176 82 18336832021241999578
19765921 60 18338240340728208161
200 152 15625948689568721542
20361792 2 12103554295128824963
20510252 161 17824268313191896570
20671657 1 17910109114623375763
20671657 53 14548732855538406584
20871999 31 17704069595006695797
21041028 32 17107346780169808714
21501502 16 18342453686655625014
21524375 3 18334290925041805722
21713013 43 16415471696753096453
22802520 49 18338533940703679950
23236772 104 18411413986887877373
23402539 116 18411129264425157398
23419403 2 17763182840661875835
23557571 272 18192437595777911790
23559900 14 18333739022962568422
25 1 18198073477591017104
2637199 183 17556596352396232689
3286 77 18058147514895538694
3323516 105 17203319065575814231
633830 44 18262523580777979270
6442390 28 18191052052476713019
7832392 63 17987797384890390521
81228 2 17533521150581869555

>  <PUBCHEM_SHAPE_MULTIPOLES>  (1) 
339.98
6.67
2.22
1.62
4.19
0.22
0.21
3.54
-2.5
-1.51
0.82
-0.5
-0.42
-0.73

>  <PUBCHEM_SHAPE_SELFOVERLAP>  (1) 
679.681

>  <PUBCHEM_SHAPE_VOLUME>  (1) 
202.6

>  <PUBCHEM_COORDINATE_TYPE>  (1) 
2
5
10

$$$$
