30497
     RDKit          3D

 17 17  0  0  1  0  0  0  0  0999 V2000
    4.9807    1.3073   -0.7240 Br  0  0  0  0  0  0  0  0  0  0  0  0
   -0.7658    1.3767   -0.6726 O   0  0  0  0  0  0  0  0  0  0  0  0
   -0.7935   -2.2778   -0.3239 O   0  0  0  0  0  0  0  0  0  0  0  0
   -1.9510    0.6591   -0.3028 C   0  0  0  0  0  0  0  0  0  0  0  0
   -1.5867   -0.3091    0.8637 C   0  0  0  0  0  0  0  0  0  0  0  0
   -0.4198   -1.3288    0.6798 C   0  0  0  0  0  0  0  0  0  0  0  0
   -2.4114   -0.1460   -1.5504 C   0  0  0  0  0  0  0  0  0  0  0  0
   -3.0187    1.7213    0.0533 C   0  0  0  0  0  0  0  0  0  0  0  0
    0.9165   -0.6751    0.3316 C   0  0  0  0  0  0  0  0  0  0  0  0
   -0.2587   -2.1492    1.9778 C   0  0  0  0  0  0  0  0  0  0  0  0
   -3.7305   -0.8962   -1.3892 C   0  0  0  0  0  0  0  0  0  0  0  0
   -2.7085    2.5946    1.2609 C   0  0  0  0  0  0  0  0  0  0  0  0
    1.4804    0.1982    1.2348 C   0  0  0  0  0  0  0  0  0  0  0  0
    1.5098   -0.9834   -0.8722 C   0  0  0  0  0  0  0  0  0  0  0  0
    2.7010    0.7943    0.9175 C   0  0  0  0  0  0  0  0  0  0  0  0
    2.7303   -0.3874   -1.1895 C   0  0  0  0  0  0  0  0  0  0  0  0
    3.3258    0.5015   -0.2947 C   0  0  0  0  0  0  0  0  0  0  0  0
  1 17  1  0
  2  4  1  0
  3  6  1  0
  4  5  1  0
  4  7  1  0
  4  8  1  0
  5  6  1  0
  6  9  1  0
  6 10  1  0
  7 11  1  0
  8 12  1  0
  9 13  2  0
  9 14  1  0
 13 15  1  0
 14 16  2  0
 15 17  2  0
 16 17  1  0
M  END
>  <PUBCHEM_COMPOUND_CID>  (1) 
30497

>  <PUBCHEM_CONFORMER_RMSD>  (1) 
0.6

>  <PUBCHEM_CONFORMER_DIVERSEORDER>  (1) 
4
15
18
23
8
24
19
17
10
16
13
7
21
25
6
20
5
12
11
9
22
3
14
2
1

>  <PUBCHEM_MMFF94_PARTIAL_CHARGES>  (1) 
17
1 -0.11
13 -0.15
14 -0.15
15 -0.15
16 -0.15
17 0.11
2 -0.68
3 -0.68
33 0.4
34 0.4
35 0.15
36 0.15
37 0.15
38 0.15
4 0.28
6 0.42
9 -0.14

>  <PUBCHEM_EFFECTIVE_ROTOR_COUNT>  (1) 
5

>  <PUBCHEM_PHARMACOPHORE_FEATURES>  (1) 
8
1 1 hydrophobe
1 11 hydrophobe
1 12 hydrophobe
1 2 acceptor
1 2 donor
1 3 acceptor
1 3 donor
6 9 13 14 15 16 17 rings

>  <PUBCHEM_HEAVY_ATOM_COUNT>  (1) 
17

>  <PUBCHEM_ATOM_DEF_STEREO_COUNT>  (1) 
0

>  <PUBCHEM_ATOM_UDEF_STEREO_COUNT>  (1) 
1

>  <PUBCHEM_BOND_DEF_STEREO_COUNT>  (1) 
0

>  <PUBCHEM_BOND_UDEF_STEREO_COUNT>  (1) 
0

>  <PUBCHEM_ISOTOPIC_ATOM_COUNT>  (1) 
0

>  <PUBCHEM_COMPONENT_COUNT>  (1) 
1

>  <PUBCHEM_CACTVS_TAUTO_COUNT>  (1) 
1

>  <PUBCHEM_CONFORMER_ID>  (1) 
0000772100000004

>  <PUBCHEM_MMFF94_ENERGY>  (1) 
51.7464

>  <PUBCHEM_FEATURE_SELFOVERLAP>  (1) 
40.596

>  <PUBCHEM_SHAPE_FINGERPRINT>  (1) 
10498660 4 18335976467925471213
11370993 70 13262672638717351865
12138202 97 18337388344145461126
121448 382 18114455742815962419
12251169 10 11963389626435131468
12491281 212 18341897367978571912
12507560 40 15357693055080050744
13299463 15 16988556939616325175
13464514 151 18270973328017284808
13583140 156 15285359556712160180
13675066 3 15430035466112034684
13764800 53 18187378622434703193
14251764 38 18196650929211493296
14817 1 14471665005829604079
15061688 2 16733526257231030847
15309172 13 17822017471234837849
15534591 1 18341618066466413721
15775835 57 18335417907243457481
16945 1 18270952557006977731
1741750 31 18261402156533033776
1813 80 11383833822051151792
18186145 218 18265900163859816268
18534176 82 18337113491934285946
19433438 38 17489590069415813684
19765921 60 18338521811399395513
200 152 15626230164555975198
20300324 65 18343580780442037372
20361792 2 12103554295134106211
20510252 161 17824267213696080058
20671657 53 14476674161983569624
20871999 31 17703789219467792349
21501502 16 18270396092628240086
21524375 3 18334290925036530962
21713013 43 16343413003198272477
22802520 49 18338533940693136942
23402539 116 18411130363920980414
23419403 2 17763745790604767147
23493267 7 18334867147177206544
23557571 272 18192437595793723054
23559900 14 18333739018662365350
25 1 18198353853050818744
2637199 183 17556876727866590329
3286 77 18058427890365889830
3323516 105 17131542942209060671
4028521 119 18187920724717064068
474 4 18334298634513747005
5845 1 10487977427433561027
633830 44 18262803956264174142
6442390 28 18191332427947070651
7832392 63 17916020162033121185
81228 2 17533801526078607419

>  <PUBCHEM_SHAPE_MULTIPOLES>  (1) 
344.06
6.99
2.24
1.63
5.41
0.23
0.17
3.86
-2.59
-1.55
0.85
-0.59
-0.38
-0.71

>  <PUBCHEM_SHAPE_SELFOVERLAP>  (1) 
682.213

>  <PUBCHEM_SHAPE_VOLUME>  (1) 
211.5

>  <PUBCHEM_COORDINATE_TYPE>  (1) 
2
5
10

$$$$
