30493
     RDKit          3D

 20 21  0  0  0  0  0  0  0  0999 V2000
   -3.6249    1.5345   -1.3119 O   0  0  0  0  0  0  0  0  0  0  0  0
   -4.8724   -0.4710    0.1534 O   0  0  0  0  0  0  0  0  0  0  0  0
    0.7237    1.2991    2.3091 N   0  0  0  0  0  0  0  0  0  0  0  0
   -0.7735   -0.5410   -0.3962 C   0  0  0  0  0  0  0  0  0  0  0  0
   -1.5142    0.4925   -0.9506 C   0  0  0  0  0  0  0  0  0  0  0  0
   -2.8967    0.5202   -0.7671 C   0  0  0  0  0  0  0  0  0  0  0  0
   -3.5229   -0.4860   -0.0314 C   0  0  0  0  0  0  0  0  0  0  0  0
    0.6837   -0.5700   -0.5885 C   0  0  0  0  0  0  0  0  0  0  0  0
   -1.3842   -1.5474    0.3375 C   0  0  0  0  0  0  0  0  0  0  0  0
    3.0381   -0.0450    0.0013 C   0  0  0  0  0  0  0  0  0  0  0  0
    1.6024    0.0147    0.2261 C   0  0  0  0  0  0  0  0  0  0  0  0
   -2.7665   -1.5198    0.5209 C   0  0  0  0  0  0  0  0  0  0  0  0
    3.8557    0.9994    0.4337 C   0  0  0  0  0  0  0  0  0  0  0  0
    3.5977   -1.1463   -0.6467 C   0  0  0  0  0  0  0  0  0  0  0  0
    5.2326    0.9425    0.2179 C   0  0  0  0  0  0  0  0  0  0  0  0
    4.9745   -1.2031   -0.8624 C   0  0  0  0  0  0  0  0  0  0  0  0
    5.7920   -0.1587   -0.4301 C   0  0  0  0  0  0  0  0  0  0  0  0
    1.1063    0.7237    1.3767 C   0  0  0  0  0  0  0  0  0  0  0  0
   -3.8177    2.6977   -0.5094 C   0  0  0  0  0  0  0  0  0  0  0  0
   -5.4339   -1.5362    0.9176 C   0  0  0  0  0  0  0  0  0  0  0  0
  1  6  1  0
  1 19  1  0
  2  7  1  0
  2 20  1  0
  3 18  3  0
  4  5  2  0
  4  8  1  0
  4  9  1  0
  5  6  1  0
  6  7  2  0
  7 12  1  0
  8 11  2  0
  9 12  2  0
 10 11  1  0
 10 13  2  0
 10 14  1  0
 11 18  1  0
 13 15  1  0
 14 16  2  0
 15 17  2  0
 16 17  1  0
M  END
>  <PUBCHEM_COMPOUND_CID>  (1) 
30493

>  <PUBCHEM_CONFORMER_RMSD>  (1) 
0.6

>  <PUBCHEM_CONFORMER_DIVERSEORDER>  (1) 
9
26
18
20
14
4
11
7
22
8
13
21
19
2
24
16
12
6
25
23
5
10
15
17
1
3

>  <PUBCHEM_MMFF94_PARTIAL_CHARGES>  (1) 
29
1 -0.36
10 0.03
11 0.04
12 -0.15
13 -0.15
14 -0.15
15 -0.15
16 -0.15
17 -0.15
18 0.49
19 0.28
2 -0.36
20 0.28
21 0.15
22 0.15
23 0.15
24 0.15
25 0.15
26 0.15
27 0.15
28 0.15
29 0.15
3 -0.56
4 0.03
5 -0.15
6 0.08
7 0.08
8 -0.18
9 -0.15

>  <PUBCHEM_EFFECTIVE_ROTOR_COUNT>  (1) 
4

>  <PUBCHEM_PHARMACOPHORE_FEATURES>  (1) 
5
1 1 acceptor
1 2 acceptor
1 3 acceptor
6 10 13 14 15 16 17 rings
6 4 5 6 7 9 12 rings

>  <PUBCHEM_HEAVY_ATOM_COUNT>  (1) 
20

>  <PUBCHEM_ATOM_DEF_STEREO_COUNT>  (1) 
0

>  <PUBCHEM_ATOM_UDEF_STEREO_COUNT>  (1) 
0

>  <PUBCHEM_BOND_DEF_STEREO_COUNT>  (1) 
0

>  <PUBCHEM_BOND_UDEF_STEREO_COUNT>  (1) 
1

>  <PUBCHEM_ISOTOPIC_ATOM_COUNT>  (1) 
0

>  <PUBCHEM_COMPONENT_COUNT>  (1) 
1

>  <PUBCHEM_CACTVS_TAUTO_COUNT>  (1) 
1

>  <PUBCHEM_CONFORMER_ID>  (1) 
0000771D00000009

>  <PUBCHEM_MMFF94_ENERGY>  (1) 
80.8

>  <PUBCHEM_FEATURE_SELFOVERLAP>  (1) 
25.376

>  <PUBCHEM_SHAPE_FINGERPRINT>  (1) 
10366900 7 18336536205680873611
10912923 1 16660361476648672564
11287383 113 18261113002196898244
12236239 1 16225761930363295022
12390115 104 18336553694782395437
12403259 415 18343860026230455457
12507560 40 18410855460465843726
12616971 3 15626505007981647120
12916748 109 18113338630448922778
12916754 54 17131252697499865165
13073987 5 18259980449306794418
13134695 92 16988838415015179056
13760787 5 17060336331911919108
14573314 32 18409448064081125742
15042514 8 18043540614949316091
17349148 13 14692566650025581100
17844677 252 18334863826819677652
1813 80 16343438262323082424
19433438 28 18408884048891373140
200 152 17489588940097864274
20645477 56 18340201985420374790
20645477 70 17918000447479523854
21033648 29 18272356581747585473
21033650 10 16879645778248714710
21267235 1 17968104143641216631
21279426 13 18268995272096908878
21792961 116 18343590616782172046
221357 26 18130780162094613801
2297311 6 18260838111146765063
23175994 123 17989211455574860064
23402539 116 18187641449259844815
23536379 177 18040433270618779258
23557571 272 18334582338825904156
23559900 14 18334851770946490149
26918003 58 18272371988628725714
34797466 226 18339098076531987604
3545911 37 18341334470171400278
4214541 1 18334575724418058124
5104073 3 18187642449406651586
5281201 14 18410857668258589820
5283173 99 18340204086118727840
542803 24 15698285525026279710
7495541 125 18200877403903413610
7808743 9 18042680599082093485
90127 26 18259993669173933320

>  <PUBCHEM_SHAPE_MULTIPOLES>  (1) 
394.87
12.63
1.85
1.24
4.76
0.72
0.47
-0.91
-1.03
-2.07
-0.03
-0.1
0.38
1.89

>  <PUBCHEM_SHAPE_SELFOVERLAP>  (1) 
845.337

>  <PUBCHEM_SHAPE_VOLUME>  (1) 
218.1

>  <PUBCHEM_COORDINATE_TYPE>  (1) 
2
5
10

$$$$
