30495
     RDKit          3D

 17 17  0  0  1  0  0  0  0  0999 V2000
    4.4894    1.1817   -0.6928 F   0  0  0  0  0  0  0  0  0  0  0  0
   -0.7789    1.3518   -0.7094 O   0  0  0  0  0  0  0  0  0  0  0  0
   -0.7119   -2.2909   -0.2581 O   0  0  0  0  0  0  0  0  0  0  0  0
   -1.9417    0.6162   -0.3054 C   0  0  0  0  0  0  0  0  0  0  0  0
   -1.5402   -0.3094    0.8833 C   0  0  0  0  0  0  0  0  0  0  0  0
   -0.3505   -1.3050    0.7141 C   0  0  0  0  0  0  0  0  0  0  0  0
   -2.3961   -0.2349   -1.5243 C   0  0  0  0  0  0  0  0  0  0  0  0
   -3.0313    1.6616    0.0337 C   0  0  0  0  0  0  0  0  0  0  0  0
    0.9651   -0.6289    0.3316 C   0  0  0  0  0  0  0  0  0  0  0  0
   -0.1544   -2.0841    2.0324 C   0  0  0  0  0  0  0  0  0  0  0  0
   -3.6943   -1.0124   -1.3262 C   0  0  0  0  0  0  0  0  0  0  0  0
   -2.7291    2.5760    1.2126 C   0  0  0  0  0  0  0  0  0  0  0  0
    1.5171    0.2830    1.2031 C   0  0  0  0  0  0  0  0  0  0  0  0
    1.5510   -0.9561   -0.8707 C   0  0  0  0  0  0  0  0  0  0  0  0
    2.7182    0.9003    0.8538 C   0  0  0  0  0  0  0  0  0  0  0  0
    2.7520   -0.3386   -1.2199 C   0  0  0  0  0  0  0  0  0  0  0  0
    3.3356    0.5896   -0.3577 C   0  0  0  0  0  0  0  0  0  0  0  0
  1 17  1  0
  2  4  1  0
  3  6  1  0
  4  5  1  0
  4  7  1  0
  4  8  1  0
  5  6  1  0
  6  9  1  0
  6 10  1  0
  7 11  1  0
  8 12  1  0
  9 13  2  0
  9 14  1  0
 13 15  1  0
 14 16  2  0
 15 17  2  0
 16 17  1  0
M  END
>  <PUBCHEM_COMPOUND_CID>  (1) 
30495

>  <PUBCHEM_CONFORMER_RMSD>  (1) 
0.6

>  <PUBCHEM_CONFORMER_DIVERSEORDER>  (1) 
4
14
17
8
22
23
18
16
1
12
15
20
24
6
3
7
19
13
11
10
21
5
9
2

>  <PUBCHEM_MMFF94_PARTIAL_CHARGES>  (1) 
17
1 -0.19
13 -0.15
14 -0.15
15 -0.15
16 -0.15
17 0.19
2 -0.68
3 -0.68
33 0.4
34 0.4
35 0.15
36 0.15
37 0.15
38 0.15
4 0.28
6 0.42
9 -0.14

>  <PUBCHEM_EFFECTIVE_ROTOR_COUNT>  (1) 
5

>  <PUBCHEM_PHARMACOPHORE_FEATURES>  (1) 
7
1 11 hydrophobe
1 12 hydrophobe
1 2 acceptor
1 2 donor
1 3 acceptor
1 3 donor
6 9 13 14 15 16 17 rings

>  <PUBCHEM_HEAVY_ATOM_COUNT>  (1) 
17

>  <PUBCHEM_ATOM_DEF_STEREO_COUNT>  (1) 
0

>  <PUBCHEM_ATOM_UDEF_STEREO_COUNT>  (1) 
1

>  <PUBCHEM_BOND_DEF_STEREO_COUNT>  (1) 
0

>  <PUBCHEM_BOND_UDEF_STEREO_COUNT>  (1) 
0

>  <PUBCHEM_ISOTOPIC_ATOM_COUNT>  (1) 
0

>  <PUBCHEM_COMPONENT_COUNT>  (1) 
1

>  <PUBCHEM_CACTVS_TAUTO_COUNT>  (1) 
1

>  <PUBCHEM_CONFORMER_ID>  (1) 
0000771F00000004

>  <PUBCHEM_MMFF94_ENERGY>  (1) 
50.9232

>  <PUBCHEM_FEATURE_SELFOVERLAP>  (1) 
35.52

>  <PUBCHEM_SHAPE_FINGERPRINT>  (1) 
10498660 4 18336257943002408629
10863032 1 17703508796462501253
12138202 97 18336543927789439486
12251169 10 11818991863870911207
12423570 1 15824905588960618163
12491281 212 18413392016326403816
13299463 15 17060053787045415422
13538477 17 17168418384946418634
13583140 156 15068624924072141308
13764800 53 18114759182260518017
14817 1 15091119390062203147
15309172 13 17749396931543737145
15375462 478 13479430369680354415
15534591 1 18341337691054058865
15775835 57 18335136440861975641
16945 1 18270671090625463419
1813 80 11527668638867188808
18186145 218 18337958861688521516
18534176 82 18264492956495967522
19765921 60 18337958865793689025
200 152 15769782402662592006
20361792 2 12175612988667818187
20510252 161 17823986842510140226
20671657 1 17982166712956258003
20671657 53 14476674157625266320
21041028 32 17107065305187803818
21501502 16 18342172211605087318
21524375 3 18261670385334887266
21713013 43 16486967440359767373
22802520 49 18337970995045212950
23236772 104 18410852140735769877
23402539 116 18411694366616428636
23419403 2 17762056945071073507
23557571 272 18120380010303544654
23559900 14 18057610872334867126
25 1 18197230147861708344
2637199 183 17628091000770438337
276578 36 17895202034752870986
3286 77 18129642163259188350
3323516 105 17203038694453203887
353137 74 18337090333644575879
6442390 28 18118712987762329475
7832392 63 17987515909908411593
81228 2 17461182090125491067

>  <PUBCHEM_SHAPE_MULTIPOLES>  (1) 
330.84
6.06
2.19
1.62
2.04
0.23
0.31
2.83
-2.26
-1.44
0.75
-0.26
-0.51
-0.75

>  <PUBCHEM_SHAPE_SELFOVERLAP>  (1) 
671.763

>  <PUBCHEM_SHAPE_VOLUME>  (1) 
194.9

>  <PUBCHEM_COORDINATE_TYPE>  (1) 
2
5
10

$$$$
