30502
     RDKit          3D

 19 20  0  0  0  0  0  0  0  0999 V2000
   -1.9001    1.9454    0.4641 O   0  0  0  0  0  0  0  0  0  0  0  0
    0.2224   -1.5907   -1.9908 O   0  0  0  0  0  0  0  0  0  0  0  0
   -0.0686    0.6408   -2.2959 O   0  0  0  0  0  0  0  0  0  0  0  0
   -1.5812   -0.4348    0.5765 C   0  0  0  0  0  0  0  0  0  0  0  0
    0.7955   -0.2123   -0.1833 C   0  0  0  0  0  0  0  0  0  0  0  0
    2.2150   -0.0734    0.1020 C   0  0  0  0  0  0  0  0  0  0  0  0
   -0.1628   -0.2966    0.7817 C   0  0  0  0  0  0  0  0  0  0  0  0
   -2.4156    0.6836    0.4228 C   0  0  0  0  0  0  0  0  0  0  0  0
   -2.1520   -1.7157    0.5277 C   0  0  0  0  0  0  0  0  0  0  0  0
    2.7483   -0.6195    1.2696 C   0  0  0  0  0  0  0  0  0  0  0  0
    3.0431    0.6058   -0.7916 C   0  0  0  0  0  0  0  0  0  0  0  0
   -3.7872    0.5241    0.2251 C   0  0  0  0  0  0  0  0  0  0  0  0
   -3.5236   -1.8750    0.3301 C   0  0  0  0  0  0  0  0  0  0  0  0
   -4.3411   -0.7552    0.1788 C   0  0  0  0  0  0  0  0  0  0  0  0
    4.1095   -0.4861    1.5436 C   0  0  0  0  0  0  0  0  0  0  0  0
    4.4043    0.7390   -0.5176 C   0  0  0  0  0  0  0  0  0  0  0  0
    0.2736   -0.2970   -1.5921 C   0  0  0  0  0  0  0  0  0  0  0  0
    4.9374    0.1930    0.6500 C   0  0  0  0  0  0  0  0  0  0  0  0
   -2.8171    3.0244    0.2994 C   0  0  0  0  0  0  0  0  0  0  0  0
  1  8  1  0
  1 19  1  0
  2 17  1  0
  3 17  2  0
  4  7  1  0
  4  8  2  0
  4  9  1  0
  5  6  1  0
  5  7  2  0
  5 17  1  0
  6 10  2  0
  6 11  1  0
  8 12  1  0
  9 13  2  0
 10 15  1  0
 11 16  2  0
 12 14  2  0
 13 14  1  0
 15 18  2  0
 16 18  1  0
M  END
>  <PUBCHEM_COMPOUND_CID>  (1) 
30502

>  <PUBCHEM_CONFORMER_RMSD>  (1) 
0.6

>  <PUBCHEM_CONFORMER_DIVERSEORDER>  (1) 
5
2
11
8
13
9
1
10
6
7
12
4
3

>  <PUBCHEM_MMFF94_PARTIAL_CHARGES>  (1) 
30
1 -0.36
10 -0.15
11 -0.15
12 -0.15
13 -0.15
14 -0.15
15 -0.15
16 -0.15
17 0.71
18 -0.15
19 0.28
2 -0.65
20 0.15
21 0.15
22 0.15
23 0.15
24 0.15
25 0.15
26 0.15
27 0.15
28 0.15
29 0.15
3 -0.57
33 0.5
4 0.03
5 -0.01
6 0.03
7 -0.18
8 0.08
9 -0.15

>  <PUBCHEM_EFFECTIVE_ROTOR_COUNT>  (1) 
4

>  <PUBCHEM_PHARMACOPHORE_FEATURES>  (1) 
6
1 1 acceptor
1 2 acceptor
1 3 acceptor
3 2 3 17 anion
6 4 8 9 12 13 14 rings
6 6 10 11 15 16 18 rings

>  <PUBCHEM_HEAVY_ATOM_COUNT>  (1) 
19

>  <PUBCHEM_ATOM_DEF_STEREO_COUNT>  (1) 
0

>  <PUBCHEM_ATOM_UDEF_STEREO_COUNT>  (1) 
0

>  <PUBCHEM_BOND_DEF_STEREO_COUNT>  (1) 
0

>  <PUBCHEM_BOND_UDEF_STEREO_COUNT>  (1) 
1

>  <PUBCHEM_ISOTOPIC_ATOM_COUNT>  (1) 
0

>  <PUBCHEM_COMPONENT_COUNT>  (1) 
1

>  <PUBCHEM_CACTVS_TAUTO_COUNT>  (1) 
1

>  <PUBCHEM_CONFORMER_ID>  (1) 
0000772600000005

>  <PUBCHEM_MMFF94_ENERGY>  (1) 
75.4735

>  <PUBCHEM_FEATURE_SELFOVERLAP>  (1) 
30.504

>  <PUBCHEM_SHAPE_FINGERPRINT>  (1) 
10366900 7 18272366503248490379
11132069 177 17131552846509328791
12107183 9 17684639936085152888
12236239 1 17749388183032959019
12251169 10 18113617885059338778
12403259 415 17418380173078521216
12507560 40 18201436935585171666
12633257 1 18411426089699951849
12670546 56 18334009501921168272
12892183 10 18408318887182879482
13296909 8 18334011666479281165
13544653 18 15719389529887898214
13583140 156 17916851466096380170
13965767 371 17319867040818346853
14251764 3 17489864934126567192
14289901 80 18409170999977851314
14739800 52 18265329698363292064
15309172 13 16271931531636030846
15375462 478 18336265729534775885
17980427 23 18408890650567798821
1813 80 16081656573758016078
18186145 218 11097855198616366318
18219364 16 16845564322921361544
18915476 22 16701186257388410269
200 152 17968372446090413107
20344682 1 17775005704559080263
204376 136 16200149936734123798
20645477 70 15285627790615576890
21033648 29 17131819950841907416
21065198 48 18187080637988763624
23184049 59 16515686649712328026
23227448 37 17487043716524172600
23402539 116 18412538834585741919
23557571 272 18130243583377384045
23559900 14 18198916828943082974
3286 77 18188202199984022304
4175511 318 17775001305916515567
469060 322 17559370609227308973
474 4 17169561928864165780
573450 72 18261385633382344274
6034566 193 14711752183380307652
633830 44 15123517994896575538
6992083 37 17458070356491851971
9925002 15 17413295120599361557

>  <PUBCHEM_SHAPE_MULTIPOLES>  (1) 
373.4
8.99
1.91
1.49
4.89
1.1
-0.82
0.07
2.55
-2.58
0.27
0.83
-0.13
-0.74

>  <PUBCHEM_SHAPE_SELFOVERLAP>  (1) 
803.915

>  <PUBCHEM_SHAPE_VOLUME>  (1) 
205.7

>  <PUBCHEM_COORDINATE_TYPE>  (1) 
2
5
10

$$$$
