30501
     RDKit          3D

 24 26  0  0  1  0  0  0  0  0999 V2000
   -4.5339   -0.3464    0.2138 S   0  0  0  0  0  0  0  0  0  0  0  0
    5.3445   -1.5007    0.6265 O   0  0  0  0  0  0  0  0  0  0  0  0
   -5.2558   -1.1043   -0.7983 O   0  0  0  0  0  0  0  0  0  0  0  0
   -4.8385   -0.5507    1.6235 O   0  0  0  0  0  0  0  0  0  0  0  0
    4.5102    3.4639    0.1629 O   0  0  0  0  0  0  0  0  0  0  0  0
    1.8137   -2.3931    0.1486 N   0  0  0  0  0  0  0  0  0  0  0  0
    1.3881   -1.2353   -0.6642 C   0  0  0  0  0  0  0  0  0  0  0  0
    2.2296    0.0209   -0.4344 C   0  0  0  0  0  0  0  0  0  0  0  0
    3.9361   -1.3746    0.8116 C   0  0  0  0  0  0  0  0  0  0  0  0
    3.4548   -0.0526    0.2595 C   0  0  0  0  0  0  0  0  0  0  0  0
    3.2600   -2.5606    0.1248 C   0  0  0  0  0  0  0  0  0  0  0  0
   -0.1038   -1.0116   -0.4429 C   0  0  0  0  0  0  0  0  0  0  0  0
    1.8280    1.2564   -0.9741 C   0  0  0  0  0  0  0  0  0  0  0  0
   -2.8256   -0.6026   -0.0388 C   0  0  0  0  0  0  0  0  0  0  0  0
    4.2010    1.1184    0.4722 C   0  0  0  0  0  0  0  0  0  0  0  0
   -4.7758    1.3833   -0.1228 C   0  0  0  0  0  0  0  0  0  0  0  0
   -0.9892   -1.1656   -1.5044 C   0  0  0  0  0  0  0  0  0  0  0  0
   -0.5676   -0.6548    0.8190 C   0  0  0  0  0  0  0  0  0  0  0  0
   -2.3539   -0.9604   -1.3019 C   0  0  0  0  0  0  0  0  0  0  0  0
   -1.9324   -0.4496    1.0216 C   0  0  0  0  0  0  0  0  0  0  0  0
    3.7708    2.3400   -0.0426 C   0  0  0  0  0  0  0  0  0  0  0  0
    2.5904    2.4071   -0.7742 C   0  0  0  0  0  0  0  0  0  0  0  0
   -3.9041    2.2260    0.7965 C   0  0  0  0  0  0  0  0  0  0  0  0
   -6.2465    1.7470    0.0182 C   0  0  0  0  0  0  0  0  0  0  0  0
  1  3  2  0
  1  4  2  0
  1 14  1  0
  1 16  1  0
  2  9  1  0
  5 21  1  0
  6  7  1  0
  6 11  1  0
  7  8  1  0
  7 12  1  0
  8 10  2  0
  8 13  1  0
  9 10  1  0
  9 11  1  0
 10 15  1  0
 12 17  2  0
 12 18  1  0
 13 22  2  0
 14 19  2  0
 14 20  1  0
 15 21  2  0
 16 23  1  0
 16 24  1  0
 17 19  1  0
 18 20  2  0
 21 22  1  0
M  END
>  <PUBCHEM_COMPOUND_CID>  (1) 
30501

>  <PUBCHEM_CONFORMER_RMSD>  (1) 
0.6

>  <PUBCHEM_CONFORMER_DIVERSEORDER>  (1) 
4
10
15
19
2
18
23
28
27
22
12
17
6
24
3
8
30
32
16
14
1
20
7
13
21
31
11
25
5
29
26
9

>  <PUBCHEM_MMFF94_PARTIAL_CHARGES>  (1) 
32
1 1.2
10 -0.14
11 0.27
12 -0.14
13 -0.15
14 -0.01
15 -0.15
16 0.11
17 -0.15
18 -0.15
19 -0.15
2 -0.68
20 -0.15
21 0.08
22 -0.15
29 0.36
3 -0.65
30 0.15
31 0.15
33 0.15
34 0.15
35 0.15
36 0.15
37 0.15
38 0.4
4 -0.65
45 0.45
5 -0.53
6 -0.9
7 0.56
8 -0.14
9 0.42

>  <PUBCHEM_EFFECTIVE_ROTOR_COUNT>  (1) 
3.8

>  <PUBCHEM_PHARMACOPHORE_FEATURES>  (1) 
11
1 2 acceptor
1 2 donor
1 3 acceptor
1 4 acceptor
1 5 donor
1 6 cation
1 6 donor
3 16 23 24 hydrophobe
6 12 14 17 18 19 20 rings
6 6 7 8 9 10 11 rings
6 8 10 13 15 21 22 rings

>  <PUBCHEM_HEAVY_ATOM_COUNT>  (1) 
24

>  <PUBCHEM_ATOM_DEF_STEREO_COUNT>  (1) 
0

>  <PUBCHEM_ATOM_UDEF_STEREO_COUNT>  (1) 
2

>  <PUBCHEM_BOND_DEF_STEREO_COUNT>  (1) 
0

>  <PUBCHEM_BOND_UDEF_STEREO_COUNT>  (1) 
0

>  <PUBCHEM_ISOTOPIC_ATOM_COUNT>  (1) 
0

>  <PUBCHEM_COMPONENT_COUNT>  (1) 
1

>  <PUBCHEM_CACTVS_TAUTO_COUNT>  (1) 
3

>  <PUBCHEM_CONFORMER_ID>  (1) 
0000772500000004

>  <PUBCHEM_MMFF94_ENERGY>  (1) 
51.6457

>  <PUBCHEM_FEATURE_SELFOVERLAP>  (1) 
55.859

>  <PUBCHEM_SHAPE_FINGERPRINT>  (1) 
10498660 4 17131838702278646353
10595046 47 18341045320072534903
11045977 3 17967538956489739267
11089746 13 18115020802246873887
11405975 8 18260552199685303915
11640471 11 18059581338230035174
12107183 9 18123186797295983587
12166972 35 18202000993360392498
12236239 1 18059850666965814998
12403259 118 18342450409732598403
12403259 415 17458337524942984639
12422481 6 18338231561931391485
12616971 3 18272374170187177923
12633257 1 16371562755938294476
12670546 56 18335135389069702823
12788726 201 17346608451879693121
12892183 10 18261119612009161477
13140716 1 18262232348211143722
13583140 156 18268998763736509099
13675066 3 17967534575512320919
13785724 45 17981045207023460142
13878862 14 18264186076793353213
14251764 38 18341055095207519721
14739800 52 17773301534598516608
14790565 3 17829338222018116284
14849402 71 18334580170337333564
15238133 3 18188500064408059678
15348495 7 18187372030060967107
15475509 8 18200043850579980702
15527383 91 18260829263804240070
15788980 27 18343300336547764299
17818456 19 17987799583749830128
17844677 252 18410299094829350635
19377110 9 18270969058989072051
193927 3 11675143874311432800
20157964 124 18410572869108748877
20511986 3 18059558205108820097
20715895 44 17983859978476062025
20739085 24 18186241736439698756
20832881 197 17896883157951717050
21033648 144 18188481475541709015
21033648 29 16877935015338881357
21033650 10 15123247506509758843
21315764 268 18262797363864505941
21503847 285 18409449163724641466
21709351 56 18340763754347746671
22122407 14 18341060627352049385
22950370 63 8574714607130842607
23559900 14 18339082575357381211
245318 6 17607538125880667420
350125 39 18409166589458148116
351380 180 18335421240607564553
4409770 3 16037490003371847654
474 4 18337669827685466202
5104073 3 18261399944714502105
57724786 102 18041282161930265020
5895379 119 17773327729218978208
67856867 119 18411978061732249265
8272917 22 18410012148185630750
960060 61 11743844680876974472

>  <PUBCHEM_SHAPE_MULTIPOLES>  (1) 
469.3
12.92
2.97
1.14
10.17
1.76
0.06
4.66
-2.43
-3.32
0.03
0.56
-0.21
-0.92

>  <PUBCHEM_SHAPE_SELFOVERLAP>  (1) 
995.639

>  <PUBCHEM_SHAPE_VOLUME>  (1) 
262.3

>  <PUBCHEM_COORDINATE_TYPE>  (1) 
2
5
10

$$$$
