3050
     RDKit          3D

 16 16  0  0  0  0  0  0  0  0999 V2000
    1.5329   -0.1925   -0.6271 P   0  0  0  0  0  0  0  0  0  0  0  0
    1.2917    1.4005   -0.7834 O   0  0  0  0  0  0  0  0  0  0  0  0
    3.0534   -0.3010   -0.0826 O   0  0  0  0  0  0  0  0  0  0  0  0
    1.2676   -0.9645   -1.8878 O   0  0  0  0  0  0  0  0  0  0  0  0
    0.5133   -0.6898    0.7480 C   0  0  0  0  0  0  0  0  0  0  0  0
   -0.9577   -0.5252    0.4938 C   0  0  0  0  0  0  0  0  0  0  0  0
   -1.6803   -1.5725   -0.0651 C   0  0  0  0  0  0  0  0  0  0  0  0
   -1.5810    0.6732    0.8203 C   0  0  0  0  0  0  0  0  0  0  0  0
   -3.6799   -0.2198    0.0235 C   0  0  0  0  0  0  0  0  0  0  0  0
   -3.0464   -1.4191   -0.3012 C   0  0  0  0  0  0  0  0  0  0  0  0
   -2.9473    0.8265    0.5843 C   0  0  0  0  0  0  0  0  0  0  0  0
    1.5972    2.2899    0.2758 C   0  0  0  0  0  0  0  0  0  0  0  0
    3.5359   -1.5553    0.3657 C   0  0  0  0  0  0  0  0  0  0  0  0
   -5.1407   -0.0563   -0.2280 C   0  0  0  0  0  0  0  0  0  0  0  0
    1.2703    3.7032   -0.1573 C   0  0  0  0  0  0  0  0  0  0  0  0
    4.9710   -1.3974    0.8208 C   0  0  0  0  0  0  0  0  0  0  0  0
  1  2  1  0
  1  3  1  0
  1  4  2  0
  1  5  1  0
  2 12  1  0
  3 13  1  0
  5  6  1  0
  6  7  2  0
  6  8  1  0
  7 10  1  0
  8 11  2  0
  9 10  2  0
  9 11  1  0
  9 14  1  0
 12 15  1  0
 13 16  1  0
M  END
>  <PUBCHEM_COMPOUND_CID>  (1) 
3050

>  <PUBCHEM_CONFORMER_RMSD>  (1) 
0.8

>  <PUBCHEM_CONFORMER_DIVERSEORDER>  (1) 
2
1
8
18
15
23
16
3
17
11
13
12
5
24
20
10
14
19
6
4
21
7
9
22

>  <PUBCHEM_MMFF94_PARTIAL_CHARGES>  (1) 
18
1 1.24
10 -0.15
11 -0.15
12 0.28
13 0.28
14 0.14
19 0.15
2 -0.55
20 0.15
21 0.15
22 0.15
3 -0.55
4 -0.7
5 0.14
6 -0.14
7 -0.15
8 -0.15
9 -0.14

>  <PUBCHEM_EFFECTIVE_ROTOR_COUNT>  (1) 
6

>  <PUBCHEM_PHARMACOPHORE_FEATURES>  (1) 
2
1 4 acceptor
6 6 7 8 9 10 11 rings

>  <PUBCHEM_HEAVY_ATOM_COUNT>  (1) 
16

>  <PUBCHEM_ATOM_DEF_STEREO_COUNT>  (1) 
0

>  <PUBCHEM_ATOM_UDEF_STEREO_COUNT>  (1) 
0

>  <PUBCHEM_BOND_DEF_STEREO_COUNT>  (1) 
0

>  <PUBCHEM_BOND_UDEF_STEREO_COUNT>  (1) 
0

>  <PUBCHEM_ISOTOPIC_ATOM_COUNT>  (1) 
0

>  <PUBCHEM_COMPONENT_COUNT>  (1) 
1

>  <PUBCHEM_CACTVS_TAUTO_COUNT>  (1) 
1

>  <PUBCHEM_CONFORMER_ID>  (1) 
00000BEA00000002

>  <PUBCHEM_MMFF94_ENERGY>  (1) 
21.4582

>  <PUBCHEM_FEATURE_SELFOVERLAP>  (1) 
10.148

>  <PUBCHEM_SHAPE_FINGERPRINT>  (1) 
124424 183 18186524280324948626
12507560 14 18411134714823214286
13134695 92 18408881854289978108
14115302 16 17561085838718590887
14250199 8 18341059613554864709
15295992 7 18113913683999973473
16945 1 18270702899522503027
17041 49 18410863143840602128
17492 89 18266456705432712938
17802600 8 18334292050750485605
17980427 23 17846779593984229561
18186145 218 17604418704582109003
192875 21 18343580741961385197
20279233 1 16630809906887299327
20671657 1 18337959020439079716
20671657 53 18411139116980069809
20711985 327 18411422778353447578
21501502 16 18199753720568791851
21524375 3 17551525769793793764
23402539 116 18200021842233735911
23419403 2 17986080003720862584
23557571 272 17917154875164927776
23559900 14 18341043120474136578
3286 77 18260830410270254077
345986 75 17679563572567490730
5104073 3 18341340002179104987
53777708 50 18197499743228117803
67856867 119 18199178675629093825
7364860 26 18339642364293571744
74978 22 18336270144861655747
81228 2 17980505372546316712
9981440 41 17616247430682925528

>  <PUBCHEM_SHAPE_MULTIPOLES>  (1) 
315.51
8.27
2.69
1.02
1.23
3.37
0.26
-3.76
-0.92
-2.37
0.08
-0.37
-0.17
-0.63

>  <PUBCHEM_SHAPE_SELFOVERLAP>  (1) 
612.019

>  <PUBCHEM_SHAPE_VOLUME>  (1) 
192.5

>  <PUBCHEM_COORDINATE_TYPE>  (1) 
2
5
10

$$$$
