30504
     RDKit          3D

 22 25  0  0  1  0  0  0  0  0999 V2000
    0.0025   -4.3037   -0.9012 O   0  0  0  0  0  0  0  0  0  0  0  0
    2.2391    2.2088   -0.5040 N   0  0  0  0  0  0  0  0  0  0  0  0
   -0.2149    0.5976   -0.1637 C   0  0  0  0  0  0  0  0  0  0  0  0
    0.2972    1.6153    0.9209 C   0  0  0  0  0  0  0  0  0  0  0  0
    1.8368    1.7055    0.8233 C   0  0  0  0  0  0  0  0  0  0  0  0
    0.2598    1.1215   -1.5563 C   0  0  0  0  0  0  0  0  0  0  0  0
    0.4845   -0.7739    0.0303 C   0  0  0  0  0  0  0  0  0  0  0  0
    2.4269    0.3471    1.2568 C   0  0  0  0  0  0  0  0  0  0  0  0
    1.7709    1.3958   -1.6264 C   0  0  0  0  0  0  0  0  0  0  0  0
    1.7276   -0.8649    0.6916 C   0  0  0  0  0  0  0  0  0  0  0  0
   -1.7500    0.4557   -0.0314 C   0  0  0  0  0  0  0  0  0  0  0  0
   -0.3404    3.0156    0.8400 C   0  0  0  0  0  0  0  0  0  0  0  0
    3.6676    2.4871   -0.6103 C   0  0  0  0  0  0  0  0  0  0  0  0
   -0.0669   -1.9482   -0.5214 C   0  0  0  0  0  0  0  0  0  0  0  0
    2.3464   -2.1173    0.8457 C   0  0  0  0  0  0  0  0  0  0  0  0
   -2.2997   -0.0180    1.1557 C   0  0  0  0  0  0  0  0  0  0  0  0
   -2.5699    0.8022   -1.1007 C   0  0  0  0  0  0  0  0  0  0  0  0
    0.5639   -3.1835   -0.3695 C   0  0  0  0  0  0  0  0  0  0  0  0
    1.7663   -3.2695    0.3211 C   0  0  0  0  0  0  0  0  0  0  0  0
   -3.6836   -0.1465    1.2748 C   0  0  0  0  0  0  0  0  0  0  0  0
   -3.9537    0.6739   -0.9816 C   0  0  0  0  0  0  0  0  0  0  0  0
   -4.5105    0.1995    0.2062 C   0  0  0  0  0  0  0  0  0  0  0  0
  1 18  1  0
  2  5  1  0
  2  9  1  0
  2 13  1  0
  3  4  1  0
  3  6  1  0
  3  7  1  0
  3 11  1  0
  4  5  1  0
  4 12  1  0
  5  8  1  0
  6  9  1  0
  7 10  2  0
  7 14  1  0
  8 10  1  0
 10 15  1  0
 11 16  2  0
 11 17  1  0
 14 18  2  0
 15 19  2  0
 16 20  1  0
 17 21  2  0
 18 19  1  0
 20 22  2  0
 21 22  1  0
M  END
>  <PUBCHEM_COMPOUND_CID>  (1) 
30504

>  <PUBCHEM_CONFORMER_RMSD>  (1) 
0.6

>  <PUBCHEM_CONFORMER_DIVERSEORDER>  (1) 
1
2
5
3
4
6

>  <PUBCHEM_MMFF94_PARTIAL_CHARGES>  (1) 
28
1 -0.53
10 -0.14
11 -0.14
13 0.27
14 -0.15
15 -0.15
16 -0.15
17 -0.15
18 0.08
19 -0.15
2 -0.81
20 -0.15
21 -0.15
22 -0.15
3 0.29
37 0.15
38 0.15
39 0.15
40 0.15
41 0.15
42 0.15
43 0.15
44 0.15
45 0.45
5 0.27
7 -0.14
8 0.14
9 0.27

>  <PUBCHEM_EFFECTIVE_ROTOR_COUNT>  (1) 
2

>  <PUBCHEM_PHARMACOPHORE_FEATURES>  (1) 
6
1 1 donor
1 2 cation
6 11 16 17 20 21 22 rings
6 2 3 4 5 6 9 rings
6 3 4 5 7 8 10 rings
6 7 10 14 15 18 19 rings

>  <PUBCHEM_HEAVY_ATOM_COUNT>  (1) 
22

>  <PUBCHEM_ATOM_DEF_STEREO_COUNT>  (1) 
0

>  <PUBCHEM_ATOM_UDEF_STEREO_COUNT>  (1) 
3

>  <PUBCHEM_BOND_DEF_STEREO_COUNT>  (1) 
0

>  <PUBCHEM_BOND_UDEF_STEREO_COUNT>  (1) 
0

>  <PUBCHEM_ISOTOPIC_ATOM_COUNT>  (1) 
0

>  <PUBCHEM_COMPONENT_COUNT>  (1) 
1

>  <PUBCHEM_CACTVS_TAUTO_COUNT>  (1) 
3

>  <PUBCHEM_CONFORMER_ID>  (1) 
0000772800000001

>  <PUBCHEM_MMFF94_ENERGY>  (1) 
74.189

>  <PUBCHEM_FEATURE_SELFOVERLAP>  (1) 
31.982

>  <PUBCHEM_SHAPE_FINGERPRINT>  (1) 
10064457 181 18268988863594096929
10863032 1 16950277442379959824
10948715 1 17970351631624507508
1100329 8 18340198687476393746
12553582 1 18053111614175595107
12592029 89 17968385627688000672
13140716 1 18339913900631771570
13149001 5 17696493031920485336
133893 2 17461755855233740340
13681431 1 18193002508299025615
14181834 199 18261392213203741207
14787075 74 16263426955656523395
14790565 3 18412831308731903824
14863182 85 18412545405363744547
14866123 147 18049725419347385466
15309172 13 18266182905899618193
16945 1 18338795611348461186
17138139 8 17482796324697261103
17357779 13 17977933593073522759
19591789 44 18266745868595542530
20645477 70 18334564721270923895
21421861 104 18125461725598391057
2255824 54 18340488872082414519
22620623 9 17476389530513281604
2334 1 18267858565588300914
23419403 2 17678155128015540782
23559900 14 18192139409014633897
238 59 18191840492555445221
2748010 2 18337961197902992466
3060560 45 18261115218141976228
3729539 64 18192179056627916414
394222 165 18041277763841679408
458136 41 18338528516017209465
46194498 28 17899386763640373645
495365 180 18338780265831674365
5845 1 10833496942016583164
633830 44 17988374774729797153
6443956 14 18122903119180209299
6669772 16 18339656628539299822
7364860 26 18336268959297415277
81228 2 17257368544599118969
8272917 22 18411700942179580173
84936 31 18410568457623558519

>  <PUBCHEM_SHAPE_MULTIPOLES>  (1) 
441.9
5.58
4.02
1.4
5.91
3.48
-0.14
-1.63
0.34
-3.63
-0.59
0.07
-0.37
-0.38

>  <PUBCHEM_SHAPE_SELFOVERLAP>  (1) 
970.598

>  <PUBCHEM_SHAPE_VOLUME>  (1) 
236.6

>  <PUBCHEM_COORDINATE_TYPE>  (1) 
2
5
10

$$$$
