30507
     RDKit          3D

 10 10  0  0  0  0  0  0  0  0999 V2000
    1.1528    1.0609    0.3171 N   0  0  0  0  0  0  0  0  0  0  0  0
   -3.1094    0.7682   -0.6287 N   0  0  0  0  0  0  0  0  0  0  0  0
    2.7278   -0.3525   -0.3562 N   0  0  0  0  0  0  0  0  0  0  0  0
   -0.9441   -0.2771    0.1905 C   0  0  0  0  0  0  0  0  0  0  0  0
   -1.6509    0.7761   -0.7174 C   0  0  0  0  0  0  0  0  0  0  0  0
    0.5948   -0.1012    0.0272 C   0  0  0  0  0  0  0  0  0  0  0  0
   -1.4148   -1.7013   -0.1957 C   0  0  0  0  0  0  0  0  0  0  0  0
   -1.3400   -0.0733    1.6746 C   0  0  0  0  0  0  0  0  0  0  0  0
    1.5013   -0.9678   -0.3777 C   0  0  0  0  0  0  0  0  0  0  0  0
    2.4827    0.8679    0.0663 C   0  0  0  0  0  0  0  0  0  0  0  0
  1  6  1  0
  1 10  1  0
  2  5  1  0
  3  9  1  0
  3 10  2  0
  4  5  1  0
  4  6  1  0
  4  7  1  0
  4  8  1  0
  6  9  2  0
M  END
>  <PUBCHEM_COMPOUND_CID>  (1) 
30507

>  <PUBCHEM_CONFORMER_RMSD>  (1) 
0.4

>  <PUBCHEM_CONFORMER_DIVERSEORDER>  (1) 
1
7
10
15
8
13
9
12
6
3
4
2
14
11
5

>  <PUBCHEM_MMFF94_PARTIAL_CHARGES>  (1) 
13
1 0.03
10 0.04
19 0.27
2 -0.99
20 0.15
21 0.36
22 0.36
23 0.15
3 -0.57
4 0.18
5 0.27
6 -0.33
9 0.08

>  <PUBCHEM_EFFECTIVE_ROTOR_COUNT>  (1) 
2

>  <PUBCHEM_PHARMACOPHORE_FEATURES>  (1) 
6
1 1 donor
1 2 cation
1 2 donor
3 1 3 10 cation
3 4 7 8 hydrophobe
5 1 3 6 9 10 rings

>  <PUBCHEM_HEAVY_ATOM_COUNT>  (1) 
10

>  <PUBCHEM_ATOM_DEF_STEREO_COUNT>  (1) 
0

>  <PUBCHEM_ATOM_UDEF_STEREO_COUNT>  (1) 
0

>  <PUBCHEM_BOND_DEF_STEREO_COUNT>  (1) 
0

>  <PUBCHEM_BOND_UDEF_STEREO_COUNT>  (1) 
0

>  <PUBCHEM_ISOTOPIC_ATOM_COUNT>  (1) 
0

>  <PUBCHEM_COMPONENT_COUNT>  (1) 
1

>  <PUBCHEM_CACTVS_TAUTO_COUNT>  (1) 
2

>  <PUBCHEM_CONFORMER_ID>  (1) 
0000772B00000001

>  <PUBCHEM_MMFF94_ENERGY>  (1) 
18.01

>  <PUBCHEM_FEATURE_SELFOVERLAP>  (1) 
30.446

>  <PUBCHEM_SHAPE_FINGERPRINT>  (1) 
12897270 3 18342734156377691564
12932764 1 18334868246319685746
16945 1 18271535208207260370
20653085 51 18408325462709289477
21040471 1 18261385620370828334
23552423 10 18261956348821499414
24536 1 17632587053886763042
29004967 10 18336559269438552888
3248919 1 17561092405781498278
369184 2 18334857250813069890
5084963 1 18269560618467825810
8030462 33 17060347322580235672

>  <PUBCHEM_SHAPE_MULTIPOLES>  (1) 
190.85
3.84
1.31
1.02
0.47
0.33
-0.41
-0.75
0.66
-0.24
0.16
-0.57
-0.06
0.34

>  <PUBCHEM_SHAPE_SELFOVERLAP>  (1) 
386.689

>  <PUBCHEM_SHAPE_VOLUME>  (1) 
113.6

>  <PUBCHEM_COORDINATE_TYPE>  (1) 
2
5
10

$$$$
