30519
     RDKit          3D

 19 20  0  0  1  0  0  0  0  0999 V2000
    0.4933    0.0950    0.1886 O   0  0  0  0  0  0  0  0  0  0  0  0
   -0.8583    1.8855   -0.2552 O   0  0  0  0  0  0  0  0  0  0  0  0
    5.3570    0.1307    0.4573 N   0  0  0  0  0  0  0  0  0  0  0  0
   -1.7307   -0.2478    0.1547 N   0  0  0  0  0  0  0  0  0  0  0  0
    2.8793    0.0768    0.3060 C   0  0  0  0  0  0  0  0  0  0  0  0
    2.9598   -1.0655   -0.7128 C   0  0  0  0  0  0  0  0  0  0  0  0
    4.1490    0.9430    0.2486 C   0  0  0  0  0  0  0  0  0  0  0  0
    4.2572   -1.8474   -0.5371 C   0  0  0  0  0  0  0  0  0  0  0  0
    5.4727   -0.9208   -0.5622 C   0  0  0  0  0  0  0  0  0  0  0  0
    1.6324    0.9260    0.0667 C   0  0  0  0  0  0  0  0  0  0  0  0
    6.5500    0.9775    0.4559 C   0  0  0  0  0  0  0  0  0  0  0  0
   -0.7323    0.6948    0.0032 C   0  0  0  0  0  0  0  0  0  0  0  0
   -3.1277   -0.0608    0.0482 C   0  0  0  0  0  0  0  0  0  0  0  0
   -3.9924   -1.1292    0.2324 C   0  0  0  0  0  0  0  0  0  0  0  0
   -3.6065    1.2081   -0.2428 C   0  0  0  0  0  0  0  0  0  0  0  0
   -5.3677   -0.9242    0.1231 C   0  0  0  0  0  0  0  0  0  0  0  0
   -3.4906   -2.5015    0.5464 C   0  0  0  0  0  0  0  0  0  0  0  0
   -4.9819    1.4130   -0.3519 C   0  0  0  0  0  0  0  0  0  0  0  0
   -5.8625    0.3469   -0.1691 C   0  0  0  0  0  0  0  0  0  0  0  0
  1 10  1  0
  1 12  1  0
  2 12  2  0
  3  7  1  0
  3  9  1  0
  3 11  1  0
  4 12  1  0
  4 13  1  0
  5  6  1  0
  5  7  1  0
  5 10  1  0
  6  8  1  0
  8  9  1  0
 13 14  2  0
 13 15  1  0
 14 16  1  0
 14 17  1  0
 15 18  2  0
 16 19  2  0
 18 19  1  0
M  END
>  <PUBCHEM_COMPOUND_CID>  (1) 
30519

>  <PUBCHEM_CONFORMER_RMSD>  (1) 
0.8

>  <PUBCHEM_CONFORMER_DIVERSEORDER>  (1) 
1
151
20
117
147
154
172
14
79
144
131
50
114
146
76
13
100
164
25
105
46
8
101
65
120
99
30
40
107
113
165
24
129
167
143
15
109
123
85
72
110
4
122
88
41
138
64
80
103
145
16
2
148
62
136
134
61
78
5
89
139
108
38
152
26
84
75
104
27
132
140
156
57
11
124
95
31
45
137
112
130
150
128
17
149
59
42
106
93
48
141
111
142
34
44
77
87
49
81
51
55
71
90
54
67
33
22
157
160
68
6
32
43
153
3
52
91
118
155
121
12
96
47
133
29
86
168
119
116
73
159
69
162
97
170
23
53
66
83
19
171
70
10
18
35
115
9
7
36
92
135
98
39
94
126
127
58
21
102
37
161
158
166
169
74
60
28
82
56
125
163
63

>  <PUBCHEM_MMFF94_PARTIAL_CHARGES>  (1) 
21
1 -0.43
10 0.28
11 0.27
12 0.78
13 0.12
14 -0.14
15 -0.15
16 -0.15
17 0.14
18 -0.15
19 -0.15
2 -0.57
3 -0.81
34 0.37
35 0.15
36 0.15
4 -0.55
40 0.15
41 0.15
7 0.27
9 0.27

>  <PUBCHEM_EFFECTIVE_ROTOR_COUNT>  (1) 
6.2

>  <PUBCHEM_PHARMACOPHORE_FEATURES>  (1) 
5
1 2 acceptor
1 3 cation
1 4 donor
6 13 14 15 16 18 19 rings
6 3 5 6 7 8 9 rings

>  <PUBCHEM_HEAVY_ATOM_COUNT>  (1) 
19

>  <PUBCHEM_ATOM_DEF_STEREO_COUNT>  (1) 
0

>  <PUBCHEM_ATOM_UDEF_STEREO_COUNT>  (1) 
1

>  <PUBCHEM_BOND_DEF_STEREO_COUNT>  (1) 
0

>  <PUBCHEM_BOND_UDEF_STEREO_COUNT>  (1) 
0

>  <PUBCHEM_ISOTOPIC_ATOM_COUNT>  (1) 
0

>  <PUBCHEM_COMPONENT_COUNT>  (1) 
1

>  <PUBCHEM_CACTVS_TAUTO_COUNT>  (1) 
2

>  <PUBCHEM_CONFORMER_ID>  (1) 
0000773700000001

>  <PUBCHEM_MMFF94_ENERGY>  (1) 
41.0063

>  <PUBCHEM_FEATURE_SELFOVERLAP>  (1) 
25.372

>  <PUBCHEM_SHAPE_FINGERPRINT>  (1) 
10 15 18271514391292230416
10366900 7 15123789582753504366
10835480 77 18341325634833497696
10968037 39 18411418423372764421
11128504 68 16515694350599038046
11287383 113 18410012148090548672
11315181 36 17989207066672262569
11719270 70 18272084973403081790
12107183 9 17480311067086781026
12236239 1 17095240310939126096
12516196 113 18131068242388063073
12596602 18 14764336163321965791
12616971 3 16443351987339319094
13073987 5 18271811176962246153
13288520 33 18409166636997765013
13402501 40 18412827979778340495
13533116 47 16486978354320215182
13685833 64 18410579504833507027
1420 363 18343586239503518004
14251718 22 18409166614679078664
14251731 8 18408040693555732533
14251732 16 18412543245390658248
14251764 18 18131918161388163233
14341114 176 18341619208685043232
14386348 63 18413110554187278262
14461889 52 18341043116970486354
15196674 1 18411700976027875518
17834072 33 18272650164511182444
17834072 8 18260261937416203397
17844677 252 18411707581650841888
19489759 90 18040152911885218129
200 152 17847058865626529161
20374829 77 18334294262294561651
20645477 70 18059576832862355990
20681677 155 18187364311978095907
21267235 1 18261117404960447859
21279426 13 18267022748125798471
21623969 137 17918278649342839350
220451 1 17894632530690022370
2215653 11 18342732997211223405
22224240 67 18201429321040458354
23035841 295 18260546710173429850
23402539 116 18114176454103946084
23557571 272 18339081488799097436
23559900 14 18340761632850264697
239999 70 18343024372531072278
26918003 58 18343582949305407249
300161 21 18186795864034096603
3004659 81 18261676991669841006
335352 9 18407757046074884045
3545911 37 18412262839322695089
4073 2 18261116304853104682
4214541 1 18409449185210105313
4325135 7 18260551143328915156
5104073 3 18130222637074797562
5283173 99 18336544906831187669
542803 24 16443348663145245500
559249 180 18261108548268605875
59755656 215 18337675222254424758
67856867 119 18115030843443250940

>  <PUBCHEM_SHAPE_MULTIPOLES>  (1) 
369.31
16.87
1.89
0.73
7.41
0.69
0.02
0.56
-0.17
-0.84
0.01
0.24
0.09
1.36

>  <PUBCHEM_SHAPE_SELFOVERLAP>  (1) 
759.13

>  <PUBCHEM_SHAPE_VOLUME>  (1) 
212.4

>  <PUBCHEM_COORDINATE_TYPE>  (1) 
2
5
10

$$$$
