30513
     RDKit          3D

 19 20  0  0  0  0  0  0  0  0999 V2000
    4.4151    0.9012   -1.6168 F   0  0  0  0  0  0  0  0  0  0  0  0
   -2.6228    3.2239   -1.4457 F   0  0  0  0  0  0  0  0  0  0  0  0
   -2.0500   -3.4523   -0.1397 N   0  0  0  0  0  0  0  0  0  0  0  0
    0.0690   -0.5514   -0.0711 C   0  0  0  0  0  0  0  0  0  0  0  0
    1.4904   -0.3414    0.1549 C   0  0  0  0  0  0  0  0  0  0  0  0
   -0.9666    0.4892    0.2222 C   0  0  0  0  0  0  0  0  0  0  0  0
   -0.3465   -1.7510   -0.5771 C   0  0  0  0  0  0  0  0  0  0  0  0
   -1.7434   -2.2258   -0.8716 C   0  0  0  0  0  0  0  0  0  0  0  0
    2.2868    0.1902   -0.8594 C   0  0  0  0  0  0  0  0  0  0  0  0
   -1.3051    1.3750   -0.7724 C   0  0  0  0  0  0  0  0  0  0  0  0
    2.0573   -0.6715    1.3860 C   0  0  0  0  0  0  0  0  0  0  0  0
   -1.5347    0.5137    1.4733 C   0  0  0  0  0  0  0  0  0  0  0  0
    3.6500    0.3916   -0.6427 C   0  0  0  0  0  0  0  0  0  0  0  0
   -2.2702    2.3445   -0.4991 C   0  0  0  0  0  0  0  0  0  0  0  0
    3.4202   -0.4700    1.6027 C   0  0  0  0  0  0  0  0  0  0  0  0
   -2.4997    1.4829    1.7465 C   0  0  0  0  0  0  0  0  0  0  0  0
    4.2167    0.0616    0.5885 C   0  0  0  0  0  0  0  0  0  0  0  0
   -2.8675    2.3982    0.7602 C   0  0  0  0  0  0  0  0  0  0  0  0
   -3.3990   -3.9087   -0.4388 C   0  0  0  0  0  0  0  0  0  0  0  0
  1 13  1  0
  2 14  1  0
  3  8  1  0
  3 19  1  0
  4  5  1  0
  4  6  1  0
  4  7  2  3
  5  9  2  0
  5 11  1  0
  6 10  2  0
  6 12  1  0
  7  8  1  0
  9 13  1  0
 10 14  1  0
 11 15  2  0
 12 16  2  0
 13 17  2  0
 14 18  2  0
 15 17  1  0
 16 18  1  0
M  END
>  <PUBCHEM_COMPOUND_CID>  (1) 
30513

>  <PUBCHEM_CONFORMER_RMSD>  (1) 
0.6

>  <PUBCHEM_CONFORMER_DIVERSEORDER>  (1) 
4
30
41
12
56
29
40
44
57
18
39
26
17
55
52
19
37
45
54
6
1
22
36
2
21
43
35
20
49
53
5
10
48
23
50
25
7
11
42
32
46
9
27
47
13
51
33
14
3
28
15
31
16
8
38
24
34

>  <PUBCHEM_MMFF94_PARTIAL_CHARGES>  (1) 
29
1 -0.19
10 -0.15
11 -0.15
12 -0.15
13 0.19
14 0.19
15 -0.15
16 -0.15
17 -0.15
18 -0.15
19 0.27
2 -0.19
20 0.15
23 0.15
24 0.15
25 0.15
26 0.15
27 0.36
28 0.15
29 0.15
3 -0.9
30 0.15
31 0.15
4 -0.06
5 0.03
6 0.03
7 -0.29
8 0.41
9 -0.15

>  <PUBCHEM_EFFECTIVE_ROTOR_COUNT>  (1) 
4

>  <PUBCHEM_PHARMACOPHORE_FEATURES>  (1) 
4
1 3 cation
1 3 donor
6 5 9 11 13 15 17 rings
6 6 10 12 14 16 18 rings

>  <PUBCHEM_HEAVY_ATOM_COUNT>  (1) 
19

>  <PUBCHEM_ATOM_DEF_STEREO_COUNT>  (1) 
0

>  <PUBCHEM_ATOM_UDEF_STEREO_COUNT>  (1) 
0

>  <PUBCHEM_BOND_DEF_STEREO_COUNT>  (1) 
0

>  <PUBCHEM_BOND_UDEF_STEREO_COUNT>  (1) 
0

>  <PUBCHEM_ISOTOPIC_ATOM_COUNT>  (1) 
0

>  <PUBCHEM_COMPONENT_COUNT>  (1) 
1

>  <PUBCHEM_CACTVS_TAUTO_COUNT>  (1) 
1

>  <PUBCHEM_CONFORMER_ID>  (1) 
0000773100000004

>  <PUBCHEM_MMFF94_ENERGY>  (1) 
53.346

>  <PUBCHEM_FEATURE_SELFOVERLAP>  (1) 
20.297

>  <PUBCHEM_SHAPE_FINGERPRINT>  (1) 
10165383 225 17913243929527119208
10764073 3 14831681220579937067
11582403 64 16809235205158091229
121448 382 18056454211233414213
12160290 23 18201144512436286215
12173636 292 18058174912381702609
12553582 1 18052250996892131982
12788726 201 18335415837085552115
13583140 156 17022904493309922980
13681431 1 17476633651858913279
14178342 30 18338499894862097106
15309172 13 18268150846755456465
15842332 3 18040991848158551314
15852999 172 17986375712181723014
15906896 17 18187365406915506267
16752209 62 18269820029944855638
17357779 13 17845077657791027543
1813 80 17911238643651600159
18186145 218 17560236899788562304
18222031 100 17698442461857765751
19765921 60 17628901345140097993
20097449 115 17909257319582585387
20600515 1 17836631294896585491
21524375 3 18262519161051078849
22079108 93 17703515394070559409
22112679 90 17979099363298768087
2255824 54 17478615607651766487
22907989 373 18341893034288064093
23419403 2 17627203987134015971
23557571 272 18060132189487489296
23559900 14 17917714549182097134
3729539 64 17332566412998846430
458136 41 17911818876906120891
5845 1 11555663235929629847
59755656 520 18129383696084691817
6049 1 17417817304903474010
621550 34 17905625302459594313
633830 44 17415844587221524537
6442390 28 18057625178358629657
68521 5 18268991054286251031
7164475 11 18336539521174157814
7615 1 18114169866014406810
81228 2 18342457101191763011
9925002 15 18191605235690450725

>  <PUBCHEM_SHAPE_MULTIPOLES>  (1) 
371.48
6.92
3.75
1.53
6.93
2.84
-0.27
-0.54
0.23
-7.31
0.95
0.4
-0.67
-0.77

>  <PUBCHEM_SHAPE_SELFOVERLAP>  (1) 
791.595

>  <PUBCHEM_SHAPE_VOLUME>  (1) 
208.2

>  <PUBCHEM_COORDINATE_TYPE>  (1) 
2
5
10

$$$$
