30524
     RDKit          3D

 22 24  0  0  1  0  0  0  0  0999 V2000
   -4.7563    0.9728    1.6440 O   0  0  0  0  0  0  0  0  0  0  0  0
    0.8512   -0.3794   -1.4472 O   0  0  0  0  0  0  0  0  0  0  0  0
    5.0454   -1.1856    0.7914 O   0  0  0  0  0  0  0  0  0  0  0  0
    5.5916    1.1617    0.7973 O   0  0  0  0  0  0  0  0  0  0  0  0
   -4.2644    1.3276    0.3453 C   0  0  0  0  0  0  0  0  0  0  0  0
   -3.8099    0.0893    1.0440 C   0  0  0  0  0  0  0  0  0  0  0  0
   -4.3604   -1.2617    0.7029 C   0  0  0  0  0  0  0  0  0  0  0  0
   -3.3916    2.5261    0.3398 C   0  0  0  0  0  0  0  0  0  0  0  0
   -5.2885    1.3062   -0.7266 C   0  0  0  0  0  0  0  0  0  0  0  0
   -3.6544   -1.8697   -0.5112 C   0  0  0  0  0  0  0  0  0  0  0  0
   -2.3455    2.4792   -0.7686 C   0  0  0  0  0  0  0  0  0  0  0  0
   -2.1675   -2.0227   -0.2885 C   0  0  0  0  0  0  0  0  0  0  0  0
   -1.7789   -2.8449    0.9123 C   0  0  0  0  0  0  0  0  0  0  0  0
   -1.2204   -1.4640   -1.0665 C   0  0  0  0  0  0  0  0  0  0  0  0
    0.2632   -1.5509   -0.8944 C   0  0  0  0  0  0  0  0  0  0  0  0
    2.0315    0.0393   -0.8919 C   0  0  0  0  0  0  0  0  0  0  0  0
    2.9010   -0.8983   -0.3389 C   0  0  0  0  0  0  0  0  0  0  0  0
    4.0774   -0.4281    0.2074 C   0  0  0  0  0  0  0  0  0  0  0  0
    2.3434    1.4064   -0.8916 C   0  0  0  0  0  0  0  0  0  0  0  0
    4.3891    0.9123    0.2109 C   0  0  0  0  0  0  0  0  0  0  0  0
    3.5417    1.8564   -0.3320 C   0  0  0  0  0  0  0  0  0  0  0  0
    6.0022   -0.1719    1.1619 C   0  0  0  0  0  0  0  0  0  0  0  0
  1  5  1  0
  1  6  1  0
  2 15  1  0
  2 16  1  0
  3 18  1  0
  3 22  1  0
  4 20  1  0
  4 22  1  0
  5  6  1  0
  5  8  1  0
  5  9  1  0
  6  7  1  0
  7 10  1  0
  8 11  1  0
 10 12  1  0
 12 13  1  0
 12 14  2  0
 14 15  1  0
 16 17  1  0
 16 19  2  0
 17 18  2  0
 18 20  1  0
 19 21  1  0
 20 21  2  0
M  END
>  <PUBCHEM_COMPOUND_CID>  (1) 
30524

>  <PUBCHEM_CONFORMER_RMSD>  (1) 
1

>  <PUBCHEM_CONFORMER_DIVERSEORDER>  (1) 
5
99
1
87
296
180
39
150
162
158
22
137
13
105
197
106
282
143
164
57
83
202
287
132
179
245
89
198
210
3
77
182
304
300
10
141
27
221
255
186
63
16
31
79
128
51
176
2
17
12
109
214
59
8
50
42
206
268
53
254
92
294
61
66
226
107
126
82
7
209
242
45
139
35
71
272
194
230
68
117
252
260
73
286
295
75
140
34
151
253
167
55
211
201
146
195
15
56
263
41
72
88
204
196
46
62
284
233
70
175
142
244
25
60
222
302
11
74
85
114
48
90
218
95
231
154
249
225
94
305
76
20
84
187
266
113
265
184
277
108
215
9
91
155
303
47
18
236
97
273
291
168
256
193
134
23
21
65
279
270
174
246
104
161
163
129
102
81
220
189
292
130
171
285
229
308
133
100
30
269
299
122
58
166
165
247
28
43
52
96
125
289
78
4
120
119
124
290
307
258
32
26
93
40
281
112
293
86
19
188
101
237
149
262
29
49
191
103
54
301
157
240
110
111
224
115
177
203
64
238
116
135
131
144
127
37
264
181
185
235
283
118
227
205
169
190
257
14
280
250
80
136
275
232
199
288
123
239
241
121
276
251
173
228
234
213
271
309
138
98
36
248
156
147
216
172
297
212
33
298
145
69
170
6
160
38
267
274
44
24
192
200
159
219
183
67
207
208
217
243
223
259
261
152
148
153
278
306
178

>  <PUBCHEM_MMFF94_PARTIAL_CHARGES>  (1) 
26
1 -0.3
10 0.14
12 -0.28
13 0.14
14 -0.29
15 0.42
16 0.08
17 -0.15
18 0.08
19 -0.15
2 -0.36
20 0.08
21 -0.15
22 0.56
23 0.1
3 -0.36
39 0.15
4 -0.36
42 0.15
43 0.15
44 0.15
5 -0.04
6 -0.05
7 0.09
8 0.09
9 0.09

>  <PUBCHEM_EFFECTIVE_ROTOR_COUNT>  (1) 
8.2

>  <PUBCHEM_PHARMACOPHORE_FEATURES>  (1) 
8
1 1 acceptor
1 11 hydrophobe
1 13 hydrophobe
1 2 acceptor
1 3 acceptor
1 4 acceptor
5 3 4 18 20 22 rings
6 16 17 18 19 20 21 rings

>  <PUBCHEM_HEAVY_ATOM_COUNT>  (1) 
22

>  <PUBCHEM_ATOM_DEF_STEREO_COUNT>  (1) 
0

>  <PUBCHEM_ATOM_UDEF_STEREO_COUNT>  (1) 
0

>  <PUBCHEM_BOND_DEF_STEREO_COUNT>  (1) 
0

>  <PUBCHEM_BOND_UDEF_STEREO_COUNT>  (1) 
1

>  <PUBCHEM_ISOTOPIC_ATOM_COUNT>  (1) 
0

>  <PUBCHEM_COMPONENT_COUNT>  (1) 
1

>  <PUBCHEM_CACTVS_TAUTO_COUNT>  (1) 
1

>  <PUBCHEM_CONFORMER_ID>  (1) 
0000773C00000005

>  <PUBCHEM_MMFF94_ENERGY>  (1) 
49.5349

>  <PUBCHEM_FEATURE_SELFOVERLAP>  (1) 
40.753

>  <PUBCHEM_SHAPE_FINGERPRINT>  (1) 
10554248 39 14620521168840348424
10675989 125 16968288216349364621
11552529 35 17755865564841222826
12107183 9 18265045826309130914
12467345 10 18334010567009657058
12596602 18 17531248421566188785
12633257 1 18408324388724755756
12670546 177 9583529719628443642
12670546 56 18336540603178686690
12969540 114 15482673493890108670
13402501 40 18273215300766780273
13914758 101 17458334240036885967
13941219 33 13479407211427885877
14123255 352 18201719552601098943
14251751 93 18261390005801742345
14251758 9 18272374135943594974
14251764 38 18341337708060270433
14466204 15 18342735221904120866
14950920 106 17531534294494556147
14951699 99 18129653249119101392
15188451 53 16950853621507737075
15256400 18 18410014290989098694
15880784 105 14852180575713401801
16993438 75 17606381173476306453
20739085 24 17749113322474611796
21315764 268 18342451603417313953
23559900 14 17986976092933638430
2838139 119 17346596344255439819
3117164 225 18335136445558220578
341906 21 18130795589432141510
3737641 26 16661193734131959298
5104073 3 18264469798812932408
7064713 232 18341908354901106285
79837 15 18261400004338791763
9981440 41 18335426730008766891
9995097 60 18130510739038839814

>  <PUBCHEM_SHAPE_MULTIPOLES>  (1) 
429.27
13.98
2.89
1.25
9.28
0.05
0.08
3.9
5.13
-3.04
-0.07
-0.25
-0.07
-0.24

>  <PUBCHEM_SHAPE_SELFOVERLAP>  (1) 
897.738

>  <PUBCHEM_SHAPE_VOLUME>  (1) 
245.7

>  <PUBCHEM_COORDINATE_TYPE>  (1) 
2
5
10

$$$$
